data_functionalizedCrystal
_audit_creation_method	'EQeq! by Chris Wilmer'
_symmetry_space_group_name_H-M	'P1'
_symmetry_Int_Tables_number	1
_symmetry_cell_setting	triclinic
loop_
_symmetry_equiv_pos_as_xyz
  x,y,z
_cell_length_a	10.7326
_cell_length_b	23.2562
_cell_length_c	9.7635
_cell_angle_alpha	90
_cell_angle_beta	105.392
_cell_angle_gamma	90
loop_
_atom_site_label
_atom_site_type_symbol
_atom_site_fract_x
_atom_site_fract_y
_atom_site_fract_z
_atom_site_charge
Mof_Zn	Zn	0.32959	0.10066	0.96839	1.209
Mof_O 	O 	0.40038	0.05229	0.13505	-0.473
Mof_O 	O 	0.2617	0.0856	0.2387	-0.211
Mof_C 	C 	0.36561	0.06196	0.2444	0.382
Mof_C 	C 	0.43555	0.02944	0.37701	-0.078
Mof_C 	C 	0.42158	0.04654	0.50908	-0.023
Mof_H 	H 	0.3682	0.0785	0.5155	0.061
Mof_C 	C 	0.51446	0.98296	0.36862	-0.007
Mof_H 	H 	0.5248	0.9713	0.279	0.044
Mof_O 	O 	0.20189	0.04966	0.84342	-0.447
Mof_O 	O 	0.23223	0.10991	0.67895	-0.328
Mof_C 	C 	0.18044	0.06701	0.71436	0.306
Mof_C 	C 	0.08696	0.03222	0.60389	-0.061
Mof_C 	C 	0.08403	0.03845	0.4602	-0.03
Mof_H 	H 	0.141	0.0647	0.433	0.061
Mof_C 	C 	0.00239	0.99383	0.64239	-0.019
Mof_H 	H 	0.0038	0.9897	0.7396	0.047
Mof_N 	N 	0.50307	0.1106	0.92546	-0.256
Mof_N 	N 	0.70333	0.0942	0.92016	-0.113
Mof_N 	N 	0.14021	0.24236	0.42133	-0.117
Mof_N 	N 	0.2624	0.31933	0.47139	-0.268
Mof_C 	C 	0.60756	0.07871	0.97698	0.089
Mof_H 	H 	0.6137	0.0489	0.045	0.002
Mof_C 	C 	0.53481	0.14817	0.8311	0.007
Mof_H 	H 	0.4787	0.1763	0.7769	0.018
Mof_C 	C 	0.6588	0.13869	0.8276	-0.005
Mof_H 	H 	0.7054	0.1588	0.7724	0.033
Mof_C 	C 	0.83288	0.06813	0.9521	-0.05
Mof_H 	H 	0.8468	0.0513	0.8642	0.05
Mof_H 	H 	0.8384	0.0367	0.0218	0.058
Mof_C 	C 	0.93836	0.1122	0.0119	-0.102
Mof_H 	H 	0.9356	0.1423	0.9394	0.057
Mof_H 	H 	0.0235	0.093	0.031	0.053
Mof_C 	C 	0.9261	0.14087	0.1483	-0.059
Mof_H 	H 	0.9214	0.1108	0.2186	0.051
Mof_H 	H 	0.8447	0.1632	0.1277	0.049
Mof_C 	C 	0.03958	0.1809	0.2125	-0.142
Mof_H 	H 	0.1217	0.1595	0.2259	0.095
Mof_H 	H 	0.0399	0.2131	0.1461	0.076
Mof_C 	C 	0.0308	0.20478	0.3541	-0.02
Mof_H 	H 	0.9494	0.2268	0.3396	0.034
Mof_H 	H 	0.0276	0.1724	0.4189	0.046
Mof_C 	C 	0.2414	0.22841	0.5345	-0.016
Mof_H 	H 	0.2568	0.1924	0.5821	0.059
Mof_C 	C 	0.3155	0.27645	0.5649	0.018
Mof_H 	H 	0.3925	0.2798	0.6397	0.01
Mof_C 	C 	0.15598	0.29731	0.3862	0.088
Mof_H 	H 	0.0987	0.3175	0.3107	-0.008
Mof_O 	O 	0.3185	0.111	0.265	-0.17
Mof_Zn	Zn	0.67041	0.60066	0.53161	1.21
Mof_O 	O 	0.59962	0.55229	0.36495	-0.474
Mof_O 	O 	0.7383	0.5856	0.2613	-0.211
Mof_C 	C 	0.63439	0.56196	0.2556	0.382
Mof_C 	C 	0.56445	0.52944	0.12299	-0.079
Mof_C 	C 	0.57842	0.54654	0.99092	-0.023
Mof_H 	H 	0.6318	0.5785	0.9845	0.061
Mof_C 	C 	0.48554	0.48296	0.13138	-0.006
Mof_H 	H 	0.4752	0.4713	0.221	0.044
Mof_O 	O 	0.79811	0.54966	0.65658	-0.446
Mof_O 	O 	0.76777	0.60991	0.82105	-0.328
Mof_C 	C 	0.81956	0.56701	0.78564	0.306
Mof_C 	C 	0.91304	0.53222	0.89611	-0.06
Mof_C 	C 	0.91597	0.53845	0.0398	-0.032
Mof_H 	H 	0.859	0.5647	0.067	0.061
Mof_C 	C 	0.99761	0.49383	0.85761	-0.018
Mof_H 	H 	0.9962	0.4897	0.7604	0.047
Mof_N 	N 	0.49693	0.6106	0.57454	-0.256
Mof_N 	N 	0.29667	0.5942	0.57984	-0.114
Mof_N 	N 	0.85979	0.74236	0.07867	-0.118
Mof_N 	N 	0.7376	0.81933	0.02861	-0.268
Mof_C 	C 	0.39244	0.57871	0.52302	0.091
Mof_H 	H 	0.3863	0.5489	0.455	0.001
Mof_C 	C 	0.46519	0.64817	0.6689	0.007
Mof_H 	H 	0.5213	0.6763	0.7231	0.018
Mof_C 	C 	0.3412	0.63869	0.6724	-0.005
Mof_H 	H 	0.2946	0.6588	0.7276	0.033
Mof_C 	C 	0.16712	0.56813	0.5479	-0.046
Mof_H 	H 	0.1532	0.5513	0.6358	0.049
Mof_H 	H 	0.1616	0.5367	0.4782	0.056
Mof_C 	C 	0.06164	0.6122	0.4881	-0.106
Mof_H 	H 	0.0644	0.6423	0.5606	0.058
Mof_H 	H 	0.9765	0.593	0.469	0.053
Mof_C 	C 	0.0739	0.64087	0.3517	-0.056
Mof_H 	H 	0.0786	0.6108	0.2814	0.051
Mof_H 	H 	0.1553	0.6632	0.3723	0.048
Mof_C 	C 	0.96042	0.6809	0.2875	-0.143
Mof_H 	H 	0.8783	0.6595	0.2741	0.095
Mof_H 	H 	0.9601	0.7131	0.3539	0.076
Mof_C 	C 	0.9692	0.70478	0.1459	-0.02
Mof_H 	H 	0.0506	0.7268	0.1604	0.034
Mof_H 	H 	0.9724	0.6724	0.0811	0.045
Mof_C 	C 	0.7586	0.72841	0.9655	-0.014
Mof_H 	H 	0.7432	0.6924	0.9179	0.059
Mof_C 	C 	0.6845	0.77645	0.9351	0.019
Mof_H 	H 	0.6075	0.7798	0.8603	0.01
Mof_C 	C 	0.84402	0.79731	0.1138	0.088
Mof_H 	H 	0.9013	0.8175	0.1893	-0.008
Mof_O 	O 	0.6815	0.611	0.235	-0.171
Mof_Zn	Zn	0.67041	0.89934	0.03161	1.209
Mof_O 	O 	0.59962	0.94771	0.86495	-0.473
Mof_O 	O 	0.7383	0.9144	0.7613	-0.211
Mof_C 	C 	0.63439	0.93804	0.7556	0.382
Mof_C 	C 	0.56445	0.97056	0.62299	-0.078
Mof_C 	C 	0.57842	0.95346	0.49092	-0.023
Mof_H 	H 	0.6318	0.9215	0.4845	0.061
Mof_C 	C 	0.48554	0.01704	0.63138	-0.007
Mof_H 	H 	0.4752	0.0287	0.721	0.044
Mof_O 	O 	0.79811	0.95034	0.15658	-0.447
Mof_O 	O 	0.76777	0.89009	0.32105	-0.328
Mof_C 	C 	0.81956	0.93299	0.28564	0.306
Mof_C 	C 	0.91304	0.96778	0.39611	-0.061
Mof_C 	C 	0.91597	0.96155	0.5398	-0.03
Mof_H 	H 	0.859	0.9353	0.567	0.061
Mof_C 	C 	0.99761	0.00617	0.35761	-0.019
Mof_H 	H 	0.9962	0.0103	0.2604	0.047
Mof_N 	N 	0.49693	0.8894	0.07454	-0.256
Mof_N 	N 	0.29667	0.9058	0.07984	-0.113
Mof_N 	N 	0.85979	0.75764	0.57867	-0.117
Mof_N 	N 	0.7376	0.68067	0.52861	-0.268
Mof_C 	C 	0.39244	0.92129	0.02302	0.089
Mof_H 	H 	0.3863	0.9511	0.955	0.002
Mof_C 	C 	0.46519	0.85183	0.1689	0.007
Mof_H 	H 	0.5213	0.8237	0.2231	0.018
Mof_C 	C 	0.3412	0.86131	0.1724	-0.005
Mof_H 	H 	0.2946	0.8412	0.2276	0.033
Mof_C 	C 	0.16712	0.93187	0.0479	-0.05
Mof_H 	H 	0.1532	0.9487	0.1358	0.05
Mof_H 	H 	0.1616	0.9633	0.9782	0.058
Mof_C 	C 	0.06164	0.8878	0.9881	-0.102
Mof_H 	H 	0.0644	0.8577	0.0606	0.057
Mof_H 	H 	0.9765	0.907	0.969	0.053
Mof_C 	C 	0.0739	0.85913	0.8517	-0.059
Mof_H 	H 	0.0786	0.8892	0.7814	0.051
Mof_H 	H 	0.1553	0.8368	0.8723	0.049
Mof_C 	C 	0.96042	0.8191	0.7875	-0.142
Mof_H 	H 	0.8783	0.8405	0.7741	0.095
Mof_H 	H 	0.9601	0.7869	0.8539	0.076
Mof_C 	C 	0.9692	0.79522	0.6459	-0.02
Mof_H 	H 	0.0506	0.7732	0.6604	0.034
Mof_H 	H 	0.9724	0.8276	0.5811	0.046
Mof_C 	C 	0.7586	0.77159	0.4655	-0.016
Mof_H 	H 	0.7432	0.8076	0.4179	0.059
Mof_C 	C 	0.6845	0.72355	0.4351	0.018
Mof_H 	H 	0.6075	0.7202	0.3603	0.01
Mof_C 	C 	0.84402	0.70269	0.6138	0.088
Mof_H 	H 	0.9013	0.6825	0.6893	-0.008
Mof_O 	O 	0.6815	0.889	0.735	-0.17
Mof_Zn	Zn	0.32959	0.39934	0.46839	1.21
Mof_O 	O 	0.40038	0.44771	0.63505	-0.474
Mof_O 	O 	0.2617	0.4144	0.7387	-0.211
Mof_C 	C 	0.36561	0.43804	0.7444	0.382
Mof_C 	C 	0.43555	0.47056	0.87701	-0.079
Mof_C 	C 	0.42158	0.45346	0.00908	-0.023
Mof_H 	H 	0.3682	0.4215	0.0155	0.061
Mof_C 	C 	0.51446	0.51704	0.86862	-0.006
Mof_H 	H 	0.5248	0.5287	0.779	0.044
Mof_O 	O 	0.20189	0.45034	0.34342	-0.446
Mof_O 	O 	0.23223	0.39009	0.17895	-0.328
Mof_C 	C 	0.18044	0.43299	0.21436	0.306
Mof_C 	C 	0.08696	0.46778	0.10389	-0.06
Mof_C 	C 	0.08403	0.46155	0.9602	-0.032
Mof_H 	H 	0.141	0.4353	0.933	0.061
Mof_C 	C 	0.00239	0.50617	0.14239	-0.018
Mof_H 	H 	0.0038	0.5103	0.2396	0.047
Mof_N 	N 	0.50307	0.3894	0.42546	-0.256
Mof_N 	N 	0.70333	0.4058	0.42016	-0.114
Mof_N 	N 	0.14021	0.25764	0.92133	-0.118
Mof_N 	N 	0.2624	0.18067	0.97139	-0.268
Mof_C 	C 	0.60756	0.42129	0.47698	0.091
Mof_H 	H 	0.6137	0.4511	0.545	0.001
Mof_C 	C 	0.53481	0.35183	0.3311	0.007
Mof_H 	H 	0.4787	0.3237	0.2769	0.018
Mof_C 	C 	0.6588	0.36131	0.3276	-0.005
Mof_H 	H 	0.7054	0.3412	0.2724	0.033
Mof_C 	C 	0.83288	0.43187	0.4521	-0.046
Mof_H 	H 	0.8468	0.4487	0.3642	0.049
Mof_H 	H 	0.8384	0.4633	0.5218	0.056
Mof_C 	C 	0.93836	0.3878	0.5119	-0.106
Mof_H 	H 	0.9356	0.3577	0.4394	0.058
Mof_H 	H 	0.0235	0.407	0.531	0.053
Mof_C 	C 	0.9261	0.35913	0.6483	-0.056
Mof_H 	H 	0.9214	0.3892	0.7186	0.051
Mof_H 	H 	0.8447	0.3368	0.6277	0.048
Mof_C 	C 	0.03958	0.3191	0.7125	-0.143
Mof_H 	H 	0.1217	0.3405	0.7259	0.095
Mof_H 	H 	0.0399	0.2869	0.6461	0.076
Mof_C 	C 	0.0308	0.29522	0.8541	-0.02
Mof_H 	H 	0.9494	0.2732	0.8396	0.034
Mof_H 	H 	0.0276	0.3276	0.9189	0.045
Mof_C 	C 	0.2414	0.27159	0.0345	-0.014
Mof_H 	H 	0.2568	0.3076	0.0821	0.059
Mof_C 	C 	0.3155	0.22355	0.0649	0.019
Mof_H 	H 	0.3925	0.2202	0.1397	0.01
Mof_C 	C 	0.15598	0.20269	0.8862	0.088
Mof_H 	H 	0.0987	0.1825	0.8107	-0.008
Mof_O 	O 	0.3185	0.389	0.765	-0.171
_end
