# CIF file generated by openbabel 3.1.0, see https://openbabel.org
data_I
_chemical_name_common 'ILIFOY_clean'
_cell_length_a 8.9709
_cell_length_b 10.3426
_cell_length_c 10.3426
_cell_angle_alpha 120
_cell_angle_beta 90
_cell_angle_gamma 90
_space_group_name_H-M_alt 'P 1'
_space_group_name_Hall 'P 1'
loop_
    _symmetry_equiv_pos_as_xyz
    x,y,z
loop_
    _atom_site_label
    _atom_site_type_symbol
    _atom_site_fract_x
    _atom_site_fract_y
    _atom_site_fract_z
    _atom_site_occupancy
    La1      La       0.95064    0.33333    0.66666    1.000
    La2      La       0.04936    0.66667    0.33334    1.000
    H1       H        0.56330    0.47920    0.36500    1.000
    H2       H        0.71990    0.62850    0.56980    1.000
    H3       H        0.56330    0.88580    0.52080    1.000
    H4       H        0.71990    0.94130    0.37150    1.000
    H5       H        0.56330    0.63500    0.11420    1.000
    H6       H        0.71990    0.43020    0.05870    1.000
    H7       H        0.43670    0.52080    0.63500    1.000
    H8       H        0.28010    0.37150    0.43020    1.000
    H9       H        0.43670    0.11420    0.47920    1.000
    H10      H        0.28010    0.05870    0.62850    1.000
    H11      H        0.43670    0.36500    0.88580    1.000
    H12      H        0.28010    0.56980    0.94130    1.000
    C1       C        0.56720    0.46170    0.44970    1.000
    C2       C        0.84270    0.44520    0.42010    1.000
    C3       C        0.71490    0.52040    0.52960    1.000
    C4       C        0.56720    0.98800    0.53830    1.000
    C5       C        0.84270    0.97490    0.55480    1.000
    C6       C        0.71490    0.00920    0.47960    1.000
    C7       C        0.56720    0.55030    0.01200    1.000
    C8       C        0.84270    0.57990    0.02510    1.000
    C9       C        0.71490    0.47040    0.99080    1.000
    C10      C        0.43280    0.53830    0.55030    1.000
    C11      C        0.15730    0.55480    0.57990    1.000
    C12      C        0.28510    0.47960    0.47040    1.000
    C13      C        0.43280    0.01200    0.46170    1.000
    C14      C        0.15730    0.02510    0.44520    1.000
    C15      C        0.28510    0.99080    0.52040    1.000
    C16      C        0.43280    0.44970    0.98800    1.000
    C17      C        0.15730    0.42010    0.97490    1.000
    C18      C        0.28510    0.52960    0.00920    1.000
    O1       O        0.55870    0.30380    0.39320    1.000
    O2       O        0.92050    0.35140    0.43360    1.000
    O3       O        0.86160    0.48040    0.32170    1.000
    O4       O        0.73400    0.48870    0.64890    1.000
    O5       O        0.55870    0.08940    0.69620    1.000
    O6       O        0.92050    0.08220    0.64860    1.000
    O7       O        0.86160    0.84130    0.51960    1.000
    O8       O        0.73400    0.16020    0.51130    1.000
    O9       O        0.55870    0.60680    0.91060    1.000
    O10      O        0.92050    0.56640    0.91780    1.000
    O11      O        0.86160    0.67830    0.15870    1.000
    O12      O        0.73400    0.35110    0.83980    1.000
    O13      O        0.44130    0.69620    0.60680    1.000
    O14      O        0.07950    0.64860    0.56640    1.000
    O15      O        0.13840    0.51960    0.67830    1.000
    O16      O        0.26600    0.51130    0.35110    1.000
    O17      O        0.44130    0.91060    0.30380    1.000
    O18      O        0.07950    0.91780    0.35140    1.000
    O19      O        0.13840    0.15870    0.48040    1.000
    O20      O        0.26600    0.83980    0.48870    1.000
    O21      O        0.44130    0.39320    0.08940    1.000
    O22      O        0.07950    0.43360    0.08220    1.000
    O23      O        0.13840    0.32170    0.84130    1.000
    O24      O        0.26600    0.64890    0.16020    1.000
