data_functionalizedCrystal
_audit_creation_method	'EQeq! by Chris Wilmer'
_symmetry_space_group_name_H-M	'P1'
_symmetry_Int_Tables_number	1
_symmetry_cell_setting	triclinic
loop_
_symmetry_equiv_pos_as_xyz
  x,y,z
_cell_length_a	11.573
_cell_length_b	13.892
_cell_length_c	14.655
_cell_angle_alpha	62.631
_cell_angle_beta	68.977
_cell_angle_gamma	68.8
loop_
_atom_site_label
_atom_site_type_symbol
_atom_site_fract_x
_atom_site_fract_y
_atom_site_fract_z
_atom_site_charge
Mof_C 	C 	0.942	0.3519	0.344	-0.295
Mof_H 	H 	0.8898	0.39	0.3881	0.144
Mof_C 	C 	0.8928	0.2971	0.3136	0.238
Mof_C 	C 	0.969	0.2397	0.2484	-0.297
Mof_H 	H 	0.9343	0.2043	0.2276	0.143
Mof_C 	C 	0.0966	0.2362	0.2152	0.242
Mof_C 	C 	0.1502	0.2899	0.2436	-0.294
Mof_H 	H 	0.2371	0.2866	0.2206	0.143
Mof_C 	C 	0.0708	0.3486	0.3074	0.237
Mof_C 	C 	0.0862	0.5144	0.3212	0.008
Mof_H 	H 	0.017	0.5658	0.2938	0.037
Mof_C 	C 	0.2889	0.2006	0.0759	0.007
Mof_H 	H 	0.3276	0.255	0.0636	0.028
Mof_C 	C 	0.1555	0.0926	0.1405	0.106
Mof_H 	H 	0.0858	0.0613	0.1803	-0.001
Mof_C 	C 	0.6637	0.3766	0.3774	0.116
Mof_H 	H 	0.6723	0.443	0.3721	-0.005
Mof_C 	C 	0.7103	0.2131	0.3701	0.017
Mof_H 	H 	0.7545	0.147	0.3593	0.033
Mof_C 	C 	0.584	0.2454	0.4065	0.005
Mof_H 	H 	0.525	0.2043	0.426	0.027
Mof_C 	C 	0.2256	0.3664	0.3764	0.124
Mof_H 	H 	0.2719	0.2925	0.3946	-0.016
Mof_C 	C 	0.1651	0.5353	0.3534	0.005
Mof_H 	H 	0.1604	0.6042	0.352	0.018
Mof_C 	C 	0.5393	0.0165	0.1915	0.385
Mof_C 	C 	0.446	0.9432	0.2591	-0.104
Mof_C 	C 	0.4724	0.8388	0.2574	0.031
Mof_H 	H 	0.5472	0.8134	0.2143	0.034
Mof_C 	C 	0.387	0.7725	0.3199	-0.117
Mof_C 	C 	0.2725	0.8138	0.3792	-0.006
Mof_H 	H 	0.2146	0.7692	0.421	0.043
Mof_C 	C 	0.2437	0.9192	0.3772	-0.016
Mof_C 	C 	0.332	0.983	0.3189	-0.009
Mof_H 	H 	0.3147	0.0535	0.3198	0.049
Mof_C 	C 	0.1174	0.9621	0.44	0.029
Mof_C 	C 	0.0097	0.9326	0.4515	-0.061
Mof_H 	H 	0.0157	0.8874	0.4181	0.059
Mof_C 	C 	0.1065	0.0313	0.4887	-0.052
Mof_H 	H 	0.1775	0.0533	0.481	0.056
Mof_C 	C 	0.4171	0.6556	0.3261	0.363
Mof_C 	C 	0.2736	0.3114	0.646	0.32
Mof_C 	C 	0.1843	0.2886	0.7514	-0.073
Mof_C 	C 	0.1103	0.2143	0.7867	0.005
Mof_H 	H 	0.1244	0.1716	0.7484	0.055
Mof_C 	C 	0.015	0.2025	0.8787	-0.087
Mof_C 	C 	0.9938	0.2678	0.9346	-0.038
Mof_H 	H 	0.9293	0.2608	0.9959	0.053
Mof_C 	C 	0.0669	0.343	0.9005	0.006
Mof_C 	C 	0.1623	0.3519	0.809	-0.035
Mof_H 	H 	0.2128	0.4015	0.7856	0.062
Mof_C 	C 	0.033	0.4232	0.953	0.025
Mof_C 	C 	0.9093	0.456	0.0034	-0.053
Mof_H 	H 	0.8467	0.4268	0.0063	0.051
Mof_C 	C 	0.1235	0.4674	0.9499	-0.055
Mof_H 	H 	0.2078	0.446	0.916	0.055
Mof_C 	C 	0.9277	0.1324	0.9078	0.329
Mof_C 	C 	0.3317	0.1281	0.0289	0.005
Mof_H 	H 	0.4058	0.1244	0.9761	0.001
Mof_Co	Co	0.38401	0.43284	0.45397	1.157
Mof_Co	Co	0.72718	0.05665	0.98441	1.133
Mof_N 	N 	0.5563	0.3472	0.4103	-0.261
Mof_N 	N 	0.76	0.2964	0.3523	-0.162
Mof_N 	N 	0.1756	0.1794	0.1465	-0.161
Mof_N 	N 	0.1237	0.4064	0.3351	-0.168
Mof_O 	O 	0.5256	0.0987	0.2075	-0.302
Mof_O 	O 	0.6228	0.9858	0.1219	-0.472
Mof_O 	O 	0.4765	0.6341	0.2474	-0.322
Mof_O 	O 	0.3759	0.588	0.4153	-0.467
Mof_O 	O 	0.3063	0.4036	0.6045	-0.428
Mof_O 	O 	0.3076	0.2485	0.599	-0.321
Mof_O 	O 	0.9223	0.1027	0.8425	-0.354
Mof_N 	N 	0.2522	0.4415	0.388	-0.257
Mof_O 	O 	0.8544	0.1084	0.9974	-0.444
Mof_N 	N 	0.2497	0.0591	0.07	-0.253
Mof_C 	C 	0.058	0.6481	0.656	-0.294
Mof_H 	H 	0.1102	0.61	0.6119	0.145
Mof_C 	C 	0.1072	0.7029	0.6864	0.239
Mof_C 	C 	0.031	0.7603	0.7516	-0.296
Mof_H 	H 	0.0657	0.7957	0.7724	0.143
Mof_C 	C 	0.9034	0.7638	0.7848	0.242
Mof_C 	C 	0.8498	0.7101	0.7564	-0.294
Mof_H 	H 	0.7629	0.7134	0.7794	0.143
Mof_C 	C 	0.9292	0.6514	0.6926	0.237
Mof_C 	C 	0.9138	0.4856	0.6788	0.008
Mof_H 	H 	0.983	0.4342	0.7062	0.037
Mof_C 	C 	0.7111	0.7994	0.9241	0.007
Mof_H 	H 	0.6724	0.745	0.9364	0.028
Mof_C 	C 	0.8445	0.9074	0.8595	0.106
Mof_H 	H 	0.9142	0.9387	0.8197	-0.001
Mof_C 	C 	0.3363	0.6234	0.6226	0.116
Mof_H 	H 	0.3277	0.557	0.6279	-0.005
Mof_C 	C 	0.2897	0.7869	0.6299	0.017
Mof_H 	H 	0.2455	0.853	0.6407	0.033
Mof_C 	C 	0.416	0.7546	0.5935	0.005
Mof_H 	H 	0.475	0.7957	0.574	0.027
Mof_C 	C 	0.7744	0.6336	0.6236	0.124
Mof_H 	H 	0.7281	0.7075	0.6054	-0.016
Mof_C 	C 	0.8349	0.4647	0.6466	0.005
Mof_H 	H 	0.8396	0.3958	0.648	0.018
Mof_C 	C 	0.4607	0.9835	0.8085	0.385
Mof_C 	C 	0.554	0.0568	0.7409	-0.104
Mof_C 	C 	0.5276	0.1612	0.7426	0.031
Mof_H 	H 	0.4528	0.1866	0.7857	0.034
Mof_C 	C 	0.613	0.2275	0.6801	-0.117
Mof_C 	C 	0.7275	0.1862	0.6208	-0.006
Mof_H 	H 	0.7854	0.2308	0.579	0.043
Mof_C 	C 	0.7563	0.0808	0.6228	-0.016
Mof_C 	C 	0.668	0.017	0.6811	-0.009
Mof_H 	H 	0.6853	0.9465	0.6802	0.049
Mof_C 	C 	0.8826	0.0379	0.56	0.029
Mof_C 	C 	0.9903	0.0674	0.5485	-0.061
Mof_H 	H 	0.9843	0.1126	0.5819	0.059
Mof_C 	C 	0.8935	0.9687	0.5113	-0.052
Mof_H 	H 	0.8225	0.9467	0.519	0.056
Mof_C 	C 	0.5829	0.3444	0.6739	0.363
Mof_C 	C 	0.7264	0.6886	0.354	0.32
Mof_C 	C 	0.8157	0.7114	0.2486	-0.073
Mof_C 	C 	0.8897	0.7857	0.2133	0.005
Mof_H 	H 	0.8756	0.8284	0.2516	0.055
Mof_C 	C 	0.985	0.7975	0.1213	-0.087
Mof_C 	C 	0.0062	0.7322	0.0654	-0.038
Mof_H 	H 	0.0707	0.7392	0.0041	0.053
Mof_C 	C 	0.9331	0.657	0.0995	0.006
Mof_C 	C 	0.8377	0.6481	0.191	-0.035
Mof_H 	H 	0.7872	0.5985	0.2144	0.062
Mof_C 	C 	0.967	0.5768	0.047	0.025
Mof_C 	C 	0.0907	0.544	0.9966	-0.053
Mof_H 	H 	0.1533	0.5732	0.9937	0.051
Mof_C 	C 	0.8765	0.5326	0.0501	-0.055
Mof_H 	H 	0.7922	0.554	0.084	0.055
Mof_C 	C 	0.0723	0.8676	0.0922	0.329
Mof_C 	C 	0.6683	0.8719	0.9711	0.005
Mof_H 	H 	0.5942	0.8756	0.0239	0.001
Mof_Co	Co	0.61599	0.56716	0.54603	1.157
Mof_Co	Co	0.27282	0.94335	0.01559	1.133
Mof_N 	N 	0.4437	0.6528	0.5897	-0.261
Mof_N 	N 	0.24	0.7036	0.6477	-0.162
Mof_N 	N 	0.8244	0.8206	0.8535	-0.161
Mof_N 	N 	0.8763	0.5936	0.6649	-0.168
Mof_O 	O 	0.4744	0.9013	0.7925	-0.302
Mof_O 	O 	0.3772	0.0142	0.8781	-0.472
Mof_O 	O 	0.5235	0.3659	0.7526	-0.322
Mof_O 	O 	0.6241	0.412	0.5847	-0.467
Mof_O 	O 	0.6937	0.5964	0.3955	-0.428
Mof_O 	O 	0.6924	0.7515	0.401	-0.321
Mof_O 	O 	0.0777	0.8973	0.1575	-0.354
Mof_N 	N 	0.7478	0.5585	0.612	-0.257
Mof_O 	O 	0.1456	0.8916	0.0026	-0.444
Mof_N 	N 	0.7503	0.9409	0.93	-0.253
_end
