# CIF file generated by openbabel 3.1.0, see https://openbabel.org
data_I
_chemical_name_common 'image0'
_cell_length_a 21.6024
_cell_length_b 21.6024
_cell_length_c 11.3824
_cell_angle_alpha 90
_cell_angle_beta 90
_cell_angle_gamma 90
_space_group_name_H-M_alt 'P 1'
_space_group_name_Hall 'P 1'
loop_
    _symmetry_equiv_pos_as_xyz
    x,y,z
loop_
    _atom_site_label
    _atom_site_type_symbol
    _atom_site_fract_x
    _atom_site_fract_y
    _atom_site_fract_z
    _atom_site_occupancy
    Eu1      Eu       0.42799    0.56379    0.53109    1.000
    O1       O        0.38052    0.46331    0.53950    1.000
    O2       O        0.32190    0.41881    0.39830    1.000
    N1       N        0.31167    0.31232    0.52140    1.000
    O3       O        0.14213    0.23551    0.39550    1.000
    O4       O        0.37479    0.24124    0.36190    1.000
    O5       O        0.24216    0.24466    0.36590    1.000
    C1       C        0.19734    0.29821    0.53350    1.000
    C2       C        0.24638    0.37627    0.65400    1.000
    H1       H        0.28160    0.40020    0.67510    1.000
    O6       O        0.39116    0.16500    0.48980    1.000
    C3       C        0.25205    0.32890    0.57040    1.000
    C4       C        0.36854    0.21613    0.46150    1.000
    C5       C        0.36260    0.35498    0.55110    1.000
    H2       H        0.40240    0.33660    0.52560    1.000
    H3       H        0.36430    0.36050    0.63740    1.000
    O7       O        0.13906    0.44141    0.86260    1.000
    C6       C        0.18179    0.44016    0.79340    1.000
    C7       C        0.18903    0.38852    0.70660    1.000
    C8       C        0.19337    0.25657    0.42660    1.000
    C9       C        0.14136    0.30983    0.59090    1.000
    H4       H        0.10550    0.28700    0.56930    1.000
    C10      C        0.13720    0.35400    0.67870    1.000
    H5       H        0.09930    0.36040    0.71920    1.000
    C11      C        0.32997    0.24819    0.55520    1.000
    H6       H        0.29220    0.22350    0.57000    1.000
    H7       H        0.35400    0.24980    0.62920    1.000
    O8       O        0.22305    0.48413    0.78860    1.000
    C12      C        0.35450    0.41788    0.49280    1.000
    H8       H        0.21000    0.51920    0.81300    1.000
    Eu2      Eu       0.92799    0.06379    0.03109    1.000
    O9       O        0.88052    0.96331    0.03950    1.000
    O10      O        0.82190    0.91881    0.89830    1.000
    N2       N        0.81167    0.81232    0.02140    1.000
    O11      O        0.64213    0.73551    0.89550    1.000
    O12      O        0.87479    0.74124    0.86190    1.000
    O13      O        0.74216    0.74466    0.86590    1.000
    C13      C        0.69734    0.79821    0.03350    1.000
    C14      C        0.74638    0.87627    0.15400    1.000
    H9       H        0.78160    0.90020    0.17510    1.000
    O14      O        0.89116    0.66500    0.98980    1.000
    C15      C        0.75205    0.82890    0.07040    1.000
    C16      C        0.86854    0.71613    0.96150    1.000
    C17      C        0.86260    0.85498    0.05110    1.000
    H10      H        0.90240    0.83660    0.02560    1.000
    H11      H        0.86430    0.86050    0.13740    1.000
    O15      O        0.63906    0.94141    0.36260    1.000
    C18      C        0.68179    0.94016    0.29340    1.000
    C19      C        0.68903    0.88852    0.20660    1.000
    C20      C        0.69337    0.75657    0.92660    1.000
    C21      C        0.64136    0.80983    0.09090    1.000
    H12      H        0.60550    0.78700    0.06930    1.000
    C22      C        0.63720    0.85400    0.17870    1.000
    H13      H        0.59930    0.86040    0.21920    1.000
    C23      C        0.82997    0.74819    0.05520    1.000
    H14      H        0.79220    0.72350    0.07000    1.000
    H15      H        0.85400    0.74980    0.12920    1.000
    O16      O        0.72305    0.98413    0.28860    1.000
    C24      C        0.85450    0.91788    0.99280    1.000
    H16      H        0.71000    0.01920    0.31300    1.000
    Eu3      Eu       0.07201    0.43621    0.03109    1.000
    O17      O        0.11948    0.53669    0.03950    1.000
    O18      O        0.17810    0.58119    0.89830    1.000
    N3       N        0.18833    0.68768    0.02140    1.000
    O19      O        0.35787    0.76449    0.89550    1.000
    O20      O        0.12521    0.75876    0.86190    1.000
    O21      O        0.25784    0.75534    0.86590    1.000
    C25      C        0.30266    0.70179    0.03350    1.000
    C26      C        0.25362    0.62373    0.15400    1.000
    H17      H        0.21840    0.59980    0.17510    1.000
    O22      O        0.10884    0.83500    0.98980    1.000
    C27      C        0.24795    0.67110    0.07040    1.000
    C28      C        0.13146    0.78387    0.96150    1.000
    C29      C        0.13740    0.64502    0.05110    1.000
    H18      H        0.09760    0.66340    0.02560    1.000
    H19      H        0.13570    0.63950    0.13740    1.000
    O23      O        0.36094    0.55859    0.36260    1.000
    C30      C        0.31821    0.55984    0.29340    1.000
    C31      C        0.31097    0.61148    0.20660    1.000
    C32      C        0.30663    0.74343    0.92660    1.000
    C33      C        0.35864    0.69017    0.09090    1.000
    H20      H        0.39450    0.71300    0.06930    1.000
    C34      C        0.36280    0.64600    0.17870    1.000
    H21      H        0.40070    0.63960    0.21920    1.000
    C35      C        0.17003    0.75181    0.05520    1.000
    H22      H        0.20780    0.77650    0.07000    1.000
    H23      H        0.14600    0.75020    0.12920    1.000
    O24      O        0.27695    0.51587    0.28860    1.000
    C36      C        0.14550    0.58212    0.99280    1.000
    H24      H        0.29000    0.48080    0.31300    1.000
    Eu4      Eu       0.57201    0.93621    0.53109    1.000
    O25      O        0.61948    0.03669    0.53950    1.000
    O26      O        0.67810    0.08119    0.39830    1.000
    N4       N        0.68833    0.18768    0.52140    1.000
    O27      O        0.85787    0.26449    0.39550    1.000
    O28      O        0.62521    0.25876    0.36190    1.000
    O29      O        0.75784    0.25534    0.36590    1.000
    C37      C        0.80266    0.20179    0.53350    1.000
    C38      C        0.75362    0.12373    0.65400    1.000
    H25      H        0.71840    0.09980    0.67510    1.000
    O30      O        0.60884    0.33500    0.48980    1.000
    C39      C        0.74795    0.17110    0.57040    1.000
    C40      C        0.63146    0.28387    0.46150    1.000
    C41      C        0.63740    0.14502    0.55110    1.000
    H26      H        0.59760    0.16340    0.52560    1.000
    H27      H        0.63570    0.13950    0.63740    1.000
    O31      O        0.86094    0.05859    0.86260    1.000
    C42      C        0.81821    0.05984    0.79340    1.000
    C43      C        0.81097    0.11148    0.70660    1.000
    C44      C        0.80663    0.24343    0.42660    1.000
    C45      C        0.85864    0.19017    0.59090    1.000
    H28      H        0.89450    0.21300    0.56930    1.000
    C46      C        0.86280    0.14600    0.67870    1.000
    H29      H        0.90070    0.13960    0.71920    1.000
    C47      C        0.67003    0.25181    0.55520    1.000
    H30      H        0.70780    0.27650    0.57000    1.000
    H31      H        0.64600    0.25020    0.62920    1.000
    O32      O        0.77695    0.01587    0.78860    1.000
    C48      C        0.64550    0.08212    0.49280    1.000
    H32      H        0.79000    0.98080    0.81300    1.000
    Eu5      Eu       0.18621    0.67799    0.78109    1.000
    O33      O        0.28669    0.63052    0.78950    1.000
    O34      O        0.33119    0.57190    0.64830    1.000
    N5       N        0.43768    0.56167    0.77140    1.000
    O35      O        0.51449    0.39213    0.64550    1.000
    O36      O        0.50876    0.62479    0.61190    1.000
    O37      O        0.50534    0.49216    0.61590    1.000
    C49      C        0.45179    0.44734    0.78350    1.000
    C50      C        0.37373    0.49638    0.90400    1.000
    H33      H        0.34980    0.53160    0.92510    1.000
    O38      O        0.58500    0.64116    0.73980    1.000
    C51      C        0.42110    0.50205    0.82040    1.000
    C52      C        0.53387    0.61854    0.71150    1.000
    C53      C        0.39502    0.61260    0.80110    1.000
    H34      H        0.41340    0.65240    0.77560    1.000
    H35      H        0.38950    0.61430    0.88740    1.000
    O39      O        0.30859    0.38906    0.11260    1.000
    C54      C        0.30984    0.43179    0.04340    1.000
    C55      C        0.36148    0.43903    0.95660    1.000
    C56      C        0.49343    0.44337    0.67660    1.000
    C57      C        0.44017    0.39136    0.84090    1.000
    H36      H        0.46300    0.35550    0.81930    1.000
    C58      C        0.39600    0.38720    0.92870    1.000
    H37      H        0.38960    0.34930    0.96920    1.000
    C59      C        0.50181    0.57997    0.80520    1.000
    H38      H        0.52650    0.54220    0.82000    1.000
    H39      H        0.50020    0.60400    0.87920    1.000
    O40      O        0.26587    0.47305    0.03860    1.000
    C60      C        0.33212    0.60450    0.74280    1.000
    H40      H        0.23080    0.46000    0.06300    1.000
    Eu6      Eu       0.68621    0.17799    0.28109    1.000
    O41      O        0.78669    0.13052    0.28950    1.000
    O42      O        0.83119    0.07190    0.14830    1.000
    N6       N        0.93768    0.06167    0.27140    1.000
    O43      O        0.01449    0.89213    0.14550    1.000
    O44      O        0.00876    0.12479    0.11190    1.000
    O45      O        0.00534    0.99216    0.11590    1.000
    C61      C        0.95179    0.94734    0.28350    1.000
    C62      C        0.87373    0.99638    0.40400    1.000
    H41      H        0.84980    0.03160    0.42510    1.000
    O46      O        0.08500    0.14116    0.23980    1.000
    C63      C        0.92110    0.00205    0.32040    1.000
    C64      C        0.03387    0.11854    0.21150    1.000
    C65      C        0.89502    0.11260    0.30110    1.000
    H42      H        0.91340    0.15240    0.27560    1.000
    H43      H        0.88950    0.11430    0.38740    1.000
    O47      O        0.80859    0.88906    0.61260    1.000
    C66      C        0.80984    0.93179    0.54340    1.000
    C67      C        0.86148    0.93903    0.45660    1.000
    C68      C        0.99343    0.94337    0.17660    1.000
    C69      C        0.94017    0.89136    0.34090    1.000
    H44      H        0.96300    0.85550    0.31930    1.000
    C70      C        0.89600    0.88720    0.42870    1.000
    H45      H        0.88960    0.84930    0.46920    1.000
    C71      C        0.00181    0.07997    0.30520    1.000
    H46      H        0.02650    0.04220    0.32000    1.000
    H47      H        0.00020    0.10400    0.37920    1.000
    O48      O        0.76587    0.97305    0.53860    1.000
    C72      C        0.83212    0.10450    0.24280    1.000
    H48      H        0.73080    0.96000    0.56300    1.000
    Eu7      Eu       0.31379    0.32201    0.28109    1.000
    O49      O        0.21331    0.36948    0.28950    1.000
    O50      O        0.16881    0.42810    0.14830    1.000
    N7       N        0.06232    0.43833    0.27140    1.000
    O51      O        0.98551    0.60787    0.14550    1.000
    O52      O        0.99124    0.37521    0.11190    1.000
    O53      O        0.99466    0.50784    0.11590    1.000
    C73      C        0.04821    0.55266    0.28350    1.000
    C74      C        0.12627    0.50362    0.40400    1.000
    H49      H        0.15020    0.46840    0.42510    1.000
    O54      O        0.91500    0.35884    0.23980    1.000
    C75      C        0.07890    0.49795    0.32040    1.000
    C76      C        0.96613    0.38146    0.21150    1.000
    C77      C        0.10498    0.38740    0.30110    1.000
    H50      H        0.08660    0.34760    0.27560    1.000
    H51      H        0.11050    0.38570    0.38740    1.000
    O55      O        0.19141    0.61094    0.61260    1.000
    C78      C        0.19016    0.56821    0.54340    1.000
    C79      C        0.13852    0.56097    0.45660    1.000
    C80      C        0.00657    0.55663    0.17660    1.000
    C81      C        0.05983    0.60864    0.34090    1.000
    H52      H        0.03700    0.64450    0.31930    1.000
    C82      C        0.10400    0.61280    0.42870    1.000
    H53      H        0.11040    0.65070    0.46920    1.000
    C83      C        0.99819    0.42003    0.30520    1.000
    H54      H        0.97350    0.45780    0.32000    1.000
    H55      H        0.99980    0.39600    0.37920    1.000
    O56      O        0.23413    0.52695    0.53860    1.000
    C84      C        0.16788    0.39550    0.24280    1.000
    H56      H        0.26920    0.54000    0.56300    1.000
    Eu8      Eu       0.81379    0.82201    0.78109    1.000
    O57      O        0.71331    0.86948    0.78950    1.000
    O58      O        0.66881    0.92810    0.64830    1.000
    N8       N        0.56232    0.93833    0.77140    1.000
    O59      O        0.48551    0.10787    0.64550    1.000
    O60      O        0.49124    0.87521    0.61190    1.000
    O61      O        0.49466    0.00784    0.61590    1.000
    C85      C        0.54821    0.05266    0.78350    1.000
    C86      C        0.62627    0.00362    0.90400    1.000
    H57      H        0.65020    0.96840    0.92510    1.000
    O62      O        0.41500    0.85884    0.73980    1.000
    C87      C        0.57890    0.99795    0.82040    1.000
    C88      C        0.46613    0.88146    0.71150    1.000
    C89      C        0.60498    0.88740    0.80110    1.000
    H58      H        0.58660    0.84760    0.77560    1.000
    H59      H        0.61050    0.88570    0.88740    1.000
    O63      O        0.69141    0.11094    0.11260    1.000
    C90      C        0.69016    0.06821    0.04340    1.000
    C91      C        0.63852    0.06097    0.95660    1.000
    C92      C        0.50657    0.05663    0.67660    1.000
    C93      C        0.55983    0.10864    0.84090    1.000
    H60      H        0.53700    0.14450    0.81930    1.000
    C94      C        0.60400    0.11280    0.92870    1.000
    H61      H        0.61040    0.15070    0.96920    1.000
    C95      C        0.49819    0.92003    0.80520    1.000
    H62      H        0.47350    0.95780    0.82000    1.000
    H63      H        0.49980    0.89600    0.87920    1.000
    O64      O        0.73413    0.02695    0.03860    1.000
    C96      C        0.66788    0.89550    0.74280    1.000
    H64      H        0.76920    0.04000    0.06300    1.000
    Eu9      Eu       0.57201    0.43621    0.46891    1.000
    O65      O        0.61948    0.53669    0.46050    1.000
    O66      O        0.67810    0.58119    0.60170    1.000
    N9       N        0.68833    0.68768    0.47860    1.000
    O67      O        0.85787    0.76449    0.60450    1.000
    O68      O        0.62521    0.75876    0.63810    1.000
    O69      O        0.75784    0.75534    0.63410    1.000
    C97      C        0.80266    0.70179    0.46650    1.000
    C98      C        0.75362    0.62373    0.34600    1.000
    H65      H        0.71840    0.59980    0.32490    1.000
    O70      O        0.60884    0.83500    0.51020    1.000
    C99      C        0.74795    0.67110    0.42960    1.000
    C100     C        0.63146    0.78387    0.53850    1.000
    C101     C        0.63740    0.64502    0.44890    1.000
    H66      H        0.59760    0.66340    0.47440    1.000
    H67      H        0.63570    0.63950    0.36260    1.000
    O71      O        0.86094    0.55859    0.13740    1.000
    C102     C        0.81821    0.55984    0.20660    1.000
    C103     C        0.81097    0.61148    0.29340    1.000
    C104     C        0.80663    0.74343    0.57340    1.000
    C105     C        0.85864    0.69017    0.40910    1.000
    H68      H        0.89450    0.71300    0.43070    1.000
    C106     C        0.86280    0.64600    0.32130    1.000
    H69      H        0.90070    0.63960    0.28080    1.000
    C107     C        0.67003    0.75181    0.44480    1.000
    H70      H        0.70780    0.77650    0.43000    1.000
    H71      H        0.64600    0.75020    0.37080    1.000
    O72      O        0.77695    0.51587    0.21140    1.000
    C108     C        0.64550    0.58212    0.50720    1.000
    H72      H        0.79000    0.48080    0.18700    1.000
    Eu10     Eu       0.07201    0.93621    0.96891    1.000
    O73      O        0.11948    0.03669    0.96050    1.000
    O74      O        0.17810    0.08119    0.10170    1.000
    N10      N        0.18833    0.18768    0.97860    1.000
    O75      O        0.35787    0.26449    0.10450    1.000
    O76      O        0.12521    0.25876    0.13810    1.000
    O77      O        0.25784    0.25534    0.13410    1.000
    C109     C        0.30266    0.20179    0.96650    1.000
    C110     C        0.25362    0.12373    0.84600    1.000
    H73      H        0.21840    0.09980    0.82490    1.000
    O78      O        0.10884    0.33500    0.01020    1.000
    C111     C        0.24795    0.17110    0.92960    1.000
    C112     C        0.13146    0.28387    0.03850    1.000
    C113     C        0.13740    0.14502    0.94890    1.000
    H74      H        0.09760    0.16340    0.97440    1.000
    H75      H        0.13570    0.13950    0.86260    1.000
    O79      O        0.36094    0.05859    0.63740    1.000
    C114     C        0.31821    0.05984    0.70660    1.000
    C115     C        0.31097    0.11148    0.79340    1.000
    C116     C        0.30663    0.24343    0.07340    1.000
    C117     C        0.35864    0.19017    0.90910    1.000
    H76      H        0.39450    0.21300    0.93070    1.000
    C118     C        0.36280    0.14600    0.82130    1.000
    H77      H        0.40070    0.13960    0.78080    1.000
    C119     C        0.17003    0.25181    0.94480    1.000
    H78      H        0.20780    0.27650    0.93000    1.000
    H79      H        0.14600    0.25020    0.87080    1.000
    O80      O        0.27695    0.01587    0.71140    1.000
    C120     C        0.14550    0.08212    0.00720    1.000
    H80      H        0.29000    0.98080    0.68700    1.000
    Eu11     Eu       0.92799    0.56379    0.96891    1.000
    O81      O        0.88052    0.46331    0.96050    1.000
    O82      O        0.82190    0.41881    0.10170    1.000
    N11      N        0.81167    0.31232    0.97860    1.000
    O83      O        0.64213    0.23551    0.10450    1.000
    O84      O        0.87479    0.24124    0.13810    1.000
    O85      O        0.74216    0.24466    0.13410    1.000
    C121     C        0.69734    0.29821    0.96650    1.000
    C122     C        0.74638    0.37627    0.84600    1.000
    H81      H        0.78160    0.40020    0.82490    1.000
    O86      O        0.89116    0.16500    0.01020    1.000
    C123     C        0.75205    0.32890    0.92960    1.000
    C124     C        0.86854    0.21613    0.03850    1.000
    C125     C        0.86260    0.35498    0.94890    1.000
    H82      H        0.90240    0.33660    0.97440    1.000
    H83      H        0.86430    0.36050    0.86260    1.000
    O87      O        0.63906    0.44141    0.63740    1.000
    C126     C        0.68179    0.44016    0.70660    1.000
    C127     C        0.68903    0.38852    0.79340    1.000
    C128     C        0.69337    0.25657    0.07340    1.000
    C129     C        0.64136    0.30983    0.90910    1.000
    H84      H        0.60550    0.28700    0.93070    1.000
    C130     C        0.63720    0.35400    0.82130    1.000
    H85      H        0.59930    0.36040    0.78080    1.000
    C131     C        0.82997    0.24819    0.94480    1.000
    H86      H        0.79220    0.22350    0.93000    1.000
    H87      H        0.85400    0.24980    0.87080    1.000
    O88      O        0.72305    0.48413    0.71140    1.000
    C132     C        0.85450    0.41788    0.00720    1.000
    H88      H        0.71000    0.51920    0.68700    1.000
    Eu12     Eu       0.42799    0.06379    0.46891    1.000
    O89      O        0.38052    0.96331    0.46050    1.000
    O90      O        0.32190    0.91881    0.60170    1.000
    N12      N        0.31167    0.81232    0.47860    1.000
    O91      O        0.14213    0.73551    0.60450    1.000
    O92      O        0.37479    0.74124    0.63810    1.000
    O93      O        0.24216    0.74466    0.63410    1.000
    C133     C        0.19734    0.79821    0.46650    1.000
    C134     C        0.24638    0.87627    0.34600    1.000
    H89      H        0.28160    0.90020    0.32490    1.000
    O94      O        0.39116    0.66500    0.51020    1.000
    C135     C        0.25205    0.82890    0.42960    1.000
    C136     C        0.36854    0.71613    0.53850    1.000
    C137     C        0.36260    0.85498    0.44890    1.000
    H90      H        0.40240    0.83660    0.47440    1.000
    H91      H        0.36430    0.86050    0.36260    1.000
    O95      O        0.13906    0.94141    0.13740    1.000
    C138     C        0.18179    0.94016    0.20660    1.000
    C139     C        0.18903    0.88852    0.29340    1.000
    C140     C        0.19337    0.75657    0.57340    1.000
    C141     C        0.14136    0.80983    0.40910    1.000
    H92      H        0.10550    0.78700    0.43070    1.000
    C142     C        0.13720    0.85400    0.32130    1.000
    H93      H        0.09930    0.86040    0.28080    1.000
    C143     C        0.32997    0.74819    0.44480    1.000
    H94      H        0.29220    0.72350    0.43000    1.000
    H95      H        0.35400    0.74980    0.37080    1.000
    O96      O        0.22305    0.98413    0.21140    1.000
    C144     C        0.35450    0.91788    0.50720    1.000
    H96      H        0.21000    0.01920    0.18700    1.000
    Eu13     Eu       0.81379    0.32201    0.21891    1.000
    O97      O        0.71331    0.36948    0.21050    1.000
    O98      O        0.66881    0.42810    0.35170    1.000
    N13      N        0.56232    0.43833    0.22860    1.000
    O99      O        0.48551    0.60787    0.35450    1.000
    O100     O        0.49124    0.37521    0.38810    1.000
    O101     O        0.49466    0.50784    0.38410    1.000
    C145     C        0.54821    0.55266    0.21650    1.000
    C146     C        0.62627    0.50362    0.09600    1.000
    H97      H        0.65020    0.46840    0.07490    1.000
    O102     O        0.41500    0.35884    0.26020    1.000
    C147     C        0.57890    0.49795    0.17960    1.000
    C148     C        0.46613    0.38146    0.28850    1.000
    C149     C        0.60498    0.38740    0.19890    1.000
    H98      H        0.58660    0.34760    0.22440    1.000
    H99      H        0.61050    0.38570    0.11260    1.000
    O103     O        0.69141    0.61094    0.88740    1.000
    C150     C        0.69016    0.56821    0.95660    1.000
    C151     C        0.63852    0.56097    0.04340    1.000
    C152     C        0.50657    0.55663    0.32340    1.000
    C153     C        0.55983    0.60864    0.15910    1.000
    H100     H        0.53700    0.64450    0.18070    1.000
    C154     C        0.60400    0.61280    0.07130    1.000
    H101     H        0.61040    0.65070    0.03080    1.000
    C155     C        0.49819    0.42003    0.19480    1.000
    H102     H        0.47350    0.45780    0.18000    1.000
    H103     H        0.49980    0.39600    0.12080    1.000
    O104     O        0.73413    0.52695    0.96140    1.000
    C156     C        0.66788    0.39550    0.25720    1.000
    H104     H        0.76920    0.54000    0.93700    1.000
    Eu14     Eu       0.31379    0.82201    0.71891    1.000
    O105     O        0.21331    0.86948    0.71050    1.000
    O106     O        0.16881    0.92810    0.85170    1.000
    N14      N        0.06232    0.93833    0.72860    1.000
    O107     O        0.98551    0.10787    0.85450    1.000
    O108     O        0.99124    0.87521    0.88810    1.000
    O109     O        0.99466    0.00784    0.88410    1.000
    C157     C        0.04821    0.05266    0.71650    1.000
    C158     C        0.12627    0.00362    0.59600    1.000
    H105     H        0.15020    0.96840    0.57490    1.000
    O110     O        0.91500    0.85884    0.76020    1.000
    C159     C        0.07890    0.99795    0.67960    1.000
    C160     C        0.96613    0.88146    0.78850    1.000
    C161     C        0.10498    0.88740    0.69890    1.000
    H106     H        0.08660    0.84760    0.72440    1.000
    H107     H        0.11050    0.88570    0.61260    1.000
    O111     O        0.19141    0.11094    0.38740    1.000
    C162     C        0.19016    0.06821    0.45660    1.000
    C163     C        0.13852    0.06097    0.54340    1.000
    C164     C        0.00657    0.05663    0.82340    1.000
    C165     C        0.05983    0.10864    0.65910    1.000
    H108     H        0.03700    0.14450    0.68070    1.000
    C166     C        0.10400    0.11280    0.57130    1.000
    H109     H        0.11040    0.15070    0.53080    1.000
    C167     C        0.99819    0.92003    0.69480    1.000
    H110     H        0.97350    0.95780    0.68000    1.000
    H111     H        0.99980    0.89600    0.62080    1.000
    O112     O        0.23413    0.02695    0.46140    1.000
    C168     C        0.16788    0.89550    0.75720    1.000
    H112     H        0.26920    0.04000    0.43700    1.000
    Eu15     Eu       0.68621    0.67799    0.71891    1.000
    O113     O        0.78669    0.63052    0.71050    1.000
    O114     O        0.83119    0.57190    0.85170    1.000
    N15      N        0.93768    0.56167    0.72860    1.000
    O115     O        0.01449    0.39213    0.85450    1.000
    O116     O        0.00876    0.62479    0.88810    1.000
    O117     O        0.00534    0.49216    0.88410    1.000
    C169     C        0.95179    0.44734    0.71650    1.000
    C170     C        0.87373    0.49638    0.59600    1.000
    H113     H        0.84980    0.53160    0.57490    1.000
    O118     O        0.08500    0.64116    0.76020    1.000
    C171     C        0.92110    0.50205    0.67960    1.000
    C172     C        0.03387    0.61854    0.78850    1.000
    C173     C        0.89502    0.61260    0.69890    1.000
    H114     H        0.91340    0.65240    0.72440    1.000
    H115     H        0.88950    0.61430    0.61260    1.000
    O119     O        0.80859    0.38906    0.38740    1.000
    C174     C        0.80984    0.43179    0.45660    1.000
    C175     C        0.86148    0.43903    0.54340    1.000
    C176     C        0.99343    0.44337    0.82340    1.000
    C177     C        0.94017    0.39136    0.65910    1.000
    H116     H        0.96300    0.35550    0.68070    1.000
    C178     C        0.89600    0.38720    0.57130    1.000
    H117     H        0.88960    0.34930    0.53080    1.000
    C179     C        0.00181    0.57997    0.69480    1.000
    H118     H        0.02650    0.54220    0.68000    1.000
    H119     H        0.00020    0.60400    0.62080    1.000
    O120     O        0.76587    0.47305    0.46140    1.000
    C180     C        0.83212    0.60450    0.75720    1.000
    H120     H        0.73080    0.46000    0.43700    1.000
    Eu16     Eu       0.18621    0.17799    0.21891    1.000
    O121     O        0.28669    0.13052    0.21050    1.000
    O122     O        0.33119    0.07190    0.35170    1.000
    N16      N        0.43768    0.06167    0.22860    1.000
    O123     O        0.51449    0.89213    0.35450    1.000
    O124     O        0.50876    0.12479    0.38810    1.000
    O125     O        0.50534    0.99216    0.38410    1.000
    C181     C        0.45179    0.94734    0.21650    1.000
    C182     C        0.37373    0.99638    0.09600    1.000
    H121     H        0.34980    0.03160    0.07490    1.000
    O126     O        0.58500    0.14116    0.26020    1.000
    C183     C        0.42110    0.00205    0.17960    1.000
    C184     C        0.53387    0.11854    0.28850    1.000
    C185     C        0.39502    0.11260    0.19890    1.000
    H122     H        0.41340    0.15240    0.22440    1.000
    H123     H        0.38950    0.11430    0.11260    1.000
    O127     O        0.30859    0.88906    0.88740    1.000
    C186     C        0.30984    0.93179    0.95660    1.000
    C187     C        0.36148    0.93903    0.04340    1.000
    C188     C        0.49343    0.94337    0.32340    1.000
    C189     C        0.44017    0.89136    0.15910    1.000
    H124     H        0.46300    0.85550    0.18070    1.000
    C190     C        0.39600    0.88720    0.07130    1.000
    H125     H        0.38960    0.84930    0.03080    1.000
    C191     C        0.50181    0.07997    0.19480    1.000
    H126     H        0.52650    0.04220    0.18000    1.000
    H127     H        0.50020    0.10400    0.12080    1.000
    O128     O        0.26587    0.97305    0.96140    1.000
    C192     C        0.33212    0.10450    0.25720    1.000
    H128     H        0.23080    0.96000    0.93700    1.000
