data_functionalizedCrystal
_audit_creation_method	'EQeq! by Chris Wilmer'
_symmetry_space_group_name_H-M	'P1'
_symmetry_Int_Tables_number	1
_symmetry_cell_setting	triclinic
loop_
_symmetry_equiv_pos_as_xyz
  x,y,z
_cell_length_a	21.888
_cell_length_b	33.7268
_cell_length_c	14.938
_cell_angle_alpha	90
_cell_angle_beta	130.54
_cell_angle_gamma	90
loop_
_atom_site_label
_atom_site_type_symbol
_atom_site_fract_x
_atom_site_fract_y
_atom_site_fract_z
_atom_site_charge
Mof_Sm	Sm	0.30628	0.25733	0.73242	2.119
Mof_Sm	Sm	0.37561	0.24524	0.14562	2.369
Mof_Sm	Sm	0.36288	0.24615	0.44087	2.342
Mof_Ag	Ag	0.47204	0.00558	0.94921	0.347
Mof_Ag	Ag	0.27221	0.00093	0.63614	0.406
Mof_Ag	Ag	0.36394	0.49941	0.98635	0.376
Mof_Ag	Ag	0.156	0.513	0.63033	0.401
Mof_Ag	Ag	0.57992	0.48563	0.44205	0.407
Mof_O 	O 	0.364	0.20794	0.8823	-0.609
Mof_O 	O 	0.3725	0.19287	0.0346	-0.572
Mof_O 	O 	0.273	0.2082	0.1233	-0.563
Mof_O 	O 	0.2855	0.19908	0.2825	-0.571
Mof_O 	O 	0.4417	0.1944	0.2943	-0.594
Mof_O 	O 	0.4564	0.20434	0.4531	-0.595
Mof_O 	O 	0.355	0.18982	0.5327	-0.587
Mof_O 	O 	0.3129	0.20809	0.6288	-0.637
Mof_O 	O 	0.2189	0.30535	0.7174	-0.547
Mof_O 	O 	0.1895	0.3189	0.8305	-0.353
Mof_O 	O 	0.3913	0.2951	0.9059	-0.575
Mof_O 	O 	0.4025	0.29371	0.0632	-0.605
Mof_O 	O 	0.2953	0.29869	0.1333	-0.55
Mof_O 	O 	0.2875	0.28792	0.2721	-0.605
Mof_O 	O 	0.4584	0.28384	0.3185	-0.588
Mof_O 	O 	0.4556	0.29494	0.4645	-0.54
Mof_O 	O 	0.3469	0.29359	0.5376	-0.666
Mof_O 	O 	0.3271	0.31315	0.6571	-0.588
Mof_O 	O 	0.58	0.6838	0.2765	-0.286
Mof_O 	O 	0.5785	0.69668	0.4199	-0.304
Mof_N 	N 	0.4488	0.06652	0.9582	-0.194
Mof_N 	N 	0.2639	0.0613	0.1505	-0.192
Mof_N 	N 	0.4772	0.0577	0.4371	-0.193
Mof_N 	N 	0.2932	0.06098	0.6216	-0.185
Mof_N 	N 	0.154	0.4502	0.654	-0.205
Mof_N 	N 	0.3664	0.43663	0.9718	-0.199
Mof_N 	N 	0.1743	0.42409	0.131	-0.18
Mof_N 	N 	0.5664	0.4218	0.4494	-0.188
Mof_N 	N 	0.3615	0.44029	0.5248	-0.191
Mof_N 	N 	0.5801	0.549	0.4169	-0.21
Mof_C 	C 	0.4637	0.0966	0.9163	-0.016
Mof_H 	H 	0.4888	0.0913	0.8859	0.004
Mof_C 	C 	0.443	0.1351	0.9166	0.023
Mof_H 	H 	0.4538	0.1553	0.8863	0
Mof_C 	C 	0.4066	0.14362	0.9617	-0.203
Mof_C 	C 	0.3933	0.1134	0.0079	0.048
Mof_H 	H 	0.3711	0.1185	0.0427	0.014
Mof_C 	C 	0.4133	0.0746	0.0025	0.022
Mof_H 	H 	0.4016	0.054	0.0305	-0.008
Mof_C 	C 	0.3793	0.18513	0.9598	0.489
Mof_C 	C 	0.2577	0.086	0.0736	0.012
Mof_H 	H 	0.2543	0.0751	0.0132	-0.002
Mof_C 	C 	0.2561	0.1267	0.0815	-0.007
Mof_H 	H 	0.2505	0.1428	0.0261	0.032
Mof_C 	C 	0.263	0.143	0.1716	-0.118
Mof_C 	C 	0.2665	0.1177	0.2489	-0.024
Mof_H 	H 	0.2687	0.128	0.3087	0.044
Mof_C 	C 	0.2667	0.077	0.235	0.024
Mof_H 	H 	0.2689	0.0602	0.2864	-0.014
Mof_C 	C 	0.2738	0.1869	0.1951	0.498
Mof_C 	C 	0.47	0.0741	0.3498	0.017
Mof_H 	H 	0.4661	0.0575	0.2966	-0.015
Mof_C 	C 	0.4679	0.1142	0.3343	-0.012
Mof_H 	H 	0.4645	0.1243	0.2732	0.037
Mof_C 	C 	0.471	0.13909	0.4087	-0.131
Mof_C 	C 	0.4788	0.1224	0.5014	-0.012
Mof_H 	H 	0.4816	0.1386	0.5545	0.026
Mof_C 	C 	0.4823	0.0815	0.5133	0.01
Mof_H 	H 	0.4885	0.0704	0.5756	-0.013
Mof_C 	C 	0.4581	0.1836	0.386	0.539
Mof_C 	C 	0.3264	0.0714	0.5751	0.004
Mof_H 	H 	0.3413	0.0515	0.5495	-0.011
Mof_C 	C 	0.3393	0.1098	0.5633	-0.01
Mof_H 	H 	0.3648	0.1155	0.5337	0.031
Mof_C 	C 	0.3147	0.1405	0.5952	-0.154
Mof_C 	C 	0.2788	0.12987	0.6424	0.012
Mof_H 	H 	0.2621	0.1493	0.6666	0.001
Mof_C 	C 	0.2687	0.0905	0.6523	0.001
Mof_H 	H 	0.2436	0.0839	0.6819	-0.003
Mof_C 	C 	0.328	0.18286	0.5834	0.518
Mof_C 	C 	0.1689	0.4237	0.6036	0.028
Mof_H 	H 	0.1713	0.4325	0.547	-0.015
Mof_C 	C 	0.1807	0.3839	0.6322	-0.05
Mof_H 	H 	0.1911	0.3664	0.5955	0.041
Mof_C 	C 	0.177	0.3704	0.7149	-0.073
Mof_C 	C 	0.1582	0.3978	0.7621	-0.07
Mof_H 	H 	0.1524	0.3899	0.816	0.049
Mof_C 	C 	0.1481	0.4362	0.7292	0.053
Mof_H 	H 	0.1359	0.4541	0.763	-0.036
Mof_C 	C 	0.195	0.3276	0.7568	0.411
Mof_C 	C 	0.3815	0.4189	0.9083	-0.01
Mof_H 	H 	0.3867	0.4343	0.862	0
Mof_C 	C 	0.3896	0.3785	0.9092	0.013
Mof_H 	H 	0.399	0.3669	0.8628	0.029
Mof_C 	C 	0.3837	0.35566	0.9783	-0.192
Mof_C 	C 	0.3669	0.3736	0.0442	0.044
Mof_H 	H 	0.3629	0.3588	0.0927	0.019
Mof_C 	C 	0.3566	0.4139	0.0348	0.03
Mof_H 	H 	0.3419	0.426	0.0744	-0.005
Mof_C 	C 	0.3932	0.3112	0.9842	0.513
Mof_C 	C 	0.189	0.4091	0.0642	0.021
Mof_H 	H 	0.1781	0.4248	0.0041	0.005
Mof_C 	C 	0.2192	0.3721	0.0793	-0.019
Mof_H 	H 	0.2298	0.3634	0.0314	0.056
Mof_C 	C 	0.2341	0.34741	0.1651	-0.132
Mof_C 	C 	0.2145	0.3615	0.2284	-0.001
Mof_H 	H 	0.2207	0.3453	0.2843	0.02
Mof_C 	C 	0.185	0.4	0.2108	0.008
Mof_H 	H 	0.1725	0.4091	0.256	-0
Mof_C 	C 	0.2752	0.3078	0.1924	0.526
Mof_C 	C 	0.5421	0.3992	0.358	0.023
Mof_H 	H 	0.5436	0.4099	0.302	-0.005
Mof_C 	C 	0.5155	0.3613	0.3425	-0.041
Mof_H 	H 	0.5001	0.3465	0.2781	0.041
Mof_C 	C 	0.5118	0.3451	0.4237	-0.092
Mof_C 	C 	0.5397	0.3671	0.521	-0.053
Mof_H 	H 	0.5412	0.3567	0.5801	0.06
Mof_C 	C 	0.5657	0.4057	0.5282	0.041
Mof_H 	H 	0.5838	0.4209	0.5934	-0.014
Mof_C 	C 	0.4713	0.3043	0.4001	0.479
Mof_C 	C 	0.3809	0.4109	0.4888	0.006
Mof_H 	H 	0.3964	0.4169	0.4452	-0.001
Mof_C 	C 	0.3791	0.3716	0.5136	0.001
Mof_H 	H 	0.3954	0.3517	0.4899	0.027
Mof_C 	C 	0.3537	0.36237	0.5721	-0.142
Mof_C 	C 	0.3357	0.3928	0.6144	-0.022
Mof_H 	H 	0.3217	0.3874	0.6601	0.038
Mof_C 	C 	0.3393	0.431	0.5866	0.015
Mof_H 	H 	0.3255	0.4515	0.6123	-0.017
Mof_C 	C 	0.3424	0.31912	0.5921	0.552
Mof_C 	C 	0.5896	0.5618	0.3444	0.059
Mof_H 	H 	0.5966	0.5432	0.3059	-0.029
Mof_C 	C 	0.59	0.6035	0.32	-0.093
Mof_H 	H 	0.5983	0.6115	0.2691	0.068
Mof_C 	C 	0.5779	0.6297	0.3733	-0.013
Mof_C 	C 	0.5687	0.6161	0.454	-0.103
Mof_H 	H 	0.5622	0.6338	0.4949	0.062
Mof_C 	C 	0.5697	0.5761	0.4696	0.064
Mof_H 	H 	0.5626	0.5673	0.5212	-0.03
Mof_C 	C 	0.5797	0.6736	0.3531	0.291
Mof_Sm	Sm	0.80628	0.75733	0.73242	2.115
Mof_Sm	Sm	0.87561	0.74524	0.14562	2.364
Mof_Sm	Sm	0.86288	0.74615	0.44087	2.338
Mof_Ag	Ag	0.97204	0.50558	0.94921	0.339
Mof_Ag	Ag	0.77221	0.50093	0.63614	0.404
Mof_Ag	Ag	0.86394	0.99941	0.98635	0.371
Mof_Ag	Ag	0.656	0.013	0.63033	0.396
Mof_Ag	Ag	0.07992	0.98563	0.44205	0.41
Mof_O 	O 	0.864	0.70794	0.8823	-0.609
Mof_O 	O 	0.8725	0.69287	0.0346	-0.573
Mof_O 	O 	0.773	0.7082	0.1233	-0.563
Mof_O 	O 	0.7855	0.69908	0.2825	-0.571
Mof_O 	O 	0.9417	0.6944	0.2943	-0.595
Mof_O 	O 	0.9564	0.70434	0.4531	-0.595
Mof_O 	O 	0.855	0.68982	0.5327	-0.587
Mof_O 	O 	0.8129	0.70809	0.6288	-0.637
Mof_O 	O 	0.7189	0.80535	0.7174	-0.547
Mof_O 	O 	0.6895	0.8189	0.8305	-0.354
Mof_O 	O 	0.8913	0.7951	0.9059	-0.576
Mof_O 	O 	0.9025	0.79371	0.0632	-0.607
Mof_O 	O 	0.7953	0.79869	0.1333	-0.55
Mof_O 	O 	0.7875	0.78792	0.2721	-0.604
Mof_O 	O 	0.9584	0.78384	0.3185	-0.588
Mof_O 	O 	0.9556	0.79494	0.4645	-0.54
Mof_O 	O 	0.8469	0.79359	0.5376	-0.666
Mof_O 	O 	0.8271	0.81315	0.6571	-0.588
Mof_O 	O 	0.08	0.1838	0.2765	-0.284
Mof_O 	O 	0.0785	0.19668	0.4199	-0.302
Mof_N 	N 	0.9488	0.56652	0.9582	-0.194
Mof_N 	N 	0.7639	0.5613	0.1505	-0.192
Mof_N 	N 	0.9772	0.5577	0.4371	-0.194
Mof_N 	N 	0.7932	0.56098	0.6216	-0.185
Mof_N 	N 	0.654	0.9502	0.654	-0.206
Mof_N 	N 	0.8664	0.93663	0.9718	-0.199
Mof_N 	N 	0.6743	0.92409	0.131	-0.18
Mof_N 	N 	0.0664	0.9218	0.4494	-0.189
Mof_N 	N 	0.8615	0.94029	0.5248	-0.192
Mof_N 	N 	0.0801	0.049	0.4169	-0.21
Mof_C 	C 	0.9637	0.5966	0.9163	-0.017
Mof_H 	H 	0.9888	0.5913	0.8859	0.003
Mof_C 	C 	0.943	0.6351	0.9166	0.022
Mof_H 	H 	0.9538	0.6553	0.8863	-0.001
Mof_C 	C 	0.9066	0.64362	0.9617	-0.203
Mof_C 	C 	0.8933	0.6134	0.0079	0.048
Mof_H 	H 	0.8711	0.6185	0.0427	0.014
Mof_C 	C 	0.9133	0.5746	0.0025	0.021
Mof_H 	H 	0.9016	0.554	0.0305	-0.008
Mof_C 	C 	0.8793	0.68513	0.9598	0.488
Mof_C 	C 	0.7577	0.586	0.0736	0.012
Mof_H 	H 	0.7543	0.5751	0.0132	-0.002
Mof_C 	C 	0.7561	0.6267	0.0815	-0.007
Mof_H 	H 	0.7505	0.6428	0.0261	0.032
Mof_C 	C 	0.763	0.643	0.1716	-0.118
Mof_C 	C 	0.7665	0.6177	0.2489	-0.024
Mof_H 	H 	0.7687	0.628	0.3087	0.044
Mof_C 	C 	0.7667	0.577	0.235	0.024
Mof_H 	H 	0.7689	0.5602	0.2864	-0.014
Mof_C 	C 	0.7738	0.6869	0.1951	0.498
Mof_C 	C 	0.97	0.5741	0.3498	0.015
Mof_H 	H 	0.9661	0.5575	0.2966	-0.016
Mof_C 	C 	0.9679	0.6142	0.3343	-0.012
Mof_H 	H 	0.9645	0.6243	0.2732	0.036
Mof_C 	C 	0.971	0.63909	0.4087	-0.132
Mof_C 	C 	0.9788	0.6224	0.5014	-0.013
Mof_H 	H 	0.9816	0.6386	0.5545	0.025
Mof_C 	C 	0.9823	0.5815	0.5133	0.009
Mof_H 	H 	0.9885	0.5704	0.5756	-0.014
Mof_C 	C 	0.9581	0.6836	0.386	0.539
Mof_C 	C 	0.8264	0.5714	0.5751	0.004
Mof_H 	H 	0.8413	0.5515	0.5495	-0.011
Mof_C 	C 	0.8393	0.6098	0.5633	-0.01
Mof_H 	H 	0.8648	0.6155	0.5337	0.031
Mof_C 	C 	0.8147	0.6405	0.5952	-0.154
Mof_C 	C 	0.7788	0.62987	0.6424	0.012
Mof_H 	H 	0.7621	0.6493	0.6666	0.001
Mof_C 	C 	0.7687	0.5905	0.6523	0.001
Mof_H 	H 	0.7436	0.5839	0.6819	-0.003
Mof_C 	C 	0.828	0.68286	0.5834	0.517
Mof_C 	C 	0.6689	0.9237	0.6036	0.027
Mof_H 	H 	0.6713	0.9325	0.547	-0.015
Mof_C 	C 	0.6807	0.8839	0.6322	-0.05
Mof_H 	H 	0.6911	0.8664	0.5955	0.041
Mof_C 	C 	0.677	0.8704	0.7149	-0.074
Mof_C 	C 	0.6582	0.8978	0.7621	-0.07
Mof_H 	H 	0.6524	0.8899	0.816	0.048
Mof_C 	C 	0.6481	0.9362	0.7292	0.052
Mof_H 	H 	0.6359	0.9541	0.763	-0.037
Mof_C 	C 	0.695	0.8276	0.7568	0.411
Mof_C 	C 	0.8815	0.9189	0.9083	-0.011
Mof_H 	H 	0.8867	0.9343	0.862	-0.001
Mof_C 	C 	0.8896	0.8785	0.9092	0.013
Mof_H 	H 	0.899	0.8669	0.8628	0.028
Mof_C 	C 	0.8837	0.85566	0.9783	-0.193
Mof_C 	C 	0.8669	0.8736	0.0442	0.044
Mof_H 	H 	0.8629	0.8588	0.0927	0.018
Mof_C 	C 	0.8566	0.9139	0.0348	0.028
Mof_H 	H 	0.8419	0.926	0.0744	-0.005
Mof_C 	C 	0.8932	0.8112	0.9842	0.513
Mof_C 	C 	0.689	0.9091	0.0642	0.02
Mof_H 	H 	0.6781	0.9248	0.0041	0.004
Mof_C 	C 	0.7192	0.8721	0.0793	-0.019
Mof_H 	H 	0.7298	0.8634	0.0314	0.056
Mof_C 	C 	0.7341	0.84741	0.1651	-0.133
Mof_C 	C 	0.7145	0.8615	0.2284	-0.002
Mof_H 	H 	0.7207	0.8453	0.2843	0.02
Mof_C 	C 	0.685	0.9	0.2108	0.007
Mof_H 	H 	0.6725	0.9091	0.256	-0.001
Mof_C 	C 	0.7752	0.8078	0.1924	0.525
Mof_C 	C 	0.0421	0.8992	0.358	0.027
Mof_H 	H 	0.0436	0.9099	0.302	-0.005
Mof_C 	C 	0.0155	0.8613	0.3425	-0.046
Mof_H 	H 	0.0001	0.8465	0.2781	0.045
Mof_C 	C 	0.0118	0.8451	0.4237	-0.082
Mof_C 	C 	0.0397	0.8671	0.521	-0.058
Mof_H 	H 	0.0412	0.8567	0.5801	0.064
Mof_C 	C 	0.0657	0.9057	0.5282	0.045
Mof_H 	H 	0.0838	0.9209	0.5934	-0.014
Mof_C 	C 	0.9713	0.8043	0.4001	0.471
Mof_C 	C 	0.8809	0.9109	0.4888	0.005
Mof_H 	H 	0.8964	0.9169	0.4452	-0.002
Mof_C 	C 	0.8791	0.8716	0.5136	-0
Mof_H 	H 	0.8954	0.8517	0.4899	0.026
Mof_C 	C 	0.8537	0.86237	0.5721	-0.142
Mof_C 	C 	0.8357	0.8928	0.6144	-0.023
Mof_H 	H 	0.8217	0.8874	0.6601	0.037
Mof_C 	C 	0.8393	0.931	0.5866	0.014
Mof_H 	H 	0.8255	0.9515	0.6123	-0.017
Mof_C 	C 	0.8424	0.81912	0.5921	0.551
Mof_C 	C 	0.0896	0.0618	0.3444	0.06
Mof_H 	H 	0.0966	0.0432	0.3059	-0.029
Mof_C 	C 	0.09	0.1035	0.32	-0.093
Mof_H 	H 	0.0983	0.1115	0.2691	0.069
Mof_C 	C 	0.0779	0.1297	0.3733	-0.012
Mof_C 	C 	0.0687	0.1161	0.454	-0.103
Mof_H 	H 	0.0622	0.1338	0.4949	0.063
Mof_C 	C 	0.0697	0.0761	0.4696	0.065
Mof_H 	H 	0.0626	0.0673	0.5212	-0.029
Mof_C 	C 	0.0797	0.1736	0.3531	0.291
Mof_Sm	Sm	0.30628	0.74267	0.23242	2.156
Mof_Sm	Sm	0.37561	0.75476	0.64562	2.354
Mof_Sm	Sm	0.36288	0.75385	0.94087	2.262
Mof_Ag	Ag	0.47204	0.99442	0.44921	0.397
Mof_Ag	Ag	0.27221	0.99907	0.13614	0.438
Mof_Ag	Ag	0.36394	0.50059	0.48635	0.437
Mof_Ag	Ag	0.156	0.487	0.13033	0.436
Mof_Ag	Ag	0.57992	0.51437	0.94205	0.353
Mof_O 	O 	0.364	0.79206	0.3823	-0.614
Mof_O 	O 	0.3725	0.80713	0.5346	-0.607
Mof_O 	O 	0.273	0.7918	0.6233	-0.567
Mof_O 	O 	0.2855	0.80092	0.7825	-0.571
Mof_O 	O 	0.4417	0.8056	0.7943	-0.598
Mof_O 	O 	0.4564	0.79566	0.9531	-0.604
Mof_O 	O 	0.355	0.81018	0.0327	-0.559
Mof_O 	O 	0.3129	0.79191	0.1288	-0.631
Mof_O 	O 	0.2189	0.69465	0.2174	-0.543
Mof_O 	O 	0.1895	0.6811	0.3305	-0.338
Mof_O 	O 	0.3913	0.7049	0.4059	-0.582
Mof_O 	O 	0.4025	0.70629	0.5632	-0.644
Mof_O 	O 	0.2953	0.70131	0.6333	-0.554
Mof_O 	O 	0.2875	0.71208	0.7721	-0.601
Mof_O 	O 	0.4584	0.71616	0.8185	-0.593
Mof_O 	O 	0.4556	0.70506	0.9645	-0.546
Mof_O 	O 	0.3469	0.70641	0.0376	-0.646
Mof_O 	O 	0.3271	0.68685	0.1571	-0.596
Mof_O 	O 	0.58	0.3162	0.7765	-0.302
Mof_O 	O 	0.5785	0.30332	0.9199	-0.321
Mof_N 	N 	0.4488	0.93348	0.4582	-0.179
Mof_N 	N 	0.2639	0.9387	0.6505	-0.193
Mof_N 	N 	0.4772	0.9423	0.9371	-0.206
Mof_N 	N 	0.2932	0.93902	0.1216	-0.185
Mof_N 	N 	0.154	0.5498	0.154	-0.205
Mof_N 	N 	0.3664	0.56337	0.4718	-0.187
Mof_N 	N 	0.1743	0.57591	0.631	-0.18
Mof_N 	N 	0.5664	0.5782	0.9494	-0.202
Mof_N 	N 	0.3615	0.55971	0.0248	-0.117
Mof_N 	N 	0.5801	0.451	0.9169	-0.19
Mof_C 	C 	0.4637	0.9034	0.4163	0.004
Mof_H 	H 	0.4888	0.9087	0.3859	0.004
Mof_C 	C 	0.443	0.8649	0.4166	0.006
Mof_H 	H 	0.4538	0.8447	0.3863	0.011
Mof_C 	C 	0.4066	0.85638	0.4617	-0.155
Mof_C 	C 	0.3933	0.8866	0.5079	-0.006
Mof_H 	H 	0.3711	0.8815	0.5427	0.027
Mof_C 	C 	0.4133	0.9254	0.5025	-0
Mof_H 	H 	0.4016	0.946	0.5305	-0.011
Mof_C 	C 	0.3793	0.81487	0.4598	0.527
Mof_C 	C 	0.2577	0.914	0.5736	0.006
Mof_H 	H 	0.2543	0.9249	0.5132	-0.008
Mof_C 	C 	0.2561	0.8733	0.5815	-0.007
Mof_H 	H 	0.2505	0.8572	0.5261	0.025
Mof_C 	C 	0.263	0.857	0.6716	-0.123
Mof_C 	C 	0.2665	0.8823	0.7489	-0.023
Mof_H 	H 	0.2687	0.872	0.8087	0.035
Mof_C 	C 	0.2667	0.923	0.735	0.019
Mof_H 	H 	0.2689	0.9398	0.7864	-0.02
Mof_C 	C 	0.2738	0.8131	0.6951	0.496
Mof_C 	C 	0.47	0.9259	0.8498	-0.007
Mof_H 	H 	0.4661	0.9425	0.7966	-0.01
Mof_C 	C 	0.4679	0.8858	0.8343	0.014
Mof_H 	H 	0.4645	0.8757	0.7732	0.025
Mof_C 	C 	0.471	0.86091	0.9087	-0.19
Mof_C 	C 	0.4788	0.8776	0.0014	0.047
Mof_H 	H 	0.4816	0.8614	0.0545	0.017
Mof_C 	C 	0.4823	0.9185	0.0133	0.028
Mof_H 	H 	0.4885	0.9296	0.0756	-0.01
Mof_C 	C 	0.4581	0.8164	0.886	0.55
Mof_C 	C 	0.3264	0.9286	0.0751	0.012
Mof_H 	H 	0.3413	0.9485	0.0495	-0.005
Mof_C 	C 	0.3393	0.8902	0.0633	-0.009
Mof_H 	H 	0.3648	0.8845	0.0337	0.039
Mof_C 	C 	0.3147	0.8595	0.0952	-0.144
Mof_C 	C 	0.2788	0.87013	0.1424	0.013
Mof_H 	H 	0.2621	0.8507	0.1666	0.007
Mof_C 	C 	0.2687	0.9095	0.1523	0.009
Mof_H 	H 	0.2436	0.9161	0.1819	0.004
Mof_C 	C 	0.328	0.81714	0.0834	0.516
Mof_C 	C 	0.1689	0.5763	0.1036	0.035
Mof_H 	H 	0.1713	0.5675	0.047	-0.008
Mof_C 	C 	0.1807	0.6161	0.1322	-0.05
Mof_H 	H 	0.1911	0.6336	0.0955	0.048
Mof_C 	C 	0.177	0.6296	0.2149	-0.063
Mof_C 	C 	0.1582	0.6022	0.2621	-0.072
Mof_H 	H 	0.1524	0.6101	0.316	0.059
Mof_C 	C 	0.1481	0.5638	0.2292	0.061
Mof_H 	H 	0.1359	0.5459	0.263	-0.032
Mof_C 	C 	0.195	0.6724	0.2568	0.411
Mof_C 	C 	0.3815	0.5811	0.4083	0.007
Mof_H 	H 	0.3867	0.5657	0.362	-0.005
Mof_C 	C 	0.3896	0.6215	0.4092	-0.003
Mof_H 	H 	0.399	0.6331	0.3628	0.036
Mof_C 	C 	0.3837	0.64434	0.4783	-0.152
Mof_C 	C 	0.3669	0.6264	0.5442	-0.005
Mof_H 	H 	0.3629	0.6412	0.5927	0.031
Mof_C 	C 	0.3566	0.5861	0.5348	0.005
Mof_H 	H 	0.3419	0.574	0.5744	-0.006
Mof_C 	C 	0.3932	0.6888	0.4842	0.553
Mof_C 	C 	0.189	0.5909	0.5642	0.015
Mof_H 	H 	0.1781	0.5752	0.5041	-0.005
Mof_C 	C 	0.2192	0.6279	0.5793	-0.019
Mof_H 	H 	0.2298	0.6366	0.5314	0.047
Mof_C 	C 	0.2341	0.65259	0.6651	-0.139
Mof_C 	C 	0.2145	0.6385	0.7284	-0
Mof_H 	H 	0.2207	0.6547	0.7843	0.012
Mof_C 	C 	0.185	0.6	0.7108	0.003
Mof_H 	H 	0.1725	0.5909	0.756	-0.004
Mof_C 	C 	0.2752	0.6922	0.6924	0.522
Mof_C 	C 	0.5421	0.6008	0.858	-0.001
Mof_H 	H 	0.5436	0.5901	0.802	-0.004
Mof_C 	C 	0.5155	0.6387	0.8425	-0.015
Mof_H 	H 	0.5001	0.6535	0.7781	0.026
Mof_C 	C 	0.5118	0.6549	0.9237	-0.152
Mof_C 	C 	0.5397	0.6329	0.021	0.011
Mof_H 	H 	0.5412	0.6433	0.0801	0.05
Mof_C 	C 	0.5657	0.5943	0.0282	0.06
Mof_H 	H 	0.5838	0.5791	0.0934	-0.009
Mof_C 	C 	0.4713	0.6957	0.9001	0.491
Mof_C 	C 	0.3809	0.5891	0.9888	-0.194
Mof_H 	H 	0.3964	0.5831	0.9452	0.06
Mof_C 	C 	0.3791	0.6284	0.0136	0.245
Mof_H 	H 	0.3954	0.6483	0.9899	-0.083
Mof_C 	C 	0.3537	0.63763	0.0721	-0.248
Mof_C 	C 	0.3357	0.6072	0.1144	0.062
Mof_H 	H 	0.3217	0.6126	0.1601	0.01
Mof_C 	C 	0.3393	0.569	0.0866	-0.034
Mof_H 	H 	0.3255	0.5485	0.1123	0.007
Mof_C 	C 	0.3424	0.68088	0.0921	0.59
Mof_C 	C 	0.5896	0.4382	0.8444	0.039
Mof_H 	H 	0.5966	0.4568	0.8059	-0.031
Mof_C 	C 	0.59	0.3965	0.82	-0.073
Mof_H 	H 	0.5983	0.3885	0.7691	0.056
Mof_C 	C 	0.5779	0.3703	0.8733	-0.049
Mof_C 	C 	0.5687	0.3839	0.954	-0.043
Mof_H 	H 	0.5622	0.3662	0.9949	0.032
Mof_C 	C 	0.5697	0.4239	0.9696	-0.045
Mof_H 	H 	0.5626	0.4327	0.0212	0.043
Mof_C 	C 	0.5797	0.3264	0.8531	0.303
Mof_Sm	Sm	0.80628	0.24267	0.23242	2.154
Mof_Sm	Sm	0.87561	0.25476	0.64562	2.35
Mof_Sm	Sm	0.86288	0.25385	0.94087	2.258
Mof_Ag	Ag	0.97204	0.49442	0.44921	0.39
Mof_Ag	Ag	0.77221	0.49907	0.13614	0.439
Mof_Ag	Ag	0.86394	0.00059	0.48635	0.434
Mof_Ag	Ag	0.656	0.987	0.13033	0.43
Mof_Ag	Ag	0.07992	0.01437	0.94205	0.359
Mof_O 	O 	0.864	0.29206	0.3823	-0.614
Mof_O 	O 	0.8725	0.30713	0.5346	-0.607
Mof_O 	O 	0.773	0.2918	0.6233	-0.567
Mof_O 	O 	0.7855	0.30092	0.7825	-0.57
Mof_O 	O 	0.9417	0.3056	0.7943	-0.599
Mof_O 	O 	0.9564	0.29566	0.9531	-0.604
Mof_O 	O 	0.855	0.31018	0.0327	-0.559
Mof_O 	O 	0.8129	0.29191	0.1288	-0.631
Mof_O 	O 	0.7189	0.19465	0.2174	-0.543
Mof_O 	O 	0.6895	0.1811	0.3305	-0.338
Mof_O 	O 	0.8913	0.2049	0.4059	-0.583
Mof_O 	O 	0.9025	0.20629	0.5632	-0.645
Mof_O 	O 	0.7953	0.20131	0.6333	-0.554
Mof_O 	O 	0.7875	0.21208	0.7721	-0.6
Mof_O 	O 	0.9584	0.21616	0.8185	-0.592
Mof_O 	O 	0.9556	0.20506	0.9645	-0.545
Mof_O 	O 	0.8469	0.20641	0.0376	-0.646
Mof_O 	O 	0.8271	0.18685	0.1571	-0.597
Mof_O 	O 	0.08	0.8162	0.7765	-0.3
Mof_O 	O 	0.0785	0.80332	0.9199	-0.318
Mof_N 	N 	0.9488	0.43348	0.4582	-0.18
Mof_N 	N 	0.7639	0.4387	0.6505	-0.193
Mof_N 	N 	0.9772	0.4423	0.9371	-0.206
Mof_N 	N 	0.7932	0.43902	0.1216	-0.185
Mof_N 	N 	0.654	0.0498	0.154	-0.205
Mof_N 	N 	0.8664	0.06337	0.4718	-0.187
Mof_N 	N 	0.6743	0.07591	0.631	-0.18
Mof_N 	N 	0.0664	0.0782	0.9494	-0.203
Mof_N 	N 	0.8615	0.05971	0.0248	-0.116
Mof_N 	N 	0.0801	0.951	0.9169	-0.191
Mof_C 	C 	0.9637	0.4034	0.4163	0.003
Mof_H 	H 	0.9888	0.4087	0.3859	0.003
Mof_C 	C 	0.943	0.3649	0.4166	0.006
Mof_H 	H 	0.9538	0.3447	0.3863	0.01
Mof_C 	C 	0.9066	0.35638	0.4617	-0.156
Mof_C 	C 	0.8933	0.3866	0.5079	-0.006
Mof_H 	H 	0.8711	0.3815	0.5427	0.027
Mof_C 	C 	0.9133	0.4254	0.5025	-0.001
Mof_H 	H 	0.9016	0.446	0.5305	-0.011
Mof_C 	C 	0.8793	0.31487	0.4598	0.527
Mof_C 	C 	0.7577	0.414	0.5736	0.006
Mof_H 	H 	0.7543	0.4249	0.5132	-0.008
Mof_C 	C 	0.7561	0.3733	0.5815	-0.007
Mof_H 	H 	0.7505	0.3572	0.5261	0.025
Mof_C 	C 	0.763	0.357	0.6716	-0.123
Mof_C 	C 	0.7665	0.3823	0.7489	-0.023
Mof_H 	H 	0.7687	0.372	0.8087	0.035
Mof_C 	C 	0.7667	0.423	0.735	0.019
Mof_H 	H 	0.7689	0.4398	0.7864	-0.02
Mof_C 	C 	0.7738	0.3131	0.6951	0.496
Mof_C 	C 	0.97	0.4259	0.8498	-0.009
Mof_H 	H 	0.9661	0.4425	0.7966	-0.01
Mof_C 	C 	0.9679	0.3858	0.8343	0.014
Mof_H 	H 	0.9645	0.3757	0.7732	0.024
Mof_C 	C 	0.971	0.36091	0.9087	-0.191
Mof_C 	C 	0.9788	0.3776	0.0014	0.047
Mof_H 	H 	0.9816	0.3614	0.0545	0.016
Mof_C 	C 	0.9823	0.4185	0.0133	0.026
Mof_H 	H 	0.9885	0.4296	0.0756	-0.011
Mof_C 	C 	0.9581	0.3164	0.886	0.55
Mof_C 	C 	0.8264	0.4286	0.0751	0.012
Mof_H 	H 	0.8413	0.4485	0.0495	-0.005
Mof_C 	C 	0.8393	0.3902	0.0633	-0.01
Mof_H 	H 	0.8648	0.3845	0.0337	0.039
Mof_C 	C 	0.8147	0.3595	0.0952	-0.143
Mof_C 	C 	0.7788	0.37013	0.1424	0.013
Mof_H 	H 	0.7621	0.3507	0.1666	0.007
Mof_C 	C 	0.7687	0.4095	0.1523	0.009
Mof_H 	H 	0.7436	0.4161	0.1819	0.004
Mof_C 	C 	0.828	0.31714	0.0834	0.515
Mof_C 	C 	0.6689	0.0763	0.1036	0.034
Mof_H 	H 	0.6713	0.0675	0.047	-0.009
Mof_C 	C 	0.6807	0.1161	0.1322	-0.05
Mof_H 	H 	0.6911	0.1336	0.0955	0.048
Mof_C 	C 	0.677	0.1296	0.2149	-0.064
Mof_C 	C 	0.6582	0.1022	0.2621	-0.072
Mof_H 	H 	0.6524	0.1101	0.316	0.059
Mof_C 	C 	0.6481	0.0638	0.2292	0.06
Mof_H 	H 	0.6359	0.0459	0.263	-0.033
Mof_C 	C 	0.695	0.1724	0.2568	0.41
Mof_C 	C 	0.8815	0.0811	0.4083	0.006
Mof_H 	H 	0.8867	0.0657	0.362	-0.006
Mof_C 	C 	0.8896	0.1215	0.4092	-0.003
Mof_H 	H 	0.899	0.1331	0.3628	0.035
Mof_C 	C 	0.8837	0.14434	0.4783	-0.153
Mof_C 	C 	0.8669	0.1264	0.5442	-0.005
Mof_H 	H 	0.8629	0.1412	0.5927	0.03
Mof_C 	C 	0.8566	0.0861	0.5348	0.003
Mof_H 	H 	0.8419	0.074	0.5744	-0.007
Mof_C 	C 	0.8932	0.1888	0.4842	0.553
Mof_C 	C 	0.689	0.0909	0.5642	0.014
Mof_H 	H 	0.6781	0.0752	0.5041	-0.005
Mof_C 	C 	0.7192	0.1279	0.5793	-0.02
Mof_H 	H 	0.7298	0.1366	0.5314	0.047
Mof_C 	C 	0.7341	0.15259	0.6651	-0.139
Mof_C 	C 	0.7145	0.1385	0.7284	-0.001
Mof_H 	H 	0.7207	0.1547	0.7843	0.011
Mof_C 	C 	0.685	0.1	0.7108	0.002
Mof_H 	H 	0.6725	0.0909	0.756	-0.005
Mof_C 	C 	0.7752	0.1922	0.6924	0.521
Mof_C 	C 	0.0421	0.1008	0.858	0.003
Mof_H 	H 	0.0436	0.0901	0.802	-0.004
Mof_C 	C 	0.0155	0.1387	0.8425	-0.021
Mof_H 	H 	0.0001	0.1535	0.7781	0.031
Mof_C 	C 	0.0118	0.1549	0.9237	-0.14
Mof_C 	C 	0.0397	0.1329	0.021	0.004
Mof_H 	H 	0.0412	0.1433	0.0801	0.054
Mof_C 	C 	0.0657	0.0943	0.0282	0.063
Mof_H 	H 	0.0838	0.0791	0.0934	-0.01
Mof_C 	C 	0.9713	0.1957	0.9001	0.482
Mof_C 	C 	0.8809	0.0891	0.9888	-0.196
Mof_H 	H 	0.8964	0.0831	0.9452	0.06
Mof_C 	C 	0.8791	0.1284	0.0136	0.246
Mof_H 	H 	0.8954	0.1483	0.9899	-0.085
Mof_C 	C 	0.8537	0.13763	0.0721	-0.249
Mof_C 	C 	0.8357	0.1072	0.1144	0.062
Mof_H 	H 	0.8217	0.1126	0.1601	0.01
Mof_C 	C 	0.8393	0.069	0.0866	-0.035
Mof_H 	H 	0.8255	0.0485	0.1123	0.007
Mof_C 	C 	0.8424	0.18088	0.0921	0.589
Mof_C 	C 	0.0896	0.9382	0.8444	0.041
Mof_H 	H 	0.0966	0.9568	0.8059	-0.03
Mof_C 	C 	0.09	0.8965	0.82	-0.074
Mof_H 	H 	0.0983	0.8885	0.7691	0.057
Mof_C 	C 	0.0779	0.8703	0.8733	-0.046
Mof_C 	C 	0.0687	0.8839	0.954	-0.045
Mof_H 	H 	0.0622	0.8662	0.9949	0.034
Mof_C 	C 	0.0697	0.9239	0.9696	-0.04
Mof_H 	H 	0.0626	0.9327	0.0212	0.041
Mof_C 	C 	0.0797	0.8264	0.8531	0.302
_end
