data_functionalizedCrystal
_audit_creation_method	'EQeq! by Chris Wilmer'
_symmetry_space_group_name_H-M	'P1'
_symmetry_Int_Tables_number	1
_symmetry_cell_setting	triclinic
loop_
_symmetry_equiv_pos_as_xyz
  x,y,z
_cell_length_a	35.047
_cell_length_b	15.0048
_cell_length_c	30.5654
_cell_angle_alpha	90
_cell_angle_beta	101.464
_cell_angle_gamma	90
loop_
_atom_site_label
_atom_site_type_symbol
_atom_site_fract_x
_atom_site_fract_y
_atom_site_fract_z
_atom_site_charge
Mof_Zn	Zn	0.66119	0.12555	0.41741	0.865
Mof_I 	I 	0.71371	0.09969	0.37181	1.02
Mof_I 	I 	0.63042	0.01004	0.46007	-0.809
Mof_Zn	Zn	0.58634	0.86904	0.23223	1.164
Mof_I 	I 	0.63238	0.89168	0.307	-0.429
Mof_I 	I 	0.52655	0.96784	0.20981	-0.38
Mof_Zn	Zn	0.36901	0.1588	0.06404	1.164
Mof_I 	I 	0.35108	0.01677	0.10115	-0.388
Mof_Zn	Zn	0.064	0.3867	0.2304	0.202
Mof_N 	N 	0.5272	0.2854	0.2295	-0.14
Mof_N 	N 	0.5165	0.4216	0.191	-0.137
Mof_N 	N 	0.565	0.413	0.2568	-0.134
Mof_N 	N 	0.6189	0.1887	0.3715	-0.328
Mof_N 	N 	0.4157	0.2163	0.106	-0.277
Mof_N 	N 	0.5709	0.7357	0.2263	-0.283
Mof_N 	N 	0.7318	0.5245	0.5277	-0.147
Mof_N 	N 	0.6827	0.4824	0.567	-0.132
Mof_N 	N 	0.7206	0.6129	0.5874	-0.138
Mof_N 	N 	0.8374	0.7596	0.5461	-0.31
Mof_N 	N 	0.6792	0.2331	0.4604	-0.314
Mof_N 	N 	0.619	0.6133	0.6843	-0.273
Mof_N 	N 	0.1728	0.536	0.0718	-0.151
Mof_N 	N 	0.2232	0.4867	0.0364	-0.161
Mof_N 	N 	0.2067	0.405	0.0961	-0.115
Mof_N 	N 	0.1023	0.4101	0.187	-0.477
Mof_N 	N 	0.3228	0.2455	0.0638	-0.274
Mof_N 	N 	0.1767	0.7665	0.9539	-0.29
Mof_C 	C 	0.5543	0.3287	0.2589	0.098
Mof_C 	C 	0.5091	0.3373	0.1963	0.092
Mof_C 	C 	0.5446	0.4583	0.2223	0.099
Mof_C 	C 	0.5743	0.2765	0.2996	0.073
Mof_C 	C 	0.5939	0.3215	0.3344	-0.13
Mof_H 	H 	0.5927	0.3848	0.3345	0.095
Mof_C 	C 	0.6171	0.2757	0.372	0.061
Mof_H 	H 	0.6309	0.3083	0.3968	-0.013
Mof_C 	C 	0.5969	0.1459	0.3373	0.075
Mof_H 	H 	0.597	0.0826	0.338	-0.046
Mof_C 	C 	0.5748	0.1859	0.3019	-0.148
Mof_H 	H 	0.5596	0.1514	0.2787	0.088
Mof_C 	C 	0.4769	0.2944	0.163	0.061
Mof_C 	C 	0.4714	0.2058	0.1656	-0.133
Mof_H 	H 	0.4888	0.1703	0.1863	0.096
Mof_C 	C 	0.4399	0.168	0.1372	0.069
Mof_H 	H 	0.4351	0.1061	0.1397	-0.008
Mof_C 	C 	0.4216	0.3024	0.1043	0.081
Mof_H 	H 	0.4044	0.3375	0.0832	-0.011
Mof_C 	C 	0.4525	0.3434	0.1325	-0.136
Mof_H 	H 	0.4564	0.4057	0.1303	0.087
Mof_C 	C 	0.5542	0.5567	0.2232	0.083
Mof_C 	C 	0.5313	0.6148	0.1942	-0.141
Mof_H 	H 	0.51	0.5939	0.1724	0.089
Mof_C 	C 	0.5405	0.7039	0.1979	0.092
Mof_H 	H 	0.5241	0.7448	0.1792	-0.016
Mof_C 	C 	0.593	0.6784	0.2515	0.087
Mof_H 	H 	0.6158	0.6995	0.2708	-0.024
Mof_C 	C 	0.5847	0.5871	0.2515	-0.145
Mof_H 	H 	0.6008	0.5478	0.2716	0.093
Mof_C 	C 	0.7398	0.5943	0.5553	0.095
Mof_C 	C 	0.7037	0.4694	0.5359	0.091
Mof_C 	C 	0.6918	0.5575	0.5917	0.108
Mof_C 	C 	0.7728	0.6532	0.5508	0.035
Mof_C 	C 	0.7948	0.6921	0.5898	-0.095
Mof_H 	H 	0.7888	0.6813	0.6183	0.053
Mof_C 	C 	0.826	0.7476	0.5847	0.051
Mof_H 	H 	0.8397	0.7782	0.6103	-0.016
Mof_C 	C 	0.8169	0.7162	0.5104	0.063
Mof_H 	H 	0.824	0.7245	0.4822	0.02
Mof_C 	C 	0.7862	0.6603	0.5128	-0.108
Mof_H 	H 	0.7744	0.6266	0.4873	0.074
Mof_C 	C 	0.6965	0.3857	0.5095	0.06
Mof_C 	C 	0.7155	0.3662	0.4774	-0.118
Mof_H 	H 	0.7346	0.4063	0.4711	0.076
Mof_C 	C 	0.7078	0.2861	0.4522	0.048
Mof_H 	H 	0.7225	0.2707	0.4303	-0.055
Mof_C 	C 	0.6619	0.2493	0.4932	0.089
Mof_H 	H 	0.6433	0.2077	0.4996	-0.015
Mof_C 	C 	0.6694	0.3248	0.5189	-0.132
Mof_H 	H 	0.6562	0.3351	0.5428	0.088
Mof_C 	C 	0.6681	0.5752	0.6237	0.049
Mof_C 	C 	0.6321	0.5371	0.621	-0.106
Mof_H 	H 	0.6231	0.4957	0.5977	0.084
Mof_C 	C 	0.6087	0.5566	0.6508	0.07
Mof_H 	H 	0.584	0.5282	0.6473	-0.009
Mof_C 	C 	0.6546	0.6514	0.6891	0.061
Mof_H 	H 	0.663	0.6892	0.7141	-0.01
Mof_C 	C 	0.6795	0.6385	0.6596	-0.099
Mof_H 	H 	0.7034	0.6703	0.6628	0.071
Mof_C 	C 	0.1793	0.4663	0.0977	0.115
Mof_C 	C 	0.1942	0.5417	0.0431	0.088
Mof_C 	C 	0.2283	0.4189	0.0658	0.095
Mof_C 	C 	0.1533	0.4462	0.13	0.117
Mof_C 	C 	0.125	0.5073	0.1361	-0.154
Mof_H 	H 	0.1225	0.5623	0.1204	0.088
Mof_C 	C 	0.1014	0.488	0.1642	0.076
Mof_H 	H 	0.0829	0.532	0.1685	-0.054
Mof_C 	C 	0.1288	0.3582	0.1796	0.161
Mof_H 	H 	0.1304	0.303	0.1951	-0.09
Mof_C 	C 	0.1554	0.369	0.1528	-0.18
Mof_H 	H 	0.1743	0.3248	0.1504	0.119
Mof_C 	C 	0.2616	0.3573	0.0641	0.052
Mof_C 	C 	0.2736	0.301	0.0996	-0.126
Mof_H 	H 	0.261	0.2999	0.1244	0.096
Mof_C 	C 	0.3052	0.2455	0.0974	0.078
Mof_H 	H 	0.3142	0.2061	0.1216	-0.016
Mof_C 	C 	0.3103	0.2974	0.0288	0.058
Mof_H 	H 	0.3228	0.2957	0.0039	0.001
Mof_C 	C 	0.278	0.356	0.0285	-0.138
Mof_H 	H 	0.2685	0.3929	0.0034	0.074
Mof_C 	C 	0.1895	0.623	0.0115	0.024
Mof_C 	C 	0.2164	0.6476	0.9887	-0.093
Mof_H 	H 	0.2407	0.6173	0.9937	0.04
Mof_C 	C 	0.2099	0.7154	0.9584	0.05
Mof_H 	H 	0.2284	0.7275	0.9403	0.001
Mof_C 	C 	0.1493	0.7388	0.9779	0.048
Mof_H 	H 	0.125	0.7691	0.9737	-0.003
Mof_C 	C 	0.1557	0.6719	0.0064	-0.107
Mof_H 	H 	0.1367	0.6573	0.0235	0.059
Mof_I 	I 	0.38402	0.16251	0.98687	-0.363
Mof_N 	N 	0.0682	0.926	0.2458	-0.131
Mof_N 	N 	0.0208	0.9357	0.1805	-0.131
Mof_N 	N 	0.0333	0.7975	0.2177	-0.141
Mof_N 	N 	0.1247	0.7018	0.3599	-0.282
Mof_N 	N 	0.0567	0.2534	0.2177	-0.333
Mof_N 	N 	0.9279	0.7189	0.0912	-0.308
Mof_C 	C 	0.0603	0.8409	0.2472	0.096
Mof_C 	C 	0.0454	0.9727	0.2124	0.113
Mof_C 	C 	0.0156	0.8512	0.1839	0.107
Mof_C 	C 	0.0834	0.7903	0.2848	0.061
Mof_C 	C 	0.0779	0.7025	0.291	-0.13
Mof_H 	H 	0.0603	0.6696	0.2693	0.064
Mof_C 	C 	0.0981	0.6598	0.3296	0.05
Mof_H 	H 	0.0927	0.599	0.3344	-0.014
Mof_C 	C 	0.1261	0.7893	0.3561	0.087
Mof_H 	H 	0.1428	0.8224	0.3786	0.011
Mof_C 	C 	0.1049	0.8326	0.3215	-0.132
Mof_H 	H 	0.1047	0.8958	0.3222	0.114
Mof_C 	C 	0.0498	0.0684	0.2127	0.069
Mof_C 	C 	0.0764	0.1085	0.2473	-0.115
Mof_H 	H 	0.0928	0.0739	0.2694	0.094
Mof_C 	C 	0.0777	0.2015	0.2481	0.072
Mof_H 	H 	0.0948	0.2292	0.2722	-0.014
Mof_C 	C 	0.0319	0.218	0.186	0.101
Mof_H 	H 	0.0161	0.2555	0.1647	-0.037
Mof_C 	C 	0.0276	0.1256	0.1819	-0.129
Mof_H 	H 	0.0093	0.1015	0.1578	0.101
Mof_C 	C 	0.9863	0.8035	0.151	0.093
Mof_C 	C 	0.9672	0.8461	0.1122	-0.104
Mof_H 	H 	0.9742	0.905	0.1055	0.113
Mof_C 	C 	0.9391	0.8027	0.0845	0.111
Mof_H 	H 	0.9261	0.8329	0.0585	0.006
Mof_C 	C 	0.9471	0.6729	0.1243	0.085
Mof_H 	H 	0.9415	0.6115	0.1275	-0.044
Mof_C 	C 	0.9769	0.7164	0.156	-0.12
Mof_H 	H 	0.9904	0.6838	0.1809	0.099
Mof_Zn	Zn	0.16388	0.867	0.9067	0.502
Mof_Zn	Zn	0.88445	0.8393	0.54356	0.624
Mof_I 	I 	0.13197	0.9931	0.94223	-0.081
Mof_I 	I 	0.09735	0.4066	0.3104	-2.754
Mof_I 	I 	0.0023	0.4693	0.1936	-0.59
Mof_I 	I 	0.22209	0.8927	0.87123	-0.307
Mof_I 	I 	0.89984	0.8291	0.4664	-2.47
Mof_I 	I 	0.86862	0.98606	0.57936	0.639
Mof_I 	I 	0.98149	0.7111	0.45861	-0.003
Mof_I 	I 	0.04575	0.61648	0.44668	-0.053
Mof_Zn	Zn	0.8767	0.8515	0.5557	0.675
Mof_I 	I 	0.9027	0.8731	0.4849	1.987
Mof_Zn	Zn	0.6807	0.108	0.4024	0.792
Mof_I 	I 	0.7276	0.078	0.3627	-1.596
Mof_I 	I 	0.6424	0.987	0.4446	0.334
Mof_Zn	Zn	0.1599	0.8541	0.913	0.678
Mof_I 	I 	0.2168	0.903	0.8793	-0.054
Mof_I 	I 	0.1174	0.5321	0.4425	-0.218
Mof_Zn	Zn	0.0541	0.3965	0.2121	0.851
Mof_I 	I 	0.0103	0.9545	0.3313	0.548
Mof_Zn	Zn	0.0809	0.3881	0.2293	0.798
Mof_I 	I 	0.0597	0.9065	0.4116	-0.28
Mof_I 	I 	0.9933	0.8214	0.417	-0.099
Mof_I 	I 	0.9023	0.6834	0.4277	0.301
Mof_I 	I 	0.9007	0.5271	0.381	-0.106
Mof_I 	I 	0.0303	0.5137	0.4804	-0.024
Mof_I 	I 	0.8571	0.9877	0.5981	-1.08
Mof_I 	I 	0.0836	0.4571	0.2874	0.93
Mof_I 	I 	0.125	0.4112	0.3043	1.548
Mof_I 	I 	0.0213	0.4868	0.2087	-0.515
Mof_Zn	Zn	0.33881	0.62555	0.08259	0.866
Mof_I 	I 	0.28629	0.59969	0.12819	1.02
Mof_I 	I 	0.36958	0.51004	0.03993	-0.803
Mof_Zn	Zn	0.41366	0.36904	0.26777	1.165
Mof_I 	I 	0.36762	0.39168	0.193	-0.428
Mof_I 	I 	0.47345	0.46784	0.29019	-0.379
Mof_Zn	Zn	0.63099	0.6588	0.43596	1.164
Mof_I 	I 	0.64892	0.51677	0.39885	-0.387
Mof_Zn	Zn	0.936	0.8867	0.2696	0.202
Mof_N 	N 	0.4728	0.7854	0.2705	-0.14
Mof_N 	N 	0.4835	0.9216	0.309	-0.137
Mof_N 	N 	0.435	0.913	0.2432	-0.134
Mof_N 	N 	0.3811	0.6887	0.1285	-0.328
Mof_N 	N 	0.5843	0.7163	0.394	-0.277
Mof_N 	N 	0.4291	0.2357	0.2737	-0.283
Mof_N 	N 	0.2682	0.0245	0.9723	-0.147
Mof_N 	N 	0.3173	0.9824	0.933	-0.132
Mof_N 	N 	0.2794	0.1129	0.9126	-0.138
Mof_N 	N 	0.1626	0.2596	0.9539	-0.31
Mof_N 	N 	0.3208	0.7331	0.0396	-0.314
Mof_N 	N 	0.381	0.1133	0.8157	-0.273
Mof_N 	N 	0.8272	0.036	0.4282	-0.151
Mof_N 	N 	0.7768	0.9867	0.4636	-0.161
Mof_N 	N 	0.7933	0.905	0.4039	-0.115
Mof_N 	N 	0.8977	0.9101	0.313	-0.477
Mof_N 	N 	0.6772	0.7455	0.4362	-0.274
Mof_N 	N 	0.8233	0.2665	0.5461	-0.29
Mof_C 	C 	0.4457	0.8287	0.2411	0.098
Mof_C 	C 	0.4909	0.8373	0.3037	0.092
Mof_C 	C 	0.4554	0.9583	0.2777	0.099
Mof_C 	C 	0.4257	0.7765	0.2004	0.072
Mof_C 	C 	0.4061	0.8215	0.1656	-0.13
Mof_H 	H 	0.4073	0.8848	0.1655	0.095
Mof_C 	C 	0.3829	0.7757	0.128	0.061
Mof_H 	H 	0.3691	0.8083	0.1032	-0.013
Mof_C 	C 	0.4031	0.6459	0.1627	0.075
Mof_H 	H 	0.403	0.5826	0.162	-0.046
Mof_C 	C 	0.4252	0.6859	0.1981	-0.148
Mof_H 	H 	0.4404	0.6514	0.2213	0.088
Mof_C 	C 	0.5231	0.7944	0.337	0.061
Mof_C 	C 	0.5286	0.7058	0.3344	-0.133
Mof_H 	H 	0.5112	0.6703	0.3137	0.096
Mof_C 	C 	0.5601	0.668	0.3628	0.069
Mof_H 	H 	0.5649	0.6061	0.3603	-0.008
Mof_C 	C 	0.5784	0.8024	0.3957	0.081
Mof_H 	H 	0.5956	0.8375	0.4168	-0.011
Mof_C 	C 	0.5475	0.8434	0.3675	-0.136
Mof_H 	H 	0.5436	0.9057	0.3697	0.087
Mof_C 	C 	0.4458	0.0567	0.2768	0.083
Mof_C 	C 	0.4687	0.1148	0.3058	-0.141
Mof_H 	H 	0.49	0.0939	0.3276	0.089
Mof_C 	C 	0.4595	0.2039	0.3021	0.092
Mof_H 	H 	0.4759	0.2448	0.3208	-0.016
Mof_C 	C 	0.407	0.1784	0.2485	0.086
Mof_H 	H 	0.3842	0.1995	0.2292	-0.024
Mof_C 	C 	0.4153	0.0871	0.2485	-0.144
Mof_H 	H 	0.3992	0.0478	0.2284	0.093
Mof_C 	C 	0.2602	0.0943	0.9447	0.095
Mof_C 	C 	0.2963	0.9694	0.9641	0.091
Mof_C 	C 	0.3082	0.0575	0.9083	0.108
Mof_C 	C 	0.2272	0.1532	0.9492	0.035
Mof_C 	C 	0.2052	0.1921	0.9102	-0.095
Mof_H 	H 	0.2112	0.1813	0.8817	0.053
Mof_C 	C 	0.174	0.2476	0.9153	0.051
Mof_H 	H 	0.1603	0.2782	0.8897	-0.016
Mof_C 	C 	0.1831	0.2162	0.9896	0.063
Mof_H 	H 	0.176	0.2245	0.0178	0.02
Mof_C 	C 	0.2138	0.1603	0.9872	-0.108
Mof_H 	H 	0.2256	0.1266	0.0127	0.074
Mof_C 	C 	0.3035	0.8857	0.9905	0.06
Mof_C 	C 	0.2845	0.8662	0.0226	-0.118
Mof_H 	H 	0.2654	0.9063	0.0289	0.076
Mof_C 	C 	0.2922	0.7861	0.0478	0.048
Mof_H 	H 	0.2775	0.7707	0.0697	-0.055
Mof_C 	C 	0.3381	0.7493	0.0068	0.09
Mof_H 	H 	0.3567	0.7077	0.0004	-0.015
Mof_C 	C 	0.3306	0.8248	0.9811	-0.132
Mof_H 	H 	0.3438	0.8351	0.9572	0.088
Mof_C 	C 	0.3319	0.0752	0.8763	0.05
Mof_C 	C 	0.3679	0.0371	0.879	-0.107
Mof_H 	H 	0.3769	0.9957	0.9023	0.084
Mof_C 	C 	0.3913	0.0566	0.8492	0.07
Mof_H 	H 	0.416	0.0282	0.8527	-0.009
Mof_C 	C 	0.3454	0.1514	0.8109	0.061
Mof_H 	H 	0.337	0.1892	0.7859	-0.01
Mof_C 	C 	0.3205	0.1385	0.8404	-0.099
Mof_H 	H 	0.2966	0.1703	0.8372	0.071
Mof_C 	C 	0.8207	0.9663	0.4023	0.115
Mof_C 	C 	0.8058	0.0417	0.4569	0.089
Mof_C 	C 	0.7717	0.9189	0.4342	0.095
Mof_C 	C 	0.8467	0.9462	0.37	0.116
Mof_C 	C 	0.875	0.0073	0.3639	-0.152
Mof_H 	H 	0.8775	0.0623	0.3796	0.087
Mof_C 	C 	0.8986	0.988	0.3358	0.074
Mof_H 	H 	0.9171	0.032	0.3315	-0.053
Mof_C 	C 	0.8712	0.8582	0.3204	0.16
Mof_H 	H 	0.8696	0.803	0.3049	-0.09
Mof_C 	C 	0.8446	0.869	0.3472	-0.179
Mof_H 	H 	0.8257	0.8248	0.3496	0.119
Mof_C 	C 	0.7384	0.8573	0.4359	0.051
Mof_C 	C 	0.7264	0.801	0.4004	-0.126
Mof_H 	H 	0.739	0.7999	0.3756	0.096
Mof_C 	C 	0.6948	0.7455	0.4026	0.078
Mof_H 	H 	0.6858	0.7061	0.3784	-0.015
Mof_C 	C 	0.6897	0.7974	0.4712	0.058
Mof_H 	H 	0.6772	0.7957	0.4961	0.001
Mof_C 	C 	0.722	0.856	0.4715	-0.138
Mof_H 	H 	0.7315	0.8929	0.4966	0.073
Mof_C 	C 	0.8105	0.123	0.4885	0.024
Mof_C 	C 	0.7836	0.1476	0.5113	-0.092
Mof_H 	H 	0.7593	0.1173	0.5063	0.04
Mof_C 	C 	0.7901	0.2154	0.5416	0.05
Mof_H 	H 	0.7716	0.2275	0.5597	0.001
Mof_C 	C 	0.8507	0.2388	0.5221	0.048
Mof_H 	H 	0.875	0.2691	0.5263	-0.003
Mof_C 	C 	0.8443	0.1719	0.4936	-0.107
Mof_H 	H 	0.8633	0.1573	0.4765	0.059
Mof_I 	I 	0.61598	0.66251	0.51313	-0.363
Mof_N 	N 	0.9318	0.426	0.2542	-0.131
Mof_N 	N 	0.9792	0.4357	0.3195	-0.131
Mof_N 	N 	0.9667	0.2975	0.2823	-0.141
Mof_N 	N 	0.8753	0.2018	0.1401	-0.282
Mof_N 	N 	0.9433	0.7534	0.2823	-0.333
Mof_N 	N 	0.0721	0.2189	0.4088	-0.308
Mof_C 	C 	0.9397	0.3409	0.2528	0.096
Mof_C 	C 	0.9546	0.4727	0.2876	0.113
Mof_C 	C 	0.9844	0.3512	0.3161	0.107
Mof_C 	C 	0.9166	0.2903	0.2152	0.061
Mof_C 	C 	0.9221	0.2025	0.209	-0.13
Mof_H 	H 	0.9397	0.1696	0.2307	0.064
Mof_C 	C 	0.9019	0.1598	0.1704	0.05
Mof_H 	H 	0.9073	0.099	0.1656	-0.014
Mof_C 	C 	0.8739	0.2893	0.1439	0.087
Mof_H 	H 	0.8572	0.3224	0.1214	0.011
Mof_C 	C 	0.8951	0.3326	0.1785	-0.132
Mof_H 	H 	0.8953	0.3958	0.1778	0.114
Mof_C 	C 	0.9502	0.5684	0.2873	0.069
Mof_C 	C 	0.9236	0.6085	0.2527	-0.115
Mof_H 	H 	0.9072	0.5739	0.2306	0.094
Mof_C 	C 	0.9223	0.7015	0.2519	0.072
Mof_H 	H 	0.9052	0.7292	0.2278	-0.014
Mof_C 	C 	0.9681	0.718	0.314	0.101
Mof_H 	H 	0.9839	0.7555	0.3353	-0.037
Mof_C 	C 	0.9724	0.6256	0.3181	-0.129
Mof_H 	H 	0.9907	0.6015	0.3422	0.101
Mof_C 	C 	0.0137	0.3035	0.349	0.093
Mof_C 	C 	0.0328	0.3461	0.3878	-0.104
Mof_H 	H 	0.0258	0.405	0.3945	0.113
Mof_C 	C 	0.0609	0.3027	0.4155	0.111
Mof_H 	H 	0.0739	0.3329	0.4415	0.006
Mof_C 	C 	0.0529	0.1729	0.3757	0.085
Mof_H 	H 	0.0585	0.1115	0.3725	-0.044
Mof_C 	C 	0.0231	0.2164	0.344	-0.121
Mof_H 	H 	0.0096	0.1838	0.3191	0.1
Mof_Zn	Zn	0.83612	0.367	0.5933	0.502
Mof_Zn	Zn	0.11555	0.3393	0.95644	0.625
Mof_I 	I 	0.86803	0.4931	0.55777	-0.081
Mof_I 	I 	0.90265	0.9066	0.1896	-2.756
Mof_I 	I 	0.9977	0.9693	0.3064	-0.59
Mof_I 	I 	0.77791	0.3927	0.62877	-0.307
Mof_I 	I 	0.10016	0.3291	0.0336	-2.468
Mof_I 	I 	0.13138	0.48606	0.92064	0.639
Mof_I 	I 	0.01851	0.2111	0.04139	-0.003
Mof_I 	I 	0.95425	0.11648	0.05332	-0.053
Mof_Zn	Zn	0.1233	0.3515	0.9443	0.675
Mof_I 	I 	0.0973	0.3731	0.0151	1.985
Mof_Zn	Zn	0.3193	0.608	0.0976	0.793
Mof_I 	I 	0.2724	0.578	0.1373	-1.596
Mof_I 	I 	0.3576	0.487	0.0554	0.329
Mof_Zn	Zn	0.8401	0.3541	0.587	0.678
Mof_I 	I 	0.7832	0.403	0.6207	-0.054
Mof_I 	I 	0.8826	0.0321	0.0575	-0.218
Mof_Zn	Zn	0.9459	0.8965	0.2879	0.851
Mof_I 	I 	0.9897	0.4545	0.1687	0.548
Mof_Zn	Zn	0.9191	0.8881	0.2707	0.798
Mof_I 	I 	0.9403	0.4065	0.0884	-0.28
Mof_I 	I 	0.0067	0.3214	0.083	-0.099
Mof_I 	I 	0.0977	0.1834	0.0723	0.301
Mof_I 	I 	0.0993	0.0271	0.119	-0.106
Mof_I 	I 	0.9697	0.0137	0.0196	-0.024
Mof_I 	I 	0.1429	0.4877	0.9019	-1.079
Mof_I 	I 	0.9164	0.9571	0.2126	0.932
Mof_I 	I 	0.875	0.9112	0.1957	1.549
Mof_I 	I 	0.9787	0.9868	0.2913	-0.516
Mof_Zn	Zn	0.33881	0.87445	0.58259	0.866
Mof_I 	I 	0.28629	0.90031	0.62819	1.021
Mof_I 	I 	0.36958	0.98996	0.53993	-0.808
Mof_Zn	Zn	0.41366	0.13096	0.76777	1.165
Mof_I 	I 	0.36762	0.10832	0.693	-0.428
Mof_I 	I 	0.47345	0.03216	0.79019	-0.379
Mof_Zn	Zn	0.63099	0.8412	0.93596	1.164
Mof_I 	I 	0.64892	0.98323	0.89885	-0.388
Mof_Zn	Zn	0.936	0.6133	0.7696	0.202
Mof_N 	N 	0.4728	0.7146	0.7705	-0.14
Mof_N 	N 	0.4835	0.5784	0.809	-0.137
Mof_N 	N 	0.435	0.587	0.7432	-0.134
Mof_N 	N 	0.3811	0.8113	0.6285	-0.328
Mof_N 	N 	0.5843	0.7837	0.894	-0.277
Mof_N 	N 	0.4291	0.2643	0.7737	-0.283
Mof_N 	N 	0.2682	0.4755	0.4723	-0.147
Mof_N 	N 	0.3173	0.5176	0.433	-0.132
Mof_N 	N 	0.2794	0.3871	0.4126	-0.138
Mof_N 	N 	0.1626	0.2404	0.4539	-0.31
Mof_N 	N 	0.3208	0.7669	0.5396	-0.314
Mof_N 	N 	0.381	0.3867	0.3157	-0.273
Mof_N 	N 	0.8272	0.464	0.9282	-0.151
Mof_N 	N 	0.7768	0.5133	0.9636	-0.161
Mof_N 	N 	0.7933	0.595	0.9039	-0.115
Mof_N 	N 	0.8977	0.5899	0.813	-0.477
Mof_N 	N 	0.6772	0.7545	0.9362	-0.274
Mof_N 	N 	0.8233	0.2335	0.0461	-0.29
Mof_C 	C 	0.4457	0.6713	0.7411	0.098
Mof_C 	C 	0.4909	0.6627	0.8037	0.092
Mof_C 	C 	0.4554	0.5417	0.7777	0.099
Mof_C 	C 	0.4257	0.7235	0.7004	0.073
Mof_C 	C 	0.4061	0.6785	0.6656	-0.13
Mof_H 	H 	0.4073	0.6152	0.6655	0.095
Mof_C 	C 	0.3829	0.7243	0.628	0.061
Mof_H 	H 	0.3691	0.6917	0.6032	-0.013
Mof_C 	C 	0.4031	0.8541	0.6627	0.075
Mof_H 	H 	0.403	0.9174	0.662	-0.046
Mof_C 	C 	0.4252	0.8141	0.6981	-0.148
Mof_H 	H 	0.4404	0.8486	0.7213	0.088
Mof_C 	C 	0.5231	0.7056	0.837	0.061
Mof_C 	C 	0.5286	0.7942	0.8344	-0.133
Mof_H 	H 	0.5112	0.8297	0.8137	0.096
Mof_C 	C 	0.5601	0.832	0.8628	0.069
Mof_H 	H 	0.5649	0.8939	0.8603	-0.008
Mof_C 	C 	0.5784	0.6976	0.8957	0.081
Mof_H 	H 	0.5956	0.6625	0.9168	-0.011
Mof_C 	C 	0.5475	0.6566	0.8675	-0.136
Mof_H 	H 	0.5436	0.5943	0.8697	0.087
Mof_C 	C 	0.4458	0.4433	0.7768	0.083
Mof_C 	C 	0.4687	0.3852	0.8058	-0.141
Mof_H 	H 	0.49	0.4061	0.8276	0.089
Mof_C 	C 	0.4595	0.2961	0.8021	0.092
Mof_H 	H 	0.4759	0.2552	0.8208	-0.016
Mof_C 	C 	0.407	0.3216	0.7485	0.087
Mof_H 	H 	0.3842	0.3005	0.7292	-0.024
Mof_C 	C 	0.4153	0.4129	0.7485	-0.145
Mof_H 	H 	0.3992	0.4522	0.7284	0.093
Mof_C 	C 	0.2602	0.4057	0.4447	0.095
Mof_C 	C 	0.2963	0.5306	0.4641	0.091
Mof_C 	C 	0.3082	0.4425	0.4083	0.108
Mof_C 	C 	0.2272	0.3468	0.4492	0.035
Mof_C 	C 	0.2052	0.3079	0.4102	-0.095
Mof_H 	H 	0.2112	0.3187	0.3817	0.053
Mof_C 	C 	0.174	0.2524	0.4153	0.051
Mof_H 	H 	0.1603	0.2218	0.3897	-0.016
Mof_C 	C 	0.1831	0.2838	0.4896	0.063
Mof_H 	H 	0.176	0.2755	0.5178	0.02
Mof_C 	C 	0.2138	0.3397	0.4872	-0.108
Mof_H 	H 	0.2256	0.3734	0.5127	0.074
Mof_C 	C 	0.3035	0.6143	0.4905	0.06
Mof_C 	C 	0.2845	0.6338	0.5226	-0.118
Mof_H 	H 	0.2654	0.5937	0.5289	0.076
Mof_C 	C 	0.2922	0.7139	0.5478	0.048
Mof_H 	H 	0.2775	0.7293	0.5697	-0.055
Mof_C 	C 	0.3381	0.7507	0.5068	0.089
Mof_H 	H 	0.3567	0.7923	0.5004	-0.015
Mof_C 	C 	0.3306	0.6752	0.4811	-0.132
Mof_H 	H 	0.3438	0.6649	0.4572	0.088
Mof_C 	C 	0.3319	0.4248	0.3763	0.049
Mof_C 	C 	0.3679	0.4629	0.379	-0.106
Mof_H 	H 	0.3769	0.5043	0.4023	0.084
Mof_C 	C 	0.3913	0.4434	0.3492	0.07
Mof_H 	H 	0.416	0.4718	0.3527	-0.009
Mof_C 	C 	0.3454	0.3486	0.3109	0.061
Mof_H 	H 	0.337	0.3108	0.2859	-0.01
Mof_C 	C 	0.3205	0.3615	0.3404	-0.099
Mof_H 	H 	0.2966	0.3297	0.3372	0.071
Mof_C 	C 	0.8207	0.5337	0.9023	0.115
Mof_C 	C 	0.8058	0.4583	0.9569	0.088
Mof_C 	C 	0.7717	0.5811	0.9342	0.095
Mof_C 	C 	0.8467	0.5538	0.87	0.117
Mof_C 	C 	0.875	0.4927	0.8639	-0.154
Mof_H 	H 	0.8775	0.4377	0.8796	0.088
Mof_C 	C 	0.8986	0.512	0.8358	0.076
Mof_H 	H 	0.9171	0.468	0.8315	-0.054
Mof_C 	C 	0.8712	0.6418	0.8204	0.161
Mof_H 	H 	0.8696	0.697	0.8049	-0.09
Mof_C 	C 	0.8446	0.631	0.8472	-0.18
Mof_H 	H 	0.8257	0.6752	0.8496	0.119
Mof_C 	C 	0.7384	0.6427	0.9359	0.052
Mof_C 	C 	0.7264	0.699	0.9004	-0.126
Mof_H 	H 	0.739	0.7001	0.8756	0.096
Mof_C 	C 	0.6948	0.7545	0.9026	0.078
Mof_H 	H 	0.6858	0.7939	0.8784	-0.016
Mof_C 	C 	0.6897	0.7026	0.9712	0.058
Mof_H 	H 	0.6772	0.7043	0.9961	0.001
Mof_C 	C 	0.722	0.644	0.9715	-0.138
Mof_H 	H 	0.7315	0.6071	0.9966	0.074
Mof_C 	C 	0.8105	0.377	0.9885	0.024
Mof_C 	C 	0.7836	0.3524	0.0113	-0.093
Mof_H 	H 	0.7593	0.3827	0.0063	0.04
Mof_C 	C 	0.7901	0.2846	0.0416	0.05
Mof_H 	H 	0.7716	0.2725	0.0597	0.001
Mof_C 	C 	0.8507	0.2612	0.0221	0.048
Mof_H 	H 	0.875	0.2309	0.0263	-0.003
Mof_C 	C 	0.8443	0.3281	0.9936	-0.107
Mof_H 	H 	0.8633	0.3427	0.9765	0.059
Mof_I 	I 	0.61598	0.83749	0.01313	-0.363
Mof_N 	N 	0.9318	0.074	0.7542	-0.131
Mof_N 	N 	0.9792	0.0643	0.8195	-0.131
Mof_N 	N 	0.9667	0.2025	0.7823	-0.141
Mof_N 	N 	0.8753	0.2982	0.6401	-0.282
Mof_N 	N 	0.9433	0.7466	0.7823	-0.333
Mof_N 	N 	0.0721	0.2811	0.9088	-0.308
Mof_C 	C 	0.9397	0.1591	0.7528	0.096
Mof_C 	C 	0.9546	0.0273	0.7876	0.113
Mof_C 	C 	0.9844	0.1488	0.8161	0.107
Mof_C 	C 	0.9166	0.2097	0.7152	0.061
Mof_C 	C 	0.9221	0.2975	0.709	-0.13
Mof_H 	H 	0.9397	0.3304	0.7307	0.064
Mof_C 	C 	0.9019	0.3402	0.6704	0.05
Mof_H 	H 	0.9073	0.401	0.6656	-0.014
Mof_C 	C 	0.8739	0.2107	0.6439	0.087
Mof_H 	H 	0.8572	0.1776	0.6214	0.011
Mof_C 	C 	0.8951	0.1674	0.6785	-0.132
Mof_H 	H 	0.8953	0.1042	0.6778	0.114
Mof_C 	C 	0.9502	0.9316	0.7873	0.069
Mof_C 	C 	0.9236	0.8915	0.7527	-0.115
Mof_H 	H 	0.9072	0.9261	0.7306	0.094
Mof_C 	C 	0.9223	0.7985	0.7519	0.072
Mof_H 	H 	0.9052	0.7708	0.7278	-0.014
Mof_C 	C 	0.9681	0.782	0.814	0.101
Mof_H 	H 	0.9839	0.7445	0.8353	-0.037
Mof_C 	C 	0.9724	0.8744	0.8181	-0.129
Mof_H 	H 	0.9907	0.8985	0.8422	0.101
Mof_C 	C 	0.0137	0.1965	0.849	0.093
Mof_C 	C 	0.0328	0.1539	0.8878	-0.104
Mof_H 	H 	0.0258	0.095	0.8945	0.113
Mof_C 	C 	0.0609	0.1973	0.9155	0.111
Mof_H 	H 	0.0739	0.1671	0.9415	0.006
Mof_C 	C 	0.0529	0.3271	0.8757	0.085
Mof_H 	H 	0.0585	0.3885	0.8725	-0.044
Mof_C 	C 	0.0231	0.2836	0.844	-0.12
Mof_H 	H 	0.0096	0.3162	0.8191	0.099
Mof_Zn	Zn	0.83612	0.133	0.0933	0.502
Mof_Zn	Zn	0.11555	0.1607	0.45644	0.624
Mof_I 	I 	0.86803	0.0069	0.05777	-0.081
Mof_I 	I 	0.90265	0.5934	0.6896	-2.754
Mof_I 	I 	0.9977	0.5307	0.8064	-0.59
Mof_I 	I 	0.77791	0.1073	0.12877	-0.307
Mof_I 	I 	0.10016	0.1709	0.5336	-2.47
Mof_I 	I 	0.13138	0.01394	0.42064	0.639
Mof_I 	I 	0.01851	0.2889	0.54139	-0.003
Mof_I 	I 	0.95425	0.38352	0.55332	-0.053
Mof_Zn	Zn	0.1233	0.1485	0.4443	0.675
Mof_I 	I 	0.0973	0.1269	0.5151	1.987
Mof_Zn	Zn	0.3193	0.892	0.5976	0.792
Mof_I 	I 	0.2724	0.922	0.6373	-1.596
Mof_I 	I 	0.3576	0.013	0.5554	0.334
Mof_Zn	Zn	0.8401	0.1459	0.087	0.678
Mof_I 	I 	0.7832	0.097	0.1207	-0.054
Mof_I 	I 	0.8826	0.4679	0.5575	-0.218
Mof_Zn	Zn	0.9459	0.6035	0.7879	0.851
Mof_I 	I 	0.9897	0.0455	0.6687	0.548
Mof_Zn	Zn	0.9191	0.6119	0.7707	0.798
Mof_I 	I 	0.9403	0.0935	0.5884	-0.28
Mof_I 	I 	0.0067	0.1786	0.583	-0.099
Mof_I 	I 	0.0977	0.3166	0.5723	0.301
Mof_I 	I 	0.0993	0.4729	0.619	-0.106
Mof_I 	I 	0.9697	0.4863	0.5196	-0.024
Mof_I 	I 	0.1429	0.0123	0.4019	-1.08
Mof_I 	I 	0.9164	0.5429	0.7126	0.93
Mof_I 	I 	0.875	0.5888	0.6957	1.548
Mof_I 	I 	0.9787	0.5132	0.7913	-0.515
Mof_Zn	Zn	0.66119	0.37445	0.91741	0.866
Mof_I 	I 	0.71371	0.40031	0.87181	1.02
Mof_I 	I 	0.63042	0.48996	0.96007	-0.803
Mof_Zn	Zn	0.58634	0.63096	0.73223	1.165
Mof_I 	I 	0.63238	0.60832	0.807	-0.428
Mof_I 	I 	0.52655	0.53216	0.70981	-0.379
Mof_Zn	Zn	0.36901	0.3412	0.56404	1.164
Mof_I 	I 	0.35108	0.48323	0.60115	-0.387
Mof_Zn	Zn	0.064	0.1133	0.7304	0.202
Mof_N 	N 	0.5272	0.2146	0.7295	-0.14
Mof_N 	N 	0.5165	0.0784	0.691	-0.137
Mof_N 	N 	0.565	0.087	0.7568	-0.134
Mof_N 	N 	0.6189	0.3113	0.8715	-0.328
Mof_N 	N 	0.4157	0.2837	0.606	-0.277
Mof_N 	N 	0.5709	0.7643	0.7263	-0.283
Mof_N 	N 	0.7318	0.9755	0.0277	-0.147
Mof_N 	N 	0.6827	0.0176	0.067	-0.132
Mof_N 	N 	0.7206	0.8871	0.0874	-0.138
Mof_N 	N 	0.8374	0.7404	0.0461	-0.31
Mof_N 	N 	0.6792	0.2669	0.9604	-0.314
Mof_N 	N 	0.619	0.8867	0.1843	-0.273
Mof_N 	N 	0.1728	0.964	0.5718	-0.151
Mof_N 	N 	0.2232	0.0133	0.5364	-0.161
Mof_N 	N 	0.2067	0.095	0.5961	-0.115
Mof_N 	N 	0.1023	0.0899	0.687	-0.477
Mof_N 	N 	0.3228	0.2545	0.5638	-0.274
Mof_N 	N 	0.1767	0.7335	0.4539	-0.29
Mof_C 	C 	0.5543	0.1713	0.7589	0.098
Mof_C 	C 	0.5091	0.1627	0.6963	0.092
Mof_C 	C 	0.5446	0.0417	0.7223	0.099
Mof_C 	C 	0.5743	0.2235	0.7996	0.072
Mof_C 	C 	0.5939	0.1785	0.8344	-0.13
Mof_H 	H 	0.5927	0.1152	0.8345	0.095
Mof_C 	C 	0.6171	0.2243	0.872	0.061
Mof_H 	H 	0.6309	0.1917	0.8968	-0.013
Mof_C 	C 	0.5969	0.3541	0.8373	0.075
Mof_H 	H 	0.597	0.4174	0.838	-0.046
Mof_C 	C 	0.5748	0.3141	0.8019	-0.148
Mof_H 	H 	0.5596	0.3486	0.7787	0.088
Mof_C 	C 	0.4769	0.2056	0.663	0.061
Mof_C 	C 	0.4714	0.2942	0.6656	-0.133
Mof_H 	H 	0.4888	0.3297	0.6863	0.096
Mof_C 	C 	0.4399	0.332	0.6372	0.069
Mof_H 	H 	0.4351	0.3939	0.6397	-0.008
Mof_C 	C 	0.4216	0.1976	0.6043	0.081
Mof_H 	H 	0.4044	0.1625	0.5832	-0.011
Mof_C 	C 	0.4525	0.1566	0.6325	-0.136
Mof_H 	H 	0.4564	0.0943	0.6303	0.087
Mof_C 	C 	0.5542	0.9433	0.7232	0.083
Mof_C 	C 	0.5313	0.8852	0.6942	-0.141
Mof_H 	H 	0.51	0.9061	0.6724	0.089
Mof_C 	C 	0.5405	0.7961	0.6979	0.092
Mof_H 	H 	0.5241	0.7552	0.6792	-0.016
Mof_C 	C 	0.593	0.8216	0.7515	0.086
Mof_H 	H 	0.6158	0.8005	0.7708	-0.024
Mof_C 	C 	0.5847	0.9129	0.7515	-0.144
Mof_H 	H 	0.6008	0.9522	0.7716	0.093
Mof_C 	C 	0.7398	0.9057	0.0553	0.095
Mof_C 	C 	0.7037	0.0306	0.0359	0.091
Mof_C 	C 	0.6918	0.9425	0.0917	0.108
Mof_C 	C 	0.7728	0.8468	0.0508	0.035
Mof_C 	C 	0.7948	0.8079	0.0898	-0.095
Mof_H 	H 	0.7888	0.8187	0.1183	0.053
Mof_C 	C 	0.826	0.7524	0.0847	0.051
Mof_H 	H 	0.8397	0.7218	0.1103	-0.016
Mof_C 	C 	0.8169	0.7838	0.0104	0.063
Mof_H 	H 	0.824	0.7755	0.9822	0.02
Mof_C 	C 	0.7862	0.8397	0.0128	-0.108
Mof_H 	H 	0.7744	0.8734	0.9873	0.074
Mof_C 	C 	0.6965	0.1143	0.0095	0.06
Mof_C 	C 	0.7155	0.1338	0.9774	-0.118
Mof_H 	H 	0.7346	0.0937	0.9711	0.076
Mof_C 	C 	0.7078	0.2139	0.9522	0.048
Mof_H 	H 	0.7225	0.2293	0.9303	-0.055
Mof_C 	C 	0.6619	0.2507	0.9932	0.09
Mof_H 	H 	0.6433	0.2923	0.9996	-0.015
Mof_C 	C 	0.6694	0.1752	0.0189	-0.132
Mof_H 	H 	0.6562	0.1649	0.0428	0.088
Mof_C 	C 	0.6681	0.9248	0.1237	0.05
Mof_C 	C 	0.6321	0.9629	0.121	-0.107
Mof_H 	H 	0.6231	0.0043	0.0977	0.084
Mof_C 	C 	0.6087	0.9434	0.1508	0.07
Mof_H 	H 	0.584	0.9718	0.1473	-0.009
Mof_C 	C 	0.6546	0.8486	0.1891	0.061
Mof_H 	H 	0.663	0.8108	0.2141	-0.01
Mof_C 	C 	0.6795	0.8615	0.1596	-0.099
Mof_H 	H 	0.7034	0.8297	0.1628	0.071
Mof_C 	C 	0.1793	0.0337	0.5977	0.115
Mof_C 	C 	0.1942	0.9583	0.5431	0.089
Mof_C 	C 	0.2283	0.0811	0.5658	0.095
Mof_C 	C 	0.1533	0.0538	0.63	0.116
Mof_C 	C 	0.125	0.9927	0.6361	-0.152
Mof_H 	H 	0.1225	0.9377	0.6204	0.087
Mof_C 	C 	0.1014	0.012	0.6642	0.074
Mof_H 	H 	0.0829	0.968	0.6685	-0.053
Mof_C 	C 	0.1288	0.1418	0.6796	0.16
Mof_H 	H 	0.1304	0.197	0.6951	-0.09
Mof_C 	C 	0.1554	0.131	0.6528	-0.179
Mof_H 	H 	0.1743	0.1752	0.6504	0.119
Mof_C 	C 	0.2616	0.1427	0.5641	0.051
Mof_C 	C 	0.2736	0.199	0.5996	-0.126
Mof_H 	H 	0.261	0.2001	0.6244	0.096
Mof_C 	C 	0.3052	0.2545	0.5974	0.078
Mof_H 	H 	0.3142	0.2939	0.6216	-0.015
Mof_C 	C 	0.3103	0.2026	0.5288	0.058
Mof_H 	H 	0.3228	0.2043	0.5039	0.001
Mof_C 	C 	0.278	0.144	0.5285	-0.138
Mof_H 	H 	0.2685	0.1071	0.5034	0.073
Mof_C 	C 	0.1895	0.877	0.5115	0.024
Mof_C 	C 	0.2164	0.8524	0.4887	-0.092
Mof_H 	H 	0.2407	0.8827	0.4937	0.04
Mof_C 	C 	0.2099	0.7846	0.4584	0.05
Mof_H 	H 	0.2284	0.7725	0.4403	0.001
Mof_C 	C 	0.1493	0.7612	0.4779	0.048
Mof_H 	H 	0.125	0.7309	0.4737	-0.003
Mof_C 	C 	0.1557	0.8281	0.5064	-0.107
Mof_H 	H 	0.1367	0.8427	0.5235	0.059
Mof_I 	I 	0.38402	0.33749	0.48687	-0.363
Mof_N 	N 	0.0682	0.574	0.7458	-0.131
Mof_N 	N 	0.0208	0.5643	0.6805	-0.131
Mof_N 	N 	0.0333	0.7025	0.7177	-0.141
Mof_N 	N 	0.1247	0.7982	0.8599	-0.282
Mof_N 	N 	0.0567	0.2466	0.7177	-0.333
Mof_N 	N 	0.9279	0.7811	0.5912	-0.308
Mof_C 	C 	0.0603	0.6591	0.7472	0.096
Mof_C 	C 	0.0454	0.5273	0.7124	0.113
Mof_C 	C 	0.0156	0.6488	0.6839	0.107
Mof_C 	C 	0.0834	0.7097	0.7848	0.061
Mof_C 	C 	0.0779	0.7975	0.791	-0.13
Mof_H 	H 	0.0603	0.8304	0.7693	0.064
Mof_C 	C 	0.0981	0.8402	0.8296	0.05
Mof_H 	H 	0.0927	0.901	0.8344	-0.014
Mof_C 	C 	0.1261	0.7107	0.8561	0.087
Mof_H 	H 	0.1428	0.6776	0.8786	0.011
Mof_C 	C 	0.1049	0.6674	0.8215	-0.132
Mof_H 	H 	0.1047	0.6042	0.8222	0.114
Mof_C 	C 	0.0498	0.4316	0.7127	0.069
Mof_C 	C 	0.0764	0.3915	0.7473	-0.115
Mof_H 	H 	0.0928	0.4261	0.7694	0.094
Mof_C 	C 	0.0777	0.2985	0.7481	0.072
Mof_H 	H 	0.0948	0.2708	0.7722	-0.014
Mof_C 	C 	0.0319	0.282	0.686	0.101
Mof_H 	H 	0.0161	0.2445	0.6647	-0.037
Mof_C 	C 	0.0276	0.3744	0.6819	-0.129
Mof_H 	H 	0.0093	0.3985	0.6578	0.101
Mof_C 	C 	0.9863	0.6965	0.651	0.093
Mof_C 	C 	0.9672	0.6539	0.6122	-0.104
Mof_H 	H 	0.9742	0.595	0.6055	0.113
Mof_C 	C 	0.9391	0.6973	0.5845	0.111
Mof_H 	H 	0.9261	0.6671	0.5585	0.006
Mof_C 	C 	0.9471	0.8271	0.6243	0.085
Mof_H 	H 	0.9415	0.8885	0.6275	-0.044
Mof_C 	C 	0.9769	0.7836	0.656	-0.121
Mof_H 	H 	0.9904	0.8162	0.6809	0.1
Mof_Zn	Zn	0.16388	0.633	0.4067	0.502
Mof_Zn	Zn	0.88445	0.6607	0.04356	0.625
Mof_I 	I 	0.13197	0.5069	0.44223	-0.081
Mof_I 	I 	0.09735	0.0934	0.8104	-2.756
Mof_I 	I 	0.0023	0.0307	0.6936	-0.59
Mof_I 	I 	0.22209	0.6073	0.37123	-0.307
Mof_I 	I 	0.89984	0.6709	0.9664	-2.468
Mof_I 	I 	0.86862	0.51394	0.07936	0.639
Mof_I 	I 	0.98149	0.7889	0.95861	-0.003
Mof_I 	I 	0.04575	0.88352	0.94668	-0.053
Mof_Zn	Zn	0.8767	0.6485	0.0557	0.675
Mof_I 	I 	0.9027	0.6269	0.9849	1.985
Mof_Zn	Zn	0.6807	0.392	0.9024	0.793
Mof_I 	I 	0.7276	0.422	0.8627	-1.596
Mof_I 	I 	0.6424	0.513	0.9446	0.329
Mof_Zn	Zn	0.1599	0.6459	0.413	0.678
Mof_I 	I 	0.2168	0.597	0.3793	-0.054
Mof_I 	I 	0.1174	0.9679	0.9425	-0.218
Mof_Zn	Zn	0.0541	0.1035	0.7121	0.851
Mof_I 	I 	0.0103	0.5455	0.8313	0.548
Mof_Zn	Zn	0.0809	0.1119	0.7293	0.798
Mof_I 	I 	0.0597	0.5935	0.9116	-0.28
Mof_I 	I 	0.9933	0.6786	0.917	-0.099
Mof_I 	I 	0.9023	0.8166	0.9277	0.301
Mof_I 	I 	0.9007	0.9729	0.881	-0.106
Mof_I 	I 	0.0303	0.9863	0.9804	-0.024
Mof_I 	I 	0.8571	0.5123	0.0981	-1.079
Mof_I 	I 	0.0836	0.0429	0.7874	0.932
Mof_I 	I 	0.125	0.0888	0.8043	1.549
Mof_I 	I 	0.0213	0.0132	0.7087	-0.516
_end
