data_functionalizedCrystal
_audit_creation_method	'EQeq! by Chris Wilmer'
_symmetry_space_group_name_H-M	'P1'
_symmetry_Int_Tables_number	1
_symmetry_cell_setting	triclinic
loop_
_symmetry_equiv_pos_as_xyz
  x,y,z
_cell_length_a	21.926
_cell_length_b	21.926
_cell_length_c	10.5643
_cell_angle_alpha	90
_cell_angle_beta	90
_cell_angle_gamma	120
loop_
_atom_site_label
_atom_site_type_symbol
_atom_site_fract_x
_atom_site_fract_y
_atom_site_fract_z
_atom_site_charge
Mof_Zn	Zn	0.42898	0.14121	0.82714	1.186
Mof_Zn	Zn	0.4305	0.14595	0.16682	1.185
Mof_Zn	Zn	0.28788	0.14027	0.99372	1.172
Mof_Zn	Zn	0.42503	0.28093	0.99324	1.173
Mof_Zn	Zn	0.28833	0.29106	0.99232	1.172
Mof_Zn	Zn	0.42647	0.43184	0.00135	1.17
Mof_Zn	Zn	0.13812	0.14115	0.99344	1.174
Mof_Zn	Zn	0.57647	0.42993	0.00115	1.174
Mof_Zn	Zn	0.56597	0.28388	0.98384	1.172
Mof_O 	O 	0.52814	0.19615	0.1047	-0.901
Mof_H 	H 	0.55	0.211	0.177	0.173
Mof_O 	O 	0.47421	0.24018	0.8747	-0.995
Mof_H 	H 	0.483	0.258	0.806	0.279
Mof_O 	O 	0.33134	0.09135	0.8864	-0.9
Mof_H 	H 	0.307	0.081	0.816	0.178
Mof_O 	O 	0.37804	0.19122	0.1086	-0.929
Mof_H 	H 	0.368	0.202	0.179	0.223
Mof_O 	O 	0.481	0.0954	0.8864	-0.824
Mof_H 	H 	0.4967	0.0813	0.8083	0.067
Mof_O 	O 	0.33608	0.38288	0.8835	-0.902
Mof_H 	H 	0.346	0.373	0.809	0.184
Mof_O 	O 	0.04646	0.09806	0.8865	-0.944
Mof_H 	H 	0.052	0.119	0.817	0.23
Mof_O 	O 	0.38334	0.33606	0.0846	-0.831
Mof_H 	H 	0.3822	0.3347	0.1792	0.121
Mof_O 	O 	0.19228	0.23867	0.9092	-0.836
Mof_H 	H 	0.191	0.2401	0.8146	0.125
Mof_O 	O 	0.52025	0.33235	0.0787	-0.838
Mof_H 	H 	0.5203	0.3298	0.1733	0.115
Mof_O 	O 	0.52386	0.4729	0.0895	-0.828
Mof_H 	H 	0.5244	0.4736	0.1841	0.118
Mof_O 	O 	0.18958	0.09686	0.908	-0.834
Mof_H 	H 	0.188	0.0942	0.8135	0.126
Mof_O 	O 	0.62191	0.38157	0.9008	-0.833
Mof_H 	H 	0.6204	0.3835	0.8063	0.113
Mof_O 	O 	0.32946	0.23495	0.9062	-0.838
Mof_H 	H 	0.3296	0.2346	0.8116	0.125
Mof_N 	N 	0.0137	0.0195	0.6403	-1.004
Mof_H 	H 	0.9936	0.046	0.6171	0.125
Mof_H 	H 	0.0611	0.0454	0.6229	0.419
Mof_C 	C 	0.9827	0.9554	0.5661	-1.228
Mof_H 	H 	0.9428	0.9168	0.6123	-0.1
Mof_H 	H 	0.0181	0.9411	0.5485	0.388
Mof_N 	N 	0.4419	0.1594	0.3559	-0.352
Mof_H 	H 	0.4681	0.14	0.3842	0.033
Mof_H 	H 	0.4673	0.207	0.3725	0.034
Mof_C 	C 	0.3789	0.1302	0.4265	-0.017
Mof_H 	H 	0.3566	0.0782	0.4255	-0.047
Mof_H 	H 	0.346	0.1426	0.3852	-0.057
Mof_C 	C 	0.3904	0.1562	0.5677	-0.055
Mof_H 	H 	0.415	0.2083	0.5693	-0.033
Mof_H 	H 	0.344	0.1384	0.6092	-0.043
Mof_N 	N 	0.43133	0.13206	0.6375	-0.345
Mof_H 	H 	0.4774	0.1573	0.6109	0.032
Mof_H 	H 	0.4149	0.0855	0.6179	0.031
Mof_Zn	Zn	0.85879	0.28777	0.82714	1.187
Mof_Zn	Zn	0.85405	0.28455	0.16682	1.185
Mof_Zn	Zn	0.85973	0.14761	0.99372	1.167
Mof_Zn	Zn	0.71907	0.1441	0.99324	1.169
Mof_Zn	Zn	0.70894	0.99727	0.99232	1.183
Mof_Zn	Zn	0.56816	0.99463	0.00135	1.178
Mof_Zn	Zn	0.85885	0.99697	0.99344	1.186
Mof_Zn	Zn	0.57007	0.14654	0.00115	1.173
Mof_Zn	Zn	0.71612	0.28209	0.98384	1.171
Mof_O 	O 	0.80385	0.33199	0.1047	-0.9
Mof_H 	H 	0.789	0.339	0.177	0.173
Mof_O 	O 	0.75982	0.23403	0.8747	-0.997
Mof_H 	H 	0.742	0.225	0.806	0.277
Mof_O 	O 	0.90865	0.23999	0.8864	-0.895
Mof_H 	H 	0.919	0.226	0.816	0.189
Mof_O 	O 	0.80878	0.18682	0.1086	-0.926
Mof_H 	H 	0.798	0.166	0.179	0.22
Mof_O 	O 	0.9046	0.3856	0.8864	-0.816
Mof_H 	H 	0.9187	0.4154	0.8083	0.085
Mof_O 	O 	0.61712	0.9532	0.8835	-0.895
Mof_H 	H 	0.627	0.973	0.809	0.192
Mof_O 	O 	0.90194	0.9484	0.8865	-0.898
Mof_H 	H 	0.881	0.933	0.817	0.225
Mof_O 	O 	0.66394	0.04728	0.0846	-0.847
Mof_H 	H 	0.6653	0.0475	0.1792	0.114
Mof_O 	O 	0.76133	0.95361	0.9092	-0.826
Mof_H 	H 	0.7599	0.9509	0.8146	0.136
Mof_O 	O 	0.66765	0.1879	0.0787	-0.837
Mof_H 	H 	0.6702	0.1905	0.1733	0.114
Mof_O 	O 	0.5271	0.05096	0.0895	-0.839
Mof_H 	H 	0.5264	0.0508	0.1841	0.112
Mof_O 	O 	0.90314	0.09272	0.908	-0.841
Mof_H 	H 	0.9058	0.0938	0.8135	0.14
Mof_O 	O 	0.61843	0.24034	0.9008	-0.835
Mof_H 	H 	0.6165	0.2369	0.8063	0.112
Mof_O 	O 	0.76505	0.09451	0.9062	-0.853
Mof_H 	H 	0.7654	0.095	0.8116	0.119
Mof_N 	N 	0.9805	0.9942	0.6403	0.302
Mof_H 	H 	0.954	0.9476	0.6171	0.304
Mof_H 	H 	0.9546	0.0157	0.6229	-0.62
Mof_C 	C 	0.0446	0.0273	0.5661	-0.162
Mof_H 	H 	0.0832	0.026	0.6123	-0.471
Mof_H 	H 	0.0589	0.077	0.5485	-0.183
Mof_N 	N 	0.8406	0.2825	0.3559	-0.35
Mof_H 	H 	0.86	0.3281	0.3842	0.038
Mof_H 	H 	0.793	0.2603	0.3725	0.033
Mof_C 	C 	0.8698	0.2487	0.4265	-0.027
Mof_H 	H 	0.9218	0.2784	0.4255	-0.029
Mof_H 	H 	0.8574	0.2034	0.3852	-0.05
Mof_C 	C 	0.8438	0.2342	0.5677	-0.046
Mof_H 	H 	0.7917	0.2067	0.5693	-0.038
Mof_H 	H 	0.8616	0.2056	0.6092	-0.04
Mof_N 	N 	0.86794	0.29927	0.6375	-0.349
Mof_H 	H 	0.8427	0.3201	0.6109	0.037
Mof_H 	H 	0.9145	0.3294	0.6179	0.048
Mof_Zn	Zn	0.71223	0.57102	0.82714	1.187
Mof_Zn	Zn	0.71545	0.5695	0.16682	1.185
Mof_Zn	Zn	0.85239	0.71212	0.99372	1.172
Mof_Zn	Zn	0.8559	0.57497	0.99324	1.173
Mof_Zn	Zn	0.00273	0.71167	0.99232	1.162
Mof_Zn	Zn	0.00537	0.57353	0.00135	1.154
Mof_Zn	Zn	0.00303	0.86188	0.99344	1.164
Mof_Zn	Zn	0.85346	0.42353	0.00115	1.175
Mof_Zn	Zn	0.71791	0.43403	0.98384	1.172
Mof_O 	O 	0.66801	0.47186	0.1047	-0.902
Mof_H 	H 	0.661	0.45	0.177	0.173
Mof_O 	O 	0.76597	0.52579	0.8747	-0.995
Mof_H 	H 	0.775	0.517	0.806	0.28
Mof_O 	O 	0.76001	0.66866	0.8864	-0.895
Mof_H 	H 	0.774	0.693	0.816	0.184
Mof_O 	O 	0.81318	0.62196	0.1086	-0.929
Mof_H 	H 	0.834	0.632	0.179	0.226
Mof_O 	O 	0.6144	0.519	0.8864	-0.818
Mof_H 	H 	0.5846	0.5033	0.8083	0.077
Mof_O 	O 	0.0468	0.66392	0.8835	-0.905
Mof_H 	H 	0.027	0.654	0.809	0.175
Mof_O 	O 	0.0516	0.95354	0.8865	-0.915
Mof_H 	H 	0.067	0.948	0.817	0.212
Mof_O 	O 	0.95272	0.61666	0.0846	-0.81
Mof_H 	H 	0.9525	0.6178	0.1792	0.129
Mof_O 	O 	0.04639	0.80772	0.9092	-0.84
Mof_H 	H 	0.0491	0.809	0.8146	0.118
Mof_O 	O 	0.8121	0.47975	0.0787	-0.836
Mof_H 	H 	0.8095	0.4797	0.1733	0.117
Mof_O 	O 	0.94904	0.47614	0.0895	-0.812
Mof_H 	H 	0.9492	0.4756	0.1841	0.124
Mof_O 	O 	0.90728	0.81042	0.908	-0.821
Mof_H 	H 	0.9062	0.812	0.8135	0.125
Mof_O 	O 	0.75966	0.37809	0.9008	-0.834
Mof_H 	H 	0.7631	0.3796	0.8063	0.114
Mof_O 	O 	0.90549	0.67054	0.9062	-0.828
Mof_H 	H 	0.905	0.6704	0.8116	0.131
Mof_N 	N 	0.0058	0.9863	0.6403	0.159
Mof_H 	H 	0.0524	0.0064	0.6171	0.383
Mof_H 	H 	0.9843	0.9389	0.6229	0.336
Mof_C 	C 	0.9727	0.0173	0.5661	1.185
Mof_H 	H 	0.974	0.0572	0.6123	-0.147
Mof_H 	H 	0.923	0.9819	0.5485	-0.19
Mof_N 	N 	0.7175	0.5581	0.3559	-0.351
Mof_H 	H 	0.6719	0.5319	0.3842	0.036
Mof_H 	H 	0.7397	0.5327	0.3725	0.035
Mof_C 	C 	0.7513	0.6211	0.4265	-0.021
Mof_H 	H 	0.7216	0.6434	0.4255	-0.038
Mof_H 	H 	0.7966	0.654	0.3852	-0.051
Mof_C 	C 	0.7658	0.6096	0.5677	-0.053
Mof_H 	H 	0.7933	0.585	0.5693	-0.031
Mof_H 	H 	0.7944	0.656	0.6092	-0.039
Mof_N 	N 	0.70073	0.56867	0.6375	-0.346
Mof_H 	H 	0.6799	0.5226	0.6109	0.035
Mof_H 	H 	0.6706	0.5851	0.6179	0.04
Mof_Zn	Zn	0.57102	0.85879	0.17286	1.188
Mof_Zn	Zn	0.5695	0.85405	0.83318	1.185
Mof_Zn	Zn	0.71212	0.85973	0.00628	1.171
Mof_Zn	Zn	0.57497	0.71907	0.00676	1.172
Mof_Zn	Zn	0.71167	0.70894	0.00768	1.171
Mof_Zn	Zn	0.57353	0.56816	0.99865	1.169
Mof_Zn	Zn	0.86188	0.85885	0.00656	1.173
Mof_Zn	Zn	0.42353	0.57007	0.99885	1.173
Mof_Zn	Zn	0.43403	0.71612	0.01616	1.172
Mof_O 	O 	0.47186	0.80385	0.8953	-0.901
Mof_H 	H 	0.45	0.789	0.823	0.174
Mof_O 	O 	0.52579	0.75982	0.1253	-0.995
Mof_H 	H 	0.517	0.742	0.194	0.279
Mof_O 	O 	0.66866	0.90865	0.1136	-0.893
Mof_H 	H 	0.693	0.919	0.184	0.189
Mof_O 	O 	0.62196	0.80878	0.8914	-0.929
Mof_H 	H 	0.632	0.798	0.821	0.224
Mof_O 	O 	0.519	0.9046	0.1136	-0.815
Mof_H 	H 	0.5033	0.9187	0.1917	0.085
Mof_O 	O 	0.66392	0.61712	0.1165	-0.902
Mof_H 	H 	0.654	0.627	0.191	0.184
Mof_O 	O 	0.95354	0.90194	0.1135	-0.899
Mof_H 	H 	0.948	0.881	0.183	0.215
Mof_O 	O 	0.61666	0.66394	0.9154	-0.831
Mof_H 	H 	0.6178	0.6653	0.8208	0.121
Mof_O 	O 	0.80772	0.76133	0.0908	-0.835
Mof_H 	H 	0.809	0.7599	0.1854	0.127
Mof_O 	O 	0.47975	0.66765	0.9213	-0.838
Mof_H 	H 	0.4797	0.6702	0.8267	0.116
Mof_O 	O 	0.47614	0.5271	0.9105	-0.828
Mof_H 	H 	0.4756	0.5264	0.8159	0.118
Mof_O 	O 	0.81042	0.90314	0.092	-0.826
Mof_H 	H 	0.812	0.9058	0.1865	0.131
Mof_O 	O 	0.37809	0.61843	0.0992	-0.833
Mof_H 	H 	0.3796	0.6165	0.1937	0.113
Mof_O 	O 	0.67054	0.76505	0.0938	-0.838
Mof_H 	H 	0.6704	0.7654	0.1884	0.125
Mof_N 	N 	0.9863	0.9805	0.3597	0.417
Mof_H 	H 	0.0064	0.954	0.3829	0.598
Mof_H 	H 	0.9389	0.9546	0.3771	-0.197
Mof_C 	C 	0.0173	0.0446	0.4339	1.152
Mof_H 	H 	0.0572	0.0832	0.3877	-0.307
Mof_H 	H 	0.9819	0.0589	0.4515	-0.362
Mof_N 	N 	0.5581	0.8406	0.6441	-0.351
Mof_H 	H 	0.5319	0.86	0.6158	0.038
Mof_H 	H 	0.5327	0.793	0.6275	0.034
Mof_C 	C 	0.6211	0.8698	0.5735	-0.026
Mof_H 	H 	0.6434	0.9218	0.5745	-0.029
Mof_H 	H 	0.654	0.8574	0.6148	-0.049
Mof_C 	C 	0.6096	0.8438	0.4323	-0.047
Mof_H 	H 	0.585	0.7917	0.4307	-0.035
Mof_H 	H 	0.656	0.8616	0.3908	-0.039
Mof_N 	N 	0.56867	0.86794	0.3625	-0.348
Mof_H 	H 	0.5226	0.8427	0.3891	0.037
Mof_H 	H 	0.5851	0.9145	0.3821	0.047
Mof_Zn	Zn	0.14121	0.71223	0.17286	1.185
Mof_Zn	Zn	0.14595	0.71545	0.83318	1.185
Mof_Zn	Zn	0.14027	0.85239	0.00628	1.17
Mof_Zn	Zn	0.28093	0.8559	0.00676	1.172
Mof_Zn	Zn	0.29106	0.00273	0.00768	1.161
Mof_Zn	Zn	0.43184	0.00537	0.99865	1.154
Mof_Zn	Zn	0.14115	0.00303	0.00656	1.161
Mof_Zn	Zn	0.42993	0.85346	0.99885	1.175
Mof_Zn	Zn	0.28388	0.71791	0.01616	1.171
Mof_O 	O 	0.19615	0.66801	0.8953	-0.9
Mof_H 	H 	0.211	0.661	0.823	0.173
Mof_O 	O 	0.24018	0.76597	0.1253	-0.997
Mof_H 	H 	0.258	0.775	0.194	0.281
Mof_O 	O 	0.09135	0.76001	0.1136	-0.903
Mof_H 	H 	0.081	0.774	0.184	0.179
Mof_O 	O 	0.19122	0.81318	0.8914	-0.926
Mof_H 	H 	0.202	0.834	0.821	0.225
Mof_O 	O 	0.0954	0.6144	0.1136	-0.825
Mof_H 	H 	0.0813	0.5846	0.1917	0.068
Mof_O 	O 	0.38288	0.0468	0.1165	-0.907
Mof_H 	H 	0.373	0.027	0.191	0.175
Mof_O 	O 	0.09806	0.0516	0.1135	-0.943
Mof_H 	H 	0.119	0.067	0.183	0.221
Mof_O 	O 	0.33606	0.95272	0.9154	-0.808
Mof_H 	H 	0.3347	0.9525	0.8208	0.129
Mof_O 	O 	0.23867	0.04639	0.0908	-0.843
Mof_H 	H 	0.2401	0.0491	0.1854	0.118
Mof_O 	O 	0.33235	0.8121	0.9213	-0.835
Mof_H 	H 	0.3298	0.8095	0.8267	0.116
Mof_O 	O 	0.4729	0.94904	0.9105	-0.812
Mof_H 	H 	0.4736	0.9492	0.8159	0.124
Mof_O 	O 	0.09686	0.90728	0.092	-0.829
Mof_H 	H 	0.0942	0.9062	0.1865	0.124
Mof_O 	O 	0.38157	0.75966	0.0992	-0.834
Mof_H 	H 	0.3835	0.7631	0.1937	0.114
Mof_O 	O 	0.23495	0.90549	0.0938	-0.83
Mof_H 	H 	0.2346	0.905	0.1884	0.131
Mof_N 	N 	0.0195	0.0058	0.3597	-0.85
Mof_H 	H 	0.046	0.0524	0.3829	0.215
Mof_H 	H 	0.0454	0.9843	0.3771	0.748
Mof_C 	C 	0.9554	0.9727	0.4339	-0.096
Mof_H 	H 	0.9168	0.974	0.3877	0.072
Mof_H 	H 	0.9411	0.923	0.4515	0.187
Mof_N 	N 	0.1594	0.7175	0.6441	-0.352
Mof_H 	H 	0.14	0.6719	0.6158	0.033
Mof_H 	H 	0.207	0.7397	0.6275	0.035
Mof_C 	C 	0.1302	0.7513	0.5735	-0.017
Mof_H 	H 	0.0782	0.7216	0.5745	-0.046
Mof_H 	H 	0.1426	0.7966	0.6148	-0.054
Mof_C 	C 	0.1562	0.7658	0.4323	-0.057
Mof_H 	H 	0.2083	0.7933	0.4307	-0.03
Mof_H 	H 	0.1384	0.7944	0.3908	-0.04
Mof_N 	N 	0.13206	0.70073	0.3625	-0.344
Mof_H 	H 	0.1573	0.6799	0.3891	0.033
Mof_H 	H 	0.0855	0.6706	0.3821	0.031
Mof_Zn	Zn	0.28777	0.42898	0.17286	1.187
Mof_Zn	Zn	0.28455	0.4305	0.83318	1.185
Mof_Zn	Zn	0.14761	0.28788	0.00628	1.169
Mof_Zn	Zn	0.1441	0.42503	0.00676	1.17
Mof_Zn	Zn	0.99727	0.28833	0.00768	1.185
Mof_Zn	Zn	0.99463	0.42647	0.99865	1.178
Mof_Zn	Zn	0.99697	0.13812	0.00656	1.189
Mof_Zn	Zn	0.14654	0.57647	0.99885	1.173
Mof_Zn	Zn	0.28209	0.56597	0.01616	1.172
Mof_O 	O 	0.33199	0.52814	0.8953	-0.902
Mof_H 	H 	0.339	0.55	0.823	0.173
Mof_O 	O 	0.23403	0.47421	0.1253	-0.995
Mof_H 	H 	0.225	0.483	0.194	0.277
Mof_O 	O 	0.23999	0.33134	0.1136	-0.895
Mof_H 	H 	0.226	0.307	0.184	0.184
Mof_O 	O 	0.18682	0.37804	0.8914	-0.929
Mof_H 	H 	0.166	0.368	0.821	0.22
Mof_O 	O 	0.3856	0.481	0.1136	-0.818
Mof_H 	H 	0.4154	0.4967	0.1917	0.077
Mof_O 	O 	0.9532	0.33608	0.1165	-0.893
Mof_H 	H 	0.973	0.346	0.191	0.192
Mof_O 	O 	0.9484	0.04646	0.1135	-0.916
Mof_H 	H 	0.933	0.052	0.183	0.231
Mof_O 	O 	0.04728	0.38334	0.9154	-0.85
Mof_H 	H 	0.0475	0.3822	0.8208	0.114
Mof_O 	O 	0.95361	0.19228	0.0908	-0.823
Mof_H 	H 	0.9509	0.191	0.1854	0.135
Mof_O 	O 	0.1879	0.52025	0.9213	-0.838
Mof_H 	H 	0.1905	0.5203	0.8267	0.114
Mof_O 	O 	0.05096	0.52386	0.9105	-0.839
Mof_H 	H 	0.0508	0.5244	0.8159	0.112
Mof_O 	O 	0.09272	0.18958	0.092	-0.841
Mof_H 	H 	0.0938	0.188	0.1865	0.135
Mof_O 	O 	0.24034	0.62191	0.0992	-0.835
Mof_H 	H 	0.2369	0.6204	0.1937	0.112
Mof_O 	O 	0.09451	0.32946	0.0938	-0.851
Mof_H 	H 	0.095	0.3296	0.1884	0.119
Mof_N 	N 	0.9942	0.0137	0.3597	-0.111
Mof_H 	H 	0.9476	0.9936	0.3829	-0.003
Mof_H 	H 	0.0157	0.0611	0.3771	-0.417
Mof_C 	C 	0.0273	0.9827	0.4339	-1.255
Mof_H 	H 	0.026	0.9428	0.3877	-0.481
Mof_H 	H 	0.077	0.0181	0.4515	0.19
Mof_N 	N 	0.2825	0.4419	0.6441	-0.351
Mof_H 	H 	0.3281	0.4681	0.6158	0.035
Mof_H 	H 	0.2603	0.4673	0.6275	0.033
Mof_C 	C 	0.2487	0.3789	0.5735	-0.022
Mof_H 	H 	0.2784	0.3566	0.5745	-0.038
Mof_H 	H 	0.2034	0.346	0.6148	-0.055
Mof_C 	C 	0.2342	0.3904	0.4323	-0.05
Mof_H 	H 	0.2067	0.415	0.4307	-0.037
Mof_H 	H 	0.2056	0.344	0.3908	-0.042
Mof_N 	N 	0.29927	0.43133	0.3625	-0.347
Mof_H 	H 	0.3201	0.4774	0.3891	0.035
Mof_H 	H 	0.3294	0.4149	0.3821	0.04
Mof_Zn	Zn	-0	5.73932e-33	0.83009	1.166
Mof_Zn	Zn	1.43483e-33	1.43483e-33	0.16991	1.166
_end
