data_functionalizedCrystal
_audit_creation_method	'EQeq! by Chris Wilmer'
_symmetry_space_group_name_H-M	'P1'
_symmetry_Int_Tables_number	1
_symmetry_cell_setting	triclinic
loop_
_symmetry_equiv_pos_as_xyz
  x,y,z
_cell_length_a	13.2793
_cell_length_b	15.4414
_cell_length_c	18.463
_cell_angle_alpha	105.483
_cell_angle_beta	90
_cell_angle_gamma	115.467
loop_
_atom_site_label
_atom_site_type_symbol
_atom_site_fract_x
_atom_site_fract_y
_atom_site_fract_z
_atom_site_charge
Mof_Co	Co	0.24305	0.5661	0.9643	1.156
Mof_Co	Co	0.67695	0.4339	0.5357	1.156
Mof_Co	Co	0.61416	-6.96362e-17	0.75	1.142
Mof_H 	H 	0.7452	0.2532	0.6411	0.047
Mof_H 	H 	0.0185	0.5166	0.7195	0.043
Mof_H 	H 	0.9536	0.3028	0.8201	0.042
Mof_H 	H 	0.0324	0.6134	0.025	0.021
Mof_H 	H 	0.029	0.7726	0.035	0.041
Mof_H 	H 	0.3291	0.7956	0.9928	-0.009
Mof_H 	H 	0.1403	0.9624	0.0885	0.079
Mof_H 	H 	0.3489	0.1856	0.0098	0.081
Mof_H 	H 	0.332	0.9106	0.931	0.095
Mof_H 	H 	0.4875	0.9802	0.8877	0.059
Mof_H 	H 	0.5602	0.2036	0.8061	0.024
Mof_H 	H 	0.4335	0.2142	0.8985	0.038
Mof_H 	H 	0.1326	0.0784	0.1791	0.111
Mof_H 	H 	0.1093	0.338	0.2278	0.142
Mof_H 	H 	0.2468	0.2564	0.0447	0.122
Mof_H 	H 	0.2276	0.5052	0.2193	0.045
Mof_H 	H 	0.2601	0.6228	0.1463	0.019
Mof_H 	H 	0.1997	0.3644	0.0028	-0.01
Mof_H 	H 	0.9582	0.0296	0.2475	-0.023
Mof_H 	H 	0.9441	0.0626	0.3869	0.032
Mof_H 	H 	0.1362	0.3164	0.3556	0.008
Mof_H 	H 	0.492	0.7468	0.8589	0.047
Mof_H 	H 	0.5019	0.4834	0.7805	0.039
Mof_H 	H 	0.6508	0.6972	0.6799	0.042
Mof_H 	H 	0.419	0.3866	0.475	0.021
Mof_H 	H 	0.2564	0.2274	0.465	0.034
Mof_H 	H 	0.5335	0.2044	0.5072	-0.011
Mof_H 	H 	0.1779	0.0376	0.4115	0.137
Mof_H 	H 	0.1633	0.8144	0.4902	0.138
Mof_H 	H 	0.4214	0.0894	0.569	0.163
Mof_H 	H 	0.5073	0.0198	0.6123	-0.055
Mof_H 	H 	0.3566	0.7964	0.6939	0.03
Mof_H 	H 	0.2193	0.7858	0.6015	0.032
Mof_H 	H 	0.0542	0.9216	0.3209	0.112
Mof_H 	H 	0.7713	0.662	0.2722	0.134
Mof_H 	H 	0.9904	0.7436	0.4553	0.101
Mof_H 	H 	0.7224	0.4948	0.2807	0.046
Mof_H 	H 	0.6373	0.3772	0.3537	0.018
Mof_H 	H 	0.8353	0.6356	0.4972	-0.009
Mof_H 	H 	0.9286	0.9704	0.2525	0.065
Mof_H 	H 	0.8815	0.9374	0.1131	0.044
Mof_H 	H 	0.8198	0.6836	0.1444	0.008
Mof_C 	C 	0.76367	0.15914	0.7364	0.325
Mof_C 	C 	0.83854	0.26128	0.7312	-0.111
Mof_C 	C 	0.80976	0.29532	0.6756	0.046
Mof_C 	C 	0.87564	0.39048	0.671	-0.11
Mof_C 	C 	0.83727	0.42794	0.6149	0.332
Mof_C 	C 	0.97284	0.45268	0.7227	0.043
Mof_C 	C 	0.00191	0.42062	0.7785	-0.109
Mof_C 	C 	0.93429	0.32478	0.7824	0.046
Mof_C 	C 	0.10316	0.48872	0.8359	0.331
Mof_C 	C 	0.09226	0.67052	0.0194	0.012
Mof_C 	C 	0.08968	0.75816	0.0252	0.011
Mof_C 	C 	0.25439	0.76938	0.0018	0.111
Mof_C 	C 	0.23356	0.92312	0.0128	0.129
Mof_C 	C 	0.19416	0.98592	0.0572	-0.085
Mof_C 	C 	0.23508	0.08456	0.0552	-0.01
Mof_C 	C 	0.31767	0.11874	0.0095	-0.114
Mof_C 	C 	0.35355	0.0537	0.9636	0.093
Mof_C 	C 	0.31015	0.9549	0.9635	-0.131
Mof_C 	C 	0.48972	0.03724	0.8783	0.016
Mof_C 	C 	0.52902	0.15904	0.8344	0.01
Mof_C 	C 	0.45926	0.16552	0.885	-0.006
Mof_C 	C 	0.19412	0.15404	0.1027	0.137
Mof_C 	C 	0.14438	0.13636	0.1669	-0.235
Mof_C 	C 	0.11256	0.20392	0.2122	0.216
Mof_C 	C 	0.13026	0.29212	0.1965	-0.267
Mof_C 	C 	0.18008	0.30936	0.1328	0.215
Mof_C 	C 	0.21231	0.24242	0.0869	-0.232
Mof_C 	C 	0.22544	0.49108	0.167	0.011
Mof_C 	C 	0.24335	0.5555	0.1261	0.006
Mof_C 	C 	0.21016	0.41452	0.0475	0.112
Mof_C 	C 	0.9932	0.0904	0.2857	0.022
Mof_C 	C 	0.9852	0.1104	0.3632	-0.013
Mof_C 	C 	0.0908	0.2478	0.3457	0.125
Mof_C 	C 	0.60453	0.84086	0.7636	0.32
Mof_C 	C 	0.57726	0.73872	0.7688	-0.108
Mof_C 	C 	0.51444	0.70468	0.8244	0.044
Mof_C 	C 	0.48516	0.60952	0.829	-0.111
Mof_C 	C 	0.40933	0.57206	0.8851	0.333
Mof_C 	C 	0.52016	0.54732	0.7773	0.047
Mof_C 	C 	0.58129	0.57938	0.7215	-0.112
Mof_C 	C 	0.60951	0.67522	0.7176	0.046
Mof_C 	C 	0.61444	0.51128	0.6641	0.333
Mof_C 	C 	0.42174	0.32948	0.4806	0.007
Mof_C 	C 	0.33152	0.24184	0.4748	0.017
Mof_C 	C 	0.48501	0.23062	0.4982	0.112
Mof_C 	C 	0.31044	0.07688	0.4872	0.26
Mof_C 	C 	0.20824	0.01408	0.4428	-0.323
Mof_C 	C 	0.15052	0.91544	0.4448	0.196
Mof_C 	C 	0.19893	0.88126	0.4905	-0.28
Mof_C 	C 	0.29985	0.9463	0.5364	0.298
Mof_C 	C 	0.35525	0.0451	0.5365	-0.369
Mof_C 	C 	0.45248	0.96276	0.6217	0.186
Mof_C 	C 	0.36998	0.84096	0.6656	0.006
Mof_C 	C 	0.29374	0.83448	0.615	0.011
Mof_C 	C 	0.04008	0.84596	0.3973	0.061
Mof_C 	C 	0.00802	0.86364	0.3331	-0.179
Mof_C 	C 	0.90864	0.79608	0.2878	0.193
Mof_C 	C 	0.83814	0.70788	0.3035	-0.242
Mof_C 	C 	0.87072	0.69064	0.3672	0.19
Mof_C 	C 	0.96989	0.75758	0.4131	-0.182
Mof_C 	C 	0.73436	0.50892	0.333	0.009
Mof_C 	C 	0.68785	0.4445	0.3739	0.007
Mof_C 	C 	0.79564	0.58548	0.4525	0.11
Mof_C 	C 	0.9028	0.9096	0.2143	-0.007
Mof_C 	C 	0.8748	0.8896	0.1368	0.02
Mof_C 	C 	0.843	0.7522	0.1543	0.125
Mof_N 	N 	0.19578	0.67756	0.004	-0.248
Mof_N 	N 	0.19374	0.82148	0.01394	-0.142
Mof_N 	N 	0.43312	0.08624	0.91329	-0.126
Mof_N 	N 	0.54842	0.07824	0.82965	-0.224
Mof_N 	N 	0.2033	0.4008	0.11584	-0.158
Mof_N 	N 	0.23359	0.50778	0.05089	-0.255
Mof_N 	N 	0.06812	0.18604	0.27978	-0.166
Mof_N 	N 	0.0454	0.2076	0.3981	-0.128
Mof_N 	N 	0.51822	0.32244	0.496	-0.248
Mof_N 	N 	0.37226	0.17852	0.48606	-0.167
Mof_N 	N 	0.34688	0.91376	0.58671	-0.18
Mof_N 	N 	0.47018	0.92176	0.67035	-0.237
Mof_N 	N 	0.8025	0.5992	0.38416	-0.154
Mof_N 	N 	0.72581	0.49222	0.44911	-0.256
Mof_N 	N 	0.88208	0.81396	0.22022	-0.156
Mof_N 	N 	0.8378	0.7924	0.1019	-0.132
Mof_O 	O 	0.11329	0.45898	0.89296	-0.435
Mof_O 	O 	0.1725	0.568	0.82789	-0.316
Mof_O 	O 	0.78898	0.12296	0.78214	-0.384
Mof_O 	O 	0.67153	0.10966	0.69406	-0.411
Mof_O 	O 	0.75427	0.36314	0.56519	-0.434
Mof_O 	O 	0.88029	0.51818	0.6208	-0.321
Mof_O 	O 	0.65431	0.54102	0.60704	-0.435
Mof_O 	O 	0.6045	0.432	0.67211	-0.318
Mof_O 	O 	0.66602	0.87704	0.71786	-0.362
Mof_O 	O 	0.56187	0.89034	0.80594	-0.387
Mof_O 	O 	0.39113	0.63686	0.93481	-0.435
Mof_O 	O 	0.36211	0.48182	0.8792	-0.321
Mof_Co	Co	0.75695	0.4339	0.0357	1.155
Mof_Co	Co	0.32305	0.5661	0.4643	1.155
Mof_Co	Co	0.38584	-1.74091e-17	0.25	1.141
Mof_H 	H 	0.2548	0.7468	0.3589	0.046
Mof_H 	H 	0.9815	0.4834	0.2805	0.033
Mof_H 	H 	0.0464	0.6972	0.1799	0.04
Mof_H 	H 	0.9676	0.3866	0.975	0.021
Mof_H 	H 	0.971	0.2274	0.965	0.033
Mof_H 	H 	0.6709	0.2044	0.0072	-0.01
Mof_H 	H 	0.8597	0.0376	0.9115	0.137
Mof_H 	H 	0.6511	0.8144	0.9902	0.138
Mof_H 	H 	0.668	0.0894	0.069	0.163
Mof_H 	H 	0.5125	0.0198	0.1123	-0.054
Mof_H 	H 	0.4398	0.7964	0.1939	0.03
Mof_H 	H 	0.5665	0.7858	0.1015	0.032
Mof_H 	H 	0.8674	0.9216	0.8209	0.112
Mof_H 	H 	0.8907	0.662	0.7722	0.134
Mof_H 	H 	0.7532	0.7436	0.9553	0.101
Mof_H 	H 	0.7724	0.4948	0.7807	0.046
Mof_H 	H 	0.7399	0.3772	0.8537	0.018
Mof_H 	H 	0.8003	0.6356	0.9972	-0.009
Mof_H 	H 	0.0418	0.9704	0.7525	0.064
Mof_H 	H 	0.0559	0.9374	0.6131	0.044
Mof_H 	H 	0.8638	0.6836	0.6444	0.008
Mof_H 	H 	0.508	0.2532	0.1411	0.045
Mof_H 	H 	0.4981	0.5166	0.2195	0.04
Mof_H 	H 	0.3492	0.3028	0.3201	0.04
Mof_H 	H 	0.581	0.6134	0.525	0.02
Mof_H 	H 	0.7436	0.7726	0.535	0.041
Mof_H 	H 	0.4665	0.7956	0.4928	-0.007
Mof_H 	H 	0.8221	0.9624	0.5885	0.077
Mof_H 	H 	0.8367	0.1856	0.5098	0.08
Mof_H 	H 	0.5786	0.9106	0.431	0.094
Mof_H 	H 	0.4927	0.9802	0.3877	0.06
Mof_H 	H 	0.6434	0.2036	0.3061	0.024
Mof_H 	H 	0.7807	0.2142	0.3985	0.038
Mof_H 	H 	0.9458	0.0784	0.6791	0.111
Mof_H 	H 	0.2287	0.338	0.7278	0.142
Mof_H 	H 	0.0096	0.2564	0.5447	0.121
Mof_H 	H 	0.2776	0.5052	0.7193	0.045
Mof_H 	H 	0.3627	0.6228	0.6463	0.018
Mof_H 	H 	0.1647	0.3644	0.5028	-0.01
Mof_H 	H 	0.0714	0.0296	0.7475	-0.022
Mof_H 	H 	0.1185	0.0626	0.8869	0.032
Mof_H 	H 	0.1802	0.3164	0.8556	0.008
Mof_C 	C 	0.23633	0.84086	0.2636	0.322
Mof_C 	C 	0.16146	0.73872	0.2688	-0.113
Mof_C 	C 	0.19024	0.70468	0.3244	0.05
Mof_C 	C 	0.12436	0.60952	0.329	-0.117
Mof_C 	C 	0.16273	0.57206	0.3851	0.335
Mof_C 	C 	0.02716	0.54732	0.2773	0.061
Mof_C 	C 	0.99809	0.57938	0.2215	-0.124
Mof_C 	C 	0.06571	0.67522	0.2176	0.056
Mof_C 	C 	0.89684	0.51128	0.1641	0.336
Mof_C 	C 	0.90774	0.32948	0.9806	0.007
Mof_C 	C 	0.91032	0.24184	0.9748	0.017
Mof_C 	C 	0.74561	0.23062	0.9982	0.111
Mof_C 	C 	0.76644	0.07688	0.9872	0.26
Mof_C 	C 	0.80584	0.01408	0.9428	-0.324
Mof_C 	C 	0.76492	0.91544	0.9448	0.196
Mof_C 	C 	0.68233	0.88126	0.9905	-0.281
Mof_C 	C 	0.64645	0.9463	0.0364	0.298
Mof_C 	C 	0.68985	0.0451	0.0365	-0.368
Mof_C 	C 	0.51028	0.96276	0.1217	0.185
Mof_C 	C 	0.47098	0.84096	0.1656	0.006
Mof_C 	C 	0.54074	0.83448	0.115	0.012
Mof_C 	C 	0.80588	0.84596	0.8973	0.059
Mof_C 	C 	0.85562	0.86364	0.8331	-0.181
Mof_C 	C 	0.88744	0.79608	0.7878	0.195
Mof_C 	C 	0.86974	0.70788	0.8035	-0.242
Mof_C 	C 	0.81992	0.69064	0.8672	0.19
Mof_C 	C 	0.78769	0.75758	0.9131	-0.179
Mof_C 	C 	0.77456	0.50892	0.833	0.009
Mof_C 	C 	0.75665	0.4445	0.8739	0.007
Mof_C 	C 	0.78984	0.58548	0.9525	0.11
Mof_C 	C 	0.0068	0.9096	0.7143	-0.006
Mof_C 	C 	0.0148	0.8896	0.6368	0.021
Mof_C 	C 	0.9092	0.7522	0.6543	0.126
Mof_C 	C 	0.39547	0.15914	0.2364	0.325
Mof_C 	C 	0.42274	0.26128	0.2312	-0.113
Mof_C 	C 	0.48556	0.29532	0.1756	0.048
Mof_C 	C 	0.51484	0.39048	0.171	-0.112
Mof_C 	C 	0.59067	0.42794	0.1149	0.333
Mof_C 	C 	0.47984	0.45268	0.2227	0.049
Mof_C 	C 	0.41871	0.42062	0.2785	-0.113
Mof_C 	C 	0.39049	0.32478	0.2824	0.049
Mof_C 	C 	0.38556	0.48872	0.3359	0.333
Mof_C 	C 	0.57826	0.67052	0.5194	0.012
Mof_C 	C 	0.66848	0.75816	0.5252	0.011
Mof_C 	C 	0.51499	0.76938	0.5018	0.108
Mof_C 	C 	0.68956	0.92312	0.5128	0.125
Mof_C 	C 	0.79176	0.98592	0.5572	-0.082
Mof_C 	C 	0.84948	0.08456	0.5552	-0.013
Mof_C 	C 	0.80107	0.11874	0.5095	-0.115
Mof_C 	C 	0.70015	0.0537	0.4636	0.092
Mof_C 	C 	0.64475	0.9549	0.4635	-0.127
Mof_C 	C 	0.54752	0.03724	0.3783	0.016
Mof_C 	C 	0.63002	0.15904	0.3344	0.01
Mof_C 	C 	0.70626	0.16552	0.385	-0.006
Mof_C 	C 	0.95992	0.15404	0.6027	0.136
Mof_C 	C 	0.99198	0.13636	0.6669	-0.237
Mof_C 	C 	0.09136	0.20392	0.7122	0.217
Mof_C 	C 	0.16186	0.29212	0.6965	-0.268
Mof_C 	C 	0.12928	0.30936	0.6328	0.214
Mof_C 	C 	0.03011	0.24242	0.5869	-0.23
Mof_C 	C 	0.26564	0.49108	0.667	0.011
Mof_C 	C 	0.31215	0.5555	0.6261	0.006
Mof_C 	C 	0.20436	0.41452	0.5475	0.111
Mof_C 	C 	0.0972	0.0904	0.7857	0.024
Mof_C 	C 	0.1252	0.1104	0.8632	-0.011
Mof_C 	C 	0.157	0.2478	0.8457	0.124
Mof_N 	N 	0.80422	0.32244	0.996	-0.248
Mof_N 	N 	0.80626	0.17852	0.98606	-0.167
Mof_N 	N 	0.56688	0.91376	0.08671	-0.18
Mof_N 	N 	0.45158	0.92176	0.17035	-0.237
Mof_N 	N 	0.7967	0.5992	0.88416	-0.153
Mof_N 	N 	0.76641	0.49222	0.94911	-0.256
Mof_N 	N 	0.93188	0.81396	0.72022	-0.156
Mof_N 	N 	0.9546	0.7924	0.6019	-0.132
Mof_N 	N 	0.48178	0.67756	0.504	-0.248
Mof_N 	N 	0.62774	0.82148	0.51394	-0.141
Mof_N 	N 	0.65312	0.08624	0.41329	-0.126
Mof_N 	N 	0.52982	0.07824	0.32965	-0.224
Mof_N 	N 	0.1975	0.4008	0.61584	-0.158
Mof_N 	N 	0.27419	0.50778	0.55089	-0.256
Mof_N 	N 	0.11792	0.18604	0.77978	-0.167
Mof_N 	N 	0.1622	0.2076	0.8981	-0.13
Mof_O 	O 	0.88671	0.54102	0.10704	-0.437
Mof_O 	O 	0.8275	0.432	0.17211	-0.319
Mof_O 	O 	0.21102	0.87704	0.21786	-0.362
Mof_O 	O 	0.32847	0.89034	0.30594	-0.388
Mof_O 	O 	0.24573	0.63686	0.43481	-0.435
Mof_O 	O 	0.11971	0.48182	0.3792	-0.321
Mof_O 	O 	0.34569	0.45898	0.39296	-0.435
Mof_O 	O 	0.3955	0.568	0.32789	-0.316
Mof_O 	O 	0.33398	0.12296	0.28214	-0.384
Mof_O 	O 	0.43813	0.10966	0.19406	-0.411
Mof_O 	O 	0.60887	0.36314	0.06519	-0.434
Mof_O 	O 	0.63789	0.51818	0.1208	-0.32
_end
