data_functionalizedCrystal
_audit_creation_method	'EQeq! by Chris Wilmer'
_symmetry_space_group_name_H-M	'P1'
_symmetry_Int_Tables_number	1
_symmetry_cell_setting	triclinic
loop_
_symmetry_equiv_pos_as_xyz
  x,y,z
_cell_length_a	7.2751
_cell_length_b	13.3023
_cell_length_c	30.7749
_cell_angle_alpha	88.2321
_cell_angle_beta	83.5221
_cell_angle_gamma	74.1302
loop_
_atom_site_label
_atom_site_type_symbol
_atom_site_fract_x
_atom_site_fract_y
_atom_site_fract_z
_atom_site_charge
Mof_Cd	Cd	0.15573	0.68854	0.25	0.481
Mof_Cd	Cd	0.84427	0.31146	0.75	0.494
Mof_H 	H 	0.8975	0.1976	0.1443	0.063
Mof_H 	H 	0.2038	0.0746	0.1456	0.061
Mof_H 	H 	0.6513	0.7824	0.0382	0.067
Mof_H 	H 	0.6228	0.715	0.9643	0.067
Mof_H 	H 	0.3173	0.8356	0.1444	0.109
Mof_H 	H 	0.5312	0.78	0.1958	0.053
Mof_H 	H 	0.9005	0.9162	0.1285	0.035
Mof_H 	H 	0.6945	0.9688	0.076	0.092
Mof_H 	H 	0.3885	0.214	0.1196	0.082
Mof_H 	H 	0.2109	0.3476	0.1664	0.034
Mof_H 	H 	0.6014	0.5082	0.1349	0.044
Mof_H 	H 	0.7789	0.3748	0.0881	0.089
Mof_H 	H 	0.9049	0.1976	0.3557	0.083
Mof_H 	H 	0.7216	0.0746	0.3544	0.048
Mof_H 	H 	0.5663	0.7824	0.4618	0.063
Mof_H 	H 	0.6622	0.715	0.5357	0.068
Mof_H 	H 	0.8471	0.8356	0.3556	0.115
Mof_H 	H 	0.6888	0.78	0.3042	0.057
Mof_H 	H 	0.1833	0.9162	0.3715	0.025
Mof_H 	H 	0.3367	0.9688	0.424	0.088
Mof_H 	H 	0.3975	0.214	0.3804	0.083
Mof_H 	H 	0.4415	0.3476	0.3336	0.036
Mof_H 	H 	0.8904	0.5082	0.3651	0.041
Mof_H 	H 	0.8463	0.3748	0.4119	0.084
Mof_H 	H 	0.1025	0.8024	0.8557	0.08
Mof_H 	H 	0.7962	0.9254	0.8544	0.065
Mof_H 	H 	0.3487	0.2176	0.9618	0.063
Mof_H 	H 	0.3772	0.285	0.0357	0.068
Mof_H 	H 	0.6827	0.1644	0.8556	0.114
Mof_H 	H 	0.4688	0.22	0.8042	0.051
Mof_H 	H 	0.0995	0.0838	0.8715	0.008
Mof_H 	H 	0.3055	0.0312	0.924	0.078
Mof_H 	H 	0.6115	0.786	0.8804	0.088
Mof_H 	H 	0.7891	0.6524	0.8336	0.045
Mof_H 	H 	0.3986	0.4918	0.8651	0.043
Mof_H 	H 	0.2211	0.6252	0.9119	0.081
Mof_H 	H 	0.0951	0.8024	0.6443	0.057
Mof_H 	H 	0.2784	0.9254	0.6456	0.083
Mof_H 	H 	0.4337	0.2176	0.5382	0.069
Mof_H 	H 	0.3378	0.285	0.4643	0.067
Mof_H 	H 	0.1529	0.1644	0.6444	0.106
Mof_H 	H 	0.3112	0.22	0.6958	0.046
Mof_H 	H 	0.8167	0.0838	0.6285	0.021
Mof_H 	H 	0.6633	0.0312	0.576	0.083
Mof_H 	H 	0.6025	0.786	0.6196	0.086
Mof_H 	H 	0.5585	0.6524	0.6664	0.042
Mof_H 	H 	0.1096	0.4918	0.6349	0.049
Mof_H 	H 	0.1537	0.6252	0.5881	0.086
Mof_Pd	Pd	-0	0	-0	0.449
Mof_Pd	Pd	1.50806e-17	0	0.5	0.457
Mof_C 	C 	0.8944	0.135	0.0816	0.122
Mof_C 	C 	0.9612	0.1496	0.1225	-0.062
Mof_C 	C 	0.127	0.082	0.1229	-0.099
Mof_C 	C 	0.1789	0.0188	0.0833	0.071
Mof_C 	C 	0.3433	0.941	0.0714	-0.095
Mof_C 	C 	0.3827	0.889	0.0332	0.103
Mof_C 	C 	0.5486	0.8068	0.0216	-0.091
Mof_C 	C 	0.5322	0.7676	0.9804	-0.078
Mof_C 	C 	0.3528	0.8242	0.9688	0.112
Mof_C 	C 	0.7197	0.1936	0.0688	-0.133
Mof_C 	C 	0.4819	0.9106	0.1054	0.116
Mof_C 	C 	0.4347	0.8518	0.1412	-0.147
Mof_C 	C 	0.5634	0.818	0.1716	0.061
Mof_C 	C 	0.7417	0.84	0.1666	-0.107
Mof_C 	C 	0.7845	0.8986	0.1313	0.065
Mof_C 	C 	0.6601	0.932	0.1003	-0.151
Mof_C 	C 	0.8838	0.7934	0.1987	0.335
Mof_C 	C 	0.6014	0.2812	0.0992	0.111
Mof_C 	C 	0.4311	0.273	0.1227	-0.145
Mof_C 	C 	0.3245	0.353	0.1507	0.041
Mof_C 	C 	0.3884	0.4412	0.1553	-0.081
Mof_C 	C 	0.5583	0.4494	0.1318	0.041
Mof_C 	C 	0.6654	0.3692	0.1038	-0.141
Mof_C 	C 	0.2856	0.5268	0.1891	0.308
Mof_C 	C 	0.9706	0.135	0.4184	0.143
Mof_C 	C 	0.8892	0.1496	0.3775	-0.114
Mof_C 	C 	0.791	0.082	0.3771	-0.046
Mof_C 	C 	0.8023	0.0188	0.4167	0.062
Mof_C 	C 	0.7157	0.941	0.4286	-0.088
Mof_C 	C 	0.7283	0.889	0.4668	0.105
Mof_C 	C 	0.6446	0.8068	0.4784	-0.079
Mof_C 	C 	0.7002	0.7676	0.5196	-0.088
Mof_C 	C 	0.823	0.8242	0.5312	0.112
Mof_C 	C 	0.0867	0.1936	0.4312	-0.154
Mof_C 	C 	0.6075	0.9106	0.3946	0.114
Mof_C 	C 	0.7135	0.8518	0.3588	-0.145
Mof_C 	C 	0.6186	0.818	0.3284	0.06
Mof_C 	C 	0.4183	0.84	0.3334	-0.105
Mof_C 	C 	0.3169	0.8986	0.3687	0.063
Mof_C 	C 	0.4079	0.932	0.3997	-0.151
Mof_C 	C 	0.3228	0.7934	0.3013	0.317
Mof_C 	C 	0.1174	0.2812	0.4008	0.096
Mof_C 	C 	0.2959	0.273	0.3773	-0.144
Mof_C 	C 	0.3225	0.353	0.3493	0.046
Mof_C 	C 	0.1704	0.4412	0.3447	-0.099
Mof_C 	C 	0.9923	0.4494	0.3682	0.06
Mof_C 	C 	0.9654	0.3692	0.3962	-0.125
Mof_C 	C 	0.1876	0.5268	0.3109	0.312
Mof_C 	C 	0.1056	0.865	0.9184	0.111
Mof_C 	C 	0.0388	0.8504	0.8775	-0.121
Mof_C 	C 	0.873	0.918	0.8771	-0.041
Mof_C 	C 	0.8211	0.9812	0.9167	0.14
Mof_C 	C 	0.6567	0.059	0.9286	-0.165
Mof_C 	C 	0.6173	0.111	0.9668	0.127
Mof_C 	C 	0.4514	0.1932	0.9784	-0.083
Mof_C 	C 	0.4678	0.2324	0.0196	-0.102
Mof_C 	C 	0.6472	0.1758	0.0312	0.116
Mof_C 	C 	0.2803	0.8064	0.9312	-0.123
Mof_C 	C 	0.5181	0.0894	0.8946	0.128
Mof_C 	C 	0.5653	0.1482	0.8588	-0.164
Mof_C 	C 	0.4366	0.182	0.8284	0.062
Mof_C 	C 	0.2583	0.16	0.8334	-0.111
Mof_C 	C 	0.2155	0.1014	0.8687	0.065
Mof_C 	C 	0.3399	0.068	0.8997	-0.171
Mof_C 	C 	0.1162	0.2066	0.8013	0.287
Mof_C 	C 	0.3986	0.7188	0.9008	0.107
Mof_C 	C 	0.5689	0.727	0.8773	-0.136
Mof_C 	C 	0.6755	0.647	0.8493	0.038
Mof_C 	C 	0.6116	0.5588	0.8447	-0.073
Mof_C 	C 	0.4417	0.5506	0.8682	0.036
Mof_C 	C 	0.3346	0.6308	0.8962	-0.136
Mof_C 	C 	0.7144	0.4732	0.8109	0.305
Mof_C 	C 	0.0294	0.865	0.5816	0.084
Mof_C 	C 	0.1108	0.8504	0.6225	-0.057
Mof_C 	C 	0.209	0.918	0.6229	-0.107
Mof_C 	C 	0.1977	0.9812	0.5833	0.155
Mof_C 	C 	0.2843	0.059	0.5714	-0.18
Mof_C 	C 	0.2717	0.111	0.5332	0.126
Mof_C 	C 	0.3554	0.1932	0.5216	-0.098
Mof_C 	C 	0.2998	0.2324	0.4804	-0.091
Mof_C 	C 	0.177	0.1758	0.4688	0.114
Mof_C 	C 	0.9133	0.8064	0.5688	-0.1
Mof_C 	C 	0.3925	0.0894	0.6054	0.132
Mof_C 	C 	0.2865	0.1482	0.6412	-0.168
Mof_C 	C 	0.3814	0.182	0.6716	0.065
Mof_C 	C 	0.5817	0.16	0.6666	-0.115
Mof_C 	C 	0.6831	0.1014	0.6313	0.07
Mof_C 	C 	0.5921	0.068	0.6003	-0.172
Mof_C 	C 	0.6772	0.2066	0.6987	0.316
Mof_C 	C 	0.8826	0.7188	0.5992	0.123
Mof_C 	C 	0.7041	0.727	0.6227	-0.135
Mof_C 	C 	0.6775	0.647	0.6507	0.03
Mof_C 	C 	0.8296	0.5588	0.6553	-0.046
Mof_C 	C 	0.0077	0.5506	0.6318	0.005
Mof_C 	C 	0.0346	0.6308	0.6038	-0.153
Mof_C 	C 	0.8124	0.4732	0.6891	0.299
Mof_N 	N 	0.0248	0.0568	0.0588	-0.202
Mof_N 	N 	0.2591	0.9008	0.9999	-0.178
Mof_N 	N 	0.9184	0.0568	0.4412	-0.188
Mof_N 	N 	0.8401	0.9008	0.5001	-0.175
Mof_N 	N 	0.9752	0.9432	0.9412	-0.171
Mof_N 	N 	0.7409	0.0992	0.0001	-0.197
Mof_N 	N 	0.0816	0.9432	0.5588	-0.188
Mof_N 	N 	0.1599	0.0992	0.4999	-0.203
Mof_O 	O 	0.4203	0.7338	0.2722	-0.25
Mof_O 	O 	0.042	0.8158	0.1941	-0.281
Mof_O 	O 	0.1299	0.5182	0.2027	-0.254
Mof_O 	O 	0.388	0.59	0.1934	-0.247
Mof_O 	O 	0.8459	0.7338	0.2278	-0.249
Mof_O 	O 	0.1422	0.8158	0.3059	-0.271
Mof_O 	O 	0.3519	0.5182	0.2973	-0.25
Mof_O 	O 	0.022	0.59	0.3066	-0.256
Mof_O 	O 	0.5797	0.2662	0.7278	-0.254
Mof_O 	O 	0.958	0.1842	0.8059	-0.248
Mof_O 	O 	0.8701	0.4818	0.7973	-0.239
Mof_O 	O 	0.612	0.41	0.8066	-0.247
Mof_O 	O 	0.1541	0.2662	0.7722	-0.256
Mof_O 	O 	0.8578	0.1842	0.6941	-0.265
Mof_O 	O 	0.6481	0.4818	0.7027	-0.246
Mof_O 	O 	0.978	0.41	0.6934	-0.233
_end
