# CIF file generated by openbabel 3.1.0, see https://openbabel.org
data_I
_chemical_name_common 'NEDVUP_clean'
_cell_length_a 12.6583
_cell_length_b 15.5409
_cell_length_c 16.4094
_cell_angle_alpha 108.446
_cell_angle_beta 98.651
_cell_angle_gamma 109.526
_space_group_name_H-M_alt 'P 1'
_space_group_name_Hall 'P 1'
loop_
    _symmetry_equiv_pos_as_xyz
    x,y,z
loop_
    _atom_site_label
    _atom_site_type_symbol
    _atom_site_fract_x
    _atom_site_fract_y
    _atom_site_fract_z
    _atom_site_occupancy
    Mn1      Mn       0.50000    0.50000    0.50000    1.000
    Cu1      Cu       0.80860    0.62928    0.57839    1.000
    Cu2      Cu       0.19140    0.37072    0.42161    1.000
    Cu3      Cu       0.00000    0.50000    0.50000    1.000
    H1       H        0.24850    0.60770    0.91080    1.000
    H2       H        0.54930    0.79820    0.02720    1.000
    H3       H        0.66830    0.88330    0.09970    1.000
    H4       H        0.81440    0.86480    0.81340    1.000
    H5       H        0.59200    0.05510    0.13530    1.000
    H6       H        0.67300    0.03200    0.20340    1.000
    H7       H        0.46850    0.77890    0.14710    1.000
    H8       H        0.45340    0.86910    0.21850    1.000
    H9       H        0.82960    0.81360    0.42630    1.000
    H10      H        0.79780    0.90270    0.34010    1.000
    H11      H        0.22040    0.86860    0.95220    1.000
    H12      H        0.78630    0.95110    0.94430    1.000
    H13      H        0.11390    0.53350    0.77100    1.000
    H14      H        0.41600    0.91960    0.02010    1.000
    H15      H        0.36180    0.91570    0.10190    1.000
    H16      H        0.46200    0.75240    0.87490    1.000
    H17      H        0.48650    0.66850    0.74000    1.000
    H18      H        0.78110    0.36320    0.34800    1.000
    H19      H        0.46600    0.11770    0.37110    1.000
    H20      H        0.53870    0.28410    0.47390    1.000
    H21      H        0.48500    0.64740    0.34580    1.000
    H22      H        0.71180    0.20340    0.24560    1.000
    H23      H        0.45410    0.73280    0.25750    1.000
    H24      H        0.06270    0.77880    0.80580    1.000
    H25      H        0.75150    0.39230    0.08920    1.000
    H26      H        0.45070    0.20180    0.97280    1.000
    H27      H        0.33170    0.11670    0.90030    1.000
    H28      H        0.18560    0.13520    0.18660    1.000
    H29      H        0.40800    0.94490    0.86470    1.000
    H30      H        0.32700    0.96800    0.79660    1.000
    H31      H        0.53150    0.22110    0.85290    1.000
    H32      H        0.54660    0.13090    0.78150    1.000
    H33      H        0.17040    0.18640    0.57370    1.000
    H34      H        0.20220    0.09730    0.65990    1.000
    H35      H        0.77960    0.13140    0.04780    1.000
    H36      H        0.21370    0.04890    0.05570    1.000
    H37      H        0.88610    0.46650    0.22900    1.000
    H38      H        0.58400    0.08040    0.97990    1.000
    H39      H        0.63820    0.08430    0.89810    1.000
    H40      H        0.53800    0.24760    0.12510    1.000
    H41      H        0.51350    0.33150    0.26000    1.000
    H42      H        0.21890    0.63680    0.65200    1.000
    H43      H        0.53400    0.88230    0.62890    1.000
    H44      H        0.46130    0.71590    0.52610    1.000
    H45      H        0.51500    0.35260    0.65420    1.000
    H46      H        0.28820    0.79660    0.75440    1.000
    H47      H        0.54590    0.26720    0.74250    1.000
    H48      H        0.93730    0.22120    0.19420    1.000
    C1       C        0.21570    0.64580    0.88910    1.000
    C2       C        0.66750    0.69360    0.67980    1.000
    C3       C        0.98570    0.60710    0.68300    1.000
    C4       C        0.65270    0.75380    0.76550    1.000
    C5       C        0.52230    0.90770    0.12030    1.000
    C6       C        0.59180    0.87080    0.06160    1.000
    C7       C        0.74130    0.84040    0.82530    1.000
    C8       C        0.59120    0.01800    0.17450    1.000
    C9       C        0.50510    0.85140    0.18280    1.000
    C10      C        0.71140    0.44420    0.48560    1.000
    C11      C        0.75270    0.79600    0.39170    1.000
    C12      C        0.73340    0.84880    0.33960    1.000
    C13      C        0.25200    0.74510    0.94040    1.000
    C14      C        0.19910    0.80070    0.91590    1.000
    C15      C        0.62500    0.82420    0.28870    1.000
    C16      C        0.72330    0.89160    0.90270    1.000
    C17      C        0.13380    0.60090    0.80780    1.000
    C18      C        0.40560    0.88790    0.06370    1.000
    C19      C        0.53470    0.77710    0.86270    1.000
    C20      C        0.55070    0.72580    0.78340    1.000
    C21      C        0.71670    0.31450    0.35390    1.000
    C22      C        0.66030    0.71910    0.39250    1.000
    C23      C        0.08380    0.65060    0.78180    1.000
    C24      C        0.62280    0.86330    0.92340    1.000
    C25      C        0.67710    0.66120    0.44660    1.000
    C26      C        0.67230    0.34530    0.42200    1.000
    C27      C        0.53030    0.16730    0.36620    1.000
    C28      C        0.57420    0.26740    0.42760    1.000
    C29      C        0.58370    0.14210    0.29720    1.000
    C30      C        0.55030    0.69850    0.34360    1.000
    C31      C        0.67620    0.21820    0.29220    1.000
    C32      C        0.53110    0.74940    0.29120    1.000
    C33      C        0.10520    0.74690    0.82800    1.000
    C34      C        0.78430    0.35420    0.11090    1.000
    C35      C        0.33250    0.30640    0.32020    1.000
    C36      C        0.01430    0.39290    0.31700    1.000
    C37      C        0.34730    0.24620    0.23450    1.000
    C38      C        0.47770    0.09230    0.87970    1.000
    C39      C        0.40820    0.12920    0.93840    1.000
    C40      C        0.25870    0.15960    0.17470    1.000
    C41      C        0.40880    0.98200    0.82550    1.000
    C42      C        0.49490    0.14860    0.81720    1.000
    C43      C        0.28860    0.55580    0.51440    1.000
    C44      C        0.24730    0.20400    0.60830    1.000
    C45      C        0.26660    0.15120    0.66040    1.000
    C46      C        0.74800    0.25490    0.05960    1.000
    C47      C        0.80090    0.19930    0.08410    1.000
    C48      C        0.37500    0.17580    0.71130    1.000
    C49      C        0.27670    0.10840    0.09730    1.000
    C50      C        0.86620    0.39910    0.19220    1.000
    C51      C        0.59440    0.11210    0.93630    1.000
    C52      C        0.46530    0.22290    0.13730    1.000
    C53      C        0.44930    0.27420    0.21660    1.000
    C54      C        0.28330    0.68550    0.64610    1.000
    C55      C        0.33970    0.28090    0.60750    1.000
    C56      C        0.91620    0.34940    0.21820    1.000
    C57      C        0.37720    0.13670    0.07660    1.000
    C58      C        0.32290    0.33880    0.55340    1.000
    C59      C        0.32770    0.65470    0.57800    1.000
    C60      C        0.46970    0.83270    0.63380    1.000
    C61      C        0.42580    0.73260    0.57240    1.000
    C62      C        0.41630    0.85790    0.70280    1.000
    C63      C        0.44970    0.30150    0.65640    1.000
    C64      C        0.32380    0.78180    0.70780    1.000
    C65      C        0.46890    0.25060    0.70880    1.000
    C66      C        0.89480    0.25310    0.17200    1.000
    O1       O        0.65100    0.46580    0.53640    1.000
    O2       O        0.34280    0.78330    0.01770    1.000
    O3       O        0.92460    0.64090    0.67590    1.000
    O4       O        0.57640    0.62010    0.62600    1.000
    O5       O        0.76880    0.71610    0.67000    1.000
    O6       O        0.59000    0.58740    0.43710    1.000
    O7       O        0.00710    0.53130    0.62710    1.000
    O8       O        0.77800    0.68770    0.49490    1.000
    O9       O        0.61720    0.87900    0.24040    1.000
    O10      O        0.53490    0.04680    0.24070    1.000
    O11      O        0.80520    0.50640    0.48620    1.000
    O12      O        0.61050    0.91940    0.00100    1.000
    O13      O        0.34900    0.53420    0.46360    1.000
    O14      O        0.65720    0.21670    0.98230    1.000
    O15      O        0.07540    0.35910    0.32410    1.000
    O16      O        0.42360    0.37990    0.37400    1.000
    O17      O        0.23120    0.28390    0.33000    1.000
    O18      O        0.41000    0.41260    0.56290    1.000
    O19      O        0.99290    0.46870    0.37290    1.000
    O20      O        0.22200    0.31230    0.50510    1.000
    O21      O        0.38280    0.12100    0.75960    1.000
    O22      O        0.46510    0.95320    0.75930    1.000
    O23      O        0.19480    0.49360    0.51380    1.000
    O24      O        0.38950    0.08060    0.99900    1.000
