data_functionalizedCrystal
_audit_creation_method	'EQeq! by Chris Wilmer'
_symmetry_space_group_name_H-M	'P1'
_symmetry_Int_Tables_number	1
_symmetry_cell_setting	triclinic
loop_
_symmetry_equiv_pos_as_xyz
  x,y,z
_cell_length_a	31.87
_cell_length_b	31.9242
_cell_length_c	31.9242
_cell_angle_alpha	70.4944
_cell_angle_beta	70.5632
_cell_angle_gamma	109.437
loop_
_atom_site_label
_atom_site_type_symbol
_atom_site_fract_x
_atom_site_fract_y
_atom_site_fract_z
_atom_site_charge
Mof_Zn	Zn	0.11628	0.05866	0.50015	1.2
Mof_Zn	Zn	0.10629	0.55934	0.98703	1.233
Mof_Zn	Zn	0.62661	0.02318	0.93031	1.226
Mof_Zn	Zn	0.05762	0.44119	0.05866	1.198
Mof_Zn	Zn	0.66292	0.47718	0.51292	1.222
Mof_Zn	Zn	0.09332	0.98703	0.45363	1.233
Mof_Zn	Zn	0.54695	0.45363	0.55934	1.221
Mof_Zn	Zn	0.55692	0.93031	0.04651	1.234
Mof_Zn	Zn	0.12942	0.49018	0.94057	1.252
Mof_Zn	Zn	0.17584	0.51292	0.0099	1.206
Mof_Zn	Zn	0.67497	0	-0	1.203
Mof_Zn	Zn	0.06999	0.94057	0.56925	1.251
Mof_Zn	Zn	0.18574	0.0099	0.47718	1.206
Mof_Zn	Zn	0.61643	0.50015	0.44119	1.208
Mof_Zn	Zn	0.63924	0.56925	0.49018	1.25
Mof_Zn	Zn	0.60343	0.04651	0.02318	1.213
Mof_H 	H 	0.314	0.1309	0.4411	0.021
Mof_H 	H 	0.2192	0.9167	0.5425	-0.109
Mof_H 	H 	0.9069	0.1077	0.7988	0.077
Mof_H 	H 	0.4214	0.3553	0.5658	0.017
Mof_H 	H 	0.7775	0.6726	0.4723	-0.053
Mof_H 	H 	0.0854	0.6423	0.8656	0.026
Mof_H 	H 	0.2051	0.6776	0.8539	0.006
Mof_H 	H 	0.2619	0.9739	0.2089	-0.455
Mof_H 	H 	0.782	0.0247	0.9724	-0.925
Mof_H 	H 	0.706	0.3894	0.3214	0.064
Mof_H 	H 	0.8204	0.1546	0.1355	0.035
Mof_H 	H 	0.3429	0.8484	0.2545	0.094
Mof_H 	H 	0.5483	0.1254	0.8303	-0.825
Mof_H 	H 	0.2583	0.3291	0.4646	0.086
Mof_H 	H 	0.4459	0.7847	0.9676	0.127
Mof_H 	H 	0.3807	0.2017	0.4309	0.067
Mof_H 	H 	0.3429	0.3066	0.5624	0.082
Mof_H 	H 	0.8304	0.2728	0.2483	0.012
Mof_H 	H 	0.9586	0.799	0.6085	0.029
Mof_H 	H 	0.4834	0.0149	0.1579	-0.046
Mof_H 	H 	0.4685	0.8272	0.0149	-0.036
Mof_H 	H 	0.6192	0.4796	0.3653	0.262
Mof_H 	H 	0.059	0.8539	0.4685	0.009
Mof_H 	H 	0.2944	0.9628	0.1336	-0.44
Mof_H 	H 	0.9877	0.2076	0.3394	0.038
Mof_H 	H 	0.2304	0.1933	0.5589	0.097
Mof_H 	H 	0.4838	0.9983	0.9747	-3.564
Mof_H 	H 	0.8287	0.6669	0.6294	0.021
Mof_H 	H 	0.8838	0.7205	0.6545	0.081
Mof_H 	H 	0.6413	0.1579	0.8272	0.062
Mof_H 	H 	0.2005	0.6831	0.9601	1.115
Mof_H 	H 	0.9559	0.1355	0.7099	0.039
Mof_H 	H 	0.4135	0.9676	0.2477	0.128
Mof_H 	H 	0.1831	0.428	0.1309	0.021
Mof_H 	H 	0.7089	0.5481	0.2994	0.029
Mof_H 	H 	0.2684	0.8901	0.5729	0.185
Mof_H 	H 	0.5003	0.3247	0.4243	0.09
Mof_H 	H 	0.9872	0.5658	0.0789	0.013
Mof_H 	H 	0.0416	0.135	0.4501	0.015
Mof_H 	H 	0.7551	0.4411	0.428	0.027
Mof_H 	H 	0.7212	0.6977	0.2139	0.073
Mof_H 	H 	0.6763	0.3817	0.6904	0.073
Mof_H 	H 	0.9246	0.4243	0.251	0.092
Mof_H 	H 	0.1049	0.8551	0.6726	-0.048
Mof_H 	H 	0.2056	0.8273	0.3603	0.071
Mof_H 	H 	0.8672	0.1727	0.9416	-0.178
Mof_H 	H 	0.9229	0.9369	0.7745	0.078
Mof_H 	H 	0.4229	0.0443	0.1254	-0.822
Mof_H 	H 	0.285	0.8497	0.3053	0.018
Mof_H 	H 	0.4917	0.4501	0.4149	0.019
Mof_H 	H 	0.249	0.649	0.8688	0.249
Mof_H 	H 	0.2498	0.4723	0.8551	-0.05
Mof_H 	H 	0.4667	0.0424	0.0566	1.73
Mof_H 	H 	0.7801	0.453	0.2076	0.031
Mof_H 	H 	0.0274	0.3214	0.2892	0.064
Mof_H 	H 	0.7696	0.9489	0.9572	0.531
Mof_H 	H 	0.1596	0.5925	0.799	0.026
Mof_H 	H 	0.9825	0.8104	0.4643	0.076
Mof_H 	H 	0.3362	0.7737	0.7931	0.022
Mof_H 	H 	0.0822	0.6803	0.7911	0.085
Mof_H 	H 	0.3025	0.5408	0.9167	-0.109
Mof_H 	H 	0.8116	0.4309	0.3674	0.07
Mof_H 	H 	0.7992	0.0935	0.1077	0.071
Mof_H 	H 	0.0787	0.2483	0.4789	0.015
Mof_H 	H 	0.1805	0.2901	0.4625	0.008
Mof_H 	H 	0.1615	0.7288	0.6164	0.085
Mof_H 	H 	0.5223	0.9539	0.8884	0.064
Mof_H 	H 	0.7726	0.3648	0.2986	0.029
Mof_H 	H 	0.4353	0.845	0.8497	0.022
Mof_H 	H 	0.5383	0.6545	0.625	0.081
Mof_H 	H 	0.9462	0.0364	0.8641	-0.168
Mof_H 	H 	0.4855	0.027	0.9983	-3.604
Mof_H 	H 	0.825	0.0797	0.8737	0.039
Mof_H 	H 	0.5174	0.3568	0.6831	1.275
Mof_H 	H 	0.3827	0.9777	0.9634	1.137
Mof_H 	H 	0.5903	0.3053	0.845	0.002
Mof_H 	H 	0.288	0.8172	0.9739	-0.471
Mof_H 	H 	0.9351	0.2139	0.0884	0.071
Mof_H 	H 	0.1667	0.7567	0.5414	0.016
Mof_H 	H 	0.9053	0.5624	0.131	0.079
Mof_H 	H 	0.4107	0.8884	0.1577	0.051
Mof_H 	H 	0.8981	0.0336	0.9447	0.537
Mof_H 	H 	0.951	0.8656	0.4921	0.027
Mof_H 	H 	0.008	0.1795	0.4079	0.08
Mof_H 	H 	0.5576	0.4789	0.2728	0.014
Mof_H 	H 	0.6479	0.6361	0.1705	0.077
Mof_H 	H 	0.4327	0.6548	0.7288	0.086
Mof_H 	H 	0.2468	0.8513	0.6811	0.072
Mof_H 	H 	0.7573	0.0029	0.0247	-0.975
Mof_H 	H 	0.8645	0.0217	0.0336	0.493
Mof_H 	H 	0.6612	0.2477	0.7847	0.073
Mof_H 	H 	0.8184	0.1705	0.1934	0.075
Mof_H 	H 	0.3667	0.6904	0.9279	0.084
Mof_H 	H 	0.7469	0.0475	0.8034	0.016
Mof_H 	H 	0.6548	0.5618	0.2126	0.017
Mof_H 	H 	0.5671	0.6085	0.5925	0.026
Mof_H 	H 	0.061	0.7243	0.5249	0.019
Mof_H 	H 	0.328	0.4629	0.8211	0.133
Mof_H 	H 	0.4581	0.6294	0.7037	0.022
Mof_H 	H 	0.41	0.7019	0.7567	0.018
Mof_H 	H 	0.4243	0.901	0.0424	1.774
Mof_H 	H 	0.1653	0.2018	0.4072	0.007
Mof_H 	H 	0.8103	0.8641	0.0995	-0.167
Mof_H 	H 	0.1618	0.7037	0.6669	0.021
Mof_H 	H 	0.5503	0.8034	0.1491	0.024
Mof_H 	H 	0.508	0.5221	0.7993	0.085
Mof_H 	H 	0.5659	0.3603	0.8124	0.075
Mof_H 	H 	0.0297	0.365	0.2104	0.025
Mof_H 	H 	0.1396	0.1551	0.4796	0.262
Mof_H 	H 	0.0815	0.2968	0.3975	0.078
Mof_H 	H 	0.7453	0.0466	0.0797	0.027
Mof_H 	H 	0.057	0.7637	0.6708	0.08
Mof_H 	H 	0.5625	0.4332	0.7737	0.022
Mof_H 	H 	0.4708	0.2089	0.8172	-0.552
Mof_H 	H 	0.9843	0.2908	0.084	0.029
Mof_H 	H 	0.1491	0.8211	0.716	0.136
Mof_H 	H 	0.558	0.6125	0.3098	0.088
Mof_H 	H 	0.986	0.2886	0.9369	0.069
Mof_H 	H 	0.261	0.6344	0.0332	0.66
Mof_H 	H 	0.405	0.0589	0.9777	1.135
Mof_H 	H 	0.428	0.1336	0.9036	-0.427
Mof_H 	H 	0.8088	0.9416	0.8857	-0.182
Mof_H 	H 	0.1756	0.251	0.3247	0.088
Mof_H 	H 	0.8651	0.716	0.4629	0.135
Mof_H 	H 	0.4159	0.4079	0.4126	0.08
Mof_H 	H 	0.1721	0.7253	0.8104	0.08
Mof_H 	H 	0.1608	0.1525	0.5481	0.027
Mof_H 	H 	0.5721	0.5446	0.3469	0.046
Mof_H 	H 	0.3073	0.7993	0.6786	0.085
Mof_H 	H 	0.557	0.7283	0.1859	0.081
Mof_H 	H 	0.0118	0.1934	0.6361	0.081
Mof_H 	H 	0.0683	0.084	0.6252	0.029
Mof_H 	H 	0.8285	0.4126	0.1795	0.078
Mof_H 	H 	0.643	0.4625	0.2474	0.006
Mof_H 	H 	0.6974	0.7745	0.2886	0.082
Mof_H 	H 	0.8287	0.0858	0.7283	0.078
Mof_H 	H 	0.8904	0.2474	0.2901	0.001
Mof_H 	H 	0.6994	0.1491	0.0475	0.012
Mof_H 	H 	0.8207	0.0939	0.9489	0.501
Mof_H 	H 	0.5859	0.5249	0.7508	0.019
Mof_H 	H 	0.8678	0.3098	0.0777	0.079
Mof_H 	H 	0.2178	0.8945	0.4569	0.036
Mof_H 	H 	0.9845	0.3653	0.1551	0.265
Mof_H 	H 	0.3783	0.537	0.8901	0.185
Mof_H 	H 	0.7617	0.5425	0.5408	-0.119
Mof_H 	H 	0.8674	0.2126	0.2256	0.016
Mof_H 	H 	0.2942	0.0332	0.3324	0.631
Mof_H 	H 	0.6699	0.7006	0.3665	0.032
Mof_H 	H 	0.6987	0.8737	0.0466	0.033
Mof_H 	H 	0.3783	0.8124	0.8273	0.077
Mof_H 	H 	0.179	0.3674	0.2017	0.066
Mof_H 	H 	0.9066	0.4149	0.135	0.018
Mof_H 	H 	0.7779	0.6164	0.6548	0.086
Mof_H 	H 	0.0371	0.2478	0.1933	0.105
Mof_H 	H 	0.3955	0.4676	0.8513	0.07
Mof_H 	H 	0.65	0.589	0.6133	0.053
Mof_H 	H 	0.0363	0.131	0.3066	0.077
Mof_H 	H 	0.6747	0.4569	0.6486	0.031
Mof_H 	H 	0.6266	0.3324	0.6344	0.754
Mof_H 	H 	0.6647	0.4246	0.365	0.027
Mof_H 	H 	0.3233	0.6486	0.8945	0.035
Mof_H 	H 	0.2933	0.5655	0.7637	0.078
Mof_H 	H 	0.1633	0.625	0.7205	0.079
Mof_H 	H 	0.4431	0.4921	0.6423	0.018
Mof_H 	H 	0.3367	0.7508	0.7243	0.018
Mof_H 	H 	0.0712	0.2986	0.3366	0.029
Mof_H 	H 	0.1293	0.7931	0.4332	0.019
Mof_H 	H 	0.5684	0.1577	0.9539	0.088
Mof_H 	H 	0.7278	0.6708	0.5655	0.08
Mof_H 	H 	0.7081	0.5414	0.7019	0.018
Mof_H 	H 	0.9292	0.2063	0.3291	0.09
Mof_H 	H 	0.749	0.7934	0.1617	0.047
Mof_H 	H 	0.7893	0.5589	0.2478	0.099
Mof_H 	H 	0.1917	0.959	0.2783	-0.799
Mof_H 	H 	0.6	0.4822	0.649	0.248
Mof_H 	H 	0.5233	0.0566	0.901	1.77
Mof_H 	H 	0.8733	0.7911	0.5286	0.084
Mof_H 	H 	0.2401	0.2104	0.4246	0.026
Mof_H 	H 	0.7429	0.1859	0.0858	0.076
Mof_H 	H 	0.7847	0.3057	0.2968	0.077
Mof_H 	H 	0.093	0.2256	0.5618	0.019
Mof_H 	H 	0.9279	0.6811	0.4676	0.067
Mof_H 	H 	0.0661	0.0789	0.3553	0.006
Mof_H 	H 	0.7268	0.9572	0.0939	0.507
Mof_H 	H 	0.8413	0.5729	0.537	0.181
Mof_H 	H 	0.9556	0.0449	0.7934	0.061
Mof_H 	H 	0.3786	0.8303	0.0443	-0.832
Mof_H 	H 	0.1606	0.9601	0.3568	1.066
Mof_H 	H 	0.9693	0.9329	0.7006	0.027
Mof_H 	H 	0.3166	0.2892	0.3894	0.065
Mof_H 	H 	0.6945	0.8857	0.1727	-0.182
Mof_H 	H 	0.2974	0.7192	0.034	-0.575
Mof_H 	H 	0.9098	0.0995	0.0364	-0.168
Mof_H 	H 	0.8428	0.9447	0.0217	0.484
Mof_H 	H 	0.061	0.7977	0.589	0.052
Mof_H 	H 	0.0275	0.1085	0.5446	0.045
Mof_H 	H 	0.9635	0.391	0.2018	0.008
Mof_H 	H 	0.0364	0.3665	0.9329	0.026
Mof_H 	H 	0.479	0.3975	0.3057	0.076
Mof_H 	H 	0.4468	0.4643	0.7253	0.077
Mof_H 	H 	0.4945	0.8971	0.8484	0.1
Mof_H 	H 	0.3316	0.9036	0.9628	-0.437
Mof_H 	H 	0.0235	0.0884	0.6977	0.076
Mof_H 	H 	0.9455	0.0777	0.6125	0.079
Mof_H 	H 	0.9859	0.6786	0.5221	0.079
Mof_H 	H 	0.6935	0.6252	0.2908	0.034
Mof_H 	H 	0.919	0.3469	0.1085	0.044
Mof_H 	H 	0.5782	0.2468	0.7192	-0.694
Mof_H 	H 	0.4019	0.5286	0.6803	0.083
Mof_H 	H 	0.5275	0.4685	0.6776	0.003
Mof_H 	H 	0.5725	0.4072	0.391	0.008
Mof_H 	H 	0.7229	0.4646	0.2063	0.083
Mof_H 	H 	0.1178	0.8688	0.4822	0.248
Mof_H 	H 	0.6658	0.7099	0.1546	0.036
Mof_H 	H 	0.3271	0.3394	0.453	0.032
Mof_H 	H 	0.3461	0.9634	0.0589	1.091
Mof_H 	H 	0.0083	0.2994	0.1525	0.011
Mof_H 	H 	0.2633	0.6133	0.7977	0.053
Mof_H 	H 	0.9107	0.1617	0.0449	0.055
Mof_H 	H 	0.47	0.2783	0.7627	-0.992
Mof_H 	H 	0.3314	0.034	0.2468	-0.548
Mof_H 	H 	0.7057	0.7988	0.0935	0.073
Mof_H 	H 	0.7544	0.9724	0.0029	-0.931
Mof_H 	H 	0.5974	0.2545	0.8971	0.072
Mof_H 	H 	0.2327	0.7627	0.959	-0.834
Mof_H 	H 	0.2946	0.9279	0.3817	0.083
Mof_H 	H 	0.4078	0.3366	0.3648	0.029
Mof_H 	H 	0.4585	0.9747	0.027	-3.61
Mof_C 	C 	0.46332	0.52444	0.63798	0.061
Mof_C 	C 	0.6984	0.7452	0.2881	-0.109
Mof_C 	C 	0.61774	0.49944	0.68502	0.312
Mof_C 	C 	0.03984	0.05333	0.65501	0.079
Mof_C 	C 	0.83813	0.05071	0.99472	1.847
Mof_C 	C 	0.8602	0.6448	0.5009	0.287
Mof_C 	C 	0.43837	0.5473	0.66129	-0.13
Mof_C 	C 	0.31596	0.25748	0.4022	-0.109
Mof_C 	C 	0.89707	0.31079	0.12678	0.051
Mof_C 	C 	0.2927	0.7908	0.9931	1.825
Mof_C 	C 	0.2667	0.7461	0.9958	-2.487
Mof_C 	C 	0.082	0.7833	0.5935	0.028
Mof_C 	C 	0.87579	0.09735	0.79778	-0.135
Mof_C 	C 	0.4205	0.3666	0.5348	0.065
Mof_C 	C 	0.01613	0.33486	0.96447	0.076
Mof_C 	C 	0.60344	0.63051	0.23649	0.134
Mof_C 	C 	0.38327	0.67414	0.75993	0.051
Mof_C 	C 	0.27047	0.20983	0.42202	0.045
Mof_C 	C 	0.06064	0.36815	0.20983	0.046
Mof_C 	C 	0.8285	0.0824	0.7591	-0.128
Mof_C 	C 	0.17886	0.18878	0.5323	0.068
Mof_C 	C 	0.5876	0.7591	0.1585	-0.125
Mof_C 	C 	0.2772	0.4851	0.8613	0.289
Mof_C 	C 	0.8311	0.5963	0.5226	-0.457
Mof_C 	C 	0.22164	0.21338	0.53776	-0.181
Mof_C 	C 	0.36177	0.98027	0.07346	-2.721
Mof_C 	C 	0.92926	0.31218	0.1879	0.344
Mof_C 	C 	0.97793	0.7395	0.49351	0.101
Mof_C 	C 	0.12116	0.22068	0.4502	-0.132
Mof_C 	C 	0.5816	0.8032	0.1357	0.053
Mof_C 	C 	0.1333	0.6928	0.6983	0.024
Mof_C 	C 	0.7594	0.53776	0.24886	-0.181
Mof_C 	C 	0.6755	0.5935	0.6232	0.029
Mof_C 	C 	0.5933	0.3997	0.6102	-0.544
Mof_C 	C 	0.14242	0.61181	0.79785	0.08
Mof_C 	C 	0.41524	0.39611	0.44449	-0.15
Mof_C 	C 	0.84442	0.67971	0.47935	-0.286
Mof_C 	C 	0.30276	0.68502	0.81554	0.313
Mof_C 	C 	0.6531	0.39	0.7086	-0.115
Mof_C 	C 	0.27609	0.71096	0.79099	-0.107
Mof_C 	C 	0.06708	0.79099	0.49805	-0.1
Mof_C 	C 	0.1513	0.4033	0.1617	0.034
Mof_C 	C 	0.12038	0.65853	0.74899	0.08
Mof_C 	C 	0.47144	0.49351	0.76699	0.108
Mof_C 	C 	0.3358	0.6846	0.8804	0.037
Mof_C 	C 	0.51074	0.51099	0.77487	-0.133
Mof_C 	C 	0.16471	0.84094	0.67971	-0.28
Mof_C 	C 	0.82098	0.32201	0.27837	-0.145
Mof_C 	C 	0.4097	0.9525	0.2272	-0.216
Mof_C 	C 	0.33062	0.98037	0.11931	1.596
Mof_C 	C 	0.11716	0.1879	0.49992	0.335
Mof_C 	C 	0.5582	0.5124	0.7449	0.041
Mof_C 	C 	0.7789	0.4239	0.3706	-0.102
Mof_C 	C 	0.2625	0.9958	0.2581	-2.374
Mof_C 	C 	0.24828	0.26259	0.51425	0.164
Mof_C 	C 	0.14905	0.22188	0.40493	0.059
Mof_C 	C 	0.05484	0.00954	0.60522	0.389
Mof_C 	C 	0.76253	0.51425	0.22316	0.163
Mof_C 	C 	0.8286	0.96127	0.89577	0.716
Mof_C 	C 	0.92717	0.37319	0.22188	0.061
Mof_C 	C 	0.83993	0.23649	0.133	0.131
Mof_C 	C 	0.226	0.5063	0.9194	0.59
Mof_C 	C 	0.59383	0.32065	0.66156	-2.214
Mof_C 	C 	0.4072	0.30536	0.38156	-0.004
Mof_C 	C 	0.3815	0.94627	0.98027	-2.767
Mof_C 	C 	0.6259	0.8934	0.0618	0.457
Mof_C 	C 	0.23652	0.29282	0.48376	-0.169
Mof_C 	C 	0.63097	0.17409	0.84528	0.001
Mof_C 	C 	0.2057	0.7309	0.7923	-0.123
Mof_C 	C 	0.66006	0.60522	0.38524	0.454
Mof_C 	C 	0.3998	0.4977	0.8262	-0.105
Mof_C 	C 	0.32377	0.47935	0.84094	-0.28
Mof_C 	C 	0.81183	0.48394	0.18955	-0.012
Mof_C 	C 	0.37705	0.85952	0.02627	2.718
Mof_C 	C 	0.3412	0.7556	0.8197	0.03
Mof_C 	C 	0.9553	0.5348	0.0986	0.061
Mof_C 	C 	0.3798	0.763	0.8787	0.1
Mof_C 	C 	0.1495	0.3706	0.2055	-0.104
Mof_C 	C 	0.5238	0.4795	0.7021	0.036
Mof_C 	C 	0.85973	0.44449	0.1594	-0.15
Mof_C 	C 	0.51093	0.43766	0.48967	0.541
Mof_C 	C 	0.01519	0.33371	0.01234	-0.18
Mof_C 	C 	0.99008	0.27892	0.18878	0.102
Mof_C 	C 	0.61708	0.49992	0.31218	0.336
Mof_C 	C 	0.23843	0.76699	0.7395	0.11
Mof_C 	C 	0.37216	0.33689	0.53281	-0.124
Mof_C 	C 	0.6512	0.435	0.6846	0.033
Mof_C 	C 	0.63537	0.711	0.16989	-0.025
Mof_C 	C 	0.15595	0.25079	0.35464	-0.161
Mof_C 	C 	0.36033	0.25501	0.40252	0.053
Mof_C 	C 	0.69249	0.42202	0.36815	0.044
Mof_C 	C 	0.89294	0.09909	0.01697	0.555
Mof_C 	C 	0.4538	0.837	0.9152	0.179
Mof_C 	C 	0.74424	0.93826	0.09554	-1.152
Mof_C 	C 	0.03527	0.1303	0.33689	-0.132
Mof_C 	C 	0.01679	0.15788	0.35631	0.093
Mof_C 	C 	0.0443	0.8184	0.4795	0.026
Mof_C 	C 	0.3073	0.5245	0.8968	0.518
Mof_C 	C 	0.93888	0.83758	0.52444	0.057
Mof_C 	C 	0.1119	0.7426	0.6512	0.13
Mof_C 	C 	0.5452	0.5283	0.5816	0.439
Mof_C 	C 	0.90798	0.4463	0.13076	0.095
Mof_C 	C 	0.9751	0.10699	0.60369	-0.14
Mof_C 	C 	0.998	0.7923	0.4768	-0.114
Mof_C 	C 	0.4304	0.0252	0.0718	-4.648
Mof_C 	C 	0.9532	0.9667	0.7452	-0.059
Mof_C 	C 	0.5164	0.5487	0.6092	-0.164
Mof_C 	C 	0.3261	0.7069	0.8418	-0.112
Mof_C 	C 	0.46168	0.42294	0.4463	0.1
Mof_C 	C 	0.313	0.1617	0.435	0.034
Mof_C 	C 	0.0453	0.38524	0.00954	0.387
Mof_C 	C 	0.2631	0.9014	0.39	-0.112
Mof_C 	C 	0.16302	0.21801	0.50345	-0.138
Mof_C 	C 	0.02753	0.01234	0.65395	-0.177
Mof_C 	C 	0.40332	0.02627	0.11421	2.666
Mof_C 	C 	0.74538	0.07648	0.07904	0.066
Mof_C 	C 	0.2697	0.16481	0.43691	-0.124
Mof_C 	C 	0.43513	0	-0	-7.877
Mof_C 	C 	0.29547	0.01807	0.26906	1.719
Mof_C 	C 	0.7197	0.5743	0.5063	0.595
Mof_C 	C 	0.46185	0.59248	0.65853	0.081
Mof_C 	C 	0.7828	0.5787	0.5245	0.528
Mof_C 	C 	0.6877	0.0618	0.0448	0.463
Mof_C 	C 	0.5856	0.4247	0.7556	0.027
Mof_C 	C 	0.14	0.7426	0.6125	-0.157
Mof_C 	C 	0.3617	0.7086	0.9014	-0.114
Mof_C 	C 	0.92787	0.19373	0.01432	-0.076
Mof_C 	C 	0.86811	0.28932	0.10699	-0.147
Mof_C 	C 	0.6018	0.2334	0.8829	-0.093
Mof_C 	C 	0.49293	0.14298	0.85319	-1.21
Mof_C 	C 	0.45688	0.98063	0.17409	0.208
Mof_C 	C 	0.79385	0.88394	0.09909	0.598
Mof_C 	C 	0.78876	0.38156	0.31308	-0.002
Mof_C 	C 	0.57136	0.4502	0.32912	-0.132
Mof_C 	C 	0.1432	0.75993	0.56593	0.051
Mof_C 	C 	0.7672	0.60188	0.50928	-0.539
Mof_C 	C 	0.6098	0.1009	0.9298	0.407
Mof_C 	C 	0.5165	0.6221	0.6304	-0.139
Mof_C 	C 	0.53061	0.59034	0.61181	0.082
Mof_C 	C 	0.77844	0.10487	0.09735	-0.142
Mof_C 	C 	0.1609	0.8197	0.4247	0.026
Mof_C 	C 	0.34612	0.85319	0.00383	-1.294
Mof_C 	C 	0.3128	0.8811	0.2953	0.039
Mof_C 	C 	0.5027	0.2873	0.7375	3.18
Mof_C 	C 	0.19646	0.97585	0.33517	-3.115
Mof_C 	C 	0.2259	0.7021	0.8184	0.037
Mof_C 	C 	0.86805	0.23231	0.19536	0.036
Mof_C 	C 	0.6168	0.2478	0.837	0.067
Mof_C 	C 	0.72437	0.89577	0.14296	0.687
Mof_C 	C 	0.22161	0.9937	0.34687	2.489
Mof_C 	C 	0.3537	0.5226	0.8811	-0.446
Mof_C 	C 	0.72028	0.48376	0.22342	-0.17
Mof_C 	C 	0.5022	0.0718	0.903	-4.744
Mof_C 	C 	0.01448	0.17609	0.61705	-0.151
Mof_C 	C 	0.3611	0.5009	0.8543	0.284
Mof_C 	C 	0.1469	0.6304	0.7475	-0.136
Mof_C 	C 	0.3031	0.7449	0.7427	0.042
Mof_C 	C 	0.06341	0.19536	0.57233	0.037
Mof_C 	C 	0.19076	0.26918	0.4807	0.066
Mof_C 	C 	0.4317	0.8236	0.8811	0.044
Mof_C 	C 	0.67146	0.4807	0.25012	0.065
Mof_C 	C 	0.7921	0.6536	0.4851	0.294
Mof_C 	C 	0.7325	0.0448	0.8934	0.46
Mof_C 	C 	0.2987	0.6232	0.7833	0.028
Mof_C 	C 	0.88006	0.01657	0.93169	-1.466
Mof_C 	C 	0.76285	0.40252	0.34247	0.054
Mof_C 	C 	0.34995	0.00383	0.14298	-1.283
Mof_C 	C 	0.44993	0.11931	0.90032	1.554
Mof_C 	C 	0.94027	0.79785	0.59034	0.077
Mof_C 	C 	0.1936	0.9901	0.3997	-0.3
Mof_C 	C 	0.35025	0.90032	0.98037	1.629
Mof_C 	C 	0.51753	0.11421	0.85952	2.714
Mof_C 	C 	0.83978	0.09554	0.9662	-1.171
Mof_C 	C 	0.80526	0.16989	0.11911	-0.029
Mof_C 	C 	0.2154	0.8543	0.6448	0.286
Mof_C 	C 	0.40807	0.94232	0.00491	4.857
Mof_C 	C 	0.7784	0.0611	0.8032	0.052
Mof_C 	C 	0.95263	0.4889	0.09971	-0.196
Mof_C 	C 	0.28561	0.77487	0.71414	-0.133
Mof_C 	C 	0.83285	0.99472	0.95457	1.914
Mof_C 	C 	0.4143	0.9068	0.1755	0.09
Mof_C 	C 	0.3684	0.8837	0.2334	-0.18
Mof_C 	C 	0.01265	0.05598	0.69963	-0.135
Mof_C 	C 	0.63126	0.7567	0.14542	0.092
Mof_C 	C 	0.78193	0.06323	0.84574	-0.151
Mof_C 	C 	0.68127	0.70067	0.33486	0.037
Mof_C 	C 	0.85423	0.36715	0.27686	0.139
Mof_C 	C 	0.5206	0.2581	0.7461	-2.967
Mof_C 	C 	0.95667	0.24439	0.05598	-0.125
Mof_C 	C 	0.0169	0.8901	0.5283	0.432
Mof_C 	C 	0.0539	0.0986	0.3666	0.066
Mof_C 	C 	0.78742	0.95457	0.05071	1.763
Mof_C 	C 	0.43523	0.07346	0.94627	-2.83
Mof_C 	C 	0.2041	0.8968	0.5787	0.519
Mof_C 	C 	0.1385	0.8613	0.6536	0.291
Mof_C 	C 	0.6129	0.54679	0.28267	-0.091
Mof_C 	C 	0.748	0.435	0.4033	0.034
Mof_C 	C 	0.11682	0.7815	0.54994	-0.072
Mof_C 	C 	0.89107	0.79141	0.5473	-0.125
Mof_C 	C 	0.0006	0.48967	0.07267	0.531
Mof_C 	C 	0.62767	0.84574	0.09103	-0.148
Mof_C 	C 	0.9865	0.2881	0.9667	-0.046
Mof_C 	C 	0.00826	0.24886	0.21338	-0.219
Mof_C 	C 	0.87923	0.98558	0.87049	-0.353
Mof_C 	C 	0.4052	0.903	0.0252	-4.728
Mof_C 	C 	0.1268	0.5816	0.8901	0.436
Mof_C 	C 	0.22061	0.68898	0.97585	-3.26
Mof_C 	C 	0.9677	0.8421	0.5487	-0.153
Mof_C 	C 	0.90048	0.32912	0.22068	-0.135
Mof_C 	C 	0.3731	0.35631	0.48581	0.09
Mof_C 	C 	0.71816	0.4022	0.34032	-0.107
Mof_C 	C 	0.90497	0.53281	0.1303	-0.125
Mof_C 	C 	0.0458	0.7427	0.5124	0.029
Mof_C 	C 	0.00138	0.18955	0.32651	-0.024
Mof_C 	C 	0.90991	0.01697	0.88394	0.59
Mof_C 	C 	0.2858	0.9931	0.2161	1.749
Mof_C 	C 	0.09716	0.24806	0.44878	0.046
Mof_C 	C 	0.02385	0.12678	0.56243	0.043
Mof_C 	C 	0.98569	0.22316	0.26259	0.188
Mof_C 	C 	0.1679	0.8418	0.4513	-0.11
Mof_C 	C 	0.71228	0.69963	0.24439	-0.123
Mof_C 	C 	0.8316	0.6983	0.6089	0.025
Mof_C 	C 	0.369	0.9152	0.2478	0.186
Mof_C 	C 	0.7631	0.6512	0.6062	0.131
Mof_C 	C 	0.2585	0.8787	0.3583	0.096
Mof_C 	C 	0.57879	0.60369	0.28932	-0.146
Mof_C 	C 	0.71116	0.5323	0.27892	0.068
Mof_C 	C 	0.6081	0.2953	0.8236	0.097
Mof_C 	C 	0.67357	0.79778	0.10487	-0.133
Mof_C 	C 	0.5089	0.9693	0.1009	0.518
Mof_C 	C 	0.94501	0.27854	0.21801	-0.156
Mof_C 	C 	0.05234	0.09971	0.41139	-0.211
Mof_C 	C 	0.16532	0.88884	0.60188	-0.526
Mof_C 	C 	0.10184	0.31308	0.30536	-0.003
Mof_C 	C 	0.6689	0.84448	0.07648	0.066
Mof_C 	C 	0.1183	0.81554	0.49944	0.309
Mof_C 	C 	0.1013	0.63798	0.83758	0.059
Mof_C 	C 	0.70661	0.43691	0.39828	-0.12
Mof_C 	C 	0.1256	0.6092	0.8421	-0.159
Mof_C 	C 	0.89557	0.28267	0.17054	-0.093
Mof_C 	C 	0.2091	0.84246	0.38086	-0.113
Mof_C 	C 	0.01913	0.1594	0.39611	-0.158
Mof_C 	C 	0.56453	0.26906	0.71287	2.202
Mof_C 	C 	0.90516	0.39457	0.25079	-0.162
Mof_C 	C 	0.7461	0.1585	0.0824	-0.133
Mof_C 	C 	0.2774	0.71287	0.01807	1.809
Mof_C 	C 	0.32789	0.32651	0.48394	-0.011
Mof_C 	C 	0.97137	0.01291	0.745	0.043
Mof_C 	C 	0.55398	0.40493	0.37319	0.059
Mof_C 	C 	0.47625	0.84528	0.98063	0.197
Mof_C 	C 	0.6369	0.2272	0.8203	-0.078
Mof_C 	C 	0.6192	0.4513	0.7069	-0.111
Mof_C 	C 	0.66647	0.50345	0.27854	-0.138
Mof_C 	C 	0.7173	0.1357	0.0611	0.053
Mof_C 	C 	0.56848	0.34687	0.65943	2.977
Mof_C 	C 	0.27648	0.50928	0.88884	-0.526
Mof_C 	C 	0.5898	0.1755	0.9177	0.003
Mof_C 	C 	0.68148	0.65395	0.33371	-0.131
Mof_C 	C 	0.25539	0.66156	0.01779	-1.966
Mof_C 	C 	0.1085	0.4327	0.1122	0.497
Mof_C 	C 	0.86733	0.14296	0.96127	0.684
Mof_C 	C 	0.2154	0.9752	0.2873	2.595
Mof_C 	C 	0.10532	0.34247	0.25501	0.054
Mof_C 	C 	0.7525	0.6125	0.6449	-0.157
Mof_C 	C 	0.09935	0.27837	0.39962	-0.143
Mof_C 	C 	0.33532	0.66856	0.7815	-0.072
Mof_C 	C 	0.7187	0.09103	0.06323	-0.163
Mof_C 	C 	0.46575	0.05277	0.94232	4.916
Mof_C 	C 	0.8944	0.7475	0.6221	-0.134
Mof_C 	C 	0.2162	0.8804	0.435	0.034
Mof_C 	C 	0.5054	0.8957	0.9502	-0.115
Mof_C 	C 	0.5019	0.2161	0.7908	2.042
Mof_C 	C 	0.74972	0.87049	0.14393	-0.39
Mof_C 	C 	0.2207	0.1122	0.4551	0.496
Mof_C 	C 	0.2348	0.8811	0.5963	-0.447
Mof_C 	C 	0.66676	0.54994	0.66856	-0.072
Mof_C 	C 	0.5075	0.9177	0.9068	0.084
Mof_C 	C 	0.36664	0.77668	0.84246	-0.115
Mof_C 	C 	0.87456	0.09788	0.7567	0.092
Mof_C 	C 	0.9806	0.96447	0.70067	0.088
Mof_C 	C 	0.9437	0.22342	0.29282	-0.188
Mof_C 	C 	0.3974	0.6449	0.7426	-0.156
Mof_C 	C 	0.99975	0.71414	0.51099	-0.123
Mof_C 	C 	0.46373	0.41139	0.4889	-0.199
Mof_C 	C 	0.83839	0.20686	0.17609	-0.147
Mof_C 	C 	0.4405	0.6089	0.6928	0.023
Mof_C 	C 	0.226	0.8262	0.6761	-0.107
Mof_C 	C 	0.63153	0.61705	0.20686	-0.147
Mof_C 	C 	0.4572	0.8203	0.9525	-0.205
Mof_C 	C 	0.05848	0.34032	0.25748	-0.109
Mof_C 	C 	0.86937	0.74899	0.59248	0.08
Mof_C 	C 	0.03874	0.13076	0.42294	0.104
Mof_C 	C 	0.13109	0.27686	0.35599	0.137
Mof_C 	C 	0.77668	0.14542	0.09788	0.091
Mof_C 	C 	0.10489	0.39828	0.16481	-0.125
Mof_C 	C 	0.22791	0.65943	0.9937	2.608
Mof_C 	C 	0.80598	0.9662	0.93826	-1.204
Mof_C 	C 	0.56513	0.49805	0.71096	-0.107
Mof_C 	C 	0.27318	0.01779	0.32065	-1.882
Mof_C 	C 	0.80537	0	-0	-3.101
Mof_C 	C 	0.58628	0.56243	0.31079	0.051
Mof_C 	C 	0.70913	0.56593	0.67414	0.052
Mof_C 	C 	0.3693	0.6062	0.7426	0.129
Mof_C 	C 	0.355	0.2055	0.4239	-0.104
Mof_C 	C 	0.7234	0.6434	0.5936	-0.117
Mof_C 	C 	0.63574	0.57233	0.23231	0.036
Mof_C 	C 	0.85891	0.48581	0.15788	0.087
Mof_C 	C 	0.98651	0.29166	0.05333	0.081
Mof_C 	C 	0.69485	0.65501	0.29166	0.067
Mof_C 	C 	0.07327	0.07267	0.43766	0.548
Mof_C 	C 	0.4847	0.8829	0.8837	-0.17
Mof_C 	C 	0.4748	0.4768	0.7309	-0.123
Mof_C 	C 	0.6758	0.4551	0.4327	0.496
Mof_C 	C 	0.54594	0.44878	0.30316	0.046
Mof_C 	C 	0.2035	0.6102	0.9901	-0.337
Mof_C 	C 	0.5396	0.9298	0.9693	0.511
Mof_C 	C 	0.1454	0.9194	0.5743	0.59
Mof_C 	C 	0.89365	0.14393	0.98558	-0.335
Mof_C 	C 	0.09966	0.66129	0.79141	-0.127
Mof_C 	C 	0.6097	0.1541	0.8957	-0.017
Mof_C 	C 	0.49897	0.39962	0.32201	-0.144
Mof_C 	C 	0.71637	0.745	0.24209	0.076
Mof_C 	C 	0.48708	0.35599	0.36715	0.137
Mof_C 	C 	0.41298	0.00491	0.05277	4.757
Mof_C 	C 	0.53163	0.33517	0.68898	-3.768
Mof_C 	C 	0.95846	0.24209	0.01291	0.027
Mof_C 	C 	0.4556	0.9502	0.1541	-0.128
Mof_C 	C 	0.51059	0.35464	0.39457	-0.161
Mof_C 	C 	0.6168	0.3583	0.763	0.094
Mof_C 	C 	0.86349	0.05174	0.01657	-1.432
Mof_C 	C 	0.92158	0.25012	0.26918	0.082
Mof_C 	C 	0.06611	0.17054	0.54679	-0.089
Mof_C 	C 	0.81175	0.93169	0.05174	-1.33
Mof_C 	C 	0.8491	0.30316	0.24806	0.048
Mof_C 	C 	0.317	0.5936	0.763	-0.117
Mof_C 	C 	0.73414	0.79195	0.19373	-0.019
Mof_C 	C 	0.9021	0.6761	0.4977	-0.108
Mof_C 	C 	0.92437	0.11911	0.711	-0.026
Mof_C 	C 	0.97293	0.133	0.63051	0.136
Mof_C 	C 	0.08	0.763	0.6434	-0.118
Mof_C 	C 	0.94219	0.01432	0.79195	-0.077
Mof_C 	C 	0.82442	0.07904	0.84448	0.064
Mof_C 	C 	0.2402	0.7375	0.9752	2.721
Mof_C 	C 	0.58996	0.38086	0.77668	-0.112
Mof_N 	N 	0.92479	0.19504	0.97717	-0.014
Mof_N 	N 	0.44544	0.30679	0.38587	-0.129
Mof_N 	N 	0.00579	0.19336	0.28589	-0.136
Mof_N 	N 	0.80897	0.21236	0.11445	-0.125
Mof_N 	N 	0.90196	0.97717	0.82779	-0.009
Mof_N 	N 	0.81243	0.52075	0.19336	-0.131
Mof_N 	N 	0.59661	0.67319	0.21236	-0.122
Mof_N 	N 	0.9246	0.6988	0.5072	-0.089
Mof_N 	N 	0.2258	0.794	0.6988	-0.089
Mof_N 	N 	0.41333	0.78676	0.90237	-0.138
Mof_N 	N 	0.4318	0.5072	0.794	-0.09
Mof_N 	N 	0.8064	0.7031	0.593	-0.13
Mof_N 	N 	0.92342	0.11445	0.67319	-0.124
Mof_N 	N 	0.83131	0.38587	0.30734	-0.128
Mof_N 	N 	0.29168	0.28589	0.52075	-0.13
Mof_N 	N 	0.62657	0.31087	0.78676	-0.159
Mof_N 	N 	0.32248	0.00628	0.19064	-0.548
Mof_N 	N 	0.1033	0.7039	0.7031	-0.13
Mof_N 	N 	0.51312	0.19064	0.80308	-0.617
Mof_N 	N 	0.3157	0.90237	0.31087	-0.138
Mof_N 	N 	0.72975	0.82779	0.19504	-0.046
Mof_N 	N 	0.3162	0.80308	0.00628	-0.567
Mof_N 	N 	0.13865	0.30734	0.30679	-0.129
Mof_N 	N 	0.3994	0.593	0.7039	-0.13
Mof_O 	O 	0.65884	0.07426	0.03644	-0.583
Mof_O 	O 	0.08219	0.08364	0.46732	-0.571
Mof_O 	O 	0.56659	0.97686	0.93479	-0.406
Mof_O 	O 	0.61583	0	-0	-0.99
Mof_O 	O 	0.61765	0.50406	0.34641	-0.493
Mof_O 	O 	0.70071	0.03285	0.03403	-0.504
Mof_O 	O 	0.46713	0	-0	11.4
Mof_O 	O 	0.1211	0.50284	0.9949	-0.905
Mof_O 	O 	0.11359	0.14953	0.50406	-0.494
Mof_O 	O 	0.10691	0.58404	0.92761	-0.564
Mof_O 	O 	0.65031	0.46498	0.41609	-0.562
Mof_O 	O 	0.0664	0.41609	0.11893	-0.569
Mof_O 	O 	0.69528	0.03644	0.8893	-0.567
Mof_O 	O 	0.99855	0.44904	0.08364	-0.56
Mof_O 	O 	0.03611	0.53088	0.04005	-0.617
Mof_O 	O 	0.55224	0.40951	0.61419	-0.379
Mof_O 	O 	0.18533	0.11893	0.46498	-0.567
Mof_O 	O 	0.116	0.9949	0.50226	-0.904
Mof_O 	O 	0.14273	0.9763	0.40951	-0.4
Mof_O 	O 	0.07935	0.42131	0.96698	-0.49
Mof_O 	O 	0.50523	0.42907	0.53088	-0.593
Mof_O 	O 	0.73474	0.03403	0.93312	-0.467
Mof_O 	O 	0.26951	0.64601	0.84688	-0.483
Mof_O 	O 	0.6235	0.50711	0.64601	-0.483
Mof_O 	O 	0.54951	0.46732	0.44904	-0.56
Mof_O 	O 	0.13892	0.54595	0.88919	-0.515
Mof_O 	O 	0.22902	0.07813	0.46207	-0.608
Mof_O 	O 	0.62394	0.08359	0.90337	-0.506
Mof_O 	O 	0.50138	0.93479	0.08835	-0.439
Mof_O 	O 	0.58973	0.08835	0.97686	-0.392
Mof_O 	O 	0.10473	0.91705	0.59376	-0.592
Mof_O 	O 	0.59297	0.56486	0.54595	-0.518
Mof_O 	O 	0.0838	0.05113	0.56767	-0.503
Mof_O 	O 	0.21194	0.00928	0.41696	-0.393
Mof_O 	O 	0.52287	0.48835	0.58404	-0.578
Mof_O 	O 	0.66786	0.93312	0.03285	-0.466
Mof_O 	O 	0.6289	0.41696	0.57376	-0.26
Mof_O 	O 	0.17643	0.94913	0.52594	-0.532
Mof_O 	O 	0.77337	0	-0	3.218
Mof_O 	O 	0.58458	0.8893	0.07426	-0.557
Mof_O 	O 	0.61826	0.50226	0.50284	-0.937
Mof_O 	O 	0.69849	0.59376	0.48919	-0.6
Mof_O 	O 	0.65804	0.61171	0.42131	-0.546
Mof_O 	O 	0.70237	0.52594	0.52493	-0.555
Mof_O 	O 	0.03267	0.3812	0.05113	-0.505
Mof_O 	O 	0.96406	0.34641	0.14953	-0.497
Mof_O 	O 	0.52731	0.90337	0.01304	-0.563
Mof_O 	O 	0.2273	0.52493	0.94913	-0.532
Mof_O 	O 	0.65147	0.56767	0.3812	-0.512
Mof_O 	O 	0.03452	0.92761	0.48835	-0.564
Mof_O 	O 	0.69109	0.46207	0.4598	-0.598
Mof_O 	O 	0.16643	0.61419	0.9763	-0.395
Mof_O 	O 	0.11639	0.84688	0.50711	-0.482
Mof_O 	O 	0.18768	0.48919	0.91705	-0.593
Mof_O 	O 	0.20266	0.57376	0.00928	-0.38
Mof_O 	O 	0.07616	0.04005	0.42907	-0.621
Mof_O 	O 	0.02811	0.88919	0.56486	-0.515
Mof_O 	O 	0.54035	0.01304	0.08359	-0.584
Mof_O 	O 	0.15089	0.4598	0.07813	-0.609
Mof_O 	O 	0.04633	0.96698	0.61171	-0.49
_end
