data_functionalizedCrystal
_audit_creation_method	'EQeq! by Chris Wilmer'
_symmetry_space_group_name_H-M	'P1'
_symmetry_Int_Tables_number	1
_symmetry_cell_setting	triclinic
loop_
_symmetry_equiv_pos_as_xyz
  x,y,z
_cell_length_a	10.3503
_cell_length_b	10.3503
_cell_length_c	52.557
_cell_angle_alpha	90
_cell_angle_beta	90
_cell_angle_gamma	90
loop_
_atom_site_label
_atom_site_type_symbol
_atom_site_fract_x
_atom_site_fract_y
_atom_site_fract_z
_atom_site_charge
Mof_Cd	Cd	0.24296	0.85466	0.42117	0.446
Mof_Cd	Cd	0.85466	0.75704	0.17117	0.446
Mof_Cd	Cd	0.94028	0.64156	0.77362	0.513
Mof_Cd	Cd	0.24296	0.14534	0.07883	0.446
Mof_Cd	Cd	0.75704	0.14534	0.92117	0.446
Mof_Cd	Cd	0.05972	0.64156	0.22638	0.513
Mof_Cd	Cd	0.14534	0.75704	0.82883	0.446
Mof_Cd	Cd	0.64156	0.05972	0.52362	0.513
Mof_Cd	Cd	0.35844	0.05972	0.47638	0.513
Mof_Cd	Cd	0.05972	0.35844	0.27362	0.513
Mof_Cd	Cd	0.35844	0.94028	0.02362	0.513
Mof_Cd	Cd	0.75704	0.85466	0.57883	0.446
Mof_Cd	Cd	0.14534	0.24296	0.67117	0.446
Mof_Cd	Cd	0.64156	0.94028	0.97638	0.514
Mof_Cd	Cd	0.85466	0.24296	0.32883	0.447
Mof_Cd	Cd	0.94028	0.35844	0.72638	0.514
Mof_H 	H 	0.3906	0.4798	0.4687	0.059
Mof_H 	H 	0.5202	0.6094	0.7813	0.059
Mof_H 	H 	0.119	0.0536	0.5253	0.068
Mof_H 	H 	0.1212	0.3357	0.1631	0.065
Mof_H 	H 	0.0536	0.119	0.2247	0.068
Mof_H 	H 	0.9464	0.881	0.7247	0.068
Mof_H 	H 	0.8788	0.3357	0.8369	0.065
Mof_H 	H 	0.4798	0.6094	0.2187	0.059
Mof_H 	H 	0.0511	0.8726	0.0928	0.071
Mof_H 	H 	0.1274	0.0511	0.3428	0.071
Mof_H 	H 	0.119	0.9464	0.9747	0.068
Mof_H 	H 	0.0536	0.881	0.2753	0.068
Mof_H 	H 	0.8788	0.6643	0.6631	0.065
Mof_H 	H 	0.3357	0.1212	0.5869	0.065
Mof_H 	H 	0.881	0.9464	0.0253	0.068
Mof_H 	H 	0.9464	0.119	0.7753	0.068
Mof_H 	H 	0.6643	0.1212	0.4131	0.065
Mof_H 	H 	0.816	0.5	0.25	0.055
Mof_H 	H 	0.5	0.184	-0	0.055
Mof_H 	H 	0.5202	0.3906	0.7187	0.059
Mof_H 	H 	0.5	0.816	0.5	0.055
Mof_H 	H 	0.9489	0.1274	0.5928	0.071
Mof_H 	H 	0.0511	0.1274	0.4072	0.071
Mof_H 	H 	0.3906	0.5202	0.0313	0.059
Mof_H 	H 	0.3357	0.8788	0.9131	0.065
Mof_H 	H 	0.184	0.5	0.75	0.055
Mof_H 	H 	0.8726	0.9489	0.8428	0.071
Mof_H 	H 	0.1212	0.6643	0.3369	0.065
Mof_H 	H 	0.9489	0.8726	0.9072	0.071
Mof_H 	H 	0.8726	0.0511	0.6572	0.071
Mof_H 	H 	0.6094	0.5202	0.9687	0.059
Mof_H 	H 	0.881	0.0536	0.4747	0.068
Mof_H 	H 	0.6643	0.8788	0.0869	0.065
Mof_H 	H 	0.6094	0.4798	0.5313	0.059
Mof_H 	H 	0.4798	0.3906	0.2813	0.059
Mof_H 	H 	0.1274	0.9489	0.1572	0.071
Mof_C 	C 	0.5246	0.5652	0.23131	0.031
Mof_C 	C 	0.8878	0.7453	0.67055	0.017
Mof_C 	C 	0.7551	0.92	0.05395	-0.072
Mof_C 	C 	0.9767	0.1188	0.41703	0.012
Mof_C 	C 	0.3657	0.7296	0.46005	0.318
Mof_C 	C 	0.8812	0.0233	0.83297	0.012
Mof_C 	C 	0.9189	0.8815	0.79542	0.291
Mof_C 	C 	0.5652	0.6579	0.51882	-0.078
Mof_C 	C 	0.3111	0.5	0.25	0.346
Mof_C 	C 	0.4754	0.4348	0.73131	0.031
Mof_C 	C 	0.0519	0.3667	0.21054	0.322
Mof_C 	C 	0.5652	0.5246	0.51869	0.031
Mof_C 	C 	0.8341	0.8478	0.62781	0.322
Mof_C 	C 	0.8748	0.9276	0.04255	0.016
Mof_C 	C 	0.1188	0.0233	0.16703	0.012
Mof_C 	C 	0.1316	0.1427	0.15572	-0.067
Mof_C 	C 	0.08	0.2449	0.19605	-0.072
Mof_C 	C 	0.3667	0.9481	0.96054	0.322
Mof_C 	C 	0.1427	0.8684	0.90572	-0.067
Mof_C 	C 	0.2704	0.3657	0.71005	0.318
Mof_C 	C 	0.5246	0.4348	0.26869	0.031
Mof_C 	C 	0.5	0.5427	-0	-0.082
Mof_C 	C 	0.1185	0.9189	0.04542	0.291
Mof_C 	C 	0.0233	0.8812	0.91703	0.012
Mof_C 	C 	0.9276	0.1252	0.79255	0.016
Mof_C 	C 	0.9481	0.6333	0.71054	0.322
Mof_C 	C 	0.9189	0.1185	0.70458	0.291
Mof_C 	C 	0.8748	0.0724	0.45745	0.016
Mof_C 	C 	0.2704	0.6343	0.78995	0.318
Mof_C 	C 	0.9069	0.0125	0.8069	-0.068
Mof_C 	C 	0.5	0.7262	0.5	0.03
Mof_C 	C 	0.1122	0.7453	0.32945	0.017
Mof_C 	C 	0.3657	0.2704	0.03995	0.318
Mof_C 	C 	0.9069	0.9875	0.6931	-0.068
Mof_C 	C 	0.8573	0.8684	0.09428	-0.067
Mof_C 	C 	0.1185	0.0811	0.45458	0.291
Mof_C 	C 	0.1659	0.1522	0.12781	0.322
Mof_C 	C 	0.0811	0.1185	0.29542	0.291
Mof_C 	C 	0.7262	0.5	0.25	0.03
Mof_C 	C 	0.0233	0.1188	0.58297	0.012
Mof_C 	C 	0.4348	0.5246	0.48131	0.031
Mof_C 	C 	0.4573	0.5	0.25	-0.082
Mof_C 	C 	0.0125	0.9069	0.9431	-0.068
Mof_C 	C 	0.1427	0.1316	0.59428	-0.067
Mof_C 	C 	0.7296	0.6343	0.21005	0.318
Mof_C 	C 	0.9276	0.8748	0.70745	0.016
Mof_C 	C 	0.1122	0.2547	0.17055	0.017
Mof_C 	C 	0.1522	0.8341	0.87781	0.322
Mof_C 	C 	0.9875	0.9069	0.0569	-0.068
Mof_C 	C 	0.6333	0.9481	0.03946	0.322
Mof_C 	C 	0.1188	0.9767	0.33297	0.012
Mof_C 	C 	0.8878	0.2547	0.82945	0.017
Mof_C 	C 	0.5	0.6889	-0	0.346
Mof_C 	C 	0.7453	0.1122	0.42055	0.017
Mof_C 	C 	0.92	0.2449	0.80395	-0.072
Mof_C 	C 	0.7551	0.08	0.44605	-0.072
Mof_C 	C 	0.8341	0.1522	0.87219	0.322
Mof_C 	C 	0.5652	0.4754	0.98131	0.032
Mof_C 	C 	0.0724	0.8748	0.29255	0.016
Mof_C 	C 	0.92	0.7551	0.69605	-0.072
Mof_C 	C 	0.6343	0.2704	0.96005	0.318
Mof_C 	C 	0.9875	0.0931	0.4431	-0.068
Mof_C 	C 	0.6579	0.4348	0.26882	-0.078
Mof_C 	C 	0.8684	0.1427	0.84428	-0.067
Mof_C 	C 	0.8684	0.8573	0.65572	-0.067
Mof_C 	C 	0.3421	0.4348	0.73118	-0.078
Mof_C 	C 	0.8815	0.9189	0.95458	0.291
Mof_C 	C 	0.0519	0.6333	0.28946	0.322
Mof_C 	C 	0.9767	0.8812	0.08297	0.012
Mof_C 	C 	0.8815	0.0811	0.54542	0.291
Mof_C 	C 	0.4348	0.4754	0.01869	0.031
Mof_C 	C 	0.1252	0.0724	0.54255	0.016
Mof_C 	C 	0.0931	0.9875	0.3069	-0.068
Mof_C 	C 	0.4348	0.6579	0.48118	-0.078
Mof_C 	C 	0.5427	0.5	0.75	-0.082
Mof_C 	C 	0.6333	0.0519	0.46054	0.322
Mof_C 	C 	0.2738	0.5	0.75	0.03
Mof_C 	C 	0.9481	0.3667	0.78946	0.322
Mof_C 	C 	0.5	0.2738	-0	0.03
Mof_C 	C 	0.1659	0.8478	0.37219	0.322
Mof_C 	C 	0.2449	0.08	0.55395	-0.072
Mof_C 	C 	0.08	0.7551	0.30395	-0.072
Mof_C 	C 	0.1316	0.8573	0.34428	-0.067
Mof_C 	C 	0.1522	0.1659	0.62219	0.322
Mof_C 	C 	0.0931	0.0125	0.1931	-0.068
Mof_C 	C 	0.8478	0.1659	0.37781	0.322
Mof_C 	C 	0.6343	0.7296	0.53995	0.318
Mof_C 	C 	0.1252	0.9276	0.95745	0.016
Mof_C 	C 	0.5	0.4573	0.5	-0.082
Mof_C 	C 	0.4348	0.3421	0.01882	-0.078
Mof_C 	C 	0.3421	0.5652	0.76882	-0.078
Mof_C 	C 	0.6579	0.5652	0.23118	-0.078
Mof_C 	C 	0.5652	0.3421	0.98118	-0.078
Mof_C 	C 	0.2547	0.8878	0.92055	0.017
Mof_C 	C 	0.0724	0.1252	0.20745	0.016
Mof_C 	C 	0.2449	0.92	0.94605	-0.072
Mof_C 	C 	0.0811	0.8815	0.20458	0.291
Mof_C 	C 	0.7296	0.3657	0.28995	0.318
Mof_C 	C 	0.5	0.3111	0.5	0.346
Mof_C 	C 	0.0125	0.0931	0.5569	-0.068
Mof_C 	C 	0.8478	0.8341	0.12219	0.322
Mof_C 	C 	0.8812	0.9767	0.66703	0.012
Mof_C 	C 	0.8573	0.1316	0.40572	-0.067
Mof_C 	C 	0.2547	0.1122	0.57945	0.017
Mof_C 	C 	0.4754	0.5652	0.76869	0.031
Mof_C 	C 	0.7453	0.8878	0.07945	0.017
Mof_C 	C 	0.3667	0.0519	0.53946	0.322
Mof_C 	C 	0.6889	0.5	0.75	0.346
Mof_O 	O 	0.6417	0.9967	0.01762	-0.282
Mof_O 	O 	0.8679	0.9117	0.97827	-0.25
Mof_O 	O 	0.3311	0.3295	0.05926	-0.263
Mof_O 	O 	0.3295	0.3311	0.69074	-0.263
Mof_O 	O 	0.591	0.7419	0.98879	-0.283
Mof_O 	O 	0.7409	0.8187	0.13216	-0.258
Mof_O 	O 	0.1835	0.9481	0.38382	-0.275
Mof_O 	O 	0.4718	0.0738	0.55038	-0.268
Mof_O 	O 	0.0519	0.1835	0.63382	-0.275
Mof_O 	O 	0.591	0.2581	0.51121	-0.283
Mof_O 	O 	0.9967	0.3583	0.76762	-0.282
Mof_O 	O 	0.5282	0.9262	0.05038	-0.268
Mof_O 	O 	0.6689	0.3295	0.94074	-0.263
Mof_O 	O 	0.7844	0.9355	0.94005	-0.27
Mof_O 	O 	0.6417	0.0033	0.48238	-0.282
Mof_O 	O 	0.6581	0.8479	0.53699	-0.292
Mof_O 	O 	0.2591	0.8187	0.86784	-0.258
Mof_O 	O 	0.0519	0.8165	0.86618	-0.275
Mof_O 	O 	0.409	0.2581	0.48879	-0.283
Mof_O 	O 	0.3419	0.1521	0.03699	-0.292
Mof_O 	O 	0.6581	0.1521	0.96301	-0.292
Mof_O 	O 	0.0033	0.6417	0.26762	-0.282
Mof_O 	O 	0.3295	0.6689	0.80926	-0.263
Mof_O 	O 	0.9481	0.1835	0.36618	-0.275
Mof_O 	O 	0.7844	0.0645	0.55995	-0.27
Mof_O 	O 	0.2591	0.1813	0.63216	-0.258
Mof_O 	O 	0.9262	0.5282	0.69962	-0.268
Mof_O 	O 	0.5282	0.0738	0.44962	-0.268
Mof_O 	O 	0.1321	0.0883	0.47827	-0.25
Mof_O 	O 	0.0738	0.4718	0.19962	-0.268
Mof_O 	O 	0.9117	0.1321	0.72827	-0.25
Mof_O 	O 	0.1321	0.9117	0.02173	-0.25
Mof_O 	O 	0.0645	0.2156	0.30995	-0.27
Mof_O 	O 	0.9481	0.8165	0.13382	-0.275
Mof_O 	O 	0.0033	0.3583	0.23238	-0.282
Mof_O 	O 	0.409	0.7419	0.01121	-0.283
Mof_O 	O 	0.2581	0.591	0.23879	-0.283
Mof_O 	O 	0.3583	0.0033	0.51762	-0.282
Mof_O 	O 	0.2156	0.9355	0.05995	-0.27
Mof_O 	O 	0.3419	0.8479	0.46301	-0.292
Mof_O 	O 	0.9262	0.4718	0.80038	-0.268
Mof_O 	O 	0.2156	0.0645	0.44005	-0.27
Mof_O 	O 	0.0883	0.8679	0.22827	-0.25
Mof_O 	O 	0.8479	0.3419	0.28699	-0.292
Mof_O 	O 	0.6689	0.6705	0.55926	-0.263
Mof_O 	O 	0.9355	0.7844	0.80995	-0.27
Mof_O 	O 	0.8679	0.0883	0.52173	-0.25
Mof_O 	O 	0.1521	0.6581	0.78699	-0.292
Mof_O 	O 	0.0645	0.7844	0.19005	-0.27
Mof_O 	O 	0.3311	0.6705	0.44074	-0.263
Mof_O 	O 	0.0883	0.1321	0.27173	-0.25
Mof_O 	O 	0.2581	0.409	0.26121	-0.283
Mof_O 	O 	0.1813	0.7409	0.38216	-0.258
Mof_O 	O 	0.1813	0.2591	0.11784	-0.258
Mof_O 	O 	0.1521	0.3419	0.71301	-0.292
Mof_O 	O 	0.9355	0.2156	0.69005	-0.27
Mof_O 	O 	0.6705	0.3311	0.30926	-0.263
Mof_O 	O 	0.4718	0.9262	0.94962	-0.268
Mof_O 	O 	0.9967	0.6417	0.73238	-0.282
Mof_O 	O 	0.6705	0.6689	0.19074	-0.263
Mof_O 	O 	0.7409	0.1813	0.36784	-0.258
Mof_O 	O 	0.0738	0.5282	0.30038	-0.268
Mof_O 	O 	0.7419	0.591	0.76121	-0.283
Mof_O 	O 	0.8479	0.6581	0.21301	-0.292
Mof_O 	O 	0.3583	0.9967	0.98238	-0.282
Mof_O 	O 	0.8165	0.9481	0.61618	-0.275
Mof_O 	O 	0.8187	0.2591	0.88216	-0.258
Mof_O 	O 	0.1835	0.0519	0.11618	-0.275
Mof_O 	O 	0.8187	0.7409	0.61784	-0.258
Mof_O 	O 	0.7419	0.409	0.73879	-0.283
Mof_O 	O 	0.8165	0.0519	0.88382	-0.275
Mof_O 	O 	0.9117	0.8679	0.77173	-0.25
_end
