data_functionalizedCrystal
_audit_creation_method	'EQeq! by Chris Wilmer'
_symmetry_space_group_name_H-M	'P1'
_symmetry_Int_Tables_number	1
_symmetry_cell_setting	triclinic
loop_
_symmetry_equiv_pos_as_xyz
  x,y,z
_cell_length_a	22.453
_cell_length_b	22.453
_cell_length_c	22.453
_cell_angle_alpha	90
_cell_angle_beta	90
_cell_angle_gamma	90
loop_
_atom_site_label
_atom_site_type_symbol
_atom_site_fract_x
_atom_site_fract_y
_atom_site_fract_z
_atom_site_charge
Mof_In	In	0.3223	0.73916	0.80633	2.662
Mof_C 	C 	0.4612	0.795	0.6047	0.009
Mof_H 	H 	0.4257	0.7967	0.5819	0.069
Mof_C 	C 	0.4588	0.7866	0.6662	-0.16
Mof_C 	C 	0.5112	0.7861	0.6994	0.105
Mof_H 	H 	0.5095	0.7805	0.7413	0.044
Mof_C 	C 	0.5163	0.801	0.5774	0.062
Mof_C 	C 	0.399	0.7798	0.6951	0.565
Mof_C 	C 	0.5652	0.7936	0.6718	-0.161
Mof_C 	C 	0.568	0.8019	0.6098	0.004
Mof_H 	H 	0.6052	0.8081	0.5907	0.074
Mof_C 	C 	0.6231	0.7946	0.7052	0.577
Mof_N 	N 	0.5229	0.8042	0.5138	-0.067
Mof_O 	O 	0.39696	0.7614	0.7478	-0.672
Mof_O 	O 	0.6214	0.7802	0.7592	-0.665
Mof_O 	O 	0.3543	0.7935	0.6627	-0.695
Mof_O 	O 	0.6677	0.8106	0.6758	-0.702
Mof_O 	O 	0.388	0.736	0.8716	0.451
Mof_Br	Br	0.40162	0.7368	0.89179	-1.021
Mof_In	In	0.6777	0.26084	0.80633	2.662
Mof_C 	C 	0.5388	0.205	0.6047	0.009
Mof_H 	H 	0.5743	0.2033	0.5819	0.069
Mof_C 	C 	0.5412	0.2134	0.6662	-0.16
Mof_C 	C 	0.4888	0.2139	0.6994	0.105
Mof_H 	H 	0.4905	0.2195	0.7413	0.043
Mof_C 	C 	0.4837	0.199	0.5774	0.061
Mof_C 	C 	0.601	0.2202	0.6951	0.564
Mof_C 	C 	0.4348	0.2064	0.6718	-0.162
Mof_C 	C 	0.432	0.1981	0.6098	0.003
Mof_H 	H 	0.3948	0.1919	0.5907	0.073
Mof_C 	C 	0.3769	0.2054	0.7052	0.576
Mof_N 	N 	0.4771	0.1958	0.5138	-0.068
Mof_O 	O 	0.60304	0.2386	0.7478	-0.673
Mof_O 	O 	0.3786	0.2198	0.7592	-0.666
Mof_O 	O 	0.6457	0.2065	0.6627	-0.696
Mof_O 	O 	0.3323	0.1894	0.6758	-0.703
Mof_O 	O 	0.612	0.264	0.8716	0.45
Mof_Br	Br	0.59838	0.2632	0.89179	-1.022
Mof_In	In	0.6777	0.73916	0.19367	2.661
Mof_C 	C 	0.5388	0.795	0.3953	0.008
Mof_H 	H 	0.5743	0.7967	0.4181	0.068
Mof_C 	C 	0.5412	0.7866	0.3338	-0.161
Mof_C 	C 	0.4888	0.7861	0.3006	0.104
Mof_H 	H 	0.4905	0.7805	0.2587	0.043
Mof_C 	C 	0.4837	0.801	0.4226	0.061
Mof_C 	C 	0.601	0.7798	0.3049	0.564
Mof_C 	C 	0.4348	0.7936	0.3282	-0.162
Mof_C 	C 	0.432	0.8019	0.3902	0.003
Mof_H 	H 	0.3948	0.8081	0.4093	0.073
Mof_C 	C 	0.3769	0.7946	0.2948	0.576
Mof_N 	N 	0.4771	0.8042	0.4862	-0.068
Mof_O 	O 	0.60304	0.7614	0.2522	-0.673
Mof_O 	O 	0.3786	0.7802	0.2408	-0.666
Mof_O 	O 	0.6457	0.7935	0.3373	-0.696
Mof_O 	O 	0.3323	0.8106	0.3242	-0.703
Mof_O 	O 	0.612	0.736	0.1284	0.45
Mof_Br	Br	0.59838	0.7368	0.10821	-1.022
Mof_In	In	0.3223	0.26084	0.19367	2.661
Mof_C 	C 	0.4612	0.205	0.3953	0.008
Mof_H 	H 	0.4257	0.2033	0.4181	0.068
Mof_C 	C 	0.4588	0.2134	0.3338	-0.161
Mof_C 	C 	0.5112	0.2139	0.3006	0.104
Mof_H 	H 	0.5095	0.2195	0.2587	0.043
Mof_C 	C 	0.5163	0.199	0.4226	0.061
Mof_C 	C 	0.399	0.2202	0.3049	0.564
Mof_C 	C 	0.5652	0.2064	0.3282	-0.162
Mof_C 	C 	0.568	0.1981	0.3902	0.003
Mof_H 	H 	0.6052	0.1919	0.4093	0.073
Mof_C 	C 	0.6231	0.2054	0.2948	0.576
Mof_N 	N 	0.5229	0.1958	0.4862	-0.068
Mof_O 	O 	0.39696	0.2386	0.2522	-0.673
Mof_O 	O 	0.6214	0.2198	0.2408	-0.666
Mof_O 	O 	0.3543	0.2065	0.3373	-0.696
Mof_O 	O 	0.6677	0.1894	0.3242	-0.703
Mof_O 	O 	0.388	0.264	0.1284	0.45
Mof_Br	Br	0.40162	0.2632	0.10821	-1.022
Mof_In	In	0.80633	0.3223	0.73916	2.661
Mof_C 	C 	0.6047	0.4612	0.795	0.008
Mof_H 	H 	0.5819	0.4257	0.7967	0.068
Mof_C 	C 	0.6662	0.4588	0.7866	-0.161
Mof_C 	C 	0.6994	0.5112	0.7861	0.104
Mof_H 	H 	0.7413	0.5095	0.7805	0.043
Mof_C 	C 	0.5774	0.5163	0.801	0.061
Mof_C 	C 	0.6951	0.399	0.7798	0.564
Mof_C 	C 	0.6718	0.5652	0.7936	-0.162
Mof_C 	C 	0.6098	0.568	0.8019	0.003
Mof_H 	H 	0.5907	0.6052	0.8081	0.073
Mof_C 	C 	0.7052	0.6231	0.7946	0.576
Mof_N 	N 	0.5138	0.5229	0.8042	-0.068
Mof_O 	O 	0.7478	0.39696	0.7614	-0.673
Mof_O 	O 	0.7592	0.6214	0.7802	-0.666
Mof_O 	O 	0.6627	0.3543	0.7935	-0.696
Mof_O 	O 	0.6758	0.6677	0.8106	-0.703
Mof_O 	O 	0.8716	0.388	0.736	0.45
Mof_Br	Br	0.89179	0.40162	0.7368	-1.022
Mof_In	In	0.80633	0.6777	0.26084	2.661
Mof_C 	C 	0.6047	0.5388	0.205	0.008
Mof_H 	H 	0.5819	0.5743	0.2033	0.068
Mof_C 	C 	0.6662	0.5412	0.2134	-0.161
Mof_C 	C 	0.6994	0.4888	0.2139	0.104
Mof_H 	H 	0.7413	0.4905	0.2195	0.043
Mof_C 	C 	0.5774	0.4837	0.199	0.061
Mof_C 	C 	0.6951	0.601	0.2202	0.564
Mof_C 	C 	0.6718	0.4348	0.2064	-0.162
Mof_C 	C 	0.6098	0.432	0.1981	0.003
Mof_H 	H 	0.5907	0.3948	0.1919	0.073
Mof_C 	C 	0.7052	0.3769	0.2054	0.576
Mof_N 	N 	0.5138	0.4771	0.1958	-0.068
Mof_O 	O 	0.7478	0.60304	0.2386	-0.673
Mof_O 	O 	0.7592	0.3786	0.2198	-0.666
Mof_O 	O 	0.6627	0.6457	0.2065	-0.696
Mof_O 	O 	0.6758	0.3323	0.1894	-0.703
Mof_O 	O 	0.8716	0.612	0.264	0.45
Mof_Br	Br	0.89179	0.59838	0.2632	-1.022
Mof_In	In	0.19367	0.6777	0.73916	2.661
Mof_C 	C 	0.3953	0.5388	0.795	0.008
Mof_H 	H 	0.4181	0.5743	0.7967	0.068
Mof_C 	C 	0.3338	0.5412	0.7866	-0.161
Mof_C 	C 	0.3006	0.4888	0.7861	0.104
Mof_H 	H 	0.2587	0.4905	0.7805	0.043
Mof_C 	C 	0.4226	0.4837	0.801	0.061
Mof_C 	C 	0.3049	0.601	0.7798	0.564
Mof_C 	C 	0.3282	0.4348	0.7936	-0.162
Mof_C 	C 	0.3902	0.432	0.8019	0.003
Mof_H 	H 	0.4093	0.3948	0.8081	0.073
Mof_C 	C 	0.2948	0.3769	0.7946	0.576
Mof_N 	N 	0.4862	0.4771	0.8042	-0.068
Mof_O 	O 	0.2522	0.60304	0.7614	-0.673
Mof_O 	O 	0.2408	0.3786	0.7802	-0.666
Mof_O 	O 	0.3373	0.6457	0.7935	-0.696
Mof_O 	O 	0.3242	0.3323	0.8106	-0.703
Mof_O 	O 	0.1284	0.612	0.736	0.45
Mof_Br	Br	0.10821	0.59838	0.7368	-1.022
Mof_In	In	0.19367	0.3223	0.26084	2.661
Mof_C 	C 	0.3953	0.4612	0.205	0.008
Mof_H 	H 	0.4181	0.4257	0.2033	0.068
Mof_C 	C 	0.3338	0.4588	0.2134	-0.161
Mof_C 	C 	0.3006	0.5112	0.2139	0.104
Mof_H 	H 	0.2587	0.5095	0.2195	0.043
Mof_C 	C 	0.4226	0.5163	0.199	0.061
Mof_C 	C 	0.3049	0.399	0.2202	0.564
Mof_C 	C 	0.3282	0.5652	0.2064	-0.162
Mof_C 	C 	0.3902	0.568	0.1981	0.003
Mof_H 	H 	0.4093	0.6052	0.1919	0.073
Mof_C 	C 	0.2948	0.6231	0.2054	0.576
Mof_N 	N 	0.4862	0.5229	0.1958	-0.068
Mof_O 	O 	0.2522	0.39696	0.2386	-0.673
Mof_O 	O 	0.2408	0.6214	0.2198	-0.666
Mof_O 	O 	0.3373	0.3543	0.2065	-0.696
Mof_O 	O 	0.3242	0.6677	0.1894	-0.703
Mof_O 	O 	0.1284	0.388	0.264	0.45
Mof_Br	Br	0.10821	0.40162	0.2632	-1.022
Mof_In	In	0.73916	0.80633	0.3223	2.661
Mof_C 	C 	0.795	0.6047	0.4612	0.008
Mof_H 	H 	0.7967	0.5819	0.4257	0.068
Mof_C 	C 	0.7866	0.6662	0.4588	-0.161
Mof_C 	C 	0.7861	0.6994	0.5112	0.104
Mof_H 	H 	0.7805	0.7413	0.5095	0.043
Mof_C 	C 	0.801	0.5774	0.5163	0.061
Mof_C 	C 	0.7798	0.6951	0.399	0.564
Mof_C 	C 	0.7936	0.6718	0.5652	-0.162
Mof_C 	C 	0.8019	0.6098	0.568	0.003
Mof_H 	H 	0.8081	0.5907	0.6052	0.073
Mof_C 	C 	0.7946	0.7052	0.6231	0.576
Mof_N 	N 	0.8042	0.5138	0.5229	-0.068
Mof_O 	O 	0.7614	0.7478	0.39696	-0.673
Mof_O 	O 	0.7802	0.7592	0.6214	-0.666
Mof_O 	O 	0.7935	0.6627	0.3543	-0.696
Mof_O 	O 	0.8106	0.6758	0.6677	-0.703
Mof_O 	O 	0.736	0.8716	0.388	0.45
Mof_Br	Br	0.7368	0.89179	0.40162	-1.022
Mof_In	In	0.26084	0.80633	0.6777	2.661
Mof_C 	C 	0.205	0.6047	0.5388	0.008
Mof_H 	H 	0.2033	0.5819	0.5743	0.068
Mof_C 	C 	0.2134	0.6662	0.5412	-0.161
Mof_C 	C 	0.2139	0.6994	0.4888	0.104
Mof_H 	H 	0.2195	0.7413	0.4905	0.043
Mof_C 	C 	0.199	0.5774	0.4837	0.061
Mof_C 	C 	0.2202	0.6951	0.601	0.564
Mof_C 	C 	0.2064	0.6718	0.4348	-0.162
Mof_C 	C 	0.1981	0.6098	0.432	0.003
Mof_H 	H 	0.1919	0.5907	0.3948	0.073
Mof_C 	C 	0.2054	0.7052	0.3769	0.576
Mof_N 	N 	0.1958	0.5138	0.4771	-0.068
Mof_O 	O 	0.2386	0.7478	0.60304	-0.673
Mof_O 	O 	0.2198	0.7592	0.3786	-0.666
Mof_O 	O 	0.2065	0.6627	0.6457	-0.696
Mof_O 	O 	0.1894	0.6758	0.3323	-0.703
Mof_O 	O 	0.264	0.8716	0.612	0.45
Mof_Br	Br	0.2632	0.89179	0.59838	-1.022
Mof_In	In	0.73916	0.19367	0.6777	2.661
Mof_C 	C 	0.795	0.3953	0.5388	0.008
Mof_H 	H 	0.7967	0.4181	0.5743	0.068
Mof_C 	C 	0.7866	0.3338	0.5412	-0.161
Mof_C 	C 	0.7861	0.3006	0.4888	0.104
Mof_H 	H 	0.7805	0.2587	0.4905	0.043
Mof_C 	C 	0.801	0.4226	0.4837	0.061
Mof_C 	C 	0.7798	0.3049	0.601	0.564
Mof_C 	C 	0.7936	0.3282	0.4348	-0.162
Mof_C 	C 	0.8019	0.3902	0.432	0.003
Mof_H 	H 	0.8081	0.4093	0.3948	0.073
Mof_C 	C 	0.7946	0.2948	0.3769	0.576
Mof_N 	N 	0.8042	0.4862	0.4771	-0.068
Mof_O 	O 	0.7614	0.2522	0.60304	-0.673
Mof_O 	O 	0.7802	0.2408	0.3786	-0.666
Mof_O 	O 	0.7935	0.3373	0.6457	-0.696
Mof_O 	O 	0.8106	0.3242	0.3323	-0.703
Mof_O 	O 	0.736	0.1284	0.612	0.45
Mof_Br	Br	0.7368	0.10821	0.59838	-1.022
Mof_In	In	0.26084	0.19367	0.3223	2.661
Mof_C 	C 	0.205	0.3953	0.4612	0.008
Mof_H 	H 	0.2033	0.4181	0.4257	0.068
Mof_C 	C 	0.2134	0.3338	0.4588	-0.161
Mof_C 	C 	0.2139	0.3006	0.5112	0.104
Mof_H 	H 	0.2195	0.2587	0.5095	0.043
Mof_C 	C 	0.199	0.4226	0.5163	0.061
Mof_C 	C 	0.2202	0.3049	0.399	0.564
Mof_C 	C 	0.2064	0.3282	0.5652	-0.162
Mof_C 	C 	0.1981	0.3902	0.568	0.003
Mof_H 	H 	0.1919	0.4093	0.6052	0.073
Mof_C 	C 	0.2054	0.2948	0.6231	0.576
Mof_N 	N 	0.1958	0.4862	0.5229	-0.068
Mof_O 	O 	0.2386	0.2522	0.39696	-0.673
Mof_O 	O 	0.2198	0.2408	0.6214	-0.666
Mof_O 	O 	0.2065	0.3373	0.3543	-0.696
Mof_O 	O 	0.1894	0.3242	0.6677	-0.703
Mof_O 	O 	0.264	0.1284	0.388	0.45
Mof_Br	Br	0.2632	0.10821	0.40162	-1.022
Mof_In	In	0.23916	0.8223	0.30633	2.661
Mof_C 	C 	0.295	0.9612	0.1047	0.008
Mof_H 	H 	0.2967	0.9257	0.0819	0.068
Mof_C 	C 	0.2866	0.9588	0.1662	-0.161
Mof_C 	C 	0.2861	0.0112	0.1994	0.104
Mof_H 	H 	0.2805	0.0095	0.2413	0.042
Mof_C 	C 	0.301	0.0163	0.0774	0.06
Mof_C 	C 	0.2798	0.899	0.1951	0.564
Mof_C 	C 	0.2936	0.0652	0.1718	-0.162
Mof_C 	C 	0.3019	0.068	0.1098	0.003
Mof_H 	H 	0.3081	0.1052	0.0907	0.073
Mof_C 	C 	0.2946	0.1231	0.2052	0.576
Mof_N 	N 	0.3042	0.0229	0.0138	-0.068
Mof_O 	O 	0.2614	0.89696	0.2478	-0.673
Mof_O 	O 	0.2802	0.1214	0.2592	-0.666
Mof_O 	O 	0.2935	0.8543	0.1627	-0.696
Mof_O 	O 	0.3106	0.1677	0.1758	-0.703
Mof_O 	O 	0.236	0.888	0.3716	0.45
Mof_Br	Br	0.2368	0.90162	0.39179	-1.022
Mof_In	In	0.76084	0.1777	0.30633	2.661
Mof_C 	C 	0.705	0.0388	0.1047	0.008
Mof_H 	H 	0.7033	0.0743	0.0819	0.068
Mof_C 	C 	0.7134	0.0412	0.1662	-0.161
Mof_C 	C 	0.7139	0.9888	0.1994	0.104
Mof_H 	H 	0.7195	0.9905	0.2413	0.042
Mof_C 	C 	0.699	0.9837	0.0774	0.06
Mof_C 	C 	0.7202	0.101	0.1951	0.564
Mof_C 	C 	0.7064	0.9348	0.1718	-0.162
Mof_C 	C 	0.6981	0.932	0.1098	0.003
Mof_H 	H 	0.6919	0.8948	0.0907	0.073
Mof_C 	C 	0.7054	0.8769	0.2052	0.576
Mof_N 	N 	0.6958	0.9771	0.0138	-0.068
Mof_O 	O 	0.7386	0.10304	0.2478	-0.673
Mof_O 	O 	0.7198	0.8786	0.2592	-0.666
Mof_O 	O 	0.7065	0.1457	0.1627	-0.696
Mof_O 	O 	0.6894	0.8323	0.1758	-0.703
Mof_O 	O 	0.764	0.112	0.3716	0.45
Mof_Br	Br	0.7632	0.09838	0.39179	-1.022
Mof_In	In	0.23916	0.1777	0.69367	2.661
Mof_C 	C 	0.295	0.0388	0.8953	0.008
Mof_H 	H 	0.2967	0.0743	0.9181	0.068
Mof_C 	C 	0.2866	0.0412	0.8338	-0.161
Mof_C 	C 	0.2861	0.9888	0.8006	0.104
Mof_H 	H 	0.2805	0.9905	0.7587	0.042
Mof_C 	C 	0.301	0.9837	0.9226	0.06
Mof_C 	C 	0.2798	0.101	0.8049	0.564
Mof_C 	C 	0.2936	0.9348	0.8282	-0.162
Mof_C 	C 	0.3019	0.932	0.8902	0.003
Mof_H 	H 	0.3081	0.8948	0.9093	0.073
Mof_C 	C 	0.2946	0.8769	0.7948	0.576
Mof_N 	N 	0.3042	0.9771	0.9862	-0.068
Mof_O 	O 	0.2614	0.10304	0.7522	-0.673
Mof_O 	O 	0.2802	0.8786	0.7408	-0.666
Mof_O 	O 	0.2935	0.1457	0.8373	-0.696
Mof_O 	O 	0.3106	0.8323	0.8242	-0.703
Mof_O 	O 	0.236	0.112	0.6284	0.45
Mof_Br	Br	0.2368	0.09838	0.60821	-1.022
Mof_In	In	0.76084	0.8223	0.69367	2.661
Mof_C 	C 	0.705	0.9612	0.8953	0.008
Mof_H 	H 	0.7033	0.9257	0.9181	0.068
Mof_C 	C 	0.7134	0.9588	0.8338	-0.161
Mof_C 	C 	0.7139	0.0112	0.8006	0.104
Mof_H 	H 	0.7195	0.0095	0.7587	0.042
Mof_C 	C 	0.699	0.0163	0.9226	0.06
Mof_C 	C 	0.7202	0.899	0.8049	0.564
Mof_C 	C 	0.7064	0.0652	0.8282	-0.162
Mof_C 	C 	0.6981	0.068	0.8902	0.003
Mof_H 	H 	0.6919	0.1052	0.9093	0.073
Mof_C 	C 	0.7054	0.1231	0.7948	0.576
Mof_N 	N 	0.6958	0.0229	0.9862	-0.068
Mof_O 	O 	0.7386	0.89696	0.7522	-0.673
Mof_O 	O 	0.7198	0.1214	0.7408	-0.666
Mof_O 	O 	0.7065	0.8543	0.8373	-0.696
Mof_O 	O 	0.6894	0.1677	0.8242	-0.703
Mof_O 	O 	0.764	0.888	0.6284	0.45
Mof_Br	Br	0.7632	0.90162	0.60821	-1.022
Mof_In	In	0.8223	0.30633	0.23916	2.661
Mof_C 	C 	0.9612	0.1047	0.295	0.008
Mof_H 	H 	0.9257	0.0819	0.2967	0.068
Mof_C 	C 	0.9588	0.1662	0.2866	-0.161
Mof_C 	C 	0.0112	0.1994	0.2861	0.104
Mof_H 	H 	0.0095	0.2413	0.2805	0.042
Mof_C 	C 	0.0163	0.0774	0.301	0.06
Mof_C 	C 	0.899	0.1951	0.2798	0.564
Mof_C 	C 	0.0652	0.1718	0.2936	-0.162
Mof_C 	C 	0.068	0.1098	0.3019	0.003
Mof_H 	H 	0.1052	0.0907	0.3081	0.073
Mof_C 	C 	0.1231	0.2052	0.2946	0.576
Mof_N 	N 	0.0229	0.0138	0.3042	-0.068
Mof_O 	O 	0.89696	0.2478	0.2614	-0.673
Mof_O 	O 	0.1214	0.2592	0.2802	-0.666
Mof_O 	O 	0.8543	0.1627	0.2935	-0.696
Mof_O 	O 	0.1677	0.1758	0.3106	-0.703
Mof_O 	O 	0.888	0.3716	0.236	0.45
Mof_Br	Br	0.90162	0.39179	0.2368	-1.022
Mof_In	In	0.1777	0.30633	0.76084	2.661
Mof_C 	C 	0.0388	0.1047	0.705	0.008
Mof_H 	H 	0.0743	0.0819	0.7033	0.068
Mof_C 	C 	0.0412	0.1662	0.7134	-0.161
Mof_C 	C 	0.9888	0.1994	0.7139	0.104
Mof_H 	H 	0.9905	0.2413	0.7195	0.042
Mof_C 	C 	0.9837	0.0774	0.699	0.06
Mof_C 	C 	0.101	0.1951	0.7202	0.564
Mof_C 	C 	0.9348	0.1718	0.7064	-0.162
Mof_C 	C 	0.932	0.1098	0.6981	0.003
Mof_H 	H 	0.8948	0.0907	0.6919	0.073
Mof_C 	C 	0.8769	0.2052	0.7054	0.576
Mof_N 	N 	0.9771	0.0138	0.6958	-0.068
Mof_O 	O 	0.10304	0.2478	0.7386	-0.673
Mof_O 	O 	0.8786	0.2592	0.7198	-0.666
Mof_O 	O 	0.1457	0.1627	0.7065	-0.696
Mof_O 	O 	0.8323	0.1758	0.6894	-0.703
Mof_O 	O 	0.112	0.3716	0.764	0.45
Mof_Br	Br	0.09838	0.39179	0.7632	-1.022
Mof_In	In	0.1777	0.69367	0.23916	2.661
Mof_C 	C 	0.0388	0.8953	0.295	0.008
Mof_H 	H 	0.0743	0.9181	0.2967	0.068
Mof_C 	C 	0.0412	0.8338	0.2866	-0.161
Mof_C 	C 	0.9888	0.8006	0.2861	0.104
Mof_H 	H 	0.9905	0.7587	0.2805	0.042
Mof_C 	C 	0.9837	0.9226	0.301	0.06
Mof_C 	C 	0.101	0.8049	0.2798	0.564
Mof_C 	C 	0.9348	0.8282	0.2936	-0.162
Mof_C 	C 	0.932	0.8902	0.3019	0.003
Mof_H 	H 	0.8948	0.9093	0.3081	0.073
Mof_C 	C 	0.8769	0.7948	0.2946	0.576
Mof_N 	N 	0.9771	0.9862	0.3042	-0.068
Mof_O 	O 	0.10304	0.7522	0.2614	-0.673
Mof_O 	O 	0.8786	0.7408	0.2802	-0.666
Mof_O 	O 	0.1457	0.8373	0.2935	-0.696
Mof_O 	O 	0.8323	0.8242	0.3106	-0.703
Mof_O 	O 	0.112	0.6284	0.236	0.45
Mof_Br	Br	0.09838	0.60821	0.2368	-1.022
Mof_In	In	0.8223	0.69367	0.76084	2.661
Mof_C 	C 	0.9612	0.8953	0.705	0.008
Mof_H 	H 	0.9257	0.9181	0.7033	0.068
Mof_C 	C 	0.9588	0.8338	0.7134	-0.161
Mof_C 	C 	0.0112	0.8006	0.7139	0.104
Mof_H 	H 	0.0095	0.7587	0.7195	0.042
Mof_C 	C 	0.0163	0.9226	0.699	0.06
Mof_C 	C 	0.899	0.8049	0.7202	0.564
Mof_C 	C 	0.0652	0.8282	0.7064	-0.162
Mof_C 	C 	0.068	0.8902	0.6981	0.003
Mof_H 	H 	0.1052	0.9093	0.6919	0.073
Mof_C 	C 	0.1231	0.7948	0.7054	0.576
Mof_N 	N 	0.0229	0.9862	0.6958	-0.068
Mof_O 	O 	0.89696	0.7522	0.7386	-0.673
Mof_O 	O 	0.1214	0.7408	0.7198	-0.666
Mof_O 	O 	0.8543	0.8373	0.7065	-0.696
Mof_O 	O 	0.1677	0.8242	0.6894	-0.703
Mof_O 	O 	0.888	0.6284	0.764	0.45
Mof_Br	Br	0.90162	0.60821	0.7632	-1.022
Mof_In	In	0.30633	0.23916	0.8223	2.661
Mof_C 	C 	0.1047	0.295	0.9612	0.008
Mof_H 	H 	0.0819	0.2967	0.9257	0.068
Mof_C 	C 	0.1662	0.2866	0.9588	-0.161
Mof_C 	C 	0.1994	0.2861	0.0112	0.104
Mof_H 	H 	0.2413	0.2805	0.0095	0.042
Mof_C 	C 	0.0774	0.301	0.0163	0.06
Mof_C 	C 	0.1951	0.2798	0.899	0.564
Mof_C 	C 	0.1718	0.2936	0.0652	-0.162
Mof_C 	C 	0.1098	0.3019	0.068	0.003
Mof_H 	H 	0.0907	0.3081	0.1052	0.073
Mof_C 	C 	0.2052	0.2946	0.1231	0.576
Mof_N 	N 	0.0138	0.3042	0.0229	-0.068
Mof_O 	O 	0.2478	0.2614	0.89696	-0.673
Mof_O 	O 	0.2592	0.2802	0.1214	-0.666
Mof_O 	O 	0.1627	0.2935	0.8543	-0.696
Mof_O 	O 	0.1758	0.3106	0.1677	-0.703
Mof_O 	O 	0.3716	0.236	0.888	0.45
Mof_Br	Br	0.39179	0.2368	0.90162	-1.022
Mof_In	In	0.30633	0.76084	0.1777	2.661
Mof_C 	C 	0.1047	0.705	0.0388	0.008
Mof_H 	H 	0.0819	0.7033	0.0743	0.068
Mof_C 	C 	0.1662	0.7134	0.0412	-0.161
Mof_C 	C 	0.1994	0.7139	0.9888	0.104
Mof_H 	H 	0.2413	0.7195	0.9905	0.042
Mof_C 	C 	0.0774	0.699	0.9837	0.06
Mof_C 	C 	0.1951	0.7202	0.101	0.564
Mof_C 	C 	0.1718	0.7064	0.9348	-0.162
Mof_C 	C 	0.1098	0.6981	0.932	0.003
Mof_H 	H 	0.0907	0.6919	0.8948	0.073
Mof_C 	C 	0.2052	0.7054	0.8769	0.576
Mof_N 	N 	0.0138	0.6958	0.9771	-0.068
Mof_O 	O 	0.2478	0.7386	0.10304	-0.673
Mof_O 	O 	0.2592	0.7198	0.8786	-0.666
Mof_O 	O 	0.1627	0.7065	0.1457	-0.696
Mof_O 	O 	0.1758	0.6894	0.8323	-0.703
Mof_O 	O 	0.3716	0.764	0.112	0.45
Mof_Br	Br	0.39179	0.7632	0.09838	-1.022
Mof_In	In	0.69367	0.23916	0.1777	2.661
Mof_C 	C 	0.8953	0.295	0.0388	0.008
Mof_H 	H 	0.9181	0.2967	0.0743	0.068
Mof_C 	C 	0.8338	0.2866	0.0412	-0.161
Mof_C 	C 	0.8006	0.2861	0.9888	0.104
Mof_H 	H 	0.7587	0.2805	0.9905	0.042
Mof_C 	C 	0.9226	0.301	0.9837	0.06
Mof_C 	C 	0.8049	0.2798	0.101	0.564
Mof_C 	C 	0.8282	0.2936	0.9348	-0.162
Mof_C 	C 	0.8902	0.3019	0.932	0.003
Mof_H 	H 	0.9093	0.3081	0.8948	0.073
Mof_C 	C 	0.7948	0.2946	0.8769	0.576
Mof_N 	N 	0.9862	0.3042	0.9771	-0.068
Mof_O 	O 	0.7522	0.2614	0.10304	-0.673
Mof_O 	O 	0.7408	0.2802	0.8786	-0.666
Mof_O 	O 	0.8373	0.2935	0.1457	-0.696
Mof_O 	O 	0.8242	0.3106	0.8323	-0.703
Mof_O 	O 	0.6284	0.236	0.112	0.45
Mof_Br	Br	0.60821	0.2368	0.09838	-1.022
Mof_In	In	0.69367	0.76084	0.8223	2.661
Mof_C 	C 	0.8953	0.705	0.9612	0.008
Mof_H 	H 	0.9181	0.7033	0.9257	0.068
Mof_C 	C 	0.8338	0.7134	0.9588	-0.161
Mof_C 	C 	0.8006	0.7139	0.0112	0.104
Mof_H 	H 	0.7587	0.7195	0.0095	0.042
Mof_C 	C 	0.9226	0.699	0.0163	0.06
Mof_C 	C 	0.8049	0.7202	0.899	0.564
Mof_C 	C 	0.8282	0.7064	0.0652	-0.162
Mof_C 	C 	0.8902	0.6981	0.068	0.003
Mof_H 	H 	0.9093	0.6919	0.1052	0.073
Mof_C 	C 	0.7948	0.7054	0.1231	0.576
Mof_N 	N 	0.9862	0.6958	0.0229	-0.068
Mof_O 	O 	0.7522	0.7386	0.89696	-0.673
Mof_O 	O 	0.7408	0.7198	0.1214	-0.666
Mof_O 	O 	0.8373	0.7065	0.8543	-0.696
Mof_O 	O 	0.8242	0.6894	0.1677	-0.703
Mof_O 	O 	0.6284	0.764	0.888	0.45
Mof_Br	Br	0.60821	0.7632	0.90162	-1.022
Mof_O 	O 	0.2596	0.7404	0.7404	-1.38
Mof_O 	O 	0.7404	0.2596	0.7404	-1.38
Mof_O 	O 	0.7404	0.7404	0.2596	-1.38
Mof_O 	O 	0.2596	0.2596	0.2596	-1.38
Mof_O 	O 	0.2404	0.7596	0.2404	-1.38
Mof_O 	O 	0.7596	0.2404	0.2404	-1.38
Mof_O 	O 	0.2404	0.2404	0.7596	-1.38
Mof_O 	O 	0.7596	0.7596	0.7596	-1.38
_end
