data_functionalizedCrystal
_audit_creation_method	'EQeq! by Chris Wilmer'
_symmetry_space_group_name_H-M	'P1'
_symmetry_Int_Tables_number	1
_symmetry_cell_setting	triclinic
loop_
_symmetry_equiv_pos_as_xyz
  x,y,z
_cell_length_a	26.9629
_cell_length_b	26.9629
_cell_length_c	27.5365
_cell_angle_alpha	90
_cell_angle_beta	90
_cell_angle_gamma	90
loop_
_atom_site_label
_atom_site_type_symbol
_atom_site_fract_x
_atom_site_fract_y
_atom_site_fract_z
_atom_site_charge
Mof_N 	N 	0.4185	0.4877	0.6897	-0.251
Mof_N 	N 	0.6919	0.4166	0.4855	-0.245
Mof_C 	C 	0.3957	0.467	0.651	0.079
Mof_H 	H 	0.3663	0.4497	0.6562	-0.021
Mof_C 	C 	0.4139	0.4701	0.6044	-0.158
Mof_H 	H 	0.3969	0.4556	0.5786	0.084
Mof_C 	C 	0.4585	0.4955	0.5965	0.09
Mof_C 	C 	0.4832	0.5143	0.6364	-0.166
Mof_H 	H 	0.514	0.5294	0.6328	0.082
Mof_C 	C 	0.4615	0.5104	0.682	0.086
Mof_H 	H 	0.4779	0.5243	0.7084	-0.026
Mof_C 	C 	0.4797	0.4994	0.5474	-0.022
Mof_C 	C 	0.5286	0.4853	0.539	-0.057
Mof_H 	H 	0.548	0.4758	0.5653	0.048
Mof_C 	C 	0.5494	0.4849	0.4932	-0.021
Mof_C 	C 	0.5996	0.4635	0.488	0.091
Mof_C 	C 	0.6383	0.4797	0.5171	-0.162
Mof_H 	H 	0.634	0.5066	0.5378	0.082
Mof_C 	C 	0.6836	0.4554	0.5148	0.081
Mof_H 	H 	0.7094	0.4666	0.5345	-0.02
Mof_C 	C 	0.655	0.402	0.4568	0.083
Mof_H 	H 	0.6608	0.3759	0.4354	-0.019
Mof_C 	C 	0.6083	0.4237	0.4571	-0.161
Mof_H 	H 	0.5833	0.4118	0.437	0.085
Mof_N 	N 	0.9185	0.9877	0.1897	-0.236
Mof_N 	N 	0.1919	0.9166	0.9855	-0.221
Mof_C 	C 	0.8957	0.967	0.151	0.079
Mof_H 	H 	0.8663	0.9497	0.1562	-0.018
Mof_C 	C 	0.9139	0.9701	0.1044	-0.147
Mof_H 	H 	0.8969	0.9556	0.0786	0.082
Mof_C 	C 	0.9585	0.9955	0.0965	0.086
Mof_C 	C 	0.9832	0.0143	0.1364	-0.173
Mof_H 	H 	0.014	0.0294	0.1328	0.078
Mof_C 	C 	0.9615	0.0104	0.182	0.067
Mof_H 	H 	0.9779	0.0243	0.2084	-0.023
Mof_C 	C 	0.9797	0.9994	0.0474	0.04
Mof_C 	C 	0.0286	0.9853	0.039	-0.137
Mof_H 	H 	0.048	0.9758	0.0653	0.076
Mof_C 	C 	0.0494	0.9849	0.9932	0.064
Mof_C 	C 	0.0996	0.9635	0.988	0.07
Mof_C 	C 	0.1383	0.9797	0.0171	-0.121
Mof_H 	H 	0.134	0.0066	0.0378	0.048
Mof_C 	C 	0.1836	0.9554	0.0148	0.035
Mof_H 	H 	0.2094	0.9666	0.0345	-0.005
Mof_C 	C 	0.155	0.902	0.9568	0.076
Mof_H 	H 	0.1608	0.8759	0.9354	-0.014
Mof_C 	C 	0.1083	0.9237	0.9571	-0.136
Mof_H 	H 	0.0833	0.9118	0.937	0.081
Mof_N 	N 	0.0815	0.5123	0.1897	-0.248
Mof_N 	N 	0.8081	0.5834	0.9855	-0.229
Mof_C 	C 	0.1043	0.533	0.151	0.074
Mof_H 	H 	0.1337	0.5503	0.1562	-0.02
Mof_C 	C 	0.0861	0.5299	0.1044	-0.148
Mof_H 	H 	0.1031	0.5444	0.0786	0.079
Mof_C 	C 	0.0415	0.5045	0.0965	0.077
Mof_C 	C 	0.0168	0.4857	0.1364	-0.157
Mof_H 	H 	0.986	0.4706	0.1328	0.078
Mof_C 	C 	0.0385	0.4896	0.182	0.082
Mof_H 	H 	0.0221	0.4757	0.2084	-0.024
Mof_C 	C 	0.0203	0.5006	0.0474	0.004
Mof_C 	C 	0.9714	0.5147	0.039	-0.108
Mof_H 	H 	0.952	0.5242	0.0653	0.062
Mof_C 	C 	0.9506	0.5151	0.9932	0.018
Mof_C 	C 	0.9004	0.5365	0.988	0.105
Mof_C 	C 	0.8617	0.5203	0.0171	-0.183
Mof_H 	H 	0.866	0.4934	0.0378	0.083
Mof_C 	C 	0.8164	0.5446	0.0148	0.064
Mof_H 	H 	0.7906	0.5334	0.0345	-0.019
Mof_C 	C 	0.845	0.598	0.9568	0.089
Mof_H 	H 	0.8392	0.6241	0.9354	-0.019
Mof_C 	C 	0.8917	0.5763	0.9571	-0.161
Mof_H 	H 	0.9167	0.5882	0.937	0.088
Mof_N 	N 	0.5815	0.0123	0.6897	-0.26
Mof_N 	N 	0.3081	0.0834	0.4855	-0.252
Mof_C 	C 	0.6043	0.033	0.651	0.075
Mof_H 	H 	0.6337	0.0503	0.6562	-0.021
Mof_C 	C 	0.5861	0.0299	0.6044	-0.159
Mof_H 	H 	0.6031	0.0444	0.5786	0.082
Mof_C 	C 	0.5415	0.0045	0.5965	0.082
Mof_C 	C 	0.5168	0.9857	0.6364	-0.149
Mof_H 	H 	0.486	0.9706	0.6328	0.083
Mof_C 	C 	0.5385	0.9896	0.682	0.101
Mof_H 	H 	0.5221	0.9757	0.7084	-0.024
Mof_C 	C 	0.5203	0.0006	0.5474	-0.059
Mof_C 	C 	0.4714	0.0147	0.539	-0.026
Mof_H 	H 	0.452	0.0242	0.5653	0.034
Mof_C 	C 	0.4506	0.0151	0.4932	-0.068
Mof_C 	C 	0.4004	0.0365	0.488	0.126
Mof_C 	C 	0.3617	0.0203	0.5171	-0.225
Mof_H 	H 	0.366	0.9934	0.5378	0.118
Mof_C 	C 	0.3164	0.0446	0.5148	0.11
Mof_H 	H 	0.2906	0.0334	0.5345	-0.034
Mof_C 	C 	0.345	0.098	0.4568	0.096
Mof_H 	H 	0.3392	0.1241	0.4354	-0.024
Mof_C 	C 	0.3917	0.0763	0.4571	-0.186
Mof_H 	H 	0.4167	0.0882	0.437	0.092
Mof_N 	N 	0.7623	0.1685	0.9397	-0.244
Mof_N 	N 	0.8334	0.4419	0.7355	-0.244
Mof_C 	C 	0.783	0.1457	0.901	0.08
Mof_H 	H 	0.8003	0.1163	0.9062	-0.019
Mof_C 	C 	0.7799	0.1639	0.8544	-0.156
Mof_H 	H 	0.7944	0.1469	0.8286	0.084
Mof_C 	C 	0.7545	0.2085	0.8465	0.091
Mof_C 	C 	0.7357	0.2332	0.8864	-0.163
Mof_H 	H 	0.7206	0.264	0.8828	0.084
Mof_C 	C 	0.7396	0.2115	0.932	0.087
Mof_H 	H 	0.7257	0.2279	0.9584	-0.019
Mof_C 	C 	0.7506	0.2297	0.7974	-0.021
Mof_C 	C 	0.7647	0.2786	0.789	-0.057
Mof_H 	H 	0.7742	0.298	0.8153	0.049
Mof_C 	C 	0.7651	0.2994	0.7432	-0.021
Mof_C 	C 	0.7865	0.3496	0.738	0.091
Mof_C 	C 	0.7703	0.3883	0.7671	-0.162
Mof_H 	H 	0.7434	0.384	0.7878	0.082
Mof_C 	C 	0.7946	0.4336	0.7648	0.081
Mof_H 	H 	0.7834	0.4594	0.7845	-0.02
Mof_C 	C 	0.848	0.405	0.7068	0.083
Mof_H 	H 	0.8741	0.4108	0.6854	-0.019
Mof_C 	C 	0.8263	0.3583	0.7071	-0.161
Mof_H 	H 	0.8382	0.3333	0.687	0.086
Mof_N 	N 	0.2623	0.6685	0.4397	-0.25
Mof_N 	N 	0.3334	0.9419	0.2355	-0.239
Mof_C 	C 	0.283	0.6457	0.401	0.08
Mof_H 	H 	0.3003	0.6163	0.4062	-0.02
Mof_C 	C 	0.2799	0.6639	0.3544	-0.157
Mof_H 	H 	0.2944	0.6469	0.3286	0.085
Mof_C 	C 	0.2545	0.7085	0.3465	0.091
Mof_C 	C 	0.2357	0.7332	0.3864	-0.165
Mof_H 	H 	0.2206	0.764	0.3828	0.083
Mof_C 	C 	0.2396	0.7115	0.432	0.087
Mof_H 	H 	0.2257	0.7279	0.4584	-0.025
Mof_C 	C 	0.2506	0.7297	0.2974	-0.022
Mof_C 	C 	0.2647	0.7786	0.289	-0.057
Mof_H 	H 	0.2742	0.798	0.3153	0.049
Mof_C 	C 	0.2651	0.7994	0.2432	-0.02
Mof_C 	C 	0.2865	0.8496	0.238	0.091
Mof_C 	C 	0.2703	0.8883	0.2671	-0.161
Mof_H 	H 	0.2434	0.884	0.2878	0.083
Mof_C 	C 	0.2946	0.9336	0.2648	0.081
Mof_H 	H 	0.2834	0.9594	0.2845	-0.015
Mof_C 	C 	0.348	0.905	0.2068	0.084
Mof_H 	H 	0.3741	0.9108	0.1854	-0.017
Mof_C 	C 	0.3263	0.8583	0.2071	-0.16
Mof_H 	H 	0.3382	0.8333	0.187	0.085
Mof_N 	N 	0.7377	0.8315	0.4397	-0.25
Mof_N 	N 	0.6666	0.5581	0.2355	-0.244
Mof_C 	C 	0.717	0.8543	0.401	0.08
Mof_H 	H 	0.6997	0.8837	0.4062	-0.019
Mof_C 	C 	0.7201	0.8361	0.3544	-0.157
Mof_H 	H 	0.7056	0.8531	0.3286	0.086
Mof_C 	C 	0.7455	0.7915	0.3465	0.091
Mof_C 	C 	0.7643	0.7668	0.3864	-0.165
Mof_H 	H 	0.7794	0.736	0.3828	0.083
Mof_C 	C 	0.7604	0.7885	0.432	0.087
Mof_H 	H 	0.7743	0.7721	0.4584	-0.025
Mof_C 	C 	0.7494	0.7703	0.2974	-0.022
Mof_C 	C 	0.7353	0.7214	0.289	-0.057
Mof_H 	H 	0.7258	0.702	0.3153	0.048
Mof_C 	C 	0.7349	0.7006	0.2432	-0.021
Mof_C 	C 	0.7135	0.6504	0.238	0.091
Mof_C 	C 	0.7297	0.6117	0.2671	-0.162
Mof_H 	H 	0.7566	0.616	0.2878	0.081
Mof_C 	C 	0.7054	0.5664	0.2648	0.081
Mof_H 	H 	0.7166	0.5406	0.2845	-0.02
Mof_C 	C 	0.652	0.595	0.2068	0.083
Mof_H 	H 	0.6259	0.5892	0.1854	-0.02
Mof_C 	C 	0.6737	0.6417	0.2071	-0.161
Mof_H 	H 	0.6618	0.6667	0.187	0.085
Mof_N 	N 	0.2377	0.3315	0.9397	-0.244
Mof_N 	N 	0.1666	0.0581	0.7355	-0.246
Mof_C 	C 	0.217	0.3543	0.901	0.081
Mof_H 	H 	0.1997	0.3837	0.9062	-0.018
Mof_C 	C 	0.2201	0.3361	0.8544	-0.156
Mof_H 	H 	0.2056	0.3531	0.8286	0.085
Mof_C 	C 	0.2455	0.2915	0.8465	0.091
Mof_C 	C 	0.2643	0.2668	0.8864	-0.163
Mof_H 	H 	0.2794	0.236	0.8828	0.083
Mof_C 	C 	0.2604	0.2885	0.932	0.087
Mof_H 	H 	0.2743	0.2721	0.9584	-0.019
Mof_C 	C 	0.2494	0.2703	0.7974	-0.021
Mof_C 	C 	0.2353	0.2214	0.789	-0.057
Mof_H 	H 	0.2258	0.202	0.8153	0.049
Mof_C 	C 	0.2349	0.2006	0.7432	-0.021
Mof_C 	C 	0.2135	0.1504	0.738	0.092
Mof_C 	C 	0.2297	0.1117	0.7671	-0.164
Mof_H 	H 	0.2566	0.116	0.7878	0.081
Mof_C 	C 	0.2054	0.0664	0.7648	0.081
Mof_H 	H 	0.2166	0.0406	0.7845	-0.024
Mof_C 	C 	0.152	0.095	0.7068	0.083
Mof_H 	H 	0.1259	0.0892	0.6854	-0.021
Mof_C 	C 	0.1737	0.1417	0.7071	-0.161
Mof_H 	H 	0.1618	0.1667	0.687	0.086
Mof_N 	N 	0.0815	0.4877	0.3103	-0.25
Mof_N 	N 	0.8081	0.4166	0.5145	-0.244
Mof_C 	C 	0.1043	0.467	0.349	0.08
Mof_H 	H 	0.1337	0.4497	0.3438	-0.02
Mof_C 	C 	0.0861	0.4701	0.3956	-0.157
Mof_H 	H 	0.1031	0.4556	0.4214	0.085
Mof_C 	C 	0.0415	0.4955	0.4035	0.091
Mof_C 	C 	0.0168	0.5143	0.3636	-0.166
Mof_H 	H 	0.986	0.5294	0.3672	0.083
Mof_C 	C 	0.0385	0.5104	0.318	0.087
Mof_H 	H 	0.0221	0.5243	0.2916	-0.025
Mof_C 	C 	0.0203	0.4994	0.4526	-0.022
Mof_C 	C 	0.9714	0.4853	0.461	-0.056
Mof_H 	H 	0.952	0.4758	0.4347	0.048
Mof_C 	C 	0.9506	0.4849	0.5068	-0.021
Mof_C 	C 	0.9004	0.4635	0.512	0.091
Mof_C 	C 	0.8617	0.4797	0.4829	-0.162
Mof_H 	H 	0.866	0.5066	0.4622	0.082
Mof_C 	C 	0.8164	0.4554	0.4852	0.081
Mof_H 	H 	0.7906	0.4666	0.4655	-0.02
Mof_C 	C 	0.845	0.402	0.5432	0.083
Mof_H 	H 	0.8392	0.3759	0.5646	-0.019
Mof_C 	C 	0.8917	0.4237	0.5429	-0.161
Mof_H 	H 	0.9167	0.4118	0.563	0.086
Mof_N 	N 	0.5815	0.9877	0.8103	-0.239
Mof_N 	N 	0.3081	0.9166	0.0145	-0.247
Mof_C 	C 	0.6043	0.967	0.849	0.09
Mof_H 	H 	0.6337	0.9497	0.8438	-0.02
Mof_C 	C 	0.5861	0.9701	0.8956	-0.165
Mof_H 	H 	0.6031	0.9556	0.9214	0.095
Mof_C 	C 	0.5415	0.9955	0.9035	0.116
Mof_C 	C 	0.5168	0.0143	0.8636	-0.19
Mof_H 	H 	0.486	0.0294	0.8672	0.087
Mof_C 	C 	0.5385	0.0104	0.818	0.077
Mof_H 	H 	0.5221	0.0243	0.7916	-0.026
Mof_C 	C 	0.5203	0.9994	0.9526	-0.011
Mof_C 	C 	0.4714	0.9853	0.961	-0.035
Mof_H 	H 	0.452	0.9758	0.9347	0.049
Mof_C 	C 	0.4506	0.9849	0.0068	-0.014
Mof_C 	C 	0.4004	0.9635	0.012	0.044
Mof_C 	C 	0.3617	0.9797	0.9829	-0.08
Mof_H 	H 	0.366	0.0066	0.9622	0.044
Mof_C 	C 	0.3164	0.9554	0.9852	0.07
Mof_H 	H 	0.2906	0.9666	0.9655	-0.007
Mof_C 	C 	0.345	0.902	0.0432	0.066
Mof_H 	H 	0.3392	0.8759	0.0646	-0.014
Mof_C 	C 	0.3917	0.9237	0.0429	-0.135
Mof_H 	H 	0.4167	0.9118	0.063	0.078
Mof_N 	N 	0.4185	0.5123	0.8103	-0.252
Mof_N 	N 	0.6919	0.5834	0.0145	-0.256
Mof_C 	C 	0.3957	0.533	0.849	0.086
Mof_H 	H 	0.3663	0.5503	0.8438	-0.021
Mof_C 	C 	0.4139	0.5299	0.8956	-0.166
Mof_H 	H 	0.3969	0.5444	0.9214	0.092
Mof_C 	C 	0.4585	0.5045	0.9035	0.106
Mof_C 	C 	0.4832	0.4857	0.8636	-0.174
Mof_H 	H 	0.514	0.4706	0.8672	0.087
Mof_C 	C 	0.4615	0.4896	0.818	0.092
Mof_H 	H 	0.4779	0.4757	0.7916	-0.026
Mof_C 	C 	0.4797	0.5006	0.9526	-0.048
Mof_C 	C 	0.5286	0.5147	0.961	-0.005
Mof_H 	H 	0.548	0.5242	0.9347	0.034
Mof_C 	C 	0.5494	0.5151	0.0068	-0.061
Mof_C 	C 	0.5996	0.5365	0.012	0.078
Mof_C 	C 	0.6383	0.5203	0.9829	-0.141
Mof_H 	H 	0.634	0.4934	0.9622	0.08
Mof_C 	C 	0.6836	0.5446	0.9852	0.098
Mof_H 	H 	0.7094	0.5334	0.9655	-0.021
Mof_C 	C 	0.655	0.598	0.0432	0.078
Mof_H 	H 	0.6608	0.6241	0.0646	-0.019
Mof_C 	C 	0.6083	0.5763	0.0429	-0.16
Mof_H 	H 	0.5833	0.5882	0.063	0.084
Mof_N 	N 	0.9185	0.0123	0.3103	-0.26
Mof_N 	N 	0.1919	0.0834	0.5145	-0.252
Mof_C 	C 	0.8957	0.033	0.349	0.075
Mof_H 	H 	0.8663	0.0503	0.3438	-0.021
Mof_C 	C 	0.9139	0.0299	0.3956	-0.159
Mof_H 	H 	0.8969	0.0444	0.4214	0.082
Mof_C 	C 	0.9585	0.0045	0.4035	0.082
Mof_C 	C 	0.9832	0.9857	0.3636	-0.149
Mof_H 	H 	0.014	0.9706	0.3672	0.083
Mof_C 	C 	0.9615	0.9896	0.318	0.101
Mof_H 	H 	0.9779	0.9757	0.2916	-0.025
Mof_C 	C 	0.9797	0.0006	0.4526	-0.059
Mof_C 	C 	0.0286	0.0147	0.461	-0.026
Mof_H 	H 	0.048	0.0242	0.4347	0.034
Mof_C 	C 	0.0494	0.0151	0.5068	-0.068
Mof_C 	C 	0.0996	0.0365	0.512	0.126
Mof_C 	C 	0.1383	0.0203	0.4829	-0.225
Mof_H 	H 	0.134	0.9934	0.4622	0.118
Mof_C 	C 	0.1836	0.0446	0.4852	0.109
Mof_H 	H 	0.2094	0.0334	0.4655	-0.034
Mof_C 	C 	0.155	0.098	0.5432	0.096
Mof_H 	H 	0.1608	0.1241	0.5646	-0.024
Mof_C 	C 	0.1083	0.0763	0.5429	-0.186
Mof_H 	H 	0.0833	0.0882	0.563	0.092
Mof_N 	N 	0.7377	0.1685	0.0603	-0.253
Mof_N 	N 	0.6666	0.4419	0.2645	-0.244
Mof_C 	C 	0.717	0.1457	0.099	0.078
Mof_H 	H 	0.6997	0.1163	0.0938	-0.023
Mof_C 	C 	0.7201	0.1639	0.1456	-0.158
Mof_H 	H 	0.7056	0.1469	0.1714	0.084
Mof_C 	C 	0.7455	0.2085	0.1535	0.091
Mof_C 	C 	0.7643	0.2332	0.1136	-0.167
Mof_H 	H 	0.7794	0.264	0.1172	0.081
Mof_C 	C 	0.7604	0.2115	0.068	0.086
Mof_H 	H 	0.7743	0.2279	0.0416	-0.031
Mof_C 	C 	0.7494	0.2297	0.2026	-0.023
Mof_C 	C 	0.7353	0.2786	0.211	-0.056
Mof_H 	H 	0.7258	0.298	0.1847	0.047
Mof_C 	C 	0.7349	0.2994	0.2568	-0.022
Mof_C 	C 	0.7135	0.3496	0.262	0.091
Mof_C 	C 	0.7297	0.3883	0.2329	-0.163
Mof_H 	H 	0.7566	0.384	0.2122	0.081
Mof_C 	C 	0.7054	0.4336	0.2352	0.08
Mof_H 	H 	0.7166	0.4594	0.2155	-0.021
Mof_C 	C 	0.652	0.405	0.2932	0.083
Mof_H 	H 	0.6259	0.4108	0.3146	-0.019
Mof_C 	C 	0.6737	0.3583	0.2929	-0.161
Mof_H 	H 	0.6618	0.3333	0.313	0.085
Mof_N 	N 	0.2377	0.6685	0.5603	-0.25
Mof_N 	N 	0.1666	0.9419	0.7645	-0.239
Mof_C 	C 	0.217	0.6457	0.599	0.08
Mof_H 	H 	0.1997	0.6163	0.5938	-0.02
Mof_C 	C 	0.2201	0.6639	0.6456	-0.157
Mof_H 	H 	0.2056	0.6469	0.6714	0.085
Mof_C 	C 	0.2455	0.7085	0.6535	0.092
Mof_C 	C 	0.2643	0.7332	0.6136	-0.165
Mof_H 	H 	0.2794	0.764	0.6172	0.084
Mof_C 	C 	0.2604	0.7115	0.568	0.087
Mof_H 	H 	0.2743	0.7279	0.5416	-0.025
Mof_C 	C 	0.2494	0.7297	0.7026	-0.022
Mof_C 	C 	0.2353	0.7786	0.711	-0.056
Mof_H 	H 	0.2258	0.798	0.6847	0.049
Mof_C 	C 	0.2349	0.7994	0.7568	-0.021
Mof_C 	C 	0.2135	0.8496	0.762	0.092
Mof_C 	C 	0.2297	0.8883	0.7329	-0.161
Mof_H 	H 	0.2566	0.884	0.7122	0.083
Mof_C 	C 	0.2054	0.9336	0.7352	0.082
Mof_H 	H 	0.2166	0.9594	0.7155	-0.015
Mof_C 	C 	0.152	0.905	0.7932	0.084
Mof_H 	H 	0.1259	0.9108	0.8146	-0.017
Mof_C 	C 	0.1737	0.8583	0.7929	-0.16
Mof_H 	H 	0.1618	0.8333	0.813	0.086
Mof_N 	N 	0.7623	0.8315	0.5603	-0.25
Mof_N 	N 	0.8334	0.5581	0.7645	-0.244
Mof_C 	C 	0.783	0.8543	0.599	0.08
Mof_H 	H 	0.8003	0.8837	0.5938	-0.019
Mof_C 	C 	0.7799	0.8361	0.6456	-0.157
Mof_H 	H 	0.7944	0.8531	0.6714	0.087
Mof_C 	C 	0.7545	0.7915	0.6535	0.092
Mof_C 	C 	0.7357	0.7668	0.6136	-0.165
Mof_H 	H 	0.7206	0.736	0.6172	0.083
Mof_C 	C 	0.7396	0.7885	0.568	0.087
Mof_H 	H 	0.7257	0.7721	0.5416	-0.025
Mof_C 	C 	0.7506	0.7703	0.7026	-0.022
Mof_C 	C 	0.7647	0.7214	0.711	-0.056
Mof_H 	H 	0.7742	0.702	0.6847	0.048
Mof_C 	C 	0.7651	0.7006	0.7568	-0.022
Mof_C 	C 	0.7865	0.6504	0.762	0.092
Mof_C 	C 	0.7703	0.6117	0.7329	-0.163
Mof_H 	H 	0.7434	0.616	0.7122	0.082
Mof_C 	C 	0.7946	0.5664	0.7352	0.081
Mof_H 	H 	0.7834	0.5406	0.7155	-0.02
Mof_C 	C 	0.848	0.595	0.7932	0.084
Mof_H 	H 	0.8741	0.5892	0.8146	-0.019
Mof_C 	C 	0.8263	0.6417	0.7929	-0.161
Mof_H 	H 	0.8382	0.6667	0.813	0.087
Mof_N 	N 	0.2623	0.3315	0.0603	-0.253
Mof_N 	N 	0.3334	0.0581	0.2645	-0.247
Mof_C 	C 	0.283	0.3543	0.099	0.079
Mof_H 	H 	0.3003	0.3837	0.0938	-0.022
Mof_C 	C 	0.2799	0.3361	0.1456	-0.158
Mof_H 	H 	0.2944	0.3531	0.1714	0.085
Mof_C 	C 	0.2545	0.2915	0.1535	0.091
Mof_C 	C 	0.2357	0.2668	0.1136	-0.167
Mof_H 	H 	0.2206	0.236	0.1172	0.08
Mof_C 	C 	0.2396	0.2885	0.068	0.086
Mof_H 	H 	0.2257	0.2721	0.0416	-0.031
Mof_C 	C 	0.2506	0.2703	0.2026	-0.023
Mof_C 	C 	0.2647	0.2214	0.211	-0.056
Mof_H 	H 	0.2742	0.202	0.1847	0.046
Mof_C 	C 	0.2651	0.2006	0.2568	-0.022
Mof_C 	C 	0.2865	0.1504	0.262	0.091
Mof_C 	C 	0.2703	0.1117	0.2329	-0.164
Mof_H 	H 	0.2434	0.116	0.2122	0.08
Mof_C 	C 	0.2946	0.0664	0.2352	0.08
Mof_H 	H 	0.2834	0.0406	0.2155	-0.025
Mof_C 	C 	0.348	0.095	0.2932	0.082
Mof_H 	H 	0.3741	0.0892	0.3146	-0.021
Mof_C 	C 	0.3263	0.1417	0.2929	-0.162
Mof_H 	H 	0.3382	0.1667	0.313	0.085
Mof_N 	N 	0.5815	0.5123	0.3103	-0.25
Mof_N 	N 	0.3081	0.5834	0.5145	-0.244
Mof_C 	C 	0.6043	0.533	0.349	0.08
Mof_H 	H 	0.6337	0.5503	0.3438	-0.02
Mof_C 	C 	0.5861	0.5299	0.3956	-0.157
Mof_H 	H 	0.6031	0.5444	0.4214	0.085
Mof_C 	C 	0.5415	0.5045	0.4035	0.091
Mof_C 	C 	0.5168	0.4857	0.3636	-0.165
Mof_H 	H 	0.486	0.4706	0.3672	0.082
Mof_C 	C 	0.5385	0.4896	0.318	0.087
Mof_H 	H 	0.5221	0.4757	0.2916	-0.025
Mof_C 	C 	0.5203	0.5006	0.4526	-0.022
Mof_C 	C 	0.4714	0.5147	0.461	-0.056
Mof_H 	H 	0.452	0.5242	0.4347	0.048
Mof_C 	C 	0.4506	0.5151	0.5068	-0.021
Mof_C 	C 	0.4004	0.5365	0.512	0.091
Mof_C 	C 	0.3617	0.5203	0.4829	-0.162
Mof_H 	H 	0.366	0.4934	0.4622	0.082
Mof_C 	C 	0.3164	0.5446	0.4852	0.081
Mof_H 	H 	0.2906	0.5334	0.4655	-0.02
Mof_C 	C 	0.345	0.598	0.5432	0.083
Mof_H 	H 	0.3392	0.6241	0.5646	-0.019
Mof_C 	C 	0.3917	0.5763	0.5429	-0.161
Mof_H 	H 	0.4167	0.5882	0.563	0.086
Mof_N 	N 	0.0815	0.0123	0.8103	-0.262
Mof_N 	N 	0.8081	0.0834	0.0145	-0.264
Mof_C 	C 	0.1043	0.033	0.849	0.081
Mof_H 	H 	0.1337	0.0503	0.8438	-0.022
Mof_C 	C 	0.0861	0.0299	0.8956	-0.168
Mof_H 	H 	0.1031	0.0444	0.9214	0.089
Mof_C 	C 	0.0415	0.0045	0.9035	0.097
Mof_C 	C 	0.0168	0.9857	0.8636	-0.158
Mof_H 	H 	0.986	0.9706	0.8672	0.087
Mof_C 	C 	0.0385	0.9896	0.818	0.106
Mof_H 	H 	0.0221	0.9757	0.7916	-0.026
Mof_C 	C 	0.0203	0.0006	0.9526	-0.084
Mof_C 	C 	0.9714	0.0147	0.961	0.024
Mof_H 	H 	0.952	0.0242	0.9347	0.02
Mof_C 	C 	0.9506	0.0151	0.0068	-0.106
Mof_C 	C 	0.9004	0.0365	0.012	0.112
Mof_C 	C 	0.8617	0.0203	0.9829	-0.203
Mof_H 	H 	0.866	0.9934	0.9622	0.116
Mof_C 	C 	0.8164	0.0446	0.9852	0.126
Mof_H 	H 	0.7906	0.0334	0.9655	-0.035
Mof_C 	C 	0.845	0.098	0.0432	0.09
Mof_H 	H 	0.8392	0.1241	0.0646	-0.024
Mof_C 	C 	0.8917	0.0763	0.0429	-0.185
Mof_H 	H 	0.9167	0.0882	0.063	0.09
Mof_N 	N 	0.9185	0.4877	0.8103	-0.252
Mof_N 	N 	0.1919	0.4166	0.0145	-0.256
Mof_C 	C 	0.8957	0.467	0.849	0.085
Mof_H 	H 	0.8663	0.4497	0.8438	-0.021
Mof_C 	C 	0.9139	0.4701	0.8956	-0.166
Mof_H 	H 	0.8969	0.4556	0.9214	0.092
Mof_C 	C 	0.9585	0.4955	0.9035	0.106
Mof_C 	C 	0.9832	0.5143	0.8636	-0.174
Mof_H 	H 	0.014	0.5294	0.8672	0.087
Mof_C 	C 	0.9615	0.5104	0.818	0.092
Mof_H 	H 	0.9779	0.5243	0.7916	-0.026
Mof_C 	C 	0.9797	0.4994	0.9526	-0.048
Mof_C 	C 	0.0286	0.4853	0.961	-0.005
Mof_H 	H 	0.048	0.4758	0.9347	0.034
Mof_C 	C 	0.0494	0.4849	0.0068	-0.06
Mof_C 	C 	0.0996	0.4635	0.012	0.078
Mof_C 	C 	0.1383	0.4797	0.9829	-0.141
Mof_H 	H 	0.134	0.5066	0.9622	0.08
Mof_C 	C 	0.1836	0.4554	0.9852	0.098
Mof_H 	H 	0.2094	0.4666	0.9655	-0.021
Mof_C 	C 	0.155	0.402	0.0432	0.078
Mof_H 	H 	0.1608	0.3759	0.0646	-0.019
Mof_C 	C 	0.1083	0.4237	0.0429	-0.16
Mof_H 	H 	0.0833	0.4118	0.063	0.084
Mof_N 	N 	0.4185	0.9877	0.3103	-0.237
Mof_N 	N 	0.6919	0.9166	0.5145	-0.236
Mof_C 	C 	0.3957	0.967	0.349	0.084
Mof_H 	H 	0.3663	0.9497	0.3438	-0.019
Mof_C 	C 	0.4139	0.9701	0.3956	-0.156
Mof_H 	H 	0.3969	0.9556	0.4214	0.088
Mof_C 	C 	0.4585	0.9955	0.4035	0.101
Mof_C 	C 	0.4832	0.0143	0.3636	-0.182
Mof_H 	H 	0.514	0.0294	0.3672	0.082
Mof_C 	C 	0.4615	0.0104	0.318	0.072
Mof_H 	H 	0.4779	0.0243	0.2916	-0.025
Mof_C 	C 	0.4797	0.9994	0.4526	0.015
Mof_C 	C 	0.5286	0.9853	0.461	-0.087
Mof_H 	H 	0.548	0.9758	0.4347	0.063
Mof_C 	C 	0.5494	0.9849	0.5068	0.026
Mof_C 	C 	0.5996	0.9635	0.512	0.057
Mof_C 	C 	0.6383	0.9797	0.4829	-0.1
Mof_H 	H 	0.634	0.0066	0.4622	0.045
Mof_C 	C 	0.6836	0.9554	0.4852	0.052
Mof_H 	H 	0.7094	0.9666	0.4655	-0.006
Mof_C 	C 	0.655	0.902	0.5432	0.071
Mof_H 	H 	0.6608	0.8759	0.5646	-0.014
Mof_C 	C 	0.6083	0.9237	0.5429	-0.136
Mof_H 	H 	0.5833	0.9118	0.563	0.079
Mof_N 	N 	0.2377	0.8315	0.0603	-0.253
Mof_N 	N 	0.1666	0.5581	0.2645	-0.244
Mof_C 	C 	0.217	0.8543	0.099	0.079
Mof_H 	H 	0.1997	0.8837	0.0938	-0.021
Mof_C 	C 	0.2201	0.8361	0.1456	-0.158
Mof_H 	H 	0.2056	0.8531	0.1714	0.086
Mof_C 	C 	0.2455	0.7915	0.1535	0.092
Mof_C 	C 	0.2643	0.7668	0.1136	-0.167
Mof_H 	H 	0.2794	0.736	0.1172	0.081
Mof_C 	C 	0.2604	0.7885	0.068	0.086
Mof_H 	H 	0.2743	0.7721	0.0416	-0.03
Mof_C 	C 	0.2494	0.7703	0.2026	-0.023
Mof_C 	C 	0.2353	0.7214	0.211	-0.056
Mof_H 	H 	0.2258	0.702	0.1847	0.047
Mof_C 	C 	0.2349	0.7006	0.2568	-0.022
Mof_C 	C 	0.2135	0.6504	0.262	0.091
Mof_C 	C 	0.2297	0.6117	0.2329	-0.163
Mof_H 	H 	0.2566	0.616	0.2122	0.081
Mof_C 	C 	0.2054	0.5664	0.2352	0.081
Mof_H 	H 	0.2166	0.5406	0.2155	-0.021
Mof_C 	C 	0.152	0.595	0.2932	0.083
Mof_H 	H 	0.1259	0.5892	0.3146	-0.019
Mof_C 	C 	0.1737	0.6417	0.2929	-0.161
Mof_H 	H 	0.1618	0.6667	0.313	0.086
Mof_N 	N 	0.7377	0.3315	0.5603	-0.25
Mof_N 	N 	0.6666	0.0581	0.7645	-0.246
Mof_C 	C 	0.717	0.3543	0.599	0.08
Mof_H 	H 	0.6997	0.3837	0.5938	-0.02
Mof_C 	C 	0.7201	0.3361	0.6456	-0.157
Mof_H 	H 	0.7056	0.3531	0.6714	0.085
Mof_C 	C 	0.7455	0.2915	0.6535	0.091
Mof_C 	C 	0.7643	0.2668	0.6136	-0.166
Mof_H 	H 	0.7794	0.236	0.6172	0.082
Mof_C 	C 	0.7604	0.2885	0.568	0.086
Mof_H 	H 	0.7743	0.2721	0.5416	-0.026
Mof_C 	C 	0.7494	0.2703	0.7026	-0.023
Mof_C 	C 	0.7353	0.2214	0.711	-0.056
Mof_H 	H 	0.7258	0.202	0.6847	0.047
Mof_C 	C 	0.7349	0.2006	0.7568	-0.022
Mof_C 	C 	0.7135	0.1504	0.762	0.092
Mof_C 	C 	0.7297	0.1117	0.7329	-0.164
Mof_H 	H 	0.7566	0.116	0.7122	0.081
Mof_C 	C 	0.7054	0.0664	0.7352	0.081
Mof_H 	H 	0.7166	0.0406	0.7155	-0.025
Mof_C 	C 	0.652	0.095	0.7932	0.083
Mof_H 	H 	0.6259	0.0892	0.8146	-0.021
Mof_C 	C 	0.6737	0.1417	0.7929	-0.162
Mof_H 	H 	0.6618	0.1667	0.813	0.086
Mof_N 	N 	0.2623	0.1685	0.5603	-0.25
Mof_N 	N 	0.3334	0.4419	0.7645	-0.244
Mof_C 	C 	0.283	0.1457	0.599	0.08
Mof_H 	H 	0.3003	0.1163	0.5938	-0.022
Mof_C 	C 	0.2799	0.1639	0.6456	-0.158
Mof_H 	H 	0.2944	0.1469	0.6714	0.084
Mof_C 	C 	0.2545	0.2085	0.6535	0.091
Mof_C 	C 	0.2357	0.2332	0.6136	-0.165
Mof_H 	H 	0.2206	0.264	0.6172	0.083
Mof_C 	C 	0.2396	0.2115	0.568	0.087
Mof_H 	H 	0.2257	0.2279	0.5416	-0.025
Mof_C 	C 	0.2506	0.2297	0.7026	-0.022
Mof_C 	C 	0.2647	0.2786	0.711	-0.056
Mof_H 	H 	0.2742	0.298	0.6847	0.048
Mof_C 	C 	0.2651	0.2994	0.7568	-0.022
Mof_C 	C 	0.2865	0.3496	0.762	0.092
Mof_C 	C 	0.2703	0.3883	0.7329	-0.163
Mof_H 	H 	0.2434	0.384	0.7122	0.082
Mof_C 	C 	0.2946	0.4336	0.7352	0.081
Mof_H 	H 	0.2834	0.4594	0.7155	-0.02
Mof_C 	C 	0.348	0.405	0.7932	0.084
Mof_H 	H 	0.3741	0.4108	0.8146	-0.019
Mof_C 	C 	0.3263	0.3583	0.7929	-0.161
Mof_H 	H 	0.3382	0.3333	0.813	0.086
Mof_N 	N 	0.7623	0.6685	0.0603	-0.253
Mof_N 	N 	0.8334	0.9419	0.2645	-0.239
Mof_C 	C 	0.783	0.6457	0.099	0.079
Mof_H 	H 	0.8003	0.6163	0.0938	-0.022
Mof_C 	C 	0.7799	0.6639	0.1456	-0.158
Mof_H 	H 	0.7944	0.6469	0.1714	0.085
Mof_C 	C 	0.7545	0.7085	0.1535	0.091
Mof_C 	C 	0.7357	0.7332	0.1136	-0.167
Mof_H 	H 	0.7206	0.764	0.1172	0.082
Mof_C 	C 	0.7396	0.7115	0.068	0.086
Mof_H 	H 	0.7257	0.7279	0.0416	-0.03
Mof_C 	C 	0.7506	0.7297	0.2026	-0.023
Mof_C 	C 	0.7647	0.7786	0.211	-0.056
Mof_H 	H 	0.7742	0.798	0.1847	0.047
Mof_C 	C 	0.7651	0.7994	0.2568	-0.021
Mof_C 	C 	0.7865	0.8496	0.262	0.091
Mof_C 	C 	0.7703	0.8883	0.2329	-0.161
Mof_H 	H 	0.7434	0.884	0.2122	0.082
Mof_C 	C 	0.7946	0.9336	0.2352	0.081
Mof_H 	H 	0.7834	0.9594	0.2155	-0.016
Mof_C 	C 	0.848	0.905	0.2932	0.084
Mof_H 	H 	0.8741	0.9108	0.3146	-0.017
Mof_C 	C 	0.8263	0.8583	0.2929	-0.16
Mof_H 	H 	0.8382	0.8333	0.313	0.086
Mof_N 	N 	0.9185	0.5123	0.6897	-0.25
Mof_N 	N 	0.1919	0.5834	0.4855	-0.244
Mof_C 	C 	0.8957	0.533	0.651	0.08
Mof_H 	H 	0.8663	0.5503	0.6562	-0.02
Mof_C 	C 	0.9139	0.5299	0.6044	-0.157
Mof_H 	H 	0.8969	0.5444	0.5786	0.085
Mof_C 	C 	0.9585	0.5045	0.5965	0.091
Mof_C 	C 	0.9832	0.4857	0.6364	-0.165
Mof_H 	H 	0.014	0.4706	0.6328	0.083
Mof_C 	C 	0.9615	0.4896	0.682	0.087
Mof_H 	H 	0.9779	0.4757	0.7084	-0.025
Mof_C 	C 	0.9797	0.5006	0.5474	-0.022
Mof_C 	C 	0.0286	0.5147	0.539	-0.057
Mof_H 	H 	0.048	0.5242	0.5653	0.048
Mof_C 	C 	0.0494	0.5151	0.4932	-0.021
Mof_C 	C 	0.0996	0.5365	0.488	0.091
Mof_C 	C 	0.1383	0.5203	0.5171	-0.162
Mof_H 	H 	0.134	0.4934	0.5378	0.082
Mof_C 	C 	0.1836	0.5446	0.5148	0.081
Mof_H 	H 	0.2094	0.5334	0.5345	-0.02
Mof_C 	C 	0.155	0.598	0.4568	0.083
Mof_H 	H 	0.1608	0.6241	0.4354	-0.019
Mof_C 	C 	0.1083	0.5763	0.4571	-0.161
Mof_H 	H 	0.0833	0.5882	0.437	0.086
Mof_N 	N 	0.4185	0.0123	0.1897	-0.258
Mof_N 	N 	0.6919	0.0834	0.9855	-0.238
Mof_C 	C 	0.3957	0.033	0.151	0.069
Mof_H 	H 	0.3663	0.0503	0.1562	-0.02
Mof_C 	C 	0.4139	0.0299	0.1044	-0.15
Mof_H 	H 	0.3969	0.0444	0.0786	0.075
Mof_C 	C 	0.4585	0.0045	0.0965	0.067
Mof_C 	C 	0.4832	0.9857	0.1364	-0.14
Mof_H 	H 	0.514	0.9706	0.1328	0.078
Mof_C 	C 	0.4615	0.9896	0.182	0.096
Mof_H 	H 	0.4779	0.9757	0.2084	-0.023
Mof_C 	C 	0.4797	0.0006	0.0474	-0.033
Mof_C 	C 	0.5286	0.0147	0.039	-0.077
Mof_H 	H 	0.548	0.0242	0.0653	0.047
Mof_C 	C 	0.5494	0.0151	0.9932	-0.029
Mof_C 	C 	0.5996	0.0365	0.988	0.139
Mof_C 	C 	0.6383	0.0203	0.0171	-0.245
Mof_H 	H 	0.634	0.9934	0.0378	0.119
Mof_C 	C 	0.6836	0.0446	0.0148	0.092
Mof_H 	H 	0.7094	0.0334	0.0345	-0.033
Mof_C 	C 	0.655	0.098	0.9568	0.101
Mof_H 	H 	0.6608	0.1241	0.9354	-0.024
Mof_C 	C 	0.6083	0.0763	0.9571	-0.186
Mof_H 	H 	0.5833	0.0882	0.937	0.094
Mof_N 	N 	0.5815	0.4877	0.1897	-0.248
Mof_N 	N 	0.3081	0.4166	0.9855	-0.229
Mof_C 	C 	0.6043	0.467	0.151	0.074
Mof_H 	H 	0.6337	0.4497	0.1562	-0.02
Mof_C 	C 	0.5861	0.4701	0.1044	-0.148
Mof_H 	H 	0.6031	0.4556	0.0786	0.078
Mof_C 	C 	0.5415	0.4955	0.0965	0.076
Mof_C 	C 	0.5168	0.5143	0.1364	-0.156
Mof_H 	H 	0.486	0.5294	0.1328	0.078
Mof_C 	C 	0.5385	0.5104	0.182	0.081
Mof_H 	H 	0.5221	0.5243	0.2084	-0.024
Mof_C 	C 	0.5203	0.4994	0.0474	0.004
Mof_C 	C 	0.4714	0.4853	0.039	-0.108
Mof_H 	H 	0.452	0.4758	0.0653	0.062
Mof_C 	C 	0.4506	0.4849	0.9932	0.019
Mof_C 	C 	0.4004	0.4635	0.988	0.105
Mof_C 	C 	0.3617	0.4797	0.0171	-0.183
Mof_H 	H 	0.366	0.5066	0.0378	0.083
Mof_C 	C 	0.3164	0.4554	0.0148	0.064
Mof_H 	H 	0.2906	0.4666	0.0345	-0.019
Mof_C 	C 	0.345	0.402	0.9568	0.089
Mof_H 	H 	0.3392	0.3759	0.9354	-0.019
Mof_C 	C 	0.3917	0.4237	0.9571	-0.161
Mof_H 	H 	0.4167	0.4118	0.937	0.087
Mof_N 	N 	0.0815	0.9877	0.6897	-0.237
Mof_N 	N 	0.8081	0.9166	0.4855	-0.236
Mof_C 	C 	0.1043	0.967	0.651	0.084
Mof_H 	H 	0.1337	0.9497	0.6562	-0.019
Mof_C 	C 	0.0861	0.9701	0.6044	-0.156
Mof_H 	H 	0.1031	0.9556	0.5786	0.088
Mof_C 	C 	0.0415	0.9955	0.5965	0.101
Mof_C 	C 	0.0168	0.0143	0.6364	-0.181
Mof_H 	H 	0.986	0.0294	0.6328	0.082
Mof_C 	C 	0.0385	0.0104	0.682	0.072
Mof_H 	H 	0.0221	0.0243	0.7084	-0.024
Mof_C 	C 	0.0203	0.9994	0.5474	0.015
Mof_C 	C 	0.9714	0.9853	0.539	-0.087
Mof_H 	H 	0.952	0.9758	0.5653	0.063
Mof_C 	C 	0.9506	0.9849	0.4932	0.026
Mof_C 	C 	0.9004	0.9635	0.488	0.057
Mof_C 	C 	0.8617	0.9797	0.5171	-0.1
Mof_H 	H 	0.866	0.0066	0.5378	0.046
Mof_C 	C 	0.8164	0.9554	0.5148	0.052
Mof_H 	H 	0.7906	0.9666	0.5345	-0.006
Mof_C 	C 	0.845	0.902	0.4568	0.071
Mof_H 	H 	0.8392	0.8759	0.4354	-0.015
Mof_C 	C 	0.8917	0.9237	0.4571	-0.136
Mof_H 	H 	0.9167	0.9118	0.437	0.079
Mof_N 	N 	0.2623	0.8315	0.9397	-0.244
Mof_N 	N 	0.3334	0.5581	0.7355	-0.244
Mof_C 	C 	0.283	0.8543	0.901	0.081
Mof_H 	H 	0.3003	0.8837	0.9062	-0.016
Mof_C 	C 	0.2799	0.8361	0.8544	-0.156
Mof_H 	H 	0.2944	0.8531	0.8286	0.087
Mof_C 	C 	0.2545	0.7915	0.8465	0.092
Mof_C 	C 	0.2357	0.7668	0.8864	-0.163
Mof_H 	H 	0.2206	0.736	0.8828	0.084
Mof_C 	C 	0.2396	0.7885	0.932	0.087
Mof_H 	H 	0.2257	0.7721	0.9584	-0.019
Mof_C 	C 	0.2506	0.7703	0.7974	-0.021
Mof_C 	C 	0.2647	0.7214	0.789	-0.057
Mof_H 	H 	0.2742	0.702	0.8153	0.049
Mof_C 	C 	0.2651	0.7006	0.7432	-0.021
Mof_C 	C 	0.2865	0.6504	0.738	0.092
Mof_C 	C 	0.2703	0.6117	0.7671	-0.162
Mof_H 	H 	0.2434	0.616	0.7878	0.083
Mof_C 	C 	0.2946	0.5664	0.7648	0.081
Mof_H 	H 	0.2834	0.5406	0.7845	-0.02
Mof_C 	C 	0.348	0.595	0.7068	0.084
Mof_H 	H 	0.3741	0.5892	0.6854	-0.019
Mof_C 	C 	0.3263	0.6417	0.7071	-0.161
Mof_H 	H 	0.3382	0.6667	0.687	0.086
Mof_N 	N 	0.7623	0.3315	0.4397	-0.25
Mof_N 	N 	0.8334	0.0581	0.2355	-0.246
Mof_C 	C 	0.783	0.3543	0.401	0.079
Mof_H 	H 	0.8003	0.3837	0.4062	-0.02
Mof_C 	C 	0.7799	0.3361	0.3544	-0.157
Mof_H 	H 	0.7944	0.3531	0.3286	0.085
Mof_C 	C 	0.7545	0.2915	0.3465	0.091
Mof_C 	C 	0.7357	0.2668	0.3864	-0.165
Mof_H 	H 	0.7206	0.236	0.3828	0.082
Mof_C 	C 	0.7396	0.2885	0.432	0.086
Mof_H 	H 	0.7257	0.2721	0.4584	-0.025
Mof_C 	C 	0.7506	0.2703	0.2974	-0.022
Mof_C 	C 	0.7647	0.2214	0.289	-0.057
Mof_H 	H 	0.7742	0.202	0.3153	0.048
Mof_C 	C 	0.7651	0.2006	0.2432	-0.022
Mof_C 	C 	0.7865	0.1504	0.238	0.091
Mof_C 	C 	0.7703	0.1117	0.2671	-0.164
Mof_H 	H 	0.7434	0.116	0.2878	0.08
Mof_C 	C 	0.7946	0.0664	0.2648	0.08
Mof_H 	H 	0.7834	0.0406	0.2845	-0.025
Mof_C 	C 	0.848	0.095	0.2068	0.082
Mof_H 	H 	0.8741	0.0892	0.1854	-0.022
Mof_C 	C 	0.8263	0.1417	0.2071	-0.161
Mof_H 	H 	0.8382	0.1667	0.187	0.085
Mof_N 	N 	0.2377	0.1685	0.4397	-0.25
Mof_N 	N 	0.1666	0.4419	0.2355	-0.244
Mof_C 	C 	0.217	0.1457	0.401	0.079
Mof_H 	H 	0.1997	0.1163	0.4062	-0.022
Mof_C 	C 	0.2201	0.1639	0.3544	-0.157
Mof_H 	H 	0.2056	0.1469	0.3286	0.084
Mof_C 	C 	0.2455	0.2085	0.3465	0.091
Mof_C 	C 	0.2643	0.2332	0.3864	-0.165
Mof_H 	H 	0.2794	0.264	0.3828	0.082
Mof_C 	C 	0.2604	0.2115	0.432	0.086
Mof_H 	H 	0.2743	0.2279	0.4584	-0.025
Mof_C 	C 	0.2494	0.2297	0.2974	-0.022
Mof_C 	C 	0.2353	0.2786	0.289	-0.057
Mof_H 	H 	0.2258	0.298	0.3153	0.048
Mof_C 	C 	0.2349	0.2994	0.2432	-0.021
Mof_C 	C 	0.2135	0.3496	0.238	0.091
Mof_C 	C 	0.2297	0.3883	0.2671	-0.162
Mof_H 	H 	0.2566	0.384	0.2878	0.081
Mof_C 	C 	0.2054	0.4336	0.2648	0.08
Mof_H 	H 	0.2166	0.4594	0.2845	-0.02
Mof_C 	C 	0.152	0.405	0.2068	0.083
Mof_H 	H 	0.1259	0.4108	0.1854	-0.02
Mof_C 	C 	0.1737	0.3583	0.2071	-0.16
Mof_H 	H 	0.1618	0.3333	0.187	0.085
Mof_N 	N 	0.7377	0.6685	0.9397	-0.244
Mof_N 	N 	0.6666	0.9419	0.7355	-0.239
Mof_C 	C 	0.717	0.6457	0.901	0.081
Mof_H 	H 	0.6997	0.6163	0.9062	-0.018
Mof_C 	C 	0.7201	0.6639	0.8544	-0.156
Mof_H 	H 	0.7056	0.6469	0.8286	0.086
Mof_C 	C 	0.7455	0.7085	0.8465	0.091
Mof_C 	C 	0.7643	0.7332	0.8864	-0.163
Mof_H 	H 	0.7794	0.764	0.8828	0.085
Mof_C 	C 	0.7604	0.7115	0.932	0.088
Mof_H 	H 	0.7743	0.7279	0.9584	-0.018
Mof_C 	C 	0.7494	0.7297	0.7974	-0.021
Mof_C 	C 	0.7353	0.7786	0.789	-0.057
Mof_H 	H 	0.7258	0.798	0.8153	0.05
Mof_C 	C 	0.7349	0.7994	0.7432	-0.02
Mof_C 	C 	0.7135	0.8496	0.738	0.091
Mof_C 	C 	0.7297	0.8883	0.7671	-0.161
Mof_H 	H 	0.7566	0.884	0.7878	0.084
Mof_C 	C 	0.7054	0.9336	0.7648	0.082
Mof_H 	H 	0.7166	0.9594	0.7845	-0.015
Mof_C 	C 	0.652	0.905	0.7068	0.084
Mof_H 	H 	0.6259	0.9108	0.6854	-0.017
Mof_C 	C 	0.6737	0.8583	0.7071	-0.16
Mof_H 	H 	0.6618	0.8333	0.687	0.086
Mof_Cu	Cu	0.75	0.37085	0.5	0.856
Mof_Cu	Cu	0.25	0.87085	-0	0.846
Mof_Cu	Cu	0.75	0.62915	-0	0.846
Mof_Cu	Cu	0.25	0.12915	0.5	0.855
Mof_Cu	Cu	0.87915	0.5	0.75	0.856
Mof_Cu	Cu	0.37915	0	0.25	0.848
Mof_Cu	Cu	0.62085	0.5	0.25	0.855
Mof_Cu	Cu	0.12085	1.00878e-32	0.75	0.848
Mof_Cu	Cu	0.25	0.62915	0.5	0.856
Mof_Cu	Cu	0.75	0.12915	-0	0.846
Mof_Cu	Cu	0.25	0.37085	-0	0.846
Mof_Cu	Cu	0.75	0.87085	0.5	0.856
Mof_Cu	Cu	0.12085	0.5	0.25	0.855
Mof_Cu	Cu	0.62085	1.00878e-32	0.75	0.848
Mof_Cu	Cu	0.37915	0.5	0.75	0.856
Mof_Cu	Cu	0.87915	0	0.25	0.848
_end
