data_functionalizedCrystal
_audit_creation_method	'EQeq! by Chris Wilmer'
_symmetry_space_group_name_H-M	'P1'
_symmetry_Int_Tables_number	1
_symmetry_cell_setting	triclinic
loop_
_symmetry_equiv_pos_as_xyz
  x,y,z
_cell_length_a	6.1308
_cell_length_b	7.458
_cell_length_c	12.457
_cell_angle_alpha	74.662
_cell_angle_beta	88.835
_cell_angle_gamma	89.304
loop_
_atom_site_label
_atom_site_type_symbol
_atom_site_fract_x
_atom_site_fract_y
_atom_site_fract_z
_atom_site_charge
Mof_La	La	0.40358	0.93056	0.44661	1.982
Mof_La	La	0.25107	0.25389	0.84994	1.892
Mof_H 	H 	0.8697	0.3913	0.5863	0.066
Mof_H 	H 	0.9808	0.3917	0.4174	0.174
Mof_H 	H 	0.7798	0.8391	0.7149	0.049
Mof_H 	H 	0.6718	0.6685	0.8889	0.017
Mof_H 	H 	0.6594	0.3738	0.0743	0.085
Mof_H 	H 	0.9391	0.3334	0.2154	0.022
Mof_H 	H 	0.0935	0.0977	0.6585	0.27
Mof_H 	H 	0.2699	0.2358	0.3899	0.084
Mof_H 	H 	0.5502	0.6075	0.6361	0.261
Mof_H 	H 	0.358	0.5901	0.9158	0.203
Mof_H 	H 	0.5322	0.666	0.1146	0.194
Mof_H 	H 	0.8811	0.6882	0.1732	0.241
Mof_C 	C 	0.1901	0.4743	0.5831	0.37
Mof_C 	C 	0.012	0.3314	0.5832	0.049
Mof_C 	C 	0.0328	0.2852	0.4759	-0.271
Mof_C 	C 	0.902	0.1162	0.4719	0.556
Mof_C 	C 	0.4614	0.9094	0.7184	0.328
Mof_C 	C 	0.639	0.7771	0.7178	0.007
Mof_C 	C 	0.6155	0.622	0.8283	-0.004
Mof_C 	C 	0.7403	0.4586	0.8225	0.296
Mof_C 	C 	0.5311	0.3571	0.2249	0.387
Mof_C 	C 	0.6667	0.4475	0.1286	-0.087
Mof_C 	C 	0.9052	0.4521	0.1619	0.125
Mof_C 	C 	0.0673	0.4758	0.0575	0.297
Mof_O 	O 	0.1965	0.6255	0.5013	-0.463
Mof_O 	O 	0.3327	0.434	0.6525	-0.451
Mof_O 	O 	0.0314	0.1878	0.6771	-0.52
Mof_O 	O 	0.2587	0.2549	0.4541	-0.307
Mof_O 	O 	0.9911	0.9874	0.445	-0.511
Mof_O 	O 	0.6989	0.1169	0.4901	-0.477
Mof_O 	O 	0.3147	0.9438	0.6378	-0.458
Mof_O 	O 	0.4467	0.9958	0.8014	-0.47
Mof_O 	O 	0.6133	0.7123	0.6179	-0.483
Mof_O 	O 	0.3868	0.5753	0.8516	-0.5
Mof_O 	O 	0.6589	0.296	0.8516	-0.455
Mof_O 	O 	0.956	0.4848	0.7977	-0.376
Mof_O 	O 	0.5498	0.1908	0.2666	-0.448
Mof_O 	O 	0.4163	0.452	0.2725	-0.312
Mof_O 	O 	0.6199	0.6285	0.0747	-0.294
Mof_O 	O 	0.9229	0.59	0.215	-0.377
Mof_O 	O 	0.09	0.3289	0.0308	-0.414
Mof_O 	O 	0.1313	0.6311	0.0144	-0.277
_end
