data_functionalizedCrystal
_audit_creation_method	'EQeq! by Chris Wilmer'
_symmetry_space_group_name_H-M	'P1'
_symmetry_Int_Tables_number	1
_symmetry_cell_setting	triclinic
loop_
_symmetry_equiv_pos_as_xyz
  x,y,z
_cell_length_a	13.5424
_cell_length_b	13.5424
_cell_length_c	13.5424
_cell_angle_alpha	102.858
_cell_angle_beta	102.858
_cell_angle_gamma	102.858
loop_
_atom_site_label
_atom_site_type_symbol
_atom_site_fract_x
_atom_site_fract_y
_atom_site_fract_z
_atom_site_charge
Mof_Cr	Cr	-3.1414e-17	0.2103	0.7897	1.313
Mof_Cr	Cr	0.7897	0	0.2103	1.313
Mof_Cr	Cr	0.2103	0.7897	-0	1.313
Mof_Ni	Ni	0.11593	0.5	0.88407	1.102
Mof_Ni	Ni	0.88407	0.11593	0.5	1.102
Mof_Ni	Ni	0.5	0.88407	0.11593	1.102
Mof_H 	H 	0.1186	0.3701	0.6755	-0.027
Mof_H 	H 	0.1174	0.6655	0.7581	-0.058
Mof_H 	H 	0.1416	0.3817	0.5155	0.084
Mof_H 	H 	0.1498	0.3478	0.0186	-0.091
Mof_H 	H 	0.1133	0.6304	0.0929	-0.088
Mof_H 	H 	0.1369	0.6857	0.599	0.073
Mof_H 	H 	0.1266	0.6282	0.2642	0.074
Mof_H 	H 	0.1504	0.4066	0.3648	0.05
Mof_H 	H 	0.1648	0.3377	0.188	0.06
Mof_H 	H 	0.1495	0.6139	0.4227	0.045
Mof_H 	H 	0.6755	0.1186	0.3701	-0.027
Mof_H 	H 	0.7581	0.1174	0.6655	-0.058
Mof_H 	H 	0.5155	0.1416	0.3817	0.084
Mof_H 	H 	0.0186	0.1498	0.3478	-0.091
Mof_H 	H 	0.0929	0.1133	0.6304	-0.088
Mof_H 	H 	0.599	0.1369	0.6857	0.073
Mof_H 	H 	0.2642	0.1266	0.6282	0.074
Mof_H 	H 	0.3648	0.1504	0.4066	0.05
Mof_H 	H 	0.188	0.1648	0.3377	0.06
Mof_H 	H 	0.4227	0.1495	0.6139	0.045
Mof_H 	H 	0.3701	0.6755	0.1186	-0.027
Mof_H 	H 	0.6655	0.7581	0.1174	-0.058
Mof_H 	H 	0.3817	0.5155	0.1416	0.084
Mof_H 	H 	0.3478	0.0186	0.1498	-0.091
Mof_H 	H 	0.6304	0.0929	0.1133	-0.088
Mof_H 	H 	0.6857	0.599	0.1369	0.073
Mof_H 	H 	0.6282	0.2642	0.1266	0.074
Mof_H 	H 	0.4066	0.3648	0.1504	0.05
Mof_H 	H 	0.3377	0.188	0.1648	0.06
Mof_H 	H 	0.6139	0.4227	0.1495	0.045
Mof_H 	H 	0.6299	0.8814	0.3245	-0.016
Mof_H 	H 	0.3345	0.8826	0.2419	-0.049
Mof_H 	H 	0.6183	0.8584	0.4845	0.092
Mof_H 	H 	0.6522	0.8502	0.9814	-0.039
Mof_H 	H 	0.3696	0.8867	0.9071	-0.046
Mof_H 	H 	0.3143	0.8631	0.401	0.082
Mof_H 	H 	0.3718	0.8734	0.7358	0.087
Mof_H 	H 	0.5934	0.8496	0.6352	0.059
Mof_H 	H 	0.6623	0.8352	0.812	0.08
Mof_H 	H 	0.3861	0.8505	0.5773	0.053
Mof_H 	H 	0.8814	0.3245	0.6299	-0.016
Mof_H 	H 	0.8826	0.2419	0.3345	-0.049
Mof_H 	H 	0.8584	0.4845	0.6183	0.092
Mof_H 	H 	0.8502	0.9814	0.6522	-0.039
Mof_H 	H 	0.8867	0.9071	0.3696	-0.046
Mof_H 	H 	0.8631	0.401	0.3143	0.082
Mof_H 	H 	0.8734	0.7358	0.3718	0.087
Mof_H 	H 	0.8496	0.6352	0.5934	0.059
Mof_H 	H 	0.8352	0.812	0.6623	0.08
Mof_H 	H 	0.8505	0.5773	0.3861	0.053
Mof_H 	H 	0.3245	0.6299	0.8814	-0.016
Mof_H 	H 	0.2419	0.3345	0.8826	-0.049
Mof_H 	H 	0.4845	0.6183	0.8584	0.092
Mof_H 	H 	0.9814	0.6522	0.8502	-0.039
Mof_H 	H 	0.9071	0.3696	0.8867	-0.046
Mof_H 	H 	0.401	0.3143	0.8631	0.082
Mof_H 	H 	0.7358	0.3718	0.8734	0.087
Mof_H 	H 	0.6352	0.5934	0.8496	0.059
Mof_H 	H 	0.812	0.6623	0.8352	0.08
Mof_H 	H 	0.5773	0.3861	0.8505	0.053
Mof_C 	C 	0.1221	0.43455	0.65924	0.099
Mof_C 	C 	0.12094	0.60718	0.70764	0.108
Mof_C 	C 	0.13527	0.44055	0.56309	-0.18
Mof_C 	C 	0.1448	0.40532	0.06898	0.102
Mof_C 	C 	0.1235	0.57024	0.11256	0.108
Mof_C 	C 	0.1446	0.4812	0.2465	0.122
Mof_C 	C 	0.1392	0.53513	0.53628	0.112
Mof_C 	C 	0.133	0.6199	0.6126	-0.191
Mof_C 	C 	0.1308	0.5692	0.2152	-0.211
Mof_C 	C 	0.1473	0.4719	0.3527	-0.108
Mof_C 	C 	0.1532	0.3984	0.1704	-0.217
Mof_C 	C 	0.1459	0.54683	0.43277	-0.086
Mof_C 	C 	0.65924	0.1221	0.43455	0.099
Mof_C 	C 	0.70764	0.12094	0.60718	0.108
Mof_C 	C 	0.56309	0.13527	0.44055	-0.18
Mof_C 	C 	0.06898	0.1448	0.40532	0.102
Mof_C 	C 	0.11256	0.1235	0.57024	0.108
Mof_C 	C 	0.2465	0.1446	0.4812	0.122
Mof_C 	C 	0.53628	0.1392	0.53513	0.112
Mof_C 	C 	0.6126	0.133	0.6199	-0.191
Mof_C 	C 	0.2152	0.1308	0.5692	-0.211
Mof_C 	C 	0.3527	0.1473	0.4719	-0.108
Mof_C 	C 	0.1704	0.1532	0.3984	-0.217
Mof_C 	C 	0.43277	0.1459	0.54683	-0.086
Mof_C 	C 	0.43455	0.65924	0.1221	0.099
Mof_C 	C 	0.60718	0.70764	0.12094	0.108
Mof_C 	C 	0.44055	0.56309	0.13527	-0.18
Mof_C 	C 	0.40532	0.06898	0.1448	0.102
Mof_C 	C 	0.57024	0.11256	0.1235	0.108
Mof_C 	C 	0.4812	0.2465	0.1446	0.122
Mof_C 	C 	0.53513	0.53628	0.1392	0.112
Mof_C 	C 	0.6199	0.6126	0.133	-0.191
Mof_C 	C 	0.5692	0.2152	0.1308	-0.211
Mof_C 	C 	0.4719	0.3527	0.1473	-0.108
Mof_C 	C 	0.3984	0.1704	0.1532	-0.217
Mof_C 	C 	0.54683	0.43277	0.1459	-0.086
Mof_C 	C 	0.56545	0.8779	0.34076	0.116
Mof_C 	C 	0.39282	0.87906	0.29236	0.127
Mof_C 	C 	0.55945	0.86473	0.43691	-0.17
Mof_C 	C 	0.59468	0.8552	0.93102	0.12
Mof_C 	C 	0.42976	0.8765	0.88744	0.128
Mof_C 	C 	0.5188	0.8554	0.7535	0.135
Mof_C 	C 	0.46487	0.8608	0.46372	0.128
Mof_C 	C 	0.3801	0.867	0.3874	-0.184
Mof_C 	C 	0.4308	0.8692	0.7848	-0.196
Mof_C 	C 	0.5281	0.8527	0.6473	-0.095
Mof_C 	C 	0.6016	0.8468	0.8296	-0.199
Mof_C 	C 	0.45317	0.8541	0.56723	-0.077
Mof_C 	C 	0.8779	0.34076	0.56545	0.116
Mof_C 	C 	0.87906	0.29236	0.39282	0.127
Mof_C 	C 	0.86473	0.43691	0.55945	-0.17
Mof_C 	C 	0.8552	0.93102	0.59468	0.12
Mof_C 	C 	0.8765	0.88744	0.42976	0.128
Mof_C 	C 	0.8554	0.7535	0.5188	0.135
Mof_C 	C 	0.8608	0.46372	0.46487	0.128
Mof_C 	C 	0.867	0.3874	0.3801	-0.184
Mof_C 	C 	0.8692	0.7848	0.4308	-0.196
Mof_C 	C 	0.8527	0.6473	0.5281	-0.095
Mof_C 	C 	0.8468	0.8296	0.6016	-0.199
Mof_C 	C 	0.8541	0.56723	0.45317	-0.077
Mof_C 	C 	0.34076	0.56545	0.8779	0.116
Mof_C 	C 	0.29236	0.39282	0.87906	0.127
Mof_C 	C 	0.43691	0.55945	0.86473	-0.17
Mof_C 	C 	0.93102	0.59468	0.8552	0.12
Mof_C 	C 	0.88744	0.42976	0.8765	0.128
Mof_C 	C 	0.7535	0.5188	0.8554	0.135
Mof_C 	C 	0.46372	0.46487	0.8608	0.128
Mof_C 	C 	0.3874	0.3801	0.867	-0.184
Mof_C 	C 	0.7848	0.4308	0.8692	-0.196
Mof_C 	C 	0.6473	0.5281	0.8527	-0.095
Mof_C 	C 	0.8296	0.6016	0.8468	-0.199
Mof_C 	C 	0.56723	0.45317	0.8541	-0.077
Mof_N 	N 	0.11406	0.51573	0.73148	-0.247
Mof_N 	N 	0.13002	0.48909	0.03902	-0.278
Mof_N 	N 	0.73148	0.11406	0.51573	-0.247
Mof_N 	N 	0.03902	0.13002	0.48909	-0.278
Mof_N 	N 	0.51573	0.73148	0.11406	-0.247
Mof_N 	N 	0.48909	0.03902	0.13002	-0.278
Mof_N 	N 	0.48427	0.88594	0.26852	-0.235
Mof_N 	N 	0.51091	0.86998	0.96098	-0.23
Mof_N 	N 	0.88594	0.26852	0.48427	-0.235
Mof_N 	N 	0.86998	0.96098	0.51091	-0.23
Mof_N 	N 	0.26852	0.48427	0.88594	-0.235
Mof_N 	N 	0.96098	0.51091	0.86998	-0.23
Mof_O 	O 	0.05718	0.33902	0.8277	-0.688
Mof_O 	O 	0.8277	0.05718	0.33902	-0.688
Mof_O 	O 	0.33902	0.8277	0.05718	-0.688
Mof_O 	O 	0.66098	0.94282	0.1723	-0.653
Mof_O 	O 	0.94282	0.1723	0.66098	-0.653
Mof_O 	O 	0.1723	0.66098	0.94282	-0.653
_end
