data_functionalizedCrystal
_audit_creation_method	'EQeq! by Chris Wilmer'
_symmetry_space_group_name_H-M	'P1'
_symmetry_Int_Tables_number	1
_symmetry_cell_setting	triclinic
loop_
_symmetry_equiv_pos_as_xyz
  x,y,z
_cell_length_a	14.082
_cell_length_b	26.943
_cell_length_c	7.602
_cell_angle_alpha	90
_cell_angle_beta	90
_cell_angle_gamma	90.43
loop_
_atom_site_label
_atom_site_type_symbol
_atom_site_fract_x
_atom_site_fract_y
_atom_site_fract_z
_atom_site_charge
Mof_Cd	Cd	0.27933	0.13524	0.8825	0.364
Mof_N 	N 	0.267	0.0812	0.1	-0.085
Mof_N 	N 	0.261	0.0795	0.656	-0.08
Mof_N 	N 	0.328	0.1987	0.091	-0.068
Mof_N 	N 	0.624	0.1662	0.125	-0.073
Mof_N 	N 	0.317	0.1911	0.652	-0.111
Mof_N 	N 	0.449	0.1268	0.837	-0.127
Mof_C 	C 	0.26	0.0498	0.203	-0.253
Mof_C 	C 	0.257	0.0492	0.55	-0.258
Mof_C 	C 	0.394	0.2191	0.153	-0.218
Mof_C 	C 	0.575	0.1992	0.171	-0.227
Mof_C 	C 	0.424	0.192	0.632	-0.025
Mof_C 	C 	0.477	0.156	0.689	0.044
Mof_C 	C 	0.58	0.1561	0.653	-0.033
Mof_Cd	Cd	0.27933	0.63524	0.3825	0.371
Mof_N 	N 	0.267	0.5812	0.6	-0.083
Mof_N 	N 	0.261	0.5795	0.156	-0.078
Mof_N 	N 	0.328	0.6987	0.591	-0.067
Mof_N 	N 	0.624	0.6662	0.625	-0.072
Mof_N 	N 	0.317	0.6911	0.152	-0.111
Mof_N 	N 	0.449	0.6268	0.337	-0.123
Mof_C 	C 	0.26	0.5498	0.703	-0.233
Mof_C 	C 	0.257	0.5492	0.05	-0.236
Mof_C 	C 	0.394	0.7191	0.653	-0.217
Mof_C 	C 	0.575	0.6992	0.671	-0.226
Mof_C 	C 	0.424	0.692	0.132	-0.025
Mof_C 	C 	0.477	0.656	0.189	0.045
Mof_C 	C 	0.58	0.6561	0.153	-0.031
Mof_Cd	Cd	0.22067	0.86476	0.8825	0.375
Mof_N 	N 	0.233	0.9188	0.1	-0.086
Mof_N 	N 	0.239	0.9205	0.656	-0.079
Mof_N 	N 	0.172	0.8013	0.091	-0.065
Mof_N 	N 	0.876	0.8338	0.125	-0.07
Mof_N 	N 	0.183	0.8089	0.652	-0.113
Mof_N 	N 	0.051	0.8732	0.837	-0.13
Mof_C 	C 	0.24	0.9502	0.203	-0.2
Mof_C 	C 	0.243	0.9508	0.55	-0.204
Mof_C 	C 	0.106	0.7809	0.153	-0.239
Mof_C 	C 	0.925	0.8008	0.171	-0.179
Mof_C 	C 	0.076	0.808	0.632	-0.027
Mof_C 	C 	0.023	0.844	0.689	-0.029
Mof_C 	C 	0.92	0.8439	0.653	0.047
Mof_Cd	Cd	0.22067	0.36476	0.3825	0.37
Mof_N 	N 	0.233	0.4188	0.6	-0.084
Mof_N 	N 	0.239	0.4205	0.156	-0.077
Mof_N 	N 	0.172	0.3013	0.591	-0.065
Mof_N 	N 	0.876	0.3338	0.625	-0.072
Mof_N 	N 	0.183	0.3089	0.152	-0.113
Mof_N 	N 	0.051	0.3732	0.337	-0.134
Mof_C 	C 	0.24	0.4502	0.703	-0.235
Mof_C 	C 	0.243	0.4508	0.05	-0.237
Mof_C 	C 	0.106	0.2809	0.653	-0.24
Mof_C 	C 	0.925	0.3008	0.671	-0.178
Mof_C 	C 	0.076	0.308	0.132	-0.027
Mof_C 	C 	0.023	0.344	0.189	-0.028
Mof_C 	C 	0.92	0.3439	0.153	0.04
Mof_Cd	Cd	0.72067	0.86476	0.1175	0.386
Mof_N 	N 	0.733	0.9188	0.9	-0.082
Mof_N 	N 	0.739	0.9205	0.344	-0.076
Mof_N 	N 	0.672	0.8013	0.909	-0.066
Mof_N 	N 	0.376	0.8338	0.875	-0.07
Mof_N 	N 	0.683	0.8089	0.348	-0.111
Mof_N 	N 	0.551	0.8732	0.163	-0.119
Mof_C 	C 	0.74	0.9502	0.797	-0.185
Mof_C 	C 	0.743	0.9508	0.45	-0.19
Mof_C 	C 	0.606	0.7809	0.847	-0.216
Mof_C 	C 	0.425	0.8008	0.829	-0.226
Mof_C 	C 	0.576	0.808	0.368	-0.025
Mof_C 	C 	0.523	0.844	0.311	0.047
Mof_C 	C 	0.42	0.8439	0.347	-0.028
Mof_Cd	Cd	0.72067	0.36476	0.6175	0.381
Mof_N 	N 	0.733	0.4188	0.4	-0.08
Mof_N 	N 	0.739	0.4205	0.844	-0.074
Mof_N 	N 	0.672	0.3013	0.409	-0.066
Mof_N 	N 	0.376	0.3338	0.375	-0.071
Mof_N 	N 	0.683	0.3089	0.848	-0.111
Mof_N 	N 	0.551	0.3732	0.663	-0.123
Mof_C 	C 	0.74	0.4502	0.297	-0.22
Mof_C 	C 	0.743	0.4508	0.95	-0.223
Mof_C 	C 	0.606	0.2809	0.347	-0.217
Mof_C 	C 	0.425	0.3008	0.329	-0.227
Mof_C 	C 	0.576	0.308	0.868	-0.025
Mof_C 	C 	0.523	0.344	0.811	0.045
Mof_C 	C 	0.42	0.3439	0.847	-0.031
Mof_Cd	Cd	0.77933	0.13524	0.1175	0.376
Mof_N 	N 	0.767	0.0812	0.9	-0.079
Mof_N 	N 	0.761	0.0795	0.344	-0.076
Mof_N 	N 	0.828	0.1987	0.909	-0.071
Mof_N 	N 	0.124	0.1662	0.875	-0.077
Mof_N 	N 	0.817	0.1911	0.348	-0.109
Mof_N 	N 	0.949	0.1268	0.163	-0.116
Mof_C 	C 	0.76	0.0498	0.797	-0.238
Mof_C 	C 	0.757	0.0492	0.45	-0.244
Mof_C 	C 	0.894	0.2191	0.847	-0.176
Mof_C 	C 	0.075	0.1992	0.829	-0.258
Mof_C 	C 	0.924	0.192	0.368	-0.02
Mof_C 	C 	0.977	0.156	0.311	0.118
Mof_C 	C 	0.08	0.1561	0.347	-0.104
Mof_Cd	Cd	0.77933	0.63524	0.6175	0.382
Mof_N 	N 	0.767	0.5812	0.4	-0.079
Mof_N 	N 	0.761	0.5795	0.844	-0.075
Mof_N 	N 	0.828	0.6987	0.409	-0.072
Mof_N 	N 	0.124	0.6662	0.375	-0.076
Mof_N 	N 	0.817	0.6911	0.848	-0.108
Mof_N 	N 	0.949	0.6268	0.663	-0.112
Mof_C 	C 	0.76	0.5498	0.297	-0.219
Mof_C 	C 	0.757	0.5492	0.95	-0.222
Mof_C 	C 	0.894	0.7191	0.347	-0.177
Mof_C 	C 	0.075	0.6992	0.329	-0.256
Mof_C 	C 	0.924	0.692	0.868	-0.02
Mof_C 	C 	0.977	0.656	0.811	0.121
Mof_C 	C 	0.08	0.6561	0.847	-0.104
Mof_Ni	Ni	0.25	-1.09404e-33	0.3758	1.032
Mof_Ni	Ni	0.25	0.5	0.8758	1.055
Mof_Ni	Ni	0.75	0	0.6242	1.036
Mof_Ni	Ni	0.75	0.5	0.1242	1.059
Mof_Ni	Ni	0.5	0.25	0.25	1.073
Mof_Ni	Ni	1.52789e-18	0.75	0.25	1.041
Mof_Ni	Ni	0.5	0.75	0.75	1.073
Mof_Ni	Ni	2.72429e-19	0.25	0.75	1.04
_end
