# CIF file generated by openbabel 3.1.0, see https://openbabel.org
data_I
_chemical_name_common 'image0'
_cell_length_a 9.758
_cell_length_b 16.575
_cell_length_c 21.452
_cell_angle_alpha 104.13
_cell_angle_beta 100.68
_cell_angle_gamma 96.53
_space_group_name_H-M_alt 'P 1'
_space_group_name_Hall 'P 1'
loop_
    _symmetry_equiv_pos_as_xyz
    x,y,z
loop_
    _atom_site_label
    _atom_site_type_symbol
    _atom_site_fract_x
    _atom_site_fract_y
    _atom_site_fract_z
    _atom_site_occupancy
    Ce1      Ce       0.27720    0.51746    0.99827    1.000
    I1       I        0.76373    0.99164    0.50025    1.000
    I2       I        0.98493    0.77848    0.46957    1.000
    I3       I        0.08712    0.97835    0.67145    1.000
    I4       I        0.70094    0.78769    0.61220    1.000
    Cu1      Cu       0.01258    0.94228    0.53908    1.000
    Cu2      Cu       0.75388    0.82695    0.50223    1.000
    Cu3      Cu       0.82017    0.94511    0.62078    1.000
    Cu4      Cu       0.96305    0.81685    0.59713    1.000
    O1       O        0.17320    0.54930    0.09430    1.000
    O2       O        0.94590    0.48920    0.07510    1.000
    O3       O        0.54380    0.37030    0.92640    1.000
    O4       O        0.32430    0.40520    0.91200    1.000
    O5       O        0.35500    0.58710    0.91880    1.000
    O6       O        0.56880    0.54990    0.93720    1.000
    N1       N        0.57820    0.76310    0.43490    1.000
    N2       N        0.70560    0.02610    0.66610    1.000
    N3       N        0.09790    0.74990    0.63750    1.000
    C1       C        0.45280    0.78620    0.43830    1.000
    H1       H        0.44940    0.83470    0.47030    1.000
    C2       C        0.32790    0.74170    0.39650    1.000
    H2       H        0.24240    0.75800    0.40310    1.000
    C3       C        0.32890    0.67210    0.34440    1.000
    C4       C        0.45990    0.64830    0.34020    1.000
    H3       H        0.46750    0.60110    0.30790    1.000
    C5       C        0.57860    0.69660    0.38540    1.000
    H4       H        0.66580    0.68140    0.38070    1.000
    C6       C        0.19640    0.62320    0.29800    1.000
    C7       C        0.19080    0.59710    0.23080    1.000
    H5       H        0.27160    0.60890    0.21540    1.000
    C8       C        0.06740    0.55380    0.18630    1.000
    C9       C        0.94690    0.53180    0.20980    1.000
    H6       H        0.86550    0.49950    0.18060    1.000
    C10      C        0.94990    0.55780    0.27570    1.000
    H7       H        0.87020    0.54350    0.29120    1.000
    C11      C        0.07060    0.60530    0.31920    1.000
    H8       H        0.06910    0.62590    0.36340    1.000
    C12      C        0.06050    0.52740    0.11420    1.000
    C13      C        0.76010    0.10380    0.70870    1.000
    H9       H        0.85790    0.11990    0.72070    1.000
    C14      C        0.68060    0.15730    0.73370    1.000
    H10      H        0.72410    0.20860    0.76360    1.000
    C15      C        0.53170    0.13860    0.71630    1.000
    C16      C        0.47300    0.05640    0.67030    1.000
    H11      H        0.37590    0.03870    0.65560    1.000
    C17      C        0.56640    0.00640    0.64970    1.000
    H12      H        0.52840    0.95320    0.62140    1.000
    C18      C        0.43330    0.19440    0.74060    1.000
    C19      C        0.47180    0.25430    0.80320    1.000
    H13      H        0.56250    0.26100    0.82890    1.000
    C20      C        0.37720    0.30250    0.82650    1.000
    C21      C        0.24410    0.29430    0.78700    1.000
    H14      H        0.17930    0.32630    0.80290    1.000
    C22      C        0.20570    0.23990    0.72470    1.000
    H15      H        0.11790    0.23760    0.69800    1.000
    C23      C        0.29820    0.18830    0.70180    1.000
    H16      H        0.27050    0.14960    0.66050    1.000
    C24      C        0.41760    0.36380    0.89300    1.000
    C25      C        0.23820    0.76770    0.63660    1.000
    H17      H        0.26650    0.80540    0.61390    1.000
    C26      C        0.33820    0.73030    0.66890    1.000
    H18      H        0.43170    0.74050    0.66530    1.000
    C27      C        0.30090    0.67770    0.70690    1.000
    C28      C        0.15960    0.66240    0.70730    1.000
    H19      H        0.12990    0.62830    0.73250    1.000
    C29      C        0.06410    0.69520    0.67250    1.000
    H20      H        0.96920    0.67980    0.67210    1.000
    C30      C        0.41030    0.63930    0.74340    1.000
    C31      C        0.39180    0.62390    0.80290    1.000
    H21      H        0.31050    0.63480    0.81800    1.000
    C32      C        0.49530    0.59210    0.83960    1.000
    C33      C        0.61690    0.57580    0.81890    1.000
    H22      H        0.68850    0.55880    0.84530    1.000
    C34      C        0.63080    0.58590    0.75490    1.000
    H23      H        0.70820    0.57030    0.73820    1.000
    C35      C        0.53050    0.61820    0.71880    1.000
    H24      H        0.54130    0.62620    0.67850    1.000
    C36      C        0.47240    0.57500    0.90320    1.000
    Ce2      Ce       0.72280    0.48254    0.00173    1.000
    I5       I        0.23627    0.00836    0.49975    1.000
    I6       I        0.01507    0.22152    0.53043    1.000
    I7       I        0.91288    0.02165    0.32855    1.000
    I8       I        0.29906    0.21231    0.38780    1.000
    Cu5      Cu       0.98742    0.05772    0.46092    1.000
    Cu6      Cu       0.24612    0.17305    0.49777    1.000
    Cu7      Cu       0.17983    0.05489    0.37922    1.000
    Cu8      Cu       0.03695    0.18315    0.40287    1.000
    O7       O        0.82680    0.45070    0.90570    1.000
    O8       O        0.05410    0.51080    0.92490    1.000
    O9       O        0.45620    0.62970    0.07360    1.000
    O10      O        0.67570    0.59480    0.08800    1.000
    O11      O        0.64500    0.41290    0.08120    1.000
    O12      O        0.43120    0.45010    0.06280    1.000
    N4       N        0.42180    0.23690    0.56510    1.000
    N5       N        0.29440    0.97390    0.33390    1.000
    N6       N        0.90210    0.25010    0.36250    1.000
    C37      C        0.54720    0.21380    0.56170    1.000
    H25      H        0.55060    0.16530    0.52970    1.000
    C38      C        0.67210    0.25830    0.60350    1.000
    H26      H        0.75760    0.24200    0.59690    1.000
    C39      C        0.67110    0.32790    0.65560    1.000
    C40      C        0.54010    0.35170    0.65980    1.000
    H27      H        0.53250    0.39890    0.69210    1.000
    C41      C        0.42140    0.30340    0.61460    1.000
    H28      H        0.33420    0.31860    0.61930    1.000
    C42      C        0.80360    0.37680    0.70200    1.000
    C43      C        0.80920    0.40290    0.76920    1.000
    H29      H        0.72840    0.39110    0.78460    1.000
    C44      C        0.93260    0.44620    0.81370    1.000
    C45      C        0.05310    0.46820    0.79020    1.000
    H30      H        0.13450    0.50050    0.81940    1.000
    C46      C        0.05010    0.44220    0.72430    1.000
    H31      H        0.12980    0.45650    0.70880    1.000
    C47      C        0.92940    0.39470    0.68080    1.000
    H32      H        0.93090    0.37410    0.63660    1.000
    C48      C        0.93950    0.47260    0.88580    1.000
    C49      C        0.23990    0.89620    0.29130    1.000
    H33      H        0.14210    0.88010    0.27930    1.000
    C50      C        0.31940    0.84270    0.26630    1.000
    H34      H        0.27590    0.79140    0.23640    1.000
    C51      C        0.46830    0.86140    0.28370    1.000
    C52      C        0.52700    0.94360    0.32970    1.000
    H35      H        0.62410    0.96130    0.34440    1.000
    C53      C        0.43360    0.99360    0.35030    1.000
    H36      H        0.47160    0.04680    0.37860    1.000
    C54      C        0.56670    0.80560    0.25940    1.000
    C55      C        0.52820    0.74570    0.19680    1.000
    H37      H        0.43750    0.73900    0.17110    1.000
    C56      C        0.62280    0.69750    0.17350    1.000
    C57      C        0.75590    0.70570    0.21300    1.000
    H38      H        0.82070    0.67370    0.19710    1.000
    C58      C        0.79430    0.76010    0.27530    1.000
    H39      H        0.88210    0.76240    0.30200    1.000
    C59      C        0.70180    0.81170    0.29820    1.000
    H40      H        0.72950    0.85040    0.33950    1.000
    C60      C        0.58240    0.63620    0.10700    1.000
    C61      C        0.76180    0.23230    0.36340    1.000
    H41      H        0.73350    0.19460    0.38610    1.000
    C62      C        0.66180    0.26970    0.33110    1.000
    H42      H        0.56830    0.25950    0.33470    1.000
    C63      C        0.69910    0.32230    0.29310    1.000
    C64      C        0.84040    0.33760    0.29270    1.000
    H43      H        0.87010    0.37170    0.26750    1.000
    C65      C        0.93590    0.30480    0.32750    1.000
    H44      H        0.03080    0.32020    0.32790    1.000
    C66      C        0.58970    0.36070    0.25660    1.000
    C67      C        0.60820    0.37610    0.19710    1.000
    H45      H        0.68950    0.36520    0.18200    1.000
    C68      C        0.50470    0.40790    0.16040    1.000
    C69      C        0.38310    0.42420    0.18110    1.000
    H46      H        0.31150    0.44120    0.15470    1.000
    C70      C        0.36920    0.41410    0.24510    1.000
    H47      H        0.29180    0.42970    0.26180    1.000
    C71      C        0.46950    0.38180    0.28120    1.000
    H48      H        0.45870    0.37380    0.32150    1.000
    C72      C        0.52760    0.42500    0.09680    1.000
