# CIF file generated by openbabel 3.1.0, see https://openbabel.org
data_I
_chemical_name_common 'image0'
_cell_length_a 13.798
_cell_length_b 16.605
_cell_length_c 24.133
_cell_angle_alpha 106.906
_cell_angle_beta 99.469
_cell_angle_gamma 90.184
_space_group_name_H-M_alt 'P 1'
_space_group_name_Hall 'P 1'
loop_
    _symmetry_equiv_pos_as_xyz
    x,y,z
loop_
    _atom_site_label
    _atom_site_type_symbol
    _atom_site_fract_x
    _atom_site_fract_y
    _atom_site_fract_z
    _atom_site_occupancy
    Zn1      Zn       0.66300    0.44539    0.43435    1.000
    Zn2      Zn       0.63571    0.40278    0.30556    1.000
    Zn3      Zn       0.16525    0.95509    0.43131    1.000
    Zn4      Zn       0.13232    0.88977    0.30129    1.000
    O1       O        0.74287    0.34211    0.40893    1.000
    O2       O        0.72299    0.30756    0.31092    1.000
    O3       O        0.54268    0.36385    0.41584    1.000
    O4       O        0.52318    0.33383    0.31831    1.000
    O5       O        0.56067    0.50769    0.33146    1.000
    O6       O        0.57230    0.53995    0.42898    1.000
    O7       O        0.77031    0.51685    0.41944    1.000
    O8       O        0.75694    0.48025    0.32161    1.000
    O9       O        0.27308    0.87387    0.41859    1.000
    O10      O        0.25567    0.83098    0.32006    1.000
    O11      O        0.03949    0.01028    0.40986    1.000
    O12      O        0.02070    0.97037    0.31120    1.000
    O13      O        0.22886    0.02681    0.38843    1.000
    O14      O        0.21315    0.98628    0.29055    1.000
    O15      O        0.08036    0.86196    0.44360    1.000
    O16      O        0.06538    0.82092    0.34562    1.000
    N1       N        0.21188    0.03491    0.51285    1.000
    N2       N        0.59348    0.37308    0.21739    1.000
    N3       N        0.07530    0.81208    0.21996    1.000
    N4       N        0.70187    0.46668    0.52269    1.000
    C1       C        0.75680    0.29693    0.35978    1.000
    C2       C        0.81860    0.22255    0.35914    1.000
    C3       C        0.85170    0.20342    0.41107    1.000
    H1       H        0.83420    0.23710    0.44680    1.000
    C4       C        0.90990    0.13568    0.41124    1.000
    H2       H        0.93220    0.12290    0.44690    1.000
    C5       C        0.93550    0.08638    0.35884    1.000
    C6       C        0.90130    0.10450    0.30659    1.000
    H3       H        0.91800    0.07040    0.27080    1.000
    C7       C        0.84280    0.17230    0.30649    1.000
    H4       H        0.81940    0.18450    0.27070    1.000
    C8       C        0.00360    0.01661    0.35996    1.000
    C9       C        0.50430    0.32247    0.36440    1.000
    C10      C        0.42960    0.25256    0.35761    1.000
    C11      C        0.39460    0.19680    0.30240    1.000
    H5       H        0.41340    0.20620    0.26850    1.000
    C12      C        0.33260    0.12790    0.29622    1.000
    H6       H        0.30940    0.09000    0.25830    1.000
    C13      C        0.30450    0.11439    0.34552    1.000
    C14      C        0.33560    0.17240    0.40043    1.000
    H7       H        0.31370    0.16490    0.43410    1.000
    C15      C        0.39790    0.24050    0.40631    1.000
    H8       H        0.41920    0.27950    0.44400    1.000
    C16      C        0.24420    0.03674    0.34100    1.000
    C17      C        0.54440    0.55289    0.38015    1.000
    C18      C        0.48440    0.62800    0.37925    1.000
    C19      C        0.44560    0.67175    0.42840    1.000
    H9       H        0.46060    0.65660    0.46380    1.000
    C20      C        0.38520    0.73715    0.42579    1.000
    H10      H        0.35830    0.76660    0.45930    1.000
    C21      C        0.36340    0.76029    0.37407    1.000
    C22      C        0.40390    0.71761    0.32531    1.000
    H11      H        0.39010    0.73350    0.29020    1.000
    C23      C        0.46420    0.65196    0.32794    1.000
    H12      H        0.49200    0.62310    0.29460    1.000
    C24      C        0.79090    0.52590    0.37273    1.000
    C25      C        0.86110    0.59821    0.37853    1.000
    C26      C        0.89190    0.60880    0.32956    1.000
    H13      H        0.87080    0.56890    0.29220    1.000
    C27      C        0.95370    0.67750    0.33455    1.000
    H14      H        0.97500    0.68420    0.30060    1.000
    C28      C        0.98450    0.73642    0.38871    1.000
    C29      C        0.95470    0.72510    0.43788    1.000
    H15      H        0.97630    0.76460    0.47530    1.000
    C30      C        0.89320    0.65610    0.43283    1.000
    H16      H        0.87300    0.64860    0.46690    1.000
    C31      C        0.04850    0.81195    0.39297    1.000
    C32      C        0.29230    0.82774    0.37082    1.000
    C33      C        0.11080    0.74160    0.19368    1.000
    H17      H        0.16880    0.72480    0.21360    1.000
    C34      C        0.07020    0.68940    0.13896    1.000
    H18      H        0.10100    0.63930    0.12190    1.000
    C35      C        0.98620    0.70990    0.10961    1.000
    C36      C        0.93290    0.76860    0.14200    1.000
    H19      H        0.86590    0.77500    0.12780    1.000
    C37      C        0.98010    0.81880    0.19660    1.000
    H20      H        0.94350    0.86050    0.21910    1.000
    C38      C        0.94270    0.66320    0.05045    1.000
    C39      C        0.90820    0.63180    0.00004    1.000
    C40      C        0.87520    0.60200    0.93629    1.000
    C41      C        0.95920    0.56870    0.90331    1.000
    C42      C        0.93120    0.54280    0.84232    1.000
    C43      C        0.82220    0.55210    0.82184    1.000
    C44      C        0.80240    0.64450    0.85012    1.000
    C45      C        0.75880    0.69950    0.82120    1.000
    H21      H        0.74060    0.68220    0.77960    1.000
    C46      C        0.74220    0.78020    0.85402    1.000
    H22      H        0.71280    0.81850    0.83460    1.000
    C47      C        0.76790    0.80590    0.91482    1.000
    H23      H        0.75440    0.86100    0.93670    1.000
    C48      C        0.81320    0.75140    0.94373    1.000
    H24      H        0.83240    0.76930    0.98530    1.000
    C49      C        0.82990    0.67100    0.91134    1.000
    C50      C        0.79580    0.52980    0.91468    1.000
    C51      C        0.76790    0.50290    0.85344    1.000
    C52      C        0.69620    0.43860    0.82691    1.000
    H25      H        0.67740    0.42020    0.78530    1.000
    C53      C        0.65220    0.40160    0.86160    1.000
    H26      H        0.60340    0.35700    0.84370    1.000
    C54      C        0.67870    0.42880    0.92208    1.000
    H27      H        0.64720    0.40340    0.94540    1.000
    C55      C        0.75120    0.49310    0.94920    1.000
    H28      H        0.76960    0.51140    0.99080    1.000
    C56      C        0.79360    0.52550    0.75786    1.000
    C57      C        0.77460    0.50780    0.70584    1.000
    C58      C        0.75070    0.49280    0.64331    1.000
    C59      C        0.67350    0.53290    0.62007    1.000
    H29      H        0.63630    0.57010    0.64530    1.000
    C60      C        0.65100    0.51830    0.55980    1.000
    H30      H        0.59770    0.54590    0.54430    1.000
    C61      C        0.77710    0.42760    0.54509    1.000
    H31      H        0.81330    0.39090    0.51890    1.000
    C62      C        0.80360    0.43890    0.60474    1.000
    H32      H        0.85710    0.41040    0.61920    1.000
    C63      C        0.30470    0.06920    0.52913    1.000
    H33      H        0.34630    0.05960    0.50040    1.000
    C64      C        0.34180    0.11760    0.58593    1.000
    H34      H        0.40710    0.14210    0.59580    1.000
    C65      C        0.28140    0.12990    0.62839    1.000
    C66      C        0.18440    0.09840    0.61082    1.000
    H35      H        0.14030    0.10860    0.63820    1.000
    C67      C        0.15290    0.05187    0.55288    1.000
    H36      H        0.08620    0.03110    0.54100    1.000
    C68      C        0.31950    0.16870    0.68973    1.000
    C69      C        0.35010    0.19090    0.74111    1.000
    C70      C        0.38480    0.21470    0.80480    1.000
    C71      C        0.49290    0.19810    0.82140    1.000
    C72      C        0.55750    0.16430    0.78354    1.000
    H37      H        0.53600    0.14930    0.74220    1.000
    C73      C        0.65400    0.15260    0.80625    1.000
    H38      H        0.69810    0.12880    0.78030    1.000
    C74      C        0.68620    0.17530    0.86668    1.000
    H39      H        0.75230    0.16760    0.88190    1.000
    C75      C        0.62160    0.20940    0.90497    1.000
    H40      H        0.64360    0.22500    0.94630    1.000
    C76      C        0.52570    0.22060    0.88271    1.000
    C77      C        0.44500    0.25620    0.91823    1.000
    C78      C        0.36150    0.18720    0.89638    1.000
    C79      C        0.32940    0.16460    0.83552    1.000
    C80      C        0.25840    0.09960    0.80887    1.000
    H41      H        0.23610    0.08400    0.76760    1.000
    C81      C        0.22010    0.05750    0.84302    1.000
    H42      H        0.17180    0.01260    0.82480    1.000
    C82      C        0.25140    0.08000    0.90327    1.000
    H43      H        0.22420    0.05100    0.92620    1.000
    C83      C        0.32250    0.14510    0.93020    1.000
    H44      H        0.34430    0.16070    0.97150    1.000
    C84      C        0.40820    0.33040    0.89659    1.000
    C85      C        0.37660    0.30870    0.83585    1.000
    C86      C        0.34640    0.36940    0.80911    1.000
    H45      H        0.32510    0.35440    0.76780    1.000
    C87      C        0.34750    0.45280    0.84348    1.000
    H46      H        0.32760    0.49530    0.82550    1.000
    C88      C        0.37770    0.47420    0.90411    1.000
    H47      H        0.37750    0.53120    0.92730    1.000
    C89      C        0.40790    0.41320    0.93095    1.000
    H48      H        0.42810    0.42790    0.97240    1.000
    C90      C        0.47700    0.27970    0.98189    1.000
    C91      C        0.50180    0.29980    0.03376    1.000
    C92      C        0.53240    0.32470    0.09657    1.000
    C93      C        0.62490    0.30590    0.12074    1.000
    H49      H        0.66840    0.27620    0.09620    1.000
    C94      C        0.65240    0.33100    0.18112    1.000
    H50      H        0.71550    0.31800    0.19760    1.000
    C95      C        0.50460    0.39120    0.19382    1.000
    H51      H        0.46260    0.42110    0.21930    1.000
    C96      C        0.47150    0.36810    0.13395    1.000
    H52      H        0.40790    0.38170    0.11860    1.000
    C97      C        0.04970    0.54660    0.92870    1.000
    H53      H        0.06630    0.55880    0.97010    1.000
    C98      C        0.11570    0.50650    0.89280    1.000
    H54      H        0.17970    0.49630    0.91000    1.000
    C99      C        0.08770    0.48150    0.83180    1.000
    H55      H        0.13320    0.45490    0.80750    1.000
    C100     C        0.99370    0.49510    0.80630    1.000
    H56      H        0.97500    0.47700    0.76000    1.000
    C101     C        0.97450    0.80310    0.12850    1.000
    H57      H        0.93520    0.82930    0.10320    1.000
    C102     C        0.02220    0.85050    0.18370    1.000
    H58      H        0.01760    0.90990    0.19590    1.000
    C103     C        0.06270    0.59160    0.92800    1.000
    H59      H        0.08240    0.62110    0.96850    1.000
    C104     C        0.13160    0.56950    0.89140    1.000
    H60      H        0.19930    0.57250    0.90810    1.000
    C105     C        0.10430    0.54350    0.83160    1.000
    H61      H        0.15310    0.53110    0.80720    1.000
    C106     C        0.00430    0.53520    0.80610    1.000
    H62      H        0.98550    0.52460    0.76490    1.000
    Zn5      Zn       0.33700    0.55461    0.56565    1.000
    Zn6      Zn       0.36429    0.59722    0.69444    1.000
    Zn7      Zn       0.83475    0.04491    0.56869    1.000
    Zn8      Zn       0.86768    0.11023    0.69871    1.000
    O17      O        0.25713    0.65789    0.59107    1.000
    O18      O        0.27701    0.69244    0.68908    1.000
    O19      O        0.45732    0.63615    0.58416    1.000
    O20      O        0.47682    0.66617    0.68169    1.000
    O21      O        0.43933    0.49231    0.66854    1.000
    O22      O        0.42770    0.46005    0.57102    1.000
    O23      O        0.22969    0.48315    0.58056    1.000
    O24      O        0.24306    0.51975    0.67839    1.000
    O25      O        0.72692    0.12613    0.58141    1.000
    O26      O        0.74433    0.16902    0.67994    1.000
    O27      O        0.96051    0.98972    0.59014    1.000
    O28      O        0.97930    0.02963    0.68880    1.000
    O29      O        0.77114    0.97319    0.61157    1.000
    O30      O        0.78685    0.01372    0.70945    1.000
    O31      O        0.91964    0.13804    0.55640    1.000
    O32      O        0.93462    0.17908    0.65438    1.000
    N5       N        0.78812    0.96509    0.48715    1.000
    N6       N        0.40652    0.62692    0.78261    1.000
    N7       N        0.92470    0.18792    0.78004    1.000
    N8       N        0.29813    0.53332    0.47731    1.000
    C107     C        0.24320    0.70307    0.64022    1.000
    C108     C        0.18140    0.77745    0.64086    1.000
    C109     C        0.14830    0.79658    0.58893    1.000
    H63      H        0.16580    0.76290    0.55320    1.000
    C110     C        0.09010    0.86432    0.58876    1.000
    H64      H        0.06780    0.87710    0.55310    1.000
    C111     C        0.06450    0.91362    0.64116    1.000
    C112     C        0.09870    0.89550    0.69341    1.000
    H65      H        0.08200    0.92960    0.72920    1.000
    C113     C        0.15720    0.82770    0.69351    1.000
    H66      H        0.18060    0.81550    0.72930    1.000
    C114     C        0.99640    0.98339    0.64004    1.000
    C115     C        0.49570    0.67753    0.63560    1.000
    C116     C        0.57040    0.74744    0.64239    1.000
    C117     C        0.60540    0.80320    0.69760    1.000
    H67      H        0.58660    0.79380    0.73150    1.000
    C118     C        0.66740    0.87210    0.70378    1.000
    H68      H        0.69060    0.91000    0.74170    1.000
    C119     C        0.69550    0.88561    0.65448    1.000
    C120     C        0.66440    0.82760    0.59957    1.000
    H69      H        0.68630    0.83510    0.56590    1.000
    C121     C        0.60210    0.75950    0.59369    1.000
    H70      H        0.58080    0.72050    0.55600    1.000
    C122     C        0.75580    0.96326    0.65900    1.000
    C123     C        0.45560    0.44711    0.61985    1.000
    C124     C        0.51560    0.37200    0.62075    1.000
    C125     C        0.55440    0.32825    0.57160    1.000
    H71      H        0.53940    0.34340    0.53620    1.000
    C126     C        0.61480    0.26285    0.57421    1.000
    H72      H        0.64170    0.23340    0.54070    1.000
    C127     C        0.63660    0.23971    0.62593    1.000
    C128     C        0.59610    0.28239    0.67469    1.000
    H73      H        0.60990    0.26650    0.70980    1.000
    C129     C        0.53580    0.34804    0.67206    1.000
    H74      H        0.50800    0.37690    0.70540    1.000
    C130     C        0.20910    0.47410    0.62727    1.000
    C131     C        0.13890    0.40179    0.62147    1.000
    C132     C        0.10810    0.39120    0.67044    1.000
    H75      H        0.12920    0.43110    0.70780    1.000
    C133     C        0.04630    0.32250    0.66545    1.000
    H76      H        0.02500    0.31580    0.69940    1.000
    C134     C        0.01550    0.26358    0.61129    1.000
    C135     C        0.04530    0.27490    0.56212    1.000
    H77      H        0.02370    0.23540    0.52470    1.000
    C136     C        0.10680    0.34390    0.56717    1.000
    H78      H        0.12700    0.35140    0.53310    1.000
    C137     C        0.95150    0.18805    0.60703    1.000
    C138     C        0.70770    0.17226    0.62918    1.000
    C139     C        0.88920    0.25840    0.80632    1.000
    H79      H        0.83120    0.27520    0.78640    1.000
    C140     C        0.92980    0.31060    0.86104    1.000
    H80      H        0.89900    0.36070    0.87810    1.000
    C141     C        0.01380    0.29010    0.89039    1.000
    C142     C        0.06710    0.23140    0.85800    1.000
    H81      H        0.13410    0.22500    0.87220    1.000
    C143     C        0.01990    0.18120    0.80340    1.000
    H82      H        0.05650    0.13950    0.78090    1.000
    C144     C        0.05730    0.33680    0.94955    1.000
    C145     C        0.09180    0.36820    0.99996    1.000
    C146     C        0.12480    0.39800    0.06371    1.000
    C147     C        0.04080    0.43130    0.09669    1.000
    C148     C        0.06880    0.45720    0.15768    1.000
    C149     C        0.17780    0.44790    0.17816    1.000
    C150     C        0.19760    0.35550    0.14988    1.000
    C151     C        0.24120    0.30050    0.17880    1.000
    H83      H        0.25940    0.31780    0.22040    1.000
    C152     C        0.25780    0.21980    0.14598    1.000
    H84      H        0.28720    0.18150    0.16540    1.000
    C153     C        0.23210    0.19410    0.08518    1.000
    H85      H        0.24560    0.13900    0.06330    1.000
    C154     C        0.18680    0.24860    0.05627    1.000
    H86      H        0.16760    0.23070    0.01470    1.000
    C155     C        0.17010    0.32900    0.08866    1.000
    C156     C        0.20420    0.47020    0.08532    1.000
    C157     C        0.23210    0.49710    0.14656    1.000
    C158     C        0.30380    0.56140    0.17309    1.000
    H87      H        0.32260    0.57980    0.21470    1.000
    C159     C        0.34780    0.59840    0.13840    1.000
    H88      H        0.39660    0.64300    0.15630    1.000
    C160     C        0.32130    0.57120    0.07792    1.000
    H89      H        0.35280    0.59660    0.05460    1.000
    C161     C        0.24880    0.50690    0.05080    1.000
    H90      H        0.23040    0.48860    0.00920    1.000
    C162     C        0.20640    0.47450    0.24214    1.000
    C163     C        0.22540    0.49220    0.29416    1.000
    C164     C        0.24930    0.50720    0.35669    1.000
    C165     C        0.32650    0.46710    0.37993    1.000
    H91      H        0.36370    0.42990    0.35470    1.000
    C166     C        0.34900    0.48170    0.44020    1.000
    H92      H        0.40230    0.45410    0.45570    1.000
    C167     C        0.22290    0.57240    0.45491    1.000
    H93      H        0.18670    0.60910    0.48110    1.000
    C168     C        0.19640    0.56110    0.39526    1.000
    H94      H        0.14290    0.58960    0.38080    1.000
    C169     C        0.69530    0.93080    0.47087    1.000
    H95      H        0.65370    0.94040    0.49960    1.000
    C170     C        0.65820    0.88240    0.41407    1.000
    H96      H        0.59290    0.85790    0.40420    1.000
    C171     C        0.71860    0.87010    0.37161    1.000
    C172     C        0.81560    0.90160    0.38918    1.000
    H97      H        0.85970    0.89140    0.36180    1.000
    C173     C        0.84710    0.94813    0.44712    1.000
    H98      H        0.91380    0.96890    0.45900    1.000
    C174     C        0.68050    0.83130    0.31027    1.000
    C175     C        0.64990    0.80910    0.25889    1.000
    C176     C        0.61520    0.78530    0.19520    1.000
    C177     C        0.50710    0.80190    0.17860    1.000
    C178     C        0.44250    0.83570    0.21646    1.000
    H99      H        0.46400    0.85070    0.25780    1.000
    C179     C        0.34600    0.84740    0.19375    1.000
    H100     H        0.30190    0.87120    0.21970    1.000
    C180     C        0.31380    0.82470    0.13332    1.000
    H101     H        0.24770    0.83240    0.11810    1.000
    C181     C        0.37840    0.79060    0.09503    1.000
    H102     H        0.35640    0.77500    0.05370    1.000
    C182     C        0.47430    0.77940    0.11729    1.000
    C183     C        0.55500    0.74380    0.08177    1.000
    C184     C        0.63850    0.81280    0.10362    1.000
    C185     C        0.67060    0.83540    0.16448    1.000
    C186     C        0.74160    0.90040    0.19113    1.000
    H103     H        0.76390    0.91600    0.23240    1.000
    C187     C        0.77990    0.94250    0.15698    1.000
    H104     H        0.82820    0.98740    0.17520    1.000
    C188     C        0.74860    0.92000    0.09673    1.000
    H105     H        0.77580    0.94900    0.07380    1.000
    C189     C        0.67750    0.85490    0.06980    1.000
    H106     H        0.65570    0.83930    0.02850    1.000
    C190     C        0.59180    0.66960    0.10341    1.000
    C191     C        0.62340    0.69130    0.16415    1.000
    C192     C        0.65360    0.63060    0.19089    1.000
    H107     H        0.67490    0.64560    0.23220    1.000
    C193     C        0.65250    0.54720    0.15652    1.000
    H108     H        0.67240    0.50470    0.17450    1.000
    C194     C        0.62230    0.52580    0.09589    1.000
    H109     H        0.62250    0.46880    0.07270    1.000
    C195     C        0.59210    0.58680    0.06905    1.000
    H110     H        0.57190    0.57210    0.02760    1.000
    C196     C        0.52300    0.72030    0.01811    1.000
    C197     C        0.49820    0.70020    0.96624    1.000
    C198     C        0.46760    0.67530    0.90343    1.000
    C199     C        0.37510    0.69410    0.87926    1.000
    H111     H        0.33160    0.72380    0.90380    1.000
    C200     C        0.34760    0.66900    0.81888    1.000
    H112     H        0.28450    0.68200    0.80240    1.000
    C201     C        0.49540    0.60880    0.80618    1.000
    H113     H        0.53740    0.57890    0.78070    1.000
    C202     C        0.52850    0.63190    0.86605    1.000
    H114     H        0.59210    0.61830    0.88140    1.000
    C203     C        0.95030    0.45340    0.07130    1.000
    H115     H        0.93370    0.44120    0.02990    1.000
    C204     C        0.88430    0.49350    0.10720    1.000
    H116     H        0.82030    0.50370    0.09000    1.000
    C205     C        0.91230    0.51850    0.16820    1.000
    H117     H        0.86680    0.54510    0.19250    1.000
    C206     C        0.00630    0.50490    0.19370    1.000
    H118     H        0.02500    0.52300    0.24000    1.000
    C207     C        0.02550    0.19690    0.87150    1.000
    H119     H        0.06480    0.17070    0.89680    1.000
    C208     C        0.97780    0.14950    0.81630    1.000
    H120     H        0.98240    0.09010    0.80410    1.000
    C209     C        0.93730    0.40840    0.07200    1.000
    H121     H        0.91760    0.37890    0.03150    1.000
    C210     C        0.86840    0.43050    0.10860    1.000
    H122     H        0.80070    0.42750    0.09190    1.000
    C211     C        0.89570    0.45650    0.16840    1.000
    H123     H        0.84690    0.46890    0.19280    1.000
    C212     C        0.99570    0.46480    0.19390    1.000
    H124     H        0.01450    0.47540    0.23510    1.000
