# CIF file generated by openbabel 3.1.0, see https://openbabel.org
data_I
_chemical_name_common 'image0'
_cell_length_a 25.1267
_cell_length_b 22.1514
_cell_length_c 13.6062
_cell_angle_alpha 90
_cell_angle_beta 90
_cell_angle_gamma 90
_space_group_name_H-M_alt 'P 1'
_space_group_name_Hall 'P 1'
loop_
    _symmetry_equiv_pos_as_xyz
    x,y,z
loop_
    _atom_site_label
    _atom_site_type_symbol
    _atom_site_fract_x
    _atom_site_fract_y
    _atom_site_fract_z
    _atom_site_occupancy
    Gd1      Gd       0.03291    0.82867    0.48271    1.000
    Ru1      Ru       0.35137    0.69869    0.25896    1.000
    Ru2      Ru       0.12938    0.65121    0.26092    1.000
    C1       C        0.24244    0.66280    0.31180    1.000
    C2       C        0.20290    0.60940    0.43540    1.000
    H1       H        0.17290    0.59390    0.46620    1.000
    C3       C        0.25250    0.60120    0.47710    1.000
    H2       H        0.25590    0.57960    0.53550    1.000
    C4       C        0.29660    0.62500    0.43200    1.000
    H3       H        0.33000    0.61900    0.45970    1.000
    C5       C        0.23674    0.69580    0.21900    1.000
    C6       C        0.18250    0.73160    0.09720    1.000
    H4       H        0.14890    0.73680    0.06970    1.000
    C7       C        0.22680    0.75710    0.05110    1.000
    H5       H        0.22310    0.77890    0.99300    1.000
    C8       C        0.27630    0.74930    0.09370    1.000
    H6       H        0.30630    0.76560    0.06340    1.000
    C9       C        0.34470    0.77910    0.33190    1.000
    C10      C        0.10180    0.73930    0.66540    1.000
    C11      C        0.91380    0.82280    0.34080    1.000
    C12      C        0.35930    0.61960    0.18620    1.000
    C13      C        0.10340    0.72650    0.32970    1.000
    C14      C        0.07000    0.66360    0.16840    1.000
    C15      C        0.08330    0.60300    0.34820    1.000
    C16      C        0.15140    0.57510    0.18700    1.000
    N1       N        0.19797    0.63980    0.35070    1.000
    N2       N        0.29209    0.65710    0.34770    1.000
    N3       N        0.18785    0.69996    0.18040    1.000
    N4       N        0.28168    0.71822    0.17920    1.000
    N5       N        0.34240    0.82470    0.37130    1.000
    N6       N        0.07680    0.76830    0.60870    1.000
    N7       N        0.95080    0.83350    0.38810    1.000
    N8       N        0.36440    0.57370    0.14510    1.000
    N9       N        0.08510    0.76860    0.36670    1.000
    N10      N        0.03450    0.67100    0.11610    1.000
    N11      N        0.05787    0.57440    0.40150    1.000
    N12      N        0.16360    0.53180    0.14580    1.000
    O1       O        0.00190    0.93310    0.50870    1.000
    O2       O        0.95530    0.58160    0.07460    1.000
    O3       O        0.10700    0.88470    0.52610    1.000
    O4       O        0.87020    0.64140    0.98170    1.000
    Gd2      Gd       0.03291    0.32867    0.98271    1.000
    Ru3      Ru       0.35137    0.19869    0.75896    1.000
    Ru4      Ru       0.12938    0.15121    0.76092    1.000
    C17      C        0.24244    0.16280    0.81180    1.000
    C18      C        0.20290    0.10940    0.93540    1.000
    H7       H        0.17290    0.09390    0.96620    1.000
    C19      C        0.25250    0.10120    0.97710    1.000
    H8       H        0.25590    0.07960    0.03550    1.000
    C20      C        0.29660    0.12500    0.93200    1.000
    H9       H        0.33000    0.11900    0.95970    1.000
    C21      C        0.23674    0.19580    0.71900    1.000
    C22      C        0.18250    0.23160    0.59720    1.000
    H10      H        0.14890    0.23680    0.56970    1.000
    C23      C        0.22680    0.25710    0.55110    1.000
    H11      H        0.22310    0.27890    0.49300    1.000
    C24      C        0.27630    0.24930    0.59370    1.000
    H12      H        0.30630    0.26560    0.56340    1.000
    C25      C        0.34470    0.27910    0.83190    1.000
    C26      C        0.10180    0.23930    0.16540    1.000
    C27      C        0.91380    0.32280    0.84080    1.000
    C28      C        0.35930    0.11960    0.68620    1.000
    C29      C        0.10340    0.22650    0.82970    1.000
    C30      C        0.07000    0.16360    0.66840    1.000
    C31      C        0.08330    0.10300    0.84820    1.000
    C32      C        0.15140    0.07510    0.68700    1.000
    N13      N        0.19797    0.13980    0.85070    1.000
    N14      N        0.29209    0.15710    0.84770    1.000
    N15      N        0.18785    0.19996    0.68040    1.000
    N16      N        0.28168    0.21822    0.67920    1.000
    N17      N        0.34240    0.32470    0.87130    1.000
    N18      N        0.07680    0.26830    0.10870    1.000
    N19      N        0.95080    0.33350    0.88810    1.000
    N20      N        0.36440    0.07370    0.64510    1.000
    N21      N        0.08510    0.26860    0.86670    1.000
    N22      N        0.03450    0.17100    0.61610    1.000
    N23      N        0.05787    0.07440    0.90150    1.000
    N24      N        0.16360    0.03180    0.64580    1.000
    O5       O        0.00190    0.43310    0.00870    1.000
    O6       O        0.95530    0.08160    0.57460    1.000
    O7       O        0.10700    0.38470    0.02610    1.000
    O8       O        0.87020    0.14140    0.48170    1.000
    Gd3      Gd       0.96709    0.17133    0.48271    1.000
    Ru5      Ru       0.64863    0.30131    0.25896    1.000
    Ru6      Ru       0.87062    0.34879    0.26092    1.000
    C33      C        0.75756    0.33720    0.31180    1.000
    C34      C        0.79710    0.39060    0.43540    1.000
    H13      H        0.82710    0.40610    0.46620    1.000
    C35      C        0.74750    0.39880    0.47710    1.000
    H14      H        0.74410    0.42040    0.53550    1.000
    C36      C        0.70340    0.37500    0.43200    1.000
    H15      H        0.67000    0.38100    0.45970    1.000
    C37      C        0.76326    0.30420    0.21900    1.000
    C38      C        0.81750    0.26840    0.09720    1.000
    H16      H        0.85110    0.26320    0.06970    1.000
    C39      C        0.77320    0.24290    0.05110    1.000
    H17      H        0.77690    0.22110    0.99300    1.000
    C40      C        0.72370    0.25070    0.09370    1.000
    H18      H        0.69370    0.23440    0.06340    1.000
    C41      C        0.65530    0.22090    0.33190    1.000
    C42      C        0.89820    0.26070    0.66540    1.000
    C43      C        0.08620    0.17720    0.34080    1.000
    C44      C        0.64070    0.38040    0.18620    1.000
    C45      C        0.89660    0.27350    0.32970    1.000
    C46      C        0.93000    0.33640    0.16840    1.000
    C47      C        0.91670    0.39700    0.34820    1.000
    C48      C        0.84860    0.42490    0.18700    1.000
    N25      N        0.80203    0.36020    0.35070    1.000
    N26      N        0.70791    0.34290    0.34770    1.000
    N27      N        0.81215    0.30004    0.18040    1.000
    N28      N        0.71832    0.28178    0.17920    1.000
    N29      N        0.65760    0.17530    0.37130    1.000
    N30      N        0.92320    0.23170    0.60870    1.000
    N31      N        0.04920    0.16650    0.38810    1.000
    N32      N        0.63560    0.42630    0.14510    1.000
    N33      N        0.91490    0.23140    0.36670    1.000
    N34      N        0.96550    0.32900    0.11610    1.000
    N35      N        0.94213    0.42560    0.40150    1.000
    N36      N        0.83640    0.46820    0.14580    1.000
    O9       O        0.99810    0.06690    0.50870    1.000
    O10      O        0.04470    0.41840    0.07460    1.000
    O11      O        0.89300    0.11530    0.52610    1.000
    O12      O        0.12980    0.35860    0.98170    1.000
    Gd4      Gd       0.96709    0.67133    0.98271    1.000
    Ru7      Ru       0.64863    0.80131    0.75896    1.000
    Ru8      Ru       0.87062    0.84879    0.76092    1.000
    C49      C        0.75756    0.83720    0.81180    1.000
    C50      C        0.79710    0.89060    0.93540    1.000
    H19      H        0.82710    0.90610    0.96620    1.000
    C51      C        0.74750    0.89880    0.97710    1.000
    H20      H        0.74410    0.92040    0.03550    1.000
    C52      C        0.70340    0.87500    0.93200    1.000
    H21      H        0.67000    0.88100    0.95970    1.000
    C53      C        0.76326    0.80420    0.71900    1.000
    C54      C        0.81750    0.76840    0.59720    1.000
    H22      H        0.85110    0.76320    0.56970    1.000
    C55      C        0.77320    0.74290    0.55110    1.000
    H23      H        0.77690    0.72110    0.49300    1.000
    C56      C        0.72370    0.75070    0.59370    1.000
    H24      H        0.69370    0.73440    0.56340    1.000
    C57      C        0.65530    0.72090    0.83190    1.000
    C58      C        0.89820    0.76070    0.16540    1.000
    C59      C        0.08620    0.67720    0.84080    1.000
    C60      C        0.64070    0.88040    0.68620    1.000
    C61      C        0.89660    0.77350    0.82970    1.000
    C62      C        0.93000    0.83640    0.66840    1.000
    C63      C        0.91670    0.89700    0.84820    1.000
    C64      C        0.84860    0.92490    0.68700    1.000
    N37      N        0.80203    0.86020    0.85070    1.000
    N38      N        0.70791    0.84290    0.84770    1.000
    N39      N        0.81215    0.80004    0.68040    1.000
    N40      N        0.71832    0.78178    0.67920    1.000
    N41      N        0.65760    0.67530    0.87130    1.000
    N42      N        0.92320    0.73170    0.10870    1.000
    N43      N        0.04920    0.66650    0.88810    1.000
    N44      N        0.63560    0.92630    0.64510    1.000
    N45      N        0.91490    0.73140    0.86670    1.000
    N46      N        0.96550    0.82900    0.61610    1.000
    N47      N        0.94213    0.92560    0.90150    1.000
    N48      N        0.83640    0.96820    0.64580    1.000
    O13      O        0.99810    0.56690    0.00870    1.000
    O14      O        0.04470    0.91840    0.57460    1.000
    O15      O        0.89300    0.61530    0.02610    1.000
    O16      O        0.12980    0.85860    0.48170    1.000
    Gd5      Gd       0.53291    0.67133    0.48271    1.000
    Ru9      Ru       0.85137    0.80131    0.25896    1.000
    Ru10     Ru       0.62938    0.84879    0.26092    1.000
    C65      C        0.74244    0.83720    0.31180    1.000
    C66      C        0.70290    0.89060    0.43540    1.000
    H25      H        0.67290    0.90610    0.46620    1.000
    C67      C        0.75250    0.89880    0.47710    1.000
    H26      H        0.75590    0.92040    0.53550    1.000
    C68      C        0.79660    0.87500    0.43200    1.000
    H27      H        0.83000    0.88100    0.45970    1.000
    C69      C        0.73674    0.80420    0.21900    1.000
    C70      C        0.68250    0.76840    0.09720    1.000
    H28      H        0.64890    0.76320    0.06970    1.000
    C71      C        0.72680    0.74290    0.05110    1.000
    H29      H        0.72310    0.72110    0.99300    1.000
    C72      C        0.77630    0.75070    0.09370    1.000
    H30      H        0.80630    0.73440    0.06340    1.000
    C73      C        0.84470    0.72090    0.33190    1.000
    C74      C        0.60180    0.76070    0.66540    1.000
    C75      C        0.41380    0.67720    0.34080    1.000
    C76      C        0.85930    0.88040    0.18620    1.000
    C77      C        0.60340    0.77350    0.32970    1.000
    C78      C        0.57000    0.83640    0.16840    1.000
    C79      C        0.58330    0.89700    0.34820    1.000
    C80      C        0.65140    0.92490    0.18700    1.000
    N49      N        0.69797    0.86020    0.35070    1.000
    N50      N        0.79209    0.84290    0.34770    1.000
    N51      N        0.68785    0.80004    0.18040    1.000
    N52      N        0.78168    0.78178    0.17920    1.000
    N53      N        0.84240    0.67530    0.37130    1.000
    N54      N        0.57680    0.73170    0.60870    1.000
    N55      N        0.45080    0.66650    0.38810    1.000
    N56      N        0.86440    0.92630    0.14510    1.000
    N57      N        0.58510    0.73140    0.36670    1.000
    N58      N        0.53450    0.82900    0.11610    1.000
    N59      N        0.55787    0.92560    0.40150    1.000
    N60      N        0.66360    0.96820    0.14580    1.000
    O17      O        0.50190    0.56690    0.50870    1.000
    O18      O        0.45530    0.91840    0.07460    1.000
    O19      O        0.60700    0.61530    0.52610    1.000
    O20      O        0.37020    0.85860    0.98170    1.000
    Gd6      Gd       0.53291    0.17133    0.98271    1.000
    Ru11     Ru       0.85137    0.30131    0.75896    1.000
    Ru12     Ru       0.62938    0.34879    0.76092    1.000
    C81      C        0.74244    0.33720    0.81180    1.000
    C82      C        0.70290    0.39060    0.93540    1.000
    H31      H        0.67290    0.40610    0.96620    1.000
    C83      C        0.75250    0.39880    0.97710    1.000
    H32      H        0.75590    0.42040    0.03550    1.000
    C84      C        0.79660    0.37500    0.93200    1.000
    H33      H        0.83000    0.38100    0.95970    1.000
    C85      C        0.73674    0.30420    0.71900    1.000
    C86      C        0.68250    0.26840    0.59720    1.000
    H34      H        0.64890    0.26320    0.56970    1.000
    C87      C        0.72680    0.24290    0.55110    1.000
    H35      H        0.72310    0.22110    0.49300    1.000
    C88      C        0.77630    0.25070    0.59370    1.000
    H36      H        0.80630    0.23440    0.56340    1.000
    C89      C        0.84470    0.22090    0.83190    1.000
    C90      C        0.60180    0.26070    0.16540    1.000
    C91      C        0.41380    0.17720    0.84080    1.000
    C92      C        0.85930    0.38040    0.68620    1.000
    C93      C        0.60340    0.27350    0.82970    1.000
    C94      C        0.57000    0.33640    0.66840    1.000
    C95      C        0.58330    0.39700    0.84820    1.000
    C96      C        0.65140    0.42490    0.68700    1.000
    N61      N        0.69797    0.36020    0.85070    1.000
    N62      N        0.79209    0.34290    0.84770    1.000
    N63      N        0.68785    0.30004    0.68040    1.000
    N64      N        0.78168    0.28178    0.67920    1.000
    N65      N        0.84240    0.17530    0.87130    1.000
    N66      N        0.57680    0.23170    0.10870    1.000
    N67      N        0.45080    0.16650    0.88810    1.000
    N68      N        0.86440    0.42630    0.64510    1.000
    N69      N        0.58510    0.23140    0.86670    1.000
    N70      N        0.53450    0.32900    0.61610    1.000
    N71      N        0.55787    0.42560    0.90150    1.000
    N72      N        0.66360    0.46820    0.64580    1.000
    O21      O        0.50190    0.06690    0.00870    1.000
    O22      O        0.45530    0.41840    0.57460    1.000
    O23      O        0.60700    0.11530    0.02610    1.000
    O24      O        0.37020    0.35860    0.48170    1.000
    Gd7      Gd       0.46709    0.32867    0.48271    1.000
    Ru13     Ru       0.14863    0.19869    0.25896    1.000
    Ru14     Ru       0.37062    0.15121    0.26092    1.000
    C97      C        0.25756    0.16280    0.31180    1.000
    C98      C        0.29710    0.10940    0.43540    1.000
    H37      H        0.32710    0.09390    0.46620    1.000
    C99      C        0.24750    0.10120    0.47710    1.000
    H38      H        0.24410    0.07960    0.53550    1.000
    C100     C        0.20340    0.12500    0.43200    1.000
    H39      H        0.17000    0.11900    0.45970    1.000
    C101     C        0.26326    0.19580    0.21900    1.000
    C102     C        0.31750    0.23160    0.09720    1.000
    H40      H        0.35110    0.23680    0.06970    1.000
    C103     C        0.27320    0.25710    0.05110    1.000
    H41      H        0.27690    0.27890    0.99300    1.000
    C104     C        0.22370    0.24930    0.09370    1.000
    H42      H        0.19370    0.26560    0.06340    1.000
    C105     C        0.15530    0.27910    0.33190    1.000
    C106     C        0.39820    0.23930    0.66540    1.000
    C107     C        0.58620    0.32280    0.34080    1.000
    C108     C        0.14070    0.11960    0.18620    1.000
    C109     C        0.39660    0.22650    0.32970    1.000
    C110     C        0.43000    0.16360    0.16840    1.000
    C111     C        0.41670    0.10300    0.34820    1.000
    C112     C        0.34860    0.07510    0.18700    1.000
    N73      N        0.30203    0.13980    0.35070    1.000
    N74      N        0.20791    0.15710    0.34770    1.000
    N75      N        0.31215    0.19996    0.18040    1.000
    N76      N        0.21832    0.21822    0.17920    1.000
    N77      N        0.15760    0.32470    0.37130    1.000
    N78      N        0.42320    0.26830    0.60870    1.000
    N79      N        0.54920    0.33350    0.38810    1.000
    N80      N        0.13560    0.07370    0.14510    1.000
    N81      N        0.41490    0.26860    0.36670    1.000
    N82      N        0.46550    0.17100    0.11610    1.000
    N83      N        0.44213    0.07440    0.40150    1.000
    N84      N        0.33640    0.03180    0.14580    1.000
    O25      O        0.49810    0.43310    0.50870    1.000
    O26      O        0.54470    0.08160    0.07460    1.000
    O27      O        0.39300    0.38470    0.52610    1.000
    O28      O        0.62980    0.14140    0.98170    1.000
    Gd8      Gd       0.46709    0.82867    0.98271    1.000
    Ru15     Ru       0.14863    0.69869    0.75896    1.000
    Ru16     Ru       0.37062    0.65121    0.76092    1.000
    C113     C        0.25756    0.66280    0.81180    1.000
    C114     C        0.29710    0.60940    0.93540    1.000
    H43      H        0.32710    0.59390    0.96620    1.000
    C115     C        0.24750    0.60120    0.97710    1.000
    H44      H        0.24410    0.57960    0.03550    1.000
    C116     C        0.20340    0.62500    0.93200    1.000
    H45      H        0.17000    0.61900    0.95970    1.000
    C117     C        0.26326    0.69580    0.71900    1.000
    C118     C        0.31750    0.73160    0.59720    1.000
    H46      H        0.35110    0.73680    0.56970    1.000
    C119     C        0.27320    0.75710    0.55110    1.000
    H47      H        0.27690    0.77890    0.49300    1.000
    C120     C        0.22370    0.74930    0.59370    1.000
    H48      H        0.19370    0.76560    0.56340    1.000
    C121     C        0.15530    0.77910    0.83190    1.000
    C122     C        0.39820    0.73930    0.16540    1.000
    C123     C        0.58620    0.82280    0.84080    1.000
    C124     C        0.14070    0.61960    0.68620    1.000
    C125     C        0.39660    0.72650    0.82970    1.000
    C126     C        0.43000    0.66360    0.66840    1.000
    C127     C        0.41670    0.60300    0.84820    1.000
    C128     C        0.34860    0.57510    0.68700    1.000
    N85      N        0.30203    0.63980    0.85070    1.000
    N86      N        0.20791    0.65710    0.84770    1.000
    N87      N        0.31215    0.69996    0.68040    1.000
    N88      N        0.21832    0.71822    0.67920    1.000
    N89      N        0.15760    0.82470    0.87130    1.000
    N90      N        0.42320    0.76830    0.10870    1.000
    N91      N        0.54920    0.83350    0.88810    1.000
    N92      N        0.13560    0.57370    0.64510    1.000
    N93      N        0.41490    0.76860    0.86670    1.000
    N94      N        0.46550    0.67100    0.61610    1.000
    N95      N        0.44213    0.57440    0.90150    1.000
    N96      N        0.33640    0.53180    0.64580    1.000
    O29      O        0.49810    0.93310    0.00870    1.000
    O30      O        0.54470    0.58160    0.57460    1.000
    O31      O        0.39300    0.88470    0.02610    1.000
    O32      O        0.62980    0.64140    0.48170    1.000
    Gd9      Gd       0.00000    0.50000    0.48378    1.000
    Gd10     Gd       0.00000    0.00000    0.98378    1.000
    Gd11     Gd       0.50000    0.00000    0.48378    1.000
    Gd12     Gd       0.50000    0.50000    0.98378    1.000
