data_functionalizedCrystal
_audit_creation_method	'EQeq! by Chris Wilmer'
_symmetry_space_group_name_H-M	'P1'
_symmetry_Int_Tables_number	1
_symmetry_cell_setting	triclinic
loop_
_symmetry_equiv_pos_as_xyz
  x,y,z
_cell_length_a	24.338
_cell_length_b	9.4877
_cell_length_c	16.502
_cell_angle_alpha	90
_cell_angle_beta	119.89
_cell_angle_gamma	90
loop_
_atom_site_label
_atom_site_type_symbol
_atom_site_fract_x
_atom_site_fract_y
_atom_site_fract_z
_atom_site_charge
Mof_Cu	Cu	0.04272	0.82361	0.03963	0.827
Mof_Cu	Cu	0.9572	0.61493	0.12225	0.821
Mof_N 	N 	0.86306	0.9823	0.97063	-0.115
Mof_N 	N 	0.92087	0.9935	0.97845	-0.173
Mof_N 	N 	0.95359	0.8789	0.0169	-0.179
Mof_N 	N 	0.91801	0.7897	0.03613	-0.213
Mof_N 	N 	0.91764	0.6822	0.20098	-0.213
Mof_N 	N 	0.95187	0.6989	0.29279	-0.179
Mof_N 	N 	0.91779	0.7645	0.32342	-0.172
Mof_N 	N 	0.86	0.7913	0.25217	-0.112
Mof_C 	C 	0.04375	0.6686	0.96414	-0.202
Mof_C 	C 	0.74918	0.6979	0.07708	-0.042
Mof_H 	H 	0.7492	0.6625	0.1296	0.044
Mof_C 	C 	0.80603	0.7438	0.08491	-0.042
Mof_C 	C 	0.80715	0.7963	0.00681	-0.037
Mof_C 	C 	0.8633	0.8555	0.00706	0.108
Mof_C 	C 	0.86185	0.7401	0.17876	0.109
Mof_N 	N 	0.04457	0.5666	0.92933	-0.227
Mof_Cu	Cu	0.54272	0.32361	0.03963	0.828
Mof_Cu	Cu	0.4572	0.11493	0.12225	0.822
Mof_N 	N 	0.36306	0.4823	0.97063	-0.114
Mof_N 	N 	0.42087	0.4935	0.97845	-0.171
Mof_N 	N 	0.45359	0.3789	0.0169	-0.181
Mof_N 	N 	0.41801	0.2897	0.03613	-0.213
Mof_N 	N 	0.41764	0.1822	0.20098	-0.213
Mof_N 	N 	0.45187	0.1989	0.29279	-0.179
Mof_N 	N 	0.41779	0.2645	0.32342	-0.172
Mof_N 	N 	0.36	0.2913	0.25217	-0.112
Mof_C 	C 	0.54375	0.1686	0.96414	-0.204
Mof_C 	C 	0.24918	0.1979	0.07708	-0.048
Mof_H 	H 	0.2492	0.1625	0.1296	0.046
Mof_C 	C 	0.30603	0.2438	0.08491	-0.038
Mof_C 	C 	0.30715	0.2963	0.00681	-0.042
Mof_C 	C 	0.3633	0.3555	0.00706	0.107
Mof_C 	C 	0.36185	0.2401	0.17876	0.108
Mof_N 	N 	0.54457	0.0666	0.92933	-0.227
Mof_Cu	Cu	0.95728	0.82361	0.46037	0.828
Mof_Cu	Cu	0.0428	0.61493	0.37775	0.822
Mof_N 	N 	0.13694	0.9823	0.52937	-0.114
Mof_N 	N 	0.07913	0.9935	0.52155	-0.171
Mof_N 	N 	0.04641	0.8789	0.4831	-0.181
Mof_N 	N 	0.08199	0.7897	0.46387	-0.213
Mof_N 	N 	0.08236	0.6822	0.29902	-0.213
Mof_N 	N 	0.04813	0.6989	0.20721	-0.179
Mof_N 	N 	0.08221	0.7645	0.17658	-0.173
Mof_N 	N 	0.14	0.7913	0.24783	-0.112
Mof_C 	C 	0.95625	0.6686	0.53586	-0.204
Mof_C 	C 	0.25082	0.6979	0.42292	-0.045
Mof_H 	H 	0.2508	0.6625	0.3704	0.045
Mof_C 	C 	0.19397	0.7438	0.41509	-0.04
Mof_C 	C 	0.19285	0.7963	0.49319	-0.04
Mof_C 	C 	0.1367	0.8555	0.49294	0.107
Mof_C 	C 	0.13815	0.7401	0.32124	0.109
Mof_N 	N 	0.95543	0.5666	0.57067	-0.227
Mof_Cu	Cu	0.45728	0.32361	0.46037	0.828
Mof_Cu	Cu	0.5428	0.11493	0.37775	0.822
Mof_N 	N 	0.63694	0.4823	0.52937	-0.114
Mof_N 	N 	0.57913	0.4935	0.52155	-0.171
Mof_N 	N 	0.54641	0.3789	0.4831	-0.181
Mof_N 	N 	0.58199	0.2897	0.46387	-0.213
Mof_N 	N 	0.58236	0.1822	0.29902	-0.213
Mof_N 	N 	0.54813	0.1989	0.20721	-0.179
Mof_N 	N 	0.58221	0.2645	0.17658	-0.172
Mof_N 	N 	0.64	0.2913	0.24783	-0.112
Mof_C 	C 	0.45625	0.1686	0.53586	-0.204
Mof_C 	C 	0.75082	0.1979	0.42292	-0.045
Mof_H 	H 	0.7508	0.1625	0.3704	0.045
Mof_C 	C 	0.69397	0.2438	0.41509	-0.04
Mof_C 	C 	0.69285	0.2963	0.49319	-0.04
Mof_C 	C 	0.6367	0.3555	0.49294	0.107
Mof_C 	C 	0.63815	0.2401	0.32124	0.109
Mof_N 	N 	0.45543	0.0666	0.57067	-0.227
Mof_Cu	Cu	0.95728	0.17639	0.96037	0.828
Mof_Cu	Cu	0.0428	0.38507	0.87775	0.822
Mof_N 	N 	0.13694	0.0177	0.02937	-0.115
Mof_N 	N 	0.07913	0.0065	0.02155	-0.173
Mof_N 	N 	0.04641	0.1211	0.9831	-0.179
Mof_N 	N 	0.08199	0.2103	0.96387	-0.213
Mof_N 	N 	0.08236	0.3178	0.79902	-0.213
Mof_N 	N 	0.04813	0.3011	0.70721	-0.179
Mof_N 	N 	0.08221	0.2355	0.67658	-0.172
Mof_N 	N 	0.14	0.2087	0.74783	-0.112
Mof_C 	C 	0.95625	0.3314	0.03586	-0.202
Mof_C 	C 	0.25082	0.3021	0.92292	-0.042
Mof_H 	H 	0.2508	0.3375	0.8704	0.044
Mof_C 	C 	0.19397	0.2562	0.91509	-0.042
Mof_C 	C 	0.19285	0.2037	0.99319	-0.037
Mof_C 	C 	0.1367	0.1445	0.99294	0.108
Mof_C 	C 	0.13815	0.2599	0.82124	0.109
Mof_N 	N 	0.95543	0.4334	0.07067	-0.227
Mof_Cu	Cu	0.45728	0.67639	0.96037	0.828
Mof_Cu	Cu	0.5428	0.88507	0.87775	0.822
Mof_N 	N 	0.63694	0.5177	0.02937	-0.114
Mof_N 	N 	0.57913	0.5065	0.02155	-0.171
Mof_N 	N 	0.54641	0.6211	0.9831	-0.181
Mof_N 	N 	0.58199	0.7103	0.96387	-0.213
Mof_N 	N 	0.58236	0.8178	0.79902	-0.213
Mof_N 	N 	0.54813	0.8011	0.70721	-0.179
Mof_N 	N 	0.58221	0.7355	0.67658	-0.172
Mof_N 	N 	0.64	0.7087	0.74783	-0.112
Mof_C 	C 	0.45625	0.8314	0.03586	-0.204
Mof_C 	C 	0.75082	0.8021	0.92292	-0.048
Mof_H 	H 	0.7508	0.8375	0.8704	0.046
Mof_C 	C 	0.69397	0.7562	0.91509	-0.038
Mof_C 	C 	0.69285	0.7037	0.99319	-0.042
Mof_C 	C 	0.6367	0.6445	0.99294	0.107
Mof_C 	C 	0.63815	0.7599	0.82124	0.108
Mof_N 	N 	0.45543	0.9334	0.07067	-0.227
Mof_Cu	Cu	0.04272	0.17639	0.53963	0.828
Mof_Cu	Cu	0.9572	0.38507	0.62225	0.822
Mof_N 	N 	0.86306	0.0177	0.47063	-0.114
Mof_N 	N 	0.92087	0.0065	0.47845	-0.171
Mof_N 	N 	0.95359	0.1211	0.5169	-0.181
Mof_N 	N 	0.91801	0.2103	0.53613	-0.213
Mof_N 	N 	0.91764	0.3178	0.70098	-0.213
Mof_N 	N 	0.95187	0.3011	0.79279	-0.179
Mof_N 	N 	0.91779	0.2355	0.82342	-0.173
Mof_N 	N 	0.86	0.2087	0.75217	-0.112
Mof_C 	C 	0.04375	0.3314	0.46414	-0.204
Mof_C 	C 	0.74918	0.3021	0.57708	-0.045
Mof_H 	H 	0.7492	0.3375	0.6296	0.045
Mof_C 	C 	0.80603	0.2562	0.58491	-0.04
Mof_C 	C 	0.80715	0.2037	0.50681	-0.04
Mof_C 	C 	0.8633	0.1445	0.50706	0.107
Mof_C 	C 	0.86185	0.2599	0.67876	0.109
Mof_N 	N 	0.04457	0.4334	0.42933	-0.227
Mof_Cu	Cu	0.54272	0.67639	0.53963	0.828
Mof_Cu	Cu	0.4572	0.88507	0.62225	0.822
Mof_N 	N 	0.36306	0.5177	0.47063	-0.114
Mof_N 	N 	0.42087	0.5065	0.47845	-0.171
Mof_N 	N 	0.45359	0.6211	0.5169	-0.181
Mof_N 	N 	0.41801	0.7103	0.53613	-0.213
Mof_N 	N 	0.41764	0.8178	0.70098	-0.213
Mof_N 	N 	0.45187	0.8011	0.79279	-0.179
Mof_N 	N 	0.41779	0.7355	0.82342	-0.172
Mof_N 	N 	0.36	0.7087	0.75217	-0.112
Mof_C 	C 	0.54375	0.8314	0.46414	-0.204
Mof_C 	C 	0.24918	0.8021	0.57708	-0.045
Mof_H 	H 	0.2492	0.8375	0.6296	0.045
Mof_C 	C 	0.30603	0.7562	0.58491	-0.04
Mof_C 	C 	0.30715	0.7037	0.50681	-0.04
Mof_C 	C 	0.3633	0.6445	0.50706	0.107
Mof_C 	C 	0.36185	0.7599	0.67876	0.109
Mof_N 	N 	0.54457	0.9334	0.42933	-0.227
_end
