# CIF file generated by openbabel 3.1.0, see https://openbabel.org
data_I
_chemical_name_common 'image0'
_cell_length_a 26.816
_cell_length_b 26.816
_cell_length_c 26.816
_cell_angle_alpha 90
_cell_angle_beta 90
_cell_angle_gamma 90
_space_group_name_H-M_alt 'P 1'
_space_group_name_Hall 'P 1'
loop_
    _symmetry_equiv_pos_as_xyz
    x,y,z
loop_
    _atom_site_label
    _atom_site_type_symbol
    _atom_site_fract_x
    _atom_site_fract_y
    _atom_site_fract_z
    _atom_site_occupancy
    H1       H        0.59340    0.02920    0.30450    1.000
    O1       O        0.55418    0.05256    0.12751    1.000
    O2       O        0.55100    0.05080    0.21040    1.000
    C1       C        0.57000    0.06400    0.17020    1.000
    C2       C        0.75080    0.17770    0.19750    1.000
    C3       C        0.76240    0.21890    0.16720    1.000
    H2       H        0.74260    0.22580    0.13950    1.000
    C4       C        0.61550    0.09490    0.17490    1.000
    C5       C        0.64210    0.11280    0.13380    1.000
    H3       H        0.63070    0.10630    0.10170    1.000
    C6       C        0.68520    0.14000    0.14090    1.000
    H4       H        0.70180    0.15300    0.11330    1.000
    C7       C        0.70440    0.14860    0.18840    1.000
    C8       C        0.67700    0.13160    0.22880    1.000
    H5       H        0.68850    0.13800    0.26090    1.000
    C9       C        0.63270    0.10540    0.22250    1.000
    H6       H        0.61470    0.09480    0.25020    1.000
    H7       H        0.40660    0.97080    0.30450    1.000
    O3       O        0.44582    0.94744    0.12751    1.000
    O4       O        0.44900    0.94920    0.21040    1.000
    C10      C        0.43000    0.93600    0.17020    1.000
    C11      C        0.24920    0.82230    0.19750    1.000
    C12      C        0.23760    0.78110    0.16720    1.000
    H8       H        0.25740    0.77420    0.13950    1.000
    C13      C        0.38450    0.90510    0.17490    1.000
    C14      C        0.35790    0.88720    0.13380    1.000
    H9       H        0.36930    0.89370    0.10170    1.000
    C15      C        0.31480    0.86000    0.14090    1.000
    H10      H        0.29820    0.84700    0.11330    1.000
    C16      C        0.29560    0.85140    0.18840    1.000
    C17      C        0.32300    0.86840    0.22880    1.000
    H11      H        0.31150    0.86200    0.26090    1.000
    C18      C        0.36730    0.89460    0.22250    1.000
    H12      H        0.38530    0.90520    0.25020    1.000
    H13      H        0.40660    0.02920    0.69550    1.000
    O5       O        0.44582    0.05256    0.87249    1.000
    O6       O        0.44900    0.05080    0.78960    1.000
    C19      C        0.43000    0.06400    0.82980    1.000
    C20      C        0.24920    0.17770    0.80250    1.000
    C21      C        0.23760    0.21890    0.83280    1.000
    H14      H        0.25740    0.22580    0.86050    1.000
    C22      C        0.38450    0.09490    0.82510    1.000
    C23      C        0.35790    0.11280    0.86620    1.000
    H15      H        0.36930    0.10630    0.89830    1.000
    C24      C        0.31480    0.14000    0.85910    1.000
    H16      H        0.29820    0.15300    0.88670    1.000
    C25      C        0.29560    0.14860    0.81160    1.000
    C26      C        0.32300    0.13160    0.77120    1.000
    H17      H        0.31150    0.13800    0.73910    1.000
    C27      C        0.36730    0.10540    0.77750    1.000
    H18      H        0.38530    0.09480    0.74980    1.000
    H19      H        0.59340    0.97080    0.69550    1.000
    O7       O        0.55418    0.94744    0.87249    1.000
    O8       O        0.55100    0.94920    0.78960    1.000
    C28      C        0.57000    0.93600    0.82980    1.000
    C29      C        0.75080    0.82230    0.80250    1.000
    C30      C        0.76240    0.78110    0.83280    1.000
    H20      H        0.74260    0.77420    0.86050    1.000
    C31      C        0.61550    0.90510    0.82510    1.000
    C32      C        0.64210    0.88720    0.86620    1.000
    H21      H        0.63070    0.89370    0.89830    1.000
    C33      C        0.68520    0.86000    0.85910    1.000
    H22      H        0.70180    0.84700    0.88670    1.000
    C34      C        0.70440    0.85140    0.81160    1.000
    C35      C        0.67700    0.86840    0.77120    1.000
    H23      H        0.68850    0.86200    0.73910    1.000
    C36      C        0.63270    0.89460    0.77750    1.000
    H24      H        0.61470    0.90520    0.74980    1.000
    H25      H        0.30450    0.59340    0.02920    1.000
    O9       O        0.12751    0.55418    0.05256    1.000
    O10      O        0.21040    0.55100    0.05080    1.000
    C37      C        0.17020    0.57000    0.06400    1.000
    C38      C        0.19750    0.75080    0.17770    1.000
    C39      C        0.16720    0.76240    0.21890    1.000
    H26      H        0.13950    0.74260    0.22580    1.000
    C40      C        0.17490    0.61550    0.09490    1.000
    C41      C        0.13380    0.64210    0.11280    1.000
    H27      H        0.10170    0.63070    0.10630    1.000
    C42      C        0.14090    0.68520    0.14000    1.000
    H28      H        0.11330    0.70180    0.15300    1.000
    C43      C        0.18840    0.70440    0.14860    1.000
    C44      C        0.22880    0.67700    0.13160    1.000
    H29      H        0.26090    0.68850    0.13800    1.000
    C45      C        0.22250    0.63270    0.10540    1.000
    H30      H        0.25020    0.61470    0.09480    1.000
    H31      H        0.30450    0.40660    0.97080    1.000
    O11      O        0.12751    0.44582    0.94744    1.000
    O12      O        0.21040    0.44900    0.94920    1.000
    C46      C        0.17020    0.43000    0.93600    1.000
    C47      C        0.19750    0.24920    0.82230    1.000
    C48      C        0.16720    0.23760    0.78110    1.000
    H32      H        0.13950    0.25740    0.77420    1.000
    C49      C        0.17490    0.38450    0.90510    1.000
    C50      C        0.13380    0.35790    0.88720    1.000
    H33      H        0.10170    0.36930    0.89370    1.000
    C51      C        0.14090    0.31480    0.86000    1.000
    H34      H        0.11330    0.29820    0.84700    1.000
    C52      C        0.18840    0.29560    0.85140    1.000
    C53      C        0.22880    0.32300    0.86840    1.000
    H35      H        0.26090    0.31150    0.86200    1.000
    C54      C        0.22250    0.36730    0.89460    1.000
    H36      H        0.25020    0.38530    0.90520    1.000
    H37      H        0.69550    0.40660    0.02920    1.000
    O13      O        0.87249    0.44582    0.05256    1.000
    O14      O        0.78960    0.44900    0.05080    1.000
    C55      C        0.82980    0.43000    0.06400    1.000
    C56      C        0.80250    0.24920    0.17770    1.000
    C57      C        0.83280    0.23760    0.21890    1.000
    H38      H        0.86050    0.25740    0.22580    1.000
    C58      C        0.82510    0.38450    0.09490    1.000
    C59      C        0.86620    0.35790    0.11280    1.000
    H39      H        0.89830    0.36930    0.10630    1.000
    C60      C        0.85910    0.31480    0.14000    1.000
    H40      H        0.88670    0.29820    0.15300    1.000
    C61      C        0.81160    0.29560    0.14860    1.000
    C62      C        0.77120    0.32300    0.13160    1.000
    H41      H        0.73910    0.31150    0.13800    1.000
    C63      C        0.77750    0.36730    0.10540    1.000
    H42      H        0.74980    0.38530    0.09480    1.000
    H43      H        0.69550    0.59340    0.97080    1.000
    O15      O        0.87249    0.55418    0.94744    1.000
    O16      O        0.78960    0.55100    0.94920    1.000
    C64      C        0.82980    0.57000    0.93600    1.000
    C65      C        0.80250    0.75080    0.82230    1.000
    C66      C        0.83280    0.76240    0.78110    1.000
    H44      H        0.86050    0.74260    0.77420    1.000
    C67      C        0.82510    0.61550    0.90510    1.000
    C68      C        0.86620    0.64210    0.88720    1.000
    H45      H        0.89830    0.63070    0.89370    1.000
    C69      C        0.85910    0.68520    0.86000    1.000
    H46      H        0.88670    0.70180    0.84700    1.000
    C70      C        0.81160    0.70440    0.85140    1.000
    C71      C        0.77120    0.67700    0.86840    1.000
    H47      H        0.73910    0.68850    0.86200    1.000
    C72      C        0.77750    0.63270    0.89460    1.000
    H48      H        0.74980    0.61470    0.90520    1.000
    H49      H        0.02920    0.30450    0.59340    1.000
    O17      O        0.05256    0.12751    0.55418    1.000
    O18      O        0.05080    0.21040    0.55100    1.000
    C73      C        0.06400    0.17020    0.57000    1.000
    C74      C        0.17770    0.19750    0.75080    1.000
    C75      C        0.21890    0.16720    0.76240    1.000
    H50      H        0.22580    0.13950    0.74260    1.000
    C76      C        0.09490    0.17490    0.61550    1.000
    C77      C        0.11280    0.13380    0.64210    1.000
    H51      H        0.10630    0.10170    0.63070    1.000
    C78      C        0.14000    0.14090    0.68520    1.000
    H52      H        0.15300    0.11330    0.70180    1.000
    C79      C        0.14860    0.18840    0.70440    1.000
    C80      C        0.13160    0.22880    0.67700    1.000
    H53      H        0.13800    0.26090    0.68850    1.000
    C81      C        0.10540    0.22250    0.63270    1.000
    H54      H        0.09480    0.25020    0.61470    1.000
    H55      H        0.97080    0.30450    0.40660    1.000
    O19      O        0.94744    0.12751    0.44582    1.000
    O20      O        0.94920    0.21040    0.44900    1.000
    C82      C        0.93600    0.17020    0.43000    1.000
    C83      C        0.82230    0.19750    0.24920    1.000
    C84      C        0.78110    0.16720    0.23760    1.000
    H56      H        0.77420    0.13950    0.25740    1.000
    C85      C        0.90510    0.17490    0.38450    1.000
    C86      C        0.88720    0.13380    0.35790    1.000
    H57      H        0.89370    0.10170    0.36930    1.000
    C87      C        0.86000    0.14090    0.31480    1.000
    H58      H        0.84700    0.11330    0.29820    1.000
    C88      C        0.85140    0.18840    0.29560    1.000
    C89      C        0.86840    0.22880    0.32300    1.000
    H59      H        0.86200    0.26090    0.31150    1.000
    C90      C        0.89460    0.22250    0.36730    1.000
    H60      H        0.90520    0.25020    0.38530    1.000
    H61      H        0.02920    0.69550    0.40660    1.000
    O21      O        0.05256    0.87249    0.44582    1.000
    O22      O        0.05080    0.78960    0.44900    1.000
    C91      C        0.06400    0.82980    0.43000    1.000
    C92      C        0.17770    0.80250    0.24920    1.000
    C93      C        0.21890    0.83280    0.23760    1.000
    H62      H        0.22580    0.86050    0.25740    1.000
    C94      C        0.09490    0.82510    0.38450    1.000
    C95      C        0.11280    0.86620    0.35790    1.000
    H63      H        0.10630    0.89830    0.36930    1.000
    C96      C        0.14000    0.85910    0.31480    1.000
    H64      H        0.15300    0.88670    0.29820    1.000
    C97      C        0.14860    0.81160    0.29560    1.000
    C98      C        0.13160    0.77120    0.32300    1.000
    H65      H        0.13800    0.73910    0.31150    1.000
    C99      C        0.10540    0.77750    0.36730    1.000
    H66      H        0.09480    0.74980    0.38530    1.000
    H67      H        0.97080    0.69550    0.59340    1.000
    O23      O        0.94744    0.87249    0.55418    1.000
    O24      O        0.94920    0.78960    0.55100    1.000
    C100     C        0.93600    0.82980    0.57000    1.000
    C101     C        0.82230    0.80250    0.75080    1.000
    C102     C        0.78110    0.83280    0.76240    1.000
    H68      H        0.77420    0.86050    0.74260    1.000
    C103     C        0.90510    0.82510    0.61550    1.000
    C104     C        0.88720    0.86620    0.64210    1.000
    H69      H        0.89370    0.89830    0.63070    1.000
    C105     C        0.86000    0.85910    0.68520    1.000
    H70      H        0.84700    0.88670    0.70180    1.000
    C106     C        0.85140    0.81160    0.70440    1.000
    C107     C        0.86840    0.77120    0.67700    1.000
    H71      H        0.86200    0.73910    0.68850    1.000
    C108     C        0.89460    0.77750    0.63270    1.000
    H72      H        0.90520    0.74980    0.61470    1.000
    H73      H        0.40660    0.97080    0.69550    1.000
    O25      O        0.44582    0.94744    0.87249    1.000
    O26      O        0.44900    0.94920    0.78960    1.000
    C109     C        0.43000    0.93600    0.82980    1.000
    C110     C        0.24920    0.82230    0.80250    1.000
    C111     C        0.23760    0.78110    0.83280    1.000
    H74      H        0.25740    0.77420    0.86050    1.000
    C112     C        0.38450    0.90510    0.82510    1.000
    C113     C        0.35790    0.88720    0.86620    1.000
    H75      H        0.36930    0.89370    0.89830    1.000
    C114     C        0.31480    0.86000    0.85910    1.000
    H76      H        0.29820    0.84700    0.88670    1.000
    C115     C        0.29560    0.85140    0.81160    1.000
    C116     C        0.32300    0.86840    0.77120    1.000
    H77      H        0.31150    0.86200    0.73910    1.000
    C117     C        0.36730    0.89460    0.77750    1.000
    H78      H        0.38530    0.90520    0.74980    1.000
    H79      H        0.59340    0.02920    0.69550    1.000
    O27      O        0.55418    0.05256    0.87249    1.000
    O28      O        0.55100    0.05080    0.78960    1.000
    C118     C        0.57000    0.06400    0.82980    1.000
    C119     C        0.75080    0.17770    0.80250    1.000
    C120     C        0.76240    0.21890    0.83280    1.000
    H80      H        0.74260    0.22580    0.86050    1.000
    C121     C        0.61550    0.09490    0.82510    1.000
    C122     C        0.64210    0.11280    0.86620    1.000
    H81      H        0.63070    0.10630    0.89830    1.000
    C123     C        0.68520    0.14000    0.85910    1.000
    H82      H        0.70180    0.15300    0.88670    1.000
    C124     C        0.70440    0.14860    0.81160    1.000
    C125     C        0.67700    0.13160    0.77120    1.000
    H83      H        0.68850    0.13800    0.73910    1.000
    C126     C        0.63270    0.10540    0.77750    1.000
    H84      H        0.61470    0.09480    0.74980    1.000
    H85      H        0.59340    0.97080    0.30450    1.000
    O29      O        0.55418    0.94744    0.12751    1.000
    O30      O        0.55100    0.94920    0.21040    1.000
    C127     C        0.57000    0.93600    0.17020    1.000
    C128     C        0.75080    0.82230    0.19750    1.000
    C129     C        0.76240    0.78110    0.16720    1.000
    H86      H        0.74260    0.77420    0.13950    1.000
    C130     C        0.61550    0.90510    0.17490    1.000
    C131     C        0.64210    0.88720    0.13380    1.000
    H87      H        0.63070    0.89370    0.10170    1.000
    C132     C        0.68520    0.86000    0.14090    1.000
    H88      H        0.70180    0.84700    0.11330    1.000
    C133     C        0.70440    0.85140    0.18840    1.000
    C134     C        0.67700    0.86840    0.22880    1.000
    H89      H        0.68850    0.86200    0.26090    1.000
    C135     C        0.63270    0.89460    0.22250    1.000
    H90      H        0.61470    0.90520    0.25020    1.000
    H91      H        0.40660    0.02920    0.30450    1.000
    O31      O        0.44582    0.05256    0.12751    1.000
    O32      O        0.44900    0.05080    0.21040    1.000
    C136     C        0.43000    0.06400    0.17020    1.000
    C137     C        0.24920    0.17770    0.19750    1.000
    C138     C        0.23760    0.21890    0.16720    1.000
    H92      H        0.25740    0.22580    0.13950    1.000
    C139     C        0.38450    0.09490    0.17490    1.000
    C140     C        0.35790    0.11280    0.13380    1.000
    H93      H        0.36930    0.10630    0.10170    1.000
    C141     C        0.31480    0.14000    0.14090    1.000
    H94      H        0.29820    0.15300    0.11330    1.000
    C142     C        0.29560    0.14860    0.18840    1.000
    C143     C        0.32300    0.13160    0.22880    1.000
    H95      H        0.31150    0.13800    0.26090    1.000
    C144     C        0.36730    0.10540    0.22250    1.000
    H96      H        0.38530    0.09480    0.25020    1.000
    H97      H        0.69550    0.40660    0.97080    1.000
    O33      O        0.87249    0.44582    0.94744    1.000
    O34      O        0.78960    0.44900    0.94920    1.000
    C145     C        0.82980    0.43000    0.93600    1.000
    C146     C        0.80250    0.24920    0.82230    1.000
    C147     C        0.83280    0.23760    0.78110    1.000
    H98      H        0.86050    0.25740    0.77420    1.000
    C148     C        0.82510    0.38450    0.90510    1.000
    C149     C        0.86620    0.35790    0.88720    1.000
    H99      H        0.89830    0.36930    0.89370    1.000
    C150     C        0.85910    0.31480    0.86000    1.000
    H100     H        0.88670    0.29820    0.84700    1.000
    C151     C        0.81160    0.29560    0.85140    1.000
    C152     C        0.77120    0.32300    0.86840    1.000
    H101     H        0.73910    0.31150    0.86200    1.000
    C153     C        0.77750    0.36730    0.89460    1.000
    H102     H        0.74980    0.38530    0.90520    1.000
    H103     H        0.69550    0.59340    0.02920    1.000
    O35      O        0.87249    0.55418    0.05256    1.000
    O36      O        0.78960    0.55100    0.05080    1.000
    C154     C        0.82980    0.57000    0.06400    1.000
    C155     C        0.80250    0.75080    0.17770    1.000
    C156     C        0.83280    0.76240    0.21890    1.000
    H104     H        0.86050    0.74260    0.22580    1.000
    C157     C        0.82510    0.61550    0.09490    1.000
    C158     C        0.86620    0.64210    0.11280    1.000
    H105     H        0.89830    0.63070    0.10630    1.000
    C159     C        0.85910    0.68520    0.14000    1.000
    H106     H        0.88670    0.70180    0.15300    1.000
    C160     C        0.81160    0.70440    0.14860    1.000
    C161     C        0.77120    0.67700    0.13160    1.000
    H107     H        0.73910    0.68850    0.13800    1.000
    C162     C        0.77750    0.63270    0.10540    1.000
    H108     H        0.74980    0.61470    0.09480    1.000
    H109     H        0.30450    0.59340    0.97080    1.000
    O37      O        0.12751    0.55418    0.94744    1.000
    O38      O        0.21040    0.55100    0.94920    1.000
    C163     C        0.17020    0.57000    0.93600    1.000
    C164     C        0.19750    0.75080    0.82230    1.000
    C165     C        0.16720    0.76240    0.78110    1.000
    H110     H        0.13950    0.74260    0.77420    1.000
    C166     C        0.17490    0.61550    0.90510    1.000
    C167     C        0.13380    0.64210    0.88720    1.000
    H111     H        0.10170    0.63070    0.89370    1.000
    C168     C        0.14090    0.68520    0.86000    1.000
    H112     H        0.11330    0.70180    0.84700    1.000
    C169     C        0.18840    0.70440    0.85140    1.000
    C170     C        0.22880    0.67700    0.86840    1.000
    H113     H        0.26090    0.68850    0.86200    1.000
    C171     C        0.22250    0.63270    0.89460    1.000
    H114     H        0.25020    0.61470    0.90520    1.000
    H115     H        0.30450    0.40660    0.02920    1.000
    O39      O        0.12751    0.44582    0.05256    1.000
    O40      O        0.21040    0.44900    0.05080    1.000
    C172     C        0.17020    0.43000    0.06400    1.000
    C173     C        0.19750    0.24920    0.17770    1.000
    C174     C        0.16720    0.23760    0.21890    1.000
    H116     H        0.13950    0.25740    0.22580    1.000
    C175     C        0.17490    0.38450    0.09490    1.000
    C176     C        0.13380    0.35790    0.11280    1.000
    H117     H        0.10170    0.36930    0.10630    1.000
    C177     C        0.14090    0.31480    0.14000    1.000
    H118     H        0.11330    0.29820    0.15300    1.000
    C178     C        0.18840    0.29560    0.14860    1.000
    C179     C        0.22880    0.32300    0.13160    1.000
    H119     H        0.26090    0.31150    0.13800    1.000
    C180     C        0.22250    0.36730    0.10540    1.000
    H120     H        0.25020    0.38530    0.09480    1.000
    H121     H        0.97080    0.69550    0.40660    1.000
    O41      O        0.94744    0.87249    0.44582    1.000
    O42      O        0.94920    0.78960    0.44900    1.000
    C181     C        0.93600    0.82980    0.43000    1.000
    C182     C        0.82230    0.80250    0.24920    1.000
    C183     C        0.78110    0.83280    0.23760    1.000
    H122     H        0.77420    0.86050    0.25740    1.000
    C184     C        0.90510    0.82510    0.38450    1.000
    C185     C        0.88720    0.86620    0.35790    1.000
    H123     H        0.89370    0.89830    0.36930    1.000
    C186     C        0.86000    0.85910    0.31480    1.000
    H124     H        0.84700    0.88670    0.29820    1.000
    C187     C        0.85140    0.81160    0.29560    1.000
    C188     C        0.86840    0.77120    0.32300    1.000
    H125     H        0.86200    0.73910    0.31150    1.000
    C189     C        0.89460    0.77750    0.36730    1.000
    H126     H        0.90520    0.74980    0.38530    1.000
    H127     H        0.02920    0.69550    0.59340    1.000
    O43      O        0.05256    0.87249    0.55418    1.000
    O44      O        0.05080    0.78960    0.55100    1.000
    C190     C        0.06400    0.82980    0.57000    1.000
    C191     C        0.17770    0.80250    0.75080    1.000
    C192     C        0.21890    0.83280    0.76240    1.000
    H128     H        0.22580    0.86050    0.74260    1.000
    C193     C        0.09490    0.82510    0.61550    1.000
    C194     C        0.11280    0.86620    0.64210    1.000
    H129     H        0.10630    0.89830    0.63070    1.000
    C195     C        0.14000    0.85910    0.68520    1.000
    H130     H        0.15300    0.88670    0.70180    1.000
    C196     C        0.14860    0.81160    0.70440    1.000
    C197     C        0.13160    0.77120    0.67700    1.000
    H131     H        0.13800    0.73910    0.68850    1.000
    C198     C        0.10540    0.77750    0.63270    1.000
    H132     H        0.09480    0.74980    0.61470    1.000
    H133     H        0.97080    0.30450    0.59340    1.000
    O45      O        0.94744    0.12751    0.55418    1.000
    O46      O        0.94920    0.21040    0.55100    1.000
    C199     C        0.93600    0.17020    0.57000    1.000
    C200     C        0.82230    0.19750    0.75080    1.000
    C201     C        0.78110    0.16720    0.76240    1.000
    H134     H        0.77420    0.13950    0.74260    1.000
    C202     C        0.90510    0.17490    0.61550    1.000
    C203     C        0.88720    0.13380    0.64210    1.000
    H135     H        0.89370    0.10170    0.63070    1.000
    C204     C        0.86000    0.14090    0.68520    1.000
    H136     H        0.84700    0.11330    0.70180    1.000
    C205     C        0.85140    0.18840    0.70440    1.000
    C206     C        0.86840    0.22880    0.67700    1.000
    H137     H        0.86200    0.26090    0.68850    1.000
    C207     C        0.89460    0.22250    0.63270    1.000
    H138     H        0.90520    0.25020    0.61470    1.000
    H139     H        0.02920    0.30450    0.40660    1.000
    O47      O        0.05256    0.12751    0.44582    1.000
    O48      O        0.05080    0.21040    0.44900    1.000
    C208     C        0.06400    0.17020    0.43000    1.000
    C209     C        0.17770    0.19750    0.24920    1.000
    C210     C        0.21890    0.16720    0.23760    1.000
    H140     H        0.22580    0.13950    0.25740    1.000
    C211     C        0.09490    0.17490    0.38450    1.000
    C212     C        0.11280    0.13380    0.35790    1.000
    H141     H        0.10630    0.10170    0.36930    1.000
    C213     C        0.14000    0.14090    0.31480    1.000
    H142     H        0.15300    0.11330    0.29820    1.000
    C214     C        0.14860    0.18840    0.29560    1.000
    C215     C        0.13160    0.22880    0.32300    1.000
    H143     H        0.13800    0.26090    0.31150    1.000
    C216     C        0.10540    0.22250    0.36730    1.000
    H144     H        0.09480    0.25020    0.38530    1.000
    Ni1      Ni       0.50000    0.00000    0.22163    1.000
    Ni2      Ni       0.50000    0.00000    0.11549    1.000
    N1       N        0.50000    0.00000    0.29620    1.000
    Ni3      Ni       0.50000    0.00000    0.77837    1.000
    Ni4      Ni       0.50000    0.00000    0.88451    1.000
    N2       N        0.50000    0.00000    0.70380    1.000
    Ni5      Ni       0.22163    0.50000    0.00000    1.000
    Ni6      Ni       0.11549    0.50000    0.00000    1.000
    N3       N        0.29620    0.50000    0.00000    1.000
    Ni7      Ni       0.77837    0.50000    0.00000    1.000
    Ni8      Ni       0.88451    0.50000    0.00000    1.000
    N4       N        0.70380    0.50000    0.00000    1.000
    Ni9      Ni       0.00000    0.22163    0.50000    1.000
    Ni10     Ni       0.00000    0.11549    0.50000    1.000
    N5       N        0.00000    0.29620    0.50000    1.000
    Ni11     Ni       0.00000    0.77837    0.50000    1.000
    Ni12     Ni       0.00000    0.88451    0.50000    1.000
    N6       N        0.00000    0.70380    0.50000    1.000
    C217     C        0.53520    0.00000    0.32690    1.000
    N7       N        0.52370    0.00000    0.37250    1.000
    H145     H        0.54340    0.00000    0.39780    1.000
    C218     C        0.58310    0.00000    0.32240    1.000
    H146     H        0.59810    0.00000    0.35490    1.000
    C219     C        0.46480    0.00000    0.32690    1.000
    N8       N        0.47630    0.00000    0.37250    1.000
    H147     H        0.45660    0.00000    0.39780    1.000
    C220     C        0.41690    0.00000    0.32240    1.000
    H148     H        0.40190    0.00000    0.35490    1.000
    C221     C        0.46480    0.00000    0.67310    1.000
    N9       N        0.47630    0.00000    0.62750    1.000
    H149     H        0.45660    0.00000    0.60220    1.000
    C222     C        0.41690    0.00000    0.67760    1.000
    H150     H        0.40190    0.00000    0.64510    1.000
    C223     C        0.53520    0.00000    0.67310    1.000
    N10      N        0.52370    0.00000    0.62750    1.000
    H151     H        0.54340    0.00000    0.60220    1.000
    C224     C        0.58310    0.00000    0.67760    1.000
    H152     H        0.59810    0.00000    0.64510    1.000
    C225     C        0.32690    0.53520    0.00000    1.000
    N11      N        0.37250    0.52370    0.00000    1.000
    H153     H        0.39780    0.54340    0.00000    1.000
    C226     C        0.32240    0.58310    0.00000    1.000
    H154     H        0.35490    0.59810    0.00000    1.000
    C227     C        0.32690    0.46480    0.00000    1.000
    N12      N        0.37250    0.47630    0.00000    1.000
    H155     H        0.39780    0.45660    0.00000    1.000
    C228     C        0.32240    0.41690    0.00000    1.000
    H156     H        0.35490    0.40190    0.00000    1.000
    C229     C        0.67310    0.46480    0.00000    1.000
    N13      N        0.62750    0.47630    0.00000    1.000
    H157     H        0.60220    0.45660    0.00000    1.000
    C230     C        0.67760    0.41690    0.00000    1.000
    H158     H        0.64510    0.40190    0.00000    1.000
    C231     C        0.67310    0.53520    0.00000    1.000
    N14      N        0.62750    0.52370    0.00000    1.000
    H159     H        0.60220    0.54340    0.00000    1.000
    C232     C        0.67760    0.58310    0.00000    1.000
    H160     H        0.64510    0.59810    0.00000    1.000
    C233     C        0.00000    0.32690    0.53520    1.000
    N15      N        0.00000    0.37250    0.52370    1.000
    H161     H        0.00000    0.39780    0.54340    1.000
    C234     C        0.00000    0.32240    0.58310    1.000
    H162     H        0.00000    0.35490    0.59810    1.000
    C235     C        0.00000    0.32690    0.46480    1.000
    N16      N        0.00000    0.37250    0.47630    1.000
    H163     H        0.00000    0.39780    0.45660    1.000
    C236     C        0.00000    0.32240    0.41690    1.000
    H164     H        0.00000    0.35490    0.40190    1.000
    C237     C        0.00000    0.67310    0.46480    1.000
    N17      N        0.00000    0.62750    0.47630    1.000
    H165     H        0.00000    0.60220    0.45660    1.000
    C238     C        0.00000    0.67760    0.41690    1.000
    H166     H        0.00000    0.64510    0.40190    1.000
    C239     C        0.00000    0.67310    0.53520    1.000
    N18      N        0.00000    0.62750    0.52370    1.000
    H167     H        0.00000    0.60220    0.54340    1.000
    C240     C        0.00000    0.67760    0.58310    1.000
    H168     H        0.00000    0.64510    0.59810    1.000
    H169     H        0.09340    0.52920    0.80450    1.000
    O49      O        0.05418    0.55256    0.62751    1.000
    O50      O        0.05100    0.55080    0.71040    1.000
    C241     C        0.07000    0.56400    0.67020    1.000
    C242     C        0.25080    0.67770    0.69750    1.000
    C243     C        0.26240    0.71890    0.66720    1.000
    H170     H        0.24260    0.72580    0.63950    1.000
    C244     C        0.11550    0.59490    0.67490    1.000
    C245     C        0.14210    0.61280    0.63380    1.000
    H171     H        0.13070    0.60630    0.60170    1.000
    C246     C        0.18520    0.64000    0.64090    1.000
    H172     H        0.20180    0.65300    0.61330    1.000
    C247     C        0.20440    0.64860    0.68840    1.000
    C248     C        0.17700    0.63160    0.72880    1.000
    H173     H        0.18850    0.63800    0.76090    1.000
    C249     C        0.13270    0.60540    0.72250    1.000
    H174     H        0.11470    0.59480    0.75020    1.000
    H175     H        0.90660    0.47080    0.80450    1.000
    O51      O        0.94582    0.44744    0.62751    1.000
    O52      O        0.94900    0.44920    0.71040    1.000
    C250     C        0.93000    0.43600    0.67020    1.000
    C251     C        0.74920    0.32230    0.69750    1.000
    C252     C        0.73760    0.28110    0.66720    1.000
    H176     H        0.75740    0.27420    0.63950    1.000
    C253     C        0.88450    0.40510    0.67490    1.000
    C254     C        0.85790    0.38720    0.63380    1.000
    H177     H        0.86930    0.39370    0.60170    1.000
    C255     C        0.81480    0.36000    0.64090    1.000
    H178     H        0.79820    0.34700    0.61330    1.000
    C256     C        0.79560    0.35140    0.68840    1.000
    C257     C        0.82300    0.36840    0.72880    1.000
    H179     H        0.81150    0.36200    0.76090    1.000
    C258     C        0.86730    0.39460    0.72250    1.000
    H180     H        0.88530    0.40520    0.75020    1.000
    H181     H        0.90660    0.52920    0.19550    1.000
    O53      O        0.94582    0.55256    0.37249    1.000
    O54      O        0.94900    0.55080    0.28960    1.000
    C259     C        0.93000    0.56400    0.32980    1.000
    C260     C        0.74920    0.67770    0.30250    1.000
    C261     C        0.73760    0.71890    0.33280    1.000
    H182     H        0.75740    0.72580    0.36050    1.000
    C262     C        0.88450    0.59490    0.32510    1.000
    C263     C        0.85790    0.61280    0.36620    1.000
    H183     H        0.86930    0.60630    0.39830    1.000
    C264     C        0.81480    0.64000    0.35910    1.000
    H184     H        0.79820    0.65300    0.38670    1.000
    C265     C        0.79560    0.64860    0.31160    1.000
    C266     C        0.82300    0.63160    0.27120    1.000
    H185     H        0.81150    0.63800    0.23910    1.000
    C267     C        0.86730    0.60540    0.27750    1.000
    H186     H        0.88530    0.59480    0.24980    1.000
    H187     H        0.09340    0.47080    0.19550    1.000
    O55      O        0.05418    0.44744    0.37249    1.000
    O56      O        0.05100    0.44920    0.28960    1.000
    C268     C        0.07000    0.43600    0.32980    1.000
    C269     C        0.25080    0.32230    0.30250    1.000
    C270     C        0.26240    0.28110    0.33280    1.000
    H188     H        0.24260    0.27420    0.36050    1.000
    C271     C        0.11550    0.40510    0.32510    1.000
    C272     C        0.14210    0.38720    0.36620    1.000
    H189     H        0.13070    0.39370    0.39830    1.000
    C273     C        0.18520    0.36000    0.35910    1.000
    H190     H        0.20180    0.34700    0.38670    1.000
    C274     C        0.20440    0.35140    0.31160    1.000
    C275     C        0.17700    0.36840    0.27120    1.000
    H191     H        0.18850    0.36200    0.23910    1.000
    C276     C        0.13270    0.39460    0.27750    1.000
    H192     H        0.11470    0.40520    0.24980    1.000
    H193     H        0.80450    0.09340    0.52920    1.000
    O57      O        0.62751    0.05418    0.55256    1.000
    O58      O        0.71040    0.05100    0.55080    1.000
    C277     C        0.67020    0.07000    0.56400    1.000
    C278     C        0.69750    0.25080    0.67770    1.000
    C279     C        0.66720    0.26240    0.71890    1.000
    H194     H        0.63950    0.24260    0.72580    1.000
    C280     C        0.67490    0.11550    0.59490    1.000
    C281     C        0.63380    0.14210    0.61280    1.000
    H195     H        0.60170    0.13070    0.60630    1.000
    C282     C        0.64090    0.18520    0.64000    1.000
    H196     H        0.61330    0.20180    0.65300    1.000
    C283     C        0.68840    0.20440    0.64860    1.000
    C284     C        0.72880    0.17700    0.63160    1.000
    H197     H        0.76090    0.18850    0.63800    1.000
    C285     C        0.72250    0.13270    0.60540    1.000
    H198     H        0.75020    0.11470    0.59480    1.000
    H199     H        0.80450    0.90660    0.47080    1.000
    O59      O        0.62751    0.94582    0.44744    1.000
    O60      O        0.71040    0.94900    0.44920    1.000
    C286     C        0.67020    0.93000    0.43600    1.000
    C287     C        0.69750    0.74920    0.32230    1.000
    C288     C        0.66720    0.73760    0.28110    1.000
    H200     H        0.63950    0.75740    0.27420    1.000
    C289     C        0.67490    0.88450    0.40510    1.000
    C290     C        0.63380    0.85790    0.38720    1.000
    H201     H        0.60170    0.86930    0.39370    1.000
    C291     C        0.64090    0.81480    0.36000    1.000
    H202     H        0.61330    0.79820    0.34700    1.000
    C292     C        0.68840    0.79560    0.35140    1.000
    C293     C        0.72880    0.82300    0.36840    1.000
    H203     H        0.76090    0.81150    0.36200    1.000
    C294     C        0.72250    0.86730    0.39460    1.000
    H204     H        0.75020    0.88530    0.40520    1.000
    H205     H        0.19550    0.90660    0.52920    1.000
    O61      O        0.37249    0.94582    0.55256    1.000
    O62      O        0.28960    0.94900    0.55080    1.000
    C295     C        0.32980    0.93000    0.56400    1.000
    C296     C        0.30250    0.74920    0.67770    1.000
    C297     C        0.33280    0.73760    0.71890    1.000
    H206     H        0.36050    0.75740    0.72580    1.000
    C298     C        0.32510    0.88450    0.59490    1.000
    C299     C        0.36620    0.85790    0.61280    1.000
    H207     H        0.39830    0.86930    0.60630    1.000
    C300     C        0.35910    0.81480    0.64000    1.000
    H208     H        0.38670    0.79820    0.65300    1.000
    C301     C        0.31160    0.79560    0.64860    1.000
    C302     C        0.27120    0.82300    0.63160    1.000
    H209     H        0.23910    0.81150    0.63800    1.000
    C303     C        0.27750    0.86730    0.60540    1.000
    H210     H        0.24980    0.88530    0.59480    1.000
    H211     H        0.19550    0.09340    0.47080    1.000
    O63      O        0.37249    0.05418    0.44744    1.000
    O64      O        0.28960    0.05100    0.44920    1.000
    C304     C        0.32980    0.07000    0.43600    1.000
    C305     C        0.30250    0.25080    0.32230    1.000
    C306     C        0.33280    0.26240    0.28110    1.000
    H212     H        0.36050    0.24260    0.27420    1.000
    C307     C        0.32510    0.11550    0.40510    1.000
    C308     C        0.36620    0.14210    0.38720    1.000
    H213     H        0.39830    0.13070    0.39370    1.000
    C309     C        0.35910    0.18520    0.36000    1.000
    H214     H        0.38670    0.20180    0.34700    1.000
    C310     C        0.31160    0.20440    0.35140    1.000
    C311     C        0.27120    0.17700    0.36840    1.000
    H215     H        0.23910    0.18850    0.36200    1.000
    C312     C        0.27750    0.13270    0.39460    1.000
    H216     H        0.24980    0.11470    0.40520    1.000
    H217     H        0.52920    0.80450    0.09340    1.000
    O65      O        0.55256    0.62751    0.05418    1.000
    O66      O        0.55080    0.71040    0.05100    1.000
    C313     C        0.56400    0.67020    0.07000    1.000
    C314     C        0.67770    0.69750    0.25080    1.000
    C315     C        0.71890    0.66720    0.26240    1.000
    H218     H        0.72580    0.63950    0.24260    1.000
    C316     C        0.59490    0.67490    0.11550    1.000
    C317     C        0.61280    0.63380    0.14210    1.000
    H219     H        0.60630    0.60170    0.13070    1.000
    C318     C        0.64000    0.64090    0.18520    1.000
    H220     H        0.65300    0.61330    0.20180    1.000
    C319     C        0.64860    0.68840    0.20440    1.000
    C320     C        0.63160    0.72880    0.17700    1.000
    H221     H        0.63800    0.76090    0.18850    1.000
    C321     C        0.60540    0.72250    0.13270    1.000
    H222     H        0.59480    0.75020    0.11470    1.000
    H223     H        0.47080    0.80450    0.90660    1.000
    O67      O        0.44744    0.62751    0.94582    1.000
    O68      O        0.44920    0.71040    0.94900    1.000
    C322     C        0.43600    0.67020    0.93000    1.000
    C323     C        0.32230    0.69750    0.74920    1.000
    C324     C        0.28110    0.66720    0.73760    1.000
    H224     H        0.27420    0.63950    0.75740    1.000
    C325     C        0.40510    0.67490    0.88450    1.000
    C326     C        0.38720    0.63380    0.85790    1.000
    H225     H        0.39370    0.60170    0.86930    1.000
    C327     C        0.36000    0.64090    0.81480    1.000
    H226     H        0.34700    0.61330    0.79820    1.000
    C328     C        0.35140    0.68840    0.79560    1.000
    C329     C        0.36840    0.72880    0.82300    1.000
    H227     H        0.36200    0.76090    0.81150    1.000
    C330     C        0.39460    0.72250    0.86730    1.000
    H228     H        0.40520    0.75020    0.88530    1.000
    H229     H        0.52920    0.19550    0.90660    1.000
    O69      O        0.55256    0.37249    0.94582    1.000
    O70      O        0.55080    0.28960    0.94900    1.000
    C331     C        0.56400    0.32980    0.93000    1.000
    C332     C        0.67770    0.30250    0.74920    1.000
    C333     C        0.71890    0.33280    0.73760    1.000
    H230     H        0.72580    0.36050    0.75740    1.000
    C334     C        0.59490    0.32510    0.88450    1.000
    C335     C        0.61280    0.36620    0.85790    1.000
    H231     H        0.60630    0.39830    0.86930    1.000
    C336     C        0.64000    0.35910    0.81480    1.000
    H232     H        0.65300    0.38670    0.79820    1.000
    C337     C        0.64860    0.31160    0.79560    1.000
    C338     C        0.63160    0.27120    0.82300    1.000
    H233     H        0.63800    0.23910    0.81150    1.000
    C339     C        0.60540    0.27750    0.86730    1.000
    H234     H        0.59480    0.24980    0.88530    1.000
    H235     H        0.47080    0.19550    0.09340    1.000
    O71      O        0.44744    0.37249    0.05418    1.000
    O72      O        0.44920    0.28960    0.05100    1.000
    C340     C        0.43600    0.32980    0.07000    1.000
    C341     C        0.32230    0.30250    0.25080    1.000
    C342     C        0.28110    0.33280    0.26240    1.000
    H236     H        0.27420    0.36050    0.24260    1.000
    C343     C        0.40510    0.32510    0.11550    1.000
    C344     C        0.38720    0.36620    0.14210    1.000
    H237     H        0.39370    0.39830    0.13070    1.000
    C345     C        0.36000    0.35910    0.18520    1.000
    H238     H        0.34700    0.38670    0.20180    1.000
    C346     C        0.35140    0.31160    0.20440    1.000
    C347     C        0.36840    0.27120    0.17700    1.000
    H239     H        0.36200    0.23910    0.18850    1.000
    C348     C        0.39460    0.27750    0.13270    1.000
    H240     H        0.40520    0.24980    0.11470    1.000
    H241     H        0.90660    0.47080    0.19550    1.000
    O73      O        0.94582    0.44744    0.37249    1.000
    O74      O        0.94900    0.44920    0.28960    1.000
    C349     C        0.93000    0.43600    0.32980    1.000
    C350     C        0.74920    0.32230    0.30250    1.000
    C351     C        0.73760    0.28110    0.33280    1.000
    H242     H        0.75740    0.27420    0.36050    1.000
    C352     C        0.88450    0.40510    0.32510    1.000
    C353     C        0.85790    0.38720    0.36620    1.000
    H243     H        0.86930    0.39370    0.39830    1.000
    C354     C        0.81480    0.36000    0.35910    1.000
    H244     H        0.79820    0.34700    0.38670    1.000
    C355     C        0.79560    0.35140    0.31160    1.000
    C356     C        0.82300    0.36840    0.27120    1.000
    H245     H        0.81150    0.36200    0.23910    1.000
    C357     C        0.86730    0.39460    0.27750    1.000
    H246     H        0.88530    0.40520    0.24980    1.000
    H247     H        0.09340    0.52920    0.19550    1.000
    O75      O        0.05418    0.55256    0.37249    1.000
    O76      O        0.05100    0.55080    0.28960    1.000
    C358     C        0.07000    0.56400    0.32980    1.000
    C359     C        0.25080    0.67770    0.30250    1.000
    C360     C        0.26240    0.71890    0.33280    1.000
    H248     H        0.24260    0.72580    0.36050    1.000
    C361     C        0.11550    0.59490    0.32510    1.000
    C362     C        0.14210    0.61280    0.36620    1.000
    H249     H        0.13070    0.60630    0.39830    1.000
    C363     C        0.18520    0.64000    0.35910    1.000
    H250     H        0.20180    0.65300    0.38670    1.000
    C364     C        0.20440    0.64860    0.31160    1.000
    C365     C        0.17700    0.63160    0.27120    1.000
    H251     H        0.18850    0.63800    0.23910    1.000
    C366     C        0.13270    0.60540    0.27750    1.000
    H252     H        0.11470    0.59480    0.24980    1.000
    H253     H        0.09340    0.47080    0.80450    1.000
    O77      O        0.05418    0.44744    0.62751    1.000
    O78      O        0.05100    0.44920    0.71040    1.000
    C367     C        0.07000    0.43600    0.67020    1.000
    C368     C        0.25080    0.32230    0.69750    1.000
    C369     C        0.26240    0.28110    0.66720    1.000
    H254     H        0.24260    0.27420    0.63950    1.000
    C370     C        0.11550    0.40510    0.67490    1.000
    C371     C        0.14210    0.38720    0.63380    1.000
    H255     H        0.13070    0.39370    0.60170    1.000
    C372     C        0.18520    0.36000    0.64090    1.000
    H256     H        0.20180    0.34700    0.61330    1.000
    C373     C        0.20440    0.35140    0.68840    1.000
    C374     C        0.17700    0.36840    0.72880    1.000
    H257     H        0.18850    0.36200    0.76090    1.000
    C375     C        0.13270    0.39460    0.72250    1.000
    H258     H        0.11470    0.40520    0.75020    1.000
    H259     H        0.90660    0.52920    0.80450    1.000
    O79      O        0.94582    0.55256    0.62751    1.000
    O80      O        0.94900    0.55080    0.71040    1.000
    C376     C        0.93000    0.56400    0.67020    1.000
    C377     C        0.74920    0.67770    0.69750    1.000
    C378     C        0.73760    0.71890    0.66720    1.000
    H260     H        0.75740    0.72580    0.63950    1.000
    C379     C        0.88450    0.59490    0.67490    1.000
    C380     C        0.85790    0.61280    0.63380    1.000
    H261     H        0.86930    0.60630    0.60170    1.000
    C381     C        0.81480    0.64000    0.64090    1.000
    H262     H        0.79820    0.65300    0.61330    1.000
    C382     C        0.79560    0.64860    0.68840    1.000
    C383     C        0.82300    0.63160    0.72880    1.000
    H263     H        0.81150    0.63800    0.76090    1.000
    C384     C        0.86730    0.60540    0.72250    1.000
    H264     H        0.88530    0.59480    0.75020    1.000
    H265     H        0.19550    0.90660    0.47080    1.000
    O81      O        0.37249    0.94582    0.44744    1.000
    O82      O        0.28960    0.94900    0.44920    1.000
    C385     C        0.32980    0.93000    0.43600    1.000
    C386     C        0.30250    0.74920    0.32230    1.000
    C387     C        0.33280    0.73760    0.28110    1.000
    H266     H        0.36050    0.75740    0.27420    1.000
    C388     C        0.32510    0.88450    0.40510    1.000
    C389     C        0.36620    0.85790    0.38720    1.000
    H267     H        0.39830    0.86930    0.39370    1.000
    C390     C        0.35910    0.81480    0.36000    1.000
    H268     H        0.38670    0.79820    0.34700    1.000
    C391     C        0.31160    0.79560    0.35140    1.000
    C392     C        0.27120    0.82300    0.36840    1.000
    H269     H        0.23910    0.81150    0.36200    1.000
    C393     C        0.27750    0.86730    0.39460    1.000
    H270     H        0.24980    0.88530    0.40520    1.000
    H271     H        0.19550    0.09340    0.52920    1.000
    O83      O        0.37249    0.05418    0.55256    1.000
    O84      O        0.28960    0.05100    0.55080    1.000
    C394     C        0.32980    0.07000    0.56400    1.000
    C395     C        0.30250    0.25080    0.67770    1.000
    C396     C        0.33280    0.26240    0.71890    1.000
    H272     H        0.36050    0.24260    0.72580    1.000
    C397     C        0.32510    0.11550    0.59490    1.000
    C398     C        0.36620    0.14210    0.61280    1.000
    H273     H        0.39830    0.13070    0.60630    1.000
    C399     C        0.35910    0.18520    0.64000    1.000
    H274     H        0.38670    0.20180    0.65300    1.000
    C400     C        0.31160    0.20440    0.64860    1.000
    C401     C        0.27120    0.17700    0.63160    1.000
    H275     H        0.23910    0.18850    0.63800    1.000
    C402     C        0.27750    0.13270    0.60540    1.000
    H276     H        0.24980    0.11470    0.59480    1.000
    H277     H        0.80450    0.09340    0.47080    1.000
    O85      O        0.62751    0.05418    0.44744    1.000
    O86      O        0.71040    0.05100    0.44920    1.000
    C403     C        0.67020    0.07000    0.43600    1.000
    C404     C        0.69750    0.25080    0.32230    1.000
    C405     C        0.66720    0.26240    0.28110    1.000
    H278     H        0.63950    0.24260    0.27420    1.000
    C406     C        0.67490    0.11550    0.40510    1.000
    C407     C        0.63380    0.14210    0.38720    1.000
    H279     H        0.60170    0.13070    0.39370    1.000
    C408     C        0.64090    0.18520    0.36000    1.000
    H280     H        0.61330    0.20180    0.34700    1.000
    C409     C        0.68840    0.20440    0.35140    1.000
    C410     C        0.72880    0.17700    0.36840    1.000
    H281     H        0.76090    0.18850    0.36200    1.000
    C411     C        0.72250    0.13270    0.39460    1.000
    H282     H        0.75020    0.11470    0.40520    1.000
    H283     H        0.80450    0.90660    0.52920    1.000
    O87      O        0.62751    0.94582    0.55256    1.000
    O88      O        0.71040    0.94900    0.55080    1.000
    C412     C        0.67020    0.93000    0.56400    1.000
    C413     C        0.69750    0.74920    0.67770    1.000
    C414     C        0.66720    0.73760    0.71890    1.000
    H284     H        0.63950    0.75740    0.72580    1.000
    C415     C        0.67490    0.88450    0.59490    1.000
    C416     C        0.63380    0.85790    0.61280    1.000
    H285     H        0.60170    0.86930    0.60630    1.000
    C417     C        0.64090    0.81480    0.64000    1.000
    H286     H        0.61330    0.79820    0.65300    1.000
    C418     C        0.68840    0.79560    0.64860    1.000
    C419     C        0.72880    0.82300    0.63160    1.000
    H287     H        0.76090    0.81150    0.63800    1.000
    C420     C        0.72250    0.86730    0.60540    1.000
    H288     H        0.75020    0.88530    0.59480    1.000
    H289     H        0.47080    0.19550    0.90660    1.000
    O89      O        0.44744    0.37249    0.94582    1.000
    O90      O        0.44920    0.28960    0.94900    1.000
    C421     C        0.43600    0.32980    0.93000    1.000
    C422     C        0.32230    0.30250    0.74920    1.000
    C423     C        0.28110    0.33280    0.73760    1.000
    H290     H        0.27420    0.36050    0.75740    1.000
    C424     C        0.40510    0.32510    0.88450    1.000
    C425     C        0.38720    0.36620    0.85790    1.000
    H291     H        0.39370    0.39830    0.86930    1.000
    C426     C        0.36000    0.35910    0.81480    1.000
    H292     H        0.34700    0.38670    0.79820    1.000
    C427     C        0.35140    0.31160    0.79560    1.000
    C428     C        0.36840    0.27120    0.82300    1.000
    H293     H        0.36200    0.23910    0.81150    1.000
    C429     C        0.39460    0.27750    0.86730    1.000
    H294     H        0.40520    0.24980    0.88530    1.000
    H295     H        0.52920    0.19550    0.09340    1.000
    O91      O        0.55256    0.37249    0.05418    1.000
    O92      O        0.55080    0.28960    0.05100    1.000
    C430     C        0.56400    0.32980    0.07000    1.000
    C431     C        0.67770    0.30250    0.25080    1.000
    C432     C        0.71890    0.33280    0.26240    1.000
    H296     H        0.72580    0.36050    0.24260    1.000
    C433     C        0.59490    0.32510    0.11550    1.000
    C434     C        0.61280    0.36620    0.14210    1.000
    H297     H        0.60630    0.39830    0.13070    1.000
    C435     C        0.64000    0.35910    0.18520    1.000
    H298     H        0.65300    0.38670    0.20180    1.000
    C436     C        0.64860    0.31160    0.20440    1.000
    C437     C        0.63160    0.27120    0.17700    1.000
    H299     H        0.63800    0.23910    0.18850    1.000
    C438     C        0.60540    0.27750    0.13270    1.000
    H300     H        0.59480    0.24980    0.11470    1.000
    H301     H        0.47080    0.80450    0.09340    1.000
    O93      O        0.44744    0.62751    0.05418    1.000
    O94      O        0.44920    0.71040    0.05100    1.000
    C439     C        0.43600    0.67020    0.07000    1.000
    C440     C        0.32230    0.69750    0.25080    1.000
    C441     C        0.28110    0.66720    0.26240    1.000
    H302     H        0.27420    0.63950    0.24260    1.000
    C442     C        0.40510    0.67490    0.11550    1.000
    C443     C        0.38720    0.63380    0.14210    1.000
    H303     H        0.39370    0.60170    0.13070    1.000
    C444     C        0.36000    0.64090    0.18520    1.000
    H304     H        0.34700    0.61330    0.20180    1.000
    C445     C        0.35140    0.68840    0.20440    1.000
    C446     C        0.36840    0.72880    0.17700    1.000
    H305     H        0.36200    0.76090    0.18850    1.000
    C447     C        0.39460    0.72250    0.13270    1.000
    H306     H        0.40520    0.75020    0.11470    1.000
    H307     H        0.52920    0.80450    0.90660    1.000
    O95      O        0.55256    0.62751    0.94582    1.000
    O96      O        0.55080    0.71040    0.94900    1.000
    C448     C        0.56400    0.67020    0.93000    1.000
    C449     C        0.67770    0.69750    0.74920    1.000
    C450     C        0.71890    0.66720    0.73760    1.000
    H308     H        0.72580    0.63950    0.75740    1.000
    C451     C        0.59490    0.67490    0.88450    1.000
    C452     C        0.61280    0.63380    0.85790    1.000
    H309     H        0.60630    0.60170    0.86930    1.000
    C453     C        0.64000    0.64090    0.81480    1.000
    H310     H        0.65300    0.61330    0.79820    1.000
    C454     C        0.64860    0.68840    0.79560    1.000
    C455     C        0.63160    0.72880    0.82300    1.000
    H311     H        0.63800    0.76090    0.81150    1.000
    C456     C        0.60540    0.72250    0.86730    1.000
    H312     H        0.59480    0.75020    0.88530    1.000
    Ni13     Ni       0.00000    0.50000    0.72163    1.000
    Ni14     Ni       0.00000    0.50000    0.61549    1.000
    N19      N        0.00000    0.50000    0.79620    1.000
    Ni15     Ni       0.00000    0.50000    0.27837    1.000
    Ni16     Ni       0.00000    0.50000    0.38451    1.000
    N20      N        0.00000    0.50000    0.20380    1.000
    Ni17     Ni       0.72163    0.00000    0.50000    1.000
    Ni18     Ni       0.61549    0.00000    0.50000    1.000
    N21      N        0.79620    0.00000    0.50000    1.000
    Ni19     Ni       0.27837    0.00000    0.50000    1.000
    Ni20     Ni       0.38451    0.00000    0.50000    1.000
    N22      N        0.20380    0.00000    0.50000    1.000
    Ni21     Ni       0.50000    0.72163    0.00000    1.000
    Ni22     Ni       0.50000    0.61549    0.00000    1.000
    N23      N        0.50000    0.79620    0.00000    1.000
    Ni23     Ni       0.50000    0.27837    0.00000    1.000
    Ni24     Ni       0.50000    0.38451    0.00000    1.000
    N24      N        0.50000    0.20380    0.00000    1.000
    C457     C        0.03520    0.50000    0.82690    1.000
    N25      N        0.02370    0.50000    0.87250    1.000
    H313     H        0.04340    0.50000    0.89780    1.000
    C458     C        0.08310    0.50000    0.82240    1.000
    H314     H        0.09810    0.50000    0.85490    1.000
    C459     C        0.96480    0.50000    0.82690    1.000
    N26      N        0.97630    0.50000    0.87250    1.000
    H315     H        0.95660    0.50000    0.89780    1.000
    C460     C        0.91690    0.50000    0.82240    1.000
    H316     H        0.90190    0.50000    0.85490    1.000
    C461     C        0.96480    0.50000    0.17310    1.000
    N27      N        0.97630    0.50000    0.12750    1.000
    H317     H        0.95660    0.50000    0.10220    1.000
    C462     C        0.91690    0.50000    0.17760    1.000
    H318     H        0.90190    0.50000    0.14510    1.000
    C463     C        0.03520    0.50000    0.17310    1.000
    N28      N        0.02370    0.50000    0.12750    1.000
    H319     H        0.04340    0.50000    0.10220    1.000
    C464     C        0.08310    0.50000    0.17760    1.000
    H320     H        0.09810    0.50000    0.14510    1.000
    C465     C        0.82690    0.03520    0.50000    1.000
    N29      N        0.87250    0.02370    0.50000    1.000
    H321     H        0.89780    0.04340    0.50000    1.000
    C466     C        0.82240    0.08310    0.50000    1.000
    H322     H        0.85490    0.09810    0.50000    1.000
    C467     C        0.82690    0.96480    0.50000    1.000
    N30      N        0.87250    0.97630    0.50000    1.000
    H323     H        0.89780    0.95660    0.50000    1.000
    C468     C        0.82240    0.91690    0.50000    1.000
    H324     H        0.85490    0.90190    0.50000    1.000
    C469     C        0.17310    0.96480    0.50000    1.000
    N31      N        0.12750    0.97630    0.50000    1.000
    H325     H        0.10220    0.95660    0.50000    1.000
    C470     C        0.17760    0.91690    0.50000    1.000
    H326     H        0.14510    0.90190    0.50000    1.000
    C471     C        0.17310    0.03520    0.50000    1.000
    N32      N        0.12750    0.02370    0.50000    1.000
    H327     H        0.10220    0.04340    0.50000    1.000
    C472     C        0.17760    0.08310    0.50000    1.000
    H328     H        0.14510    0.09810    0.50000    1.000
    C473     C        0.50000    0.82690    0.03520    1.000
    N33      N        0.50000    0.87250    0.02370    1.000
    H329     H        0.50000    0.89780    0.04340    1.000
    C474     C        0.50000    0.82240    0.08310    1.000
    H330     H        0.50000    0.85490    0.09810    1.000
    C475     C        0.50000    0.82690    0.96480    1.000
    N34      N        0.50000    0.87250    0.97630    1.000
    H331     H        0.50000    0.89780    0.95660    1.000
    C476     C        0.50000    0.82240    0.91690    1.000
    H332     H        0.50000    0.85490    0.90190    1.000
    C477     C        0.50000    0.17310    0.96480    1.000
    N35      N        0.50000    0.12750    0.97630    1.000
    H333     H        0.50000    0.10220    0.95660    1.000
    C478     C        0.50000    0.17760    0.91690    1.000
    H334     H        0.50000    0.14510    0.90190    1.000
    C479     C        0.50000    0.17310    0.03520    1.000
    N36      N        0.50000    0.12750    0.02370    1.000
    H335     H        0.50000    0.10220    0.04340    1.000
    C480     C        0.50000    0.17760    0.08310    1.000
    H336     H        0.50000    0.14510    0.09810    1.000
