data_functionalizedCrystal
_audit_creation_method	'EQeq! by Chris Wilmer'
_symmetry_space_group_name_H-M	'P1'
_symmetry_Int_Tables_number	1
_symmetry_cell_setting	triclinic
loop_
_symmetry_equiv_pos_as_xyz
  x,y,z
_cell_length_a	34.1414
_cell_length_b	14.5641
_cell_length_c	34.9597
_cell_angle_alpha	90
_cell_angle_beta	108.633
_cell_angle_gamma	90
loop_
_atom_site_label
_atom_site_type_symbol
_atom_site_fract_x
_atom_site_fract_y
_atom_site_fract_z
_atom_site_charge
Mof_Zn	Zn	0.11301	0.07383	0.05483	1.162
Mof_Zn	Zn	0.3496	0.11268	0.42556	1.163
Mof_Zn	Zn	0.33789	0.34611	0.23754	1.162
Mof_I 	I 	0.0962	0.2288	0.08015	-0.38
Mof_I 	I 	0.124	0.05269	0.98722	-0.367
Mof_I 	I 	0.27586	0.14605	0.42362	-0.375
Mof_I 	I 	0.40331	0.23722	0.43839	-0.377
Mof_I 	I 	0.38148	0.31663	0.3101	-0.385
Mof_I 	I 	0.27341	0.24753	0.20764	-0.376
Mof_N 	N 	0.1619	0.0171	0.0998	-0.272
Mof_C 	C 	0.1795	0.0628	0.1347	0.065
Mof_H 	H 	0.1706	0.1236	0.1375	-0.007
Mof_C 	C 	0.2103	0.0229	0.1665	-0.123
Mof_H 	H 	0.2226	0.0566	0.1906	0.093
Mof_C 	C 	0.2228	0.9347	0.1631	0.056
Mof_C 	C 	0.2045	0.8872	0.1273	-0.12
Mof_H 	H 	0.2124	0.8259	0.124	0.076
Mof_C 	C 	0.1743	0.9318	0.0966	0.075
Mof_H 	H 	0.1619	0.8998	0.072	-0.015
Mof_N 	N 	0.3425	0.0444	0.3721	-0.271
Mof_C 	C 	0.343	0.9534	0.3708	0.072
Mof_H 	H 	0.3523	0.9204	0.3955	-0.005
Mof_C 	C 	0.3306	0.9045	0.335	-0.12
Mof_H 	H 	0.3326	0.8395	0.335	0.091
Mof_C 	C 	0.3154	0.9527	0.2992	0.054
Mof_C 	C 	0.3152	0.0477	0.3004	-0.114
Mof_H 	H 	0.3058	0.082	0.2761	0.079
Mof_C 	C 	0.3288	0.0927	0.3374	0.056
Mof_H 	H 	0.3285	0.1579	0.3382	-0.01
Mof_N 	N 	0.3235	0.483	0.231	-0.275
Mof_C 	C 	0.3419	0.5403	0.2617	0.057
Mof_H 	H 	0.3619	0.5159	0.285	-0.012
Mof_C 	C 	0.3328	0.6331	0.2609	-0.112
Mof_H 	H 	0.3465	0.6715	0.2831	0.081
Mof_C 	C 	0.3031	0.6693	0.2269	0.053
Mof_C 	C 	0.2845	0.6103	0.1946	-0.117
Mof_H 	H 	0.2647	0.633	0.1707	0.083
Mof_C 	C 	0.2953	0.5193	0.198	0.072
Mof_H 	H 	0.2823	0.4797	0.1761	-0.012
Mof_C 	C 	0.2542	0.8907	0.1975	0.089
Mof_N 	N 	0.2704	0.9426	0.2303	-0.14
Mof_C 	C 	0.2987	0.8991	0.2608	0.102
Mof_N 	N 	0.3109	0.814	0.2604	-0.136
Mof_C 	C 	0.2915	0.7675	0.2266	0.105
Mof_N 	N 	0.2632	0.8016	0.1942	-0.139
Mof_N 	N 	0.3753	0.0131	0.4677	-0.278
Mof_C 	C 	0.3546	0.9764	0.4912	0.068
Mof_H 	H 	0.3275	0.9979	0.488	-0.01
Mof_C 	C 	0.3708	0.9103	0.519	-0.124
Mof_H 	H 	0.3556	0.8877	0.5354	0.084
Mof_C 	C 	0.4102	0.8755	0.5233	0.059
Mof_C 	C 	0.4306	0.9094	0.4986	-0.128
Mof_H 	H 	0.4569	0.8861	0.4999	0.09
Mof_C 	C 	0.4121	0.9783	0.4716	0.085
Mof_H 	H 	0.4268	0.0021	0.4549	-0.016
Mof_N 	N 	0.3715	0.6717	0.6982	-0.27
Mof_C 	C 	0.3868	0.6011	0.683	0.066
Mof_H 	H 	0.3842	0.5407	0.692	-0.011
Mof_C 	C 	0.4063	0.6144	0.6541	-0.112
Mof_H 	H 	0.4182	0.5638	0.6446	0.083
Mof_C 	C 	0.4085	0.7023	0.6394	0.051
Mof_C 	C 	0.3929	0.7739	0.6556	-0.109
Mof_H 	H 	0.3952	0.835	0.647	0.078
Mof_C 	C 	0.3738	0.7574	0.6845	0.056
Mof_H 	H 	0.3621	0.8072	0.6948	-0.013
Mof_N 	N 	0.5659	0.5106	0.5589	-0.271
Mof_C 	C 	0.5586	0.518	0.5948	0.076
Mof_H 	H 	0.5757	0.4844	0.6173	-0.012
Mof_C 	C 	0.5283	0.5711	0.6002	-0.113
Mof_H 	H 	0.5242	0.5741	0.6258	0.087
Mof_C 	C 	0.5031	0.6212	0.5678	0.062
Mof_C 	C 	0.5099	0.6148	0.5312	-0.118
Mof_H 	H 	0.4931	0.6476	0.5084	0.072
Mof_C 	C 	0.5417	0.5597	0.5284	0.081
Mof_H 	H 	0.5467	0.5566	0.5032	-0.009
Mof_C 	C 	0.4263	0.8016	0.5524	0.097
Mof_N 	N 	0.4106	0.7891	0.5825	-0.137
Mof_C 	C 	0.4271	0.7184	0.6069	0.114
Mof_N 	N 	0.4556	0.663	0.6039	-0.137
Mof_C 	C 	0.4699	0.6804	0.5733	0.101
Mof_N 	N 	0.4567	0.7505	0.5468	-0.137
Mof_Zn	Zn	0.61301	0.57383	0.05483	1.164
Mof_Zn	Zn	0.8496	0.61268	0.42556	1.164
Mof_Zn	Zn	0.83789	0.84611	0.23754	1.164
Mof_I 	I 	0.5962	0.7288	0.08015	-0.378
Mof_I 	I 	0.624	0.55269	0.98722	-0.367
Mof_I 	I 	0.77586	0.64605	0.42362	-0.374
Mof_I 	I 	0.90331	0.73722	0.43839	-0.376
Mof_I 	I 	0.88148	0.81663	0.3101	-0.384
Mof_I 	I 	0.77341	0.74753	0.20764	-0.376
Mof_N 	N 	0.6619	0.5171	0.0998	-0.272
Mof_C 	C 	0.6795	0.5628	0.1347	0.064
Mof_H 	H 	0.6706	0.6236	0.1375	-0.007
Mof_C 	C 	0.7103	0.5229	0.1665	-0.122
Mof_H 	H 	0.7226	0.5566	0.1906	0.092
Mof_C 	C 	0.7228	0.4347	0.1631	0.055
Mof_C 	C 	0.7045	0.3872	0.1273	-0.12
Mof_H 	H 	0.7124	0.3259	0.124	0.076
Mof_C 	C 	0.6743	0.4318	0.0966	0.075
Mof_H 	H 	0.6619	0.3998	0.072	-0.014
Mof_N 	N 	0.8425	0.5444	0.3721	-0.27
Mof_C 	C 	0.843	0.4534	0.3708	0.072
Mof_H 	H 	0.8523	0.4204	0.3955	-0.005
Mof_C 	C 	0.8306	0.4045	0.335	-0.119
Mof_H 	H 	0.8326	0.3395	0.335	0.091
Mof_C 	C 	0.8154	0.4527	0.2992	0.054
Mof_C 	C 	0.8152	0.5477	0.3004	-0.114
Mof_H 	H 	0.8058	0.582	0.2761	0.079
Mof_C 	C 	0.8288	0.5927	0.3374	0.056
Mof_H 	H 	0.8285	0.6579	0.3382	-0.01
Mof_N 	N 	0.8235	0.983	0.231	-0.275
Mof_C 	C 	0.8419	0.0403	0.2617	0.057
Mof_H 	H 	0.8619	0.0159	0.285	-0.012
Mof_C 	C 	0.8328	0.1331	0.2609	-0.111
Mof_H 	H 	0.8465	0.1715	0.2831	0.081
Mof_C 	C 	0.8031	0.1693	0.2269	0.053
Mof_C 	C 	0.7845	0.1103	0.1946	-0.117
Mof_H 	H 	0.7647	0.133	0.1707	0.082
Mof_C 	C 	0.7953	0.0193	0.198	0.071
Mof_H 	H 	0.7823	0.9797	0.1761	-0.011
Mof_C 	C 	0.7542	0.3907	0.1975	0.09
Mof_N 	N 	0.7704	0.4426	0.2303	-0.14
Mof_C 	C 	0.7987	0.3991	0.2608	0.102
Mof_N 	N 	0.8109	0.314	0.2604	-0.136
Mof_C 	C 	0.7915	0.2675	0.2266	0.105
Mof_N 	N 	0.7632	0.3016	0.1942	-0.139
Mof_N 	N 	0.8753	0.5131	0.4677	-0.278
Mof_C 	C 	0.8546	0.4764	0.4912	0.068
Mof_H 	H 	0.8275	0.4979	0.488	-0.01
Mof_C 	C 	0.8708	0.4103	0.519	-0.124
Mof_H 	H 	0.8556	0.3877	0.5354	0.084
Mof_C 	C 	0.9102	0.3755	0.5233	0.059
Mof_C 	C 	0.9306	0.4094	0.4986	-0.127
Mof_H 	H 	0.9569	0.3861	0.4999	0.09
Mof_C 	C 	0.9121	0.4783	0.4716	0.085
Mof_H 	H 	0.9268	0.5021	0.4549	-0.016
Mof_N 	N 	0.8715	0.1717	0.6982	-0.27
Mof_C 	C 	0.8868	0.1011	0.683	0.066
Mof_H 	H 	0.8842	0.0407	0.692	-0.011
Mof_C 	C 	0.9063	0.1144	0.6541	-0.112
Mof_H 	H 	0.9182	0.0638	0.6446	0.083
Mof_C 	C 	0.9085	0.2023	0.6394	0.051
Mof_C 	C 	0.8929	0.2739	0.6556	-0.109
Mof_H 	H 	0.8952	0.335	0.647	0.078
Mof_C 	C 	0.8738	0.2574	0.6845	0.056
Mof_H 	H 	0.8621	0.3072	0.6948	-0.013
Mof_N 	N 	0.0659	0.0106	0.5589	-0.271
Mof_C 	C 	0.0586	0.018	0.5948	0.076
Mof_H 	H 	0.0757	0.9844	0.6173	-0.012
Mof_C 	C 	0.0283	0.0711	0.6002	-0.113
Mof_H 	H 	0.0242	0.0741	0.6258	0.087
Mof_C 	C 	0.0031	0.1212	0.5678	0.062
Mof_C 	C 	0.0099	0.1148	0.5312	-0.118
Mof_H 	H 	0.9931	0.1476	0.5084	0.072
Mof_C 	C 	0.0417	0.0597	0.5284	0.081
Mof_H 	H 	0.0467	0.0566	0.5032	-0.009
Mof_C 	C 	0.9263	0.3016	0.5524	0.097
Mof_N 	N 	0.9106	0.2891	0.5825	-0.137
Mof_C 	C 	0.9271	0.2184	0.6069	0.114
Mof_N 	N 	0.9556	0.163	0.6039	-0.137
Mof_C 	C 	0.9699	0.1804	0.5733	0.101
Mof_N 	N 	0.9567	0.2505	0.5468	-0.137
Mof_Zn	Zn	0.11301	0.92617	0.55483	1.164
Mof_Zn	Zn	0.3496	0.88732	0.92556	1.164
Mof_Zn	Zn	0.33789	0.65389	0.73754	1.163
Mof_I 	I 	0.0962	0.7712	0.58015	-0.379
Mof_I 	I 	0.124	0.94731	0.48722	-0.367
Mof_I 	I 	0.27586	0.85395	0.92362	-0.374
Mof_I 	I 	0.40331	0.76278	0.93839	-0.376
Mof_I 	I 	0.38148	0.68337	0.8101	-0.384
Mof_I 	I 	0.27341	0.75247	0.70764	-0.376
Mof_N 	N 	0.1619	0.9829	0.5998	-0.272
Mof_C 	C 	0.1795	0.9372	0.6347	0.064
Mof_H 	H 	0.1706	0.8764	0.6375	-0.007
Mof_C 	C 	0.2103	0.9771	0.6665	-0.123
Mof_H 	H 	0.2226	0.9434	0.6906	0.093
Mof_C 	C 	0.2228	0.0653	0.6631	0.055
Mof_C 	C 	0.2045	0.1128	0.6273	-0.12
Mof_H 	H 	0.2124	0.1741	0.624	0.076
Mof_C 	C 	0.1743	0.0682	0.5966	0.075
Mof_H 	H 	0.1619	0.1002	0.572	-0.014
Mof_N 	N 	0.3425	0.9556	0.8721	-0.271
Mof_C 	C 	0.343	0.0466	0.8708	0.072
Mof_H 	H 	0.3523	0.0796	0.8955	-0.005
Mof_C 	C 	0.3306	0.0955	0.835	-0.12
Mof_H 	H 	0.3326	0.1605	0.835	0.091
Mof_C 	C 	0.3154	0.0473	0.7992	0.055
Mof_C 	C 	0.3152	0.9523	0.8004	-0.115
Mof_H 	H 	0.3058	0.918	0.7761	0.079
Mof_C 	C 	0.3288	0.9073	0.8374	0.056
Mof_H 	H 	0.3285	0.8421	0.8382	-0.01
Mof_N 	N 	0.3235	0.517	0.731	-0.275
Mof_C 	C 	0.3419	0.4597	0.7617	0.057
Mof_H 	H 	0.3619	0.4841	0.785	-0.012
Mof_C 	C 	0.3328	0.3669	0.7609	-0.112
Mof_H 	H 	0.3465	0.3285	0.7831	0.081
Mof_C 	C 	0.3031	0.3307	0.7269	0.053
Mof_C 	C 	0.2845	0.3897	0.6946	-0.117
Mof_H 	H 	0.2647	0.367	0.6707	0.083
Mof_C 	C 	0.2953	0.4807	0.698	0.072
Mof_H 	H 	0.2823	0.5203	0.6761	-0.012
Mof_C 	C 	0.2542	0.1093	0.6975	0.09
Mof_N 	N 	0.2704	0.0574	0.7303	-0.14
Mof_C 	C 	0.2987	0.1009	0.7608	0.102
Mof_N 	N 	0.3109	0.186	0.7604	-0.136
Mof_C 	C 	0.2915	0.2325	0.7266	0.105
Mof_N 	N 	0.2632	0.1984	0.6942	-0.139
Mof_N 	N 	0.3753	0.9869	0.9677	-0.279
Mof_C 	C 	0.3546	0.0236	0.9912	0.069
Mof_H 	H 	0.3275	0.0021	0.988	-0.01
Mof_C 	C 	0.3708	0.0897	0.019	-0.125
Mof_H 	H 	0.3556	0.1123	0.0354	0.084
Mof_C 	C 	0.4102	0.1245	0.0233	0.059
Mof_C 	C 	0.4306	0.0906	0.9986	-0.128
Mof_H 	H 	0.4569	0.1139	0.9999	0.09
Mof_C 	C 	0.4121	0.0217	0.9716	0.086
Mof_H 	H 	0.4268	0.9979	0.9549	-0.016
Mof_N 	N 	0.3715	0.3283	0.1982	-0.27
Mof_C 	C 	0.3868	0.3989	0.183	0.066
Mof_H 	H 	0.3842	0.4593	0.192	-0.011
Mof_C 	C 	0.4063	0.3856	0.1541	-0.112
Mof_H 	H 	0.4182	0.4362	0.1446	0.083
Mof_C 	C 	0.4085	0.2977	0.1394	0.051
Mof_C 	C 	0.3929	0.2261	0.1556	-0.109
Mof_H 	H 	0.3952	0.165	0.147	0.078
Mof_C 	C 	0.3738	0.2426	0.1845	0.056
Mof_H 	H 	0.3621	0.1928	0.1948	-0.013
Mof_N 	N 	0.5659	0.4894	0.0589	-0.271
Mof_C 	C 	0.5586	0.482	0.0948	0.076
Mof_H 	H 	0.5757	0.5156	0.1173	-0.012
Mof_C 	C 	0.5283	0.4289	0.1002	-0.113
Mof_H 	H 	0.5242	0.4259	0.1258	0.087
Mof_C 	C 	0.5031	0.3788	0.0678	0.062
Mof_C 	C 	0.5099	0.3852	0.0312	-0.118
Mof_H 	H 	0.4931	0.3524	0.0084	0.072
Mof_C 	C 	0.5417	0.4403	0.0284	0.081
Mof_H 	H 	0.5467	0.4434	0.0032	-0.009
Mof_C 	C 	0.4263	0.1984	0.0524	0.097
Mof_N 	N 	0.4106	0.2109	0.0825	-0.137
Mof_C 	C 	0.4271	0.2816	0.1069	0.114
Mof_N 	N 	0.4556	0.337	0.1039	-0.137
Mof_C 	C 	0.4699	0.3196	0.0733	0.101
Mof_N 	N 	0.4567	0.2495	0.0468	-0.137
Mof_Zn	Zn	0.61301	0.42617	0.55483	1.164
Mof_Zn	Zn	0.8496	0.38732	0.92556	1.164
Mof_Zn	Zn	0.83789	0.15389	0.73754	1.164
Mof_I 	I 	0.5962	0.2712	0.58015	-0.378
Mof_I 	I 	0.624	0.44731	0.48722	-0.367
Mof_I 	I 	0.77586	0.35395	0.92362	-0.374
Mof_I 	I 	0.90331	0.26278	0.93839	-0.376
Mof_I 	I 	0.88148	0.18337	0.8101	-0.384
Mof_I 	I 	0.77341	0.25247	0.70764	-0.376
Mof_N 	N 	0.6619	0.4829	0.5998	-0.272
Mof_C 	C 	0.6795	0.4372	0.6347	0.064
Mof_H 	H 	0.6706	0.3764	0.6375	-0.007
Mof_C 	C 	0.7103	0.4771	0.6665	-0.122
Mof_H 	H 	0.7226	0.4434	0.6906	0.092
Mof_C 	C 	0.7228	0.5653	0.6631	0.055
Mof_C 	C 	0.7045	0.6128	0.6273	-0.12
Mof_H 	H 	0.7124	0.6741	0.624	0.076
Mof_C 	C 	0.6743	0.5682	0.5966	0.075
Mof_H 	H 	0.6619	0.6002	0.572	-0.014
Mof_N 	N 	0.8425	0.4556	0.8721	-0.27
Mof_C 	C 	0.843	0.5466	0.8708	0.072
Mof_H 	H 	0.8523	0.5796	0.8955	-0.005
Mof_C 	C 	0.8306	0.5955	0.835	-0.119
Mof_H 	H 	0.8326	0.6605	0.835	0.091
Mof_C 	C 	0.8154	0.5473	0.7992	0.054
Mof_C 	C 	0.8152	0.4523	0.8004	-0.114
Mof_H 	H 	0.8058	0.418	0.7761	0.079
Mof_C 	C 	0.8288	0.4073	0.8374	0.056
Mof_H 	H 	0.8285	0.3421	0.8382	-0.01
Mof_N 	N 	0.8235	0.017	0.731	-0.275
Mof_C 	C 	0.8419	0.9597	0.7617	0.057
Mof_H 	H 	0.8619	0.9841	0.785	-0.012
Mof_C 	C 	0.8328	0.8669	0.7609	-0.111
Mof_H 	H 	0.8465	0.8285	0.7831	0.081
Mof_C 	C 	0.8031	0.8307	0.7269	0.053
Mof_C 	C 	0.7845	0.8897	0.6946	-0.117
Mof_H 	H 	0.7647	0.867	0.6707	0.082
Mof_C 	C 	0.7953	0.9807	0.698	0.071
Mof_H 	H 	0.7823	0.0203	0.6761	-0.011
Mof_C 	C 	0.7542	0.6093	0.6975	0.09
Mof_N 	N 	0.7704	0.5574	0.7303	-0.14
Mof_C 	C 	0.7987	0.6009	0.7608	0.102
Mof_N 	N 	0.8109	0.686	0.7604	-0.136
Mof_C 	C 	0.7915	0.7325	0.7266	0.105
Mof_N 	N 	0.7632	0.6984	0.6942	-0.139
Mof_N 	N 	0.8753	0.4869	0.9677	-0.278
Mof_C 	C 	0.8546	0.5236	0.9912	0.068
Mof_H 	H 	0.8275	0.5021	0.988	-0.01
Mof_C 	C 	0.8708	0.5897	0.019	-0.124
Mof_H 	H 	0.8556	0.6123	0.0354	0.084
Mof_C 	C 	0.9102	0.6245	0.0233	0.059
Mof_C 	C 	0.9306	0.5906	0.9986	-0.128
Mof_H 	H 	0.9569	0.6139	0.9999	0.09
Mof_C 	C 	0.9121	0.5217	0.9716	0.085
Mof_H 	H 	0.9268	0.4979	0.9549	-0.016
Mof_N 	N 	0.8715	0.8283	0.1982	-0.27
Mof_C 	C 	0.8868	0.8989	0.183	0.066
Mof_H 	H 	0.8842	0.9593	0.192	-0.011
Mof_C 	C 	0.9063	0.8856	0.1541	-0.112
Mof_H 	H 	0.9182	0.9362	0.1446	0.083
Mof_C 	C 	0.9085	0.7977	0.1394	0.051
Mof_C 	C 	0.8929	0.7261	0.1556	-0.109
Mof_H 	H 	0.8952	0.665	0.147	0.078
Mof_C 	C 	0.8738	0.7426	0.1845	0.056
Mof_H 	H 	0.8621	0.6928	0.1948	-0.013
Mof_N 	N 	0.0659	0.9894	0.0589	-0.271
Mof_C 	C 	0.0586	0.982	0.0948	0.077
Mof_H 	H 	0.0757	0.0156	0.1173	-0.012
Mof_C 	C 	0.0283	0.9289	0.1002	-0.114
Mof_H 	H 	0.0242	0.9259	0.1258	0.087
Mof_C 	C 	0.0031	0.8788	0.0678	0.062
Mof_C 	C 	0.0099	0.8852	0.0312	-0.119
Mof_H 	H 	0.9931	0.8524	0.0084	0.072
Mof_C 	C 	0.0417	0.9403	0.0284	0.081
Mof_H 	H 	0.0467	0.9434	0.0032	-0.009
Mof_C 	C 	0.9263	0.6984	0.0524	0.097
Mof_N 	N 	0.9106	0.7109	0.0825	-0.137
Mof_C 	C 	0.9271	0.7816	0.1069	0.114
Mof_N 	N 	0.9556	0.837	0.1039	-0.137
Mof_C 	C 	0.9699	0.8196	0.0733	0.101
Mof_N 	N 	0.9567	0.7495	0.0468	-0.137
Mof_Zn	Zn	0.88699	0.07383	0.44517	1.164
Mof_Zn	Zn	0.6504	0.11268	0.07444	1.164
Mof_Zn	Zn	0.66211	0.34611	0.26246	1.163
Mof_I 	I 	0.9038	0.2288	0.41985	-0.379
Mof_I 	I 	0.876	0.05269	0.51278	-0.367
Mof_I 	I 	0.72414	0.14605	0.07638	-0.374
Mof_I 	I 	0.59669	0.23722	0.06161	-0.376
Mof_I 	I 	0.61852	0.31663	0.1899	-0.384
Mof_I 	I 	0.72659	0.24753	0.29236	-0.376
Mof_N 	N 	0.8381	0.0171	0.4002	-0.272
Mof_C 	C 	0.8205	0.0628	0.3653	0.064
Mof_H 	H 	0.8294	0.1236	0.3625	-0.007
Mof_C 	C 	0.7897	0.0229	0.3335	-0.123
Mof_H 	H 	0.7774	0.0566	0.3094	0.093
Mof_C 	C 	0.7772	0.9347	0.3369	0.055
Mof_C 	C 	0.7955	0.8872	0.3727	-0.12
Mof_H 	H 	0.7876	0.8259	0.376	0.076
Mof_C 	C 	0.8257	0.9318	0.4034	0.075
Mof_H 	H 	0.8381	0.8998	0.428	-0.014
Mof_N 	N 	0.6575	0.0444	0.1279	-0.271
Mof_C 	C 	0.657	0.9534	0.1292	0.072
Mof_H 	H 	0.6477	0.9204	0.1045	-0.005
Mof_C 	C 	0.6694	0.9045	0.165	-0.12
Mof_H 	H 	0.6674	0.8395	0.165	0.091
Mof_C 	C 	0.6846	0.9527	0.2008	0.055
Mof_C 	C 	0.6848	0.0477	0.1996	-0.115
Mof_H 	H 	0.6942	0.082	0.2239	0.079
Mof_C 	C 	0.6712	0.0927	0.1626	0.056
Mof_H 	H 	0.6715	0.1579	0.1618	-0.01
Mof_N 	N 	0.6765	0.483	0.269	-0.275
Mof_C 	C 	0.6581	0.5403	0.2383	0.057
Mof_H 	H 	0.6381	0.5159	0.215	-0.012
Mof_C 	C 	0.6672	0.6331	0.2391	-0.112
Mof_H 	H 	0.6535	0.6715	0.2169	0.081
Mof_C 	C 	0.6969	0.6693	0.2731	0.053
Mof_C 	C 	0.7155	0.6103	0.3054	-0.117
Mof_H 	H 	0.7353	0.633	0.3293	0.083
Mof_C 	C 	0.7047	0.5193	0.302	0.072
Mof_H 	H 	0.7177	0.4797	0.3239	-0.012
Mof_C 	C 	0.7458	0.8907	0.3025	0.09
Mof_N 	N 	0.7296	0.9426	0.2697	-0.14
Mof_C 	C 	0.7013	0.8991	0.2392	0.102
Mof_N 	N 	0.6891	0.814	0.2396	-0.136
Mof_C 	C 	0.7085	0.7675	0.2734	0.105
Mof_N 	N 	0.7368	0.8016	0.3058	-0.139
Mof_N 	N 	0.6247	0.0131	0.0323	-0.279
Mof_C 	C 	0.6454	0.9764	0.0088	0.069
Mof_H 	H 	0.6725	0.9979	0.012	-0.01
Mof_C 	C 	0.6292	0.9103	0.981	-0.125
Mof_H 	H 	0.6444	0.8877	0.9646	0.084
Mof_C 	C 	0.5898	0.8755	0.9767	0.059
Mof_C 	C 	0.5694	0.9094	0.0014	-0.128
Mof_H 	H 	0.5431	0.8861	0.0001	0.09
Mof_C 	C 	0.5879	0.9783	0.0284	0.086
Mof_H 	H 	0.5732	0.0021	0.0451	-0.016
Mof_N 	N 	0.6285	0.6717	0.8018	-0.27
Mof_C 	C 	0.6132	0.6011	0.817	0.066
Mof_H 	H 	0.6158	0.5407	0.808	-0.011
Mof_C 	C 	0.5937	0.6144	0.8459	-0.112
Mof_H 	H 	0.5818	0.5638	0.8554	0.083
Mof_C 	C 	0.5915	0.7023	0.8606	0.051
Mof_C 	C 	0.6071	0.7739	0.8444	-0.109
Mof_H 	H 	0.6048	0.835	0.853	0.078
Mof_C 	C 	0.6262	0.7574	0.8155	0.056
Mof_H 	H 	0.6379	0.8072	0.8052	-0.013
Mof_N 	N 	0.4341	0.5106	0.9411	-0.271
Mof_C 	C 	0.4414	0.518	0.9052	0.076
Mof_H 	H 	0.4243	0.4844	0.8827	-0.012
Mof_C 	C 	0.4717	0.5711	0.8998	-0.113
Mof_H 	H 	0.4758	0.5741	0.8742	0.087
Mof_C 	C 	0.4969	0.6212	0.9322	0.062
Mof_C 	C 	0.4901	0.6148	0.9688	-0.118
Mof_H 	H 	0.5069	0.6476	0.9916	0.072
Mof_C 	C 	0.4583	0.5597	0.9716	0.081
Mof_H 	H 	0.4533	0.5566	0.9968	-0.009
Mof_C 	C 	0.5737	0.8016	0.9476	0.097
Mof_N 	N 	0.5894	0.7891	0.9175	-0.137
Mof_C 	C 	0.5729	0.7184	0.8931	0.114
Mof_N 	N 	0.5444	0.663	0.8961	-0.137
Mof_C 	C 	0.5301	0.6804	0.9267	0.101
Mof_N 	N 	0.5433	0.7505	0.9532	-0.137
Mof_Zn	Zn	0.38699	0.57383	0.44517	1.164
Mof_Zn	Zn	0.1504	0.61268	0.07444	1.164
Mof_Zn	Zn	0.16211	0.84611	0.26246	1.164
Mof_I 	I 	0.4038	0.7288	0.41985	-0.378
Mof_I 	I 	0.376	0.55269	0.51278	-0.367
Mof_I 	I 	0.22414	0.64605	0.07638	-0.374
Mof_I 	I 	0.09669	0.73722	0.06161	-0.376
Mof_I 	I 	0.11852	0.81663	0.1899	-0.384
Mof_I 	I 	0.22659	0.74753	0.29236	-0.376
Mof_N 	N 	0.3381	0.5171	0.4002	-0.272
Mof_C 	C 	0.3205	0.5628	0.3653	0.064
Mof_H 	H 	0.3294	0.6236	0.3625	-0.007
Mof_C 	C 	0.2897	0.5229	0.3335	-0.122
Mof_H 	H 	0.2774	0.5566	0.3094	0.092
Mof_C 	C 	0.2772	0.4347	0.3369	0.055
Mof_C 	C 	0.2955	0.3872	0.3727	-0.12
Mof_H 	H 	0.2876	0.3259	0.376	0.076
Mof_C 	C 	0.3257	0.4318	0.4034	0.075
Mof_H 	H 	0.3381	0.3998	0.428	-0.014
Mof_N 	N 	0.1575	0.5444	0.1279	-0.27
Mof_C 	C 	0.157	0.4534	0.1292	0.072
Mof_H 	H 	0.1477	0.4204	0.1045	-0.005
Mof_C 	C 	0.1694	0.4045	0.165	-0.119
Mof_H 	H 	0.1674	0.3395	0.165	0.091
Mof_C 	C 	0.1846	0.4527	0.2008	0.054
Mof_C 	C 	0.1848	0.5477	0.1996	-0.114
Mof_H 	H 	0.1942	0.582	0.2239	0.079
Mof_C 	C 	0.1712	0.5927	0.1626	0.056
Mof_H 	H 	0.1715	0.6579	0.1618	-0.01
Mof_N 	N 	0.1765	0.983	0.269	-0.275
Mof_C 	C 	0.1581	0.0403	0.2383	0.057
Mof_H 	H 	0.1381	0.0159	0.215	-0.012
Mof_C 	C 	0.1672	0.1331	0.2391	-0.111
Mof_H 	H 	0.1535	0.1715	0.2169	0.081
Mof_C 	C 	0.1969	0.1693	0.2731	0.053
Mof_C 	C 	0.2155	0.1103	0.3054	-0.117
Mof_H 	H 	0.2353	0.133	0.3293	0.082
Mof_C 	C 	0.2047	0.0193	0.302	0.071
Mof_H 	H 	0.2177	0.9797	0.3239	-0.011
Mof_C 	C 	0.2458	0.3907	0.3025	0.09
Mof_N 	N 	0.2296	0.4426	0.2697	-0.14
Mof_C 	C 	0.2013	0.3991	0.2392	0.102
Mof_N 	N 	0.1891	0.314	0.2396	-0.136
Mof_C 	C 	0.2085	0.2675	0.2734	0.105
Mof_N 	N 	0.2368	0.3016	0.3058	-0.139
Mof_N 	N 	0.1247	0.5131	0.0323	-0.278
Mof_C 	C 	0.1454	0.4764	0.0088	0.068
Mof_H 	H 	0.1725	0.4979	0.012	-0.01
Mof_C 	C 	0.1292	0.4103	0.981	-0.124
Mof_H 	H 	0.1444	0.3877	0.9646	0.084
Mof_C 	C 	0.0898	0.3755	0.9767	0.059
Mof_C 	C 	0.0694	0.4094	0.0014	-0.128
Mof_H 	H 	0.0431	0.3861	0.0001	0.09
Mof_C 	C 	0.0879	0.4783	0.0284	0.085
Mof_H 	H 	0.0732	0.5021	0.0451	-0.016
Mof_N 	N 	0.1285	0.1717	0.8018	-0.27
Mof_C 	C 	0.1132	0.1011	0.817	0.066
Mof_H 	H 	0.1158	0.0407	0.808	-0.011
Mof_C 	C 	0.0937	0.1144	0.8459	-0.112
Mof_H 	H 	0.0818	0.0638	0.8554	0.083
Mof_C 	C 	0.0915	0.2023	0.8606	0.051
Mof_C 	C 	0.1071	0.2739	0.8444	-0.109
Mof_H 	H 	0.1048	0.335	0.853	0.078
Mof_C 	C 	0.1262	0.2574	0.8155	0.056
Mof_H 	H 	0.1379	0.3072	0.8052	-0.013
Mof_N 	N 	0.9341	0.0106	0.9411	-0.271
Mof_C 	C 	0.9414	0.018	0.9052	0.077
Mof_H 	H 	0.9243	0.9844	0.8827	-0.012
Mof_C 	C 	0.9717	0.0711	0.8998	-0.114
Mof_H 	H 	0.9758	0.0741	0.8742	0.087
Mof_C 	C 	0.9969	0.1212	0.9322	0.062
Mof_C 	C 	0.9901	0.1148	0.9688	-0.119
Mof_H 	H 	0.0069	0.1476	0.9916	0.072
Mof_C 	C 	0.9583	0.0597	0.9716	0.081
Mof_H 	H 	0.9533	0.0566	0.9968	-0.009
Mof_C 	C 	0.0737	0.3016	0.9476	0.097
Mof_N 	N 	0.0894	0.2891	0.9175	-0.137
Mof_C 	C 	0.0729	0.2184	0.8931	0.114
Mof_N 	N 	0.0444	0.163	0.8961	-0.137
Mof_C 	C 	0.0301	0.1804	0.9267	0.101
Mof_N 	N 	0.0433	0.2505	0.9532	-0.137
Mof_Zn	Zn	0.88699	0.92617	0.94517	1.163
Mof_Zn	Zn	0.6504	0.88732	0.57444	1.164
Mof_Zn	Zn	0.66211	0.65389	0.76246	1.163
Mof_I 	I 	0.9038	0.7712	0.91985	-0.379
Mof_I 	I 	0.876	0.94731	0.01278	-0.366
Mof_I 	I 	0.72414	0.85395	0.57638	-0.374
Mof_I 	I 	0.59669	0.76278	0.56161	-0.376
Mof_I 	I 	0.61852	0.68337	0.6899	-0.384
Mof_I 	I 	0.72659	0.75247	0.79236	-0.376
Mof_N 	N 	0.8381	0.9829	0.9002	-0.272
Mof_C 	C 	0.8205	0.9372	0.8653	0.065
Mof_H 	H 	0.8294	0.8764	0.8625	-0.007
Mof_C 	C 	0.7897	0.9771	0.8335	-0.123
Mof_H 	H 	0.7774	0.9434	0.8094	0.093
Mof_C 	C 	0.7772	0.0653	0.8369	0.056
Mof_C 	C 	0.7955	0.1128	0.8727	-0.12
Mof_H 	H 	0.7876	0.1741	0.876	0.076
Mof_C 	C 	0.8257	0.0682	0.9034	0.075
Mof_H 	H 	0.8381	0.1002	0.928	-0.015
Mof_N 	N 	0.6575	0.9556	0.6279	-0.271
Mof_C 	C 	0.657	0.0466	0.6292	0.072
Mof_H 	H 	0.6477	0.0796	0.6045	-0.005
Mof_C 	C 	0.6694	0.0955	0.665	-0.12
Mof_H 	H 	0.6674	0.1605	0.665	0.091
Mof_C 	C 	0.6846	0.0473	0.7008	0.054
Mof_C 	C 	0.6848	0.9523	0.6996	-0.114
Mof_H 	H 	0.6942	0.918	0.7239	0.079
Mof_C 	C 	0.6712	0.9073	0.6626	0.056
Mof_H 	H 	0.6715	0.8421	0.6618	-0.01
Mof_N 	N 	0.6765	0.517	0.769	-0.275
Mof_C 	C 	0.6581	0.4597	0.7383	0.057
Mof_H 	H 	0.6381	0.4841	0.715	-0.012
Mof_C 	C 	0.6672	0.3669	0.7391	-0.112
Mof_H 	H 	0.6535	0.3285	0.7169	0.081
Mof_C 	C 	0.6969	0.3307	0.7731	0.053
Mof_C 	C 	0.7155	0.3897	0.8054	-0.117
Mof_H 	H 	0.7353	0.367	0.8293	0.083
Mof_C 	C 	0.7047	0.4807	0.802	0.072
Mof_H 	H 	0.7177	0.5203	0.8239	-0.012
Mof_C 	C 	0.7458	0.1093	0.8025	0.089
Mof_N 	N 	0.7296	0.0574	0.7697	-0.14
Mof_C 	C 	0.7013	0.1009	0.7392	0.102
Mof_N 	N 	0.6891	0.186	0.7396	-0.136
Mof_C 	C 	0.7085	0.2325	0.7734	0.105
Mof_N 	N 	0.7368	0.1984	0.8058	-0.139
Mof_N 	N 	0.6247	0.9869	0.5323	-0.278
Mof_C 	C 	0.6454	0.0236	0.5088	0.068
Mof_H 	H 	0.6725	0.0021	0.512	-0.01
Mof_C 	C 	0.6292	0.0897	0.481	-0.124
Mof_H 	H 	0.6444	0.1123	0.4646	0.084
Mof_C 	C 	0.5898	0.1245	0.4767	0.059
Mof_C 	C 	0.5694	0.0906	0.5014	-0.128
Mof_H 	H 	0.5431	0.1139	0.5001	0.09
Mof_C 	C 	0.5879	0.0217	0.5284	0.085
Mof_H 	H 	0.5732	0.9979	0.5451	-0.016
Mof_N 	N 	0.6285	0.3283	0.3018	-0.27
Mof_C 	C 	0.6132	0.3989	0.317	0.066
Mof_H 	H 	0.6158	0.4593	0.308	-0.011
Mof_C 	C 	0.5937	0.3856	0.3459	-0.112
Mof_H 	H 	0.5818	0.4362	0.3554	0.083
Mof_C 	C 	0.5915	0.2977	0.3606	0.051
Mof_C 	C 	0.6071	0.2261	0.3444	-0.109
Mof_H 	H 	0.6048	0.165	0.353	0.078
Mof_C 	C 	0.6262	0.2426	0.3155	0.056
Mof_H 	H 	0.6379	0.1928	0.3052	-0.013
Mof_N 	N 	0.4341	0.4894	0.4411	-0.271
Mof_C 	C 	0.4414	0.482	0.4052	0.076
Mof_H 	H 	0.4243	0.5156	0.3827	-0.012
Mof_C 	C 	0.4717	0.4289	0.3998	-0.113
Mof_H 	H 	0.4758	0.4259	0.3742	0.087
Mof_C 	C 	0.4969	0.3788	0.4322	0.062
Mof_C 	C 	0.4901	0.3852	0.4688	-0.118
Mof_H 	H 	0.5069	0.3524	0.4916	0.072
Mof_C 	C 	0.4583	0.4403	0.4716	0.081
Mof_H 	H 	0.4533	0.4434	0.4968	-0.009
Mof_C 	C 	0.5737	0.1984	0.4476	0.097
Mof_N 	N 	0.5894	0.2109	0.4175	-0.137
Mof_C 	C 	0.5729	0.2816	0.3931	0.114
Mof_N 	N 	0.5444	0.337	0.3961	-0.137
Mof_C 	C 	0.5301	0.3196	0.4267	0.101
Mof_N 	N 	0.5433	0.2495	0.4532	-0.137
Mof_Zn	Zn	0.38699	0.42617	0.94517	1.164
Mof_Zn	Zn	0.1504	0.38732	0.57444	1.164
Mof_Zn	Zn	0.16211	0.15389	0.76246	1.164
Mof_I 	I 	0.4038	0.2712	0.91985	-0.378
Mof_I 	I 	0.376	0.44731	0.01278	-0.367
Mof_I 	I 	0.22414	0.35395	0.57638	-0.374
Mof_I 	I 	0.09669	0.26278	0.56161	-0.376
Mof_I 	I 	0.11852	0.18337	0.6899	-0.384
Mof_I 	I 	0.22659	0.25247	0.79236	-0.376
Mof_N 	N 	0.3381	0.4829	0.9002	-0.272
Mof_C 	C 	0.3205	0.4372	0.8653	0.064
Mof_H 	H 	0.3294	0.3764	0.8625	-0.007
Mof_C 	C 	0.2897	0.4771	0.8335	-0.122
Mof_H 	H 	0.2774	0.4434	0.8094	0.092
Mof_C 	C 	0.2772	0.5653	0.8369	0.055
Mof_C 	C 	0.2955	0.6128	0.8727	-0.12
Mof_H 	H 	0.2876	0.6741	0.876	0.076
Mof_C 	C 	0.3257	0.5682	0.9034	0.075
Mof_H 	H 	0.3381	0.6002	0.928	-0.014
Mof_N 	N 	0.1575	0.4556	0.6279	-0.27
Mof_C 	C 	0.157	0.5466	0.6292	0.072
Mof_H 	H 	0.1477	0.5796	0.6045	-0.005
Mof_C 	C 	0.1694	0.5955	0.665	-0.119
Mof_H 	H 	0.1674	0.6605	0.665	0.091
Mof_C 	C 	0.1846	0.5473	0.7008	0.054
Mof_C 	C 	0.1848	0.4523	0.6996	-0.114
Mof_H 	H 	0.1942	0.418	0.7239	0.079
Mof_C 	C 	0.1712	0.4073	0.6626	0.056
Mof_H 	H 	0.1715	0.3421	0.6618	-0.01
Mof_N 	N 	0.1765	0.017	0.769	-0.275
Mof_C 	C 	0.1581	0.9597	0.7383	0.057
Mof_H 	H 	0.1381	0.9841	0.715	-0.012
Mof_C 	C 	0.1672	0.8669	0.7391	-0.111
Mof_H 	H 	0.1535	0.8285	0.7169	0.081
Mof_C 	C 	0.1969	0.8307	0.7731	0.053
Mof_C 	C 	0.2155	0.8897	0.8054	-0.117
Mof_H 	H 	0.2353	0.867	0.8293	0.082
Mof_C 	C 	0.2047	0.9807	0.802	0.071
Mof_H 	H 	0.2177	0.0203	0.8239	-0.011
Mof_C 	C 	0.2458	0.6093	0.8025	0.09
Mof_N 	N 	0.2296	0.5574	0.7697	-0.14
Mof_C 	C 	0.2013	0.6009	0.7392	0.102
Mof_N 	N 	0.1891	0.686	0.7396	-0.136
Mof_C 	C 	0.2085	0.7325	0.7734	0.105
Mof_N 	N 	0.2368	0.6984	0.8058	-0.139
Mof_N 	N 	0.1247	0.4869	0.5323	-0.278
Mof_C 	C 	0.1454	0.5236	0.5088	0.068
Mof_H 	H 	0.1725	0.5021	0.512	-0.01
Mof_C 	C 	0.1292	0.5897	0.481	-0.124
Mof_H 	H 	0.1444	0.6123	0.4646	0.084
Mof_C 	C 	0.0898	0.6245	0.4767	0.059
Mof_C 	C 	0.0694	0.5906	0.5014	-0.127
Mof_H 	H 	0.0431	0.6139	0.5001	0.09
Mof_C 	C 	0.0879	0.5217	0.5284	0.085
Mof_H 	H 	0.0732	0.4979	0.5451	-0.016
Mof_N 	N 	0.1285	0.8283	0.3018	-0.27
Mof_C 	C 	0.1132	0.8989	0.317	0.066
Mof_H 	H 	0.1158	0.9593	0.308	-0.011
Mof_C 	C 	0.0937	0.8856	0.3459	-0.112
Mof_H 	H 	0.0818	0.9362	0.3554	0.083
Mof_C 	C 	0.0915	0.7977	0.3606	0.051
Mof_C 	C 	0.1071	0.7261	0.3444	-0.109
Mof_H 	H 	0.1048	0.665	0.353	0.078
Mof_C 	C 	0.1262	0.7426	0.3155	0.056
Mof_H 	H 	0.1379	0.6928	0.3052	-0.013
Mof_N 	N 	0.9341	0.9894	0.4411	-0.271
Mof_C 	C 	0.9414	0.982	0.4052	0.076
Mof_H 	H 	0.9243	0.0156	0.3827	-0.012
Mof_C 	C 	0.9717	0.9289	0.3998	-0.113
Mof_H 	H 	0.9758	0.9259	0.3742	0.087
Mof_C 	C 	0.9969	0.8788	0.4322	0.062
Mof_C 	C 	0.9901	0.8852	0.4688	-0.118
Mof_H 	H 	0.0069	0.8524	0.4916	0.072
Mof_C 	C 	0.9583	0.9403	0.4716	0.081
Mof_H 	H 	0.9533	0.9434	0.4968	-0.009
Mof_C 	C 	0.0737	0.6984	0.4476	0.097
Mof_N 	N 	0.0894	0.7109	0.4175	-0.137
Mof_C 	C 	0.0729	0.7816	0.3931	0.114
Mof_N 	N 	0.0444	0.837	0.3961	-0.137
Mof_C 	C 	0.0301	0.8196	0.4267	0.101
Mof_N 	N 	0.0433	0.7495	0.4532	-0.137
_end
