# CIF file generated by openbabel 3.1.0, see https://openbabel.org
data_I
_chemical_name_common 'image0'
_cell_length_a 10.2875
_cell_length_b 10.6125
_cell_length_c 6.24
_cell_angle_alpha 90
_cell_angle_beta 114.688
_cell_angle_gamma 90
_space_group_name_H-M_alt 'P 1'
_space_group_name_Hall 'P 1'
loop_
    _symmetry_equiv_pos_as_xyz
    x,y,z
loop_
    _atom_site_label
    _atom_site_type_symbol
    _atom_site_fract_x
    _atom_site_fract_y
    _atom_site_fract_z
    _atom_site_occupancy
    C1       C        0.31740    0.21090    0.54520    1.000
    H1       H        0.40010    0.26610    0.57030    1.000
    H2       H        0.33240    0.17370    0.69920    1.000
    N1       N        0.31110    0.10930    0.38060    1.000
    H3       H        0.29540    0.14410    0.23680    1.000
    H4       H        0.23490    0.05750    0.35920    1.000
    C2       C        0.81740    0.71090    0.54520    1.000
    H5       H        0.90010    0.76610    0.57030    1.000
    H6       H        0.83240    0.67370    0.69920    1.000
    N2       N        0.81110    0.60930    0.38060    1.000
    H7       H        0.79540    0.64410    0.23680    1.000
    H8       H        0.73490    0.55750    0.35920    1.000
    C3       C        0.68260    0.21090    0.95480    1.000
    H9       H        0.59990    0.26610    0.92970    1.000
    H10      H        0.66760    0.17370    0.80080    1.000
    N3       N        0.68890    0.10930    0.11940    1.000
    H11      H        0.70460    0.14410    0.26320    1.000
    H12      H        0.76510    0.05750    0.14080    1.000
    C4       C        0.18260    0.71090    0.95480    1.000
    H13      H        0.09990    0.76610    0.92970    1.000
    H14      H        0.16760    0.67370    0.80080    1.000
    N4       N        0.18890    0.60930    0.11940    1.000
    H15      H        0.20460    0.64410    0.26320    1.000
    H16      H        0.26510    0.55750    0.14080    1.000
    C5       C        0.68260    0.78910    0.45480    1.000
    H17      H        0.59990    0.73390    0.42970    1.000
    H18      H        0.66760    0.82630    0.30080    1.000
    N5       N        0.68890    0.89070    0.61940    1.000
    H19      H        0.70460    0.85590    0.76320    1.000
    H20      H        0.76510    0.94250    0.64080    1.000
    C6       C        0.18260    0.28910    0.45480    1.000
    H21      H        0.09990    0.23390    0.42970    1.000
    H22      H        0.16760    0.32630    0.30080    1.000
    N6       N        0.18890    0.39070    0.61940    1.000
    H23      H        0.20460    0.35590    0.76320    1.000
    H24      H        0.26510    0.44250    0.64080    1.000
    C7       C        0.31740    0.78910    0.04520    1.000
    H25      H        0.40010    0.73390    0.07030    1.000
    H26      H        0.33240    0.82630    0.19920    1.000
    N7       N        0.31110    0.89070    0.88060    1.000
    H27      H        0.29540    0.85590    0.73680    1.000
    H28      H        0.23490    0.94250    0.85920    1.000
    C8       C        0.81740    0.28910    0.04520    1.000
    H29      H        0.90010    0.23390    0.07030    1.000
    H30      H        0.83240    0.32630    0.19920    1.000
    N8       N        0.81110    0.39070    0.88060    1.000
    H31      H        0.79540    0.35590    0.73680    1.000
    H32      H        0.73490    0.44250    0.85920    1.000
    Ag1      Ag       0.50000    0.00000    0.50000    1.000
    Ag2      Ag       0.00000    0.50000    0.50000    1.000
    Ag3      Ag       0.50000    0.00000    0.00000    1.000
    Ag4      Ag       0.00000    0.50000    0.00000    1.000
