data_functionalizedCrystal
_audit_creation_method	'EQeq! by Chris Wilmer'
_symmetry_space_group_name_H-M	'P1'
_symmetry_Int_Tables_number	1
_symmetry_cell_setting	triclinic
loop_
_symmetry_equiv_pos_as_xyz
  x,y,z
_cell_length_a	19.2395
_cell_length_b	15.1642
_cell_length_c	6.6812
_cell_angle_alpha	90
_cell_angle_beta	84.0842
_cell_angle_gamma	90
loop_
_atom_site_label
_atom_site_type_symbol
_atom_site_fract_x
_atom_site_fract_y
_atom_site_fract_z
_atom_site_charge
Mof_Ga	Ga	0.49568	0.25396	0.51928	3.851
Mof_H 	H 	0.78732	0.09372	0.58149	0.05
Mof_H 	H 	0.66881	0.12474	0.55727	-0.02
Mof_H 	H 	0.70824	0.14273	0.94831	0.051
Mof_H 	H 	0.82676	0.11171	0.97252	0.115
Mof_H 	H 	0.28082	0.17689	0.5601	0.008
Mof_H 	H 	0.1632	0.14363	0.52772	0.015
Mof_H 	H 	0.21599	0.06812	0.94732	0.082
Mof_H 	H 	0.33361	0.10139	0.9797	0.034
Mof_C 	C 	0.81687	0.10014	0.27902	-0.053
Mof_C 	C 	0.77083	0.10394	0.44947	-0.096
Mof_C 	C 	0.70174	0.12202	0.43535	0.08
Mof_C 	C 	0.67869	0.13631	0.25078	-0.255
Mof_C 	C 	0.72473	0.13251	0.08033	0.009
Mof_C 	C 	0.79382	0.11442	0.09445	-0.157
Mof_C 	C 	0.89151	0.0806	0.29427	0.41
Mof_C 	C 	0.60405	0.15584	0.23553	0.659
Mof_C 	C 	0.31697	0.1419	0.27259	-0.242
Mof_C 	C 	0.2673	0.15421	0.43233	0.05
Mof_C 	C 	0.19873	0.13482	0.41345	-0.061
Mof_C 	C 	0.17984	0.10312	0.23483	-0.112
Mof_C 	C 	0.22951	0.0908	0.07509	-0.143
Mof_C 	C 	0.29808	0.11019	0.09397	-0
Mof_C 	C 	0.39104	0.16285	0.29299	0.688
Mof_C 	C 	0.10577	0.08217	0.21443	0.431
Mof_O 	O 	0.499	0.189	0.7718	-1.6
Mof_O 	O 	0.9999	0.0636	0.7465	-0.576
Mof_O 	O 	0.91268	0.06603	0.46508	-0.43
Mof_O 	O 	0.93439	0.07842	0.13655	-0.446
Mof_O 	O 	0.56103	0.15703	0.393	-0.927
Mof_O 	O 	0.58303	0.17142	0.06497	-0.877
Mof_O 	O 	0.40855	0.19231	0.45851	-0.962
Mof_O 	O 	0.4371	0.15135	0.14496	-0.994
Mof_O 	O 	0.05926	0.09747	0.35933	-0.652
Mof_O 	O 	0.08871	0.0489	0.05204	-0.669
Mof_H 	H 	0.9999	0.37046	0.2465	0.367
Mof_H 	H 	0.499	0.12306	0.7718	0.386
Mof_Ga	Ga	0.50432	0.75396	0.98072	4.094
Mof_H 	H 	0.21268	0.59372	0.91851	0.103
Mof_H 	H 	0.33119	0.62474	0.94273	0.042
Mof_H 	H 	0.29176	0.64273	0.55169	0.013
Mof_H 	H 	0.17324	0.61171	0.52748	0.051
Mof_H 	H 	0.71918	0.67689	0.9399	0.044
Mof_H 	H 	0.8368	0.64363	0.97228	0.144
Mof_H 	H 	0.78401	0.56812	0.55268	0.08
Mof_H 	H 	0.66639	0.60139	0.5203	-0.013
Mof_C 	C 	0.18313	0.60014	0.22098	-0.119
Mof_C 	C 	0.22917	0.60394	0.05053	-0.109
Mof_C 	C 	0.29826	0.62202	0.06465	0.019
Mof_C 	C 	0.32131	0.63631	0.24922	-0.234
Mof_C 	C 	0.27527	0.63251	0.41967	0.056
Mof_C 	C 	0.20618	0.61442	0.40555	-0.028
Mof_C 	C 	0.10849	0.5806	0.20573	0.564
Mof_C 	C 	0.39595	0.65584	0.26447	0.689
Mof_C 	C 	0.68303	0.6419	0.22741	-0.272
Mof_C 	C 	0.7327	0.65421	0.06767	0.063
Mof_C 	C 	0.80127	0.63482	0.08655	-0.154
Mof_C 	C 	0.82016	0.60312	0.26517	-0.021
Mof_C 	C 	0.77049	0.5908	0.42491	-0.099
Mof_C 	C 	0.70192	0.61019	0.40603	0.119
Mof_C 	C 	0.60896	0.66285	0.20701	0.741
Mof_C 	C 	0.89423	0.58217	0.28557	0.453
Mof_O 	O 	0.501	0.689	0.7282	-1.709
Mof_O 	O 	0.0001	0.5636	0.7535	-1.156
Mof_O 	O 	0.08732	0.56603	0.03492	-0.699
Mof_O 	O 	0.06561	0.57842	0.36345	-0.863
Mof_O 	O 	0.43897	0.65703	0.107	-0.974
Mof_O 	O 	0.41697	0.67142	0.43503	-0.883
Mof_O 	O 	0.59145	0.69231	0.04149	-1.028
Mof_O 	O 	0.5629	0.65135	0.35504	-1.013
Mof_O 	O 	0.94074	0.59747	0.14067	-0.43
Mof_O 	O 	0.91129	0.5489	0.44796	-0.603
Mof_H 	H 	0.0001	0.87046	0.2535	0.158
Mof_H 	H 	0.501	0.62306	0.7282	0.43
Mof_Ga	Ga	0.50432	0.74604	0.48072	3.916
Mof_H 	H 	0.21268	0.90628	0.41851	0.086
Mof_H 	H 	0.33119	0.87526	0.44273	-0.004
Mof_H 	H 	0.29176	0.85727	0.05169	-0.035
Mof_H 	H 	0.17324	0.88829	0.02748	0.034
Mof_H 	H 	0.71918	0.82311	0.4399	-0.007
Mof_H 	H 	0.8368	0.85637	0.47228	0.116
Mof_H 	H 	0.78401	0.93188	0.05268	0.076
Mof_H 	H 	0.66639	0.89861	0.0203	-0.049
Mof_C 	C 	0.18313	0.89986	0.72098	-0.054
Mof_C 	C 	0.22917	0.89606	0.55053	-0.069
Mof_C 	C 	0.29826	0.87798	0.56465	0.126
Mof_C 	C 	0.32131	0.86369	0.74922	-0.271
Mof_C 	C 	0.27527	0.86749	0.91967	0.165
Mof_C 	C 	0.20618	0.88558	0.90555	0.002
Mof_C 	C 	0.10849	0.9194	0.70573	0.452
Mof_C 	C 	0.39595	0.84416	0.76447	0.719
Mof_C 	C 	0.68303	0.8581	0.72741	-0.306
Mof_C 	C 	0.7327	0.84579	0.56767	0.161
Mof_C 	C 	0.80127	0.86518	0.58655	-0.115
Mof_C 	C 	0.82016	0.89688	0.76517	0.031
Mof_C 	C 	0.77049	0.9092	0.92491	-0.071
Mof_C 	C 	0.70192	0.88981	0.90603	0.221
Mof_C 	C 	0.60896	0.83715	0.70701	0.769
Mof_C 	C 	0.89423	0.91783	0.78557	0.365
Mof_O 	O 	0.501	0.811	0.2282	-1.728
Mof_O 	O 	0.0001	0.9364	0.2535	-0.775
Mof_O 	O 	0.08732	0.93397	0.53492	-0.487
Mof_O 	O 	0.06561	0.92158	0.86345	-0.526
Mof_O 	O 	0.43897	0.84297	0.607	-0.914
Mof_O 	O 	0.41697	0.82858	0.93503	-0.873
Mof_O 	O 	0.59145	0.80769	0.54149	-0.97
Mof_O 	O 	0.5629	0.84865	0.85504	-1.004
Mof_O 	O 	0.94074	0.90253	0.64067	-0.255
Mof_O 	O 	0.91129	0.9511	0.94796	-0.281
Mof_H 	H 	0.0001	0.62954	0.7535	0.244
Mof_H 	H 	0.501	0.87694	0.2282	0.447
Mof_Ga	Ga	0.49568	0.24604	0.01928	3.628
Mof_H 	H 	0.78732	0.40628	0.08149	-0.003
Mof_H 	H 	0.66881	0.37526	0.05727	-0.053
Mof_H 	H 	0.70824	0.35727	0.44831	0.012
Mof_H 	H 	0.82676	0.38829	0.47252	0.051
Mof_H 	H 	0.28082	0.32311	0.0601	-0.039
Mof_H 	H 	0.1632	0.35637	0.02772	-0.059
Mof_H 	H 	0.21599	0.43188	0.44732	0.037
Mof_H 	H 	0.33361	0.39861	0.4797	-0
Mof_C 	C 	0.81687	0.39986	0.77902	-0.129
Mof_C 	C 	0.77083	0.39606	0.94947	0.031
Mof_C 	C 	0.70174	0.37798	0.93535	0.132
Mof_C 	C 	0.67869	0.36369	0.75078	-0.248
Mof_C 	C 	0.72473	0.36749	0.58033	0.062
Mof_C 	C 	0.79382	0.38558	0.59445	-0.016
Mof_C 	C 	0.89151	0.4194	0.79427	0.569
Mof_C 	C 	0.60405	0.34416	0.73553	0.674
Mof_C 	C 	0.31697	0.3581	0.77259	-0.242
Mof_C 	C 	0.2673	0.34579	0.93233	0.107
Mof_C 	C 	0.19873	0.36518	0.91345	0.071
Mof_C 	C 	0.17984	0.39688	0.73483	-0.177
Mof_C 	C 	0.22951	0.4092	0.57509	-0.015
Mof_C 	C 	0.29808	0.38981	0.59397	0.063
Mof_C 	C 	0.39104	0.33715	0.79299	0.704
Mof_C 	C 	0.10577	0.41783	0.71443	0.566
Mof_O 	O 	0.499	0.311	0.2718	-1.626
Mof_O 	O 	0.9999	0.4364	0.2465	-0.85
Mof_O 	O 	0.91268	0.43397	0.96508	-0.48
Mof_O 	O 	0.93439	0.42158	0.63655	-0.635
Mof_O 	O 	0.56103	0.34297	0.893	-0.853
Mof_O 	O 	0.58303	0.32858	0.56497	-0.865
Mof_O 	O 	0.40855	0.30769	0.95851	-0.888
Mof_O 	O 	0.4371	0.34865	0.64496	-0.984
Mof_O 	O 	0.05926	0.40253	0.85933	-0.714
Mof_O 	O 	0.08871	0.4511	0.55204	-0.809
Mof_H 	H 	0.9999	0.12954	0.7465	0.335
Mof_H 	H 	0.499	0.37694	0.2718	0.399
Mof_Ga	Ga	-0	0	-0	1.479
Mof_Ga	Ga	-3.66473e-18	0.5	0.5	2.706
Mof_Ga	Ga	-3.66473e-18	1.62747e-33	0.5	1.462
Mof_Ga	Ga	3.25493e-33	0.5	-0	1.991
_end
