data_functionalizedCrystal
_audit_creation_method	'EQeq! by Chris Wilmer'
_symmetry_space_group_name_H-M	'P1'
_symmetry_Int_Tables_number	1
_symmetry_cell_setting	triclinic
loop_
_symmetry_equiv_pos_as_xyz
  x,y,z
_cell_length_a	15.6929
_cell_length_b	15.6929
_cell_length_c	15.6929
_cell_angle_alpha	109.471
_cell_angle_beta	109.471
_cell_angle_gamma	109.471
loop_
_atom_site_label
_atom_site_type_symbol
_atom_site_fract_x
_atom_site_fract_y
_atom_site_fract_z
_atom_site_charge
Mof_Cd	Cd	0.75	0.5	0.25	0.347
Mof_Cd	Cd	0.25	0.5	0.75	0.347
Mof_Cd	Cd	0.25	0.75	0.5	0.348
Mof_Cd	Cd	0.75	0.25	0.5	0.348
Mof_Cd	Cd	0.5	0.75	0.25	0.349
Mof_Cd	Cd	0.5	0.25	0.75	0.348
Mof_H 	H 	0.58496	0.48887	0.35744	0.017
Mof_H 	H 	0.13143	0.22752	0.64256	0.016
Mof_H 	H 	0.86857	0.51113	0.09608	0.017
Mof_H 	H 	0.41504	0.77248	0.90391	0.017
Mof_H 	H 	0.09608	0.86857	0.51113	0.017
Mof_H 	H 	0.90391	0.41504	0.77248	0.017
Mof_H 	H 	0.35744	0.58496	0.48887	0.017
Mof_H 	H 	0.64256	0.13143	0.22752	0.016
Mof_H 	H 	0.22752	0.64256	0.13143	0.017
Mof_H 	H 	0.48887	0.35744	0.58496	0.017
Mof_H 	H 	0.77248	0.90391	0.41504	0.017
Mof_H 	H 	0.51113	0.09608	0.86857	0.016
Mof_H 	H 	0.22752	0.13143	0.64256	0.016
Mof_H 	H 	0.48887	0.58496	0.35744	0.017
Mof_H 	H 	0.77248	0.41504	0.90391	0.017
Mof_H 	H 	0.51113	0.86857	0.09608	0.017
Mof_H 	H 	0.58496	0.35744	0.48887	0.017
Mof_H 	H 	0.13143	0.64256	0.22752	0.016
Mof_H 	H 	0.86857	0.09608	0.51113	0.018
Mof_H 	H 	0.41504	0.90391	0.77248	0.016
Mof_H 	H 	0.09608	0.51113	0.86857	0.017
Mof_H 	H 	0.90391	0.77248	0.41504	0.017
Mof_H 	H 	0.35744	0.48887	0.58496	0.016
Mof_H 	H 	0.64256	0.22752	0.13143	0.017
Mof_C 	C 	0.5932	0.5416	0.3218	0.003
Mof_C 	C 	0.2198	0.2714	0.6782	0.002
Mof_C 	C 	0.7802	0.4584	0.0516	0.008
Mof_C 	C 	0.4068	0.7286	0.9484	-0.001
Mof_C 	C 	0.0516	0.7802	0.4584	0.001
Mof_C 	C 	0.9484	0.4068	0.7286	0.005
Mof_C 	C 	0.3218	0.5932	0.5416	0.003
Mof_C 	C 	0.6782	0.2198	0.2714	0.003
Mof_C 	C 	0.2714	0.6782	0.2198	0.003
Mof_C 	C 	0.5416	0.3218	0.5932	0.003
Mof_C 	C 	0.7286	0.9484	0.4068	0.006
Mof_C 	C 	0.4584	0.0516	0.7802	0.001
Mof_C 	C 	0.2714	0.2198	0.6782	0.003
Mof_C 	C 	0.5416	0.5932	0.3218	0.003
Mof_C 	C 	0.7286	0.4068	0.9484	-0.002
Mof_C 	C 	0.4584	0.7802	0.0516	0.007
Mof_C 	C 	0.5932	0.3218	0.5416	0.003
Mof_C 	C 	0.2198	0.6782	0.2714	0.003
Mof_C 	C 	0.7802	0.0516	0.4584	0.001
Mof_C 	C 	0.4068	0.9484	0.7286	0.005
Mof_C 	C 	0.0516	0.4584	0.7802	0.001
Mof_C 	C 	0.9484	0.7286	0.4068	0.005
Mof_C 	C 	0.3218	0.5416	0.5932	0.003
Mof_C 	C 	0.6782	0.2714	0.2198	0.003
Mof_C 	C 	0.6722	0.6722	0.1902	-0.203
Mof_C 	C 	0.6241	0.6241	0.2478	0.159
Mof_C 	C 	0.482	0.482	0.8098	-0.203
Mof_C 	C 	0.3763	0.3763	0.7522	0.159
Mof_C 	C 	0.518	0.3278	-0	-0.195
Mof_C 	C 	0.6237	0.3759	-0	0.161
Mof_C 	C 	0.3278	0.518	-0	-0.199
Mof_C 	C 	0.3759	0.6237	-0	0.161
Mof_C 	C 	-2.86603e-17	0.518	0.3278	-0.204
Mof_C 	C 	-5.73205e-17	0.6237	0.3759	0.157
Mof_C 	C 	-3.82137e-17	0.3278	0.518	-0.203
Mof_C 	C 	-1.91068e-17	0.3759	0.6237	0.157
Mof_C 	C 	0.1902	0.6722	0.6722	-0.203
Mof_C 	C 	0.2478	0.6241	0.6241	0.158
Mof_C 	C 	0.8098	0.482	0.482	-0.203
Mof_C 	C 	0.7522	0.3763	0.3763	0.159
Mof_C 	C 	0.482	0.8098	0.482	-0.203
Mof_C 	C 	0.3763	0.7522	0.3763	0.159
Mof_C 	C 	0.6722	0.1902	0.6722	-0.202
Mof_C 	C 	0.6241	0.2478	0.6241	0.158
Mof_C 	C 	0.518	1.91068e-17	0.3278	-0.204
Mof_C 	C 	0.6237	3.82137e-17	0.3759	0.158
Mof_C 	C 	0.3278	3.82137e-17	0.518	-0.204
Mof_C 	C 	0.3759	-3.82137e-17	0.6237	0.157
Mof_N 	N 	0.6502	0.5645	0.2751	-0.175
Mof_N 	N 	0.2894	0.3751	0.7249	-0.175
Mof_N 	N 	0.7106	0.4355	0.0857	-0.176
Mof_N 	N 	0.3498	0.6249	0.9143	-0.176
Mof_N 	N 	0.0857	0.7106	0.4355	-0.175
Mof_N 	N 	0.9143	0.3498	0.6249	-0.175
Mof_N 	N 	0.2751	0.6502	0.5645	-0.175
Mof_N 	N 	0.7249	0.2894	0.3751	-0.175
Mof_N 	N 	0.3751	0.7249	0.2894	-0.175
Mof_N 	N 	0.5645	0.2751	0.6502	-0.175
Mof_N 	N 	0.6249	0.9143	0.3498	-0.175
Mof_N 	N 	0.4355	0.0857	0.7106	-0.175
Mof_N 	N 	0.3751	0.2894	0.7249	-0.175
Mof_N 	N 	0.5645	0.6502	0.2751	-0.175
Mof_N 	N 	0.6249	0.3498	0.9143	-0.176
Mof_N 	N 	0.4355	0.7106	0.0857	-0.176
Mof_N 	N 	0.6502	0.2751	0.5645	-0.175
Mof_N 	N 	0.2894	0.7249	0.3751	-0.175
Mof_N 	N 	0.7106	0.0857	0.4355	-0.175
Mof_N 	N 	0.3498	0.9143	0.6249	-0.175
Mof_N 	N 	0.0857	0.4355	0.7106	-0.175
Mof_N 	N 	0.9143	0.6249	0.3498	-0.175
Mof_N 	N 	0.2751	0.5645	0.6502	-0.175
Mof_N 	N 	0.7249	0.3751	0.2894	-0.175
Mof_H 	H 	0.61485	0.68724	0.13888	0.061
Mof_H 	H 	0.68816	0.61527	0.13964	0.061
Mof_H 	H 	0.74837	0.74886	0.25044	0.061
Mof_H 	H 	0.48895	0.50787	0.75146	0.06
Mof_H 	H 	0.5503	0.47007	0.84532	0.06
Mof_H 	H 	0.48316	0.54448	0.87426	0.06
Mof_H 	H 	0.49686	0.24692	0.99019	0.056
Mof_H 	H 	0.45335	0.32135	0.93276	0.057
Mof_H 	H 	0.52738	0.38036	0.07705	0.059
Mof_H 	H 	0.39332	0.50548	0.04202	0.061
Mof_H 	H 	0.27434	0.45058	0.91612	0.057
Mof_H 	H 	0.28097	0.52152	0.04186	0.06
Mof_H 	H 	0.02204	0.51253	0.26468	0.061
Mof_H 	H 	0.91889	0.4496	0.29217	0.061
Mof_H 	H 	0.05907	0.51546	0.39177	0.061
Mof_H 	H 	0.04896	0.39333	0.50945	0.06
Mof_H 	H 	0.91653	0.28093	0.44987	0.061
Mof_H 	H 	0.03451	0.27437	0.51826	0.06
Mof_H 	H 	0.13424	0.61246	0.68152	0.06
Mof_H 	H 	0.14451	0.69386	0.61809	0.06
Mof_H 	H 	0.25021	0.74505	0.75177	0.06
Mof_H 	H 	0.85549	0.54935	0.47358	0.061
Mof_H 	H 	0.86576	0.47823	0.54728	0.061
Mof_H 	H 	0.74979	0.49484	0.50156	0.061
Mof_H 	H 	0.54665	0.868	0.47941	0.061
Mof_H 	H 	0.50314	0.75006	0.49333	0.061
Mof_H 	H 	0.47262	0.85298	0.54967	0.06
Mof_H 	H 	0.72567	0.17624	0.64178	0.059
Mof_H 	H 	0.60668	0.11216	0.64869	0.06
Mof_H 	H 	0.71903	0.24055	0.7609	0.06
Mof_H 	H 	0.4497	0.91977	0.29502	0.061
Mof_H 	H 	0.51105	0.01891	0.26251	0.061
Mof_H 	H 	0.51684	0.06132	0.3911	0.061
Mof_H 	H 	0.31184	0.92711	0.45148	0.062
Mof_H 	H 	0.38515	0.07239	0.52403	0.06
Mof_H 	H 	0.25163	0.0005	0.50208	0.06
_end
