data_functionalizedCrystal
_audit_creation_method	'EQeq! by Chris Wilmer'
_symmetry_space_group_name_H-M	'P1'
_symmetry_Int_Tables_number	1
_symmetry_cell_setting	triclinic
loop_
_symmetry_equiv_pos_as_xyz
  x,y,z
_cell_length_a	17.764
_cell_length_b	17.764
_cell_length_c	15.355
_cell_angle_alpha	90
_cell_angle_beta	90
_cell_angle_gamma	90
loop_
_atom_site_label
_atom_site_type_symbol
_atom_site_fract_x
_atom_site_fract_y
_atom_site_fract_z
_atom_site_charge
Mof_C 	C 	0.3277	0.5002	0.1125	0.506
Mof_C 	C 	0.7831	0.9168	0.436	-0.415
Mof_H 	H 	0.7448	0.8999	0.3961	0.14
Mof_H 	H 	0.7665	0.9089	0.4945	0.145
Mof_H 	H 	0.8285	0.8889	0.4257	0.14
Mof_O 	O 	0.6344	0.0375	0.4071	-0.528
Mof_O 	O 	0.9908	0.91	0.1345	-0.618
Mof_Ho	Ho	0.9716	0.48908	0.13841	2.134
Mof_O 	O 	0.07	0.4876	0.0217	-0.687
Mof_O 	O 	0.9309	0.0087	0.3834	-0.622
Mof_O 	O 	0.364	0.4934	0.0437	-0.554
Mof_C 	C 	0.995	0.6412	0.1991	0.412
Mof_C 	C 	0.1217	0.4968	0.0783	0.476
Mof_O 	O 	0.9851	0.624	0.1212	-0.476
Mof_O 	O 	0.64	0.0083	0.5491	-0.574
Mof_C 	C 	0.9896	0.8593	0.1907	0.411
Mof_O 	O 	0.9977	0.5887	0.2565	-0.622
Mof_C 	C 	0.9976	0.7217	0.2299	-0.083
Mof_C 	C 	0.994	0.7772	0.162	-0.097
Mof_O 	O 	0.3575	0.5168	0.1852	-0.585
Mof_O 	O 	0.9017	0.0252	0.5193	-0.475
Mof_C 	C 	0.7983	0.002	0.4208	-0.039
Mof_H 	H 	0.7882	0.0159	0.3601	0.044
Mof_C 	C 	0.8812	0.0102	0.4413	0.397
Mof_C 	C 	0.671	0.0262	0.4791	0.465
Mof_C 	C 	0.1999	0.4839	0.0523	-0.267
Mof_H 	H 	0.2123	0.5013	0.9935	0.158
Mof_C 	C 	0.7526	0.0491	0.4816	-0.118
Mof_H 	H 	0.771	0.0391	0.5406	0.091
Mof_C 	C 	0.7674	0.1325	0.462	-0.329
Mof_H 	H 	0.7622	0.1415	0.4009	0.121
Mof_H 	H 	0.8174	0.1455	0.4805	0.127
Mof_H 	H 	0.7316	0.1629	0.4934	0.121
Mof_O 	O 	0.995	0.8763	0.2697	-0.457
Mof_O 	O 	0.1003	0.4901	0.1566	-0.509
Mof_C 	C 	0.2464	0.514	0.1195	-0.17
Mof_H 	H 	0.2262	0.5074	0.1783	0.11
Mof_C 	C 	0.6723	0.4998	0.6125	0.529
Mof_C 	C 	0.2169	0.0832	0.936	-0.37
Mof_H 	H 	0.2552	0.1001	0.8961	0.132
Mof_H 	H 	0.2335	0.0911	0.9945	0.156
Mof_H 	H 	0.1715	0.1111	0.9257	0.138
Mof_O 	O 	0.3656	0.9625	0.9071	-0.528
Mof_O 	O 	0.0092	0.09	0.6345	-0.632
Mof_Ho	Ho	0.0284	0.51092	0.63841	2.144
Mof_O 	O 	0.93	0.5124	0.5217	-0.639
Mof_O 	O 	0.0691	0.9913	0.8834	-0.628
Mof_O 	O 	0.636	0.5066	0.5437	-0.552
Mof_C 	C 	0.005	0.3588	0.6991	0.416
Mof_C 	C 	0.8783	0.5032	0.5783	0.438
Mof_O 	O 	0.0149	0.376	0.6212	-0.459
Mof_O 	O 	0.36	0.9917	0.0491	-0.616
Mof_C 	C 	0.0104	0.1407	0.6907	0.42
Mof_O 	O 	0.0023	0.4113	0.7565	-0.629
Mof_C 	C 	0.0024	0.2783	0.7299	-0.081
Mof_C 	C 	0.006	0.2228	0.662	-0.08
Mof_O 	O 	0.6425	0.4832	0.6852	-0.591
Mof_O 	O 	0.0983	0.9748	0.0193	-0.521
Mof_C 	C 	0.2017	0.998	0.9208	-0.118
Mof_H 	H 	0.2118	0.9841	0.8601	0.065
Mof_C 	C 	0.1188	0.9898	0.9413	0.482
Mof_C 	C 	0.329	0.9738	0.9791	0.489
Mof_C 	C 	0.8001	0.5161	0.5523	-0.14
Mof_H 	H 	0.7877	0.4987	0.4935	0.075
Mof_C 	C 	0.2474	0.9509	0.9816	0.034
Mof_H 	H 	0.229	0.9609	0.0406	0.004
Mof_C 	C 	0.2326	0.8675	0.962	-0.491
Mof_H 	H 	0.2378	0.8585	0.9009	0.17
Mof_H 	H 	0.1826	0.8545	0.9805	0.193
Mof_H 	H 	0.2684	0.8371	0.9934	0.187
Mof_O 	O 	0.005	0.1237	0.7697	-0.46
Mof_O 	O 	0.8997	0.5099	0.6566	-0.496
Mof_C 	C 	0.7536	0.486	0.6195	-0.206
Mof_H 	H 	0.7738	0.4926	0.6783	0.124
Mof_C 	C 	0.9998	0.8277	0.8625	0.519
Mof_C 	C 	0.5832	0.2831	0.186	-0.417
Mof_H 	H 	0.6001	0.2448	0.1461	0.136
Mof_H 	H 	0.5911	0.2665	0.2445	0.146
Mof_H 	H 	0.6111	0.3285	0.1757	0.137
Mof_O 	O 	0.4625	0.1344	0.1571	-0.53
Mof_O 	O 	0.59	0.4908	0.8845	-0.629
Mof_Ho	Ho	0.01092	0.4716	0.88841	2.213
Mof_O 	O 	0.0124	0.57	0.7717	-0.645
Mof_O 	O 	0.4913	0.4309	0.1334	-0.609
Mof_O 	O 	0.0066	0.864	0.7937	-0.55
Mof_C 	C 	0.8588	0.495	0.9491	0.498
Mof_C 	C 	0.0032	0.6217	0.8283	0.441
Mof_O 	O 	0.876	0.4851	0.8712	-0.472
Mof_O 	O 	0.4917	0.14	0.2991	-0.575
Mof_C 	C 	0.6407	0.4896	0.9407	0.513
Mof_O 	O 	0.9113	0.4977	0.0065	-0.706
Mof_C 	C 	0.7783	0.4976	0.9799	-0.046
Mof_C 	C 	0.7228	0.494	0.912	-0.091
Mof_O 	O 	0.9832	0.8575	0.9352	-0.527
Mof_O 	O 	0.4748	0.4017	0.2693	-0.474
Mof_C 	C 	0.498	0.2983	0.1708	-0.03
Mof_H 	H 	0.4841	0.2882	0.1101	0.033
Mof_C 	C 	0.4898	0.3812	0.1913	0.384
Mof_C 	C 	0.4738	0.171	0.2291	0.469
Mof_C 	C 	0.0161	0.6999	0.8023	-0.159
Mof_H 	H 	0.9987	0.7123	0.7435	0.088
Mof_C 	C 	0.4509	0.2526	0.2316	-0.133
Mof_H 	H 	0.4609	0.271	0.2906	0.094
Mof_C 	C 	0.3675	0.2674	0.212	-0.299
Mof_H 	H 	0.3585	0.2622	0.1509	0.103
Mof_H 	H 	0.3545	0.3174	0.2305	0.115
Mof_H 	H 	0.3371	0.2316	0.2434	0.108
Mof_O 	O 	0.6237	0.495	0.0197	-0.523
Mof_O 	O 	0.0099	0.6003	0.9066	-0.487
Mof_C 	C 	0.986	0.7464	0.8695	-0.185
Mof_H 	H 	0.9926	0.7262	0.9283	0.135
Mof_C 	C 	0.0002	0.1723	0.3625	0.527
Mof_C 	C 	0.4168	0.7169	0.686	-0.417
Mof_H 	H 	0.3999	0.7552	0.6461	0.142
Mof_H 	H 	0.4089	0.7335	0.7445	0.148
Mof_H 	H 	0.3889	0.6715	0.6757	0.141
Mof_O 	O 	0.5375	0.8656	0.6571	-0.528
Mof_O 	O 	0.41	0.5092	0.3845	-0.63
Mof_Ho	Ho	0.98908	0.5284	0.38841	2.153
Mof_O 	O 	0.9876	0.43	0.2717	-0.64
Mof_O 	O 	0.5087	0.5691	0.6334	-0.626
Mof_O 	O 	0.9934	0.136	0.2937	-0.548
Mof_C 	C 	0.1412	0.505	0.4491	0.412
Mof_C 	C 	0.9968	0.3783	0.3283	0.438
Mof_O 	O 	0.124	0.5149	0.3712	-0.458
Mof_O 	O 	0.5083	0.86	0.7991	-0.569
Mof_C 	C 	0.3593	0.5104	0.4407	0.419
Mof_O 	O 	0.0887	0.5023	0.5065	-0.621
Mof_C 	C 	0.2217	0.5024	0.4799	-0.081
Mof_C 	C 	0.2772	0.506	0.412	-0.08
Mof_O 	O 	0.0168	0.1425	0.4352	-0.59
Mof_O 	O 	0.5252	0.5983	0.7693	-0.475
Mof_C 	C 	0.502	0.7017	0.6708	-0.039
Mof_H 	H 	0.5159	0.7118	0.6101	0.044
Mof_C 	C 	0.5102	0.6188	0.6913	0.397
Mof_C 	C 	0.5262	0.829	0.7291	0.465
Mof_C 	C 	0.9839	0.3001	0.3023	-0.14
Mof_H 	H 	0.0013	0.2877	0.2435	0.078
Mof_C 	C 	0.5491	0.7474	0.7316	-0.117
Mof_H 	H 	0.5391	0.729	0.7906	0.095
Mof_C 	C 	0.6325	0.7326	0.712	-0.333
Mof_H 	H 	0.6415	0.7378	0.6509	0.123
Mof_H 	H 	0.6455	0.6826	0.7305	0.13
Mof_H 	H 	0.6629	0.7684	0.7434	0.126
Mof_O 	O 	0.3763	0.505	0.5197	-0.46
Mof_O 	O 	0.9901	0.3997	0.4066	-0.498
Mof_C 	C 	0.014	0.2536	0.3695	-0.206
Mof_H 	H 	0.0074	0.2738	0.4283	0.122
Mof_C 	C 	0.1723	0.0002	0.6375	0.527
Mof_C 	C 	0.7169	0.4168	0.314	-0.408
Mof_H 	H 	0.7552	0.3999	0.3539	0.139
Mof_H 	H 	0.7335	0.4089	0.2555	0.141
Mof_H 	H 	0.6715	0.3889	0.3243	0.138
Mof_O 	O 	0.8656	0.5375	0.3429	-0.528
Mof_O 	O 	0.5092	0.41	0.6155	-0.632
Mof_Ho	Ho	0.5284	0.98908	0.61159	2.15
Mof_O 	O 	0.43	0.9876	0.7283	-0.642
Mof_O 	O 	0.5691	0.5087	0.3666	-0.625
Mof_O 	O 	0.136	0.9934	0.7063	-0.551
Mof_C 	C 	0.505	0.1412	0.5509	0.412
Mof_C 	C 	0.3783	0.9968	0.6717	0.439
Mof_O 	O 	0.5149	0.124	0.6288	-0.457
Mof_O 	O 	0.86	0.5083	0.2009	-0.58
Mof_C 	C 	0.5104	0.3593	0.5593	0.42
Mof_O 	O 	0.5023	0.0887	0.4935	-0.621
Mof_C 	C 	0.5024	0.2217	0.5201	-0.081
Mof_C 	C 	0.506	0.2772	0.588	-0.079
Mof_O 	O 	0.1425	0.0168	0.5648	-0.59
Mof_O 	O 	0.5983	0.5252	0.2307	-0.48
Mof_C 	C 	0.7017	0.502	0.3292	-0.043
Mof_H 	H 	0.7118	0.5159	0.3899	0.046
Mof_C 	C 	0.6188	0.5102	0.3087	0.399
Mof_C 	C 	0.829	0.5262	0.2709	0.464
Mof_C 	C 	0.3001	0.9839	0.6977	-0.141
Mof_H 	H 	0.2877	0.0013	0.7565	0.075
Mof_C 	C 	0.7474	0.5491	0.2684	-0.119
Mof_H 	H 	0.729	0.5391	0.2094	0.084
Mof_C 	C 	0.7326	0.6325	0.288	-0.321
Mof_H 	H 	0.7378	0.6415	0.3491	0.118
Mof_H 	H 	0.6826	0.6455	0.2695	0.121
Mof_H 	H 	0.7684	0.6629	0.2566	0.113
Mof_O 	O 	0.505	0.3763	0.4803	-0.46
Mof_O 	O 	0.3997	0.9901	0.5934	-0.5
Mof_C 	C 	0.2536	0.014	0.6305	-0.206
Mof_H 	H 	0.2738	0.0074	0.5717	0.122
Mof_C 	C 	0.8277	0.9998	0.1375	0.52
Mof_C 	C 	0.2831	0.5832	0.814	-0.425
Mof_H 	H 	0.2448	0.6001	0.8539	0.15
Mof_H 	H 	0.2665	0.5911	0.7555	0.149
Mof_H 	H 	0.3285	0.6111	0.8243	0.149
Mof_O 	O 	0.1344	0.4625	0.8429	-0.525
Mof_O 	O 	0.4908	0.59	0.1155	-0.599
Mof_Ho	Ho	0.4716	0.01092	0.11159	2.053
Mof_O 	O 	0.57	0.0124	0.2283	-0.637
Mof_O 	O 	0.4309	0.4913	0.8666	-0.585
Mof_O 	O 	0.864	0.0066	0.2063	-0.548
Mof_C 	C 	0.495	0.8588	0.0509	0.339
Mof_C 	C 	0.6217	0.0032	0.1717	0.443
Mof_O 	O 	0.4851	0.876	0.1288	-0.439
Mof_O 	O 	0.14	0.4917	0.7009	-0.574
Mof_C 	C 	0.4896	0.6407	0.0593	0.324
Mof_O 	O 	0.4977	0.9113	0.9935	-0.544
Mof_C 	C 	0.4976	0.7783	0.0201	-0.115
Mof_C 	C 	0.494	0.7228	0.088	-0.066
Mof_O 	O 	0.8575	0.9832	0.0648	-0.584
Mof_O 	O 	0.4017	0.4748	0.7307	-0.477
Mof_C 	C 	0.2983	0.498	0.8292	-0.035
Mof_H 	H 	0.2882	0.4841	0.8899	0.054
Mof_C 	C 	0.3812	0.4898	0.8087	0.388
Mof_C 	C 	0.171	0.4738	0.7709	0.463
Mof_C 	C 	0.6999	0.0161	0.1977	-0.152
Mof_H 	H 	0.7123	0.9987	0.2565	0.08
Mof_C 	C 	0.2526	0.4509	0.7684	-0.11
Mof_H 	H 	0.271	0.4609	0.7094	0.087
Mof_C 	C 	0.2674	0.3675	0.788	-0.347
Mof_H 	H 	0.2622	0.3585	0.8491	0.136
Mof_H 	H 	0.3174	0.3545	0.7695	0.134
Mof_H 	H 	0.2316	0.3371	0.7566	0.127
Mof_O 	O 	0.495	0.6237	0.9803	-0.356
Mof_O 	O 	0.6003	0.0099	0.0934	-0.518
Mof_C 	C 	0.7464	0.986	0.1305	-0.201
Mof_H 	H 	0.7262	0.9926	0.0717	0.107
Mof_C 	C 	0.5002	0.3277	0.8875	0.534
Mof_C 	C 	0.9168	0.7831	0.564	-0.409
Mof_H 	H 	0.8999	0.7448	0.6039	0.141
Mof_H 	H 	0.9089	0.7665	0.5055	0.144
Mof_H 	H 	0.8889	0.8285	0.5743	0.139
Mof_O 	O 	0.0375	0.6344	0.5929	-0.528
Mof_O 	O 	0.91	0.9908	0.8655	-0.586
Mof_Ho	Ho	0.48908	0.9716	0.86159	2.156
Mof_O 	O 	0.4876	0.07	0.9783	-0.582
Mof_O 	O 	0.0087	0.9309	0.6166	-0.626
Mof_O 	O 	0.4934	0.364	0.9563	-0.492
Mof_C 	C 	0.6412	0.995	0.8009	0.414
Mof_C 	C 	0.4968	0.1217	0.9217	0.397
Mof_O 	O 	0.624	0.9851	0.8788	-0.441
Mof_O 	O 	0.0083	0.64	0.4509	-0.575
Mof_C 	C 	0.8593	0.9896	0.8093	0.406
Mof_O 	O 	0.5887	0.9977	0.7435	-0.621
Mof_C 	C 	0.7217	0.9976	0.7701	-0.082
Mof_C 	C 	0.7772	0.994	0.838	-0.051
Mof_O 	O 	0.5168	0.3575	0.8148	-0.586
Mof_O 	O 	0.0252	0.9017	0.4807	-0.477
Mof_C 	C 	0.002	0.7983	0.5792	-0.043
Mof_H 	H 	0.0159	0.7882	0.6399	0.044
Mof_C 	C 	0.0102	0.8812	0.5587	0.399
Mof_C 	C 	0.0262	0.671	0.5209	0.464
Mof_C 	C 	0.4839	0.1999	0.9477	-0.003
Mof_H 	H 	0.5013	0.2123	0.0065	-0.015
Mof_C 	C 	0.0491	0.7526	0.5184	-0.118
Mof_H 	H 	0.0391	0.771	0.4594	0.089
Mof_C 	C 	0.1325	0.7674	0.538	-0.327
Mof_H 	H 	0.1415	0.7622	0.5991	0.12
Mof_H 	H 	0.1455	0.8174	0.5195	0.125
Mof_H 	H 	0.1629	0.7316	0.5066	0.118
Mof_O 	O 	0.8763	0.995	0.7303	-0.452
Mof_O 	O 	0.4901	0.1003	0.8434	-0.487
Mof_C 	C 	0.514	0.2464	0.8805	-0.235
Mof_H 	H 	0.5074	0.2262	0.8217	0.133
Mof_C 	C 	0.4998	0.6723	0.3875	0.528
Mof_C 	C 	0.0832	0.2169	0.064	-0.479
Mof_H 	H 	0.1001	0.2552	0.1039	0.157
Mof_H 	H 	0.0911	0.2335	0.0055	0.14
Mof_H 	H 	0.1111	0.1715	0.0743	0.148
Mof_O 	O 	0.9625	0.3656	0.0929	-0.526
Mof_O 	O 	0.09	0.0092	0.3655	-0.631
Mof_Ho	Ho	0.51092	0.0284	0.36159	2.149
Mof_O 	O 	0.5124	0.93	0.4783	-0.641
Mof_O 	O 	0.9913	0.0691	0.1166	-0.583
Mof_O 	O 	0.5066	0.636	0.4563	-0.552
Mof_C 	C 	0.3588	0.005	0.3009	0.408
Mof_C 	C 	0.5032	0.8783	0.4217	0.438
Mof_O 	O 	0.376	0.0149	0.3788	-0.457
Mof_O 	O 	0.9917	0.36	0.9509	-0.509
Mof_C 	C 	0.1407	0.0104	0.3093	0.419
Mof_O 	O 	0.4113	0.0023	0.2435	-0.612
Mof_C 	C 	0.2783	0.0024	0.2701	-0.085
Mof_C 	C 	0.2228	0.006	0.338	-0.08
Mof_O 	O 	0.4832	0.6425	0.3148	-0.591
Mof_O 	O 	0.9748	0.0983	0.9807	-0.353
Mof_C 	C 	0.998	0.2017	0.0792	0.067
Mof_H 	H 	0.9841	0.2118	0.1399	0.016
Mof_C 	C 	0.9898	0.1188	0.0587	0.267
Mof_C 	C 	0.9738	0.329	0.0209	0.432
Mof_C 	C 	0.5161	0.8001	0.4477	-0.141
Mof_H 	H 	0.4987	0.7877	0.5065	0.075
Mof_C 	C 	0.9509	0.2474	0.0184	-0.32
Mof_H 	H 	0.9609	0.229	0.9594	0.204
Mof_C 	C 	0.8675	0.2326	0.038	-0.115
Mof_H 	H 	0.8585	0.2378	0.0991	0.057
Mof_H 	H 	0.8545	0.1826	0.0195	0.041
Mof_H 	H 	0.8371	0.2684	0.0066	0.034
Mof_O 	O 	0.1237	0.005	0.2303	-0.462
Mof_O 	O 	0.5099	0.8997	0.3434	-0.5
Mof_C 	C 	0.486	0.7536	0.3805	-0.207
Mof_H 	H 	0.4926	0.7738	0.3217	0.121
Mof_Ho	Ho	0.0316	0.0316	0.5	2.169
Mof_Ho	Ho	0.9684	0.9684	-0	1.962
Mof_Ho	Ho	0.4684	0.5316	0.25	2.165
Mof_Ho	Ho	0.5316	0.4684	0.75	2.188
Mof_Ho	Ho	0.98919	0.01081	0.25	2.088
Mof_Ho	Ho	0.01081	0.98919	0.75	2.099
Mof_Ho	Ho	0.48919	0.48919	-0	1.9
Mof_Ho	Ho	0.51081	0.51081	0.5	2.094
_end
