# CIF file generated by openbabel 3.1.0, see https://openbabel.org
data_I
_chemical_name_common 'image0'
_cell_length_a 17.995
_cell_length_b 15.57
_cell_length_c 12.36
_cell_angle_alpha 90
_cell_angle_beta 92.6
_cell_angle_gamma 90
_space_group_name_H-M_alt 'P 1'
_space_group_name_Hall 'P 1'
loop_
    _symmetry_equiv_pos_as_xyz
    x,y,z
loop_
    _atom_site_label
    _atom_site_type_symbol
    _atom_site_fract_x
    _atom_site_fract_y
    _atom_site_fract_z
    _atom_site_occupancy
    Sn1      Sn       0.72490    0.53900    0.29970    1.000
    C1       C        0.76810    0.35830    0.43720    1.000
    C2       C        0.65740    0.25090    0.41900    1.000
    C3       C        0.79220    0.19150    0.38220    1.000
    C4       C        0.80130    0.62610    0.38090    1.000
    C5       C        0.61760    0.51800    0.36340    1.000
    C6       C        0.74360    0.47250    0.15270    1.000
    C7       C        0.56390    0.33040    0.13890    1.000
    N1       N        0.77620    0.42540    0.39640    1.000
    N2       N        0.60230    0.25520    0.36860    1.000
    N3       N        0.81550    0.15620    0.30910    1.000
    Sn2      Sn       0.22490    0.03900    0.29970    1.000
    C8       C        0.26810    0.85830    0.43720    1.000
    C9       C        0.15740    0.75090    0.41900    1.000
    C10      C        0.29220    0.69150    0.38220    1.000
    C11      C        0.30130    0.12610    0.38090    1.000
    C12      C        0.11760    0.01800    0.36340    1.000
    C13      C        0.24360    0.97250    0.15270    1.000
    C14      C        0.06390    0.83040    0.13890    1.000
    N4       N        0.27620    0.92540    0.39640    1.000
    N5       N        0.10230    0.75520    0.36860    1.000
    N6       N        0.31550    0.65620    0.30910    1.000
    Sn3      Sn       0.27510    0.53900    0.20030    1.000
    C15      C        0.23190    0.35830    0.06280    1.000
    C16      C        0.34260    0.25090    0.08100    1.000
    C17      C        0.20780    0.19150    0.11780    1.000
    C18      C        0.19870    0.62610    0.11910    1.000
    C19      C        0.38240    0.51800    0.13660    1.000
    C20      C        0.25640    0.47250    0.34730    1.000
    C21      C        0.43610    0.33040    0.36110    1.000
    N7       N        0.22380    0.42540    0.10360    1.000
    N8       N        0.39770    0.25520    0.13140    1.000
    N9       N        0.18450    0.15620    0.19090    1.000
    Sn4      Sn       0.77510    0.03900    0.20030    1.000
    C22      C        0.73190    0.85830    0.06280    1.000
    C23      C        0.84260    0.75090    0.08100    1.000
    C24      C        0.70780    0.69150    0.11780    1.000
    C25      C        0.69870    0.12610    0.11910    1.000
    C26      C        0.88240    0.01800    0.13660    1.000
    C27      C        0.75640    0.97250    0.34730    1.000
    C28      C        0.93610    0.83040    0.36110    1.000
    N10      N        0.72380    0.92540    0.10360    1.000
    N11      N        0.89770    0.75520    0.13140    1.000
    N12      N        0.68450    0.65620    0.19090    1.000
    Sn5      Sn       0.27510    0.46100    0.70030    1.000
    C29      C        0.23190    0.64170    0.56280    1.000
    C30      C        0.34260    0.74910    0.58100    1.000
    C31      C        0.20780    0.80850    0.61780    1.000
    C32      C        0.19870    0.37390    0.61910    1.000
    C33      C        0.38240    0.48200    0.63660    1.000
    C34      C        0.25640    0.52750    0.84730    1.000
    C35      C        0.43610    0.66960    0.86110    1.000
    N13      N        0.22380    0.57460    0.60360    1.000
    N14      N        0.39770    0.74480    0.63140    1.000
    N15      N        0.18450    0.84380    0.69090    1.000
    Sn6      Sn       0.77510    0.96100    0.70030    1.000
    C36      C        0.73190    0.14170    0.56280    1.000
    C37      C        0.84260    0.24910    0.58100    1.000
    C38      C        0.70780    0.30850    0.61780    1.000
    C39      C        0.69870    0.87390    0.61910    1.000
    C40      C        0.88240    0.98200    0.63660    1.000
    C41      C        0.75640    0.02750    0.84730    1.000
    C42      C        0.93610    0.16960    0.86110    1.000
    N16      N        0.72380    0.07460    0.60360    1.000
    N17      N        0.89770    0.24480    0.63140    1.000
    N18      N        0.68450    0.34380    0.69090    1.000
    Sn7      Sn       0.72490    0.46100    0.79970    1.000
    C43      C        0.76810    0.64170    0.93720    1.000
    C44      C        0.65740    0.74910    0.91900    1.000
    C45      C        0.79220    0.80850    0.88220    1.000
    C46      C        0.80130    0.37390    0.88090    1.000
    C47      C        0.61760    0.48200    0.86340    1.000
    C48      C        0.74360    0.52750    0.65270    1.000
    C49      C        0.56390    0.66960    0.63890    1.000
    N19      N        0.77620    0.57460    0.89640    1.000
    N20      N        0.60230    0.74480    0.86860    1.000
    N21      N        0.81550    0.84380    0.80910    1.000
    Sn8      Sn       0.22490    0.96100    0.79970    1.000
    C50      C        0.26810    0.14170    0.93720    1.000
    C51      C        0.15740    0.24910    0.91900    1.000
    C52      C        0.29220    0.30850    0.88220    1.000
    C53      C        0.30130    0.87390    0.88090    1.000
    C54      C        0.11760    0.98200    0.86340    1.000
    C55      C        0.24360    0.02750    0.65270    1.000
    C56      C        0.06390    0.16960    0.63890    1.000
    N22      N        0.27620    0.07460    0.89640    1.000
    N23      N        0.10230    0.24480    0.86860    1.000
    N24      N        0.31550    0.34380    0.80910    1.000
    Sn9      Sn       0.50000    0.25940    0.25000    1.000
    C57      C        0.50000    0.11720    0.25000    1.000
    Sn10     Sn       0.00000    0.75940    0.25000    1.000
    C58      C        0.00000    0.61720    0.25000    1.000
    Sn11     Sn       0.50000    0.74060    0.75000    1.000
    C59      C        0.50000    0.88280    0.75000    1.000
    Sn12     Sn       0.00000    0.24060    0.75000    1.000
    C60      C        0.00000    0.38280    0.75000    1.000
    Fe1      Fe       0.75000    0.25000    0.50000    1.000
    Fe2      Fe       0.25000    0.25000    0.00000    1.000
    Fe3      Fe       0.25000    0.75000    0.50000    1.000
    Fe4      Fe       0.75000    0.75000    0.00000    1.000
