# CIF file generated by openbabel 3.1.0, see https://openbabel.org
data_I
_chemical_name_common 'DEXZIR_clean'
_cell_length_a 9.6931
_cell_length_b 12.6453
_cell_length_c 26.411
_cell_angle_alpha 91.391
_cell_angle_beta 90
_cell_angle_gamma 90
_space_group_name_H-M_alt 'P 1'
_space_group_name_Hall 'P 1'
loop_
    _symmetry_equiv_pos_as_xyz
    x,y,z
loop_
    _atom_site_label
    _atom_site_type_symbol
    _atom_site_fract_x
    _atom_site_fract_y
    _atom_site_fract_z
    _atom_site_occupancy
    Eu1      Eu       0.19708    0.85827    0.75328    1.000
    Eu2      Eu       0.69708    0.64173    0.74672    1.000
    Eu3      Eu       0.80292    0.14173    0.24672    1.000
    Eu4      Eu       0.30292    0.35827    0.25328    1.000
    H1       H        0.17240    0.42570    0.50610    1.000
    H2       H        0.41550    0.63750    0.43700    1.000
    H3       H        0.27030    0.69200    0.63520    1.000
    H4       H        0.35720    0.77170    0.60120    1.000
    H5       H        0.15880    0.43420    0.41820    1.000
    H6       H        0.30730    0.45430    0.39380    1.000
    H7       H        0.08770    0.60510    0.39890    1.000
    H8       H        0.23890    0.63450    0.37980    1.000
    H9       H        0.92880    0.83750    0.43600    1.000
    H10      H        0.67230    0.07230    0.48300    1.000
    H11      H        0.82920    0.77240    0.61200    1.000
    H12      H        0.74370    0.86940    0.63660    1.000
    H13      H        0.68530    0.04110    0.39800    1.000
    H14      H        0.84000    0.01690    0.38040    1.000
    H15      H        0.62210    0.86820    0.37960    1.000
    H16      H        0.77790    0.83870    0.36530    1.000
    H17      H        0.67240    0.07430    0.99390    1.000
    H18      H        0.91550    0.86250    0.06300    1.000
    H19      H        0.77030    0.80800    0.86480    1.000
    H20      H        0.85720    0.72830    0.89880    1.000
    H21      H        0.65880    0.06580    0.08180    1.000
    H22      H        0.80730    0.04570    0.10620    1.000
    H23      H        0.58770    0.89490    0.10110    1.000
    H24      H        0.73890    0.86550    0.12020    1.000
    H25      H        0.42880    0.66250    0.06400    1.000
    H26      H        0.17230    0.42770    0.01700    1.000
    H27      H        0.32920    0.72760    0.88800    1.000
    H28      H        0.24370    0.63060    0.86340    1.000
    H29      H        0.18530    0.45890    0.10200    1.000
    H30      H        0.34000    0.48310    0.11960    1.000
    H31      H        0.12210    0.63180    0.12040    1.000
    H32      H        0.27790    0.66130    0.13470    1.000
    H33      H        0.82760    0.57430    0.49390    1.000
    H34      H        0.58450    0.36250    0.56300    1.000
    H35      H        0.72970    0.30800    0.36480    1.000
    H36      H        0.64280    0.22830    0.39880    1.000
    H37      H        0.84120    0.56580    0.58180    1.000
    H38      H        0.69270    0.54570    0.60620    1.000
    H39      H        0.91230    0.39490    0.60110    1.000
    H40      H        0.76110    0.36550    0.62020    1.000
    H41      H        0.07120    0.16250    0.56400    1.000
    H42      H        0.32770    0.92770    0.51700    1.000
    H43      H        0.17080    0.22760    0.38800    1.000
    H44      H        0.25630    0.13060    0.36340    1.000
    H45      H        0.31470    0.95890    0.60200    1.000
    H46      H        0.16000    0.98310    0.61960    1.000
    H47      H        0.37790    0.13180    0.62040    1.000
    H48      H        0.22210    0.16130    0.63470    1.000
    H49      H        0.32760    0.92570    0.00610    1.000
    H50      H        0.08450    0.13750    0.93700    1.000
    H51      H        0.22970    0.19200    0.13520    1.000
    H52      H        0.14280    0.27170    0.10120    1.000
    H53      H        0.34120    0.93420    0.91820    1.000
    H54      H        0.19270    0.95430    0.89380    1.000
    H55      H        0.41230    0.10510    0.89890    1.000
    H56      H        0.26110    0.13450    0.87980    1.000
    H57      H        0.57120    0.33750    0.93600    1.000
    H58      H        0.82770    0.57230    0.98300    1.000
    H59      H        0.67080    0.27240    0.11200    1.000
    H60      H        0.75630    0.36940    0.13660    1.000
    H61      H        0.81470    0.54110    0.89800    1.000
    H62      H        0.66000    0.51690    0.88040    1.000
    H63      H        0.87790    0.36820    0.87960    1.000
    H64      H        0.72210    0.33870    0.86530    1.000
    C1       C        0.38760    0.59500    0.55837    1.000
    C2       C        0.29180    0.51330    0.55434    1.000
    C3       C        0.23940    0.48050    0.50777    1.000
    C4       C        0.28370    0.52660    0.46363    1.000
    C5       C        0.38200    0.60640    0.46703    1.000
    C6       C        0.43170    0.64110    0.51386    1.000
    C7       C        0.36470    0.71500    0.62631    1.000
    C8       C        0.43690    0.75700    0.67300    1.000
    C9       C        0.23080    0.48840    0.41290    1.000
    C10      C        0.17050    0.57650    0.38140    1.000
    C11      C        0.13090    0.54380    0.32830    1.000
    C12      C        0.87060    0.92420    0.55201    1.000
    C13      C        0.92510    0.86210    0.51253    1.000
    C14      C        0.88930    0.87990    0.46237    1.000
    C15      C        0.79570    0.95980    0.45050    1.000
    C16      C        0.73840    0.01920    0.49000    1.000
    C17      C        0.77690    0.00180    0.53954    1.000
    C18      C        0.83770    0.84100    0.63057    1.000
    C19      C        0.90930    0.82490    0.68075    1.000
    C20      C        0.75800    0.98610    0.39690    1.000
    C21      C        0.70830    0.89590    0.36480    1.000
    C22      C        0.68140    0.92480    0.31070    1.000
    C23      C        0.88760    0.90500    0.94163    1.000
    C24      C        0.79180    0.98670    0.94566    1.000
    C25      C        0.73940    0.01950    0.99223    1.000
    C26      C        0.78370    0.97340    0.03637    1.000
    C27      C        0.88200    0.89360    0.03297    1.000
    C28      C        0.93170    0.85890    0.98614    1.000
    C29      C        0.86470    0.78500    0.87369    1.000
    C30      C        0.93690    0.74300    0.82700    1.000
    C31      C        0.73080    0.01160    0.08710    1.000
    C32      C        0.67050    0.92350    0.11860    1.000
    C33      C        0.63090    0.95620    0.17170    1.000
    C34      C        0.37060    0.57580    0.94799    1.000
    C35      C        0.42510    0.63790    0.98747    1.000
    C36      C        0.38930    0.62010    0.03763    1.000
    C37      C        0.29570    0.54020    0.04950    1.000
    C38      C        0.23840    0.48080    0.01000    1.000
    C39      C        0.27690    0.49820    0.96046    1.000
    C40      C        0.33770    0.65900    0.86943    1.000
    C41      C        0.40930    0.67510    0.81925    1.000
    C42      C        0.25800    0.51390    0.10310    1.000
    C43      C        0.20830    0.60410    0.13520    1.000
    C44      C        0.18140    0.57520    0.18930    1.000
    C45      C        0.61240    0.40500    0.44163    1.000
    C46      C        0.70820    0.48670    0.44566    1.000
    C47      C        0.76060    0.51950    0.49223    1.000
    C48      C        0.71630    0.47340    0.53637    1.000
    C49      C        0.61800    0.39360    0.53297    1.000
    C50      C        0.56830    0.35890    0.48614    1.000
    C51      C        0.63530    0.28500    0.37369    1.000
    C52      C        0.56310    0.24300    0.32700    1.000
    C53      C        0.76920    0.51160    0.58710    1.000
    C54      C        0.82950    0.42350    0.61860    1.000
    C55      C        0.86910    0.45620    0.67170    1.000
    C56      C        0.12940    0.07580    0.44799    1.000
    C57      C        0.07490    0.13790    0.48747    1.000
    C58      C        0.11070    0.12010    0.53763    1.000
    C59      C        0.20430    0.04020    0.54950    1.000
    C60      C        0.26160    0.98080    0.51000    1.000
    C61      C        0.22310    0.99820    0.46046    1.000
    C62      C        0.16230    0.15900    0.36943    1.000
    C63      C        0.09070    0.17510    0.31925    1.000
    C64      C        0.24200    0.01390    0.60310    1.000
    C65      C        0.29170    0.10410    0.63520    1.000
    C66      C        0.31860    0.07520    0.68930    1.000
    C67      C        0.11240    0.09500    0.05837    1.000
    C68      C        0.20820    0.01330    0.05434    1.000
    C69      C        0.26060    0.98050    0.00777    1.000
    C70      C        0.21630    0.02660    0.96363    1.000
    C71      C        0.11800    0.10640    0.96703    1.000
    C72      C        0.06830    0.14110    0.01386    1.000
    C73      C        0.13530    0.21500    0.12631    1.000
    C74      C        0.06310    0.25700    0.17300    1.000
    C75      C        0.26920    0.98840    0.91290    1.000
    C76      C        0.32950    0.07650    0.88140    1.000
    C77      C        0.36910    0.04380    0.82830    1.000
    C78      C        0.62940    0.42420    0.05201    1.000
    C79      C        0.57490    0.36210    0.01253    1.000
    C80      C        0.61070    0.37990    0.96237    1.000
    C81      C        0.70430    0.45980    0.95050    1.000
    C82      C        0.76160    0.51920    0.99000    1.000
    C83      C        0.72310    0.50180    0.03954    1.000
    C84      C        0.66230    0.34100    0.13057    1.000
    C85      C        0.59070    0.32490    0.18075    1.000
    C86      C        0.74200    0.48610    0.89690    1.000
    C87      C        0.79170    0.39590    0.86480    1.000
    C88      C        0.81860    0.42480    0.81070    1.000
    I1       I        0.57661    0.76343    0.51716    1.000
    I2       I        0.23583    0.43409    0.61990    1.000
    I3       I        0.06241    0.73994    0.52831    1.000
    I4       I        0.69627    0.10227    0.59664    1.000
    I5       I        0.07661    0.73657    0.98284    1.000
    I6       I        0.73583    0.06591    0.88010    1.000
    I7       I        0.56241    0.76006    0.97169    1.000
    I8       I        0.19627    0.39773    0.90336    1.000
    I9       I        0.42339    0.23657    0.48284    1.000
    I10      I        0.76417    0.56591    0.38010    1.000
    I11      I        0.93759    0.26006    0.47169    1.000
    I12      I        0.30373    0.89773    0.40336    1.000
    I13      I        0.92339    0.26343    0.01716    1.000
    I14      I        0.26417    0.93409    0.11990    1.000
    I15      I        0.43759    0.23994    0.02831    1.000
    I16      I        0.80373    0.60227    0.09664    1.000
    O1       O        0.44060    0.62700    0.60463    1.000
    O2       O        0.37680    0.83470    0.69488    1.000
    O3       O        0.54640    0.71500    0.68687    1.000
    O4       O        0.15210    0.45480    0.31084    1.000
    O5       O        0.07650    0.61900    0.30295    1.000
    O6       O        0.91600    0.91370    0.60095    1.000
    O7       O        0.01910    0.87110    0.69080    1.000
    O8       O        0.84990    0.76070    0.70880    1.000
    O9       O        0.77030    0.97410    0.28671    1.000
    O10      O        0.56700    0.89610    0.29126    1.000
    O11      O        0.94060    0.87300    0.89537    1.000
    O12      O        0.87680    0.66530    0.80512    1.000
    O13      O        0.04640    0.78500    0.81313    1.000
    O14      O        0.65210    0.04520    0.18916    1.000
    O15      O        0.57650    0.88100    0.19705    1.000
    O16      O        0.41600    0.58630    0.89905    1.000
    O17      O        0.51910    0.62890    0.80920    1.000
    O18      O        0.34990    0.73930    0.79120    1.000
    O19      O        0.27030    0.52590    0.21329    1.000
    O20      O        0.06700    0.60390    0.20874    1.000
    O21      O        0.55940    0.37300    0.39537    1.000
    O22      O        0.62320    0.16530    0.30512    1.000
    O23      O        0.45360    0.28500    0.31313    1.000
    O24      O        0.84790    0.54520    0.68916    1.000
    O25      O        0.92350    0.38100    0.69705    1.000
    O26      O        0.08400    0.08630    0.39905    1.000
    O27      O        0.98090    0.12890    0.30920    1.000
    O28      O        0.15010    0.23930    0.29120    1.000
    O29      O        0.22970    0.02590    0.71329    1.000
    O30      O        0.43300    0.10390    0.70874    1.000
    O31      O        0.05940    0.12700    0.10463    1.000
    O32      O        0.12320    0.33470    0.19488    1.000
    O33      O        0.95360    0.21500    0.18687    1.000
    O34      O        0.34790    0.95480    0.81084    1.000
    O35      O        0.42350    0.11900    0.80295    1.000
    O36      O        0.58400    0.41370    0.10095    1.000
    O37      O        0.48090    0.37110    0.19080    1.000
    O38      O        0.65010    0.26070    0.20880    1.000
    O39      O        0.72970    0.47410    0.78671    1.000
    O40      O        0.93300    0.39610    0.79126    1.000
