# CIF file generated by openbabel 3.1.0, see https://openbabel.org
data_I
_chemical_name_common 'image0'
_cell_length_a 9.7481
_cell_length_b 9.885
_cell_length_c 21.3785
_cell_angle_alpha 90
_cell_angle_beta 93.467
_cell_angle_gamma 90
_space_group_name_H-M_alt 'P 1'
_space_group_name_Hall 'P 1'
loop_
    _symmetry_equiv_pos_as_xyz
    x,y,z
loop_
    _atom_site_label
    _atom_site_type_symbol
    _atom_site_fract_x
    _atom_site_fract_y
    _atom_site_fract_z
    _atom_site_occupancy
    C1       C        0.23640    0.23200    0.17240    1.000
    C2       C        0.24670    0.14500    0.11650    1.000
    C3       C        0.14630    0.33560    0.18700    1.000
    C4       C        0.03690    0.40790    0.15080    1.000
    C5       C        0.28580    0.30110    0.26530    1.000
    H1       H        0.32870    0.30800    0.30520    1.000
    C6       C        0.72520    0.95280    0.14810    1.000
    C7       C        0.73680    0.10130    0.14980    1.000
    C8       C        0.79420    0.85070    0.11850    1.000
    C9       C        0.90370    0.84290    0.07520    1.000
    C10      C        0.63680    0.76250    0.17200    1.000
    H2       H        0.58240    0.69860    0.19060    1.000
    Cd1      Cd       0.46726    0.03643    0.21613    1.000
    Cd2      Cd       0.81012    0.53903    0.09211    1.000
    Tb1      Tb       0.93918    0.18787    0.03275    1.000
    N1       N        0.32730    0.21190    0.22300    1.000
    N2       N        0.18090    0.37820    0.24680    1.000
    N3       N        0.62300    0.89630    0.18090    1.000
    N4       N        0.73440    0.72960    0.13460    1.000
    O1       O        0.34830    0.06600    0.11610    1.000
    O2       O        0.15890    0.15300    0.07150    1.000
    O3       O        0.00530    0.38180    0.09363    1.000
    O4       O        0.97330    0.50090    0.17770    1.000
    O5       O        0.65600    0.16520    0.18180    1.000
    O6       O        0.83020    0.16030    0.12090    1.000
    O7       O        0.95980    0.94830    0.05328    1.000
    O8       O        0.94070    0.72650    0.05640    1.000
    O9       O        0.63310    0.41620    0.12990    1.000
    H3       H        0.67300    0.35800    0.15400    1.000
    H4       H        0.56700    0.38000    0.10900    1.000
    O10      O        0.68800    0.43300    0.17100    1.000
    H5       H        0.65320    0.34280    0.16540    1.000
    H6       H        0.77310    0.45190    0.17300    1.000
    C11      C        0.26360    0.73200    0.32760    1.000
    C12      C        0.25330    0.64500    0.38350    1.000
    C13      C        0.35370    0.83560    0.31300    1.000
    C14      C        0.46310    0.90790    0.34920    1.000
    C15      C        0.21420    0.80110    0.23470    1.000
    H7       H        0.17130    0.80800    0.19480    1.000
    C16      C        0.77480    0.45280    0.35190    1.000
    C17      C        0.76320    0.60130    0.35020    1.000
    C18      C        0.70580    0.35070    0.38150    1.000
    C19      C        0.59630    0.34290    0.42480    1.000
    C20      C        0.86320    0.26250    0.32800    1.000
    H8       H        0.91760    0.19860    0.30940    1.000
    Cd3      Cd       0.03274    0.53643    0.28387    1.000
    Cd4      Cd       0.68988    0.03903    0.40789    1.000
    Tb2      Tb       0.56082    0.68787    0.46725    1.000
    N5       N        0.17270    0.71190    0.27700    1.000
    N6       N        0.31910    0.87820    0.25320    1.000
    N7       N        0.87700    0.39630    0.31910    1.000
    N8       N        0.76560    0.22960    0.36540    1.000
    O11      O        0.15170    0.56600    0.38390    1.000
    O12      O        0.34110    0.65300    0.42850    1.000
    O13      O        0.49470    0.88180    0.40637    1.000
    O14      O        0.52670    0.00090    0.32230    1.000
    O15      O        0.84400    0.66520    0.31820    1.000
    O16      O        0.66980    0.66030    0.37910    1.000
    O17      O        0.54020    0.44830    0.44672    1.000
    O18      O        0.55930    0.22650    0.44360    1.000
    O19      O        0.86690    0.91620    0.37010    1.000
    H9       H        0.82700    0.85800    0.34600    1.000
    H10      H        0.93300    0.88000    0.39100    1.000
    O20      O        0.81200    0.93300    0.32900    1.000
    H11      H        0.84680    0.84280    0.33460    1.000
    H12      H        0.72690    0.95190    0.32700    1.000
    C21      C        0.76360    0.76800    0.82760    1.000
    C22      C        0.75330    0.85500    0.88350    1.000
    C23      C        0.85370    0.66440    0.81300    1.000
    C24      C        0.96310    0.59210    0.84920    1.000
    C25      C        0.71420    0.69890    0.73470    1.000
    H13      H        0.67130    0.69200    0.69480    1.000
    C26      C        0.27480    0.04720    0.85190    1.000
    C27      C        0.26320    0.89870    0.85020    1.000
    C28      C        0.20580    0.14930    0.88150    1.000
    C29      C        0.09630    0.15710    0.92480    1.000
    C30      C        0.36320    0.23750    0.82800    1.000
    H14      H        0.41760    0.30140    0.80940    1.000
    Cd5      Cd       0.53274    0.96357    0.78387    1.000
    Cd6      Cd       0.18988    0.46097    0.90789    1.000
    Tb3      Tb       0.06082    0.81213    0.96725    1.000
    N9       N        0.67270    0.78810    0.77700    1.000
    N10      N        0.81910    0.62180    0.75320    1.000
    N11      N        0.37700    0.10370    0.81910    1.000
    N12      N        0.26560    0.27040    0.86540    1.000
    O21      O        0.65170    0.93400    0.88390    1.000
    O22      O        0.84110    0.84700    0.92850    1.000
    O23      O        0.99470    0.61820    0.90637    1.000
    O24      O        0.02670    0.49910    0.82230    1.000
    O25      O        0.34400    0.83480    0.81820    1.000
    O26      O        0.16980    0.83970    0.87910    1.000
    O27      O        0.04020    0.05170    0.94672    1.000
    O28      O        0.05930    0.27350    0.94360    1.000
    O29      O        0.36690    0.58380    0.87010    1.000
    H15      H        0.32700    0.64200    0.84600    1.000
    H16      H        0.43300    0.62000    0.89100    1.000
    O30      O        0.31200    0.56700    0.82900    1.000
    H17      H        0.34680    0.65720    0.83460    1.000
    H18      H        0.22690    0.54810    0.82700    1.000
    C31      C        0.73640    0.26800    0.67240    1.000
    C32      C        0.74670    0.35500    0.61650    1.000
    C33      C        0.64630    0.16440    0.68700    1.000
    C34      C        0.53690    0.09210    0.65080    1.000
    C35      C        0.78580    0.19890    0.76530    1.000
    H19      H        0.82870    0.19200    0.80520    1.000
    C36      C        0.22520    0.54720    0.64810    1.000
    C37      C        0.23680    0.39870    0.64980    1.000
    C38      C        0.29420    0.64930    0.61850    1.000
    C39      C        0.40370    0.65710    0.57520    1.000
    C40      C        0.13680    0.73750    0.67200    1.000
    H20      H        0.08240    0.80140    0.69060    1.000
    Cd7      Cd       0.96726    0.46357    0.71613    1.000
    Cd8      Cd       0.31012    0.96097    0.59211    1.000
    Tb4      Tb       0.43918    0.31213    0.53275    1.000
    N13      N        0.82730    0.28810    0.72300    1.000
    N14      N        0.68090    0.12180    0.74680    1.000
    N15      N        0.12300    0.60370    0.68090    1.000
    N16      N        0.23440    0.77040    0.63460    1.000
    O31      O        0.84830    0.43400    0.61610    1.000
    O32      O        0.65890    0.34700    0.57150    1.000
    O33      O        0.50530    0.11820    0.59363    1.000
    O34      O        0.47330    0.99910    0.67770    1.000
    O35      O        0.15600    0.33480    0.68180    1.000
    O36      O        0.33020    0.33970    0.62090    1.000
    O37      O        0.45980    0.55170    0.55328    1.000
    O38      O        0.44070    0.77350    0.55640    1.000
    O39      O        0.13310    0.08380    0.62990    1.000
    H21      H        0.17300    0.14200    0.65400    1.000
    H22      H        0.06700    0.12000    0.60900    1.000
    O40      O        0.18800    0.06700    0.67100    1.000
    H23      H        0.15320    0.15720    0.66540    1.000
    H24      H        0.27310    0.04810    0.67300    1.000
