# CIF file generated by openbabel 3.1.0, see https://openbabel.org
data_I
_chemical_name_common 'image0'
_cell_length_a 35.143
_cell_length_b 15.039
_cell_length_c 30.68
_cell_angle_alpha 90
_cell_angle_beta 101.549
_cell_angle_gamma 90
_space_group_name_H-M_alt 'P 1'
_space_group_name_Hall 'P 1'
loop_
    _symmetry_equiv_pos_as_xyz
    x,y,z
loop_
    _atom_site_label
    _atom_site_type_symbol
    _atom_site_fract_x
    _atom_site_fract_y
    _atom_site_fract_z
    _atom_site_occupancy
    Zn1      Zn       0.86870    0.16047    0.06403    1.000
    I1       I        0.88296    0.16684    0.98658    1.000
    I2       I        0.85130    0.01742    0.10034    1.000
    Zn2      Zn       0.55860    0.38770    0.22390    1.000
    I3       I        0.49640    0.46020    0.18240    1.000
    Zn3      Zn       0.66335    0.86518    0.90814    1.000
    I4       I        0.63253    0.99123    0.94378    1.000
    Zn4      Zn       0.38309    0.84030    0.54490    1.000
    I5       I        0.36700    0.98465    0.58114    1.000
    Zn5      Zn       0.16037    0.12657    0.41782    1.000
    I6       I        0.12957    0.01110    0.46016    1.000
    I7       I        0.21269    0.10088    0.37222    1.000
    Zn6      Zn       0.08618    0.87078    0.23244    1.000
    I8       I        0.13165    0.89321    0.30757    1.000
    I9       I        0.02622    0.96916    0.20957    1.000
    N1       N        0.60140    0.41300    0.18770    1.000
    C1       C        0.60180    0.48800    0.16650    1.000
    H1       H        0.58440    0.53350    0.17170    1.000
    C2       C        0.62520    0.50600    0.13760    1.000
    H2       H        0.62180    0.55960    0.12120    1.000
    C3       C        0.65380    0.44760    0.13130    1.000
    C4       C        0.65520    0.37110    0.15550    1.000
    H3       H        0.67480    0.32840    0.15380    1.000
    C5       C        0.62890    0.35390    0.18230    1.000
    H4       H        0.63020    0.29850    0.19740    1.000
    C6       C        0.67810    0.46610    0.10090    1.000
    N2       N        0.67180    0.53600    0.07430    1.000
    C7       C        0.69290    0.54030    0.04540    1.000
    N3       N        0.72190    0.48390    0.03870    1.000
    C8       C        0.72750    0.41680    0.06980    1.000
    N4       N        0.70670    0.40330    0.09900    1.000
    C9       C        0.76110    0.35650    0.06510    1.000
    C10      C        0.77830    0.35800    0.03210    1.000
    H5       H        0.76930    0.39700    0.00790    1.000
    C11      C        0.81090    0.30180    0.03130    1.000
    H6       H        0.82360    0.30420    0.00670    1.000
    N5       N        0.82370    0.24630    0.06470    1.000
    C12      C        0.80480    0.24600    0.09940    1.000
    H7       H        0.81370    0.20820    0.12410    1.000
    C13      C        0.77330    0.29920    0.09930    1.000
    H8       H        0.75980    0.29610    0.12320    1.000
    C14      C        0.68900    0.62050    0.01310    1.000
    C15      C        0.65500    0.67140    0.00880    1.000
    H9       H        0.63590    0.65850    0.02590    1.000
    C16      C        0.65040    0.73930    0.97960    1.000
    H10      H        0.62730    0.77350    0.97690    1.000
    N6       N        0.67500    0.76220    0.95460    1.000
    C17      C        0.70760    0.71610    0.95870    1.000
    H11      H        0.72590    0.73060    0.94080    1.000
    C18      C        0.71540    0.64510    0.98980    1.000
    H12      H        0.73970    0.61500    0.99400    1.000
    N7       N        0.62450    0.79740    0.86000    1.000
    C19      C        0.60160    0.84300    0.82970    1.000
    H13      H        0.59950    0.90520    0.83330    1.000
    C20      C        0.57910    0.79990    0.79030    1.000
    H14      H        0.56230    0.83370    0.76830    1.000
    C21      C        0.58260    0.71040    0.78560    1.000
    C22      C        0.60380    0.66910    0.82150    1.000
    H15      H        0.60450    0.60600    0.82140    1.000
    C23      C        0.62460    0.71310    0.85870    1.000
    H16      H        0.63870    0.68010    0.88300    1.000
    C24      C        0.56180    0.66000    0.74650    1.000
    N8       N        0.53620    0.70690    0.71640    1.000
    C25      C        0.51650    0.65370    0.68250    1.000
    N9       N        0.52140    0.56810    0.67840    1.000
    C26      C        0.54730    0.53240    0.71140    1.000
    N10      N        0.56910    0.57600    0.74460    1.000
    C27      C        0.48890    0.69890    0.64990    1.000
    C28      C        0.47720    0.78600    0.65380    1.000
    H17      H        0.49030    0.81820    0.67890    1.000
    C29      C        0.44830    0.82950    0.62470    1.000
    H18      H        0.44210    0.88990    0.62920    1.000
    N11      N        0.42830    0.78020    0.58810    1.000
    C30      C        0.43880    0.70050    0.58320    1.000
    H19      H        0.42410    0.66820    0.55890    1.000
    C31      C        0.46900    0.65700    0.60940    1.000
    H20      H        0.47680    0.59970    0.60110    1.000
    C32      C        0.55210    0.43500    0.71110    1.000
    C33      C        0.52850    0.37600    0.68290    1.000
    H21      H        0.50960    0.39990    0.65930    1.000
    C34      C        0.53070    0.28500    0.68670    1.000
    H22      H        0.51380    0.24890    0.66620    1.000
    N12      N        0.55700    0.24830    0.71980    1.000
    C35      C        0.57900    0.30000    0.75040    1.000
    H23      H        0.59640    0.27300    0.77430    1.000
    C36      C        0.57720    0.39300    0.74830    1.000
    H24      H        0.59240    0.42850    0.77100    1.000
    N13      N        0.33620    0.75520    0.54530    1.000
    C37      C        0.32690    0.75000    0.58520    1.000
    H25      H        0.34230    0.77930    0.61000    1.000
    C38      C        0.29220    0.69700    0.59060    1.000
    H26      H        0.28360    0.69440    0.61800    1.000
    C39      C        0.27320    0.65220    0.55250    1.000
    C40      C        0.28530    0.65760    0.51380    1.000
    H27      H        0.27330    0.62300    0.48890    1.000
    C41      C        0.31600    0.71560    0.51090    1.000
    H28      H        0.32230    0.72610    0.48260    1.000
    C42      C        0.23940    0.59210    0.55690    1.000
    N14      N        0.22060    0.60880    0.58990    1.000
    C43      C        0.19260    0.55640    0.59320    1.000
    N15      N        0.18290    0.48360    0.56800    1.000
    C44      C        0.20440    0.46920    0.53710    1.000
    N16      N        0.23180    0.52370    0.52770    1.000
    C45      C        0.16820    0.57540    0.62430    1.000
    C46      C        0.17820    0.63350    0.66150    1.000
    H29      H        0.20250    0.66320    0.66580    1.000
    C47      C        0.15580    0.64850    0.69000    1.000
    H30      H        0.16490    0.68670    0.71450    1.000
    N17      N        0.11870    0.61030    0.68580    1.000
    C48      C        0.10920    0.55490    0.65010    1.000
    H31      H        0.08460    0.52650    0.64550    1.000
    C49      C        0.13180    0.53780    0.62110    1.000
    H32      H        0.12270    0.49810    0.59720    1.000
    C50      C        0.19630    0.38700    0.50900    1.000
    C51      C        0.16870    0.32500    0.51770    1.000
    H33      H        0.15580    0.33510    0.54160    1.000
    C52      C        0.16060    0.25220    0.49250    1.000
    H34      H        0.14090    0.21290    0.49800    1.000
    N18      N        0.17890    0.23360    0.46090    1.000
    C53      C        0.20660    0.28690    0.45270    1.000
    H35      H        0.22020    0.27130    0.42990    1.000
    C54      C        0.21670    0.36820    0.47740    1.000
    H36      H        0.23660    0.40640    0.47170    1.000
    N19      N        0.11640    0.18720    0.37160    1.000
    C55      C        0.09510    0.14530    0.33810    1.000
    H37      H        0.09440    0.08210    0.33910    1.000
    C56      C        0.07380    0.18680    0.30190    1.000
    H38      H        0.05920    0.15270    0.27820    1.000
    C57      C        0.07340    0.27870    0.29950    1.000
    C58      C        0.09320    0.32220    0.33670    1.000
    H39      H        0.09100    0.38500    0.33840    1.000
    C59      C        0.11600    0.27770    0.37120    1.000
    H40      H        0.13160    0.30990    0.39490    1.000
    C60      C        0.05230    0.32800    0.25910    1.000
    N20      N        0.02710    0.28890    0.23060    1.000
    C61      C        0.00990    0.33790    0.19600    1.000
    N21      N        0.01720    0.42450    0.19060    1.000
    C62      C        0.04540    0.45730    0.22170    1.000
    N22      N        0.06500    0.41450    0.25690    1.000
    C63      C        0.05480    0.55820    0.22230    1.000
    C64      C        0.03200    0.61510    0.19480    1.000
    H41      H        0.01090    0.59300    0.17330    1.000
    C65      C        0.03940    0.70720    0.19790    1.000
    H42      H        0.02250    0.74760    0.17970    1.000
    N23      N        0.06950    0.73660    0.22580    1.000
    C66      C        0.09210    0.67900    0.25300    1.000
    H43      H        0.11250    0.70260    0.27490    1.000
    C67      C        0.08760    0.58760    0.25120    1.000
    H44      H        0.10570    0.54820    0.26840    1.000
    C68      C        0.97580    0.29490    0.16440    1.000
    C69      C        0.97070    0.20900    0.16630    1.000
    H45      H        0.98870    0.17380    0.18630    1.000
    C70      C        0.93830    0.16840    0.13880    1.000
    H46      H        0.93250    0.10760    0.14270    1.000
    N24      N        0.91560    0.21790    0.10680    1.000
    C71      C        0.92150    0.30220    0.10430    1.000
    H47      H        0.90420    0.33630    0.08280    1.000
    C72      C        0.95320    0.34570    0.13280    1.000
    H48      H        0.95820    0.40730    0.12980    1.000
    I10      I        0.39787    0.83200    0.46670    1.000
    I11      I        0.72176    0.88893    0.87236    1.000
    I12      I        0.58770    0.41500    0.30480    1.000
    C73      C        0.68650    0.52170    0.75800    1.000
    H49      H        0.67840    0.49320    0.73010    1.000
    C74      C        0.69170    0.61330    0.76000    1.000
    H50      H        0.68700    0.64750    0.73340    1.000
    C75      C        0.70360    0.65500    0.80090    1.000
    H51      H        0.70720    0.71770    0.80230    1.000
    C76      C        0.71050    0.60500    0.83980    1.000
    H52      H        0.71860    0.63360    0.86780    1.000
    C77      C        0.70530    0.51300    0.83780    1.000
    H53      H        0.71000    0.47930    0.86440    1.000
    C78      C        0.69340    0.47170    0.79690    1.000
    N25      N        0.68840    0.37670    0.79420    1.000
    O1       O        0.69750    0.33600    0.82870    1.000
    O2       O        0.68100    0.34400    0.75720    1.000
    Zn7      Zn       0.57030    0.38500    0.23570    1.000
    I13      I        0.50990    0.47930    0.20770    1.000
    Zn8      Zn       0.59000    0.38250    0.22090    1.000
    I14      I        0.53010    0.48080    0.19590    1.000
    Zn9      Zn       0.65330    0.88100    0.92870    1.000
    I15      I        0.62610    0.00200    0.97090    1.000
    Zn10     Zn       0.36480    0.84630    0.57370    1.000
    I16      I        0.34880    0.99070    0.60890    1.000
    I17      I        0.38010    0.84130    0.49610    1.000
    I18      I        0.39150    0.70100    0.42480    1.000
    I19      I        0.38250    0.56700    0.36250    1.000
    I20      I        0.63110    0.40550    0.29810    1.000
    I21      I        0.69390    0.72200    0.82790    1.000
    I22      I        0.67290    0.56500    0.78300    1.000
    I23      I        0.60670    0.40120    0.31530    1.000
    I24      I        0.70310    0.91400    0.88170    1.000
    C79      C        0.42700    0.38600    0.41900    1.000
    H54      H        0.44030    0.34330    0.43940    1.000
    C80      C        0.43100    0.47600    0.42800    1.000
    H55      H        0.44770    0.49520    0.45540    1.000
    C81      C        0.41200    0.53800    0.39900    1.000
    H56      H        0.41510    0.60000    0.40500    1.000
    C82      C        0.38800    0.51000    0.35900    1.000
    H57      H        0.37510    0.55300    0.33870    1.000
    C83      C        0.38400    0.42000    0.35000    1.000
    H58      H        0.36770    0.40110    0.32270    1.000
    C84      C        0.40300    0.35800    0.37950    1.000
    N26      N        0.40190    0.26500    0.36820    1.000
    O3       O        0.37800    0.24500    0.33480    1.000
    O4       O        0.41400    0.21300    0.39800    1.000
    C85      C        0.39700    0.46200    0.41000    1.000
    H59      H        0.40910    0.43310    0.43680    1.000
    C86      C        0.39300    0.55400    0.40900    1.000
    H60      H        0.40210    0.58780    0.43510    1.000
    C87      C        0.37600    0.59600    0.37000    1.000
    H61      H        0.37290    0.65890    0.36900    1.000
    C88      C        0.36300    0.54600    0.33100    1.000
    H62      H        0.35070    0.57520    0.30460    1.000
    C89      C        0.36700    0.45400    0.33200    1.000
    H63      H        0.35770    0.42040    0.30640    1.000
    C90      C        0.38400    0.41200    0.37200    1.000
    N27      N        0.39300    0.31900    0.37100    1.000
    O5       O        0.39600    0.28800    0.33500    1.000
    O6       O        0.40700    0.28400    0.40700    1.000
    Zn11     Zn       0.86870    0.33953    0.56403    1.000
    I25      I        0.88296    0.33316    0.48658    1.000
    I26      I        0.85130    0.48258    0.60034    1.000
    Zn12     Zn       0.55860    0.11230    0.72390    1.000
    I27      I        0.49640    0.03980    0.68240    1.000
    Zn13     Zn       0.66335    0.63482    0.40814    1.000
    I28      I        0.63253    0.50877    0.44378    1.000
    Zn14     Zn       0.38309    0.65970    0.04490    1.000
    I29      I        0.36700    0.51535    0.08114    1.000
    Zn15     Zn       0.16037    0.37343    0.91782    1.000
    I30      I        0.12957    0.48890    0.96016    1.000
    I31      I        0.21269    0.39912    0.87222    1.000
    Zn16     Zn       0.08618    0.62922    0.73244    1.000
    I32      I        0.13165    0.60679    0.80757    1.000
    I33      I        0.02622    0.53084    0.70957    1.000
    N28      N        0.60140    0.08700    0.68770    1.000
    C91      C        0.60180    0.01200    0.66650    1.000
    H64      H        0.58440    0.96650    0.67170    1.000
    C92      C        0.62520    0.99400    0.63760    1.000
    H65      H        0.62180    0.94040    0.62120    1.000
    C93      C        0.65380    0.05240    0.63130    1.000
    C94      C        0.65520    0.12890    0.65550    1.000
    H66      H        0.67480    0.17160    0.65380    1.000
    C95      C        0.62890    0.14610    0.68230    1.000
    H67      H        0.63020    0.20150    0.69740    1.000
    C96      C        0.67810    0.03390    0.60090    1.000
    N29      N        0.67180    0.96400    0.57430    1.000
    C97      C        0.69290    0.95970    0.54540    1.000
    N30      N        0.72190    0.01610    0.53870    1.000
    C98      C        0.72750    0.08320    0.56980    1.000
    N31      N        0.70670    0.09670    0.59900    1.000
    C99      C        0.76110    0.14350    0.56510    1.000
    C100     C        0.77830    0.14200    0.53210    1.000
    H68      H        0.76930    0.10300    0.50790    1.000
    C101     C        0.81090    0.19820    0.53130    1.000
    H69      H        0.82360    0.19580    0.50670    1.000
    N32      N        0.82370    0.25370    0.56470    1.000
    C102     C        0.80480    0.25400    0.59940    1.000
    H70      H        0.81370    0.29180    0.62410    1.000
    C103     C        0.77330    0.20080    0.59930    1.000
    H71      H        0.75980    0.20390    0.62320    1.000
    C104     C        0.68900    0.87950    0.51310    1.000
    C105     C        0.65500    0.82860    0.50880    1.000
    H72      H        0.63590    0.84150    0.52590    1.000
    C106     C        0.65040    0.76070    0.47960    1.000
    H73      H        0.62730    0.72650    0.47690    1.000
    N33      N        0.67500    0.73780    0.45460    1.000
    C107     C        0.70760    0.78390    0.45870    1.000
    H74      H        0.72590    0.76940    0.44080    1.000
    C108     C        0.71540    0.85490    0.48980    1.000
    H75      H        0.73970    0.88500    0.49400    1.000
    N34      N        0.62450    0.70260    0.36000    1.000
    C109     C        0.60160    0.65700    0.32970    1.000
    H76      H        0.59950    0.59480    0.33330    1.000
    C110     C        0.57910    0.70010    0.29030    1.000
    H77      H        0.56230    0.66630    0.26830    1.000
    C111     C        0.58260    0.78960    0.28560    1.000
    C112     C        0.60380    0.83090    0.32150    1.000
    H78      H        0.60450    0.89400    0.32140    1.000
    C113     C        0.62460    0.78690    0.35870    1.000
    H79      H        0.63870    0.81990    0.38300    1.000
    C114     C        0.56180    0.84000    0.24650    1.000
    N35      N        0.53620    0.79310    0.21640    1.000
    C115     C        0.51650    0.84630    0.18250    1.000
    N36      N        0.52140    0.93190    0.17840    1.000
    C116     C        0.54730    0.96760    0.21140    1.000
    N37      N        0.56910    0.92400    0.24460    1.000
    C117     C        0.48890    0.80110    0.14990    1.000
    C118     C        0.47720    0.71400    0.15380    1.000
    H80      H        0.49030    0.68180    0.17890    1.000
    C119     C        0.44830    0.67050    0.12470    1.000
    H81      H        0.44210    0.61010    0.12920    1.000
    N38      N        0.42830    0.71980    0.08810    1.000
    C120     C        0.43880    0.79950    0.08320    1.000
    H82      H        0.42410    0.83180    0.05890    1.000
    C121     C        0.46900    0.84300    0.10940    1.000
    H83      H        0.47680    0.90030    0.10110    1.000
    C122     C        0.55210    0.06500    0.21110    1.000
    C123     C        0.52850    0.12400    0.18290    1.000
    H84      H        0.50960    0.10010    0.15930    1.000
    C124     C        0.53070    0.21500    0.18670    1.000
    H85      H        0.51380    0.25110    0.16620    1.000
    N39      N        0.55700    0.25170    0.21980    1.000
    C125     C        0.57900    0.20000    0.25040    1.000
    H86      H        0.59640    0.22700    0.27430    1.000
    C126     C        0.57720    0.10700    0.24830    1.000
    H87      H        0.59240    0.07150    0.27100    1.000
    N40      N        0.33620    0.74480    0.04530    1.000
    C127     C        0.32690    0.75000    0.08520    1.000
    H88      H        0.34230    0.72070    0.11000    1.000
    C128     C        0.29220    0.80300    0.09060    1.000
    H89      H        0.28360    0.80560    0.11800    1.000
    C129     C        0.27320    0.84780    0.05250    1.000
    C130     C        0.28530    0.84240    0.01380    1.000
    H90      H        0.27330    0.87700    0.98890    1.000
    C131     C        0.31600    0.78440    0.01090    1.000
    H91      H        0.32230    0.77390    0.98260    1.000
    C132     C        0.23940    0.90790    0.05690    1.000
    N41      N        0.22060    0.89120    0.08990    1.000
    C133     C        0.19260    0.94360    0.09320    1.000
    N42      N        0.18290    0.01640    0.06800    1.000
    C134     C        0.20440    0.03080    0.03710    1.000
    N43      N        0.23180    0.97630    0.02770    1.000
    C135     C        0.16820    0.92460    0.12430    1.000
    C136     C        0.17820    0.86650    0.16150    1.000
    H92      H        0.20250    0.83680    0.16580    1.000
    C137     C        0.15580    0.85150    0.19000    1.000
    H93      H        0.16490    0.81330    0.21450    1.000
    N44      N        0.11870    0.88970    0.18580    1.000
    C138     C        0.10920    0.94510    0.15010    1.000
    H94      H        0.08460    0.97350    0.14550    1.000
    C139     C        0.13180    0.96220    0.12110    1.000
    H95      H        0.12270    0.00190    0.09720    1.000
    C140     C        0.19630    0.11300    0.00900    1.000
    C141     C        0.16870    0.17500    0.01770    1.000
    H96      H        0.15580    0.16490    0.04160    1.000
    C142     C        0.16060    0.24780    0.99250    1.000
    H97      H        0.14090    0.28710    0.99800    1.000
    N45      N        0.17890    0.26640    0.96090    1.000
    C143     C        0.20660    0.21310    0.95270    1.000
    H98      H        0.22020    0.22870    0.92990    1.000
    C144     C        0.21670    0.13180    0.97740    1.000
    H99      H        0.23660    0.09360    0.97170    1.000
    N46      N        0.11640    0.31280    0.87160    1.000
    C145     C        0.09510    0.35470    0.83810    1.000
    H100     H        0.09440    0.41790    0.83910    1.000
    C146     C        0.07380    0.31320    0.80190    1.000
    H101     H        0.05920    0.34730    0.77820    1.000
    C147     C        0.07340    0.22130    0.79950    1.000
    C148     C        0.09320    0.17780    0.83670    1.000
    H102     H        0.09100    0.11500    0.83840    1.000
    C149     C        0.11600    0.22230    0.87120    1.000
    H103     H        0.13160    0.19010    0.89490    1.000
    C150     C        0.05230    0.17200    0.75910    1.000
    N47      N        0.02710    0.21110    0.73060    1.000
    C151     C        0.00990    0.16210    0.69600    1.000
    N48      N        0.01720    0.07550    0.69060    1.000
    C152     C        0.04540    0.04270    0.72170    1.000
    N49      N        0.06500    0.08550    0.75690    1.000
    C153     C        0.05480    0.94180    0.72230    1.000
    C154     C        0.03200    0.88490    0.69480    1.000
    H104     H        0.01090    0.90700    0.67330    1.000
    C155     C        0.03940    0.79280    0.69790    1.000
    H105     H        0.02250    0.75240    0.67970    1.000
    N50      N        0.06950    0.76340    0.72580    1.000
    C156     C        0.09210    0.82100    0.75300    1.000
    H106     H        0.11250    0.79740    0.77490    1.000
    C157     C        0.08760    0.91240    0.75120    1.000
    H107     H        0.10570    0.95180    0.76840    1.000
    C158     C        0.97580    0.20510    0.66440    1.000
    C159     C        0.97070    0.29100    0.66630    1.000
    H108     H        0.98870    0.32620    0.68630    1.000
    C160     C        0.93830    0.33160    0.63880    1.000
    H109     H        0.93250    0.39240    0.64270    1.000
    N51      N        0.91560    0.28210    0.60680    1.000
    C161     C        0.92150    0.19780    0.60430    1.000
    H110     H        0.90420    0.16370    0.58280    1.000
    C162     C        0.95320    0.15430    0.63280    1.000
    H111     H        0.95820    0.09270    0.62980    1.000
    I34      I        0.39787    0.66800    0.96670    1.000
    I35      I        0.72176    0.61107    0.37236    1.000
    I36      I        0.58770    0.08500    0.80480    1.000
    C163     C        0.68650    0.97830    0.25800    1.000
    H112     H        0.67840    0.00680    0.23010    1.000
    C164     C        0.69170    0.88670    0.26000    1.000
    H113     H        0.68700    0.85250    0.23340    1.000
    C165     C        0.70360    0.84500    0.30090    1.000
    H114     H        0.70720    0.78230    0.30230    1.000
    C166     C        0.71050    0.89500    0.33980    1.000
    H115     H        0.71860    0.86640    0.36780    1.000
    C167     C        0.70530    0.98700    0.33780    1.000
    H116     H        0.71000    0.02070    0.36440    1.000
    C168     C        0.69340    0.02830    0.29690    1.000
    N52      N        0.68840    0.12330    0.29420    1.000
    O7       O        0.69750    0.16400    0.32870    1.000
    O8       O        0.68100    0.15600    0.25720    1.000
    Zn17     Zn       0.57030    0.11500    0.73570    1.000
    I37      I        0.50990    0.02070    0.70770    1.000
    Zn18     Zn       0.59000    0.11750    0.72090    1.000
    I38      I        0.53010    0.01920    0.69590    1.000
    Zn19     Zn       0.65330    0.61900    0.42870    1.000
    I39      I        0.62610    0.49800    0.47090    1.000
    Zn20     Zn       0.36480    0.65370    0.07370    1.000
    I40      I        0.34880    0.50930    0.10890    1.000
    I41      I        0.38010    0.65870    0.99610    1.000
    I42      I        0.39150    0.79900    0.92480    1.000
    I43      I        0.38250    0.93300    0.86250    1.000
    I44      I        0.63110    0.09450    0.79810    1.000
    I45      I        0.69390    0.77800    0.32790    1.000
    I46      I        0.67290    0.93500    0.28300    1.000
    I47      I        0.60670    0.09880    0.81530    1.000
    I48      I        0.70310    0.58600    0.38170    1.000
    C169     C        0.42700    0.11400    0.91900    1.000
    H117     H        0.44030    0.15670    0.93940    1.000
    C170     C        0.43100    0.02400    0.92800    1.000
    H118     H        0.44770    0.00480    0.95540    1.000
    C171     C        0.41200    0.96200    0.89900    1.000
    H119     H        0.41510    0.90000    0.90500    1.000
    C172     C        0.38800    0.99000    0.85900    1.000
    H120     H        0.37510    0.94700    0.83870    1.000
    C173     C        0.38400    0.08000    0.85000    1.000
    H121     H        0.36770    0.09890    0.82270    1.000
    C174     C        0.40300    0.14200    0.87950    1.000
    N53      N        0.40190    0.23500    0.86820    1.000
    O9       O        0.37800    0.25500    0.83480    1.000
    O10      O        0.41400    0.28700    0.89800    1.000
    C175     C        0.39700    0.03800    0.91000    1.000
    H122     H        0.40910    0.06690    0.93680    1.000
    C176     C        0.39300    0.94600    0.90900    1.000
    H123     H        0.40210    0.91220    0.93510    1.000
    C177     C        0.37600    0.90400    0.87000    1.000
    H124     H        0.37290    0.84110    0.86900    1.000
    C178     C        0.36300    0.95400    0.83100    1.000
    H125     H        0.35070    0.92480    0.80460    1.000
    C179     C        0.36700    0.04600    0.83200    1.000
    H126     H        0.35770    0.07960    0.80640    1.000
    C180     C        0.38400    0.08800    0.87200    1.000
    N54      N        0.39300    0.18100    0.87100    1.000
    O11      O        0.39600    0.21200    0.83500    1.000
    O12      O        0.40700    0.21600    0.90700    1.000
    Zn21     Zn       0.13130    0.66047    0.43597    1.000
    I49      I        0.11704    0.66684    0.51342    1.000
    I50      I        0.14870    0.51742    0.39966    1.000
    Zn22     Zn       0.44140    0.88770    0.27610    1.000
    I51      I        0.50360    0.96020    0.31760    1.000
    Zn23     Zn       0.33665    0.36518    0.59186    1.000
    I52      I        0.36747    0.49123    0.55622    1.000
    Zn24     Zn       0.61691    0.34030    0.95510    1.000
    I53      I        0.63300    0.48465    0.91886    1.000
    Zn25     Zn       0.83963    0.62657    0.08218    1.000
    I54      I        0.87043    0.51110    0.03984    1.000
    I55      I        0.78731    0.60088    0.12778    1.000
    Zn26     Zn       0.91382    0.37078    0.26756    1.000
    I56      I        0.86835    0.39321    0.19243    1.000
    I57      I        0.97378    0.46916    0.29043    1.000
    N55      N        0.39860    0.91300    0.31230    1.000
    C181     C        0.39820    0.98800    0.33350    1.000
    H127     H        0.41560    0.03350    0.32830    1.000
    C182     C        0.37480    0.00600    0.36240    1.000
    H128     H        0.37820    0.05960    0.37880    1.000
    C183     C        0.34620    0.94760    0.36870    1.000
    C184     C        0.34480    0.87110    0.34450    1.000
    H129     H        0.32520    0.82840    0.34620    1.000
    C185     C        0.37110    0.85390    0.31770    1.000
    H130     H        0.36980    0.79850    0.30260    1.000
    C186     C        0.32190    0.96610    0.39910    1.000
    N56      N        0.32820    0.03600    0.42570    1.000
    C187     C        0.30710    0.04030    0.45460    1.000
    N57      N        0.27810    0.98390    0.46130    1.000
    C188     C        0.27250    0.91680    0.43020    1.000
    N58      N        0.29330    0.90330    0.40100    1.000
    C189     C        0.23890    0.85650    0.43490    1.000
    C190     C        0.22170    0.85800    0.46790    1.000
    H131     H        0.23070    0.89700    0.49210    1.000
    C191     C        0.18910    0.80180    0.46870    1.000
    H132     H        0.17640    0.80420    0.49330    1.000
    N59      N        0.17630    0.74630    0.43530    1.000
    C192     C        0.19520    0.74600    0.40060    1.000
    H133     H        0.18630    0.70820    0.37590    1.000
    C193     C        0.22670    0.79920    0.40070    1.000
    H134     H        0.24020    0.79610    0.37680    1.000
    C194     C        0.31100    0.12050    0.48690    1.000
    C195     C        0.34500    0.17140    0.49120    1.000
    H135     H        0.36410    0.15850    0.47410    1.000
    C196     C        0.34960    0.23930    0.52040    1.000
    H136     H        0.37270    0.27350    0.52310    1.000
    N60      N        0.32500    0.26220    0.54540    1.000
    C197     C        0.29240    0.21610    0.54130    1.000
    H137     H        0.27410    0.23060    0.55920    1.000
    C198     C        0.28460    0.14510    0.51020    1.000
    H138     H        0.26030    0.11500    0.50600    1.000
    N61      N        0.37550    0.29740    0.64000    1.000
    C199     C        0.39840    0.34300    0.67030    1.000
    H139     H        0.40050    0.40520    0.66670    1.000
    C200     C        0.42090    0.29990    0.70970    1.000
    H140     H        0.43770    0.33370    0.73170    1.000
    C201     C        0.41740    0.21040    0.71440    1.000
    C202     C        0.39620    0.16910    0.67850    1.000
    H141     H        0.39550    0.10600    0.67860    1.000
    C203     C        0.37540    0.21310    0.64130    1.000
    H142     H        0.36130    0.18010    0.61700    1.000
    C204     C        0.43820    0.16000    0.75350    1.000
    N62      N        0.46380    0.20690    0.78360    1.000
    C205     C        0.48350    0.15370    0.81750    1.000
    N63      N        0.47860    0.06810    0.82160    1.000
    C206     C        0.45270    0.03240    0.78860    1.000
    N64      N        0.43090    0.07600    0.75540    1.000
    C207     C        0.51110    0.19890    0.85010    1.000
    C208     C        0.52280    0.28600    0.84620    1.000
    H143     H        0.50970    0.31820    0.82110    1.000
    C209     C        0.55170    0.32950    0.87530    1.000
    H144     H        0.55790    0.38990    0.87080    1.000
    N65      N        0.57170    0.28020    0.91190    1.000
    C210     C        0.56120    0.20050    0.91680    1.000
    H145     H        0.57590    0.16820    0.94110    1.000
    C211     C        0.53100    0.15700    0.89060    1.000
    H146     H        0.52320    0.09970    0.89890    1.000
    C212     C        0.44790    0.93500    0.78890    1.000
    C213     C        0.47150    0.87600    0.81710    1.000
    H147     H        0.49040    0.89990    0.84070    1.000
    C214     C        0.46930    0.78500    0.81330    1.000
    H148     H        0.48620    0.74890    0.83380    1.000
    N66      N        0.44300    0.74830    0.78020    1.000
    C215     C        0.42100    0.80000    0.74960    1.000
    H149     H        0.40360    0.77300    0.72570    1.000
    C216     C        0.42280    0.89300    0.75170    1.000
    H150     H        0.40760    0.92850    0.72900    1.000
    N67      N        0.66380    0.25520    0.95470    1.000
    C217     C        0.67310    0.25000    0.91480    1.000
    H151     H        0.65770    0.27930    0.89000    1.000
    C218     C        0.70780    0.19700    0.90940    1.000
    H152     H        0.71640    0.19440    0.88200    1.000
    C219     C        0.72680    0.15220    0.94750    1.000
    C220     C        0.71470    0.15760    0.98620    1.000
    H153     H        0.72670    0.12300    0.01110    1.000
    C221     C        0.68400    0.21560    0.98910    1.000
    H154     H        0.67770    0.22610    0.01740    1.000
    C222     C        0.76060    0.09210    0.94310    1.000
    N68      N        0.77940    0.10880    0.91010    1.000
    C223     C        0.80740    0.05640    0.90680    1.000
    N69      N        0.81710    0.98360    0.93200    1.000
    C224     C        0.79560    0.96920    0.96290    1.000
    N70      N        0.76820    0.02370    0.97230    1.000
    C225     C        0.83180    0.07540    0.87570    1.000
    C226     C        0.82180    0.13350    0.83850    1.000
    H155     H        0.79750    0.16320    0.83420    1.000
    C227     C        0.84420    0.14850    0.81000    1.000
    H156     H        0.83510    0.18670    0.78550    1.000
    N71      N        0.88130    0.11030    0.81420    1.000
    C228     C        0.89080    0.05490    0.84990    1.000
    H157     H        0.91540    0.02650    0.85450    1.000
    C229     C        0.86820    0.03780    0.87890    1.000
    H158     H        0.87730    0.99810    0.90280    1.000
    C230     C        0.80370    0.88700    0.99100    1.000
    C231     C        0.83130    0.82500    0.98230    1.000
    H159     H        0.84420    0.83510    0.95840    1.000
    C232     C        0.83940    0.75220    0.00750    1.000
    H160     H        0.85910    0.71290    0.00200    1.000
    N72      N        0.82110    0.73360    0.03910    1.000
    C233     C        0.79340    0.78690    0.04730    1.000
    H161     H        0.77980    0.77130    0.07010    1.000
    C234     C        0.78330    0.86820    0.02260    1.000
    H162     H        0.76340    0.90640    0.02830    1.000
    N73      N        0.88360    0.68720    0.12840    1.000
    C235     C        0.90490    0.64530    0.16190    1.000
    H163     H        0.90560    0.58210    0.16090    1.000
    C236     C        0.92620    0.68680    0.19810    1.000
    H164     H        0.94080    0.65270    0.22180    1.000
    C237     C        0.92660    0.77870    0.20050    1.000
    C238     C        0.90680    0.82220    0.16330    1.000
    H165     H        0.90900    0.88500    0.16160    1.000
    C239     C        0.88400    0.77770    0.12880    1.000
    H166     H        0.86840    0.80990    0.10510    1.000
    C240     C        0.94770    0.82800    0.24090    1.000
    N74      N        0.97290    0.78890    0.26940    1.000
    C241     C        0.99010    0.83790    0.30400    1.000
    N75      N        0.98280    0.92450    0.30940    1.000
    C242     C        0.95460    0.95730    0.27830    1.000
    N76      N        0.93500    0.91450    0.24310    1.000
    C243     C        0.94520    0.05820    0.27770    1.000
    C244     C        0.96800    0.11510    0.30520    1.000
    H167     H        0.98910    0.09300    0.32670    1.000
    C245     C        0.96060    0.20720    0.30210    1.000
    H168     H        0.97750    0.24760    0.32030    1.000
    N77      N        0.93050    0.23660    0.27420    1.000
    C246     C        0.90790    0.17900    0.24700    1.000
    H169     H        0.88750    0.20260    0.22510    1.000
    C247     C        0.91240    0.08760    0.24880    1.000
    H170     H        0.89430    0.04820    0.23160    1.000
    C248     C        0.02420    0.79490    0.33560    1.000
    C249     C        0.02930    0.70900    0.33370    1.000
    H171     H        0.01130    0.67380    0.31370    1.000
    C250     C        0.06170    0.66840    0.36120    1.000
    H172     H        0.06750    0.60760    0.35730    1.000
    N78      N        0.08440    0.71790    0.39320    1.000
    C251     C        0.07850    0.80220    0.39570    1.000
    H173     H        0.09580    0.83630    0.41720    1.000
    C252     C        0.04680    0.84570    0.36720    1.000
    H174     H        0.04180    0.90730    0.37020    1.000
    I58      I        0.60213    0.33200    0.03330    1.000
    I59      I        0.27824    0.38893    0.62764    1.000
    I60      I        0.41230    0.91500    0.19520    1.000
    C253     C        0.31350    0.02170    0.74200    1.000
    H175     H        0.32160    0.99320    0.76990    1.000
    C254     C        0.30830    0.11330    0.74000    1.000
    H176     H        0.31300    0.14750    0.76660    1.000
    C255     C        0.29640    0.15500    0.69910    1.000
    H177     H        0.29280    0.21770    0.69770    1.000
    C256     C        0.28950    0.10500    0.66020    1.000
    H178     H        0.28140    0.13360    0.63220    1.000
    C257     C        0.29470    0.01300    0.66220    1.000
    H179     H        0.29000    0.97930    0.63560    1.000
    C258     C        0.30660    0.97170    0.70310    1.000
    N79      N        0.31160    0.87670    0.70580    1.000
    O13      O        0.30250    0.83600    0.67130    1.000
    O14      O        0.31900    0.84400    0.74280    1.000
    Zn27     Zn       0.42970    0.88500    0.26430    1.000
    I61      I        0.49010    0.97930    0.29230    1.000
    Zn28     Zn       0.41000    0.88250    0.27910    1.000
    I62      I        0.46990    0.98080    0.30410    1.000
    Zn29     Zn       0.34670    0.38100    0.57130    1.000
    I63      I        0.37390    0.50200    0.52910    1.000
    Zn30     Zn       0.63520    0.34630    0.92630    1.000
    I64      I        0.65120    0.49070    0.89110    1.000
    I65      I        0.61990    0.34130    0.00390    1.000
    I66      I        0.60850    0.20100    0.07520    1.000
    I67      I        0.61750    0.06700    0.13750    1.000
    I68      I        0.36890    0.90550    0.20190    1.000
    I69      I        0.30610    0.22200    0.67210    1.000
    I70      I        0.32710    0.06500    0.71700    1.000
    I71      I        0.39330    0.90120    0.18470    1.000
    I72      I        0.29690    0.41400    0.61830    1.000
    C259     C        0.57300    0.88600    0.08100    1.000
    H180     H        0.55970    0.84330    0.06060    1.000
    C260     C        0.56900    0.97600    0.07200    1.000
    H181     H        0.55230    0.99520    0.04460    1.000
    C261     C        0.58800    0.03800    0.10100    1.000
    H182     H        0.58490    0.10000    0.09500    1.000
    C262     C        0.61200    0.01000    0.14100    1.000
    H183     H        0.62490    0.05300    0.16130    1.000
    C263     C        0.61600    0.92000    0.15000    1.000
    H184     H        0.63230    0.90110    0.17730    1.000
    C264     C        0.59700    0.85800    0.12050    1.000
    N80      N        0.59810    0.76500    0.13180    1.000
    O15      O        0.62200    0.74500    0.16520    1.000
    O16      O        0.58600    0.71300    0.10200    1.000
    C265     C        0.60300    0.96200    0.09000    1.000
    H185     H        0.59090    0.93310    0.06320    1.000
    C266     C        0.60700    0.05400    0.09100    1.000
    H186     H        0.59790    0.08780    0.06490    1.000
    C267     C        0.62400    0.09600    0.13000    1.000
    H187     H        0.62710    0.15890    0.13100    1.000
    C268     C        0.63700    0.04600    0.16900    1.000
    H188     H        0.64930    0.07520    0.19540    1.000
    C269     C        0.63300    0.95400    0.16800    1.000
    H189     H        0.64230    0.92040    0.19360    1.000
    C270     C        0.61600    0.91200    0.12800    1.000
    N81      N        0.60700    0.81900    0.12900    1.000
    O17      O        0.60400    0.78800    0.16500    1.000
    O18      O        0.59300    0.78400    0.09300    1.000
    Zn31     Zn       0.13130    0.83953    0.93597    1.000
    I73      I        0.11704    0.83316    0.01342    1.000
    I74      I        0.14870    0.98258    0.89966    1.000
    Zn32     Zn       0.44140    0.61230    0.77610    1.000
    I75      I        0.50360    0.53980    0.81760    1.000
    Zn33     Zn       0.33665    0.13482    0.09186    1.000
    I76      I        0.36747    0.00877    0.05622    1.000
    Zn34     Zn       0.61691    0.15970    0.45510    1.000
    I77      I        0.63300    0.01535    0.41886    1.000
    Zn35     Zn       0.83963    0.87343    0.58218    1.000
    I78      I        0.87043    0.98890    0.53984    1.000
    I79      I        0.78731    0.89912    0.62778    1.000
    Zn36     Zn       0.91382    0.12922    0.76756    1.000
    I80      I        0.86835    0.10679    0.69243    1.000
    I81      I        0.97378    0.03084    0.79043    1.000
    N82      N        0.39860    0.58700    0.81230    1.000
    C271     C        0.39820    0.51200    0.83350    1.000
    H190     H        0.41560    0.46650    0.82830    1.000
    C272     C        0.37480    0.49400    0.86240    1.000
    H191     H        0.37820    0.44040    0.87880    1.000
    C273     C        0.34620    0.55240    0.86870    1.000
    C274     C        0.34480    0.62890    0.84450    1.000
    H192     H        0.32520    0.67160    0.84620    1.000
    C275     C        0.37110    0.64610    0.81770    1.000
    H193     H        0.36980    0.70150    0.80260    1.000
    C276     C        0.32190    0.53390    0.89910    1.000
    N83      N        0.32820    0.46400    0.92570    1.000
    C277     C        0.30710    0.45970    0.95460    1.000
    N84      N        0.27810    0.51610    0.96130    1.000
    C278     C        0.27250    0.58320    0.93020    1.000
    N85      N        0.29330    0.59670    0.90100    1.000
    C279     C        0.23890    0.64350    0.93490    1.000
    C280     C        0.22170    0.64200    0.96790    1.000
    H194     H        0.23070    0.60300    0.99210    1.000
    C281     C        0.18910    0.69820    0.96870    1.000
    H195     H        0.17640    0.69580    0.99330    1.000
    N86      N        0.17630    0.75370    0.93530    1.000
    C282     C        0.19520    0.75400    0.90060    1.000
    H196     H        0.18630    0.79180    0.87590    1.000
    C283     C        0.22670    0.70080    0.90070    1.000
    H197     H        0.24020    0.70390    0.87680    1.000
    C284     C        0.31100    0.37950    0.98690    1.000
    C285     C        0.34500    0.32860    0.99120    1.000
    H198     H        0.36410    0.34150    0.97410    1.000
    C286     C        0.34960    0.26070    0.02040    1.000
    H199     H        0.37270    0.22650    0.02310    1.000
    N87      N        0.32500    0.23780    0.04540    1.000
    C287     C        0.29240    0.28390    0.04130    1.000
    H200     H        0.27410    0.26940    0.05920    1.000
    C288     C        0.28460    0.35490    0.01020    1.000
    H201     H        0.26030    0.38500    0.00600    1.000
    N88      N        0.37550    0.20260    0.14000    1.000
    C289     C        0.39840    0.15700    0.17030    1.000
    H202     H        0.40050    0.09480    0.16670    1.000
    C290     C        0.42090    0.20010    0.20970    1.000
    H203     H        0.43770    0.16630    0.23170    1.000
    C291     C        0.41740    0.28960    0.21440    1.000
    C292     C        0.39620    0.33090    0.17850    1.000
    H204     H        0.39550    0.39400    0.17860    1.000
    C293     C        0.37540    0.28690    0.14130    1.000
    H205     H        0.36130    0.31990    0.11700    1.000
    C294     C        0.43820    0.34000    0.25350    1.000
    N89      N        0.46380    0.29310    0.28360    1.000
    C295     C        0.48350    0.34630    0.31750    1.000
    N90      N        0.47860    0.43190    0.32160    1.000
    C296     C        0.45270    0.46760    0.28860    1.000
    N91      N        0.43090    0.42400    0.25540    1.000
    C297     C        0.51110    0.30110    0.35010    1.000
    C298     C        0.52280    0.21400    0.34620    1.000
    H206     H        0.50970    0.18180    0.32110    1.000
    C299     C        0.55170    0.17050    0.37530    1.000
    H207     H        0.55790    0.11010    0.37080    1.000
    N92      N        0.57170    0.21980    0.41190    1.000
    C300     C        0.56120    0.29950    0.41680    1.000
    H208     H        0.57590    0.33180    0.44110    1.000
    C301     C        0.53100    0.34300    0.39060    1.000
    H209     H        0.52320    0.40030    0.39890    1.000
    C302     C        0.44790    0.56500    0.28890    1.000
    C303     C        0.47150    0.62400    0.31710    1.000
    H210     H        0.49040    0.60010    0.34070    1.000
    C304     C        0.46930    0.71500    0.31330    1.000
    H211     H        0.48620    0.75110    0.33380    1.000
    N93      N        0.44300    0.75170    0.28020    1.000
    C305     C        0.42100    0.70000    0.24960    1.000
    H212     H        0.40360    0.72700    0.22570    1.000
    C306     C        0.42280    0.60700    0.25170    1.000
    H213     H        0.40760    0.57150    0.22900    1.000
    N94      N        0.66380    0.24480    0.45470    1.000
    C307     C        0.67310    0.25000    0.41480    1.000
    H214     H        0.65770    0.22070    0.39000    1.000
    C308     C        0.70780    0.30300    0.40940    1.000
    H215     H        0.71640    0.30560    0.38200    1.000
    C309     C        0.72680    0.34780    0.44750    1.000
    C310     C        0.71470    0.34240    0.48620    1.000
    H216     H        0.72670    0.37700    0.51110    1.000
    C311     C        0.68400    0.28440    0.48910    1.000
    H217     H        0.67770    0.27390    0.51740    1.000
    C312     C        0.76060    0.40790    0.44310    1.000
    N95      N        0.77940    0.39120    0.41010    1.000
    C313     C        0.80740    0.44360    0.40680    1.000
    N96      N        0.81710    0.51640    0.43200    1.000
    C314     C        0.79560    0.53080    0.46290    1.000
    N97      N        0.76820    0.47630    0.47230    1.000
    C315     C        0.83180    0.42460    0.37570    1.000
    C316     C        0.82180    0.36650    0.33850    1.000
    H218     H        0.79750    0.33680    0.33420    1.000
    C317     C        0.84420    0.35150    0.31000    1.000
    H219     H        0.83510    0.31330    0.28550    1.000
    N98      N        0.88130    0.38970    0.31420    1.000
    C318     C        0.89080    0.44510    0.34990    1.000
    H220     H        0.91540    0.47350    0.35450    1.000
    C319     C        0.86820    0.46220    0.37890    1.000
    H221     H        0.87730    0.50190    0.40280    1.000
    C320     C        0.80370    0.61300    0.49100    1.000
    C321     C        0.83130    0.67500    0.48230    1.000
    H222     H        0.84420    0.66490    0.45840    1.000
    C322     C        0.83940    0.74780    0.50750    1.000
    H223     H        0.85910    0.78710    0.50200    1.000
    N99      N        0.82110    0.76640    0.53910    1.000
    C323     C        0.79340    0.71310    0.54730    1.000
    H224     H        0.77980    0.72870    0.57010    1.000
    C324     C        0.78330    0.63180    0.52260    1.000
    H225     H        0.76340    0.59360    0.52830    1.000
    N100     N        0.88360    0.81280    0.62840    1.000
    C325     C        0.90490    0.85470    0.66190    1.000
    H226     H        0.90560    0.91790    0.66090    1.000
    C326     C        0.92620    0.81320    0.69810    1.000
    H227     H        0.94080    0.84730    0.72180    1.000
    C327     C        0.92660    0.72130    0.70050    1.000
    C328     C        0.90680    0.67780    0.66330    1.000
    H228     H        0.90900    0.61500    0.66160    1.000
    C329     C        0.88400    0.72230    0.62880    1.000
    H229     H        0.86840    0.69010    0.60510    1.000
    C330     C        0.94770    0.67200    0.74090    1.000
    N101     N        0.97290    0.71110    0.76940    1.000
    C331     C        0.99010    0.66210    0.80400    1.000
    N102     N        0.98280    0.57550    0.80940    1.000
    C332     C        0.95460    0.54270    0.77830    1.000
    N103     N        0.93500    0.58550    0.74310    1.000
    C333     C        0.94520    0.44180    0.77770    1.000
    C334     C        0.96800    0.38490    0.80520    1.000
    H230     H        0.98910    0.40700    0.82670    1.000
    C335     C        0.96060    0.29280    0.80210    1.000
    H231     H        0.97750    0.25240    0.82030    1.000
    N104     N        0.93050    0.26340    0.77420    1.000
    C336     C        0.90790    0.32100    0.74700    1.000
    H232     H        0.88750    0.29740    0.72510    1.000
    C337     C        0.91240    0.41240    0.74880    1.000
    H233     H        0.89430    0.45180    0.73160    1.000
    C338     C        0.02420    0.70510    0.83560    1.000
    C339     C        0.02930    0.79100    0.83370    1.000
    H234     H        0.01130    0.82620    0.81370    1.000
    C340     C        0.06170    0.83160    0.86120    1.000
    H235     H        0.06750    0.89240    0.85730    1.000
    N105     N        0.08440    0.78210    0.89320    1.000
    C341     C        0.07850    0.69780    0.89570    1.000
    H236     H        0.09580    0.66370    0.91720    1.000
    C342     C        0.04680    0.65430    0.86720    1.000
    H237     H        0.04180    0.59270    0.87020    1.000
    I82      I        0.60213    0.16800    0.53330    1.000
    I83      I        0.27824    0.11107    0.12764    1.000
    I84      I        0.41230    0.58500    0.69520    1.000
    C343     C        0.31350    0.47830    0.24200    1.000
    H238     H        0.32160    0.50680    0.26990    1.000
    C344     C        0.30830    0.38670    0.24000    1.000
    H239     H        0.31300    0.35250    0.26660    1.000
    C345     C        0.29640    0.34500    0.19910    1.000
    H240     H        0.29280    0.28230    0.19770    1.000
    C346     C        0.28950    0.39500    0.16020    1.000
    H241     H        0.28140    0.36640    0.13220    1.000
    C347     C        0.29470    0.48700    0.16220    1.000
    H242     H        0.29000    0.52070    0.13560    1.000
    C348     C        0.30660    0.52830    0.20310    1.000
    N106     N        0.31160    0.62330    0.20580    1.000
    O19      O        0.30250    0.66400    0.17130    1.000
    O20      O        0.31900    0.65600    0.24280    1.000
    Zn37     Zn       0.42970    0.61500    0.76430    1.000
    I85      I        0.49010    0.52070    0.79230    1.000
    Zn38     Zn       0.41000    0.61750    0.77910    1.000
    I86      I        0.46990    0.51920    0.80410    1.000
    Zn39     Zn       0.34670    0.11900    0.07130    1.000
    I87      I        0.37390    0.99800    0.02910    1.000
    Zn40     Zn       0.63520    0.15370    0.42630    1.000
    I88      I        0.65120    0.00930    0.39110    1.000
    I89      I        0.61990    0.15870    0.50390    1.000
    I90      I        0.60850    0.29900    0.57520    1.000
    I91      I        0.61750    0.43300    0.63750    1.000
    I92      I        0.36890    0.59450    0.70190    1.000
    I93      I        0.30610    0.27800    0.17210    1.000
    I94      I        0.32710    0.43500    0.21700    1.000
    I95      I        0.39330    0.59880    0.68470    1.000
    I96      I        0.29690    0.08600    0.11830    1.000
    C349     C        0.57300    0.61400    0.58100    1.000
    H243     H        0.55970    0.65670    0.56060    1.000
    C350     C        0.56900    0.52400    0.57200    1.000
    H244     H        0.55230    0.50480    0.54460    1.000
    C351     C        0.58800    0.46200    0.60100    1.000
    H245     H        0.58490    0.40000    0.59500    1.000
    C352     C        0.61200    0.49000    0.64100    1.000
    H246     H        0.62490    0.44700    0.66130    1.000
    C353     C        0.61600    0.58000    0.65000    1.000
    H247     H        0.63230    0.59890    0.67730    1.000
    C354     C        0.59700    0.64200    0.62050    1.000
    N107     N        0.59810    0.73500    0.63180    1.000
    O21      O        0.62200    0.75500    0.66520    1.000
    O22      O        0.58600    0.78700    0.60200    1.000
    C355     C        0.60300    0.53800    0.59000    1.000
    H248     H        0.59090    0.56690    0.56320    1.000
    C356     C        0.60700    0.44600    0.59100    1.000
    H249     H        0.59790    0.41220    0.56490    1.000
    C357     C        0.62400    0.40400    0.63000    1.000
    H250     H        0.62710    0.34110    0.63100    1.000
    C358     C        0.63700    0.45400    0.66900    1.000
    H251     H        0.64930    0.42480    0.69540    1.000
    C359     C        0.63300    0.54600    0.66800    1.000
    H252     H        0.64230    0.57960    0.69360    1.000
    C360     C        0.61600    0.58800    0.62800    1.000
    N108     N        0.60700    0.68100    0.62900    1.000
    O23      O        0.60400    0.71200    0.66500    1.000
    O24      O        0.59300    0.71600    0.59300    1.000
