# CIF file generated by openbabel 3.1.0, see https://openbabel.org
data_I
_chemical_name_common 'image0'
_cell_length_a 30.846
_cell_length_b 15.773
_cell_length_c 22.189
_cell_angle_alpha 90
_cell_angle_beta 133.134
_cell_angle_gamma 90
_space_group_name_H-M_alt 'P 1'
_space_group_name_Hall 'P 1'
loop_
    _symmetry_equiv_pos_as_xyz
    x,y,z
loop_
    _atom_site_label
    _atom_site_type_symbol
    _atom_site_fract_x
    _atom_site_fract_y
    _atom_site_fract_z
    _atom_site_occupancy
    La1      La       0.62790    0.36364    0.89285    1.000
    La2      La       0.68660    0.62839    0.73405    1.000
    La3      La       0.84739    0.12942    0.20544    1.000
    La4      La       0.90824    0.13748    0.54918    1.000
    N1       N        0.68010    0.50500    0.97690    1.000
    N2       N        0.65040    0.76860    0.75610    1.000
    N3       N        0.88310    0.26910    0.18270    1.000
    N4       N        0.85780    0.99700    0.46320    1.000
    O1       O        0.65050    0.47600    0.83780    1.000
    O2       O        0.68930    0.59620    0.84460    1.000
    O3       O        0.64400    0.38750    0.02050    1.000
    O4       O        0.67610    0.45620    0.12780    1.000
    O5       O        0.76440    0.73430    0.84770    1.000
    O6       O        0.79150    0.84890    0.92370    1.000
    O7       O        0.57720    0.64850    0.65140    1.000
    O8       O        0.49770    0.71850    0.61050    1.000
    O9       O        0.77020    0.23460    0.09270    1.000
    O10      O        0.74010    0.34960    0.01300    1.000
    O11      O        0.95740    0.14530    0.28820    1.000
    O12      O        0.03550    0.21940    0.33170    1.000
    O13      O        0.89670    0.11500    0.42770    1.000
    O14      O        0.85830    0.04590    0.30920    1.000
    O15      O        0.88380    0.02570    0.60250    1.000
    O16      O        0.84080    0.90120    0.59000    1.000
    O17      O        0.98520    0.12910    0.70940    1.000
    H1       H        0.98120    0.17840    0.72050    1.000
    H2       H        0.96140    0.09670    0.70570    1.000
    C1       C        0.68060    0.54300    0.87490    1.000
    C2       C        0.70240    0.55510    0.95990    1.000
    C3       C        0.74210    0.62120    0.01290    1.000
    H3       H        0.75470    0.66000    0.99600    1.000
    C4       C        0.76140    0.62660    0.08970    1.000
    H4       H        0.79310    0.66120    0.13080    1.000
    C5       C        0.73150    0.57840    0.10280    1.000
    H5       H        0.73660    0.58900    0.14850    1.000
    C6       C        0.69380    0.51400    0.04860    1.000
    C7       C        0.66750    0.44740    0.06620    1.000
    C8       C        0.75390    0.80050    0.86600    1.000
    C9       C        0.68900    0.82740    0.81040    1.000
    C10      C        0.67190    0.89960    0.82370    1.000
    H6       H        0.70030    0.93830    0.86360    1.000
    C11      C        0.61190    0.91490    0.77720    1.000
    H7       H        0.59930    0.96320    0.78550    1.000
    C12      C        0.57230    0.85620    0.71900    1.000
    H8       H        0.53170    0.86440    0.68610    1.000
    C13      C        0.59340    0.78200    0.70880    1.000
    C14      C        0.55220    0.71210    0.64900    1.000
    C15      C        0.77950    0.30400    0.07260    1.000
    C16      C        0.84340    0.32500    0.12200    1.000
    C17      C        0.86220    0.40070    0.11460    1.000
    H9       H        0.83540    0.44110    0.07520    1.000
    C18      C        0.92250    0.41310    0.16810    1.000
    H10      H        0.93590    0.46390    0.16440    1.000
    C19      C        0.96470    0.35490    0.22740    1.000
    H11      H        0.00530    0.36460    0.26220    1.000
    C20      C        0.94200    0.28140    0.23090    1.000
    C21      C        0.98140    0.21150    0.28730    1.000
    C22      C        0.86790    0.05230    0.37430    1.000
    C23      C        0.84220    0.98810    0.39020    1.000
    C24      C        0.80350    0.92540    0.33540    1.000
    H12      H        0.79240    0.92030    0.28460    1.000
    C25      C        0.78140    0.86930    0.35820    1.000
    H13      H        0.75920    0.82230    0.32570    1.000
    C26      C        0.79310    0.88500    0.43050    1.000
    H14      H        0.77380    0.85430    0.44200    1.000
    C27      C        0.83240    0.94470    0.48230    1.000
    C28      C        0.85490    0.95820    0.56530    1.000
    La5      La       0.12790    0.86364    0.89285    1.000
    La6      La       0.18660    0.12839    0.73405    1.000
    La7      La       0.34739    0.62942    0.20544    1.000
    La8      La       0.40824    0.63748    0.54918    1.000
    N5       N        0.18010    0.00500    0.97690    1.000
    N6       N        0.15040    0.26860    0.75610    1.000
    N7       N        0.38310    0.76910    0.18270    1.000
    N8       N        0.35780    0.49700    0.46320    1.000
    O18      O        0.15050    0.97600    0.83780    1.000
    O19      O        0.18930    0.09620    0.84460    1.000
    O20      O        0.14400    0.88750    0.02050    1.000
    O21      O        0.17610    0.95620    0.12780    1.000
    O22      O        0.26440    0.23430    0.84770    1.000
    O23      O        0.29150    0.34890    0.92370    1.000
    O24      O        0.07720    0.14850    0.65140    1.000
    O25      O        0.99770    0.21850    0.61050    1.000
    O26      O        0.27020    0.73460    0.09270    1.000
    O27      O        0.24010    0.84960    0.01300    1.000
    O28      O        0.45740    0.64530    0.28820    1.000
    O29      O        0.53550    0.71940    0.33170    1.000
    O30      O        0.39670    0.61500    0.42770    1.000
    O31      O        0.35830    0.54590    0.30920    1.000
    O32      O        0.38380    0.52570    0.60250    1.000
    O33      O        0.34080    0.40120    0.59000    1.000
    O34      O        0.48520    0.62910    0.70940    1.000
    H15      H        0.48120    0.67840    0.72050    1.000
    H16      H        0.46140    0.59670    0.70570    1.000
    C29      C        0.18060    0.04300    0.87490    1.000
    C30      C        0.20240    0.05510    0.95990    1.000
    C31      C        0.24210    0.12120    0.01290    1.000
    H17      H        0.25470    0.16000    0.99600    1.000
    C32      C        0.26140    0.12660    0.08970    1.000
    H18      H        0.29310    0.16120    0.13080    1.000
    C33      C        0.23150    0.07840    0.10280    1.000
    H19      H        0.23660    0.08900    0.14850    1.000
    C34      C        0.19380    0.01400    0.04860    1.000
    C35      C        0.16750    0.94740    0.06620    1.000
    C36      C        0.25390    0.30050    0.86600    1.000
    C37      C        0.18900    0.32740    0.81040    1.000
    C38      C        0.17190    0.39960    0.82370    1.000
    H20      H        0.20030    0.43830    0.86360    1.000
    C39      C        0.11190    0.41490    0.77720    1.000
    H21      H        0.09930    0.46320    0.78550    1.000
    C40      C        0.07230    0.35620    0.71900    1.000
    H22      H        0.03170    0.36440    0.68610    1.000
    C41      C        0.09340    0.28200    0.70880    1.000
    C42      C        0.05220    0.21210    0.64900    1.000
    C43      C        0.27950    0.80400    0.07260    1.000
    C44      C        0.34340    0.82500    0.12200    1.000
    C45      C        0.36220    0.90070    0.11460    1.000
    H23      H        0.33540    0.94110    0.07520    1.000
    C46      C        0.42250    0.91310    0.16810    1.000
    H24      H        0.43590    0.96390    0.16440    1.000
    C47      C        0.46470    0.85490    0.22740    1.000
    H25      H        0.50530    0.86460    0.26220    1.000
    C48      C        0.44200    0.78140    0.23090    1.000
    C49      C        0.48140    0.71150    0.28730    1.000
    C50      C        0.36790    0.55230    0.37430    1.000
    C51      C        0.34220    0.48810    0.39020    1.000
    C52      C        0.30350    0.42540    0.33540    1.000
    H26      H        0.29240    0.42030    0.28460    1.000
    C53      C        0.28140    0.36930    0.35820    1.000
    H27      H        0.25920    0.32230    0.32570    1.000
    C54      C        0.29310    0.38500    0.43050    1.000
    H28      H        0.27380    0.35430    0.44200    1.000
    C55      C        0.33240    0.44470    0.48230    1.000
    C56      C        0.35490    0.45820    0.56530    1.000
    La9      La       0.62790    0.63636    0.39285    1.000
    La10     La       0.68660    0.37161    0.23405    1.000
    La11     La       0.84739    0.87058    0.70544    1.000
    La12     La       0.90824    0.86252    0.04918    1.000
    N9       N        0.68010    0.49500    0.47690    1.000
    N10      N        0.65040    0.23140    0.25610    1.000
    N11      N        0.88310    0.73090    0.68270    1.000
    N12      N        0.85780    0.00300    0.96320    1.000
    O35      O        0.65050    0.52400    0.33780    1.000
    O36      O        0.68930    0.40380    0.34460    1.000
    O37      O        0.64400    0.61250    0.52050    1.000
    O38      O        0.67610    0.54380    0.62780    1.000
    O39      O        0.76440    0.26570    0.34770    1.000
    O40      O        0.79150    0.15110    0.42370    1.000
    O41      O        0.57720    0.35150    0.15140    1.000
    O42      O        0.49770    0.28150    0.11050    1.000
    O43      O        0.77020    0.76540    0.59270    1.000
    O44      O        0.74010    0.65040    0.51300    1.000
    O45      O        0.95740    0.85470    0.78820    1.000
    O46      O        0.03550    0.78060    0.83170    1.000
    O47      O        0.89670    0.88500    0.92770    1.000
    O48      O        0.85830    0.95410    0.80920    1.000
    O49      O        0.88380    0.97430    0.10250    1.000
    O50      O        0.84080    0.09880    0.09000    1.000
    O51      O        0.98520    0.87090    0.20940    1.000
    H29      H        0.98120    0.82160    0.22050    1.000
    H30      H        0.96140    0.90330    0.20570    1.000
    C57      C        0.68060    0.45700    0.37490    1.000
    C58      C        0.70240    0.44490    0.45990    1.000
    C59      C        0.74210    0.37880    0.51290    1.000
    H31      H        0.75470    0.34000    0.49600    1.000
    C60      C        0.76140    0.37340    0.58970    1.000
    H32      H        0.79310    0.33880    0.63080    1.000
    C61      C        0.73150    0.42160    0.60280    1.000
    H33      H        0.73660    0.41100    0.64850    1.000
    C62      C        0.69380    0.48600    0.54860    1.000
    C63      C        0.66750    0.55260    0.56620    1.000
    C64      C        0.75390    0.19950    0.36600    1.000
    C65      C        0.68900    0.17260    0.31040    1.000
    C66      C        0.67190    0.10040    0.32370    1.000
    H34      H        0.70030    0.06170    0.36360    1.000
    C67      C        0.61190    0.08510    0.27720    1.000
    H35      H        0.59930    0.03680    0.28550    1.000
    C68      C        0.57230    0.14380    0.21900    1.000
    H36      H        0.53170    0.13560    0.18610    1.000
    C69      C        0.59340    0.21800    0.20880    1.000
    C70      C        0.55220    0.28790    0.14900    1.000
    C71      C        0.77950    0.69600    0.57260    1.000
    C72      C        0.84340    0.67500    0.62200    1.000
    C73      C        0.86220    0.59930    0.61460    1.000
    H37      H        0.83540    0.55890    0.57520    1.000
    C74      C        0.92250    0.58690    0.66810    1.000
    H38      H        0.93590    0.53610    0.66440    1.000
    C75      C        0.96470    0.64510    0.72740    1.000
    H39      H        0.00530    0.63540    0.76220    1.000
    C76      C        0.94200    0.71860    0.73090    1.000
    C77      C        0.98140    0.78850    0.78730    1.000
    C78      C        0.86790    0.94770    0.87430    1.000
    C79      C        0.84220    0.01190    0.89020    1.000
    C80      C        0.80350    0.07460    0.83540    1.000
    H40      H        0.79240    0.07970    0.78460    1.000
    C81      C        0.78140    0.13070    0.85820    1.000
    H41      H        0.75920    0.17770    0.82570    1.000
    C82      C        0.79310    0.11500    0.93050    1.000
    H42      H        0.77380    0.14570    0.94200    1.000
    C83      C        0.83240    0.05530    0.98230    1.000
    C84      C        0.85490    0.04180    0.06530    1.000
    La13     La       0.12790    0.13636    0.39285    1.000
    La14     La       0.18660    0.87161    0.23405    1.000
    La15     La       0.34739    0.37058    0.70544    1.000
    La16     La       0.40824    0.36252    0.04918    1.000
    N13      N        0.18010    0.99500    0.47690    1.000
    N14      N        0.15040    0.73140    0.25610    1.000
    N15      N        0.38310    0.23090    0.68270    1.000
    N16      N        0.35780    0.50300    0.96320    1.000
    O52      O        0.15050    0.02400    0.33780    1.000
    O53      O        0.18930    0.90380    0.34460    1.000
    O54      O        0.14400    0.11250    0.52050    1.000
    O55      O        0.17610    0.04380    0.62780    1.000
    O56      O        0.26440    0.76570    0.34770    1.000
    O57      O        0.29150    0.65110    0.42370    1.000
    O58      O        0.07720    0.85150    0.15140    1.000
    O59      O        0.99770    0.78150    0.11050    1.000
    O60      O        0.27020    0.26540    0.59270    1.000
    O61      O        0.24010    0.15040    0.51300    1.000
    O62      O        0.45740    0.35470    0.78820    1.000
    O63      O        0.53550    0.28060    0.83170    1.000
    O64      O        0.39670    0.38500    0.92770    1.000
    O65      O        0.35830    0.45410    0.80920    1.000
    O66      O        0.38380    0.47430    0.10250    1.000
    O67      O        0.34080    0.59880    0.09000    1.000
    O68      O        0.48520    0.37090    0.20940    1.000
    H43      H        0.48120    0.32160    0.22050    1.000
    H44      H        0.46140    0.40330    0.20570    1.000
    C85      C        0.18060    0.95700    0.37490    1.000
    C86      C        0.20240    0.94490    0.45990    1.000
    C87      C        0.24210    0.87880    0.51290    1.000
    H45      H        0.25470    0.84000    0.49600    1.000
    C88      C        0.26140    0.87340    0.58970    1.000
    H46      H        0.29310    0.83880    0.63080    1.000
    C89      C        0.23150    0.92160    0.60280    1.000
    H47      H        0.23660    0.91100    0.64850    1.000
    C90      C        0.19380    0.98600    0.54860    1.000
    C91      C        0.16750    0.05260    0.56620    1.000
    C92      C        0.25390    0.69950    0.36600    1.000
    C93      C        0.18900    0.67260    0.31040    1.000
    C94      C        0.17190    0.60040    0.32370    1.000
    H48      H        0.20030    0.56170    0.36360    1.000
    C95      C        0.11190    0.58510    0.27720    1.000
    H49      H        0.09930    0.53680    0.28550    1.000
    C96      C        0.07230    0.64380    0.21900    1.000
    H50      H        0.03170    0.63560    0.18610    1.000
    C97      C        0.09340    0.71800    0.20880    1.000
    C98      C        0.05220    0.78790    0.14900    1.000
    C99      C        0.27950    0.19600    0.57260    1.000
    C100     C        0.34340    0.17500    0.62200    1.000
    C101     C        0.36220    0.09930    0.61460    1.000
    H51      H        0.33540    0.05890    0.57520    1.000
    C102     C        0.42250    0.08690    0.66810    1.000
    H52      H        0.43590    0.03610    0.66440    1.000
    C103     C        0.46470    0.14510    0.72740    1.000
    H53      H        0.50530    0.13540    0.76220    1.000
    C104     C        0.44200    0.21860    0.73090    1.000
    C105     C        0.48140    0.28850    0.78730    1.000
    C106     C        0.36790    0.44770    0.87430    1.000
    C107     C        0.34220    0.51190    0.89020    1.000
    C108     C        0.30350    0.57460    0.83540    1.000
    H54      H        0.29240    0.57970    0.78460    1.000
    C109     C        0.28140    0.63070    0.85820    1.000
    H55      H        0.25920    0.67770    0.82570    1.000
    C110     C        0.29310    0.61500    0.93050    1.000
    H56      H        0.27380    0.64570    0.94200    1.000
    C111     C        0.33240    0.55530    0.98230    1.000
    C112     C        0.35490    0.54180    0.06530    1.000
