data_functionalizedCrystal
_audit_creation_method	'EQeq! by Chris Wilmer'
_symmetry_space_group_name_H-M	'P1'
_symmetry_Int_Tables_number	1
_symmetry_cell_setting	triclinic
loop_
_symmetry_equiv_pos_as_xyz
  x,y,z
_cell_length_a	18.3471
_cell_length_b	18.3471
_cell_length_c	18.3471
_cell_angle_alpha	60
_cell_angle_beta	60
_cell_angle_gamma	60
loop_
_atom_site_label
_atom_site_type_symbol
_atom_site_fract_x
_atom_site_fract_y
_atom_site_fract_z
_atom_site_charge
Mof_Cu	Cu	7.80988e-17	0.4292	0.5708	0.809
Mof_Cu	Cu	0.4292	0	-0	0.687
Mof_Cu	Cu	0.5708	0	-0	0.699
Mof_Cu	Cu	5.20658e-17	0.5708	0.4292	0.809
Mof_Cu	Cu	5.20658e-17	0.5708	-0	0.699
Mof_Cu	Cu	0.4292	0	0.5708	0.809
Mof_Cu	Cu	0.5708	2.60329e-17	0.4292	0.809
Mof_Cu	Cu	-0	0.4292	-0	0.687
Mof_Cu	Cu	-0	2.60329e-17	0.4292	0.687
Mof_Cu	Cu	0.4292	0.5708	-0	0.809
Mof_Cu	Cu	0.5708	0.4292	-0	0.809
Mof_Cu	Cu	5.20658e-17	0	0.5708	0.699
Mof_H 	H 	0.9641	0.2725	0.4909	0.071
Mof_H 	H 	0.2725	0.9641	0.2725	0.048
Mof_H 	H 	0.4909	0.2725	0.9641	0.071
Mof_H 	H 	0.2725	0.4909	0.2725	0.005
Mof_H 	H 	0.9641	0.4909	0.2725	0.071
Mof_H 	H 	0.2725	0.2725	0.4909	0.005
Mof_H 	H 	0.4909	0.9641	0.2725	0.071
Mof_H 	H 	0.2725	0.2725	0.9641	0.048
Mof_H 	H 	0.9641	0.2725	0.2725	0.048
Mof_H 	H 	0.2725	0.4909	0.9641	0.071
Mof_H 	H 	0.4909	0.2725	0.2725	0.005
Mof_H 	H 	0.2725	0.9641	0.4909	0.071
Mof_H 	H 	0.7275	0.0359	0.5091	0.027
Mof_H 	H 	0.0359	0.7275	0.7275	0.053
Mof_H 	H 	0.7275	0.5091	0.0359	0.027
Mof_H 	H 	0.5091	0.7275	0.7275	0.087
Mof_H 	H 	0.5091	0.0359	0.7275	0.027
Mof_H 	H 	0.7275	0.7275	0.5091	0.087
Mof_H 	H 	0.0359	0.5091	0.7275	0.027
Mof_H 	H 	0.7275	0.7275	0.0359	0.053
Mof_H 	H 	0.7275	0.0359	0.7275	0.053
Mof_H 	H 	0.5091	0.7275	0.0359	0.027
Mof_H 	H 	0.7275	0.5091	0.7275	0.087
Mof_H 	H 	0.0359	0.7275	0.5091	0.027
Mof_C 	C 	0.9637	0.3025	0.4313	0.053
Mof_C 	C 	0.3025	0.9637	0.3025	0.055
Mof_C 	C 	0.4313	0.3025	0.9637	0.053
Mof_C 	C 	0.3025	0.4313	0.3025	0.089
Mof_C 	C 	0.9637	0.4313	0.3025	0.053
Mof_C 	C 	0.3025	0.3025	0.4313	0.089
Mof_C 	C 	0.4313	0.9637	0.3025	0.053
Mof_C 	C 	0.3025	0.3025	0.9637	0.055
Mof_C 	C 	0.9637	0.3025	0.3025	0.055
Mof_C 	C 	0.3025	0.4313	0.9637	0.053
Mof_C 	C 	0.4313	0.3025	0.3025	0.089
Mof_C 	C 	0.3025	0.9637	0.4313	0.053
Mof_C 	C 	0.6975	0.0363	0.5687	0.069
Mof_C 	C 	0.0363	0.6975	0.6975	0.064
Mof_C 	C 	0.6975	0.5687	0.0363	0.069
Mof_C 	C 	0.5687	0.6975	0.6975	0.046
Mof_C 	C 	0.5687	0.0363	0.6975	0.069
Mof_C 	C 	0.6975	0.6975	0.5687	0.046
Mof_C 	C 	0.0363	0.5687	0.6975	0.069
Mof_C 	C 	0.6975	0.6975	0.0363	0.064
Mof_C 	C 	0.6975	0.0363	0.6975	0.064
Mof_C 	C 	0.5687	0.6975	0.0363	0.069
Mof_C 	C 	0.6975	0.5687	0.6975	0.046
Mof_C 	C 	0.0363	0.6975	0.5687	0.069
Mof_C 	C 	0.9625	0.3891	0.3891	-0.08
Mof_C 	C 	0.9774	0.4306	0.4306	0.351
Mof_C 	C 	0.3891	0.9625	0.2593	-0.094
Mof_C 	C 	0.4306	0.9774	0.1614	0.347
Mof_C 	C 	0.3891	0.2593	0.9625	-0.094
Mof_C 	C 	0.4306	0.1614	0.9774	0.347
Mof_C 	C 	0.2593	0.3891	0.3891	-0.177
Mof_C 	C 	0.1614	0.4306	0.4306	0.367
Mof_C 	C 	0.9625	0.3891	0.2593	-0.094
Mof_C 	C 	0.9774	0.4306	0.1614	0.347
Mof_C 	C 	0.3891	0.2593	0.3891	-0.177
Mof_C 	C 	0.4306	0.1614	0.4306	0.367
Mof_C 	C 	0.3891	0.9625	0.3891	-0.08
Mof_C 	C 	0.4306	0.9774	0.4306	0.351
Mof_C 	C 	0.2593	0.3891	0.9625	-0.094
Mof_C 	C 	0.1614	0.4306	0.9774	0.347
Mof_C 	C 	0.9625	0.2593	0.3891	-0.094
Mof_C 	C 	0.9774	0.1614	0.4306	0.347
Mof_C 	C 	0.3891	0.3891	0.9625	-0.08
Mof_C 	C 	0.4306	0.4306	0.9774	0.351
Mof_C 	C 	0.3891	0.3891	0.2593	-0.177
Mof_C 	C 	0.4306	0.4306	0.1614	0.367
Mof_C 	C 	0.2593	0.9625	0.3891	-0.094
Mof_C 	C 	0.1614	0.9774	0.4306	0.347
Mof_C 	C 	0.6109	0.0375	0.6109	-0.145
Mof_C 	C 	0.5694	0.0226	0.5694	0.364
Mof_C 	C 	0.0375	0.6109	0.7407	-0.123
Mof_C 	C 	0.0226	0.5694	0.8386	0.347
Mof_C 	C 	0.7407	0.6109	0.0375	-0.123
Mof_C 	C 	0.8386	0.5694	0.0226	0.347
Mof_C 	C 	0.6109	0.7407	0.6109	-0.059
Mof_C 	C 	0.5694	0.8386	0.5694	0.35
Mof_C 	C 	0.6109	0.0375	0.7407	-0.123
Mof_C 	C 	0.5694	0.0226	0.8386	0.347
Mof_C 	C 	0.7407	0.6109	0.6109	-0.059
Mof_C 	C 	0.8386	0.5694	0.5694	0.35
Mof_C 	C 	0.0375	0.6109	0.6109	-0.145
Mof_C 	C 	0.0226	0.5694	0.5694	0.364
Mof_C 	C 	0.6109	0.7407	0.0375	-0.123
Mof_C 	C 	0.5694	0.8386	0.0226	0.347
Mof_C 	C 	0.7407	0.0375	0.6109	-0.123
Mof_C 	C 	0.8386	0.0226	0.5694	0.347
Mof_C 	C 	0.6109	0.6109	0.0375	-0.145
Mof_C 	C 	0.5694	0.5694	0.0226	0.364
Mof_C 	C 	0.6109	0.6109	0.7407	-0.059
Mof_C 	C 	0.5694	0.5694	0.8386	0.35
Mof_C 	C 	0.0375	0.7407	0.6109	-0.123
Mof_C 	C 	0.0226	0.8386	0.5694	0.347
Mof_O 	O 	0.9796	0.3872	0.5094	-0.29
Mof_O 	O 	0.3872	0.9796	0.1238	-0.352
Mof_O 	O 	0.5094	0.1238	0.9796	-0.332
Mof_O 	O 	0.1238	0.5094	0.3872	-0.478
Mof_O 	O 	0.9796	0.5094	0.1238	-0.332
Mof_O 	O 	0.3872	0.1238	0.5094	-0.478
Mof_O 	O 	0.5094	0.9796	0.3872	-0.29
Mof_O 	O 	0.1238	0.3872	0.9796	-0.352
Mof_O 	O 	0.9796	0.1238	0.3872	-0.352
Mof_O 	O 	0.3872	0.5094	0.9796	-0.29
Mof_O 	O 	0.5094	0.3872	0.1238	-0.478
Mof_O 	O 	0.1238	0.9796	0.5094	-0.332
Mof_O 	O 	0.6128	0.0204	0.4906	-0.466
Mof_O 	O 	0.0204	0.6128	0.8762	-0.344
Mof_O 	O 	0.8762	0.4906	0.0204	-0.364
Mof_O 	O 	0.4906	0.8762	0.6128	-0.282
Mof_O 	O 	0.4906	0.0204	0.8762	-0.364
Mof_O 	O 	0.8762	0.6128	0.4906	-0.282
Mof_O 	O 	0.0204	0.4906	0.6128	-0.466
Mof_O 	O 	0.6128	0.8762	0.0204	-0.344
Mof_O 	O 	0.8762	0.0204	0.6128	-0.344
Mof_O 	O 	0.4906	0.6128	0.0204	-0.466
Mof_O 	O 	0.6128	0.4906	0.8762	-0.282
Mof_O 	O 	0.0204	0.8762	0.4906	-0.364
Mof_O 	O 	0.0204	0.6128	0.4906	-0.466
Mof_O 	O 	0.6128	0.0204	0.8762	-0.344
Mof_O 	O 	0.4906	0.8762	0.0204	-0.364
Mof_O 	O 	0.8762	0.4906	0.6128	-0.282
Mof_O 	O 	0.0204	0.4906	0.8762	-0.364
Mof_O 	O 	0.6128	0.8762	0.4906	-0.282
Mof_O 	O 	0.4906	0.0204	0.6128	-0.466
Mof_O 	O 	0.8762	0.6128	0.0204	-0.344
Mof_O 	O 	0.0204	0.8762	0.6128	-0.344
Mof_O 	O 	0.6128	0.4906	0.0204	-0.466
Mof_O 	O 	0.4906	0.6128	0.8762	-0.282
Mof_O 	O 	0.8762	0.0204	0.4906	-0.364
Mof_O 	O 	0.3872	0.9796	0.5094	-0.29
Mof_O 	O 	0.9796	0.3872	0.1238	-0.352
Mof_O 	O 	0.1238	0.5094	0.9796	-0.332
Mof_O 	O 	0.5094	0.1238	0.3872	-0.478
Mof_O 	O 	0.5094	0.9796	0.1238	-0.332
Mof_O 	O 	0.1238	0.3872	0.5094	-0.478
Mof_O 	O 	0.9796	0.5094	0.3872	-0.29
Mof_O 	O 	0.3872	0.1238	0.9796	-0.352
Mof_O 	O 	0.1238	0.9796	0.3872	-0.352
Mof_O 	O 	0.5094	0.3872	0.9796	-0.29
Mof_O 	O 	0.3872	0.5094	0.1238	-0.478
Mof_O 	O 	0.9796	0.1238	0.5094	-0.332
_end
