# CIF file generated by openbabel 3.1.0, see https://openbabel.org
data_I
_chemical_name_common 'image0'
_cell_length_a 13.4846
_cell_length_b 13.4846
_cell_length_c 8.032
_cell_angle_alpha 90
_cell_angle_beta 90
_cell_angle_gamma 120
_space_group_name_H-M_alt 'P 1'
_space_group_name_Hall 'P 1'
loop_
    _symmetry_equiv_pos_as_xyz
    x,y,z
loop_
    _atom_site_label
    _atom_site_type_symbol
    _atom_site_fract_x
    _atom_site_fract_y
    _atom_site_fract_z
    _atom_site_occupancy
    Mn1      Mn       0.30142    0.33873    0.54463    1.000
    O1       O        0.22620    0.18127    0.40320    1.000
    C1       C        0.53360    0.32250    0.54810    1.000
    C2       C        0.35330    0.55930    0.77860    1.000
    O2       O        0.24040    0.05749    0.24240    1.000
    C3       C        0.26450    0.15770    0.27700    1.000
    N1       N        0.34850    0.21040    0.99930    1.000
    H1       H        0.41390    0.25880    0.94600    1.000
    H2       H        0.28890    0.20090    0.93690    1.000
    C4       C        0.34520    0.25520    0.16260    1.000
    H3       H        0.42210    0.28660    0.20990    1.000
    N2       N        0.36650    0.42900    0.30210    1.000
    H4       H        0.34880    0.48500    0.29470    1.000
    H5       H        0.44330    0.46230    0.30130    1.000
    C5       C        0.32070    0.35480    0.15410    1.000
    H6       H        0.35550    0.39960    0.05460    1.000
    H7       H        0.23870    0.32460    0.14720    1.000
    N3       N        0.45400    0.32030    0.60370    1.000
    N4       N        0.36690    0.49930    0.69290    1.000
    Mn2      Mn       0.66127    0.96269    0.54463    1.000
    O3       O        0.81873    0.04493    0.40320    1.000
    C6       C        0.67750    0.21110    0.54810    1.000
    C7       C        0.44070    0.79400    0.77860    1.000
    O4       O        0.94251    0.18291    0.24240    1.000
    C8       C        0.84230    0.10680    0.27700    1.000
    N5       N        0.78960    0.13810    0.99930    1.000
    H8       H        0.74120    0.15510    0.94600    1.000
    H9       H        0.79910    0.08800    0.93690    1.000
    C9       C        0.74480    0.09000    0.16260    1.000
    H10      H        0.71340    0.13550    0.20990    1.000
    N6       N        0.57100    0.93750    0.30210    1.000
    H11      H        0.51500    0.86380    0.29470    1.000
    H12      H        0.53770    0.98100    0.30130    1.000
    C10      C        0.64520    0.96590    0.15410    1.000
    H13      H        0.60040    0.95590    0.05460    1.000
    H14      H        0.67540    0.91410    0.14720    1.000
    N7       N        0.67970    0.13370    0.60370    1.000
    N8       N        0.50070    0.86760    0.69290    1.000
    Mn3      Mn       0.03731    0.69858    0.54463    1.000
    O5       O        0.95507    0.77380    0.40320    1.000
    C11      C        0.78890    0.46640    0.54810    1.000
    C12      C        0.20600    0.64670    0.77860    1.000
    O6       O        0.81709    0.75960    0.24240    1.000
    C13      C        0.89320    0.73550    0.27700    1.000
    N9       N        0.86190    0.65150    0.99930    1.000
    H15      H        0.84490    0.58610    0.94600    1.000
    H16      H        0.91200    0.71110    0.93690    1.000
    C14      C        0.91000    0.65480    0.16260    1.000
    H17      H        0.86450    0.57790    0.20990    1.000
    N10      N        0.06250    0.63350    0.30210    1.000
    H18      H        0.13620    0.65120    0.29470    1.000
    H19      H        0.01900    0.55670    0.30130    1.000
    C15      C        0.03410    0.67930    0.15410    1.000
    H20      H        0.04410    0.64450    0.05460    1.000
    H21      H        0.08590    0.76130    0.14720    1.000
    N11      N        0.86630    0.54600    0.60370    1.000
    N12      N        0.13240    0.63310    0.69290    1.000
    Mn4      Mn       0.69858    0.66127    0.04463    1.000
    O7       O        0.77380    0.81873    0.90320    1.000
    C16      C        0.46640    0.67750    0.04810    1.000
    C17      C        0.64670    0.44070    0.27860    1.000
    O8       O        0.75960    0.94251    0.74240    1.000
    C18      C        0.73550    0.84230    0.77700    1.000
    N13      N        0.65150    0.78960    0.49930    1.000
    H22      H        0.58610    0.74120    0.44600    1.000
    H23      H        0.71110    0.79910    0.43690    1.000
    C19      C        0.65480    0.74480    0.66260    1.000
    H24      H        0.57790    0.71340    0.70990    1.000
    N14      N        0.63350    0.57100    0.80210    1.000
    H25      H        0.65120    0.51500    0.79470    1.000
    H26      H        0.55670    0.53770    0.80130    1.000
    C20      C        0.67930    0.64520    0.65410    1.000
    H27      H        0.64450    0.60040    0.55460    1.000
    H28      H        0.76130    0.67540    0.64720    1.000
    N15      N        0.54600    0.67970    0.10370    1.000
    N16      N        0.63310    0.50070    0.19290    1.000
    Mn5      Mn       0.33873    0.03731    0.04463    1.000
    O9       O        0.18127    0.95507    0.90320    1.000
    C21      C        0.32250    0.78890    0.04810    1.000
    C22      C        0.55930    0.20600    0.27860    1.000
    O10      O        0.05749    0.81709    0.74240    1.000
    C23      C        0.15770    0.89320    0.77700    1.000
    N17      N        0.21040    0.86190    0.49930    1.000
    H29      H        0.25880    0.84490    0.44600    1.000
    H30      H        0.20090    0.91200    0.43690    1.000
    C24      C        0.25520    0.91000    0.66260    1.000
    H31      H        0.28660    0.86450    0.70990    1.000
    N18      N        0.42900    0.06250    0.80210    1.000
    H32      H        0.48500    0.13620    0.79470    1.000
    H33      H        0.46230    0.01900    0.80130    1.000
    C25      C        0.35480    0.03410    0.65410    1.000
    H34      H        0.39960    0.04410    0.55460    1.000
    H35      H        0.32460    0.08590    0.64720    1.000
    N19      N        0.32030    0.86630    0.10370    1.000
    N20      N        0.49930    0.13240    0.19290    1.000
    Mn6      Mn       0.96269    0.30142    0.04463    1.000
    O11      O        0.04493    0.22620    0.90320    1.000
    C26      C        0.21110    0.53360    0.04810    1.000
    C27      C        0.79400    0.35330    0.27860    1.000
    O12      O        0.18291    0.24040    0.74240    1.000
    C28      C        0.10680    0.26450    0.77700    1.000
    N21      N        0.13810    0.34850    0.49930    1.000
    H36      H        0.15510    0.41390    0.44600    1.000
    H37      H        0.08800    0.28890    0.43690    1.000
    C29      C        0.09000    0.34520    0.66260    1.000
    H38      H        0.13550    0.42210    0.70990    1.000
    N22      N        0.93750    0.36650    0.80210    1.000
    H39      H        0.86380    0.34880    0.79470    1.000
    H40      H        0.98100    0.44330    0.80130    1.000
    C30      C        0.96590    0.32070    0.65410    1.000
    H41      H        0.95590    0.35550    0.55460    1.000
    H42      H        0.91410    0.23870    0.64720    1.000
    N23      N        0.13370    0.45400    0.10370    1.000
    N24      N        0.86760    0.36690    0.19290    1.000
    Mn7      Mn       0.33333    0.66667    0.92480    1.000
    Mn8      Mn       0.66667    0.33333    0.42480    1.000
