data_functionalizedCrystal
_audit_creation_method	'EQeq! by Chris Wilmer'
_symmetry_space_group_name_H-M	'P1'
_symmetry_Int_Tables_number	1
_symmetry_cell_setting	triclinic
loop_
_symmetry_equiv_pos_as_xyz
  x,y,z
_cell_length_a	6.7923
_cell_length_b	15.1003
_cell_length_c	15.1003
_cell_angle_alpha	62.207
_cell_angle_beta	81.3768
_cell_angle_gamma	98.6232
loop_
_atom_site_label
_atom_site_type_symbol
_atom_site_fract_x
_atom_site_fract_y
_atom_site_fract_z
_atom_site_charge
Mof_Co	Co	0.2988	0.2675	0.3159	1.167
Mof_Co	Co	0.6147	0.3159	0.4166	1.168
Mof_Co	Co	0.0313	0.4166	0.2675	1.169
Mof_Co	Co	0.7012	0.7325	0.6841	1.17
Mof_Co	Co	0.3853	0.6841	0.5834	1.17
Mof_Co	Co	0.9687	0.5834	0.7325	1.168
Mof_C 	C 	0.2399	0.3872	0.4374	0.44
Mof_C 	C 	0.1135	0.447	0.4657	-0.166
Mof_C 	C 	0.9288	0.467	0.4338	0.181
Mof_C 	C 	0.179	0.4813	0.5291	-0.023
Mof_C 	C 	0.6773	0.4374	0.1754	0.437
Mof_C 	C 	0.5792	0.4657	0.0873	-0.156
Mof_C 	C 	0.3626	0.4338	0.0992	0.158
Mof_C 	C 	0.7081	0.5291	0.9896	-0.031
Mof_C 	C 	0.8527	0.1754	0.3872	0.438
Mof_C 	C 	0.6665	0.0873	0.447	-0.167
Mof_C 	C 	0.4618	0.0992	0.467	0.181
Mof_C 	C 	0.6977	0.9896	0.4813	-0.023
Mof_C 	C 	0.7601	0.6128	0.5626	0.441
Mof_C 	C 	0.8865	0.553	0.5343	-0.171
Mof_C 	C 	0.0712	0.533	0.5662	0.186
Mof_C 	C 	0.821	0.5187	0.4709	-0.02
Mof_C 	C 	0.3227	0.5626	0.8246	0.451
Mof_C 	C 	0.4208	0.5343	0.9127	-0.192
Mof_C 	C 	0.6374	0.5662	0.9008	0.194
Mof_C 	C 	0.2919	0.4709	0.0104	0.043
Mof_C 	C 	0.1473	0.8246	0.6128	0.491
Mof_C 	C 	0.3335	0.9127	0.553	-0.178
Mof_C 	C 	0.5382	0.9008	0.533	0.188
Mof_C 	C 	0.3023	0.0104	0.5187	-0.017
Mof_N 	N 	0.381	0.1767	0.2437	-0.13
Mof_N 	N 	0.6247	0.2437	0.5796	-0.131
Mof_N 	N 	0.2043	0.5796	0.1767	-0.13
Mof_N 	N 	0.619	0.8233	0.7563	-0.13
Mof_N 	N 	0.3753	0.7563	0.4204	-0.129
Mof_N 	N 	0.7957	0.4204	0.8233	-0.13
Mof_O 	O 	0.173	0.348	0.385	-0.565
Mof_O 	O 	0.3754	0.3585	0.4783	-0.429
Mof_O 	O 	0.8624	0.4526	0.3594	-0.466
Mof_O 	O 	0.4626	0.1898	0.144	-0.075
Mof_O 	O 	0.558	0.385	0.267	-0.564
Mof_O 	O 	0.8537	0.4783	0.1632	-0.425
Mof_O 	O 	0.2218	0.3594	0.188	-0.457
Mof_O 	O 	0.6066	0.144	0.6662	-0.077
Mof_O 	O 	0.825	0.267	0.348	-0.564
Mof_O 	O 	0.0169	0.1632	0.3585	-0.427
Mof_O 	O 	0.4098	0.188	0.4526	-0.466
Mof_O 	O 	0.2728	0.6662	0.1898	-0.076
Mof_O 	O 	0.827	0.652	0.615	-0.562
Mof_O 	O 	0.6246	0.6415	0.5217	-0.428
Mof_O 	O 	0.1376	0.5474	0.6406	-0.465
Mof_O 	O 	0.5374	0.8102	0.856	-0.076
Mof_O 	O 	0.442	0.615	0.733	-0.567
Mof_O 	O 	0.1463	0.5217	0.8368	-0.425
Mof_O 	O 	0.7782	0.6406	0.812	-0.469
Mof_O 	O 	0.3934	0.856	0.3338	-0.073
Mof_O 	O 	0.175	0.733	0.652	-0.571
Mof_O 	O 	0.9831	0.8368	0.6415	-0.439
Mof_O 	O 	0.5902	0.812	0.5474	-0.465
Mof_O 	O 	0.7272	0.3338	0.8102	-0.076
Mof_H 	H 	0.32784	0.46742	0.55308	0.067
Mof_H 	H 	0.88092	0.55308	0.9795	0.072
Mof_H 	H 	0.86042	0.9795	0.46742	0.069
Mof_H 	H 	0.67216	0.53258	0.44692	0.067
Mof_H 	H 	0.11018	0.82536	0.54132	-0.052
Mof_H 	H 	0.13958	0.0205	0.53258	0.067
_end
