# CIF file generated by openbabel 3.1.0, see https://openbabel.org
data_I
_chemical_name_common 'image0'
_cell_length_a 6.6169
_cell_length_b 9.43
_cell_length_c 9.4642
_cell_angle_alpha 107.577
_cell_angle_beta 107.725
_cell_angle_gamma 93.2088
_space_group_name_H-M_alt 'P 1'
_space_group_name_Hall 'P 1'
loop_
    _symmetry_equiv_pos_as_xyz
    x,y,z
loop_
    _atom_site_label
    _atom_site_type_symbol
    _atom_site_fract_x
    _atom_site_fract_y
    _atom_site_fract_z
    _atom_site_occupancy
    O1       O        0.25330    0.93290    0.01700    1.000
    O2       O        0.49470    0.17840    0.17360    1.000
    O3       O        0.17960    0.17040    0.16640    1.000
    O4       O        0.96250    0.91150    0.16700    1.000
    O5       O        0.63830    0.89560    0.15470    1.000
    C1       C        0.36380    0.23200    0.23070    1.000
    C2       C        0.44310    0.34700    0.39330    1.000
    C3       C        0.65030    0.43670    0.39130    1.000
    C4       C        0.27940    0.43880    0.44670    1.000
    C5       C        0.82700    0.89040    0.23126    1.000
    C6       C        0.88080    0.84670    0.37470    1.000
    C7       C        0.74860    0.95110    0.44970    1.000
    C8       C        0.88180    0.09290    0.55250    1.000
    O6       O        0.74670    0.06710    0.98300    1.000
    O7       O        0.50530    0.82160    0.82640    1.000
    O8       O        0.82040    0.82960    0.83360    1.000
    O9       O        0.03750    0.08850    0.83300    1.000
    O10      O        0.36170    0.10440    0.84530    1.000
    C9       C        0.63620    0.76800    0.76930    1.000
    C10      C        0.55690    0.65300    0.60670    1.000
    C11      C        0.34970    0.56330    0.60870    1.000
    C12      C        0.72060    0.56120    0.55330    1.000
    C13      C        0.17300    0.10960    0.76874    1.000
    C14      C        0.11920    0.15330    0.62530    1.000
    C15      C        0.25140    0.04890    0.55030    1.000
    C16      C        0.11820    0.90710    0.44750    1.000
    Al1      Al       0.00000    0.00000    0.00000    1.000
    Al2      Al       0.50000    0.00000    0.00000    1.000
