data_functionalizedCrystal
_audit_creation_method	'EQeq! by Chris Wilmer'
_symmetry_space_group_name_H-M	'P1'
_symmetry_Int_Tables_number	1
_symmetry_cell_setting	triclinic
loop_
_symmetry_equiv_pos_as_xyz
  x,y,z
_cell_length_a	8.953
_cell_length_b	8.953
_cell_length_c	21.929
_cell_angle_alpha	90
_cell_angle_beta	90
_cell_angle_gamma	120
loop_
_atom_site_label
_atom_site_type_symbol
_atom_site_fract_x
_atom_site_fract_y
_atom_site_fract_z
_atom_site_charge
Mof_Cd	Cd	1.6583e-32	1.6583e-32	0.37498	0.249
Mof_C 	C 	-8.29151e-33	0	0.4761	-0.008
Mof_N 	N 	1.6583e-32	0	0.5239	-0.159
Mof_Cd	Cd	0.66667	0.33333	0.70831	0.279
Mof_C 	C 	0.66667	0.33333	0.80943	0.002
Mof_N 	N 	0.66667	0.33333	0.85723	-0.156
Mof_Cd	Cd	0.33333	0.66667	0.04165	0.276
Mof_C 	C 	0.33333	0.66667	0.14277	0.002
Mof_N 	N 	0.33333	0.66667	0.19057	-0.156
Mof_Cd	Cd	-1.6583e-32	0	0.62502	0.271
Mof_Cd	Cd	0.66667	0.33333	0.95835	0.298
Mof_Cd	Cd	0.33333	0.66667	0.29169	0.302
Mof_C 	C 	0.1338	0.8662	0.3411	-0.058
Mof_C 	C 	0.80047	0.19953	0.67443	-0.073
Mof_C 	C 	0.46713	0.53287	0.00777	-0.07
Mof_C 	C 	0.1338	0.2676	0.3411	-0.075
Mof_C 	C 	0.80047	0.60093	0.67443	-0.074
Mof_C 	C 	0.46713	0.93427	0.00777	-0.035
Mof_C 	C 	0.7324	0.8662	0.3411	-0.043
Mof_C 	C 	0.39907	0.19953	0.67443	-0.072
Mof_C 	C 	0.06573	0.53287	0.00777	-0.105
Mof_C 	C 	0.8662	0.1338	0.6589	-0.057
Mof_C 	C 	0.53287	0.46713	0.99223	-0.069
Mof_C 	C 	0.19953	0.80047	0.32557	-0.072
Mof_C 	C 	0.2676	0.1338	0.6589	-0.074
Mof_C 	C 	0.93427	0.46713	0.99223	-0.034
Mof_C 	C 	0.60093	0.80047	0.32557	-0.073
Mof_C 	C 	0.8662	0.7324	0.6589	-0.041
Mof_C 	C 	0.53287	0.06573	0.99223	-0.104
Mof_C 	C 	0.19953	0.39907	0.32557	-0.071
_end
