data_functionalizedCrystal
_audit_creation_method	'EQeq! by Chris Wilmer'
_symmetry_space_group_name_H-M	'P1'
_symmetry_Int_Tables_number	1
_symmetry_cell_setting	triclinic
loop_
_symmetry_equiv_pos_as_xyz
  x,y,z
_cell_length_a	7.247
_cell_length_b	15.5873
_cell_length_c	19.337
_cell_angle_alpha	106.369
_cell_angle_beta	90
_cell_angle_gamma	103.442
loop_
_atom_site_label
_atom_site_type_symbol
_atom_site_fract_x
_atom_site_fract_y
_atom_site_fract_z
_atom_site_charge
Mof_Mn	Mn	0.83875	0.35366	0.08992	0.889
Mof_Mn	Mn	0.87062	0.58406	0.04905	0.884
Mof_Mn	Mn	0.39981	0.56908	0.23072	0.861
Mof_Mn	Mn	0.51491	0.35366	0.58992	0.908
Mof_Mn	Mn	0.71344	0.58406	0.54905	0.909
Mof_Mn	Mn	0.16927	0.56908	0.73072	0.872
Mof_H 	H 	0.3685	0.2166	0.2023	0.081
Mof_H 	H 	0.2235	0.2386	0.4058	0.077
Mof_H 	H 	0.502	0.4644	0.354	0.034
Mof_H 	H 	0.9956	0.9512	0.1075	0.105
Mof_H 	H 	0.8171	0.8014	0.0871	-0.024
Mof_H 	H 	0.8427	0.8306	0.3001	-0.009
Mof_H 	H 	0.0192	0.9826	0.3225	0.129
Mof_H 	H 	0.3269	0.7882	0.3062	0.002
Mof_H 	H 	0.4904	0.9378	0.3581	0.085
Mof_H 	H 	0.5111	0.983	0.1621	0.085
Mof_H 	H 	0.3401	0.8318	0.1098	0.014
Mof_H 	H 	0.6822	0.2234	0.3974	0.073
Mof_H 	H 	0.0018	0.459	0.3709	0.068
Mof_H 	H 	0.8821	0.2288	0.2028	0.056
Mof_H 	H 	0.8481	0.2166	0.7023	0.081
Mof_H 	H 	0.0151	0.2386	0.9058	0.096
Mof_H 	H 	0.9624	0.4644	0.854	0.031
Mof_H 	H 	0.9556	0.9512	0.6075	0.086
Mof_H 	H 	0.9843	0.8014	0.5871	-0.006
Mof_H 	H 	0.9879	0.8306	0.8001	0.011
Mof_H 	H 	0.9634	0.9826	0.8225	0.087
Mof_H 	H 	0.4613	0.7882	0.8062	0.001
Mof_H 	H 	0.4474	0.9378	0.8581	0.088
Mof_H 	H 	0.4719	0.983	0.6621	0.088
Mof_H 	H 	0.4917	0.8318	0.6098	0.013
Mof_H 	H 	0.5412	0.2234	0.8974	0.074
Mof_H 	H 	0.4572	0.459	0.8709	0.049
Mof_H 	H 	0.3467	0.2288	0.7028	0.062
Mof_C 	C 	0.5601	0.392	0.2161	0.339
Mof_C 	C 	0.4527	0.347	0.2697	-0.061
Mof_C 	C 	0.3656	0.2532	0.2493	-0.065
Mof_C 	C 	0.2725	0.2148	0.302	0.103
Mof_C 	C 	0.2777	0.266	0.3714	-0.074
Mof_C 	C 	0.3645	0.3608	0.3919	-0.062
Mof_C 	C 	0.3716	0.4164	0.4692	0.328
Mof_C 	C 	0.4485	0.4014	0.341	0.005
Mof_C 	C 	0.021	0.9808	0.2153	0.197
Mof_C 	C 	0.9645	0.9274	0.1461	-0.244
Mof_C 	C 	0.8602	0.8372	0.134	0.139
Mof_C 	C 	0.8194	0.7998	0.1909	-0.192
Mof_C 	C 	0.7031	0.7012	0.1758	0.4
Mof_C 	C 	0.8752	0.855	0.2617	0.136
Mof_C 	C 	0.9789	0.946	0.2756	-0.245
Mof_C 	C 	0.1995	0.6974	0.1685	0.374
Mof_C 	C 	0.3161	0.7932	0.2022	-0.146
Mof_C 	C 	0.3632	0.827	0.2774	0.084
Mof_C 	C 	0.4617	0.9164	0.3084	-0.164
Mof_C 	C 	0.5193	0.9758	0.2658	0.122
Mof_C 	C 	0.4736	0.9438	0.1907	-0.151
Mof_C 	C 	0.3716	0.853	0.1593	0.076
Mof_C 	C 	0.7686	0.2084	0.2947	0.087
Mof_C 	C 	0.7511	0.2552	0.368	-0.054
Mof_C 	C 	0.8387	0.3504	0.3962	-0.078
Mof_C 	C 	0.7995	0.4	0.4694	0.368
Mof_C 	C 	0.9431	0.3968	0.3522	-0.003
Mof_C 	C 	0.9612	0.3516	0.2804	-0.085
Mof_C 	C 	0.0718	0.4028	0.2322	0.372
Mof_C 	C 	0.8724	0.2582	0.2513	-0.051
Mof_C 	C 	0.8319	0.392	0.7161	0.339
Mof_C 	C 	0.8943	0.347	0.7697	-0.063
Mof_C 	C 	0.8876	0.2532	0.7493	-0.071
Mof_C 	C 	0.9423	0.2148	0.802	0.107
Mof_C 	C 	0.9883	0.266	0.8714	-0.101
Mof_C 	C 	0.9963	0.3608	0.8919	-0.07
Mof_C 	C 	0.0448	0.4164	0.9692	0.346
Mof_C 	C 	0.9529	0.4014	0.841	0.005
Mof_C 	C 	0.9598	0.9808	0.7153	0.126
Mof_C 	C 	0.9629	0.9274	0.6461	-0.176
Mof_C 	C 	0.977	0.8372	0.634	0.089
Mof_C 	C 	0.9804	0.7998	0.6909	-0.15
Mof_C 	C 	0.9981	0.7012	0.6758	0.371
Mof_C 	C 	0.9798	0.855	0.7617	0.077
Mof_C 	C 	0.9671	0.946	0.7756	-0.156
Mof_C 	C 	0.4979	0.6974	0.6685	0.377
Mof_C 	C 	0.4771	0.7932	0.7022	-0.149
Mof_C 	C 	0.4638	0.827	0.7774	0.087
Mof_C 	C 	0.4547	0.9164	0.8084	-0.166
Mof_C 	C 	0.4565	0.9758	0.7658	0.127
Mof_C 	C 	0.4702	0.9438	0.6907	-0.153
Mof_C 	C 	0.4814	0.853	0.6593	0.079
Mof_C 	C 	0.4398	0.2084	0.7947	0.09
Mof_C 	C 	0.5041	0.2552	0.868	-0.047
Mof_C 	C 	0.5117	0.3504	0.8962	-0.087
Mof_C 	C 	0.6005	0.4	0.9694	0.383
Mof_C 	C 	0.4537	0.3968	0.8522	0.026
Mof_C 	C 	0.3904	0.3516	0.7804	-0.078
Mof_C 	C 	0.331	0.4028	0.7322	0.363
Mof_C 	C 	0.3858	0.2582	0.7513	-0.049
Mof_N 	N 	0.1799	0.1194	0.2886	-0.076
Mof_N 	N 	0.1216	0.0762	0.2251	-0.079
Mof_N 	N 	0.6202	0.0678	0.3017	-0.074
Mof_N 	N 	0.68	0.1156	0.2611	-0.079
Mof_N 	N 	0.9395	0.1194	0.7886	-0.081
Mof_N 	N 	0.9546	0.0762	0.7251	-0.074
Mof_N 	N 	0.4476	0.0678	0.8017	-0.071
Mof_N 	N 	0.4356	0.1156	0.7611	-0.076
Mof_O 	O 	0.60273	0.33826	0.1592	-0.349
Mof_O 	O 	0.60197	0.47834	0.232	-0.337
Mof_O 	O 	0.45431	0.50122	0.4862	-0.358
Mof_O 	O 	0.30113	0.37686	0.5164	-0.326
Mof_O 	O 	0.64556	0.67532	0.2308	-0.375
Mof_O 	O 	0.6722	0.6524	0.1127	-0.386
Mof_O 	O 	0.11784	0.68128	0.1072	-0.364
Mof_O 	O 	0.18126	0.63892	0.204	-0.336
Mof_O 	O 	0.69879	0.35418	0.5064	-0.387
Mof_O 	O 	0.86608	0.48636	0.4914	-0.37
Mof_O 	O 	0.16657	0.48394	0.2631	-0.367
Mof_O 	O 	0.06001	0.36402	0.1649	-0.37
Mof_O 	O 	0.87413	0.50966	0.1374	-0.268
Mof_O 	O 	0.73553	0.33826	0.6592	-0.351
Mof_O 	O 	0.87637	0.47834	0.732	-0.342
Mof_O 	O 	0.04691	0.50122	0.9862	-0.348
Mof_O 	O 	0.07573	0.37686	0.0164	-0.332
Mof_O 	O 	0.02976	0.67532	0.7308	-0.356
Mof_O 	O 	0.9802	0.6524	0.6127	-0.383
Mof_O 	O 	0.56344	0.68128	0.6072	-0.372
Mof_O 	O 	0.45766	0.63892	0.704	-0.341
Mof_O 	O 	0.65539	0.35418	0.0064	-0.397
Mof_O 	O 	0.62028	0.48636	0.9914	-0.362
Mof_O 	O 	0.31737	0.48394	0.7631	-0.366
Mof_O 	O 	0.30401	0.36402	0.6649	-0.374
Mof_O 	O 	0.63553	0.50966	0.6374	-0.264
_end
