# CIF file generated by openbabel 3.1.0, see https://openbabel.org
data_I
_chemical_name_common 'image0'
_cell_length_a 11.8819
_cell_length_b 5.5555
_cell_length_c 22.6411
_cell_angle_alpha 90
_cell_angle_beta 101.302
_cell_angle_gamma 90
_space_group_name_H-M_alt 'P 1'
_space_group_name_Hall 'P 1'
loop_
    _symmetry_equiv_pos_as_xyz
    x,y,z
loop_
    _atom_site_label
    _atom_site_type_symbol
    _atom_site_fract_x
    _atom_site_fract_y
    _atom_site_fract_z
    _atom_site_occupancy
    Ca1      Ca       0.10216    0.73476    0.04209    1.000
    S1       S        0.39234    0.52469    0.10458    1.000
    O1       O        0.90738    0.59270    0.02680    1.000
    O2       O        0.38235    0.96160    0.38006    1.000
    O3       O        0.37900    0.26740    0.09805    1.000
    O4       O        0.86789    0.98380    0.02963    1.000
    O5       O        0.30944    0.68290    0.06774    1.000
    O6       O        0.39372    0.56610    0.39920    1.000
    C1       C        0.39875    0.69640    0.30054    1.000
    C2       C        0.39781    0.59780    0.18083    1.000
    C3       C        0.52786    0.60150    0.08913    1.000
    C4       C        0.73430    0.70870    0.05665    1.000
    C5       C        0.44349    0.47920    0.28465    1.000
    H1       H        0.47330    0.36480    0.31490    1.000
    C6       C        0.84398    0.76680    0.03573    1.000
    C7       C        0.71987    0.48720    0.08301    1.000
    H2       H        0.78060    0.37310    0.08940    1.000
    C8       C        0.35538    0.86500    0.25628    1.000
    H3       H        0.32690    0.01440    0.26760    1.000
    C9       C        0.39155    0.74570    0.36557    1.000
    C10      C        0.61600    0.43340    0.09995    1.000
    H4       H        0.60570    0.28400    0.11860    1.000
    C11      C        0.44452    0.43020    0.22446    1.000
    H5       H        0.47660    0.28440    0.21330    1.000
    C12      C        0.54223    0.82610    0.06440    1.000
    H6       H        0.48200    0.94140    0.05860    1.000
    C13      C        0.35342    0.81670    0.19571    1.000
    H7       H        0.32270    0.93000    0.16540    1.000
    C14      C        0.64667    0.87790    0.04840    1.000
    H8       H        0.65820    0.03060    0.03160    1.000
    Ca2      Ca       0.39784    0.23476    0.45791    1.000
    S2       S        0.10766    0.02469    0.39542    1.000
    O7       O        0.59262    0.09270    0.47320    1.000
    O8       O        0.11765    0.46160    0.11994    1.000
    O9       O        0.12100    0.76740    0.40195    1.000
    O10      O        0.63211    0.48380    0.47037    1.000
    O11      O        0.19056    0.18290    0.43226    1.000
    O12      O        0.10628    0.06610    0.10080    1.000
    C15      C        0.10125    0.19640    0.19946    1.000
    C16      C        0.10219    0.09780    0.31917    1.000
    C17      C        0.97214    0.10150    0.41087    1.000
    C18      C        0.76570    0.20870    0.44335    1.000
    C19      C        0.05651    0.97920    0.21535    1.000
    H9       H        0.02670    0.86480    0.18510    1.000
    C20      C        0.65602    0.26680    0.46427    1.000
    C21      C        0.78013    0.98720    0.41699    1.000
    H10      H        0.71940    0.87310    0.41060    1.000
    C22      C        0.14462    0.36500    0.24372    1.000
    H11      H        0.17310    0.51440    0.23240    1.000
    C23      C        0.10845    0.24570    0.13443    1.000
    C24      C        0.88400    0.93340    0.40005    1.000
    H12      H        0.89430    0.78400    0.38140    1.000
    C25      C        0.05548    0.93020    0.27554    1.000
    H13      H        0.02340    0.78440    0.28670    1.000
    C26      C        0.95777    0.32610    0.43560    1.000
    H14      H        0.01800    0.44140    0.44140    1.000
    C27      C        0.14658    0.31670    0.30429    1.000
    H15      H        0.17730    0.43000    0.33460    1.000
    C28      C        0.85333    0.37790    0.45160    1.000
    H16      H        0.84180    0.53060    0.46840    1.000
    Ca3      Ca       0.89784    0.26524    0.95791    1.000
    S3       S        0.60766    0.47531    0.89542    1.000
    O13      O        0.09262    0.40730    0.97320    1.000
    O14      O        0.61765    0.03840    0.61994    1.000
    O15      O        0.62100    0.73260    0.90195    1.000
    O16      O        0.13211    0.01620    0.97037    1.000
    O17      O        0.69056    0.31710    0.93226    1.000
    O18      O        0.60628    0.43390    0.60080    1.000
    C29      C        0.60125    0.30360    0.69946    1.000
    C30      C        0.60219    0.40220    0.81917    1.000
    C31      C        0.47214    0.39850    0.91087    1.000
    C32      C        0.26570    0.29130    0.94335    1.000
    C33      C        0.55651    0.52080    0.71535    1.000
    H17      H        0.52670    0.63520    0.68510    1.000
    C34      C        0.15602    0.23320    0.96427    1.000
    C35      C        0.28013    0.51280    0.91699    1.000
    H18      H        0.21940    0.62690    0.91060    1.000
    C36      C        0.64462    0.13500    0.74372    1.000
    H19      H        0.67310    0.98560    0.73240    1.000
    C37      C        0.60845    0.25430    0.63443    1.000
    C38      C        0.38400    0.56660    0.90005    1.000
    H20      H        0.39430    0.71600    0.88140    1.000
    C39      C        0.55548    0.56980    0.77554    1.000
    H21      H        0.52340    0.71560    0.78670    1.000
    C40      C        0.45777    0.17390    0.93560    1.000
    H22      H        0.51800    0.05860    0.94140    1.000
    C41      C        0.64658    0.18330    0.80429    1.000
    H23      H        0.67730    0.07000    0.83460    1.000
    C42      C        0.35333    0.12210    0.95160    1.000
    H24      H        0.34180    0.96940    0.96840    1.000
    Ca4      Ca       0.60216    0.76524    0.54209    1.000
    S4       S        0.89234    0.97531    0.60458    1.000
    O19      O        0.40738    0.90730    0.52680    1.000
    O20      O        0.88235    0.53840    0.88006    1.000
    O21      O        0.87900    0.23260    0.59805    1.000
    O22      O        0.36789    0.51620    0.52963    1.000
    O23      O        0.80944    0.81710    0.56774    1.000
    O24      O        0.89372    0.93390    0.89920    1.000
    C43      C        0.89875    0.80360    0.80054    1.000
    C44      C        0.89781    0.90220    0.68083    1.000
    C45      C        0.02786    0.89850    0.58913    1.000
    C46      C        0.23430    0.79130    0.55665    1.000
    C47      C        0.94349    0.02080    0.78465    1.000
    H25      H        0.97330    0.13520    0.81490    1.000
    C48      C        0.34398    0.73320    0.53573    1.000
    C49      C        0.21987    0.01280    0.58301    1.000
    H26      H        0.28060    0.12690    0.58940    1.000
    C50      C        0.85538    0.63500    0.75628    1.000
    H27      H        0.82690    0.48560    0.76760    1.000
    C51      C        0.89155    0.75430    0.86557    1.000
    C52      C        0.11600    0.06660    0.59995    1.000
    H28      H        0.10570    0.21600    0.61860    1.000
    C53      C        0.94452    0.06980    0.72446    1.000
    H29      H        0.97660    0.21560    0.71330    1.000
    C54      C        0.04223    0.67390    0.56440    1.000
    H30      H        0.98200    0.55860    0.55860    1.000
    C55      C        0.85342    0.68330    0.69571    1.000
    H31      H        0.82270    0.57000    0.66540    1.000
    C56      C        0.14667    0.62210    0.54840    1.000
    H32      H        0.15820    0.46940    0.53160    1.000
