data_functionalizedCrystal
_audit_creation_method	'EQeq! by Chris Wilmer'
_symmetry_space_group_name_H-M	'P1'
_symmetry_Int_Tables_number	1
_symmetry_cell_setting	triclinic
loop_
_symmetry_equiv_pos_as_xyz
  x,y,z
_cell_length_a	11.3749
_cell_length_b	12.7239
_cell_length_c	14.801
_cell_angle_alpha	90
_cell_angle_beta	90
_cell_angle_gamma	90
loop_
_atom_site_label
_atom_site_type_symbol
_atom_site_fract_x
_atom_site_fract_y
_atom_site_fract_z
_atom_site_charge
Mof_Zn	Zn	1.21968e-33	0	0.25	1.135
Mof_Zn	Zn	3.65903e-33	0	0.75	1.135
Mof_H 	H 	0.5887	0.8436	0.2268	0.07
Mof_H 	H 	0.7924	0.848	0.2283	0.011
Mof_H 	H 	0.1961	0.7175	0.1367	0.052
Mof_H 	H 	0.3307	0.5826	0.1361	0.058
Mof_H 	H 	0.4113	0.1564	0.2268	0.076
Mof_H 	H 	0.2076	0.152	0.2283	-0.022
Mof_H 	H 	0.8039	0.2825	0.1367	0.071
Mof_H 	H 	0.6693	0.4174	0.1361	0.064
Mof_H 	H 	0.4113	0.8436	0.2732	0.07
Mof_H 	H 	0.2076	0.848	0.2717	-0.032
Mof_H 	H 	0.8039	0.7175	0.3633	0.074
Mof_H 	H 	0.6693	0.5826	0.3639	0.063
Mof_H 	H 	0.5887	0.1564	0.2732	0.075
Mof_H 	H 	0.7924	0.152	0.2717	0.019
Mof_H 	H 	0.1961	0.2825	0.3633	0.048
Mof_H 	H 	0.3307	0.4174	0.3639	0.057
Mof_H 	H 	0.4113	0.1564	0.7732	0.075
Mof_H 	H 	0.2076	0.152	0.7717	-0.023
Mof_H 	H 	0.8039	0.2825	0.8633	0.072
Mof_H 	H 	0.6693	0.4174	0.8639	0.065
Mof_H 	H 	0.5887	0.8436	0.7732	0.068
Mof_H 	H 	0.7924	0.848	0.7717	0.009
Mof_H 	H 	0.1961	0.7175	0.8633	0.052
Mof_H 	H 	0.3307	0.5826	0.8639	0.058
Mof_H 	H 	0.5887	0.1564	0.7268	0.075
Mof_H 	H 	0.7924	0.152	0.7283	0.019
Mof_H 	H 	0.1961	0.2825	0.6367	0.048
Mof_H 	H 	0.3307	0.4174	0.6361	0.056
Mof_H 	H 	0.4113	0.8436	0.7268	0.07
Mof_H 	H 	0.2076	0.848	0.7283	-0.032
Mof_H 	H 	0.8039	0.7175	0.6367	0.074
Mof_H 	H 	0.6693	0.5826	0.6361	0.063
Mof_C 	C 	0.0392	0.84939	0.08053	0.11
Mof_C 	C 	0.4181	0.4112	0.0806	0.087
Mof_C 	C 	0.6284	0.9084	0.23648	-0.051
Mof_C 	C 	0.7503	0.9116	0.23727	0.109
Mof_C 	C 	0.2219	0.6892	0.0807	-0.078
Mof_C 	C 	0.3023	0.6097	0.0804	-0.056
Mof_C 	C 	0.9608	0.15061	0.08053	0.16
Mof_C 	C 	0.5819	0.5888	0.0806	0.107
Mof_C 	C 	0.3716	0.0916	0.23648	-0.119
Mof_C 	C 	0.2497	0.0884	0.23727	0.056
Mof_C 	C 	0.7781	0.3108	0.0807	-0.076
Mof_C 	C 	0.6977	0.3903	0.0804	-0.042
Mof_C 	C 	0.9608	0.84939	0.41947	0.183
Mof_C 	C 	0.5819	0.4112	0.4194	0.103
Mof_C 	C 	0.3716	0.9084	0.26352	-0.066
Mof_C 	C 	0.2497	0.9116	0.26273	0.119
Mof_C 	C 	0.7781	0.6892	0.4193	-0.077
Mof_C 	C 	0.6977	0.6097	0.4196	-0.037
Mof_C 	C 	0.0392	0.15061	0.41947	0.084
Mof_C 	C 	0.4181	0.5888	0.4194	0.091
Mof_C 	C 	0.6284	0.0916	0.26352	-0.103
Mof_C 	C 	0.7503	0.0884	0.26273	0.055
Mof_C 	C 	0.2219	0.3108	0.4193	-0.078
Mof_C 	C 	0.3023	0.3903	0.4196	-0.058
Mof_C 	C 	0.9608	0.15061	0.91947	0.152
Mof_C 	C 	0.5819	0.5888	0.9194	0.099
Mof_C 	C 	0.3716	0.0916	0.76352	-0.12
Mof_C 	C 	0.2497	0.0884	0.76273	0.055
Mof_C 	C 	0.7781	0.3108	0.9193	-0.083
Mof_C 	C 	0.6977	0.3903	0.9196	-0.048
Mof_C 	C 	0.0392	0.84939	0.91947	0.102
Mof_C 	C 	0.4181	0.4112	0.9194	0.079
Mof_C 	C 	0.6284	0.9084	0.76352	-0.051
Mof_C 	C 	0.7503	0.9116	0.76273	0.108
Mof_C 	C 	0.2219	0.6892	0.9193	-0.084
Mof_C 	C 	0.3023	0.6097	0.9196	-0.063
Mof_C 	C 	0.0392	0.15061	0.58053	0.084
Mof_C 	C 	0.4181	0.5888	0.5806	0.091
Mof_C 	C 	0.6284	0.0916	0.73648	-0.104
Mof_C 	C 	0.7503	0.0884	0.73727	0.055
Mof_C 	C 	0.2219	0.3108	0.5807	-0.078
Mof_C 	C 	0.3023	0.3903	0.5804	-0.058
Mof_C 	C 	0.9608	0.84939	0.58053	0.183
Mof_C 	C 	0.5819	0.4112	0.5806	0.103
Mof_C 	C 	0.3716	0.9084	0.73648	-0.067
Mof_C 	C 	0.2497	0.9116	0.73727	0.119
Mof_C 	C 	0.7781	0.6892	0.5807	-0.077
Mof_C 	C 	0.6977	0.6097	0.5804	-0.037
Mof_C 	C 	0.565	0	0.25	-0.005
Mof_C 	C 	0.435	0	0.25	0.002
Mof_C 	C 	0.435	0	0.75	0.001
Mof_C 	C 	0.565	0	0.75	-0.006
Mof_C 	C 	0.1764	0.7299	-0	0.075
Mof_C 	C 	0.433	0.4794	-0	-0.061
Mof_C 	C 	0.3431	0.5678	-0	0.044
Mof_C 	C 	0.0852	0.8097	-0	-0.141
Mof_C 	C 	0.8236	0.2701	-0	0.097
Mof_C 	C 	0.567	0.5206	-0	-0.062
Mof_C 	C 	0.6569	0.4322	-0	0.05
Mof_C 	C 	0.9148	0.1903	-0	-0.134
Mof_C 	C 	0.8236	0.7299	0.5	0.099
Mof_C 	C 	0.567	0.4794	0.5	-0.065
Mof_C 	C 	0.6569	0.5678	0.5	0.042
Mof_C 	C 	0.9148	0.8097	0.5	-0.14
Mof_C 	C 	0.1764	0.2701	0.5	0.062
Mof_C 	C 	0.433	0.5206	0.5	-0.067
Mof_C 	C 	0.3431	0.4322	0.5	0.037
Mof_C 	C 	0.0852	0.1903	0.5	-0.151
Mof_N 	N 	0.404	0.3617	0.1428	-0.135
Mof_N 	N 	0.0019	0.881	0.14706	-0.29
Mof_N 	N 	0.596	0.6383	0.1428	-0.123
Mof_N 	N 	0.9981	0.119	0.14706	-0.227
Mof_N 	N 	0.596	0.3617	0.3572	-0.126
Mof_N 	N 	0.9981	0.881	0.35294	-0.211
Mof_N 	N 	0.404	0.6383	0.3572	-0.132
Mof_N 	N 	0.0019	0.119	0.35294	-0.314
Mof_N 	N 	0.596	0.6383	0.8572	-0.122
Mof_N 	N 	0.9981	0.119	0.85294	-0.226
Mof_N 	N 	0.404	0.3617	0.8572	-0.134
Mof_N 	N 	0.0019	0.881	0.85294	-0.289
Mof_N 	N 	0.404	0.6383	0.6428	-0.133
Mof_N 	N 	0.0019	0.119	0.64706	-0.314
Mof_N 	N 	0.596	0.3617	0.6428	-0.126
Mof_N 	N 	0.9981	0.881	0.64706	-0.211
Mof_N 	N 	0.8114	0	0.25	-0.257
Mof_N 	N 	0.1886	0	0.25	-0.303
Mof_N 	N 	0.1886	0	0.75	-0.303
Mof_N 	N 	0.8114	0	0.75	-0.257
_end
