# CIF file generated by openbabel 3.1.0, see https://openbabel.org
data_I
_chemical_name_common 'image0'
_cell_length_a 10.1382
_cell_length_b 12.9139
_cell_length_c 11.7341
_cell_angle_alpha 90
_cell_angle_beta 110.04
_cell_angle_gamma 90
_space_group_name_H-M_alt 'P 1'
_space_group_name_Hall 'P 1'
loop_
    _symmetry_equiv_pos_as_xyz
    x,y,z
loop_
    _atom_site_label
    _atom_site_type_symbol
    _atom_site_fract_x
    _atom_site_fract_y
    _atom_site_fract_z
    _atom_site_occupancy
    Cd1      Cd       0.78741    0.14601    0.22755    1.000
    O1       O        0.51400    0.17840    0.19810    1.000
    O2       O        0.61630    0.02870    0.19420    1.000
    O3       O        0.03860    0.15100    0.25260    1.000
    O4       O        0.91180    0.01180    0.18730    1.000
    N1       N        0.23150    0.74760    0.92600    1.000
    N2       N        0.21260    0.64410    0.91220    1.000
    N3       N        0.18720    0.60670    0.00540    1.000
    N4       N        0.18830    0.68400    0.08230    1.000
    C1       C        0.14000    0.01360    0.17400    1.000
    C2       C        0.26490    0.06800    0.19260    1.000
    H1       H        0.27570    0.13360    0.22730    1.000
    C3       C        0.37230    0.02640    0.16040    1.000
    C4       C        0.35670    0.92810    0.10810    1.000
    H2       H        0.42910    0.89900    0.08720    1.000
    C5       C        0.23240    0.87400    0.08760    1.000
    C6       C        0.12520    0.91660    0.12100    1.000
    H3       H        0.04260    0.87950    0.10770    1.000
    C7       C        0.02550    0.06110    0.20760    1.000
    C8       C        0.50910    0.08360    0.18460    1.000
    C9       C        0.21570    0.77020    0.03170    1.000
    Cd2      Cd       0.21259    0.64601    0.27245    1.000
    O5       O        0.48600    0.67840    0.30190    1.000
    O6       O        0.38370    0.52870    0.30580    1.000
    O7       O        0.96140    0.65100    0.24740    1.000
    O8       O        0.08820    0.51180    0.31270    1.000
    N5       N        0.76850    0.24760    0.57400    1.000
    N6       N        0.78740    0.14410    0.58780    1.000
    N7       N        0.81280    0.10670    0.49460    1.000
    N8       N        0.81170    0.18400    0.41770    1.000
    C10      C        0.86000    0.51360    0.32600    1.000
    C11      C        0.73510    0.56800    0.30740    1.000
    H4       H        0.72430    0.63360    0.27270    1.000
    C12      C        0.62770    0.52640    0.33960    1.000
    C13      C        0.64330    0.42810    0.39190    1.000
    H5       H        0.57090    0.39900    0.41280    1.000
    C14      C        0.76760    0.37400    0.41240    1.000
    C15      C        0.87480    0.41660    0.37900    1.000
    H6       H        0.95740    0.37950    0.39230    1.000
    C16      C        0.97450    0.56110    0.29240    1.000
    C17      C        0.49090    0.58360    0.31540    1.000
    C18      C        0.78430    0.27020    0.46830    1.000
    Cd3      Cd       0.21259    0.85399    0.77245    1.000
    O9       O        0.48600    0.82160    0.80190    1.000
    O10      O        0.38370    0.97130    0.80580    1.000
    O11      O        0.96140    0.84900    0.74740    1.000
    O12      O        0.08820    0.98820    0.81270    1.000
    N9       N        0.76850    0.25240    0.07400    1.000
    N10      N        0.78740    0.35590    0.08780    1.000
    N11      N        0.81280    0.39330    0.99460    1.000
    N12      N        0.81170    0.31600    0.91770    1.000
    C19      C        0.86000    0.98640    0.82600    1.000
    C20      C        0.73510    0.93200    0.80740    1.000
    H7       H        0.72430    0.86640    0.77270    1.000
    C21      C        0.62770    0.97360    0.83960    1.000
    C22      C        0.64330    0.07190    0.89190    1.000
    H8       H        0.57090    0.10100    0.91280    1.000
    C23      C        0.76760    0.12600    0.91240    1.000
    C24      C        0.87480    0.08340    0.87900    1.000
    H9       H        0.95740    0.12050    0.89230    1.000
    C25      C        0.97450    0.93890    0.79240    1.000
    C26      C        0.49090    0.91640    0.81540    1.000
    C27      C        0.78430    0.22980    0.96830    1.000
    Cd4      Cd       0.78741    0.35399    0.72755    1.000
    O13      O        0.51400    0.32160    0.69810    1.000
    O14      O        0.61630    0.47130    0.69420    1.000
    O15      O        0.03860    0.34900    0.75260    1.000
    O16      O        0.91180    0.48820    0.68730    1.000
    N13      N        0.23150    0.75240    0.42600    1.000
    N14      N        0.21260    0.85590    0.41220    1.000
    N15      N        0.18720    0.89330    0.50540    1.000
    N16      N        0.18830    0.81600    0.58230    1.000
    C28      C        0.14000    0.48640    0.67400    1.000
    C29      C        0.26490    0.43200    0.69260    1.000
    H10      H        0.27570    0.36640    0.72730    1.000
    C30      C        0.37230    0.47360    0.66040    1.000
    C31      C        0.35670    0.57190    0.60810    1.000
    H11      H        0.42910    0.60100    0.58720    1.000
    C32      C        0.23240    0.62600    0.58760    1.000
    C33      C        0.12520    0.58340    0.62100    1.000
    H12      H        0.04260    0.62050    0.60770    1.000
    C34      C        0.02550    0.43890    0.70760    1.000
    C35      C        0.50910    0.41640    0.68460    1.000
    C36      C        0.21570    0.72980    0.53170    1.000
