data_functionalizedCrystal
_audit_creation_method	'EQeq! by Chris Wilmer'
_symmetry_space_group_name_H-M	'P1'
_symmetry_Int_Tables_number	1
_symmetry_cell_setting	triclinic
loop_
_symmetry_equiv_pos_as_xyz
  x,y,z
_cell_length_a	9.63
_cell_length_b	10.0916
_cell_length_c	11.7335
_cell_angle_alpha	87.958
_cell_angle_beta	67.638
_cell_angle_gamma	68.181
loop_
_atom_site_label
_atom_site_type_symbol
_atom_site_fract_x
_atom_site_fract_y
_atom_site_fract_z
_atom_site_charge
Mof_Pr	Pr	0.29076	0.96267	0.02245	2.488
Mof_O 	O 	0.4765	0.1729	0.173	-0.517
Mof_O 	O 	0.2535	0.1423	0.1836	-0.536
Mof_O 	O 	0.5493	0.2798	0.9312	-0.495
Mof_O 	O 	0.4422	0.1218	0.925	-0.685
Mof_O 	O 	0.1693	0.7988	-0	-0.54
Mof_O 	O 	0.9835	0.8612	0.9182	-0.606
Mof_N 	N 	0.0948	0.3474	0.6107	-0.118
Mof_C 	C 	0.4391	0.2474	0.9182	0.414
Mof_C 	C 	0.307	0.3633	0.8924	-0.177
Mof_C 	C 	0.2239	0.3255	0.8338	0.007
Mof_C 	C 	0.1025	0.4313	0.8085	-0.053
Mof_C 	C 	0.0606	0.5761	0.842	0.054
Mof_C 	C 	0.1432	0.6133	0.9028	-0.196
Mof_C 	C 	0.2653	0.5073	0.9287	0.091
Mof_C 	C 	0.0944	0.7694	0.9431	0.447
Mof_C 	C 	0.0071	0.3897	0.7477	0.011
Mof_C 	C 	0.2475	0.3381	0.5471	0.024
Mof_C 	C 	0.3246	0.289	0.4205	0.027
Mof_C 	C 	0.2467	0.2472	0.3624	-0.138
Mof_C 	C 	0.0864	0.2604	0.4287	0.029
Mof_C 	C 	0.0115	0.3121	0.5546	0.02
Mof_C 	C 	0.3364	0.1808	0.2258	0.503
Mof_Pr	Pr	0.70924	0.03733	0.97755	2.227
Mof_O 	O 	0.5235	0.8271	0.827	-0.599
Mof_O 	O 	0.7465	0.8577	0.8164	-0.556
Mof_O 	O 	0.4507	0.7202	0.0688	-0.471
Mof_O 	O 	0.5578	0.8782	0.075	-0.639
Mof_O 	O 	0.8307	0.2012	-0	-0.527
Mof_O 	O 	0.0165	0.1388	0.0818	-0.574
Mof_N 	N 	0.9052	0.6526	0.3893	-0.121
Mof_C 	C 	0.5609	0.7526	0.0818	0.418
Mof_C 	C 	0.693	0.6367	0.1076	-0.169
Mof_C 	C 	0.7761	0.6745	0.1662	0.033
Mof_C 	C 	0.8975	0.5687	0.1915	-0.051
Mof_C 	C 	0.9394	0.4239	0.158	0.076
Mof_C 	C 	0.8568	0.3867	0.0972	-0.201
Mof_C 	C 	0.7347	0.4927	0.0713	0.149
Mof_C 	C 	0.9056	0.2306	0.0569	0.502
Mof_C 	C 	0.9929	0.6103	0.2523	0.026
Mof_C 	C 	0.7525	0.6619	0.4529	0.019
Mof_C 	C 	0.6754	0.711	0.5795	0.018
Mof_C 	C 	0.7533	0.7528	0.6376	-0.146
Mof_C 	C 	0.9136	0.7396	0.5713	0.017
Mof_C 	C 	0.9885	0.6879	0.4454	0.01
Mof_C 	C 	0.6636	0.8192	0.7742	0.505
_end
