data_functionalizedCrystal
_audit_creation_method	'EQeq! by Chris Wilmer'
_symmetry_space_group_name_H-M	'P1'
_symmetry_Int_Tables_number	1
_symmetry_cell_setting	triclinic
loop_
_symmetry_equiv_pos_as_xyz
  x,y,z
_cell_length_a	13.8147
_cell_length_b	13.8147
_cell_length_c	19.4911
_cell_angle_alpha	90
_cell_angle_beta	90
_cell_angle_gamma	90
loop_
_atom_site_label
_atom_site_type_symbol
_atom_site_fract_x
_atom_site_fract_y
_atom_site_fract_z
_atom_site_charge
Mof_Co	Co	0.17966	0.78445	0.0957	1.125
Mof_N 	N 	0.2752	0.7635	0.18289	-0.221
Mof_O 	O 	0.10049	0.81969	0.00813	-0.824
Mof_O 	O 	0.3072	0.7943	0.03914	-0.451
Mof_N 	N 	0.1791	0.632	0.07313	-0.228
Mof_O 	O 	0.0611	0.77	0.16038	-0.438
Mof_C 	C 	0.2505	0.7138	0.2368	0.034
Mof_C 	C 	0.3675	0.7975	0.1824	0.02
Mof_Co	Co	0.15017	0.95687	0.98836	1.119
Mof_H 	H 	0.1135	0.7815	0.9752	0.261
Mof_C 	C 	0.3364	0.8507	0.9924	0.344
Mof_C 	C 	0.2236	0.5969	0.0181	0.077
Mof_C 	C 	0.131	0.5671	0.1088	0.06
Mof_H 	H 	0.185	0.6937	0.2405	0.01
Mof_C 	C 	0.3131	0.6884	0.2889	-0.045
Mof_C 	C 	0.4351	0.7764	0.2323	-0.043
Mof_H 	H 	0.3867	0.8381	0.1455	0.005
Mof_O 	O 	0.2892	0.9166	0.96476	-0.461
Mof_O 	O 	0.1235	0.954	0.8821	-0.46
Mof_C 	C 	0.4394	0.8348	0.9674	-0.065
Mof_H 	H 	0.2622	0.6406	0.9922	-0.008
Mof_C 	C 	0.2184	0.5031	0.9952	-0.11
Mof_C 	C 	0.1235	0.4715	0.0897	-0.083
Mof_H 	H 	0.0998	0.5873	0.1498	0.008
Mof_H 	H 	0.2903	0.6517	0.3268	0.031
Mof_C 	C 	0.4094	0.7165	0.286	-0.067
Mof_H 	H 	0.4985	0.8028	0.2298	0.048
Mof_H 	H 	0.251	0.4833	0.9547	0.074
Mof_H 	H 	0.0881	0.4279	0.1178	0.072
Mof_C 	C 	0.4811	0.6881	0.3405	0.363
Mof_Co	Co	0.82034	0.21555	0.0957	1.126
Mof_N 	N 	0.7248	0.2365	0.18289	-0.221
Mof_O 	O 	0.89951	0.18031	0.00813	-0.833
Mof_O 	O 	0.6928	0.2057	0.03914	-0.449
Mof_N 	N 	0.8209	0.368	0.07313	-0.228
Mof_O 	O 	0.9389	0.23	0.16038	-0.468
Mof_C 	C 	0.7495	0.2862	0.2368	0.035
Mof_C 	C 	0.6325	0.2025	0.1824	0.021
Mof_Co	Co	0.84983	0.04313	0.98836	1.124
Mof_H 	H 	0.8865	0.2185	0.9752	0.259
Mof_C 	C 	0.6636	0.1493	0.9924	0.344
Mof_C 	C 	0.7764	0.4031	0.0181	0.07
Mof_C 	C 	0.869	0.4329	0.1088	0.055
Mof_H 	H 	0.815	0.3063	0.2405	0.006
Mof_C 	C 	0.6869	0.3116	0.2889	-0.046
Mof_C 	C 	0.5649	0.2236	0.2323	-0.043
Mof_H 	H 	0.6133	0.1619	0.1455	0.008
Mof_O 	O 	0.7108	0.0834	0.96476	-0.454
Mof_O 	O 	0.8765	0.046	0.8821	-0.468
Mof_C 	C 	0.5606	0.1652	0.9674	-0.067
Mof_H 	H 	0.7378	0.3594	0.9922	-0.006
Mof_C 	C 	0.7816	0.4969	0.9952	-0.104
Mof_C 	C 	0.8765	0.5285	0.0897	-0.082
Mof_H 	H 	0.9002	0.4127	0.1498	0.003
Mof_H 	H 	0.7097	0.3483	0.3268	0.03
Mof_C 	C 	0.5906	0.2835	0.286	-0.066
Mof_H 	H 	0.5015	0.1972	0.2298	0.05
Mof_H 	H 	0.749	0.5167	0.9547	0.071
Mof_H 	H 	0.9119	0.5721	0.1178	0.065
Mof_C 	C 	0.5189	0.3119	0.3405	0.363
Mof_Co	Co	0.78445	0.82034	0.9043	1.124
Mof_N 	N 	0.7635	0.7248	0.81711	-0.222
Mof_O 	O 	0.81969	0.89951	0.99187	-0.853
Mof_O 	O 	0.7943	0.6928	0.96086	-0.461
Mof_N 	N 	0.632	0.8209	0.92687	-0.213
Mof_O 	O 	0.77	0.9389	0.83962	-0.468
Mof_C 	C 	0.7138	0.7495	0.7632	0.034
Mof_C 	C 	0.7975	0.6325	0.8176	0.019
Mof_Co	Co	0.95687	0.84983	0.01164	1.121
Mof_H 	H 	0.7815	0.8865	0.0248	0.275
Mof_C 	C 	0.8507	0.6636	0.0076	0.345
Mof_C 	C 	0.5969	0.7764	0.9819	0.002
Mof_C 	C 	0.5671	0.869	0.8912	0.037
Mof_H 	H 	0.6937	0.815	0.7595	0.006
Mof_C 	C 	0.6884	0.6869	0.7111	-0.047
Mof_C 	C 	0.7764	0.5649	0.7677	-0.044
Mof_H 	H 	0.8381	0.6133	0.8545	0.003
Mof_O 	O 	0.9166	0.7108	0.03524	-0.459
Mof_O 	O 	0.954	0.8765	0.1179	-0.466
Mof_C 	C 	0.8348	0.5606	0.0326	-0.021
Mof_H 	H 	0.6406	0.7378	0.0078	0.026
Mof_C 	C 	0.5031	0.7816	0.0048	-0.029
Mof_C 	C 	0.4715	0.8765	0.9103	-0.052
Mof_H 	H 	0.5873	0.9002	0.8502	0.009
Mof_H 	H 	0.6517	0.7097	0.6732	0.03
Mof_C 	C 	0.7165	0.5906	0.714	-0.067
Mof_H 	H 	0.8028	0.5015	0.7702	0.047
Mof_H 	H 	0.4833	0.749	0.0453	0.049
Mof_H 	H 	0.4279	0.9119	0.8822	0.056
Mof_C 	C 	0.6881	0.5189	0.6595	0.363
Mof_Co	Co	0.21555	0.17966	0.9043	1.126
Mof_N 	N 	0.2365	0.2752	0.81711	-0.22
Mof_O 	O 	0.18031	0.10049	0.99187	-0.846
Mof_O 	O 	0.2057	0.3072	0.96086	-0.461
Mof_N 	N 	0.368	0.1791	0.92687	-0.211
Mof_O 	O 	0.23	0.0611	0.83962	-0.435
Mof_C 	C 	0.2862	0.2505	0.7632	0.035
Mof_C 	C 	0.2025	0.3675	0.8176	0.021
Mof_Co	Co	0.04313	0.15017	0.01164	1.134
Mof_H 	H 	0.2185	0.1135	0.0248	0.28
Mof_C 	C 	0.1493	0.3364	0.0076	0.346
Mof_C 	C 	0.4031	0.2236	0.9819	-0.005
Mof_C 	C 	0.4329	0.131	0.8912	0.038
Mof_H 	H 	0.3063	0.185	0.7595	0.01
Mof_C 	C 	0.3116	0.3131	0.7111	-0.045
Mof_C 	C 	0.2236	0.4351	0.7677	-0.043
Mof_H 	H 	0.1619	0.3867	0.8545	0.007
Mof_O 	O 	0.0834	0.2892	0.03524	-0.45
Mof_O 	O 	0.046	0.1235	0.1179	-0.458
Mof_C 	C 	0.1652	0.4394	0.0326	-0.015
Mof_H 	H 	0.3594	0.2622	0.0078	0.03
Mof_C 	C 	0.4969	0.2184	0.0048	-0.02
Mof_C 	C 	0.5285	0.1235	0.9103	-0.048
Mof_H 	H 	0.4127	0.0998	0.8502	0.015
Mof_H 	H 	0.3483	0.2903	0.6732	0.031
Mof_C 	C 	0.2835	0.4094	0.714	-0.066
Mof_H 	H 	0.1972	0.4985	0.7702	0.05
Mof_H 	H 	0.5167	0.251	0.0453	0.047
Mof_H 	H 	0.5721	0.0881	0.8822	0.06
Mof_C 	C 	0.3119	0.4811	0.6595	0.363
Mof_Co	Co	0.32034	0.28445	0.4043	1.126
Mof_N 	N 	0.2248	0.2635	0.31711	-0.22
Mof_O 	O 	0.39951	0.31969	0.49187	-0.838
Mof_O 	O 	0.1928	0.2943	0.46086	-0.451
Mof_N 	N 	0.3209	0.132	0.42687	-0.216
Mof_O 	O 	0.4389	0.27	0.33962	-0.452
Mof_C 	C 	0.2495	0.2138	0.2632	0.035
Mof_C 	C 	0.1325	0.2975	0.3176	0.021
Mof_Co	Co	0.34983	0.45687	0.51164	1.127
Mof_H 	H 	0.3865	0.2815	0.5248	0.269
Mof_C 	C 	0.1636	0.3507	0.5076	0.334
Mof_C 	C 	0.2764	0.0969	0.4819	0.009
Mof_C 	C 	0.369	0.0671	0.3912	0.062
Mof_H 	H 	0.315	0.1937	0.2595	0.01
Mof_C 	C 	0.1869	0.1884	0.2111	-0.042
Mof_C 	C 	0.0649	0.2764	0.2677	-0.039
Mof_H 	H 	0.1133	0.3381	0.3545	0.008
Mof_O 	O 	0.2108	0.4166	0.53524	-0.452
Mof_O 	O 	0.3765	0.454	0.6179	-0.461
Mof_C 	C 	0.0606	0.3348	0.5326	-0.006
Mof_H 	H 	0.2378	0.1406	0.5078	0.022
Mof_C 	C 	0.2816	0.0031	0.5048	0.002
Mof_C 	C 	0.3765	0.9715	0.4103	-0.072
Mof_H 	H 	0.4002	0.0873	0.3502	0.007
Mof_H 	H 	0.2097	0.1517	0.1732	0.032
Mof_C 	C 	0.0906	0.2165	0.214	-0.069
Mof_H 	H 	0.0015	0.3028	0.2702	0.053
Mof_H 	H 	0.249	0.9833	0.5453	0.029
Mof_H 	H 	0.4119	0.9279	0.3822	0.063
Mof_C 	C 	0.0189	0.1881	0.1595	0.383
Mof_Co	Co	0.67966	0.71555	0.4043	1.125
Mof_N 	N 	0.7752	0.7365	0.31711	-0.222
Mof_O 	O 	0.60049	0.68031	0.49187	-0.837
Mof_O 	O 	0.8072	0.7057	0.46086	-0.459
Mof_N 	N 	0.6791	0.868	0.42687	-0.223
Mof_O 	O 	0.5611	0.73	0.33962	-0.452
Mof_C 	C 	0.7505	0.7862	0.2632	0.034
Mof_C 	C 	0.8675	0.7025	0.3176	0.02
Mof_Co	Co	0.65017	0.54313	0.51164	1.127
Mof_H 	H 	0.6135	0.7185	0.5248	0.268
Mof_C 	C 	0.8364	0.6493	0.5076	0.354
Mof_C 	C 	0.7236	0.9031	0.4819	0.06
Mof_C 	C 	0.631	0.9329	0.3912	0.033
Mof_H 	H 	0.685	0.8063	0.2595	0.007
Mof_C 	C 	0.8131	0.8116	0.2111	-0.049
Mof_C 	C 	0.9351	0.7236	0.2677	-0.047
Mof_H 	H 	0.8867	0.6619	0.3545	0.004
Mof_O 	O 	0.7892	0.5834	0.53524	-0.459
Mof_O 	O 	0.6235	0.546	0.6179	-0.461
Mof_C 	C 	0.9394	0.6652	0.5326	-0.075
Mof_H 	H 	0.7622	0.8594	0.5078	-0.001
Mof_C 	C 	0.7184	0.9969	0.5048	-0.129
Mof_C 	C 	0.6235	0.0285	0.4103	-0.06
Mof_H 	H 	0.5998	0.9127	0.3502	0.01
Mof_H 	H 	0.7903	0.8483	0.1732	0.029
Mof_C 	C 	0.9094	0.7835	0.214	-0.065
Mof_H 	H 	0.9985	0.6972	0.2702	0.044
Mof_H 	H 	0.751	0.0167	0.5453	0.089
Mof_H 	H 	0.5881	0.0721	0.3822	0.064
Mof_C 	C 	0.9811	0.8119	0.1595	0.344
Mof_Co	Co	0.71555	0.32034	0.5957	1.125
Mof_N 	N 	0.7365	0.2248	0.68289	-0.22
Mof_O 	O 	0.68031	0.39951	0.50813	-0.837
Mof_O 	O 	0.7057	0.1928	0.53914	-0.452
Mof_N 	N 	0.868	0.3209	0.57313	-0.224
Mof_O 	O 	0.73	0.4389	0.66038	-0.452
Mof_C 	C 	0.7862	0.2495	0.7368	0.032
Mof_C 	C 	0.7025	0.1325	0.6824	0.019
Mof_Co	Co	0.54313	0.34983	0.48836	1.127
Mof_H 	H 	0.7185	0.3865	0.4752	0.268
Mof_C 	C 	0.6493	0.1636	0.4924	0.335
Mof_C 	C 	0.9031	0.2764	0.5181	0.064
Mof_C 	C 	0.9329	0.369	0.6088	0.035
Mof_H 	H 	0.8063	0.315	0.7405	0.008
Mof_C 	C 	0.8116	0.1869	0.7889	-0.042
Mof_C 	C 	0.7236	0.0649	0.7323	-0.039
Mof_H 	H 	0.6619	0.1133	0.6455	0.008
Mof_O 	O 	0.5834	0.2108	0.46476	-0.453
Mof_O 	O 	0.546	0.3765	0.3821	-0.461
Mof_C 	C 	0.6652	0.0606	0.4674	-0.011
Mof_H 	H 	0.8594	0.2378	0.4922	-0
Mof_C 	C 	0.9969	0.2816	0.4952	-0.134
Mof_C 	C 	0.0285	0.3765	0.5897	-0.062
Mof_H 	H 	0.9127	0.4002	0.6498	0.01
Mof_H 	H 	0.8483	0.2097	0.8268	0.027
Mof_C 	C 	0.7835	0.0906	0.786	-0.072
Mof_H 	H 	0.6972	0.0015	0.7298	0.052
Mof_H 	H 	0.0167	0.249	0.4547	0.094
Mof_H 	H 	0.0721	0.4119	0.6178	0.065
Mof_C 	C 	0.8119	0.0189	0.8405	0.381
Mof_Co	Co	0.28445	0.67966	0.5957	1.126
Mof_N 	N 	0.2635	0.7752	0.68289	-0.222
Mof_O 	O 	0.31969	0.60049	0.50813	-0.838
Mof_O 	O 	0.2943	0.8072	0.53914	-0.459
Mof_N 	N 	0.132	0.6791	0.57313	-0.216
Mof_O 	O 	0.27	0.5611	0.66038	-0.452
Mof_C 	C 	0.2138	0.7505	0.7368	0.036
Mof_C 	C 	0.2975	0.8675	0.6824	0.022
Mof_Co	Co	0.45687	0.65017	0.48836	1.127
Mof_H 	H 	0.2815	0.6135	0.4752	0.269
Mof_C 	C 	0.3507	0.8364	0.4924	0.355
Mof_C 	C 	0.0969	0.7236	0.5181	0.01
Mof_C 	C 	0.0671	0.631	0.6088	0.059
Mof_H 	H 	0.1937	0.685	0.7405	0.008
Mof_C 	C 	0.1884	0.8131	0.7889	-0.049
Mof_C 	C 	0.2764	0.9351	0.7323	-0.047
Mof_H 	H 	0.3381	0.8867	0.6455	0.004
Mof_O 	O 	0.4166	0.7892	0.46476	-0.459
Mof_O 	O 	0.454	0.6235	0.3821	-0.461
Mof_C 	C 	0.3348	0.9394	0.4674	-0.077
Mof_H 	H 	0.1406	0.7622	0.4922	0.02
Mof_C 	C 	0.0031	0.7184	0.4952	-0.005
Mof_C 	C 	0.9715	0.6235	0.5897	-0.072
Mof_H 	H 	0.0873	0.5998	0.6498	0.007
Mof_H 	H 	0.1517	0.7903	0.8268	0.032
Mof_C 	C 	0.2165	0.9094	0.786	-0.061
Mof_H 	H 	0.3028	0.9985	0.7298	0.045
Mof_H 	H 	0.9833	0.751	0.4547	0.03
Mof_H 	H 	0.9279	0.5881	0.6178	0.062
Mof_C 	C 	0.1881	0.9811	0.8405	0.344
Mof_O 	O 	-0	0	-0	-0.654
Mof_O 	O 	0.5	0.5	0.5	-0.678
_end
