# CIF file generated by openbabel 3.1.0, see https://openbabel.org
data_I
_chemical_name_common 'image0'
_cell_length_a 6.6374
_cell_length_b 9.5714
_cell_length_c 19.89
_cell_angle_alpha 85.19
_cell_angle_beta 82.971
_cell_angle_gamma 88.016
_space_group_name_H-M_alt 'P 1'
_space_group_name_Hall 'P 1'
loop_
    _symmetry_equiv_pos_as_xyz
    x,y,z
loop_
    _atom_site_label
    _atom_site_type_symbol
    _atom_site_fract_x
    _atom_site_fract_y
    _atom_site_fract_z
    _atom_site_occupancy
    C1       C        0.25700    0.43410    0.02687    1.000
    C2       C        0.38150    0.33170    0.93172    1.000
    C3       C        0.36380    0.20990    0.03473    1.000
    C4       C        0.12360    0.58710    0.12037    1.000
    C5       C        0.12270    0.49140    0.17759    1.000
    H1       H        0.15660    0.39540    0.17220    1.000
    C6       C        0.07270    0.53620    0.24194    1.000
    H2       H        0.07390    0.47060    0.28050    1.000
    C7       C        0.02030    0.67640    0.25123    1.000
    C8       C        0.01950    0.77140    0.19362    1.000
    H3       H        0.98270    0.86700    0.19910    1.000
    C9       C        0.07130    0.72840    0.12929    1.000
    H4       H        0.07160    0.79440    0.09080    1.000
    C10      C        0.96750    0.72680    0.32034    1.000
    C11      C        0.41680    0.44030    0.81161    1.000
    C12      C        0.35960    0.57840    0.82269    1.000
    H5       H        0.33040    0.60600    0.86770    1.000
    C13      C        0.34520    0.67600    0.76747    1.000
    H6       H        0.30050    0.76930    0.77520    1.000
    C14      C        0.39510    0.63940    0.70102    1.000
    C15      C        0.45920    0.50260    0.68988    1.000
    H7       H        0.49760    0.47700    0.64490    1.000
    C16      C        0.46700    0.40300    0.74483    1.000
    H8       H        0.50680    0.30890    0.73700    1.000
    C17      C        0.37370    0.74920    0.64413    1.000
    C18      C        0.37690    0.07090    0.14538    1.000
    C19      C        0.52870    0.99670    0.17699    1.000
    H9       H        0.64800    0.96540    0.15050    1.000
    C20      C        0.50600    0.96840    0.24713    1.000
    H10      H        0.60870    0.91610    0.26820    1.000
    C21      C        0.33360    0.01620    0.28681    1.000
    C22      C        0.18600    0.09460    0.25515    1.000
    H11      H        0.07090    0.13110    0.28190    1.000
    C23      C        0.20530    0.11990    0.18496    1.000
    H12      H        0.10130    0.17070    0.16380    1.000
    C24      C        0.30690    0.97990    0.36226    1.000
    N1       N        0.30410    0.44740    0.95891    1.000
    N2       N        0.41800    0.20680    0.96769    1.000
    N3       N        0.27940    0.31760    0.06759    1.000
    N4       N        0.18090    0.55400    0.05349    1.000
    H13      H        0.16460    0.62400    0.02280    1.000
    N5       N        0.43350    0.33270    0.86361    1.000
    H14      H        0.48620    0.25310    0.84960    1.000
    N6       N        0.40400    0.08960    0.07362    1.000
    H15      H        0.45120    0.01680    0.05180    1.000
    O1       O        0.48470    0.74180    0.58804    1.000
    O2       O        0.24130    0.84390    0.65671    1.000
    O3       O        0.45230    0.91530    0.38781    1.000
    O4       O        0.14080    0.01500    0.39699    1.000
    O5       O        0.88540    0.84880    0.32159    1.000
    O6       O        0.00250    0.65210    0.37280    1.000
    O7       O        0.70360    0.96900    0.48234    1.000
    H16      H        0.78700    0.95600    0.51060    1.000
    Co1      Co       0.45159    0.84145    0.49075    1.000
    Co2      Co       0.84424    0.98186    0.39089    1.000
    C25      C        0.74300    0.56590    0.97313    1.000
    C26      C        0.61850    0.66830    0.06828    1.000
    C27      C        0.63620    0.79010    0.96527    1.000
    C28      C        0.87640    0.41290    0.87963    1.000
    C29      C        0.87730    0.50860    0.82241    1.000
    H17      H        0.84340    0.60460    0.82780    1.000
    C30      C        0.92730    0.46380    0.75806    1.000
    H18      H        0.92610    0.52940    0.71950    1.000
    C31      C        0.97970    0.32360    0.74877    1.000
    C32      C        0.98050    0.22860    0.80638    1.000
    H19      H        0.01730    0.13300    0.80090    1.000
    C33      C        0.92870    0.27160    0.87071    1.000
    H20      H        0.92840    0.20560    0.90920    1.000
    C34      C        0.03250    0.27320    0.67966    1.000
    C35      C        0.58320    0.55970    0.18839    1.000
    C36      C        0.64040    0.42160    0.17731    1.000
    H21      H        0.66960    0.39400    0.13230    1.000
    C37      C        0.65480    0.32400    0.23253    1.000
    H22      H        0.69950    0.23070    0.22480    1.000
    C38      C        0.60490    0.36060    0.29898    1.000
    C39      C        0.54080    0.49740    0.31012    1.000
    H23      H        0.50240    0.52300    0.35510    1.000
    C40      C        0.53300    0.59700    0.25517    1.000
    H24      H        0.49320    0.69110    0.26300    1.000
    C41      C        0.62630    0.25080    0.35587    1.000
    C42      C        0.62310    0.92910    0.85462    1.000
    C43      C        0.47130    0.00330    0.82301    1.000
    H25      H        0.35200    0.03460    0.84950    1.000
    C44      C        0.49400    0.03160    0.75287    1.000
    H26      H        0.39130    0.08390    0.73180    1.000
    C45      C        0.66640    0.98380    0.71319    1.000
    C46      C        0.81400    0.90540    0.74485    1.000
    H27      H        0.92910    0.86890    0.71810    1.000
    C47      C        0.79470    0.88010    0.81504    1.000
    H28      H        0.89870    0.82930    0.83620    1.000
    C48      C        0.69310    0.02010    0.63774    1.000
    N7       N        0.69590    0.55260    0.04109    1.000
    N8       N        0.58200    0.79320    0.03231    1.000
    N9       N        0.72060    0.68240    0.93241    1.000
    N10      N        0.81910    0.44600    0.94651    1.000
    H29      H        0.83540    0.37600    0.97720    1.000
    N11      N        0.56650    0.66730    0.13639    1.000
    H30      H        0.51380    0.74690    0.15040    1.000
    N12      N        0.59600    0.91040    0.92638    1.000
    H31      H        0.54880    0.98320    0.94820    1.000
    O8       O        0.51530    0.25820    0.41196    1.000
    O9       O        0.75870    0.15610    0.34329    1.000
    O10      O        0.54770    0.08470    0.61219    1.000
    O11      O        0.85920    0.98500    0.60301    1.000
    O12      O        0.11460    0.15120    0.67841    1.000
    O13      O        0.99750    0.34790    0.62720    1.000
    O14      O        0.29640    0.03100    0.51766    1.000
    H32      H        0.21300    0.04400    0.48940    1.000
    Co3      Co       0.54841    0.15855    0.50925    1.000
    Co4      Co       0.15576    0.01814    0.60911    1.000
