data_functionalizedCrystal
_audit_creation_method	'EQeq! by Chris Wilmer'
_symmetry_space_group_name_H-M	'P1'
_symmetry_Int_Tables_number	1
_symmetry_cell_setting	triclinic
loop_
_symmetry_equiv_pos_as_xyz
  x,y,z
_cell_length_a	28.147
_cell_length_b	13.8926
_cell_length_c	44.028
_cell_angle_alpha	90
_cell_angle_beta	90
_cell_angle_gamma	90
loop_
_atom_site_label
_atom_site_type_symbol
_atom_site_fract_x
_atom_site_fract_y
_atom_site_fract_z
_atom_site_charge
Mof_Zn	Zn	0.02212	0.88888	0.91023	1.163
Mof_Zn	Zn	0.54637	0.86352	0.90696	1.163
Mof_Zn	Zn	0.76073	0.19089	0.67546	1.163
Mof_I 	I 	0.00652	0.80378	0.96103	-0.393
Mof_I 	I 	0.0709	0.81224	0.86847	-0.369
Mof_I 	I 	0.55663	0.68203	0.90825	-0.386
Mof_I 	I 	0.48174	0.9511	0.87713	-0.36
Mof_I 	I 	0.67265	0.19159	0.66245	-0.377
Mof_I 	I 	0.80338	0.35164	0.68203	-0.371
Mof_C 	C 	0.9169	0.9126	0.90551	0.062
Mof_H 	H 	0.9177	0.8972	0.9265	-0.007
Mof_C 	C 	0.8729	0.9262	0.89157	-0.108
Mof_H 	H 	0.8443	0.92	0.9029	0.078
Mof_C 	C 	0.8713	0.9489	0.86107	0.054
Mof_C 	C 	0.9133	0.958	0.84546	-0.111
Mof_H 	H 	0.913	0.9741	0.8245	0.08
Mof_C 	C 	0.9559	0.9436	0.8603	0.066
Mof_H 	H 	0.9846	0.95	0.8491	-0.005
Mof_C 	C 	0.8121	0.1128	0.7292	0.054
Mof_H 	H 	0.8388	0.1409	0.7195	-0.004
Mof_C 	C 	0.8179	0.0729	0.75726	-0.104
Mof_H 	H 	0.8485	0.0715	0.7664	0.076
Mof_C 	C 	0.7787	0.0337	0.77273	0.04
Mof_C 	C 	0.7354	0.0326	0.75752	-0.103
Mof_H 	H 	0.7082	0.0045	0.7667	0.078
Mof_C 	C 	0.7322	0.0729	0.72882	0.054
Mof_H 	H 	0.7024	0.0715	0.7188	0.006
Mof_C 	C 	0.6137	0.9407	0.86229	0.06
Mof_H 	H 	0.5849	0.95	0.8514	-0.012
Mof_C 	C 	0.6561	0.9578	0.84732	-0.114
Mof_H 	H 	0.6565	0.9773	0.8266	0.08
Mof_C 	C 	0.6982	0.9455	0.86359	0.051
Mof_C 	C 	0.6962	0.9196	0.89393	-0.117
Mof_H 	H 	0.7243	0.9133	0.9057	0.078
Mof_C 	C 	0.6518	0.9031	0.9067	0.067
Mof_H 	H 	0.6503	0.8847	0.9275	-0.012
Mof_C 	C 	0.824	0.962	0.84532	0.105
Mof_C 	C 	0.745	0.9592	0.84767	0.104
Mof_C 	C 	0.7817	0.9987	0.80411	0.105
Mof_C 	C 	0.0666	0.6341	0.02642	0.062
Mof_H 	H 	0.0725	0.7009	0.0292	-0.004
Mof_C 	C 	0.0772	0.5926	0.99904	-0.114
Mof_H 	H 	0.0892	0.6313	0.983	0.081
Mof_C 	C 	0.0705	0.4954	0.99437	0.055
Mof_C 	C 	0.0503	0.4425	0.01853	-0.125
Mof_H 	H 	0.0444	0.3755	0.0164	0.094
Mof_C 	C 	0.0394	0.4887	0.04486	0.075
Mof_H 	H 	0.0249	0.4526	0.0607	-0.015
Mof_C 	C 	0.0425	0.0618	0.9488	0.06
Mof_H 	H 	0.027	0.025	0.964	-0.002
Mof_C 	C 	0.0565	0.1555	0.95529	-0.115
Mof_H 	H 	0.0505	0.1825	0.9747	0.088
Mof_C 	C 	0.0796	0.21	0.93287	0.043
Mof_C 	C 	0.0881	0.167	0.90457	-0.122
Mof_H 	H 	0.1049	0.2008	0.8892	0.097
Mof_C 	C 	0.0717	0.0745	0.89952	0.07
Mof_H 	H 	0.0757	0.0473	0.8799	-0.005
Mof_C 	C 	0.2012	0.5144	0.85414	0.074
Mof_H 	H 	0.2183	0.4831	0.8384	-0.014
Mof_C 	C 	0.177	0.4594	0.87553	-0.121
Mof_H 	H 	0.177	0.3912	0.8742	0.083
Mof_C 	C 	0.1529	0.505	0.89871	0.064
Mof_C 	C 	0.1524	0.6051	0.899	-0.119
Mof_H 	H 	0.1358	0.6391	0.9144	0.08
Mof_C 	C 	0.1762	0.6535	0.8769	0.077
Mof_H 	H 	0.1749	0.7218	0.8768	-0.011
Mof_C 	C 	0.0863	0.4471	0.96619	0.094
Mof_C 	C 	0.1263	0.4487	0.92238	0.104
Mof_C 	C 	0.0925	0.3114	0.93806	0.092
Mof_N 	N 	0.9584	0.9206	0.89016	-0.268
Mof_N 	N 	0.6108	0.9119	0.8911	-0.273
Mof_N 	N 	0.7693	0.1141	0.71442	-0.27
Mof_N 	N 	0.785	0.9456	0.86244	-0.141
Mof_N 	N 	0.741	0.9852	0.81821	-0.141
Mof_N 	N 	0.8255	0.9875	0.81676	-0.14
Mof_N 	N 	0.048	0.5823	0.04972	-0.274
Mof_N 	N 	0.2008	0.6098	0.85537	-0.274
Mof_N 	N 	0.0506	0.0214	0.92101	-0.268
Mof_N 	N 	0.1108	0.4989	0.94617	-0.14
Mof_N 	N 	0.1191	0.3554	0.91719	-0.135
Mof_N 	N 	0.0751	0.3524	0.96277	-0.142
Mof_Zn	Zn	0.47788	0.11112	0.41023	1.164
Mof_Zn	Zn	0.95363	0.13648	0.40696	1.164
Mof_Zn	Zn	0.73927	0.80911	0.17546	1.164
Mof_I 	I 	0.49348	0.19622	0.46103	-0.392
Mof_I 	I 	0.4291	0.18776	0.36847	-0.368
Mof_I 	I 	0.94337	0.31797	0.40825	-0.385
Mof_I 	I 	0.01826	0.0489	0.37713	-0.358
Mof_I 	I 	0.82735	0.80841	0.16245	-0.376
Mof_I 	I 	0.69662	0.64836	0.18203	-0.37
Mof_C 	C 	0.5831	0.0874	0.40551	0.063
Mof_H 	H 	0.5823	0.1028	0.4265	-0.007
Mof_C 	C 	0.6271	0.0738	0.39157	-0.108
Mof_H 	H 	0.6557	0.08	0.4029	0.078
Mof_C 	C 	0.6287	0.0511	0.36107	0.054
Mof_C 	C 	0.5867	0.042	0.34546	-0.111
Mof_H 	H 	0.587	0.0259	0.3245	0.08
Mof_C 	C 	0.5441	0.0564	0.3603	0.066
Mof_H 	H 	0.5154	0.05	0.3491	-0.005
Mof_C 	C 	0.6879	0.8872	0.2292	0.054
Mof_H 	H 	0.6612	0.8591	0.2195	-0.004
Mof_C 	C 	0.6821	0.9271	0.25726	-0.105
Mof_H 	H 	0.6515	0.9285	0.2664	0.076
Mof_C 	C 	0.7213	0.9663	0.27273	0.041
Mof_C 	C 	0.7646	0.9674	0.25752	-0.103
Mof_H 	H 	0.7918	0.9955	0.2667	0.078
Mof_C 	C 	0.7678	0.9271	0.22882	0.055
Mof_H 	H 	0.7976	0.9285	0.2188	0.006
Mof_C 	C 	0.8863	0.0593	0.36229	0.06
Mof_H 	H 	0.9151	0.05	0.3514	-0.013
Mof_C 	C 	0.8439	0.0422	0.34732	-0.114
Mof_H 	H 	0.8435	0.0227	0.3266	0.079
Mof_C 	C 	0.8018	0.0545	0.36359	0.051
Mof_C 	C 	0.8038	0.0804	0.39393	-0.117
Mof_H 	H 	0.7757	0.0867	0.4057	0.078
Mof_C 	C 	0.8482	0.0969	0.4067	0.067
Mof_H 	H 	0.8497	0.1153	0.4275	-0.012
Mof_C 	C 	0.676	0.038	0.34532	0.105
Mof_C 	C 	0.755	0.0408	0.34767	0.104
Mof_C 	C 	0.7183	0.0013	0.30411	0.104
Mof_C 	C 	0.4334	0.3659	0.52642	0.062
Mof_H 	H 	0.4275	0.2991	0.5292	-0.004
Mof_C 	C 	0.4228	0.4074	0.49904	-0.114
Mof_H 	H 	0.4108	0.3687	0.483	0.081
Mof_C 	C 	0.4295	0.5046	0.49437	0.055
Mof_C 	C 	0.4497	0.5575	0.51853	-0.125
Mof_H 	H 	0.4556	0.6245	0.5164	0.094
Mof_C 	C 	0.4606	0.5113	0.54486	0.075
Mof_H 	H 	0.4751	0.5474	0.5607	-0.015
Mof_C 	C 	0.4575	0.9382	0.4488	0.06
Mof_H 	H 	0.473	0.975	0.464	-0.003
Mof_C 	C 	0.4435	0.8445	0.45529	-0.115
Mof_H 	H 	0.4495	0.8175	0.4747	0.088
Mof_C 	C 	0.4204	0.79	0.43287	0.043
Mof_C 	C 	0.4119	0.833	0.40457	-0.122
Mof_H 	H 	0.3951	0.7992	0.3892	0.097
Mof_C 	C 	0.4283	0.9255	0.39952	0.07
Mof_H 	H 	0.4243	0.9527	0.3799	-0.005
Mof_C 	C 	0.2988	0.4856	0.35414	0.074
Mof_H 	H 	0.2817	0.5169	0.3384	-0.014
Mof_C 	C 	0.323	0.5406	0.37553	-0.122
Mof_H 	H 	0.323	0.6088	0.3742	0.083
Mof_C 	C 	0.3471	0.495	0.39871	0.064
Mof_C 	C 	0.3476	0.3949	0.399	-0.119
Mof_H 	H 	0.3642	0.3609	0.4144	0.08
Mof_C 	C 	0.3238	0.3465	0.3769	0.077
Mof_H 	H 	0.3251	0.2782	0.3768	-0.011
Mof_C 	C 	0.4137	0.5529	0.46619	0.094
Mof_C 	C 	0.3737	0.5513	0.42238	0.104
Mof_C 	C 	0.4075	0.6886	0.43806	0.092
Mof_N 	N 	0.5416	0.0794	0.39016	-0.268
Mof_N 	N 	0.8892	0.0881	0.3911	-0.273
Mof_N 	N 	0.7307	0.8859	0.21442	-0.27
Mof_N 	N 	0.715	0.0544	0.36244	-0.141
Mof_N 	N 	0.759	0.0148	0.31821	-0.141
Mof_N 	N 	0.6745	0.0125	0.31676	-0.14
Mof_N 	N 	0.452	0.4177	0.54972	-0.274
Mof_N 	N 	0.2992	0.3902	0.35537	-0.274
Mof_N 	N 	0.4494	0.9786	0.42101	-0.268
Mof_N 	N 	0.3892	0.5011	0.44617	-0.14
Mof_N 	N 	0.3809	0.6446	0.41719	-0.135
Mof_N 	N 	0.4249	0.6476	0.46277	-0.142
Mof_Zn	Zn	0.97788	0.38888	0.58977	1.164
Mof_Zn	Zn	0.45363	0.36352	0.59304	1.164
Mof_Zn	Zn	0.23927	0.69089	0.82454	1.164
Mof_I 	I 	0.99348	0.30378	0.53897	-0.392
Mof_I 	I 	0.9291	0.31224	0.63153	-0.368
Mof_I 	I 	0.44337	0.18203	0.59175	-0.385
Mof_I 	I 	0.51826	0.4511	0.62287	-0.359
Mof_I 	I 	0.32735	0.69159	0.83755	-0.376
Mof_I 	I 	0.19662	0.85164	0.81797	-0.37
Mof_C 	C 	0.0831	0.4126	0.59449	0.063
Mof_H 	H 	0.0823	0.3972	0.5735	-0.007
Mof_C 	C 	0.1271	0.4262	0.60843	-0.108
Mof_H 	H 	0.1557	0.42	0.5971	0.078
Mof_C 	C 	0.1287	0.4489	0.63893	0.054
Mof_C 	C 	0.0867	0.458	0.65454	-0.111
Mof_H 	H 	0.087	0.4741	0.6755	0.08
Mof_C 	C 	0.0441	0.4436	0.6397	0.066
Mof_H 	H 	0.0154	0.45	0.6509	-0.005
Mof_C 	C 	0.1879	0.6128	0.7708	0.054
Mof_H 	H 	0.1612	0.6409	0.7805	-0.004
Mof_C 	C 	0.1821	0.5729	0.74274	-0.105
Mof_H 	H 	0.1515	0.5715	0.7336	0.076
Mof_C 	C 	0.2213	0.5337	0.72727	0.041
Mof_C 	C 	0.2646	0.5326	0.74248	-0.103
Mof_H 	H 	0.2918	0.5045	0.7333	0.078
Mof_C 	C 	0.2678	0.5729	0.77118	0.054
Mof_H 	H 	0.2976	0.5715	0.7812	0.006
Mof_C 	C 	0.3863	0.4407	0.63771	0.06
Mof_H 	H 	0.4151	0.45	0.6486	-0.012
Mof_C 	C 	0.3439	0.4578	0.65268	-0.114
Mof_H 	H 	0.3435	0.4773	0.6734	0.08
Mof_C 	C 	0.3018	0.4455	0.63641	0.051
Mof_C 	C 	0.3038	0.4196	0.60607	-0.117
Mof_H 	H 	0.2757	0.4133	0.5943	0.078
Mof_C 	C 	0.3482	0.4031	0.5933	0.067
Mof_H 	H 	0.3497	0.3847	0.5725	-0.012
Mof_C 	C 	0.176	0.462	0.65468	0.105
Mof_C 	C 	0.255	0.4592	0.65233	0.104
Mof_C 	C 	0.2183	0.4987	0.69589	0.105
Mof_C 	C 	0.9334	0.1341	0.47358	0.063
Mof_H 	H 	0.9275	0.2009	0.4708	-0.004
Mof_C 	C 	0.9228	0.0926	0.50096	-0.116
Mof_H 	H 	0.9108	0.1313	0.517	0.081
Mof_C 	C 	0.9295	0.9954	0.50563	0.057
Mof_C 	C 	0.9497	0.9425	0.48147	-0.126
Mof_H 	H 	0.9556	0.8755	0.4836	0.094
Mof_C 	C 	0.9606	0.9887	0.45514	0.076
Mof_H 	H 	0.9751	0.9526	0.4393	-0.015
Mof_C 	C 	0.9575	0.5618	0.5512	0.06
Mof_H 	H 	0.973	0.525	0.536	-0.002
Mof_C 	C 	0.9435	0.6555	0.54471	-0.115
Mof_H 	H 	0.9495	0.6825	0.5253	0.088
Mof_C 	C 	0.9204	0.71	0.56713	0.043
Mof_C 	C 	0.9119	0.667	0.59543	-0.122
Mof_H 	H 	0.8951	0.7008	0.6108	0.097
Mof_C 	C 	0.9283	0.5745	0.60048	0.07
Mof_H 	H 	0.9243	0.5473	0.6201	-0.005
Mof_C 	C 	0.7988	0.0144	0.64586	0.071
Mof_H 	H 	0.7817	0.9831	0.6616	-0.013
Mof_C 	C 	0.823	0.9594	0.62447	-0.118
Mof_H 	H 	0.823	0.8912	0.6258	0.081
Mof_C 	C 	0.8471	0.005	0.60129	0.06
Mof_C 	C 	0.8476	0.1051	0.601	-0.117
Mof_H 	H 	0.8642	0.1391	0.5856	0.079
Mof_C 	C 	0.8238	0.1535	0.6231	0.076
Mof_H 	H 	0.8251	0.2218	0.6232	-0.011
Mof_C 	C 	0.9137	0.9471	0.53381	0.093
Mof_C 	C 	0.8737	0.9487	0.57762	0.105
Mof_C 	C 	0.9075	0.8114	0.56194	0.092
Mof_N 	N 	0.0416	0.4206	0.60984	-0.268
Mof_N 	N 	0.3892	0.4119	0.6089	-0.273
Mof_N 	N 	0.2307	0.6141	0.78558	-0.27
Mof_N 	N 	0.215	0.4456	0.63756	-0.141
Mof_N 	N 	0.259	0.4852	0.68179	-0.141
Mof_N 	N 	0.1745	0.4875	0.68324	-0.14
Mof_N 	N 	0.952	0.0823	0.45028	-0.274
Mof_N 	N 	0.7992	0.1098	0.64463	-0.273
Mof_N 	N 	0.9494	0.5214	0.57899	-0.268
Mof_N 	N 	0.8892	0.9989	0.55383	-0.14
Mof_N 	N 	0.8809	0.8554	0.58281	-0.136
Mof_N 	N 	0.9249	0.8524	0.53723	-0.142
Mof_Zn	Zn	0.52212	0.61112	0.08977	1.164
Mof_Zn	Zn	0.04637	0.63648	0.09304	1.164
Mof_Zn	Zn	0.26073	0.30911	0.32454	1.164
Mof_I 	I 	0.50652	0.69622	0.03897	-0.392
Mof_I 	I 	0.5709	0.68776	0.13153	-0.368
Mof_I 	I 	0.05663	0.81797	0.09175	-0.386
Mof_I 	I 	0.98174	0.5489	0.12287	-0.359
Mof_I 	I 	0.17265	0.30841	0.33755	-0.376
Mof_I 	I 	0.30338	0.14836	0.31797	-0.369
Mof_C 	C 	0.4169	0.5874	0.09449	0.063
Mof_H 	H 	0.4177	0.6028	0.0735	-0.007
Mof_C 	C 	0.3729	0.5738	0.10843	-0.108
Mof_H 	H 	0.3443	0.58	0.0971	0.078
Mof_C 	C 	0.3713	0.5511	0.13893	0.054
Mof_C 	C 	0.4133	0.542	0.15454	-0.111
Mof_H 	H 	0.413	0.5259	0.1755	0.08
Mof_C 	C 	0.4559	0.5564	0.1397	0.066
Mof_H 	H 	0.4846	0.55	0.1509	-0.005
Mof_C 	C 	0.3121	0.3872	0.2708	0.054
Mof_H 	H 	0.3388	0.3591	0.2805	-0.004
Mof_C 	C 	0.3179	0.4271	0.24274	-0.105
Mof_H 	H 	0.3485	0.4285	0.2336	0.076
Mof_C 	C 	0.2787	0.4663	0.22727	0.041
Mof_C 	C 	0.2354	0.4674	0.24248	-0.103
Mof_H 	H 	0.2082	0.4955	0.2333	0.078
Mof_C 	C 	0.2322	0.4271	0.27118	0.054
Mof_H 	H 	0.2024	0.4285	0.2812	0.006
Mof_C 	C 	0.1137	0.5593	0.13771	0.06
Mof_H 	H 	0.0849	0.55	0.1486	-0.012
Mof_C 	C 	0.1561	0.5422	0.15268	-0.114
Mof_H 	H 	0.1565	0.5227	0.1734	0.08
Mof_C 	C 	0.1982	0.5545	0.13641	0.051
Mof_C 	C 	0.1962	0.5804	0.10607	-0.117
Mof_H 	H 	0.2243	0.5867	0.0943	0.078
Mof_C 	C 	0.1518	0.5969	0.0933	0.067
Mof_H 	H 	0.1503	0.6153	0.0725	-0.012
Mof_C 	C 	0.324	0.538	0.15468	0.105
Mof_C 	C 	0.245	0.5408	0.15233	0.104
Mof_C 	C 	0.2817	0.5013	0.19589	0.105
Mof_C 	C 	0.5666	0.8659	0.97358	0.062
Mof_H 	H 	0.5725	0.7991	0.9708	-0.004
Mof_C 	C 	0.5772	0.9074	0.00096	-0.114
Mof_H 	H 	0.5892	0.8687	0.017	0.081
Mof_C 	C 	0.5705	0.0046	0.00563	0.055
Mof_C 	C 	0.5503	0.0575	0.98147	-0.124
Mof_H 	H 	0.5444	0.1245	0.9836	0.094
Mof_C 	C 	0.5394	0.0113	0.95514	0.074
Mof_H 	H 	0.5249	0.0474	0.9393	-0.015
Mof_C 	C 	0.5425	0.4382	0.0512	0.06
Mof_H 	H 	0.527	0.475	0.036	-0.003
Mof_C 	C 	0.5565	0.3445	0.04471	-0.115
Mof_H 	H 	0.5505	0.3175	0.0253	0.088
Mof_C 	C 	0.5796	0.29	0.06713	0.043
Mof_C 	C 	0.5881	0.333	0.09543	-0.122
Mof_H 	H 	0.6049	0.2992	0.1108	0.097
Mof_C 	C 	0.5717	0.4255	0.10048	0.07
Mof_H 	H 	0.5757	0.4527	0.1201	-0.005
Mof_C 	C 	0.7012	0.9856	0.14586	0.075
Mof_H 	H 	0.7183	0.0169	0.1616	-0.015
Mof_C 	C 	0.677	0.0406	0.12447	-0.122
Mof_H 	H 	0.677	0.1088	0.1258	0.083
Mof_C 	C 	0.6529	0.995	0.10129	0.064
Mof_C 	C 	0.6524	0.8949	0.101	-0.119
Mof_H 	H 	0.6358	0.8609	0.0856	0.08
Mof_C 	C 	0.6762	0.8465	0.1231	0.077
Mof_H 	H 	0.6749	0.7782	0.1232	-0.011
Mof_C 	C 	0.5863	0.0529	0.03381	0.094
Mof_C 	C 	0.6263	0.0513	0.07762	0.103
Mof_C 	C 	0.5925	0.1886	0.06194	0.092
Mof_N 	N 	0.4584	0.5794	0.10984	-0.268
Mof_N 	N 	0.1108	0.5881	0.1089	-0.273
Mof_N 	N 	0.2693	0.3859	0.28558	-0.27
Mof_N 	N 	0.285	0.5544	0.13756	-0.141
Mof_N 	N 	0.241	0.5148	0.18179	-0.141
Mof_N 	N 	0.3255	0.5125	0.18324	-0.141
Mof_N 	N 	0.548	0.9177	0.95028	-0.274
Mof_N 	N 	0.7008	0.8902	0.14463	-0.274
Mof_N 	N 	0.5506	0.4786	0.07899	-0.268
Mof_N 	N 	0.6108	0.0011	0.05383	-0.14
Mof_N 	N 	0.6191	0.1446	0.08281	-0.135
Mof_N 	N 	0.5751	0.1476	0.03723	-0.142
Mof_Zn	Zn	0.97788	0.11112	0.08977	1.164
Mof_Zn	Zn	0.45363	0.13648	0.09304	1.164
Mof_Zn	Zn	0.23927	0.80911	0.32454	1.164
Mof_I 	I 	0.99348	0.19622	0.03897	-0.392
Mof_I 	I 	0.9291	0.18776	0.13153	-0.368
Mof_I 	I 	0.44337	0.31797	0.09175	-0.385
Mof_I 	I 	0.51826	0.0489	0.12287	-0.359
Mof_I 	I 	0.32735	0.80841	0.33755	-0.376
Mof_I 	I 	0.19662	0.64836	0.31797	-0.37
Mof_C 	C 	0.0831	0.0874	0.09449	0.063
Mof_H 	H 	0.0823	0.1028	0.0735	-0.007
Mof_C 	C 	0.1271	0.0738	0.10843	-0.108
Mof_H 	H 	0.1557	0.08	0.0971	0.078
Mof_C 	C 	0.1287	0.0511	0.13893	0.054
Mof_C 	C 	0.0867	0.042	0.15454	-0.111
Mof_H 	H 	0.087	0.0259	0.1755	0.08
Mof_C 	C 	0.0441	0.0564	0.1397	0.066
Mof_H 	H 	0.0154	0.05	0.1509	-0.005
Mof_C 	C 	0.1879	0.8872	0.2708	0.054
Mof_H 	H 	0.1612	0.8591	0.2805	-0.004
Mof_C 	C 	0.1821	0.9271	0.24274	-0.104
Mof_H 	H 	0.1515	0.9285	0.2336	0.076
Mof_C 	C 	0.2213	0.9663	0.22727	0.04
Mof_C 	C 	0.2646	0.9674	0.24248	-0.103
Mof_H 	H 	0.2918	0.9955	0.2333	0.078
Mof_C 	C 	0.2678	0.9271	0.27118	0.054
Mof_H 	H 	0.2976	0.9285	0.2812	0.006
Mof_C 	C 	0.3863	0.0593	0.13771	0.06
Mof_H 	H 	0.4151	0.05	0.1486	-0.012
Mof_C 	C 	0.3439	0.0422	0.15268	-0.114
Mof_H 	H 	0.3435	0.0227	0.1734	0.08
Mof_C 	C 	0.3018	0.0545	0.13641	0.051
Mof_C 	C 	0.3038	0.0804	0.10607	-0.117
Mof_H 	H 	0.2757	0.0867	0.0943	0.078
Mof_C 	C 	0.3482	0.0969	0.0933	0.067
Mof_H 	H 	0.3497	0.1153	0.0725	-0.012
Mof_C 	C 	0.176	0.038	0.15468	0.105
Mof_C 	C 	0.255	0.0408	0.15233	0.104
Mof_C 	C 	0.2183	0.0013	0.19589	0.105
Mof_C 	C 	0.9334	0.3659	0.97358	0.062
Mof_H 	H 	0.9275	0.2991	0.9708	-0.004
Mof_C 	C 	0.9228	0.4074	0.00096	-0.114
Mof_H 	H 	0.9108	0.3687	0.017	0.081
Mof_C 	C 	0.9295	0.5046	0.00563	0.055
Mof_C 	C 	0.9497	0.5575	0.98147	-0.125
Mof_H 	H 	0.9556	0.6245	0.9836	0.094
Mof_C 	C 	0.9606	0.5113	0.95514	0.075
Mof_H 	H 	0.9751	0.5474	0.9393	-0.015
Mof_C 	C 	0.9575	0.9382	0.0512	0.06
Mof_H 	H 	0.973	0.975	0.036	-0.002
Mof_C 	C 	0.9435	0.8445	0.04471	-0.115
Mof_H 	H 	0.9495	0.8175	0.0253	0.088
Mof_C 	C 	0.9204	0.79	0.06713	0.043
Mof_C 	C 	0.9119	0.833	0.09543	-0.122
Mof_H 	H 	0.8951	0.7992	0.1108	0.097
Mof_C 	C 	0.9283	0.9255	0.10048	0.07
Mof_H 	H 	0.9243	0.9527	0.1201	-0.005
Mof_C 	C 	0.7988	0.4856	0.14586	0.074
Mof_H 	H 	0.7817	0.5169	0.1616	-0.014
Mof_C 	C 	0.823	0.5406	0.12447	-0.121
Mof_H 	H 	0.823	0.6088	0.1258	0.083
Mof_C 	C 	0.8471	0.495	0.10129	0.064
Mof_C 	C 	0.8476	0.3949	0.101	-0.119
Mof_H 	H 	0.8642	0.3609	0.0856	0.08
Mof_C 	C 	0.8238	0.3465	0.1231	0.077
Mof_H 	H 	0.8251	0.2782	0.1232	-0.011
Mof_C 	C 	0.9137	0.5529	0.03381	0.094
Mof_C 	C 	0.8737	0.5513	0.07762	0.104
Mof_C 	C 	0.9075	0.6886	0.06194	0.092
Mof_N 	N 	0.0416	0.0794	0.10984	-0.268
Mof_N 	N 	0.3892	0.0881	0.1089	-0.273
Mof_N 	N 	0.2307	0.8859	0.28558	-0.27
Mof_N 	N 	0.215	0.0544	0.13756	-0.141
Mof_N 	N 	0.259	0.0148	0.18179	-0.141
Mof_N 	N 	0.1745	0.0125	0.18324	-0.14
Mof_N 	N 	0.952	0.4177	0.95028	-0.274
Mof_N 	N 	0.7992	0.3902	0.14463	-0.274
Mof_N 	N 	0.9494	0.9786	0.07899	-0.268
Mof_N 	N 	0.8892	0.5011	0.05383	-0.14
Mof_N 	N 	0.8809	0.6446	0.08281	-0.135
Mof_N 	N 	0.9249	0.6476	0.03723	-0.142
Mof_Zn	Zn	0.52212	0.88888	0.58977	1.164
Mof_Zn	Zn	0.04637	0.86352	0.59304	1.164
Mof_Zn	Zn	0.26073	0.19089	0.82454	1.164
Mof_I 	I 	0.50652	0.80378	0.53897	-0.392
Mof_I 	I 	0.5709	0.81224	0.63153	-0.368
Mof_I 	I 	0.05663	0.68203	0.59175	-0.385
Mof_I 	I 	0.98174	0.9511	0.62287	-0.358
Mof_I 	I 	0.17265	0.19159	0.83755	-0.376
Mof_I 	I 	0.30338	0.35164	0.81797	-0.37
Mof_C 	C 	0.4169	0.9126	0.59449	0.063
Mof_H 	H 	0.4177	0.8972	0.5735	-0.007
Mof_C 	C 	0.3729	0.9262	0.60843	-0.108
Mof_H 	H 	0.3443	0.92	0.5971	0.078
Mof_C 	C 	0.3713	0.9489	0.63893	0.054
Mof_C 	C 	0.4133	0.958	0.65454	-0.111
Mof_H 	H 	0.413	0.9741	0.6755	0.08
Mof_C 	C 	0.4559	0.9436	0.6397	0.066
Mof_H 	H 	0.4846	0.95	0.6509	-0.005
Mof_C 	C 	0.3121	0.1128	0.7708	0.054
Mof_H 	H 	0.3388	0.1409	0.7805	-0.004
Mof_C 	C 	0.3179	0.0729	0.74274	-0.105
Mof_H 	H 	0.3485	0.0715	0.7336	0.076
Mof_C 	C 	0.2787	0.0337	0.72727	0.041
Mof_C 	C 	0.2354	0.0326	0.74248	-0.103
Mof_H 	H 	0.2082	0.0045	0.7333	0.078
Mof_C 	C 	0.2322	0.0729	0.77118	0.055
Mof_H 	H 	0.2024	0.0715	0.7812	0.006
Mof_C 	C 	0.1137	0.9407	0.63771	0.06
Mof_H 	H 	0.0849	0.95	0.6486	-0.013
Mof_C 	C 	0.1561	0.9578	0.65268	-0.114
Mof_H 	H 	0.1565	0.9773	0.6734	0.079
Mof_C 	C 	0.1982	0.9455	0.63641	0.051
Mof_C 	C 	0.1962	0.9196	0.60607	-0.117
Mof_H 	H 	0.2243	0.9133	0.5943	0.078
Mof_C 	C 	0.1518	0.9031	0.5933	0.067
Mof_H 	H 	0.1503	0.8847	0.5725	-0.012
Mof_C 	C 	0.324	0.962	0.65468	0.105
Mof_C 	C 	0.245	0.9592	0.65233	0.104
Mof_C 	C 	0.2817	0.9987	0.69589	0.104
Mof_C 	C 	0.5666	0.6341	0.47358	0.062
Mof_H 	H 	0.5725	0.7009	0.4708	-0.004
Mof_C 	C 	0.5772	0.5926	0.50096	-0.114
Mof_H 	H 	0.5892	0.6313	0.517	0.081
Mof_C 	C 	0.5705	0.4954	0.50563	0.055
Mof_C 	C 	0.5503	0.4425	0.48147	-0.125
Mof_H 	H 	0.5444	0.3755	0.4836	0.094
Mof_C 	C 	0.5394	0.4887	0.45514	0.075
Mof_H 	H 	0.5249	0.4526	0.4393	-0.015
Mof_C 	C 	0.5425	0.0618	0.5512	0.06
Mof_H 	H 	0.527	0.025	0.536	-0.003
Mof_C 	C 	0.5565	0.1555	0.54471	-0.115
Mof_H 	H 	0.5505	0.1825	0.5253	0.088
Mof_C 	C 	0.5796	0.21	0.56713	0.043
Mof_C 	C 	0.5881	0.167	0.59543	-0.122
Mof_H 	H 	0.6049	0.2008	0.6108	0.097
Mof_C 	C 	0.5717	0.0745	0.60048	0.07
Mof_H 	H 	0.5757	0.0473	0.6201	-0.005
Mof_C 	C 	0.7012	0.5144	0.64586	0.074
Mof_H 	H 	0.7183	0.4831	0.6616	-0.014
Mof_C 	C 	0.677	0.4594	0.62447	-0.122
Mof_H 	H 	0.677	0.3912	0.6258	0.083
Mof_C 	C 	0.6529	0.505	0.60129	0.064
Mof_C 	C 	0.6524	0.6051	0.601	-0.119
Mof_H 	H 	0.6358	0.6391	0.5856	0.08
Mof_C 	C 	0.6762	0.6535	0.6231	0.077
Mof_H 	H 	0.6749	0.7218	0.6232	-0.011
Mof_C 	C 	0.5863	0.4471	0.53381	0.094
Mof_C 	C 	0.6263	0.4487	0.57762	0.104
Mof_C 	C 	0.5925	0.3114	0.56194	0.092
Mof_N 	N 	0.4584	0.9206	0.60984	-0.268
Mof_N 	N 	0.1108	0.9119	0.6089	-0.273
Mof_N 	N 	0.2693	0.1141	0.78558	-0.27
Mof_N 	N 	0.285	0.9456	0.63756	-0.141
Mof_N 	N 	0.241	0.9852	0.68179	-0.141
Mof_N 	N 	0.3255	0.9875	0.68324	-0.14
Mof_N 	N 	0.548	0.5823	0.45028	-0.274
Mof_N 	N 	0.7008	0.6098	0.64463	-0.274
Mof_N 	N 	0.5506	0.0214	0.57899	-0.268
Mof_N 	N 	0.6108	0.4989	0.55383	-0.14
Mof_N 	N 	0.6191	0.3554	0.58281	-0.135
Mof_N 	N 	0.5751	0.3524	0.53723	-0.142
Mof_Zn	Zn	0.02212	0.61112	0.41023	1.164
Mof_Zn	Zn	0.54637	0.63648	0.40696	1.164
Mof_Zn	Zn	0.76073	0.30911	0.17546	1.164
Mof_I 	I 	0.00652	0.69622	0.46103	-0.392
Mof_I 	I 	0.0709	0.68776	0.36847	-0.368
Mof_I 	I 	0.55663	0.81797	0.40825	-0.385
Mof_I 	I 	0.48174	0.5489	0.37713	-0.359
Mof_I 	I 	0.67265	0.30841	0.16245	-0.376
Mof_I 	I 	0.80338	0.14836	0.18203	-0.37
Mof_C 	C 	0.9169	0.5874	0.40551	0.063
Mof_H 	H 	0.9177	0.6028	0.4265	-0.007
Mof_C 	C 	0.8729	0.5738	0.39157	-0.108
Mof_H 	H 	0.8443	0.58	0.4029	0.078
Mof_C 	C 	0.8713	0.5511	0.36107	0.054
Mof_C 	C 	0.9133	0.542	0.34546	-0.111
Mof_H 	H 	0.913	0.5259	0.3245	0.08
Mof_C 	C 	0.9559	0.5564	0.3603	0.066
Mof_H 	H 	0.9846	0.55	0.3491	-0.005
Mof_C 	C 	0.8121	0.3872	0.2292	0.054
Mof_H 	H 	0.8388	0.3591	0.2195	-0.004
Mof_C 	C 	0.8179	0.4271	0.25726	-0.105
Mof_H 	H 	0.8485	0.4285	0.2664	0.076
Mof_C 	C 	0.7787	0.4663	0.27273	0.041
Mof_C 	C 	0.7354	0.4674	0.25752	-0.103
Mof_H 	H 	0.7082	0.4955	0.2667	0.078
Mof_C 	C 	0.7322	0.4271	0.22882	0.054
Mof_H 	H 	0.7024	0.4285	0.2188	0.006
Mof_C 	C 	0.6137	0.5593	0.36229	0.06
Mof_H 	H 	0.5849	0.55	0.3514	-0.012
Mof_C 	C 	0.6561	0.5422	0.34732	-0.114
Mof_H 	H 	0.6565	0.5227	0.3266	0.08
Mof_C 	C 	0.6982	0.5545	0.36359	0.051
Mof_C 	C 	0.6962	0.5804	0.39393	-0.117
Mof_H 	H 	0.7243	0.5867	0.4057	0.078
Mof_C 	C 	0.6518	0.5969	0.4067	0.067
Mof_H 	H 	0.6503	0.6153	0.4275	-0.012
Mof_C 	C 	0.824	0.538	0.34532	0.105
Mof_C 	C 	0.745	0.5408	0.34767	0.104
Mof_C 	C 	0.7817	0.5013	0.30411	0.105
Mof_C 	C 	0.0666	0.8659	0.52642	0.063
Mof_H 	H 	0.0725	0.7991	0.5292	-0.004
Mof_C 	C 	0.0772	0.9074	0.49904	-0.116
Mof_H 	H 	0.0892	0.8687	0.483	0.081
Mof_C 	C 	0.0705	0.0046	0.49437	0.057
Mof_C 	C 	0.0503	0.0575	0.51853	-0.126
Mof_H 	H 	0.0444	0.1245	0.5164	0.094
Mof_C 	C 	0.0394	0.0113	0.54486	0.076
Mof_H 	H 	0.0249	0.0474	0.5607	-0.015
Mof_C 	C 	0.0425	0.4382	0.4488	0.06
Mof_H 	H 	0.027	0.475	0.464	-0.002
Mof_C 	C 	0.0565	0.3445	0.45529	-0.115
Mof_H 	H 	0.0505	0.3175	0.4747	0.088
Mof_C 	C 	0.0796	0.29	0.43287	0.043
Mof_C 	C 	0.0881	0.333	0.40457	-0.122
Mof_H 	H 	0.1049	0.2992	0.3892	0.097
Mof_C 	C 	0.0717	0.4255	0.39952	0.07
Mof_H 	H 	0.0757	0.4527	0.3799	-0.005
Mof_C 	C 	0.2012	0.9856	0.35414	0.071
Mof_H 	H 	0.2183	0.0169	0.3384	-0.013
Mof_C 	C 	0.177	0.0406	0.37553	-0.118
Mof_H 	H 	0.177	0.1088	0.3742	0.081
Mof_C 	C 	0.1529	0.995	0.39871	0.06
Mof_C 	C 	0.1524	0.8949	0.399	-0.117
Mof_H 	H 	0.1358	0.8609	0.4144	0.079
Mof_C 	C 	0.1762	0.8465	0.3769	0.076
Mof_H 	H 	0.1749	0.7782	0.3768	-0.011
Mof_C 	C 	0.0863	0.0529	0.46619	0.093
Mof_C 	C 	0.1263	0.0513	0.42238	0.105
Mof_C 	C 	0.0925	0.1886	0.43806	0.092
Mof_N 	N 	0.9584	0.5794	0.39016	-0.268
Mof_N 	N 	0.6108	0.5881	0.3911	-0.273
Mof_N 	N 	0.7693	0.3859	0.21442	-0.27
Mof_N 	N 	0.785	0.5544	0.36244	-0.141
Mof_N 	N 	0.741	0.5148	0.31821	-0.141
Mof_N 	N 	0.8255	0.5125	0.31676	-0.14
Mof_N 	N 	0.048	0.9177	0.54972	-0.274
Mof_N 	N 	0.2008	0.8902	0.35537	-0.273
Mof_N 	N 	0.0506	0.4786	0.42101	-0.268
Mof_N 	N 	0.1108	0.0011	0.44617	-0.14
Mof_N 	N 	0.1191	0.1446	0.41719	-0.136
Mof_N 	N 	0.0751	0.1476	0.46277	-0.142
Mof_Zn	Zn	0.47788	0.38888	0.91023	1.164
Mof_Zn	Zn	0.95363	0.36352	0.90696	1.164
Mof_Zn	Zn	0.73927	0.69089	0.67546	1.164
Mof_I 	I 	0.49348	0.30378	0.96103	-0.392
Mof_I 	I 	0.4291	0.31224	0.86847	-0.368
Mof_I 	I 	0.94337	0.18203	0.90825	-0.386
Mof_I 	I 	0.01826	0.4511	0.87713	-0.359
Mof_I 	I 	0.82735	0.69159	0.66245	-0.376
Mof_I 	I 	0.69662	0.85164	0.68203	-0.369
Mof_C 	C 	0.5831	0.4126	0.90551	0.063
Mof_H 	H 	0.5823	0.3972	0.9265	-0.007
Mof_C 	C 	0.6271	0.4262	0.89157	-0.108
Mof_H 	H 	0.6557	0.42	0.9029	0.078
Mof_C 	C 	0.6287	0.4489	0.86107	0.054
Mof_C 	C 	0.5867	0.458	0.84546	-0.111
Mof_H 	H 	0.587	0.4741	0.8245	0.08
Mof_C 	C 	0.5441	0.4436	0.8603	0.066
Mof_H 	H 	0.5154	0.45	0.8491	-0.005
Mof_C 	C 	0.6879	0.6128	0.7292	0.054
Mof_H 	H 	0.6612	0.6409	0.7195	-0.004
Mof_C 	C 	0.6821	0.5729	0.75726	-0.105
Mof_H 	H 	0.6515	0.5715	0.7664	0.076
Mof_C 	C 	0.7213	0.5337	0.77273	0.041
Mof_C 	C 	0.7646	0.5326	0.75752	-0.103
Mof_H 	H 	0.7918	0.5045	0.7667	0.078
Mof_C 	C 	0.7678	0.5729	0.72882	0.054
Mof_H 	H 	0.7976	0.5715	0.7188	0.006
Mof_C 	C 	0.8863	0.4407	0.86229	0.06
Mof_H 	H 	0.9151	0.45	0.8514	-0.012
Mof_C 	C 	0.8439	0.4578	0.84732	-0.114
Mof_H 	H 	0.8435	0.4773	0.8266	0.08
Mof_C 	C 	0.8018	0.4455	0.86359	0.051
Mof_C 	C 	0.8038	0.4196	0.89393	-0.117
Mof_H 	H 	0.7757	0.4133	0.9057	0.078
Mof_C 	C 	0.8482	0.4031	0.9067	0.067
Mof_H 	H 	0.8497	0.3847	0.9275	-0.012
Mof_C 	C 	0.676	0.462	0.84532	0.105
Mof_C 	C 	0.755	0.4592	0.84767	0.104
Mof_C 	C 	0.7183	0.4987	0.80411	0.105
Mof_C 	C 	0.4334	0.1341	0.02642	0.062
Mof_H 	H 	0.4275	0.2009	0.0292	-0.004
Mof_C 	C 	0.4228	0.0926	0.99904	-0.114
Mof_H 	H 	0.4108	0.1313	0.983	0.081
Mof_C 	C 	0.4295	0.9954	0.99437	0.055
Mof_C 	C 	0.4497	0.9425	0.01853	-0.124
Mof_H 	H 	0.4556	0.8755	0.0164	0.094
Mof_C 	C 	0.4606	0.9887	0.04486	0.074
Mof_H 	H 	0.4751	0.9526	0.0607	-0.015
Mof_C 	C 	0.4575	0.5618	0.9488	0.06
Mof_H 	H 	0.473	0.525	0.964	-0.003
Mof_C 	C 	0.4435	0.6555	0.95529	-0.115
Mof_H 	H 	0.4495	0.6825	0.9747	0.088
Mof_C 	C 	0.4204	0.71	0.93287	0.043
Mof_C 	C 	0.4119	0.667	0.90457	-0.122
Mof_H 	H 	0.3951	0.7008	0.8892	0.097
Mof_C 	C 	0.4283	0.5745	0.89952	0.07
Mof_H 	H 	0.4243	0.5473	0.8799	-0.005
Mof_C 	C 	0.2988	0.0144	0.85414	0.075
Mof_H 	H 	0.2817	0.9831	0.8384	-0.015
Mof_C 	C 	0.323	0.9594	0.87553	-0.122
Mof_H 	H 	0.323	0.8912	0.8742	0.083
Mof_C 	C 	0.3471	0.005	0.89871	0.064
Mof_C 	C 	0.3476	0.1051	0.899	-0.119
Mof_H 	H 	0.3642	0.1391	0.9144	0.08
Mof_C 	C 	0.3238	0.1535	0.8769	0.077
Mof_H 	H 	0.3251	0.2218	0.8768	-0.011
Mof_C 	C 	0.4137	0.9471	0.96619	0.094
Mof_C 	C 	0.3737	0.9487	0.92238	0.103
Mof_C 	C 	0.4075	0.8114	0.93806	0.092
Mof_N 	N 	0.5416	0.4206	0.89016	-0.268
Mof_N 	N 	0.8892	0.4119	0.8911	-0.273
Mof_N 	N 	0.7307	0.6141	0.71442	-0.27
Mof_N 	N 	0.715	0.4456	0.86244	-0.141
Mof_N 	N 	0.759	0.4852	0.81821	-0.141
Mof_N 	N 	0.6745	0.4875	0.81676	-0.141
Mof_N 	N 	0.452	0.0823	0.04972	-0.274
Mof_N 	N 	0.2992	0.1098	0.85537	-0.274
Mof_N 	N 	0.4494	0.5214	0.92101	-0.268
Mof_N 	N 	0.3892	0.9989	0.94617	-0.14
Mof_N 	N 	0.3809	0.8554	0.91719	-0.135
Mof_N 	N 	0.4249	0.8524	0.96277	-0.142
_end
