data_functionalizedCrystal
_audit_creation_method	'EQeq! by Chris Wilmer'
_symmetry_space_group_name_H-M	'P1'
_symmetry_Int_Tables_number	1
_symmetry_cell_setting	triclinic
loop_
_symmetry_equiv_pos_as_xyz
  x,y,z
_cell_length_a	12.8539
_cell_length_b	14.4578
_cell_length_c	30.453
_cell_angle_alpha	90
_cell_angle_beta	96.497
_cell_angle_gamma	90
loop_
_atom_site_label
_atom_site_type_symbol
_atom_site_fract_x
_atom_site_fract_y
_atom_site_fract_z
_atom_site_charge
Mof_Ni	Ni	0.87276	0.78238	0.06641	1.105
Mof_Ni	Ni	0.19672	0.90705	0.11183	1.063
Mof_Ni	Ni	0.12926	0.70616	0.11907	1.106
Mof_Ni	Ni	0.97333	0.8099	0.16113	1.105
Mof_O 	O 	0.14677	0.79637	0.06652	-0.563
Mof_O 	O 	0.07542	0.1021	0.89223	-0.566
Mof_O 	O 	0.97009	0.71444	0.11129	-0.668
Mof_H 	H 	0.9387	0.6563	0.1198	0.174
Mof_O 	O 	0.28879	0.69812	0.13018	-0.456
Mof_O 	O 	0.00766	0.71096	0.20889	-0.421
Mof_O 	O 	0.11999	0.6257	0.17397	-0.427
Mof_O 	O 	0.12734	0.82823	0.15373	-0.682
Mof_H 	H 	0.1707	0.8235	0.1822	0.158
Mof_O 	O 	0.93606	0.0196	0.90828	-0.481
Mof_O 	O 	0.1674	0.33457	0.97129	-0.381
Mof_O 	O 	0.98763	0.80313	0.02689	-0.46
Mof_O 	O 	0.8193	0.78606	0.16834	-0.449
Mof_O 	O 	0.74457	0.7589	0.09889	-0.445
Mof_O 	O 	0.33918	0.84726	0.13071	-0.482
Mof_N 	N 	0.0313	0.41444	0.29302	-0.22
Mof_N 	N 	0.2619	0.8744	0.94441	-0.26
Mof_C 	C 	0.6479	0.7281	0.15889	-0.319
Mof_N 	N 	0.1417	0.5865	0.08277	-0.212
Mof_C 	C 	0.1961	0.515	0.10262	0.046
Mof_H 	H 	0.2228	0.5209	0.1322	0.012
Mof_N 	N 	0.5658	0.6381	0.21166	-0.251
Mof_O 	O 	0.2167	0.2646	0.03623	-0.278
Mof_C 	C 	0.1029	0.9603	0.9319	-0.37
Mof_C 	C 	0.1246	0.4982	0.01592	-0.079
Mof_H 	H 	0.101	0.4952	0.9859	0.067
Mof_C 	C 	0.4611	0.732	0.15889	-0.327
Mof_C 	C 	0.0662	0.9153	0.96661	0.278
Mof_H 	H 	0.998	0.9259	0.9727	-0.05
Mof_C 	C 	0.9839	0.4958	0.29767	0.041
Mof_H 	H 	0.9423	0.502	0.3206	-0.019
Mof_C 	C 	0.033	0.0329	0.90852	0.469
Mof_C 	C 	0.0846	0.8139	0.03197	0.472
Mof_C 	C 	0.3533	0.7617	0.13828	0.438
Mof_C 	C 	0.0613	0.6388	0.20368	0.319
Mof_C 	C 	0.9931	0.5698	0.2708	-0.087
Mof_H 	H 	0.9597	0.6253	0.2758	0.055
Mof_C 	C 	0.2294	0.8347	0.98083	0.392
Mof_C 	C 	0.7449	0.7601	0.14061	0.424
Mof_C 	C 	0.1291	0.8543	0.99276	-0.369
Mof_C 	C 	0.177	0.4237	0.03682	-0.022
Mof_C 	C 	0.053	0.5615	0.23566	-0.046
Mof_C 	C 	0.1077	0.5774	0.04003	0.04
Mof_H 	H 	0.071	0.6262	0.0257	0.011
Mof_C 	C 	0.6521	0.666	0.19423	0.364
Mof_C 	C 	0.2027	0.938	0.921	0.386
Mof_C 	C 	0.5499	0.7609	0.14154	0.239
Mof_H 	H 	0.5444	0.8024	0.1181	-0.05
Mof_C 	C 	0.0896	0.4057	0.25931	0.038
Mof_H 	H 	0.123	0.3497	0.2554	0.013
Mof_C 	C 	0.1017	0.477	0.23028	-0.075
Mof_H 	H 	0.1422	0.4687	0.2072	0.058
Mof_C 	C 	0.1885	0.3334	0.0126	0.305
Mof_C 	C 	0.2496	0.9785	0.88235	-0.901
Mof_H 	H 	0.3174	0.9519	0.8806	0.292
Mof_H 	H 	0.2564	0.0443	0.8861	0.295
Mof_H 	H 	0.205	0.9654	0.8556	0.299
Mof_C 	C 	0.3041	0.7697	0.00583	-0.934
Mof_H 	H 	0.3686	0.7688	0.9927	0.305
Mof_H 	H 	0.2744	0.7087	0.0049	0.312
Mof_H 	H 	0.3174	0.7897	0.036	0.305
Mof_C 	C 	0.7537	0.6238	0.21507	-0.868
Mof_H 	H 	0.7398	0.5838	0.2389	0.279
Mof_H 	H 	0.8007	0.6721	0.2263	0.3
Mof_H 	H 	0.7851	0.5887	0.1933	0.286
Mof_C 	C 	0.2136	0.4338	0.08098	-0.076
Mof_H 	H 	0.2501	0.3858	0.0961	0.064
Mof_C 	C 	0.471	0.6703	0.19427	0.373
Mof_C 	C 	0.3796	0.6396	0.21753	-0.89
Mof_H 	H 	0.4036	0.5978	0.241	0.289
Mof_H 	H 	0.3291	0.6089	0.1969	0.309
Mof_H 	H 	0.3477	0.6926	0.2295	0.284
Mof_Ni	Ni	0.12724	0.28238	0.43359	1.106
Mof_Ni	Ni	0.80328	0.40705	0.38817	1.064
Mof_Ni	Ni	0.87074	0.20616	0.38093	1.107
Mof_Ni	Ni	0.02667	0.3099	0.33887	1.106
Mof_O 	O 	0.85323	0.29637	0.43348	-0.562
Mof_O 	O 	0.92458	0.6021	0.60777	-0.566
Mof_O 	O 	0.02991	0.21444	0.38871	-0.667
Mof_H 	H 	0.0613	0.1563	0.3802	0.175
Mof_O 	O 	0.71121	0.19812	0.36982	-0.455
Mof_O 	O 	0.99234	0.21096	0.29111	-0.419
Mof_O 	O 	0.88001	0.1257	0.32603	-0.425
Mof_O 	O 	0.87266	0.32823	0.34627	-0.681
Mof_H 	H 	0.8293	0.3235	0.3178	0.159
Mof_O 	O 	0.06394	0.5196	0.59172	-0.482
Mof_O 	O 	0.8326	0.83457	0.52871	-0.38
Mof_O 	O 	0.01237	0.30313	0.47311	-0.458
Mof_O 	O 	0.1807	0.28606	0.33166	-0.449
Mof_O 	O 	0.25543	0.2589	0.40111	-0.445
Mof_O 	O 	0.66082	0.34726	0.36929	-0.482
Mof_N 	N 	0.9687	0.91444	0.20698	-0.222
Mof_N 	N 	0.7381	0.3744	0.55559	-0.261
Mof_C 	C 	0.3521	0.2281	0.34111	-0.319
Mof_N 	N 	0.8583	0.0865	0.41723	-0.213
Mof_C 	C 	0.8039	0.015	0.39738	0.049
Mof_H 	H 	0.7772	0.0209	0.3678	0.011
Mof_N 	N 	0.4342	0.1381	0.28834	-0.251
Mof_O 	O 	0.7833	0.7646	0.46377	-0.278
Mof_C 	C 	0.8971	0.4603	0.5681	-0.373
Mof_C 	C 	0.8754	0.9982	0.48408	-0.083
Mof_H 	H 	0.899	0.9952	0.5141	0.068
Mof_C 	C 	0.5389	0.232	0.34111	-0.327
Mof_C 	C 	0.9338	0.4153	0.53339	0.277
Mof_H 	H 	0.002	0.4259	0.5273	-0.049
Mof_C 	C 	0.0161	0.9958	0.20233	0.05
Mof_H 	H 	0.0577	0.002	0.1794	-0.023
Mof_C 	C 	0.967	0.5329	0.59148	0.473
Mof_C 	C 	0.9154	0.3139	0.46803	0.471
Mof_C 	C 	0.6467	0.2617	0.36172	0.438
Mof_C 	C 	0.9387	0.1388	0.29632	0.317
Mof_C 	C 	0.0069	0.0698	0.2292	-0.096
Mof_H 	H 	0.0403	0.1253	0.2242	0.058
Mof_C 	C 	0.7706	0.3347	0.51917	0.392
Mof_C 	C 	0.2551	0.2601	0.35939	0.424
Mof_C 	C 	0.8709	0.3543	0.50724	-0.368
Mof_C 	C 	0.823	0.9237	0.46318	-0.019
Mof_C 	C 	0.947	0.0615	0.26434	-0.038
Mof_C 	C 	0.8923	0.0774	0.45997	0.044
Mof_H 	H 	0.929	0.1262	0.4743	0.011
Mof_C 	C 	0.3479	0.166	0.30577	0.364
Mof_C 	C 	0.7973	0.438	0.579	0.388
Mof_C 	C 	0.4501	0.2609	0.35846	0.239
Mof_H 	H 	0.4556	0.3024	0.3819	-0.05
Mof_C 	C 	0.9104	0.9057	0.24069	0.042
Mof_H 	H 	0.877	0.8497	0.2446	0.012
Mof_C 	C 	0.8983	0.977	0.26972	-0.082
Mof_H 	H 	0.8578	0.9687	0.2928	0.06
Mof_C 	C 	0.8115	0.8334	0.4874	0.304
Mof_C 	C 	0.7504	0.4785	0.61765	-0.908
Mof_H 	H 	0.6826	0.4519	0.6194	0.293
Mof_H 	H 	0.7436	0.5443	0.6139	0.298
Mof_H 	H 	0.795	0.4654	0.6444	0.301
Mof_C 	C 	0.6959	0.2697	0.49417	-0.932
Mof_H 	H 	0.6314	0.2688	0.5073	0.305
Mof_H 	H 	0.7256	0.2087	0.4951	0.311
Mof_H 	H 	0.6826	0.2897	0.464	0.305
Mof_C 	C 	0.2463	0.1238	0.28493	-0.867
Mof_H 	H 	0.2602	0.0838	0.2611	0.279
Mof_H 	H 	0.1993	0.1721	0.2737	0.3
Mof_H 	H 	0.2149	0.0887	0.3067	0.285
Mof_C 	C 	0.7864	0.9338	0.41902	-0.08
Mof_H 	H 	0.7499	0.8858	0.4039	0.065
Mof_C 	C 	0.529	0.1703	0.30573	0.373
Mof_C 	C 	0.6204	0.1396	0.28247	-0.891
Mof_H 	H 	0.5964	0.0978	0.259	0.289
Mof_H 	H 	0.6709	0.1089	0.3031	0.309
Mof_H 	H 	0.6523	0.1926	0.2705	0.285
Mof_Ni	Ni	0.12724	0.21762	0.93359	1.106
Mof_Ni	Ni	0.80328	0.09295	0.88817	1.064
Mof_Ni	Ni	0.87074	0.29384	0.88093	1.107
Mof_Ni	Ni	0.02667	0.1901	0.83887	1.106
Mof_O 	O 	0.85323	0.20363	0.93348	-0.562
Mof_O 	O 	0.92458	0.8979	0.10777	-0.565
Mof_O 	O 	0.02991	0.28556	0.88871	-0.667
Mof_H 	H 	0.0613	0.3437	0.8802	0.175
Mof_O 	O 	0.71121	0.30188	0.86982	-0.455
Mof_O 	O 	0.99234	0.28904	0.79111	-0.42
Mof_O 	O 	0.88001	0.3743	0.82603	-0.426
Mof_O 	O 	0.87266	0.17177	0.84627	-0.681
Mof_H 	H 	0.8293	0.1765	0.8178	0.159
Mof_O 	O 	0.06394	0.9804	0.09172	-0.48
Mof_O 	O 	0.8326	0.66543	0.02871	-0.38
Mof_O 	O 	0.01237	0.19687	0.97311	-0.459
Mof_O 	O 	0.1807	0.21394	0.83166	-0.449
Mof_O 	O 	0.25543	0.2411	0.90111	-0.445
Mof_O 	O 	0.66082	0.15274	0.86929	-0.482
Mof_N 	N 	0.9687	0.58556	0.70698	-0.22
Mof_N 	N 	0.7381	0.1256	0.05559	-0.26
Mof_C 	C 	0.3521	0.2719	0.84111	-0.319
Mof_N 	N 	0.8583	0.4135	0.91723	-0.212
Mof_C 	C 	0.8039	0.485	0.89738	0.046
Mof_H 	H 	0.7772	0.4791	0.8678	0.012
Mof_N 	N 	0.4342	0.3619	0.78834	-0.251
Mof_O 	O 	0.7833	0.7354	0.96377	-0.278
Mof_C 	C 	0.8971	0.0397	0.0681	-0.37
Mof_C 	C 	0.8754	0.5018	0.98408	-0.079
Mof_H 	H 	0.899	0.5048	0.0141	0.067
Mof_C 	C 	0.5389	0.268	0.84111	-0.327
Mof_C 	C 	0.9338	0.0847	0.03339	0.278
Mof_H 	H 	0.002	0.0741	0.0273	-0.05
Mof_C 	C 	0.0161	0.5042	0.70233	0.041
Mof_H 	H 	0.0577	0.498	0.6794	-0.019
Mof_C 	C 	0.967	0.9671	0.09148	0.469
Mof_C 	C 	0.9154	0.1861	0.96803	0.472
Mof_C 	C 	0.6467	0.2383	0.86172	0.438
Mof_C 	C 	0.9387	0.3612	0.79632	0.319
Mof_C 	C 	0.0069	0.4302	0.7292	-0.087
Mof_H 	H 	0.0403	0.3747	0.7242	0.055
Mof_C 	C 	0.7706	0.1653	0.01917	0.392
Mof_C 	C 	0.2551	0.2399	0.85939	0.424
Mof_C 	C 	0.8709	0.1457	0.00724	-0.369
Mof_C 	C 	0.823	0.5763	0.96318	-0.022
Mof_C 	C 	0.947	0.4385	0.76434	-0.046
Mof_C 	C 	0.8923	0.4226	0.95997	0.04
Mof_H 	H 	0.929	0.3738	0.9743	0.011
Mof_C 	C 	0.3479	0.334	0.80577	0.364
Mof_C 	C 	0.7973	0.062	0.079	0.386
Mof_C 	C 	0.4501	0.2391	0.85846	0.239
Mof_H 	H 	0.4556	0.1976	0.8819	-0.05
Mof_C 	C 	0.9104	0.5943	0.74069	0.038
Mof_H 	H 	0.877	0.6503	0.7446	0.013
Mof_C 	C 	0.8983	0.523	0.76972	-0.075
Mof_H 	H 	0.8578	0.5313	0.7928	0.058
Mof_C 	C 	0.8115	0.6666	0.9874	0.305
Mof_C 	C 	0.7504	0.0215	0.11765	-0.901
Mof_H 	H 	0.6826	0.0481	0.1194	0.292
Mof_H 	H 	0.7436	0.9557	0.1139	0.295
Mof_H 	H 	0.795	0.0346	0.1444	0.299
Mof_C 	C 	0.6959	0.2303	0.99417	-0.934
Mof_H 	H 	0.6314	0.2312	0.0073	0.305
Mof_H 	H 	0.7256	0.2913	0.9951	0.312
Mof_H 	H 	0.6826	0.2103	0.964	0.305
Mof_C 	C 	0.2463	0.3762	0.78493	-0.868
Mof_H 	H 	0.2602	0.4162	0.7611	0.279
Mof_H 	H 	0.1993	0.3279	0.7737	0.3
Mof_H 	H 	0.2149	0.4113	0.8067	0.286
Mof_C 	C 	0.7864	0.5662	0.91902	-0.076
Mof_H 	H 	0.7499	0.6142	0.9039	0.064
Mof_C 	C 	0.529	0.3297	0.80573	0.373
Mof_C 	C 	0.6204	0.3604	0.78247	-0.89
Mof_H 	H 	0.5964	0.4022	0.759	0.289
Mof_H 	H 	0.6709	0.3911	0.8031	0.309
Mof_H 	H 	0.6523	0.3074	0.7705	0.284
Mof_Ni	Ni	0.87276	0.71762	0.56641	1.106
Mof_Ni	Ni	0.19672	0.59295	0.61183	1.064
Mof_Ni	Ni	0.12926	0.79384	0.61907	1.107
Mof_Ni	Ni	0.97333	0.6901	0.66113	1.106
Mof_O 	O 	0.14677	0.70363	0.56652	-0.562
Mof_O 	O 	0.07542	0.3979	0.39223	-0.566
Mof_O 	O 	0.97009	0.78556	0.61129	-0.667
Mof_H 	H 	0.9387	0.8437	0.6198	0.175
Mof_O 	O 	0.28879	0.80188	0.63018	-0.455
Mof_O 	O 	0.00766	0.78904	0.70889	-0.419
Mof_O 	O 	0.11999	0.8743	0.67397	-0.425
Mof_O 	O 	0.12734	0.67177	0.65373	-0.681
Mof_H 	H 	0.1707	0.6765	0.6822	0.159
Mof_O 	O 	0.93606	0.4804	0.40828	-0.482
Mof_O 	O 	0.1674	0.16543	0.47129	-0.38
Mof_O 	O 	0.98763	0.69687	0.52689	-0.458
Mof_O 	O 	0.8193	0.71394	0.66834	-0.449
Mof_O 	O 	0.74457	0.7411	0.59889	-0.445
Mof_O 	O 	0.33918	0.65274	0.63071	-0.482
Mof_N 	N 	0.0313	0.08556	0.79302	-0.222
Mof_N 	N 	0.2619	0.6256	0.44441	-0.261
Mof_C 	C 	0.6479	0.7719	0.65889	-0.319
Mof_N 	N 	0.1417	0.9135	0.58277	-0.213
Mof_C 	C 	0.1961	0.985	0.60262	0.049
Mof_H 	H 	0.2228	0.9791	0.6322	0.011
Mof_N 	N 	0.5658	0.8619	0.71166	-0.251
Mof_O 	O 	0.2167	0.2354	0.53623	-0.278
Mof_C 	C 	0.1029	0.5397	0.4319	-0.373
Mof_C 	C 	0.1246	0.0018	0.51592	-0.083
Mof_H 	H 	0.101	0.0048	0.4859	0.068
Mof_C 	C 	0.4611	0.768	0.65889	-0.327
Mof_C 	C 	0.0662	0.5847	0.46661	0.277
Mof_H 	H 	0.998	0.5741	0.4727	-0.049
Mof_C 	C 	0.9839	0.0042	0.79767	0.05
Mof_H 	H 	0.9423	0.998	0.8206	-0.023
Mof_C 	C 	0.033	0.4671	0.40852	0.473
Mof_C 	C 	0.0846	0.6861	0.53197	0.471
Mof_C 	C 	0.3533	0.7383	0.63828	0.438
Mof_C 	C 	0.0613	0.8612	0.70368	0.317
Mof_C 	C 	0.9931	0.9302	0.7708	-0.096
Mof_H 	H 	0.9597	0.8747	0.7758	0.058
Mof_C 	C 	0.2294	0.6653	0.48083	0.392
Mof_C 	C 	0.7449	0.7399	0.64061	0.424
Mof_C 	C 	0.1291	0.6457	0.49276	-0.368
Mof_C 	C 	0.177	0.0763	0.53682	-0.019
Mof_C 	C 	0.053	0.9385	0.73566	-0.038
Mof_C 	C 	0.1077	0.9226	0.54003	0.044
Mof_H 	H 	0.071	0.8738	0.5257	0.011
Mof_C 	C 	0.6521	0.834	0.69423	0.364
Mof_C 	C 	0.2027	0.562	0.421	0.388
Mof_C 	C 	0.5499	0.7391	0.64154	0.239
Mof_H 	H 	0.5444	0.6976	0.6181	-0.05
Mof_C 	C 	0.0896	0.0943	0.75931	0.042
Mof_H 	H 	0.123	0.1503	0.7554	0.012
Mof_C 	C 	0.1017	0.023	0.73028	-0.082
Mof_H 	H 	0.1422	0.0313	0.7072	0.06
Mof_C 	C 	0.1885	0.1666	0.5126	0.304
Mof_C 	C 	0.2496	0.5215	0.38235	-0.908
Mof_H 	H 	0.3174	0.5481	0.3806	0.293
Mof_H 	H 	0.2564	0.4557	0.3861	0.298
Mof_H 	H 	0.205	0.5346	0.3556	0.301
Mof_C 	C 	0.3041	0.7303	0.50583	-0.932
Mof_H 	H 	0.3686	0.7312	0.4927	0.305
Mof_H 	H 	0.2744	0.7913	0.5049	0.311
Mof_H 	H 	0.3174	0.7103	0.536	0.305
Mof_C 	C 	0.7537	0.8762	0.71507	-0.867
Mof_H 	H 	0.7398	0.9162	0.7389	0.279
Mof_H 	H 	0.8007	0.8279	0.7263	0.3
Mof_H 	H 	0.7851	0.9113	0.6933	0.285
Mof_C 	C 	0.2136	0.0662	0.58098	-0.08
Mof_H 	H 	0.2501	0.1142	0.5961	0.065
Mof_C 	C 	0.471	0.8297	0.69427	0.373
Mof_C 	C 	0.3796	0.8604	0.71753	-0.891
Mof_H 	H 	0.4036	0.9022	0.741	0.289
Mof_H 	H 	0.3291	0.8911	0.6969	0.309
Mof_H 	H 	0.3477	0.8074	0.7295	0.285
_end
