data_functionalizedCrystal
_audit_creation_method	'EQeq! by Chris Wilmer'
_symmetry_space_group_name_H-M	'P1'
_symmetry_Int_Tables_number	1
_symmetry_cell_setting	triclinic
loop_
_symmetry_equiv_pos_as_xyz
  x,y,z
_cell_length_a	10.112
_cell_length_b	13.7528
_cell_length_c	15.0434
_cell_angle_alpha	77.558
_cell_angle_beta	70.3608
_cell_angle_gamma	68.4301
loop_
_atom_site_label
_atom_site_type_symbol
_atom_site_fract_x
_atom_site_fract_y
_atom_site_fract_z
_atom_site_charge
Mof_Ca	Ca	0.49077	0.52717	0.11977	1.317
Mof_Ca	Ca	0.50923	0.47283	0.88023	1.317
Mof_Ca	Ca	0.13771	0.97283	0.38023	1.315
Mof_Ca	Ca	0.21517	0.75	0.25	1.486
Mof_Ca	Ca	0.86229	0.02717	0.61977	1.315
Mof_Ca	Ca	0.78483	0.25	0.75	1.486
Mof_H 	H 	0.5843	0.3541	0.4193	0.04
Mof_H 	H 	0.5039	0.8342	0.076	0.015
Mof_H 	H 	0.8275	0.1717	0.2487	0.045
Mof_H 	H 	0.4157	0.6459	0.5807	0.04
Mof_H 	H 	0.2479	0.3283	0.2513	0.047
Mof_H 	H 	0.8387	0.8039	0.6551	-0
Mof_H 	H 	0.2278	0.9049	0.0181	0.012
Mof_H 	H 	0.1508	0.5951	0.4819	0.016
Mof_H 	H 	0.1725	0.8283	0.7513	0.045
Mof_H 	H 	0.6423	0.8541	0.9193	0.037
Mof_H 	H 	0.3577	0.1459	0.0807	0.037
Mof_H 	H 	0.7521	0.6717	0.7487	0.047
Mof_H 	H 	0.114	0.0383	0.9189	0.052
Mof_H 	H 	0.9288	0.5383	0.4189	0.054
Mof_H 	H 	0.7722	0.0951	0.9819	0.012
Mof_H 	H 	0.886	0.9617	0.0811	0.052
Mof_H 	H 	0.5859	0.3342	0.576	0.013
Mof_H 	H 	0.7023	0.3039	0.1551	0.001
Mof_H 	H 	0.4961	0.1658	0.924	0.015
Mof_H 	H 	0.2977	0.6961	0.8449	0.001
Mof_H 	H 	0.0712	0.4617	0.5811	0.054
Mof_H 	H 	0.8492	0.4049	0.5181	0.016
Mof_H 	H 	0.4141	0.6658	0.424	0.013
Mof_H 	H 	0.1613	0.1961	0.3449	-0
Mof_C 	C 	0.07161	0.61069	0.53629	0.033
Mof_C 	C 	0.09838	0.44704	0.3254	-0.083
Mof_C 	C 	0.87082	0.05296	0.1746	-0.087
Mof_C 	C 	0.65355	0.30082	0.99448	0.431
Mof_C 	C 	0.8151	0.15584	0.19556	-0.047
Mof_C 	C 	0.97766	0.46907	0.40481	-0.05
Mof_C 	C 	0.92839	0.38931	0.46371	0.033
Mof_C 	C 	0.02234	0.53093	0.59519	-0.05
Mof_C 	C 	0.44975	0.58692	0.54838	-0.027
Mof_C 	C 	0.32529	0.97655	0.19467	0.349
Mof_C 	C 	0.04505	0.03225	0.76425	0.407
Mof_C 	C 	0.85154	0.03093	0.09519	-0.045
Mof_C 	C 	0.50349	0.47655	0.69467	0.353
Mof_C 	C 	0.8335	0.65584	0.69556	-0.051
Mof_C 	C 	0.05115	0.80082	0.49448	0.435
Mof_C 	C 	0.58505	0.91308	0.95162	-0.013
Mof_C 	C 	0.49651	0.52345	0.30533	0.353
Mof_C 	C 	0.94885	0.19918	0.50552	0.435
Mof_C 	C 	0.1665	0.34416	0.30444	-0.051
Mof_C 	C 	0.1849	0.84416	0.80444	-0.047
Mof_C 	C 	0.99666	0.28672	0.44176	-0.167
Mof_C 	C 	0.84155	0.46775	0.73575	0.403
Mof_C 	C 	0.15845	0.53225	0.26425	0.403
Mof_C 	C 	0.34645	0.69918	0.00552	0.431
Mof_C 	C 	0.11563	0.26479	0.36095	0.035
Mof_C 	C 	0.12918	0.94704	0.8254	-0.087
Mof_C 	C 	0.95495	0.96775	0.23575	0.407
Mof_C 	C 	0.67471	0.02345	0.80533	0.349
Mof_C 	C 	0.50196	0.90111	0.04577	-0.016
Mof_C 	C 	0.41495	0.08692	0.04838	-0.013
Mof_C 	C 	0.21859	0.88931	0.96371	0.037
Mof_C 	C 	0.25863	0.76479	0.86095	0.029
Mof_C 	C 	0.49804	0.09889	0.95423	-0.016
Mof_C 	C 	0.00334	0.71328	0.55824	-0.167
Mof_C 	C 	0.55116	0.40111	0.54577	-0.007
Mof_C 	C 	0.44884	0.59889	0.45423	-0.007
Mof_C 	C 	0.583	0.01221	0.90599	-0.101
Mof_C 	C 	0.88437	0.73521	0.63905	0.035
Mof_C 	C 	0.72514	0.21328	0.05824	-0.161
Mof_C 	C 	0.417	0.98779	0.09401	-0.101
Mof_C 	C 	0.90162	0.55296	0.6746	-0.083
Mof_C 	C 	0.74137	0.23521	0.13905	0.029
Mof_C 	C 	0.4988	0.51221	0.40599	-0.097
Mof_C 	C 	0.14846	0.96907	0.90481	-0.045
Mof_C 	C 	0.78141	0.11069	0.03629	0.037
Mof_C 	C 	0.5012	0.48779	0.59401	-0.097
Mof_C 	C 	0.27486	0.78672	0.94176	-0.161
Mof_C 	C 	0.55025	0.41308	0.45162	-0.027
Mof_O 	O 	0.43883	0.55639	0.73975	-0.419
Mof_O 	O 	0.42976	0.61288	0.26782	-0.531
Mof_O 	O 	0.73497	0.94361	0.76025	-0.413
Mof_O 	O 	0.56117	0.44361	0.26025	-0.419
Mof_O 	O 	0.26503	0.05639	0.23975	-0.413
Mof_O 	O 	0.58349	0.39025	0.02437	-0.571
Mof_O 	O 	0.89905	0.37768	0.70962	-0.462
Mof_O 	O 	0.9625	0.99382	0.30838	-0.475
Mof_O 	O 	0.7353	0.49382	0.80838	-0.476
Mof_O 	O 	0.41651	0.60975	0.97563	-0.571
Mof_O 	O 	0.86101	0.21427	0.58749	-0.547
Mof_O 	O 	0.33723	0.71427	0.08749	-0.546
Mof_O 	O 	0.00189	0.89025	0.52437	-0.574
Mof_O 	O 	0.0375	0.00618	0.69162	-0.475
Mof_O 	O 	0.2647	0.50618	0.19162	-0.476
Mof_O 	O 	0.10095	0.62232	0.29038	-0.462
Mof_O 	O 	0.31046	0.88712	0.23218	-0.53
Mof_O 	O 	0.13899	0.78573	0.41251	-0.547
Mof_O 	O 	0.99811	0.10975	0.47563	-0.574
Mof_O 	O 	0.66277	0.28573	0.91251	-0.546
Mof_O 	O 	0.68954	0.11288	0.76782	-0.53
Mof_O 	O 	0.98635	0.12232	0.79038	-0.466
Mof_O 	O 	0.57024	0.38712	0.73218	-0.531
Mof_O 	O 	0.01365	0.87768	0.20962	-0.466
_end
