# CIF file generated by openbabel 3.1.0, see https://openbabel.org
data_I
_chemical_name_common 'image0'
_cell_length_a 26.669
_cell_length_b 26.669
_cell_length_c 86.622
_cell_angle_alpha 90
_cell_angle_beta 90
_cell_angle_gamma 120
_space_group_name_H-M_alt 'P 1'
_space_group_name_Hall 'P 1'
loop_
    _symmetry_equiv_pos_as_xyz
    x,y,z
loop_
    _atom_site_label
    _atom_site_type_symbol
    _atom_site_fract_x
    _atom_site_fract_y
    _atom_site_fract_z
    _atom_site_occupancy
    O1       O        0.33200    0.59867    0.53763    1.000
    Zn1      Zn       0.32506    0.59425    0.49937    1.000
    C1       C        0.31947    0.55263    0.53081    1.000
    O2       O        0.31344    0.54333    0.51634    1.000
    O3       O        0.38755    0.60967    0.48524    1.000
    O4       O        0.25617    0.55246    0.48678    1.000
    C2       C        0.31893    0.50529    0.54008    1.000
    C3       C        0.33518    0.51492    0.55555    1.000
    C4       C        0.30127    0.45200    0.53411    1.000
    H1       H        0.34570    0.55050    0.56000    1.000
    C5       C        0.33568    0.47160    0.56425    1.000
    H2       H        0.29030    0.44510    0.52380    1.000
    C6       C        0.29900    0.40813    0.54274    1.000
    C7       C        0.31841    0.41770    0.55808    1.000
    H3       H        0.34790    0.47910    0.57450    1.000
    H4       H        0.28440    0.37150    0.53840    1.000
    O5       O        0.31741    0.37293    0.56540    1.000
    C8       C        0.35011    0.38605    0.57925    1.000
    H5       H        0.33060    0.39420    0.58750    1.000
    H6       H        0.38810    0.41980    0.57780    1.000
    C9       C        0.37883    0.31471    0.56944    1.000
    O6       O        0.43110    0.36415    0.56477    1.000
    H7       H        0.35090    0.30110    0.56110    1.000
    H8       H        0.38590    0.28370    0.57240    1.000
    C10      C        0.46110    0.35570    0.55324    1.000
    C11      C        0.51200    0.40517    0.54899    1.000
    C12      C        0.44512    0.30425    0.54650    1.000
    H9       H        0.52240    0.44020    0.55380    1.000
    C13      C        0.54693    0.40271    0.53780    1.000
    C14      C        0.47890    0.30053    0.53507    1.000
    H10      H        0.41130    0.27130    0.54960    1.000
    C15      C        0.53060    0.35032    0.53047    1.000
    H11      H        0.58130    0.43580    0.53510    1.000
    H12      H        0.46770    0.26520    0.53040    1.000
    C16      C        0.56820    0.34563    0.51878    1.000
    O7       O        0.99867    0.93200    0.87096    1.000
    Zn2      Zn       0.99173    0.92758    0.83270    1.000
    C17      C        0.98614    0.88596    0.86414    1.000
    O8       O        0.98011    0.87666    0.84967    1.000
    O9       O        0.05422    0.94300    0.81857    1.000
    O10      O        0.92284    0.88579    0.82011    1.000
    C18      C        0.98560    0.83862    0.87341    1.000
    C19      C        0.00185    0.84825    0.88888    1.000
    C20      C        0.96794    0.78533    0.86744    1.000
    H13      H        0.01237    0.88383    0.89333    1.000
    C21      C        0.00235    0.80493    0.89758    1.000
    H14      H        0.95697    0.77843    0.85713    1.000
    C22      C        0.96567    0.74146    0.87607    1.000
    C23      C        0.98508    0.75103    0.89141    1.000
    H15      H        0.01457    0.81243    0.90783    1.000
    H16      H        0.95107    0.70483    0.87173    1.000
    O11      O        0.98408    0.70626    0.89873    1.000
    C24      C        0.01678    0.71938    0.91258    1.000
    H17      H        0.99727    0.72753    0.92083    1.000
    H18      H        0.05477    0.75313    0.91113    1.000
    C25      C        0.04550    0.64804    0.90277    1.000
    O12      O        0.09777    0.69748    0.89810    1.000
    H19      H        0.01757    0.63443    0.89443    1.000
    H20      H        0.05257    0.61703    0.90573    1.000
    C26      C        0.12777    0.68903    0.88657    1.000
    C27      C        0.17867    0.73850    0.88232    1.000
    C28      C        0.11179    0.63758    0.87983    1.000
    H21      H        0.18907    0.77353    0.88713    1.000
    C29      C        0.21360    0.73604    0.87113    1.000
    C30      C        0.14557    0.63386    0.86840    1.000
    H22      H        0.07797    0.60463    0.88293    1.000
    C31      C        0.19727    0.68365    0.86380    1.000
    H23      H        0.24797    0.76913    0.86843    1.000
    H24      H        0.13437    0.59853    0.86373    1.000
    C32      C        0.23487    0.67896    0.85211    1.000
    O13      O        0.66533    0.26534    0.20430    1.000
    Zn3      Zn       0.65840    0.26091    0.16603    1.000
    C33      C        0.65280    0.21930    0.19748    1.000
    O14      O        0.64677    0.21000    0.18301    1.000
    O15      O        0.72088    0.27634    0.15191    1.000
    O16      O        0.58950    0.21913    0.15345    1.000
    C34      C        0.65226    0.17196    0.20675    1.000
    C35      C        0.66851    0.18159    0.22222    1.000
    C36      C        0.63460    0.11867    0.20078    1.000
    H25      H        0.67903    0.21717    0.22667    1.000
    C37      C        0.66901    0.13827    0.23092    1.000
    H26      H        0.62363    0.11177    0.19047    1.000
    C38      C        0.63233    0.07480    0.20941    1.000
    C39      C        0.65174    0.08437    0.22475    1.000
    H27      H        0.68123    0.14577    0.24117    1.000
    H28      H        0.61773    0.03817    0.20507    1.000
    O17      O        0.65074    0.03960    0.23207    1.000
    C40      C        0.68344    0.05272    0.24592    1.000
    H29      H        0.66393    0.06087    0.25417    1.000
    H30      H        0.72143    0.08647    0.24447    1.000
    C41      C        0.71216    0.98138    0.23611    1.000
    O18      O        0.76443    0.03082    0.23144    1.000
    H31      H        0.68423    0.96777    0.22777    1.000
    H32      H        0.71923    0.95037    0.23907    1.000
    C42      C        0.79443    0.02237    0.21991    1.000
    C43      C        0.84533    0.07184    0.21566    1.000
    C44      C        0.77845    0.97092    0.21317    1.000
    H33      H        0.85573    0.10687    0.22047    1.000
    C45      C        0.88026    0.06938    0.20447    1.000
    C46      C        0.81223    0.96720    0.20174    1.000
    H34      H        0.74463    0.93797    0.21627    1.000
    C47      C        0.86393    0.01699    0.19714    1.000
    H35      H        0.91463    0.10247    0.20177    1.000
    H36      H        0.80103    0.93187    0.19707    1.000
    C48      C        0.90153    0.01230    0.18545    1.000
    O19      O        0.40133    0.73333    0.53763    1.000
    Zn4      Zn       0.40575    0.73082    0.49937    1.000
    C49      C        0.44737    0.76684    0.53081    1.000
    O20      O        0.45667    0.77011    0.51634    1.000
    O21      O        0.39033    0.77788    0.48524    1.000
    O22      O        0.44754    0.70371    0.48678    1.000
    C50      C        0.49471    0.81364    0.54008    1.000
    C51      C        0.48508    0.82026    0.55555    1.000
    C52      C        0.54800    0.84927    0.53411    1.000
    H37      H        0.44950    0.79520    0.56000    1.000
    C53      C        0.52840    0.86408    0.56425    1.000
    H38      H        0.55490    0.84520    0.52380    1.000
    C54      C        0.59187    0.89087    0.54274    1.000
    C55      C        0.58230    0.90071    0.55808    1.000
    H39      H        0.52090    0.86880    0.57450    1.000
    H40      H        0.62850    0.91290    0.53840    1.000
    O23      O        0.62707    0.94448    0.56540    1.000
    C56      C        0.61395    0.96406    0.57925    1.000
    H41      H        0.60580    0.93640    0.58750    1.000
    H42      H        0.58020    0.96830    0.57780    1.000
    C57      C        0.68529    0.06412    0.56944    1.000
    O24      O        0.63585    0.06695    0.56477    1.000
    H43      H        0.69890    0.04980    0.56110    1.000
    H44      H        0.71630    0.10220    0.57240    1.000
    C58      C        0.64430    0.10540    0.55324    1.000
    C59      C        0.59483    0.10683    0.54899    1.000
    C60      C        0.69575    0.14087    0.54650    1.000
    H45      H        0.55980    0.08220    0.55380    1.000
    C61      C        0.59729    0.14422    0.53780    1.000
    C62      C        0.69947    0.17837    0.53507    1.000
    H46      H        0.72870    0.14000    0.54960    1.000
    C63      C        0.64968    0.18028    0.53047    1.000
    H47      H        0.56420    0.14550    0.53510    1.000
    H48      H        0.73480    0.20250    0.53040    1.000
    C64      C        0.65437    0.22257    0.51878    1.000
    O25      O        0.06800    0.06666    0.87096    1.000
    Zn5      Zn       0.07242    0.06415    0.83270    1.000
    C65      C        0.11404    0.10017    0.86414    1.000
    O26      O        0.12334    0.10344    0.84967    1.000
    O27      O        0.05700    0.11121    0.81857    1.000
    O28      O        0.11421    0.03704    0.82011    1.000
    C66      C        0.16138    0.14697    0.87341    1.000
    C67      C        0.15175    0.15359    0.88888    1.000
    C68      C        0.21467    0.18260    0.86744    1.000
    H49      H        0.11617    0.12853    0.89333    1.000
    C69      C        0.19507    0.19741    0.89758    1.000
    H50      H        0.22157    0.17853    0.85713    1.000
    C70      C        0.25854    0.22420    0.87607    1.000
    C71      C        0.24897    0.23404    0.89141    1.000
    H51      H        0.18757    0.20213    0.90783    1.000
    H52      H        0.29517    0.24623    0.87173    1.000
    O29      O        0.29374    0.27781    0.89873    1.000
    C72      C        0.28062    0.29739    0.91258    1.000
    H53      H        0.27247    0.26973    0.92083    1.000
    H54      H        0.24687    0.30163    0.91113    1.000
    C73      C        0.35196    0.39745    0.90277    1.000
    O30      O        0.30252    0.40028    0.89810    1.000
    H55      H        0.36557    0.38313    0.89443    1.000
    H56      H        0.38297    0.43553    0.90573    1.000
    C74      C        0.31097    0.43873    0.88657    1.000
    C75      C        0.26150    0.44016    0.88232    1.000
    C76      C        0.36242    0.47420    0.87983    1.000
    H57      H        0.22647    0.41553    0.88713    1.000
    C77      C        0.26396    0.47755    0.87113    1.000
    C78      C        0.36614    0.51170    0.86840    1.000
    H58      H        0.39537    0.47333    0.88293    1.000
    C79      C        0.31635    0.51361    0.86380    1.000
    H59      H        0.23087    0.47883    0.86843    1.000
    H60      H        0.40147    0.53583    0.86373    1.000
    C80      C        0.32104    0.55590    0.85211    1.000
    O31      O        0.73466    0.40000    0.20430    1.000
    Zn6      Zn       0.73909    0.39748    0.16603    1.000
    C81      C        0.78070    0.43351    0.19748    1.000
    O32      O        0.79000    0.43678    0.18301    1.000
    O33      O        0.72366    0.44455    0.15191    1.000
    O34      O        0.78087    0.37038    0.15345    1.000
    C82      C        0.82804    0.48031    0.20675    1.000
    C83      C        0.81841    0.48693    0.22222    1.000
    C84      C        0.88133    0.51594    0.20078    1.000
    H61      H        0.78283    0.46187    0.22667    1.000
    C85      C        0.86173    0.53075    0.23092    1.000
    H62      H        0.88823    0.51187    0.19047    1.000
    C86      C        0.92520    0.55754    0.20941    1.000
    C87      C        0.91563    0.56738    0.22475    1.000
    H63      H        0.85423    0.53547    0.24117    1.000
    H64      H        0.96183    0.57957    0.20507    1.000
    O35      O        0.96040    0.61115    0.23207    1.000
    C88      C        0.94728    0.63073    0.24592    1.000
    H65      H        0.93913    0.60307    0.25417    1.000
    H66      H        0.91353    0.63497    0.24447    1.000
    C89      C        0.01862    0.73079    0.23611    1.000
    O36      O        0.96918    0.73362    0.23144    1.000
    H67      H        0.03223    0.71647    0.22777    1.000
    H68      H        0.04963    0.76887    0.23907    1.000
    C90      C        0.97763    0.77207    0.21991    1.000
    C91      C        0.92816    0.77350    0.21566    1.000
    C92      C        0.02908    0.80754    0.21317    1.000
    H69      H        0.89313    0.74887    0.22047    1.000
    C93      C        0.93062    0.81089    0.20447    1.000
    C94      C        0.03280    0.84504    0.20174    1.000
    H70      H        0.06203    0.80667    0.21627    1.000
    C95      C        0.98301    0.84695    0.19714    1.000
    H71      H        0.89753    0.81217    0.20177    1.000
    H72      H        0.06813    0.86917    0.19707    1.000
    C96      C        0.98770    0.88924    0.18545    1.000
    O37      O        0.26667    0.66800    0.53763    1.000
    Zn7      Zn       0.26918    0.67494    0.49937    1.000
    C97      C        0.23316    0.68053    0.53081    1.000
    O38      O        0.22989    0.68656    0.51634    1.000
    O39      O        0.22212    0.61245    0.48524    1.000
    O40      O        0.29629    0.74383    0.48678    1.000
    C98      C        0.18636    0.68107    0.54008    1.000
    C99      C        0.17974    0.66482    0.55555    1.000
    C100     C        0.15073    0.69873    0.53411    1.000
    H73      H        0.20480    0.65430    0.56000    1.000
    C101     C        0.13592    0.66432    0.56425    1.000
    H74      H        0.15480    0.70970    0.52380    1.000
    C102     C        0.10913    0.70100    0.54274    1.000
    C103     C        0.09929    0.68159    0.55808    1.000
    H75      H        0.13120    0.65210    0.57450    1.000
    H76      H        0.08710    0.71560    0.53840    1.000
    O41      O        0.05552    0.68259    0.56540    1.000
    C104     C        0.03594    0.64989    0.57925    1.000
    H77      H        0.06360    0.66940    0.58750    1.000
    H78      H        0.03170    0.61190    0.57780    1.000
    C105     C        0.93588    0.62117    0.56944    1.000
    O42      O        0.93305    0.56890    0.56477    1.000
    H79      H        0.95020    0.64910    0.56110    1.000
    H80      H        0.89780    0.61410    0.57240    1.000
    C106     C        0.89460    0.53890    0.55324    1.000
    C107     C        0.89317    0.48800    0.54899    1.000
    C108     C        0.85913    0.55488    0.54650    1.000
    H81      H        0.91780    0.47760    0.55380    1.000
    C109     C        0.85578    0.45307    0.53780    1.000
    C110     C        0.82163    0.52110    0.53507    1.000
    H82      H        0.86000    0.58870    0.54960    1.000
    C111     C        0.81972    0.46940    0.53047    1.000
    H83      H        0.85450    0.41870    0.53510    1.000
    H84      H        0.79750    0.53230    0.53040    1.000
    C112     C        0.77743    0.43180    0.51878    1.000
    O43      O        0.93334    0.00133    0.87096    1.000
    Zn8      Zn       0.93585    0.00827    0.83270    1.000
    C113     C        0.89983    0.01386    0.86414    1.000
    O44      O        0.89656    0.01989    0.84967    1.000
    O45      O        0.88879    0.94578    0.81857    1.000
    O46      O        0.96296    0.07716    0.82011    1.000
    C114     C        0.85303    0.01440    0.87341    1.000
    C115     C        0.84641    0.99815    0.88888    1.000
    C116     C        0.81740    0.03206    0.86744    1.000
    H85      H        0.87147    0.98763    0.89333    1.000
    C117     C        0.80259    0.99765    0.89758    1.000
    H86      H        0.82147    0.04303    0.85713    1.000
    C118     C        0.77580    0.03433    0.87607    1.000
    C119     C        0.76596    0.01492    0.89141    1.000
    H87      H        0.79787    0.98543    0.90783    1.000
    H88      H        0.75377    0.04893    0.87173    1.000
    O47      O        0.72219    0.01592    0.89873    1.000
    C120     C        0.70261    0.98322    0.91258    1.000
    H89      H        0.73027    0.00273    0.92083    1.000
    H90      H        0.69837    0.94523    0.91113    1.000
    C121     C        0.60255    0.95450    0.90277    1.000
    O48      O        0.59972    0.90223    0.89810    1.000
    H91      H        0.61687    0.98243    0.89443    1.000
    H92      H        0.56447    0.94743    0.90573    1.000
    C122     C        0.56127    0.87223    0.88657    1.000
    C123     C        0.55984    0.82133    0.88232    1.000
    C124     C        0.52580    0.88821    0.87983    1.000
    H93      H        0.58447    0.81093    0.88713    1.000
    C125     C        0.52245    0.78640    0.87113    1.000
    C126     C        0.48830    0.85443    0.86840    1.000
    H94      H        0.52667    0.92203    0.88293    1.000
    C127     C        0.48639    0.80273    0.86380    1.000
    H95      H        0.52117    0.75203    0.86843    1.000
    H96      H        0.46417    0.86563    0.86373    1.000
    C128     C        0.44410    0.76513    0.85211    1.000
    O49      O        0.60000    0.33467    0.20430    1.000
    Zn9      Zn       0.60252    0.34160    0.16603    1.000
    C129     C        0.56649    0.34720    0.19748    1.000
    O50      O        0.56322    0.35323    0.18301    1.000
    O51      O        0.55545    0.27912    0.15191    1.000
    O52      O        0.62962    0.41050    0.15345    1.000
    C130     C        0.51969    0.34774    0.20675    1.000
    C131     C        0.51307    0.33149    0.22222    1.000
    C132     C        0.48406    0.36540    0.20078    1.000
    H97      H        0.53813    0.32097    0.22667    1.000
    C133     C        0.46925    0.33099    0.23092    1.000
    H98      H        0.48813    0.37637    0.19047    1.000
    C134     C        0.44246    0.36767    0.20941    1.000
    C135     C        0.43262    0.34826    0.22475    1.000
    H99      H        0.46453    0.31877    0.24117    1.000
    H100     H        0.42043    0.38227    0.20507    1.000
    O53      O        0.38885    0.34926    0.23207    1.000
    C136     C        0.36927    0.31656    0.24592    1.000
    H101     H        0.39693    0.33607    0.25417    1.000
    H102     H        0.36503    0.27857    0.24447    1.000
    C137     C        0.26921    0.28784    0.23611    1.000
    O54      O        0.26638    0.23557    0.23144    1.000
    H103     H        0.28353    0.31577    0.22777    1.000
    H104     H        0.23113    0.28077    0.23907    1.000
    C138     C        0.22793    0.20557    0.21991    1.000
    C139     C        0.22650    0.15467    0.21566    1.000
    C140     C        0.19246    0.22155    0.21317    1.000
    H105     H        0.25113    0.14427    0.22047    1.000
    C141     C        0.18911    0.11974    0.20447    1.000
    C142     C        0.15496    0.18777    0.20174    1.000
    H106     H        0.19333    0.25537    0.21627    1.000
    C143     C        0.15305    0.13607    0.19714    1.000
    H107     H        0.18783    0.08537    0.20177    1.000
    H108     H        0.13083    0.19897    0.19707    1.000
    C144     C        0.11076    0.09847    0.18545    1.000
    O55      O        0.59867    0.33200    0.96237    1.000
    Zn10     Zn       0.59425    0.32506    0.00063    1.000
    C145     C        0.55263    0.31947    0.96919    1.000
    O56      O        0.54333    0.31344    0.98366    1.000
    O57      O        0.60967    0.38755    0.01476    1.000
    O58      O        0.55246    0.25617    0.01322    1.000
    C146     C        0.50529    0.31893    0.95992    1.000
    C147     C        0.51492    0.33518    0.94445    1.000
    C148     C        0.45200    0.30127    0.96589    1.000
    H109     H        0.55050    0.34570    0.94000    1.000
    C149     C        0.47160    0.33568    0.93575    1.000
    H110     H        0.44510    0.29030    0.97620    1.000
    C150     C        0.40813    0.29900    0.95726    1.000
    C151     C        0.41770    0.31841    0.94192    1.000
    H111     H        0.47910    0.34790    0.92550    1.000
    H112     H        0.37150    0.28440    0.96160    1.000
    O59      O        0.37293    0.31741    0.93460    1.000
    C152     C        0.38605    0.35011    0.92075    1.000
    H113     H        0.39420    0.33060    0.91250    1.000
    H114     H        0.41980    0.38810    0.92220    1.000
    C153     C        0.31471    0.37883    0.93056    1.000
    O60      O        0.36415    0.43110    0.93523    1.000
    H115     H        0.30110    0.35090    0.93890    1.000
    H116     H        0.28370    0.38590    0.92760    1.000
    C154     C        0.35570    0.46110    0.94676    1.000
    C155     C        0.40517    0.51200    0.95101    1.000
    C156     C        0.30425    0.44512    0.95350    1.000
    H117     H        0.44020    0.52240    0.94620    1.000
    C157     C        0.40271    0.54693    0.96220    1.000
    C158     C        0.30053    0.47890    0.96493    1.000
    H118     H        0.27130    0.41130    0.95040    1.000
    C159     C        0.35032    0.53060    0.96953    1.000
    H119     H        0.43580    0.58130    0.96490    1.000
    H120     H        0.26520    0.46770    0.96960    1.000
    C160     C        0.34563    0.56820    0.98122    1.000
    O61      O        0.26534    0.66533    0.29570    1.000
    Zn11     Zn       0.26091    0.65840    0.33397    1.000
    C161     C        0.21930    0.65280    0.30252    1.000
    O62      O        0.21000    0.64677    0.31699    1.000
    O63      O        0.27634    0.72088    0.34809    1.000
    O64      O        0.21913    0.58950    0.34655    1.000
    C162     C        0.17196    0.65226    0.29325    1.000
    C163     C        0.18159    0.66851    0.27778    1.000
    C164     C        0.11867    0.63460    0.29922    1.000
    H121     H        0.21717    0.67903    0.27333    1.000
    C165     C        0.13827    0.66901    0.26908    1.000
    H122     H        0.11177    0.62363    0.30953    1.000
    C166     C        0.07480    0.63233    0.29059    1.000
    C167     C        0.08437    0.65174    0.27525    1.000
    H123     H        0.14577    0.68123    0.25883    1.000
    H124     H        0.03817    0.61773    0.29493    1.000
    O65      O        0.03960    0.65074    0.26793    1.000
    C168     C        0.05272    0.68344    0.25408    1.000
    H125     H        0.06087    0.66393    0.24583    1.000
    H126     H        0.08647    0.72143    0.25553    1.000
    C169     C        0.98138    0.71216    0.26389    1.000
    O66      O        0.03082    0.76443    0.26856    1.000
    H127     H        0.96777    0.68423    0.27223    1.000
    H128     H        0.95037    0.71923    0.26093    1.000
    C170     C        0.02237    0.79443    0.28009    1.000
    C171     C        0.07184    0.84533    0.28434    1.000
    C172     C        0.97092    0.77845    0.28683    1.000
    H129     H        0.10687    0.85573    0.27953    1.000
    C173     C        0.06938    0.88026    0.29553    1.000
    C174     C        0.96720    0.81223    0.29826    1.000
    H130     H        0.93797    0.74463    0.28373    1.000
    C175     C        0.01699    0.86393    0.30286    1.000
    H131     H        0.10247    0.91463    0.29823    1.000
    H132     H        0.93187    0.80103    0.30293    1.000
    C176     C        0.01230    0.90153    0.31455    1.000
    O67      O        0.93200    0.99867    0.62904    1.000
    Zn12     Zn       0.92758    0.99173    0.66730    1.000
    C177     C        0.88596    0.98614    0.63586    1.000
    O68      O        0.87666    0.98011    0.65033    1.000
    O69      O        0.94300    0.05422    0.68143    1.000
    O70      O        0.88579    0.92284    0.67989    1.000
    C178     C        0.83862    0.98560    0.62659    1.000
    C179     C        0.84825    0.00185    0.61112    1.000
    C180     C        0.78533    0.96794    0.63256    1.000
    H133     H        0.88383    0.01237    0.60667    1.000
    C181     C        0.80493    0.00235    0.60242    1.000
    H134     H        0.77843    0.95697    0.64287    1.000
    C182     C        0.74146    0.96567    0.62393    1.000
    C183     C        0.75103    0.98508    0.60859    1.000
    H135     H        0.81243    0.01457    0.59217    1.000
    H136     H        0.70483    0.95107    0.62827    1.000
    O71      O        0.70626    0.98408    0.60127    1.000
    C184     C        0.71938    0.01678    0.58742    1.000
    H137     H        0.72753    0.99727    0.57917    1.000
    H138     H        0.75313    0.05477    0.58887    1.000
    C185     C        0.64804    0.04550    0.59723    1.000
    O72      O        0.69748    0.09777    0.60190    1.000
    H139     H        0.63443    0.01757    0.60557    1.000
    H140     H        0.61703    0.05257    0.59427    1.000
    C186     C        0.68903    0.12777    0.61343    1.000
    C187     C        0.73850    0.17867    0.61768    1.000
    C188     C        0.63758    0.11179    0.62017    1.000
    H141     H        0.77353    0.18907    0.61287    1.000
    C189     C        0.73604    0.21360    0.62887    1.000
    C190     C        0.63386    0.14557    0.63160    1.000
    H142     H        0.60463    0.07797    0.61707    1.000
    C191     C        0.68365    0.19727    0.63620    1.000
    H143     H        0.76913    0.24797    0.63157    1.000
    H144     H        0.59853    0.13437    0.63627    1.000
    C192     C        0.67896    0.23487    0.64789    1.000
    O73      O        0.73333    0.40133    0.96237    1.000
    Zn13     Zn       0.73082    0.40575    0.00063    1.000
    C193     C        0.76684    0.44737    0.96919    1.000
    O74      O        0.77011    0.45667    0.98366    1.000
    O75      O        0.77788    0.39033    0.01476    1.000
    O76      O        0.70371    0.44754    0.01322    1.000
    C194     C        0.81364    0.49471    0.95992    1.000
    C195     C        0.82026    0.48508    0.94445    1.000
    C196     C        0.84927    0.54800    0.96589    1.000
    H145     H        0.79520    0.44950    0.94000    1.000
    C197     C        0.86408    0.52840    0.93575    1.000
    H146     H        0.84520    0.55490    0.97620    1.000
    C198     C        0.89087    0.59187    0.95726    1.000
    C199     C        0.90071    0.58230    0.94192    1.000
    H147     H        0.86880    0.52090    0.92550    1.000
    H148     H        0.91290    0.62850    0.96160    1.000
    O77      O        0.94448    0.62707    0.93460    1.000
    C200     C        0.96406    0.61395    0.92075    1.000
    H149     H        0.93640    0.60580    0.91250    1.000
    H150     H        0.96830    0.58020    0.92220    1.000
    C201     C        0.06412    0.68529    0.93056    1.000
    O78      O        0.06695    0.63585    0.93523    1.000
    H151     H        0.04980    0.69890    0.93890    1.000
    H152     H        0.10220    0.71630    0.92760    1.000
    C202     C        0.10540    0.64430    0.94676    1.000
    C203     C        0.10683    0.59483    0.95101    1.000
    C204     C        0.14087    0.69575    0.95350    1.000
    H153     H        0.08220    0.55980    0.94620    1.000
    C205     C        0.14422    0.59729    0.96220    1.000
    C206     C        0.17837    0.69947    0.96493    1.000
    H154     H        0.14000    0.72870    0.95040    1.000
    C207     C        0.18028    0.64968    0.96953    1.000
    H155     H        0.14550    0.56420    0.96490    1.000
    H156     H        0.20250    0.73480    0.96960    1.000
    C208     C        0.22257    0.65437    0.98122    1.000
    O79      O        0.40000    0.73466    0.29570    1.000
    Zn14     Zn       0.39748    0.73909    0.33397    1.000
    C209     C        0.43351    0.78070    0.30252    1.000
    O80      O        0.43678    0.79000    0.31699    1.000
    O81      O        0.44455    0.72366    0.34809    1.000
    O82      O        0.37038    0.78087    0.34655    1.000
    C210     C        0.48031    0.82804    0.29325    1.000
    C211     C        0.48693    0.81841    0.27778    1.000
    C212     C        0.51594    0.88133    0.29922    1.000
    H157     H        0.46187    0.78283    0.27333    1.000
    C213     C        0.53075    0.86173    0.26908    1.000
    H158     H        0.51187    0.88823    0.30953    1.000
    C214     C        0.55754    0.92520    0.29059    1.000
    C215     C        0.56738    0.91563    0.27525    1.000
    H159     H        0.53547    0.85423    0.25883    1.000
    H160     H        0.57957    0.96183    0.29493    1.000
    O83      O        0.61115    0.96040    0.26793    1.000
    C216     C        0.63073    0.94728    0.25408    1.000
    H161     H        0.60307    0.93913    0.24583    1.000
    H162     H        0.63497    0.91353    0.25553    1.000
    C217     C        0.73079    0.01862    0.26389    1.000
    O84      O        0.73362    0.96918    0.26856    1.000
    H163     H        0.71647    0.03223    0.27223    1.000
    H164     H        0.76887    0.04963    0.26093    1.000
    C218     C        0.77207    0.97763    0.28009    1.000
    C219     C        0.77350    0.92816    0.28434    1.000
    C220     C        0.80754    0.02908    0.28683    1.000
    H165     H        0.74887    0.89313    0.27953    1.000
    C221     C        0.81089    0.93062    0.29553    1.000
    C222     C        0.84504    0.03280    0.29826    1.000
    H166     H        0.80667    0.06203    0.28373    1.000
    C223     C        0.84695    0.98301    0.30286    1.000
    H167     H        0.81217    0.89753    0.29823    1.000
    H168     H        0.86917    0.06813    0.30293    1.000
    C224     C        0.88924    0.98770    0.31455    1.000
    O85      O        0.06666    0.06800    0.62904    1.000
    Zn15     Zn       0.06415    0.07242    0.66730    1.000
    C225     C        0.10017    0.11404    0.63586    1.000
    O86      O        0.10344    0.12334    0.65033    1.000
    O87      O        0.11121    0.05700    0.68143    1.000
    O88      O        0.03704    0.11421    0.67989    1.000
    C226     C        0.14697    0.16138    0.62659    1.000
    C227     C        0.15359    0.15175    0.61112    1.000
    C228     C        0.18260    0.21467    0.63256    1.000
    H169     H        0.12853    0.11617    0.60667    1.000
    C229     C        0.19741    0.19507    0.60242    1.000
    H170     H        0.17853    0.22157    0.64287    1.000
    C230     C        0.22420    0.25854    0.62393    1.000
    C231     C        0.23404    0.24897    0.60859    1.000
    H171     H        0.20213    0.18757    0.59217    1.000
    H172     H        0.24623    0.29517    0.62827    1.000
    O89      O        0.27781    0.29374    0.60127    1.000
    C232     C        0.29739    0.28062    0.58742    1.000
    H173     H        0.26973    0.27247    0.57917    1.000
    H174     H        0.30163    0.24687    0.58887    1.000
    C233     C        0.39745    0.35196    0.59723    1.000
    O90      O        0.40028    0.30252    0.60190    1.000
    H175     H        0.38313    0.36557    0.60557    1.000
    H176     H        0.43553    0.38297    0.59427    1.000
    C234     C        0.43873    0.31097    0.61343    1.000
    C235     C        0.44016    0.26150    0.61768    1.000
    C236     C        0.47420    0.36242    0.62017    1.000
    H177     H        0.41553    0.22647    0.61287    1.000
    C237     C        0.47755    0.26396    0.62887    1.000
    C238     C        0.51170    0.36614    0.63160    1.000
    H178     H        0.47333    0.39537    0.61707    1.000
    C239     C        0.51361    0.31635    0.63620    1.000
    H179     H        0.47883    0.23087    0.63157    1.000
    H180     H        0.53583    0.40147    0.63627    1.000
    C240     C        0.55590    0.32104    0.64789    1.000
    O91      O        0.66800    0.26667    0.96237    1.000
    Zn16     Zn       0.67494    0.26918    0.00063    1.000
    C241     C        0.68053    0.23316    0.96919    1.000
    O92      O        0.68656    0.22989    0.98366    1.000
    O93      O        0.61245    0.22212    0.01476    1.000
    O94      O        0.74383    0.29629    0.01322    1.000
    C242     C        0.68107    0.18636    0.95992    1.000
    C243     C        0.66482    0.17974    0.94445    1.000
    C244     C        0.69873    0.15073    0.96589    1.000
    H181     H        0.65430    0.20480    0.94000    1.000
    C245     C        0.66432    0.13592    0.93575    1.000
    H182     H        0.70970    0.15480    0.97620    1.000
    C246     C        0.70100    0.10913    0.95726    1.000
    C247     C        0.68159    0.09929    0.94192    1.000
    H183     H        0.65210    0.13120    0.92550    1.000
    H184     H        0.71560    0.08710    0.96160    1.000
    O95      O        0.68259    0.05552    0.93460    1.000
    C248     C        0.64989    0.03594    0.92075    1.000
    H185     H        0.66940    0.06360    0.91250    1.000
    H186     H        0.61190    0.03170    0.92220    1.000
    C249     C        0.62117    0.93588    0.93056    1.000
    O96      O        0.56890    0.93305    0.93523    1.000
    H187     H        0.64910    0.95020    0.93890    1.000
    H188     H        0.61410    0.89780    0.92760    1.000
    C250     C        0.53890    0.89460    0.94676    1.000
    C251     C        0.48800    0.89317    0.95101    1.000
    C252     C        0.55488    0.85913    0.95350    1.000
    H189     H        0.47760    0.91780    0.94620    1.000
    C253     C        0.45307    0.85578    0.96220    1.000
    C254     C        0.52110    0.82163    0.96493    1.000
    H190     H        0.58870    0.86000    0.95040    1.000
    C255     C        0.46940    0.81972    0.96953    1.000
    H191     H        0.41870    0.85450    0.96490    1.000
    H192     H        0.53230    0.79750    0.96960    1.000
    C256     C        0.43180    0.77743    0.98122    1.000
    O97      O        0.33467    0.60000    0.29570    1.000
    Zn17     Zn       0.34160    0.60252    0.33397    1.000
    C257     C        0.34720    0.56649    0.30252    1.000
    O98      O        0.35323    0.56322    0.31699    1.000
    O99      O        0.27912    0.55545    0.34809    1.000
    O100     O        0.41050    0.62962    0.34655    1.000
    C258     C        0.34774    0.51969    0.29325    1.000
    C259     C        0.33149    0.51307    0.27778    1.000
    C260     C        0.36540    0.48406    0.29922    1.000
    H193     H        0.32097    0.53813    0.27333    1.000
    C261     C        0.33099    0.46925    0.26908    1.000
    H194     H        0.37637    0.48813    0.30953    1.000
    C262     C        0.36767    0.44246    0.29059    1.000
    C263     C        0.34826    0.43262    0.27525    1.000
    H195     H        0.31877    0.46453    0.25883    1.000
    H196     H        0.38227    0.42043    0.29493    1.000
    O101     O        0.34926    0.38885    0.26793    1.000
    C264     C        0.31656    0.36927    0.25408    1.000
    H197     H        0.33607    0.39693    0.24583    1.000
    H198     H        0.27857    0.36503    0.25553    1.000
    C265     C        0.28784    0.26921    0.26389    1.000
    O102     O        0.23557    0.26638    0.26856    1.000
    H199     H        0.31577    0.28353    0.27223    1.000
    H200     H        0.28077    0.23113    0.26093    1.000
    C266     C        0.20557    0.22793    0.28009    1.000
    C267     C        0.15467    0.22650    0.28434    1.000
    C268     C        0.22155    0.19246    0.28683    1.000
    H201     H        0.14427    0.25113    0.27953    1.000
    C269     C        0.11974    0.18911    0.29553    1.000
    C270     C        0.18777    0.15496    0.29826    1.000
    H202     H        0.25537    0.19333    0.28373    1.000
    C271     C        0.13607    0.15305    0.30286    1.000
    H203     H        0.08537    0.18783    0.29823    1.000
    H204     H        0.19897    0.13083    0.30293    1.000
    C272     C        0.09847    0.11076    0.31455    1.000
    O103     O        0.00133    0.93334    0.62904    1.000
    Zn18     Zn       0.00827    0.93585    0.66730    1.000
    C273     C        0.01386    0.89983    0.63586    1.000
    O104     O        0.01989    0.89656    0.65033    1.000
    O105     O        0.94578    0.88879    0.68143    1.000
    O106     O        0.07716    0.96296    0.67989    1.000
    C274     C        0.01440    0.85303    0.62659    1.000
    C275     C        0.99815    0.84641    0.61112    1.000
    C276     C        0.03206    0.81740    0.63256    1.000
    H205     H        0.98763    0.87147    0.60667    1.000
    C277     C        0.99765    0.80259    0.60242    1.000
    H206     H        0.04303    0.82147    0.64287    1.000
    C278     C        0.03433    0.77580    0.62393    1.000
    C279     C        0.01492    0.76596    0.60859    1.000
    H207     H        0.98543    0.79787    0.59217    1.000
    H208     H        0.04893    0.75377    0.62827    1.000
    O107     O        0.01592    0.72219    0.60127    1.000
    C280     C        0.98322    0.70261    0.58742    1.000
    H209     H        0.00273    0.73027    0.57917    1.000
    H210     H        0.94523    0.69837    0.58887    1.000
    C281     C        0.95450    0.60255    0.59723    1.000
    O108     O        0.90223    0.59972    0.60190    1.000
    H211     H        0.98243    0.61687    0.60557    1.000
    H212     H        0.94743    0.56447    0.59427    1.000
    C282     C        0.87223    0.56127    0.61343    1.000
    C283     C        0.82133    0.55984    0.61768    1.000
    C284     C        0.88821    0.52580    0.62017    1.000
    H213     H        0.81093    0.58447    0.61287    1.000
    C285     C        0.78640    0.52245    0.62887    1.000
    C286     C        0.85443    0.48830    0.63160    1.000
    H214     H        0.92203    0.52667    0.61707    1.000
    C287     C        0.80273    0.48639    0.63620    1.000
    H215     H        0.75203    0.52117    0.63157    1.000
    H216     H        0.86563    0.46417    0.63627    1.000
    C288     C        0.76513    0.44410    0.64789    1.000
    O109     O        0.66800    0.40133    0.46237    1.000
    Zn19     Zn       0.67494    0.40575    0.50063    1.000
    C289     C        0.68053    0.44737    0.46919    1.000
    O110     O        0.68656    0.45667    0.48366    1.000
    O111     O        0.61245    0.39033    0.51476    1.000
    O112     O        0.74383    0.44754    0.51322    1.000
    C290     C        0.68107    0.49471    0.45992    1.000
    C291     C        0.66482    0.48508    0.44445    1.000
    C292     C        0.69873    0.54800    0.46589    1.000
    H217     H        0.65430    0.44950    0.44000    1.000
    C293     C        0.66432    0.52840    0.43575    1.000
    H218     H        0.70970    0.55490    0.47620    1.000
    C294     C        0.70100    0.59187    0.45726    1.000
    C295     C        0.68159    0.58230    0.44192    1.000
    H219     H        0.65210    0.52090    0.42550    1.000
    H220     H        0.71560    0.62850    0.46160    1.000
    O113     O        0.68259    0.62707    0.43460    1.000
    C296     C        0.64989    0.61395    0.42075    1.000
    H221     H        0.66940    0.60580    0.41250    1.000
    H222     H        0.61190    0.58020    0.42220    1.000
    C297     C        0.62117    0.68529    0.43056    1.000
    O114     O        0.56890    0.63585    0.43523    1.000
    H223     H        0.64910    0.69890    0.43890    1.000
    H224     H        0.61410    0.71630    0.42760    1.000
    C298     C        0.53890    0.64430    0.44676    1.000
    C299     C        0.48800    0.59483    0.45101    1.000
    C300     C        0.55488    0.69575    0.45350    1.000
    H225     H        0.47760    0.55980    0.44620    1.000
    C301     C        0.45307    0.59729    0.46220    1.000
    C302     C        0.52110    0.69947    0.46493    1.000
    H226     H        0.58870    0.72870    0.45040    1.000
    C303     C        0.46940    0.64968    0.46953    1.000
    H227     H        0.41870    0.56420    0.46490    1.000
    H228     H        0.53230    0.73480    0.46960    1.000
    C304     C        0.43180    0.65437    0.48122    1.000
    O115     O        0.33467    0.73466    0.79570    1.000
    Zn20     Zn       0.34160    0.73909    0.83397    1.000
    C305     C        0.34720    0.78070    0.80252    1.000
    O116     O        0.35323    0.79000    0.81699    1.000
    O117     O        0.27912    0.72366    0.84809    1.000
    O118     O        0.41050    0.78087    0.84655    1.000
    C306     C        0.34774    0.82804    0.79325    1.000
    C307     C        0.33149    0.81841    0.77778    1.000
    C308     C        0.36540    0.88133    0.79922    1.000
    H229     H        0.32097    0.78283    0.77333    1.000
    C309     C        0.33099    0.86173    0.76908    1.000
    H230     H        0.37637    0.88823    0.80953    1.000
    C310     C        0.36767    0.92520    0.79059    1.000
    C311     C        0.34826    0.91563    0.77525    1.000
    H231     H        0.31877    0.85423    0.75883    1.000
    H232     H        0.38227    0.96183    0.79493    1.000
    O119     O        0.34926    0.96040    0.76793    1.000
    C312     C        0.31656    0.94728    0.75408    1.000
    H233     H        0.33607    0.93913    0.74583    1.000
    H234     H        0.27857    0.91353    0.75553    1.000
    C313     C        0.28784    0.01862    0.76389    1.000
    O120     O        0.23557    0.96918    0.76856    1.000
    H235     H        0.31577    0.03223    0.77223    1.000
    H236     H        0.28077    0.04963    0.76093    1.000
    C314     C        0.20557    0.97763    0.78009    1.000
    C315     C        0.15467    0.92816    0.78434    1.000
    C316     C        0.22155    0.02908    0.78683    1.000
    H237     H        0.14427    0.89313    0.77953    1.000
    C317     C        0.11974    0.93062    0.79553    1.000
    C318     C        0.18777    0.03280    0.79826    1.000
    H238     H        0.25537    0.06203    0.78373    1.000
    C319     C        0.13607    0.98301    0.80286    1.000
    H239     H        0.08537    0.89753    0.79823    1.000
    H240     H        0.19897    0.06813    0.80293    1.000
    C320     C        0.09847    0.98770    0.81455    1.000
    O121     O        0.00133    0.06800    0.12904    1.000
    Zn21     Zn       0.00827    0.07242    0.16730    1.000
    C321     C        0.01386    0.11404    0.13586    1.000
    O122     O        0.01989    0.12334    0.15033    1.000
    O123     O        0.94578    0.05700    0.18143    1.000
    O124     O        0.07716    0.11421    0.17989    1.000
    C322     C        0.01440    0.16138    0.12659    1.000
    C323     C        0.99815    0.15175    0.11112    1.000
    C324     C        0.03206    0.21467    0.13256    1.000
    H241     H        0.98763    0.11617    0.10667    1.000
    C325     C        0.99765    0.19507    0.10242    1.000
    H242     H        0.04303    0.22157    0.14287    1.000
    C326     C        0.03433    0.25854    0.12393    1.000
    C327     C        0.01492    0.24897    0.10859    1.000
    H243     H        0.98543    0.18757    0.09217    1.000
    H244     H        0.04893    0.29517    0.12827    1.000
    O125     O        0.01592    0.29374    0.10127    1.000
    C328     C        0.98322    0.28062    0.08742    1.000
    H245     H        0.00273    0.27247    0.07917    1.000
    H246     H        0.94523    0.24687    0.08887    1.000
    C329     C        0.95450    0.35196    0.09723    1.000
    O126     O        0.90223    0.30252    0.10190    1.000
    H247     H        0.98243    0.36557    0.10557    1.000
    H248     H        0.94743    0.38297    0.09427    1.000
    C330     C        0.87223    0.31097    0.11343    1.000
    C331     C        0.82133    0.26150    0.11768    1.000
    C332     C        0.88821    0.36242    0.12017    1.000
    H249     H        0.81093    0.22647    0.11287    1.000
    C333     C        0.78640    0.26396    0.12887    1.000
    C334     C        0.85443    0.36614    0.13160    1.000
    H250     H        0.92203    0.39537    0.11707    1.000
    C335     C        0.80273    0.31635    0.13620    1.000
    H251     H        0.75203    0.23087    0.13157    1.000
    H252     H        0.86563    0.40147    0.13627    1.000
    C336     C        0.76513    0.32104    0.14789    1.000
    O127     O        0.59867    0.26667    0.46237    1.000
    Zn22     Zn       0.59425    0.26918    0.50063    1.000
    C337     C        0.55263    0.23316    0.46919    1.000
    O128     O        0.54333    0.22989    0.48366    1.000
    O129     O        0.60967    0.22212    0.51476    1.000
    O130     O        0.55246    0.29629    0.51322    1.000
    C338     C        0.50529    0.18636    0.45992    1.000
    C339     C        0.51492    0.17974    0.44445    1.000
    C340     C        0.45200    0.15073    0.46589    1.000
    H253     H        0.55050    0.20480    0.44000    1.000
    C341     C        0.47160    0.13592    0.43575    1.000
    H254     H        0.44510    0.15480    0.47620    1.000
    C342     C        0.40813    0.10913    0.45726    1.000
    C343     C        0.41770    0.09929    0.44192    1.000
    H255     H        0.47910    0.13120    0.42550    1.000
    H256     H        0.37150    0.08710    0.46160    1.000
    O131     O        0.37293    0.05552    0.43460    1.000
    C344     C        0.38605    0.03594    0.42075    1.000
    H257     H        0.39420    0.06360    0.41250    1.000
    H258     H        0.41980    0.03170    0.42220    1.000
    C345     C        0.31471    0.93588    0.43056    1.000
    O132     O        0.36415    0.93305    0.43523    1.000
    H259     H        0.30110    0.95020    0.43890    1.000
    H260     H        0.28370    0.89780    0.42760    1.000
    C346     C        0.35570    0.89460    0.44676    1.000
    C347     C        0.40517    0.89317    0.45101    1.000
    C348     C        0.30425    0.85913    0.45350    1.000
    H261     H        0.44020    0.91780    0.44620    1.000
    C349     C        0.40271    0.85578    0.46220    1.000
    C350     C        0.30053    0.82163    0.46493    1.000
    H262     H        0.27130    0.86000    0.45040    1.000
    C351     C        0.35032    0.81972    0.46953    1.000
    H263     H        0.43580    0.85450    0.46490    1.000
    H264     H        0.26520    0.79750    0.46960    1.000
    C352     C        0.34563    0.77743    0.48122    1.000
    O133     O        0.26534    0.60000    0.79570    1.000
    Zn23     Zn       0.26091    0.60252    0.83397    1.000
    C353     C        0.21930    0.56649    0.80252    1.000
    O134     O        0.21000    0.56322    0.81699    1.000
    O135     O        0.27634    0.55545    0.84809    1.000
    O136     O        0.21913    0.62962    0.84655    1.000
    C354     C        0.17196    0.51969    0.79325    1.000
    C355     C        0.18159    0.51307    0.77778    1.000
    C356     C        0.11867    0.48406    0.79922    1.000
    H265     H        0.21717    0.53813    0.77333    1.000
    C357     C        0.13827    0.46925    0.76908    1.000
    H266     H        0.11177    0.48813    0.80953    1.000
    C358     C        0.07480    0.44246    0.79059    1.000
    C359     C        0.08437    0.43262    0.77525    1.000
    H267     H        0.14577    0.46453    0.75883    1.000
    H268     H        0.03817    0.42043    0.79493    1.000
    O137     O        0.03960    0.38885    0.76793    1.000
    C360     C        0.05272    0.36927    0.75408    1.000
    H269     H        0.06087    0.39693    0.74583    1.000
    H270     H        0.08647    0.36503    0.75553    1.000
    C361     C        0.98138    0.26921    0.76389    1.000
    O138     O        0.03082    0.26638    0.76856    1.000
    H271     H        0.96777    0.28353    0.77223    1.000
    H272     H        0.95037    0.23113    0.76093    1.000
    C362     C        0.02237    0.22793    0.78009    1.000
    C363     C        0.07184    0.22650    0.78434    1.000
    C364     C        0.97092    0.19246    0.78683    1.000
    H273     H        0.10687    0.25113    0.77953    1.000
    C365     C        0.06938    0.18911    0.79553    1.000
    C366     C        0.96720    0.15496    0.79826    1.000
    H274     H        0.93797    0.19333    0.78373    1.000
    C367     C        0.01699    0.15305    0.80286    1.000
    H275     H        0.10247    0.18783    0.79823    1.000
    H276     H        0.93187    0.13083    0.80293    1.000
    C368     C        0.01230    0.11076    0.81455    1.000
    O139     O        0.93200    0.93334    0.12904    1.000
    Zn24     Zn       0.92758    0.93585    0.16730    1.000
    C369     C        0.88596    0.89983    0.13586    1.000
    O140     O        0.87666    0.89656    0.15033    1.000
    O141     O        0.94300    0.88879    0.18143    1.000
    O142     O        0.88579    0.96296    0.17989    1.000
    C370     C        0.83862    0.85303    0.12659    1.000
    C371     C        0.84825    0.84641    0.11112    1.000
    C372     C        0.78533    0.81740    0.13256    1.000
    H277     H        0.88383    0.87147    0.10667    1.000
    C373     C        0.80493    0.80259    0.10242    1.000
    H278     H        0.77843    0.82147    0.14287    1.000
    C374     C        0.74146    0.77580    0.12393    1.000
    C375     C        0.75103    0.76596    0.10859    1.000
    H279     H        0.81243    0.79787    0.09217    1.000
    H280     H        0.70483    0.75377    0.12827    1.000
    O143     O        0.70626    0.72219    0.10127    1.000
    C376     C        0.71938    0.70261    0.08742    1.000
    H281     H        0.72753    0.73027    0.07917    1.000
    H282     H        0.75313    0.69837    0.08887    1.000
    C377     C        0.64804    0.60255    0.09723    1.000
    O144     O        0.69748    0.59972    0.10190    1.000
    H283     H        0.63443    0.61687    0.10557    1.000
    H284     H        0.61703    0.56447    0.09427    1.000
    C378     C        0.68903    0.56127    0.11343    1.000
    C379     C        0.73850    0.55984    0.11768    1.000
    C380     C        0.63758    0.52580    0.12017    1.000
    H285     H        0.77353    0.58447    0.11287    1.000
    C381     C        0.73604    0.52245    0.12887    1.000
    C382     C        0.63386    0.48830    0.13160    1.000
    H286     H        0.60463    0.52667    0.11707    1.000
    C383     C        0.68365    0.48639    0.13620    1.000
    H287     H        0.76913    0.52117    0.13157    1.000
    H288     H        0.59853    0.46417    0.13627    1.000
    C384     C        0.67896    0.44410    0.14789    1.000
    O145     O        0.73333    0.33200    0.46237    1.000
    Zn25     Zn       0.73082    0.32506    0.50063    1.000
    C385     C        0.76684    0.31947    0.46919    1.000
    O146     O        0.77011    0.31344    0.48366    1.000
    O147     O        0.77788    0.38755    0.51476    1.000
    O148     O        0.70371    0.25617    0.51322    1.000
    C386     C        0.81364    0.31893    0.45992    1.000
    C387     C        0.82026    0.33518    0.44445    1.000
    C388     C        0.84927    0.30127    0.46589    1.000
    H289     H        0.79520    0.34570    0.44000    1.000
    C389     C        0.86408    0.33568    0.43575    1.000
    H290     H        0.84520    0.29030    0.47620    1.000
    C390     C        0.89087    0.29900    0.45726    1.000
    C391     C        0.90071    0.31841    0.44192    1.000
    H291     H        0.86880    0.34790    0.42550    1.000
    H292     H        0.91290    0.28440    0.46160    1.000
    O149     O        0.94448    0.31741    0.43460    1.000
    C392     C        0.96406    0.35011    0.42075    1.000
    H293     H        0.93640    0.33060    0.41250    1.000
    H294     H        0.96830    0.38810    0.42220    1.000
    C393     C        0.06412    0.37883    0.43056    1.000
    O150     O        0.06695    0.43110    0.43523    1.000
    H295     H        0.04980    0.35090    0.43890    1.000
    H296     H        0.10220    0.38590    0.42760    1.000
    C394     C        0.10540    0.46110    0.44676    1.000
    C395     C        0.10683    0.51200    0.45101    1.000
    C396     C        0.14087    0.44512    0.45350    1.000
    H297     H        0.08220    0.52240    0.44620    1.000
    C397     C        0.14422    0.54693    0.46220    1.000
    C398     C        0.17837    0.47890    0.46493    1.000
    H298     H        0.14000    0.41130    0.45040    1.000
    C399     C        0.18028    0.53060    0.46953    1.000
    H299     H        0.14550    0.58130    0.46490    1.000
    H300     H        0.20250    0.46770    0.46960    1.000
    C400     C        0.22257    0.56820    0.48122    1.000
    O151     O        0.40000    0.66533    0.79570    1.000
    Zn26     Zn       0.39748    0.65840    0.83397    1.000
    C401     C        0.43351    0.65280    0.80252    1.000
    O152     O        0.43678    0.64677    0.81699    1.000
    O153     O        0.44455    0.72088    0.84809    1.000
    O154     O        0.37038    0.58950    0.84655    1.000
    C402     C        0.48031    0.65226    0.79325    1.000
    C403     C        0.48693    0.66851    0.77778    1.000
    C404     C        0.51594    0.63460    0.79922    1.000
    H301     H        0.46187    0.67903    0.77333    1.000
    C405     C        0.53075    0.66901    0.76908    1.000
    H302     H        0.51187    0.62363    0.80953    1.000
    C406     C        0.55754    0.63233    0.79059    1.000
    C407     C        0.56738    0.65174    0.77525    1.000
    H303     H        0.53547    0.68123    0.75883    1.000
    H304     H        0.57957    0.61773    0.79493    1.000
    O155     O        0.61115    0.65074    0.76793    1.000
    C408     C        0.63073    0.68344    0.75408    1.000
    H305     H        0.60307    0.66393    0.74583    1.000
    H306     H        0.63497    0.72143    0.75553    1.000
    C409     C        0.73079    0.71216    0.76389    1.000
    O156     O        0.73362    0.76443    0.76856    1.000
    H307     H        0.71647    0.68423    0.77223    1.000
    H308     H        0.76887    0.71923    0.76093    1.000
    C410     C        0.77207    0.79443    0.78009    1.000
    C411     C        0.77350    0.84533    0.78434    1.000
    C412     C        0.80754    0.77845    0.78683    1.000
    H309     H        0.74887    0.85573    0.77953    1.000
    C413     C        0.81089    0.88026    0.79553    1.000
    C414     C        0.84504    0.81223    0.79826    1.000
    H310     H        0.80667    0.74463    0.78373    1.000
    C415     C        0.84695    0.86393    0.80286    1.000
    H311     H        0.81217    0.91463    0.79823    1.000
    H312     H        0.86917    0.80103    0.80293    1.000
    C416     C        0.88924    0.90153    0.81455    1.000
    O157     O        0.06666    0.99867    0.12904    1.000
    Zn27     Zn       0.06415    0.99173    0.16730    1.000
    C417     C        0.10017    0.98614    0.13586    1.000
    O158     O        0.10344    0.98011    0.15033    1.000
    O159     O        0.11121    0.05422    0.18143    1.000
    O160     O        0.03704    0.92284    0.17989    1.000
    C418     C        0.14697    0.98560    0.12659    1.000
    C419     C        0.15359    0.00185    0.11112    1.000
    C420     C        0.18260    0.96794    0.13256    1.000
    H313     H        0.12853    0.01237    0.10667    1.000
    C421     C        0.19741    0.00235    0.10242    1.000
    H314     H        0.17853    0.95697    0.14287    1.000
    C422     C        0.22420    0.96567    0.12393    1.000
    C423     C        0.23404    0.98508    0.10859    1.000
    H315     H        0.20213    0.01457    0.09217    1.000
    H316     H        0.24623    0.95107    0.12827    1.000
    O161     O        0.27781    0.98408    0.10127    1.000
    C424     C        0.29739    0.01678    0.08742    1.000
    H317     H        0.26973    0.99727    0.07917    1.000
    H318     H        0.30163    0.05477    0.08887    1.000
    C425     C        0.39745    0.04550    0.09723    1.000
    O162     O        0.40028    0.09777    0.10190    1.000
    H319     H        0.38313    0.01757    0.10557    1.000
    H320     H        0.43553    0.05257    0.09427    1.000
    C426     C        0.43873    0.12777    0.11343    1.000
    C427     C        0.44016    0.17867    0.11768    1.000
    C428     C        0.47420    0.11179    0.12017    1.000
    H321     H        0.41553    0.18907    0.11287    1.000
    C429     C        0.47755    0.21360    0.12887    1.000
    C430     C        0.51170    0.14557    0.13160    1.000
    H322     H        0.47333    0.07797    0.11707    1.000
    C431     C        0.51361    0.19727    0.13620    1.000
    H323     H        0.47883    0.24797    0.13157    1.000
    H324     H        0.53583    0.13437    0.13627    1.000
    C432     C        0.55590    0.23487    0.14789    1.000
    O163     O        0.40133    0.66800    0.03763    1.000
    Zn28     Zn       0.40575    0.67494    0.99937    1.000
    C433     C        0.44737    0.68053    0.03081    1.000
    O164     O        0.45667    0.68656    0.01634    1.000
    O165     O        0.39033    0.61245    0.98524    1.000
    O166     O        0.44754    0.74383    0.98678    1.000
    C434     C        0.49471    0.68107    0.04008    1.000
    C435     C        0.48508    0.66482    0.05555    1.000
    C436     C        0.54800    0.69873    0.03411    1.000
    H325     H        0.44950    0.65430    0.06000    1.000
    C437     C        0.52840    0.66432    0.06425    1.000
    H326     H        0.55490    0.70970    0.02380    1.000
    C438     C        0.59187    0.70100    0.04274    1.000
    C439     C        0.58230    0.68159    0.05808    1.000
    H327     H        0.52090    0.65210    0.07450    1.000
    H328     H        0.62850    0.71560    0.03840    1.000
    O167     O        0.62707    0.68259    0.06540    1.000
    C440     C        0.61395    0.64989    0.07925    1.000
    H329     H        0.60580    0.66940    0.08750    1.000
    H330     H        0.58020    0.61190    0.07780    1.000
    C441     C        0.68529    0.62117    0.06944    1.000
    O168     O        0.63585    0.56890    0.06477    1.000
    H331     H        0.69890    0.64910    0.06110    1.000
    H332     H        0.71630    0.61410    0.07240    1.000
    C442     C        0.64430    0.53890    0.05324    1.000
    C443     C        0.59483    0.48800    0.04899    1.000
    C444     C        0.69575    0.55488    0.04650    1.000
    H333     H        0.55980    0.47760    0.05380    1.000
    C445     C        0.59729    0.45307    0.03780    1.000
    C446     C        0.69947    0.52110    0.03507    1.000
    H334     H        0.72870    0.58870    0.04960    1.000
    C447     C        0.64968    0.46940    0.03047    1.000
    H335     H        0.56420    0.41870    0.03510    1.000
    H336     H        0.73480    0.53230    0.03040    1.000
    C448     C        0.65437    0.43180    0.01878    1.000
    O169     O        0.06800    0.00133    0.37096    1.000
    Zn29     Zn       0.07242    0.00827    0.33270    1.000
    C449     C        0.11404    0.01386    0.36414    1.000
    O170     O        0.12334    0.01989    0.34967    1.000
    O171     O        0.05700    0.94578    0.31857    1.000
    O172     O        0.11421    0.07716    0.32011    1.000
    C450     C        0.16138    0.01440    0.37341    1.000
    C451     C        0.15175    0.99815    0.38888    1.000
    C452     C        0.21467    0.03206    0.36744    1.000
    H337     H        0.11617    0.98763    0.39333    1.000
    C453     C        0.19507    0.99765    0.39758    1.000
    H338     H        0.22157    0.04303    0.35713    1.000
    C454     C        0.25854    0.03433    0.37607    1.000
    C455     C        0.24897    0.01492    0.39141    1.000
    H339     H        0.18757    0.98543    0.40783    1.000
    H340     H        0.29517    0.04893    0.37173    1.000
    O173     O        0.29374    0.01592    0.39873    1.000
    C456     C        0.28062    0.98322    0.41258    1.000
    H341     H        0.27247    0.00273    0.42083    1.000
    H342     H        0.24687    0.94523    0.41113    1.000
    C457     C        0.35196    0.95450    0.40277    1.000
    O174     O        0.30252    0.90223    0.39810    1.000
    H343     H        0.36557    0.98243    0.39443    1.000
    H344     H        0.38297    0.94743    0.40573    1.000
    C458     C        0.31097    0.87223    0.38657    1.000
    C459     C        0.26150    0.82133    0.38232    1.000
    C460     C        0.36242    0.88821    0.37983    1.000
    H345     H        0.22647    0.81093    0.38713    1.000
    C461     C        0.26396    0.78640    0.37113    1.000
    C462     C        0.36614    0.85443    0.36840    1.000
    H346     H        0.39537    0.92203    0.38293    1.000
    C463     C        0.31635    0.80273    0.36380    1.000
    H347     H        0.23087    0.75203    0.36843    1.000
    H348     H        0.40147    0.86563    0.36373    1.000
    C464     C        0.32104    0.76513    0.35211    1.000
    O175     O        0.73466    0.33467    0.70430    1.000
    Zn30     Zn       0.73909    0.34160    0.66603    1.000
    C465     C        0.78070    0.34720    0.69748    1.000
    O176     O        0.79000    0.35323    0.68301    1.000
    O177     O        0.72366    0.27912    0.65191    1.000
    O178     O        0.78087    0.41050    0.65345    1.000
    C466     C        0.82804    0.34774    0.70675    1.000
    C467     C        0.81841    0.33149    0.72222    1.000
    C468     C        0.88133    0.36540    0.70078    1.000
    H349     H        0.78283    0.32097    0.72667    1.000
    C469     C        0.86173    0.33099    0.73092    1.000
    H350     H        0.88823    0.37637    0.69047    1.000
    C470     C        0.92520    0.36767    0.70941    1.000
    C471     C        0.91563    0.34826    0.72475    1.000
    H351     H        0.85423    0.31877    0.74117    1.000
    H352     H        0.96183    0.38227    0.70507    1.000
    O179     O        0.96040    0.34926    0.73207    1.000
    C472     C        0.94728    0.31656    0.74592    1.000
    H353     H        0.93913    0.33607    0.75417    1.000
    H354     H        0.91353    0.27857    0.74447    1.000
    C473     C        0.01862    0.28784    0.73611    1.000
    O180     O        0.96918    0.23557    0.73144    1.000
    H355     H        0.03223    0.31577    0.72777    1.000
    H356     H        0.04963    0.28077    0.73907    1.000
    C474     C        0.97763    0.20557    0.71991    1.000
    C475     C        0.92816    0.15467    0.71566    1.000
    C476     C        0.02908    0.22155    0.71317    1.000
    H357     H        0.89313    0.14427    0.72047    1.000
    C477     C        0.93062    0.11974    0.70447    1.000
    C478     C        0.03280    0.18777    0.70174    1.000
    H358     H        0.06203    0.25537    0.71627    1.000
    C479     C        0.98301    0.13607    0.69714    1.000
    H359     H        0.89753    0.08537    0.70177    1.000
    H360     H        0.06813    0.19897    0.69707    1.000
    C480     C        0.98770    0.09847    0.68545    1.000
    O181     O        0.26667    0.59867    0.03763    1.000
    Zn31     Zn       0.26918    0.59425    0.99937    1.000
    C481     C        0.23316    0.55263    0.03081    1.000
    O182     O        0.22989    0.54333    0.01634    1.000
    O183     O        0.22212    0.60967    0.98524    1.000
    O184     O        0.29629    0.55246    0.98678    1.000
    C482     C        0.18636    0.50529    0.04008    1.000
    C483     C        0.17974    0.51492    0.05555    1.000
    C484     C        0.15073    0.45200    0.03411    1.000
    H361     H        0.20480    0.55050    0.06000    1.000
    C485     C        0.13592    0.47160    0.06425    1.000
    H362     H        0.15480    0.44510    0.02380    1.000
    C486     C        0.10913    0.40813    0.04274    1.000
    C487     C        0.09929    0.41770    0.05808    1.000
    H363     H        0.13120    0.47910    0.07450    1.000
    H364     H        0.08710    0.37150    0.03840    1.000
    O185     O        0.05552    0.37293    0.06540    1.000
    C488     C        0.03594    0.38605    0.07925    1.000
    H365     H        0.06360    0.39420    0.08750    1.000
    H366     H        0.03170    0.41980    0.07780    1.000
    C489     C        0.93588    0.31471    0.06944    1.000
    O186     O        0.93305    0.36415    0.06477    1.000
    H367     H        0.95020    0.30110    0.06110    1.000
    H368     H        0.89780    0.28370    0.07240    1.000
    C490     C        0.89460    0.35570    0.05324    1.000
    C491     C        0.89317    0.40517    0.04899    1.000
    C492     C        0.85913    0.30425    0.04650    1.000
    H369     H        0.91780    0.44020    0.05380    1.000
    C493     C        0.85578    0.40271    0.03780    1.000
    C494     C        0.82163    0.30053    0.03507    1.000
    H370     H        0.86000    0.27130    0.04960    1.000
    C495     C        0.81972    0.35032    0.03047    1.000
    H371     H        0.85450    0.43580    0.03510    1.000
    H372     H        0.79750    0.26520    0.03040    1.000
    C496     C        0.77743    0.34563    0.01878    1.000
    O187     O        0.93334    0.93200    0.37096    1.000
    Zn32     Zn       0.93585    0.92758    0.33270    1.000
    C497     C        0.89983    0.88596    0.36414    1.000
    O188     O        0.89656    0.87666    0.34967    1.000
    O189     O        0.88879    0.94300    0.31857    1.000
    O190     O        0.96296    0.88579    0.32011    1.000
    C498     C        0.85303    0.83862    0.37341    1.000
    C499     C        0.84641    0.84825    0.38888    1.000
    C500     C        0.81740    0.78533    0.36744    1.000
    H373     H        0.87147    0.88383    0.39333    1.000
    C501     C        0.80259    0.80493    0.39758    1.000
    H374     H        0.82147    0.77843    0.35713    1.000
    C502     C        0.77580    0.74146    0.37607    1.000
    C503     C        0.76596    0.75103    0.39141    1.000
    H375     H        0.79787    0.81243    0.40783    1.000
    H376     H        0.75377    0.70483    0.37173    1.000
    O191     O        0.72219    0.70626    0.39873    1.000
    C504     C        0.70261    0.71938    0.41258    1.000
    H377     H        0.73027    0.72753    0.42083    1.000
    H378     H        0.69837    0.75313    0.41113    1.000
    C505     C        0.60255    0.64804    0.40277    1.000
    O192     O        0.59972    0.69748    0.39810    1.000
    H379     H        0.61687    0.63443    0.39443    1.000
    H380     H        0.56447    0.61703    0.40573    1.000
    C506     C        0.56127    0.68903    0.38657    1.000
    C507     C        0.55984    0.73850    0.38232    1.000
    C508     C        0.52580    0.63758    0.37983    1.000
    H381     H        0.58447    0.77353    0.38713    1.000
    C509     C        0.52245    0.73604    0.37113    1.000
    C510     C        0.48830    0.63386    0.36840    1.000
    H382     H        0.52667    0.60463    0.38293    1.000
    C511     C        0.48639    0.68365    0.36380    1.000
    H383     H        0.52117    0.76913    0.36843    1.000
    H384     H        0.46417    0.59853    0.36373    1.000
    C512     C        0.44410    0.67896    0.35211    1.000
    O193     O        0.60000    0.26534    0.70430    1.000
    Zn33     Zn       0.60252    0.26091    0.66603    1.000
    C513     C        0.56649    0.21930    0.69748    1.000
    O194     O        0.56322    0.21000    0.68301    1.000
    O195     O        0.55545    0.27634    0.65191    1.000
    O196     O        0.62962    0.21913    0.65345    1.000
    C514     C        0.51969    0.17196    0.70675    1.000
    C515     C        0.51307    0.18159    0.72222    1.000
    C516     C        0.48406    0.11867    0.70078    1.000
    H385     H        0.53813    0.21717    0.72667    1.000
    C517     C        0.46925    0.13827    0.73092    1.000
    H386     H        0.48813    0.11177    0.69047    1.000
    C518     C        0.44246    0.07480    0.70941    1.000
    C519     C        0.43262    0.08437    0.72475    1.000
    H387     H        0.46453    0.14577    0.74117    1.000
    H388     H        0.42043    0.03817    0.70507    1.000
    O197     O        0.38885    0.03960    0.73207    1.000
    C520     C        0.36927    0.05272    0.74592    1.000
    H389     H        0.39693    0.06087    0.75417    1.000
    H390     H        0.36503    0.08647    0.74447    1.000
    C521     C        0.26921    0.98138    0.73611    1.000
    O198     O        0.26638    0.03082    0.73144    1.000
    H391     H        0.28353    0.96777    0.72777    1.000
    H392     H        0.23113    0.95037    0.73907    1.000
    C522     C        0.22793    0.02237    0.71991    1.000
    C523     C        0.22650    0.07184    0.71566    1.000
    C524     C        0.19246    0.97092    0.71317    1.000
    H393     H        0.25113    0.10687    0.72047    1.000
    C525     C        0.18911    0.06938    0.70447    1.000
    C526     C        0.15496    0.96720    0.70174    1.000
    H394     H        0.19333    0.93797    0.71627    1.000
    C527     C        0.15305    0.01699    0.69714    1.000
    H395     H        0.18783    0.10247    0.70177    1.000
    H396     H        0.13083    0.93187    0.69707    1.000
    C528     C        0.11076    0.01230    0.68545    1.000
    O199     O        0.33200    0.73333    0.03763    1.000
    Zn34     Zn       0.32506    0.73082    0.99937    1.000
    C529     C        0.31947    0.76684    0.03081    1.000
    O200     O        0.31344    0.77011    0.01634    1.000
    O201     O        0.38755    0.77788    0.98524    1.000
    O202     O        0.25617    0.70371    0.98678    1.000
    C530     C        0.31893    0.81364    0.04008    1.000
    C531     C        0.33518    0.82026    0.05555    1.000
    C532     C        0.30127    0.84927    0.03411    1.000
    H397     H        0.34570    0.79520    0.06000    1.000
    C533     C        0.33568    0.86408    0.06425    1.000
    H398     H        0.29030    0.84520    0.02380    1.000
    C534     C        0.29900    0.89087    0.04274    1.000
    C535     C        0.31841    0.90071    0.05808    1.000
    H399     H        0.34790    0.86880    0.07450    1.000
    H400     H        0.28440    0.91290    0.03840    1.000
    O203     O        0.31741    0.94448    0.06540    1.000
    C536     C        0.35011    0.96406    0.07925    1.000
    H401     H        0.33060    0.93640    0.08750    1.000
    H402     H        0.38810    0.96830    0.07780    1.000
    C537     C        0.37883    0.06412    0.06944    1.000
    O204     O        0.43110    0.06695    0.06477    1.000
    H403     H        0.35090    0.04980    0.06110    1.000
    H404     H        0.38590    0.10220    0.07240    1.000
    C538     C        0.46110    0.10540    0.05324    1.000
    C539     C        0.51200    0.10683    0.04899    1.000
    C540     C        0.44512    0.14087    0.04650    1.000
    H405     H        0.52240    0.08220    0.05380    1.000
    C541     C        0.54693    0.14422    0.03780    1.000
    C542     C        0.47890    0.17837    0.03507    1.000
    H406     H        0.41130    0.14000    0.04960    1.000
    C543     C        0.53060    0.18028    0.03047    1.000
    H407     H        0.58130    0.14550    0.03510    1.000
    H408     H        0.46770    0.20250    0.03040    1.000
    C544     C        0.56820    0.22257    0.01878    1.000
    O205     O        0.99867    0.06666    0.37096    1.000
    Zn35     Zn       0.99173    0.06415    0.33270    1.000
    C545     C        0.98614    0.10017    0.36414    1.000
    O206     O        0.98011    0.10344    0.34967    1.000
    O207     O        0.05422    0.11121    0.31857    1.000
    O208     O        0.92284    0.03704    0.32011    1.000
    C546     C        0.98560    0.14697    0.37341    1.000
    C547     C        0.00185    0.15359    0.38888    1.000
    C548     C        0.96794    0.18260    0.36744    1.000
    H409     H        0.01237    0.12853    0.39333    1.000
    C549     C        0.00235    0.19741    0.39758    1.000
    H410     H        0.95697    0.17853    0.35713    1.000
    C550     C        0.96567    0.22420    0.37607    1.000
    C551     C        0.98508    0.23404    0.39141    1.000
    H411     H        0.01457    0.20213    0.40783    1.000
    H412     H        0.95107    0.24623    0.37173    1.000
    O209     O        0.98408    0.27781    0.39873    1.000
    C552     C        0.01678    0.29739    0.41258    1.000
    H413     H        0.99727    0.26973    0.42083    1.000
    H414     H        0.05477    0.30163    0.41113    1.000
    C553     C        0.04550    0.39745    0.40277    1.000
    O210     O        0.09777    0.40028    0.39810    1.000
    H415     H        0.01757    0.38313    0.39443    1.000
    H416     H        0.05257    0.43553    0.40573    1.000
    C554     C        0.12777    0.43873    0.38657    1.000
    C555     C        0.17867    0.44016    0.38232    1.000
    C556     C        0.11179    0.47420    0.37983    1.000
    H417     H        0.18907    0.41553    0.38713    1.000
    C557     C        0.21360    0.47755    0.37113    1.000
    C558     C        0.14557    0.51170    0.36840    1.000
    H418     H        0.07797    0.47333    0.38293    1.000
    C559     C        0.19727    0.51361    0.36380    1.000
    H419     H        0.24797    0.47883    0.36843    1.000
    H420     H        0.13437    0.53583    0.36373    1.000
    C560     C        0.23487    0.55590    0.35211    1.000
    O211     O        0.66533    0.40000    0.70430    1.000
    Zn36     Zn       0.65840    0.39748    0.66603    1.000
    C561     C        0.65280    0.43351    0.69748    1.000
    O212     O        0.64677    0.43678    0.68301    1.000
    O213     O        0.72088    0.44455    0.65191    1.000
    O214     O        0.58950    0.37038    0.65345    1.000
    C562     C        0.65226    0.48031    0.70675    1.000
    C563     C        0.66851    0.48693    0.72222    1.000
    C564     C        0.63460    0.51594    0.70078    1.000
    H421     H        0.67903    0.46187    0.72667    1.000
    C565     C        0.66901    0.53075    0.73092    1.000
    H422     H        0.62363    0.51187    0.69047    1.000
    C566     C        0.63233    0.55754    0.70941    1.000
    C567     C        0.65174    0.56738    0.72475    1.000
    H423     H        0.68123    0.53547    0.74117    1.000
    H424     H        0.61773    0.57957    0.70507    1.000
    O215     O        0.65074    0.61115    0.73207    1.000
    C568     C        0.68344    0.63073    0.74592    1.000
    H425     H        0.66393    0.60307    0.75417    1.000
    H426     H        0.72143    0.63497    0.74447    1.000
    C569     C        0.71216    0.73079    0.73611    1.000
    O216     O        0.76443    0.73362    0.73144    1.000
    H427     H        0.68423    0.71647    0.72777    1.000
    H428     H        0.71923    0.76887    0.73907    1.000
    C570     C        0.79443    0.77207    0.71991    1.000
    C571     C        0.84533    0.77350    0.71566    1.000
    C572     C        0.77845    0.80754    0.71317    1.000
    H429     H        0.85573    0.74887    0.72047    1.000
    C573     C        0.88026    0.81089    0.70447    1.000
    C574     C        0.81223    0.84504    0.70174    1.000
    H430     H        0.74463    0.80667    0.71627    1.000
    C575     C        0.86393    0.84695    0.69714    1.000
    H431     H        0.91463    0.81217    0.70177    1.000
    H432     H        0.80103    0.86917    0.69707    1.000
    C576     C        0.90153    0.88924    0.68545    1.000
    Zn37     Zn       0.33333    0.66667    0.52919    1.000
    O217     O        0.33333    0.66667    0.50668    1.000
    Zn38     Zn       0.00000    0.00000    0.86252    1.000
    O218     O        0.00000    0.00000    0.84001    1.000
    Zn39     Zn       0.66667    0.33333    0.19585    1.000
    O219     O        0.66667    0.33333    0.17335    1.000
    Zn40     Zn       0.66667    0.33333    0.97082    1.000
    O220     O        0.66667    0.33333    0.99332    1.000
    Zn41     Zn       0.33333    0.66667    0.30415    1.000
    O221     O        0.33333    0.66667    0.32665    1.000
    Zn42     Zn       0.00000    0.00000    0.63748    1.000
    O222     O        0.00000    0.00000    0.65999    1.000
    Zn43     Zn       0.66667    0.33333    0.47081    1.000
    O223     O        0.66667    0.33333    0.49332    1.000
    Zn44     Zn       0.33333    0.66667    0.80415    1.000
    O224     O        0.33333    0.66667    0.82665    1.000
    Zn45     Zn       0.00000    0.00000    0.13748    1.000
    O225     O        0.00000    0.00000    0.15999    1.000
    Zn46     Zn       0.33333    0.66667    0.02919    1.000
    O226     O        0.33333    0.66667    0.00668    1.000
    Zn47     Zn       0.00000    0.00000    0.36252    1.000
    O227     O        0.00000    0.00000    0.34001    1.000
    Zn48     Zn       0.66667    0.33333    0.69585    1.000
    O228     O        0.66667    0.33333    0.67335    1.000
    C577     C        0.35571    0.33333    0.58333    1.000
    C578     C        0.66667    0.02237    0.58333    1.000
    C579     C        0.97763    0.64429    0.58333    1.000
    C580     C        0.33333    0.35571    0.91667    1.000
    C581     C        0.00000    0.68904    0.25000    1.000
    C582     C        0.02237    0.66667    0.91667    1.000
    C583     C        0.68904    0.00000    0.25000    1.000
    C584     C        0.64429    0.97763    0.91667    1.000
    C585     C        0.31096    0.31096    0.25000    1.000
    C586     C        0.64429    0.66667    0.41667    1.000
    C587     C        0.31096    0.00000    0.75000    1.000
    C588     C        0.33333    0.97763    0.41667    1.000
    C589     C        0.00000    0.31096    0.75000    1.000
    C590     C        0.02237    0.35571    0.41667    1.000
    C591     C        0.68904    0.68904    0.75000    1.000
    C592     C        0.66667    0.64429    0.08333    1.000
    C593     C        0.97763    0.33333    0.08333    1.000
    C594     C        0.35571    0.02237    0.08333    1.000
