# CIF file generated by openbabel 3.1.0, see https://openbabel.org
data_I
_chemical_name_common 'image0'
_cell_length_a 9.6691
_cell_length_b 17.4598
_cell_length_c 20.4487
_cell_angle_alpha 90
_cell_angle_beta 94.891
_cell_angle_gamma 90
_space_group_name_H-M_alt 'P 1'
_space_group_name_Hall 'P 1'
loop_
    _symmetry_equiv_pos_as_xyz
    x,y,z
loop_
    _atom_site_label
    _atom_site_type_symbol
    _atom_site_fract_x
    _atom_site_fract_y
    _atom_site_fract_z
    _atom_site_occupancy
    Cu1      Cu       0.30000    0.50752    0.52443    1.000
    Cu2      Cu       0.99985    0.47758    0.42703    1.000
    O1       O        0.31350    0.90300    0.08153    1.000
    O2       O        0.10870    0.90160    0.12555    1.000
    O3       O        0.04810    0.55620    0.32930    1.000
    O4       O        0.87710    0.56440    0.39258    1.000
    O5       O        0.12130    0.53940    0.48474    1.000
    H1       H        0.12400    0.58200    0.46500    1.000
    N1       N        0.27790    0.41100    0.46916    1.000
    N2       N        0.15060    0.39710    0.43645    1.000
    N3       N        0.28450    0.30030    0.42010    1.000
    N4       N        0.45890    0.03640    0.08032    1.000
    N5       N        0.58030    0.06430    0.05820    1.000
    N6       N        0.58300    0.08270    0.16400    1.000
    C1       C        0.35650    0.35230    0.45820    1.000
    H2       H        0.44880    0.34710    0.47440    1.000
    C2       C        0.15700    0.33080    0.40860    1.000
    H3       H        0.08350    0.30740    0.38410    1.000
    C3       C        0.33320    0.22710    0.39520    1.000
    H4       H        0.25730    0.19060    0.39320    1.000
    H5       H        0.40650    0.20740    0.42600    1.000
    C4       C        0.38680    0.23290    0.32840    1.000
    C5       C        0.35540    0.29260    0.28550    1.000
    H6       H        0.29810    0.33210    0.29730    1.000
    C6       C        0.40930    0.29380    0.22470    1.000
    H7       H        0.38690    0.33380    0.19570    1.000
    C7       C        0.49610    0.23580    0.20710    1.000
    H8       H        0.53400    0.23760    0.16680    1.000
    C8       C        0.52670    0.17490    0.24930    1.000
    C9       C        0.47210    0.17380    0.30920    1.000
    H9       H        0.49240    0.13280    0.33750    1.000
    C10      C        0.62290    0.11120    0.23100    1.000
    H10      H        0.71750    0.13010    0.23350    1.000
    H11      H        0.61930    0.06940    0.26210    1.000
    C11      C        0.46260    0.04770    0.14330    1.000
    H12      H        0.39330    0.03380    0.16980    1.000
    C12      C        0.65170    0.09240    0.10990    1.000
    H13      H        0.73800    0.11580    0.10940    1.000
    C13      C        0.22730    0.87530    0.11760    1.000
    C14      C        0.27530    0.80310    0.15320    1.000
    H14      H        0.35460    0.81570    0.18360    1.000
    H15      H        0.30690    0.76740    0.12130    1.000
    C15      C        0.16830    0.76300    0.19100    1.000
    C16      C        0.14080    0.78770    0.25120    1.000
    H16      H        0.18800    0.82980    0.26990    1.000
    C17      C        0.04130    0.75000    0.28570    1.000
    H17      H        0.02390    0.76800    0.32700    1.000
    C18      C        0.97060    0.68920    0.26120    1.000
    C19      C        0.99930    0.66440    0.20050    1.000
    H18      H        0.95210    0.62210    0.18220    1.000
    C20      C        0.09730    0.70070    0.16530    1.000
    H19      H        0.11470    0.68250    0.12400    1.000
    C21      C        0.86880    0.64480    0.29910    1.000
    H20      H        0.81910    0.68040    0.32500    1.000
    H21      H        0.80140    0.62000    0.26810    1.000
    C22      C        0.93720    0.58540    0.34360    1.000
    Cu3      Cu       0.70000    0.00752    0.97557    1.000
    Cu4      Cu       0.00015    0.97758    0.07297    1.000
    O6       O        0.68650    0.40300    0.41847    1.000
    O7       O        0.89130    0.40160    0.37445    1.000
    O8       O        0.95190    0.05620    0.17070    1.000
    O9       O        0.12290    0.06440    0.10742    1.000
    O10      O        0.87870    0.03940    0.01526    1.000
    H22      H        0.87600    0.08200    0.03500    1.000
    N7       N        0.72210    0.91100    0.03084    1.000
    N8       N        0.84940    0.89710    0.06355    1.000
    N9       N        0.71550    0.80030    0.07990    1.000
    N10      N        0.54110    0.53640    0.41968    1.000
    N11      N        0.41970    0.56430    0.44180    1.000
    N12      N        0.41700    0.58270    0.33600    1.000
    C23      C        0.64350    0.85230    0.04180    1.000
    H23      H        0.55120    0.84710    0.02560    1.000
    C24      C        0.84300    0.83080    0.09140    1.000
    H24      H        0.91650    0.80740    0.11590    1.000
    C25      C        0.66680    0.72710    0.10480    1.000
    H25      H        0.74270    0.69060    0.10680    1.000
    H26      H        0.59350    0.70740    0.07400    1.000
    C26      C        0.61320    0.73290    0.17160    1.000
    C27      C        0.64460    0.79260    0.21450    1.000
    H27      H        0.70190    0.83210    0.20270    1.000
    C28      C        0.59070    0.79380    0.27530    1.000
    H28      H        0.61310    0.83380    0.30430    1.000
    C29      C        0.50390    0.73580    0.29290    1.000
    H29      H        0.46600    0.73760    0.33320    1.000
    C30      C        0.47330    0.67490    0.25070    1.000
    C31      C        0.52790    0.67380    0.19080    1.000
    H30      H        0.50760    0.63280    0.16250    1.000
    C32      C        0.37710    0.61120    0.26900    1.000
    H31      H        0.28250    0.63010    0.26650    1.000
    H32      H        0.38070    0.56940    0.23790    1.000
    C33      C        0.53740    0.54770    0.35670    1.000
    H33      H        0.60670    0.53380    0.33020    1.000
    C34      C        0.34830    0.59240    0.39010    1.000
    H34      H        0.26200    0.61580    0.39060    1.000
    C35      C        0.77270    0.37530    0.38240    1.000
    C36      C        0.72470    0.30310    0.34680    1.000
    H35      H        0.64540    0.31570    0.31640    1.000
    H36      H        0.69310    0.26740    0.37870    1.000
    C37      C        0.83170    0.26300    0.30900    1.000
    C38      C        0.85920    0.28770    0.24880    1.000
    H37      H        0.81200    0.32980    0.23010    1.000
    C39      C        0.95870    0.25000    0.21430    1.000
    H38      H        0.97610    0.26800    0.17300    1.000
    C40      C        0.02940    0.18920    0.23880    1.000
    C41      C        0.00070    0.16440    0.29950    1.000
    H39      H        0.04790    0.12210    0.31780    1.000
    C42      C        0.90270    0.20070    0.33470    1.000
    H40      H        0.88530    0.18250    0.37600    1.000
    C43      C        0.13120    0.14480    0.20090    1.000
    H41      H        0.18090    0.18040    0.17500    1.000
    H42      H        0.19860    0.12000    0.23190    1.000
    C44      C        0.06280    0.08540    0.15640    1.000
    Cu5      Cu       0.70000    0.49248    0.47557    1.000
    Cu6      Cu       0.00015    0.52242    0.57297    1.000
    O11      O        0.68650    0.09700    0.91847    1.000
    O12      O        0.89130    0.09840    0.87445    1.000
    O13      O        0.95190    0.44380    0.67070    1.000
    O14      O        0.12290    0.43560    0.60742    1.000
    O15      O        0.87870    0.46060    0.51526    1.000
    H43      H        0.87600    0.41800    0.53500    1.000
    N13      N        0.72210    0.58900    0.53084    1.000
    N14      N        0.84940    0.60290    0.56355    1.000
    N15      N        0.71550    0.69970    0.57990    1.000
    N16      N        0.54110    0.96360    0.91968    1.000
    N17      N        0.41970    0.93570    0.94180    1.000
    N18      N        0.41700    0.91730    0.83600    1.000
    C45      C        0.64350    0.64770    0.54180    1.000
    H44      H        0.55120    0.65290    0.52560    1.000
    C46      C        0.84300    0.66920    0.59140    1.000
    H45      H        0.91650    0.69260    0.61590    1.000
    C47      C        0.66680    0.77290    0.60480    1.000
    H46      H        0.74270    0.80940    0.60680    1.000
    H47      H        0.59350    0.79260    0.57400    1.000
    C48      C        0.61320    0.76710    0.67160    1.000
    C49      C        0.64460    0.70740    0.71450    1.000
    H48      H        0.70190    0.66790    0.70270    1.000
    C50      C        0.59070    0.70620    0.77530    1.000
    H49      H        0.61310    0.66620    0.80430    1.000
    C51      C        0.50390    0.76420    0.79290    1.000
    H50      H        0.46600    0.76240    0.83320    1.000
    C52      C        0.47330    0.82510    0.75070    1.000
    C53      C        0.52790    0.82620    0.69080    1.000
    H51      H        0.50760    0.86720    0.66250    1.000
    C54      C        0.37710    0.88880    0.76900    1.000
    H52      H        0.28250    0.86990    0.76650    1.000
    H53      H        0.38070    0.93060    0.73790    1.000
    C55      C        0.53740    0.95230    0.85670    1.000
    H54      H        0.60670    0.96620    0.83020    1.000
    C56      C        0.34830    0.90760    0.89010    1.000
    H55      H        0.26200    0.88420    0.89060    1.000
    C57      C        0.77270    0.12470    0.88240    1.000
    C58      C        0.72470    0.19690    0.84680    1.000
    H56      H        0.64540    0.18430    0.81640    1.000
    H57      H        0.69310    0.23260    0.87870    1.000
    C59      C        0.83170    0.23700    0.80900    1.000
    C60      C        0.85920    0.21230    0.74880    1.000
    H58      H        0.81200    0.17020    0.73010    1.000
    C61      C        0.95870    0.25000    0.71430    1.000
    H59      H        0.97610    0.23200    0.67300    1.000
    C62      C        0.02940    0.31080    0.73880    1.000
    C63      C        0.00070    0.33560    0.79950    1.000
    H60      H        0.04790    0.37790    0.81780    1.000
    C64      C        0.90270    0.29930    0.83470    1.000
    H61      H        0.88530    0.31750    0.87600    1.000
    C65      C        0.13120    0.35520    0.70090    1.000
    H62      H        0.18090    0.31960    0.67500    1.000
    H63      H        0.19860    0.38000    0.73190    1.000
    C66      C        0.06280    0.41460    0.65640    1.000
    Cu7      Cu       0.30000    0.99248    0.02443    1.000
    Cu8      Cu       0.99985    0.02242    0.92703    1.000
    O16      O        0.31350    0.59700    0.58153    1.000
    O17      O        0.10870    0.59840    0.62555    1.000
    O18      O        0.04810    0.94380    0.82930    1.000
    O19      O        0.87710    0.93560    0.89258    1.000
    O20      O        0.12130    0.96060    0.98474    1.000
    H64      H        0.12400    0.91800    0.96500    1.000
    N19      N        0.27790    0.08900    0.96916    1.000
    N20      N        0.15060    0.10290    0.93645    1.000
    N21      N        0.28450    0.19970    0.92010    1.000
    N22      N        0.45890    0.46360    0.58032    1.000
    N23      N        0.58030    0.43570    0.55820    1.000
    N24      N        0.58300    0.41730    0.66400    1.000
    C67      C        0.35650    0.14770    0.95820    1.000
    H65      H        0.44880    0.15290    0.97440    1.000
    C68      C        0.15700    0.16920    0.90860    1.000
    H66      H        0.08350    0.19260    0.88410    1.000
    C69      C        0.33320    0.27290    0.89520    1.000
    H67      H        0.25730    0.30940    0.89320    1.000
    H68      H        0.40650    0.29260    0.92600    1.000
    C70      C        0.38680    0.26710    0.82840    1.000
    C71      C        0.35540    0.20740    0.78550    1.000
    H69      H        0.29810    0.16790    0.79730    1.000
    C72      C        0.40930    0.20620    0.72470    1.000
    H70      H        0.38690    0.16620    0.69570    1.000
    C73      C        0.49610    0.26420    0.70710    1.000
    H71      H        0.53400    0.26240    0.66680    1.000
    C74      C        0.52670    0.32510    0.74930    1.000
    C75      C        0.47210    0.32620    0.80920    1.000
    H72      H        0.49240    0.36720    0.83750    1.000
    C76      C        0.62290    0.38880    0.73100    1.000
    H73      H        0.71750    0.36990    0.73350    1.000
    H74      H        0.61930    0.43060    0.76210    1.000
    C77      C        0.46260    0.45230    0.64330    1.000
    H75      H        0.39330    0.46620    0.66980    1.000
    C78      C        0.65170    0.40760    0.60990    1.000
    H76      H        0.73800    0.38420    0.60940    1.000
    C79      C        0.22730    0.62470    0.61760    1.000
    C80      C        0.27530    0.69690    0.65320    1.000
    H77      H        0.35460    0.68430    0.68360    1.000
    H78      H        0.30690    0.73260    0.62130    1.000
    C81      C        0.16830    0.73700    0.69100    1.000
    C82      C        0.14080    0.71230    0.75120    1.000
    H79      H        0.18800    0.67020    0.76990    1.000
    C83      C        0.04130    0.75000    0.78570    1.000
    H80      H        0.02390    0.73200    0.82700    1.000
    C84      C        0.97060    0.81080    0.76120    1.000
    C85      C        0.99930    0.83560    0.70050    1.000
    H81      H        0.95210    0.87790    0.68220    1.000
    C86      C        0.09730    0.79930    0.66530    1.000
    H82      H        0.11470    0.81750    0.62400    1.000
    C87      C        0.86880    0.85520    0.79910    1.000
    H83      H        0.81910    0.81960    0.82500    1.000
    H84      H        0.80140    0.88000    0.76810    1.000
    C88      C        0.93720    0.91460    0.84360    1.000
