data_functionalizedCrystal
_audit_creation_method	'EQeq! by Chris Wilmer'
_symmetry_space_group_name_H-M	'P1'
_symmetry_Int_Tables_number	1
_symmetry_cell_setting	triclinic
loop_
_symmetry_equiv_pos_as_xyz
  x,y,z
_cell_length_a	10.8724
_cell_length_b	15.6218
_cell_length_c	10.9924
_cell_angle_alpha	90
_cell_angle_beta	100.702
_cell_angle_gamma	90
loop_
_atom_site_label
_atom_site_type_symbol
_atom_site_fract_x
_atom_site_fract_y
_atom_site_fract_z
_atom_site_charge
Mof_Tb	Tb	0.14243	0.10175	0.39562	1.894
Mof_O 	O 	0.935	0.062	0.3354	-0.567
Mof_O 	O 	0.5489	0.3361	0.0588	-0.441
Mof_O 	O 	0.7423	0.2988	0.053	-0.435
Mof_O 	O 	0.289	0.1699	0.2852	-0.478
Mof_O 	O 	0.365	0.0646	0.4068	-0.425
Mof_O 	O 	0.8282	0.0109	0.4732	-0.556
Mof_C 	C 	0.8378	0.0561	0.3814	0.54
Mof_C 	C 	0.7251	0.1079	0.3235	-0.224
Mof_C 	C 	0.7365	0.1728	0.2404	0.12
Mof_H 	H 	0.8144	0.1849	0.2211	-0.019
Mof_C 	C 	0.6077	0.0901	0.3533	0.106
Mof_H 	H 	0.5996	0.0469	0.4093	0.018
Mof_C 	C 	0.5035	0.1373	0.2988	-0.152
Mof_C 	C 	0.6327	0.2197	0.1857	-0.157
Mof_C 	C 	0.5172	0.2018	0.2156	0.076
Mof_H 	H 	0.4476	0.2336	0.1793	0.023
Mof_C 	C 	0.6429	0.2897	0.0953	0.328
Mof_C 	C 	0.3773	0.1226	0.3314	0.351
Mof_Tb	Tb	0.35757	0.60175	0.10438	1.903
Mof_O 	O 	0.565	0.562	0.1646	-0.573
Mof_O 	O 	0.9511	0.8361	0.4412	-0.443
Mof_O 	O 	0.7577	0.7988	0.447	-0.437
Mof_O 	O 	0.211	0.6699	0.2148	-0.478
Mof_O 	O 	0.135	0.5646	0.0932	-0.426
Mof_O 	O 	0.6718	0.5109	0.0268	-0.559
Mof_C 	C 	0.6622	0.5561	0.1186	0.541
Mof_C 	C 	0.7749	0.6079	0.1765	-0.225
Mof_C 	C 	0.7635	0.6728	0.2596	0.12
Mof_H 	H 	0.6856	0.6849	0.2789	-0.02
Mof_C 	C 	0.8923	0.5901	0.1467	0.105
Mof_H 	H 	0.9004	0.5469	0.0907	0.02
Mof_C 	C 	0.9965	0.6373	0.2012	-0.148
Mof_C 	C 	0.8673	0.7197	0.3143	-0.156
Mof_C 	C 	0.9828	0.7018	0.2844	0.072
Mof_H 	H 	0.0524	0.7336	0.3207	0.025
Mof_C 	C 	0.8571	0.7897	0.4047	0.328
Mof_C 	C 	0.1227	0.6226	0.1686	0.349
Mof_Tb	Tb	0.85757	0.89825	0.60438	1.894
Mof_O 	O 	0.065	0.938	0.6646	-0.567
Mof_O 	O 	0.4511	0.6639	0.9412	-0.441
Mof_O 	O 	0.2577	0.7012	0.947	-0.435
Mof_O 	O 	0.711	0.8301	0.7148	-0.478
Mof_O 	O 	0.635	0.9354	0.5932	-0.425
Mof_O 	O 	0.1718	0.9891	0.5268	-0.556
Mof_C 	C 	0.1622	0.9439	0.6186	0.54
Mof_C 	C 	0.2749	0.8921	0.6765	-0.224
Mof_C 	C 	0.2635	0.8272	0.7596	0.12
Mof_H 	H 	0.1856	0.8151	0.7789	-0.019
Mof_C 	C 	0.3923	0.9099	0.6467	0.106
Mof_H 	H 	0.4004	0.9531	0.5907	0.018
Mof_C 	C 	0.4965	0.8627	0.7012	-0.152
Mof_C 	C 	0.3673	0.7803	0.8143	-0.157
Mof_C 	C 	0.4828	0.7982	0.7844	0.076
Mof_H 	H 	0.5524	0.7664	0.8207	0.023
Mof_C 	C 	0.3571	0.7103	0.9047	0.328
Mof_C 	C 	0.6227	0.8774	0.6686	0.351
Mof_Tb	Tb	0.64243	0.39825	0.89562	1.903
Mof_O 	O 	0.435	0.438	0.8354	-0.573
Mof_O 	O 	0.0489	0.1639	0.5588	-0.443
Mof_O 	O 	0.2423	0.2012	0.553	-0.437
Mof_O 	O 	0.789	0.3301	0.7852	-0.478
Mof_O 	O 	0.865	0.4354	0.9068	-0.426
Mof_O 	O 	0.3282	0.4891	0.9732	-0.559
Mof_C 	C 	0.3378	0.4439	0.8814	0.541
Mof_C 	C 	0.2251	0.3921	0.8235	-0.225
Mof_C 	C 	0.2365	0.3272	0.7404	0.12
Mof_H 	H 	0.3144	0.3151	0.7211	-0.02
Mof_C 	C 	0.1077	0.4099	0.8533	0.105
Mof_H 	H 	0.0996	0.4531	0.9093	0.02
Mof_C 	C 	0.0035	0.3627	0.7988	-0.148
Mof_C 	C 	0.1327	0.2803	0.6857	-0.156
Mof_C 	C 	0.0172	0.2982	0.7156	0.072
Mof_H 	H 	0.9476	0.2664	0.6793	0.025
Mof_C 	C 	0.1429	0.2103	0.5953	0.328
Mof_C 	C 	0.8773	0.3774	0.8314	0.349
_end
