data_functionalizedCrystal
_audit_creation_method	'EQeq! by Chris Wilmer'
_symmetry_space_group_name_H-M	'P1'
_symmetry_Int_Tables_number	1
_symmetry_cell_setting	triclinic
loop_
_symmetry_equiv_pos_as_xyz
  x,y,z
_cell_length_a	11.7785
_cell_length_b	12.0049
_cell_length_c	12.0049
_cell_angle_alpha	76.0745
_cell_angle_beta	60.6219
_cell_angle_gamma	60.6219
loop_
_atom_site_label
_atom_site_type_symbol
_atom_site_fract_x
_atom_site_fract_y
_atom_site_fract_z
_atom_site_charge
Mof_Al	Al	0.1944	0	0.6112	4.556
Mof_Al	Al	0.4444	0.1112	0.5	4.662
Mof_Al	Al	0.8056	0	0.3888	4.417
Mof_Al	Al	0.0556	0.8888	0.5	6.536
Mof_H 	H 	0.14172	0.5	0.5	-0.017
Mof_H 	H 	0.34664	0.95005	0.19623	-0.05
Mof_H 	H 	0.35828	0.5	0.5	-0.039
Mof_H 	H 	0.89172	0	-0	0.02
Mof_H 	H 	0.44182	0.93318	0.43318	0.599
Mof_H 	H 	0.70331	0.95005	0.80377	-0.063
Mof_H 	H 	0.90336	0.30377	0.54995	-0.104
Mof_H 	H 	0.75708	0.69623	0.45005	-0.051
Mof_H 	H 	0.10828	0	-0	-0.068
Mof_H 	H 	0.45713	0.04995	0.19623	-0.127
Mof_H 	H 	0.625	0.93318	0.56682	0.591
Mof_H 	H 	0.125	0.06682	0.43318	0.618
Mof_H 	H 	0.79287	0.30377	0.45005	-0.057
Mof_H 	H 	0.80818	0.06682	0.56682	0.63
Mof_H 	H 	0.49292	0.04995	0.80377	-0.115
Mof_H 	H 	0.54669	0.69623	0.54995	-0.05
Mof_C 	C 	0.10123	0.95717	0.23143	1.279
Mof_C 	C 	0.43446	0	-0	-0.337
Mof_C 	C 	0.58266	0.26857	0.45717	1.067
Mof_C 	C 	0.57694	0.38801	0.47149	-0.483
Mof_C 	C 	0.28983	0.04283	0.76857	0.642
Mof_C 	C 	0.67306	0.02851	0.11199	-0.345
Mof_C 	C 	0.91653	0.38801	0.52851	0.48
Mof_C 	C 	0.68446	0.5	0.5	-0.102
Mof_C 	C 	0.96017	0.73143	0.45717	1.418
Mof_C 	C 	0.69504	0.97149	0.88801	0.566
Mof_C 	C 	0.03505	0.38801	0.52851	-0.72
Mof_C 	C 	0.14877	0.26857	0.54283	1.131
Mof_C 	C 	0.55496	0.61199	0.52851	0.213
Mof_C 	C 	0.56554	0	-0	-0.395
Mof_C 	C 	0.81356	0.97149	0.88801	-0.422
Mof_C 	C 	0.43644	0.61199	0.52851	-0.513
Mof_C 	C 	0.33347	0.97149	0.11199	0.481
Mof_C 	C 	0.05257	0.5	0.5	0.216
Mof_C 	C 	0.44743	0.5	0.5	0.371
Mof_C 	C 	0.9416	0.95717	0.76857	1.825
Mof_C 	C 	0.95157	0.61199	0.47149	-0.363
Mof_C 	C 	0.83305	0.61199	0.47149	0.242
Mof_C 	C 	0.69546	0.38801	0.47149	0.197
Mof_C 	C 	0.21495	0.97149	0.11199	-0.302
Mof_C 	C 	0.3084	0.73143	0.54283	1.184
Mof_C 	C 	0.55454	0.02851	0.11199	0.161
Mof_C 	C 	0.29843	0.02851	0.88801	-0.361
Mof_C 	C 	0.66734	0.04283	0.23143	0.627
Mof_C 	C 	0.19743	0	-0	0.003
Mof_C 	C 	0.41695	0.02851	0.88801	0.106
Mof_C 	C 	0.81554	0.5	0.5	-0.186
Mof_C 	C 	0.80257	0	-0	0.078
Mof_O 	O 	0.22532	0.99375	0.75569	-0.759
Mof_O 	O 	0.625	0.99402	0.50598	-1.784
Mof_O 	O 	0.23101	0.74431	0.49375	-1.477
Mof_O 	O 	0.02468	0.74431	0.50625	-1.688
Mof_O 	O 	0.46907	0.25569	0.50625	-1.206
Mof_O 	O 	0.97476	0.00625	0.24431	-1.284
Mof_O 	O 	0.54886	0.10419	0.32099	-1.259
Mof_O 	O 	0.34695	0.10419	0.67901	-1.275
Mof_O 	O 	0.11985	0.17901	0.60419	-1.39
Mof_O 	O 	0.27596	0.82099	0.60419	-1.271
Mof_O 	O 	0.13015	0.89581	0.32099	-1.645
Mof_O 	O 	0.38098	0.99402	0.49402	-1.819
Mof_O 	O 	0.78093	0.99375	0.24431	-0.674
Mof_O 	O 	0.70114	0.17901	0.39581	-1.291
Mof_O 	O 	0.01899	0.00625	0.75569	-1.746
Mof_O 	O 	0.86902	0.00598	0.50598	-2.443
Mof_O 	O 	0.97404	0.89581	0.67901	-1.602
Mof_O 	O 	0.125	0.00598	0.49402	-2.581
Mof_O 	O 	0.90305	0.82099	0.39581	-1.225
Mof_O 	O 	0.27524	0.25569	0.49375	-1.227
_end
