data_functionalizedCrystal
_audit_creation_method	'EQeq! by Chris Wilmer'
_symmetry_space_group_name_H-M	'P1'
_symmetry_Int_Tables_number	1
_symmetry_cell_setting	triclinic
loop_
_symmetry_equiv_pos_as_xyz
  x,y,z
_cell_length_a	15.4939
_cell_length_b	15.4939
_cell_length_c	12.3121
_cell_angle_alpha	90
_cell_angle_beta	90
_cell_angle_gamma	90
loop_
_atom_site_label
_atom_site_type_symbol
_atom_site_fract_x
_atom_site_fract_y
_atom_site_fract_z
_atom_site_charge
Mof_O 	O 	0.6119	0.3812	0.6165	-0.798
Mof_O 	O 	0.5938	0.2924	0.7534	-0.786
Mof_C 	C 	0.584	0.3638	0.7087	0.681
Mof_C 	C 	0.53713	0.43092	0.76779	-0.259
Mof_C 	C 	0.53713	0.43092	0.88175	0.044
Mof_H 	H 	0.5649	0.3792	0.9244	0.024
Mof_O 	O 	0.1119	0.8812	0.1165	-0.765
Mof_O 	O 	0.0938	0.7924	0.2534	-0.777
Mof_C 	C 	0.084	0.8638	0.2087	0.663
Mof_C 	C 	0.03713	0.93092	0.26779	-0.266
Mof_C 	C 	0.03713	0.93092	0.38175	0.108
Mof_H 	H 	0.0649	0.8792	0.4244	-0.021
Mof_O 	O 	0.8881	0.1188	0.1165	-0.771
Mof_O 	O 	0.9062	0.2076	0.2534	-0.778
Mof_C 	C 	0.916	0.1362	0.2087	0.664
Mof_C 	C 	0.96287	0.06908	0.26779	-0.278
Mof_C 	C 	0.96287	0.06908	0.38175	0.095
Mof_H 	H 	0.9351	0.1208	0.4244	-0.02
Mof_O 	O 	0.3881	0.6188	0.6165	-0.798
Mof_O 	O 	0.4062	0.7076	0.7534	-0.783
Mof_C 	C 	0.416	0.6362	0.7087	0.682
Mof_C 	C 	0.46287	0.56908	0.76779	-0.258
Mof_C 	C 	0.46287	0.56908	0.88175	0.045
Mof_H 	H 	0.4351	0.6208	0.9244	0.026
Mof_O 	O 	0.6188	0.1119	0.8665	-0.865
Mof_O 	O 	0.7076	0.0938	0.0034	-0.894
Mof_C 	C 	0.6362	0.084	0.9587	0.987
Mof_C 	C 	0.56908	0.03713	0.01779	-0.666
Mof_C 	C 	0.56908	0.03713	0.13175	0.274
Mof_H 	H 	0.6208	0.0649	0.1744	-0.073
Mof_O 	O 	0.1188	0.6119	0.3665	-0.801
Mof_O 	O 	0.2076	0.5938	0.5034	-0.79
Mof_C 	C 	0.1362	0.584	0.4587	0.691
Mof_C 	C 	0.06908	0.53713	0.51779	-0.304
Mof_C 	C 	0.06908	0.53713	0.63175	0.12
Mof_H 	H 	0.1208	0.5649	0.6744	-0.025
Mof_O 	O 	0.8812	0.3881	0.3665	-0.798
Mof_O 	O 	0.7924	0.4062	0.5034	-0.788
Mof_C 	C 	0.8638	0.416	0.4587	0.691
Mof_C 	C 	0.93092	0.46287	0.51779	-0.298
Mof_C 	C 	0.93092	0.46287	0.63175	0.127
Mof_H 	H 	0.8792	0.4351	0.6744	-0.025
Mof_O 	O 	0.3812	0.8881	0.8665	-0.859
Mof_O 	O 	0.2924	0.9062	0.0034	-0.892
Mof_C 	C 	0.3638	0.916	0.9587	0.992
Mof_C 	C 	0.43092	0.96287	0.01779	-0.652
Mof_C 	C 	0.43092	0.96287	0.13175	0.294
Mof_H 	H 	0.3792	0.9351	0.1744	-0.074
Mof_O 	O 	0.8881	0.3812	0.1335	-0.712
Mof_O 	O 	0.9062	0.2924	0.9966	-0.572
Mof_C 	C 	0.916	0.3638	0.0413	0.339
Mof_C 	C 	0.96287	0.43092	0.98221	0.124
Mof_C 	C 	0.96287	0.43092	0.86825	-0.103
Mof_H 	H 	0.9351	0.3792	0.8256	0.042
Mof_O 	O 	0.3881	0.8812	0.6335	-0.795
Mof_O 	O 	0.4062	0.7924	0.4966	-0.787
Mof_C 	C 	0.416	0.8638	0.5413	0.682
Mof_C 	C 	0.46287	0.93092	0.48221	-0.255
Mof_C 	C 	0.46287	0.93092	0.36825	0.082
Mof_H 	H 	0.4351	0.8792	0.3256	-0.014
Mof_O 	O 	0.6119	0.1188	0.6335	-0.803
Mof_O 	O 	0.5938	0.2076	0.4966	-0.79
Mof_C 	C 	0.584	0.1362	0.5413	0.684
Mof_C 	C 	0.53713	0.06908	0.48221	-0.274
Mof_C 	C 	0.53713	0.06908	0.36825	0.063
Mof_H 	H 	0.5649	0.1208	0.3256	-0.013
Mof_O 	O 	0.1119	0.6188	0.1335	-0.715
Mof_O 	O 	0.0938	0.7076	0.9966	-0.571
Mof_C 	C 	0.084	0.6362	0.0413	0.339
Mof_C 	C 	0.03713	0.56908	0.98221	0.118
Mof_C 	C 	0.03713	0.56908	0.86825	-0.109
Mof_H 	H 	0.0649	0.6208	0.8256	0.043
Mof_O 	O 	0.8812	0.1119	0.8835	-0.71
Mof_O 	O 	0.7924	0.0938	0.7466	-0.775
Mof_C 	C 	0.8638	0.084	0.7913	0.659
Mof_C 	C 	0.93092	0.03713	0.73221	-0.257
Mof_C 	C 	0.93092	0.03713	0.61825	0.087
Mof_H 	H 	0.8792	0.0649	0.5756	-0.018
Mof_O 	O 	0.3812	0.6119	0.3835	-0.804
Mof_O 	O 	0.2924	0.5938	0.2466	-0.794
Mof_C 	C 	0.3638	0.584	0.2913	0.697
Mof_C 	C 	0.43092	0.53713	0.23221	-0.323
Mof_C 	C 	0.43092	0.53713	0.11825	0.137
Mof_H 	H 	0.3792	0.5649	0.0756	-0.06
Mof_O 	O 	0.6188	0.3881	0.3835	-0.804
Mof_O 	O 	0.7076	0.4062	0.2466	-0.793
Mof_C 	C 	0.6362	0.416	0.2913	0.697
Mof_C 	C 	0.56908	0.46287	0.23221	-0.322
Mof_C 	C 	0.56908	0.46287	0.11825	0.137
Mof_H 	H 	0.6208	0.4351	0.0756	-0.059
Mof_O 	O 	0.1188	0.8881	0.8835	-0.704
Mof_O 	O 	0.2076	0.9062	0.7466	-0.771
Mof_C 	C 	0.1362	0.916	0.7913	0.657
Mof_C 	C 	0.06908	0.96287	0.73221	-0.242
Mof_C 	C 	0.06908	0.96287	0.61825	0.101
Mof_H 	H 	0.1208	0.9351	0.5756	-0.018
Mof_In	In	0.6867	0.3133	0.5	3.005
Mof_In	In	0.1867	0.8133	-0	2.669
Mof_In	In	0.8133	0.1867	-0	2.669
Mof_In	In	0.3133	0.6867	0.5	3.007
Mof_In	In	0.6867	0.1867	0.75	3.059
Mof_In	In	0.1867	0.6867	0.25	2.953
Mof_In	In	0.8133	0.3133	0.25	2.953
Mof_In	In	0.3133	0.8133	0.75	3.065
Mof_O 	O 	0.7576	0.25	0.625	-1.253
Mof_H 	H 	0.8157	0.25	0.625	0.376
Mof_O 	O 	0.2576	0.75	0.125	-1.196
Mof_H 	H 	0.3157	0.75	0.125	0.35
Mof_O 	O 	0.7424	0.25	0.125	-1.196
Mof_H 	H 	0.6843	0.25	0.125	0.349
Mof_O 	O 	0.2424	0.75	0.625	-1.254
Mof_H 	H 	0.1843	0.75	0.625	0.376
Mof_O 	O 	0.75	0.2576	0.875	-1.174
Mof_H 	H 	0.75	0.3157	0.875	0.372
Mof_O 	O 	0.25	0.7576	0.375	-1.236
Mof_H 	H 	0.25	0.8157	0.375	0.373
Mof_O 	O 	0.75	0.2424	0.375	-1.236
Mof_H 	H 	0.75	0.1843	0.375	0.371
Mof_O 	O 	0.25	0.7424	0.875	-1.174
Mof_H 	H 	0.25	0.6843	0.875	0.372
Mof_C 	C 	0.5	0.5	0.7108	0.166
Mof_C 	C 	0.5	0.5	0.93874	0.071
Mof_H 	H 	0.5	0.5	0.6255	-0.001
Mof_C 	C 	6.28064e-34	0	0.2108	0.144
Mof_C 	C 	1.30719e-33	0	0.43874	-0.096
Mof_H 	H 	-6.93677e-34	-1.0676e-33	0.1255	-0.022
Mof_C 	C 	0.5	0	0.9608	0.583
Mof_C 	C 	0.5	0	0.18874	-0.229
Mof_H 	H 	0.5	0	0.8755	-0.108
Mof_C 	C 	5.6433e-33	0.5	0.4608	0.189
Mof_C 	C 	-2.21833e-33	0.5	0.68874	-0.13
Mof_H 	H 	-1.01642e-33	0.5	0.3755	-0.016
Mof_C 	C 	4.65408e-33	0.5	0.0392	-0.265
Mof_C 	C 	-6.12367e-33	0.5	0.81126	0.081
Mof_H 	H 	5.70892e-33	0.5	0.1245	0.101
Mof_C 	C 	0.5	0	0.5392	0.147
Mof_C 	C 	0.5	2.13519e-33	0.31126	-0.036
Mof_H 	H 	0.5	-4.27038e-33	0.6245	0.002
Mof_C 	C 	-1.91902e-33	0	0.7892	0.132
Mof_C 	C 	-2.59815e-33	-4.27038e-33	0.56126	-0.087
Mof_H 	H 	2.60551e-33	0	0.8745	0.019
Mof_C 	C 	0.5	0.5	0.2892	0.207
Mof_C 	C 	0.5	0.5	0.06126	-0.205
Mof_H 	H 	0.5	0.5	0.3745	-0.014
_end
