data_functionalizedCrystal
_audit_creation_method	'EQeq! by Chris Wilmer'
_symmetry_space_group_name_H-M	'P1'
_symmetry_Int_Tables_number	1
_symmetry_cell_setting	triclinic
loop_
_symmetry_equiv_pos_as_xyz
  x,y,z
_cell_length_a	12.7287
_cell_length_b	12.7287
_cell_length_c	13.805
_cell_angle_alpha	67.793
_cell_angle_beta	65.5436
_cell_angle_gamma	98.1105
loop_
_atom_site_label
_atom_site_type_symbol
_atom_site_fract_x
_atom_site_fract_y
_atom_site_fract_z
_atom_site_charge
Mof_Mn	Mn	-3.22319e-17	0.5	0.5	0.929
Mof_Mn	Mn	0.5	0.5	-0	0.933
Mof_Mn	Mn	0.18662	0.43662	0.25	0.99
Mof_Mn	Mn	0.81338	0.56338	0.75	1.006
Mof_H 	H 	0.7377	0.1132	0.7227	0.053
Mof_H 	H 	0.6355	0.9087	0.8234	0.065
Mof_H 	H 	0.8482	0.8891	0.5275	0.053
Mof_H 	H 	0.9438	0.0957	0.4231	0.061
Mof_H 	H 	0.7538	0.6794	0.5208	0.034
Mof_H 	H 	0.6043	0.6795	0.4692	0.072
Mof_H 	H 	0.529	0.3255	0.5817	0.07
Mof_H 	H 	0.6829	0.3354	0.6249	0.032
Mof_H 	H 	0.3359	0.4604	0.7773	0.052
Mof_H 	H 	0.2321	0.4589	0.6766	0.055
Mof_H 	H 	0.9166	0.3757	0.9725	0.107
Mof_H 	H 	0.0188	0.3669	0.0769	-0.013
Mof_H 	H 	0.7002	0.2746	0.9792	0.051
Mof_H 	H 	0.6487	0.0735	0.0308	0.025
Mof_H 	H 	0.4072	0.1107	0.9183	0.068
Mof_H 	H 	0.4603	0.3078	0.8751	0.036
Mof_H 	H 	0.2623	0.8868	0.2773	0.052
Mof_H 	H 	0.3645	0.0913	0.1766	0.046
Mof_H 	H 	0.1518	0.1109	0.4725	0.044
Mof_H 	H 	0.0562	0.9043	0.5769	0.045
Mof_H 	H 	0.2462	0.3206	0.4792	0.029
Mof_H 	H 	0.3957	0.3205	0.5308	0.071
Mof_H 	H 	0.471	0.6745	0.4183	0.07
Mof_H 	H 	0.3171	0.6646	0.3751	0.032
Mof_H 	H 	0.6641	0.5396	0.2227	0.052
Mof_H 	H 	0.7679	0.5411	0.3234	0.057
Mof_H 	H 	0.0834	0.6243	0.0275	-0.015
Mof_H 	H 	0.9812	0.6331	0.9231	0.11
Mof_H 	H 	0.2998	0.7254	0.0208	0.011
Mof_H 	H 	0.3513	0.9265	0.9692	0.117
Mof_H 	H 	0.5928	0.8893	0.0817	0.073
Mof_H 	H 	0.5397	0.6922	0.1249	0.028
Mof_C 	C 	0.929	0.2594	0.4964	0.407
Mof_C 	C 	0.8561	0.127	0.5619	-0.086
Mof_C 	C 	0.7607	0.0684	0.6827	-0.011
Mof_C 	C 	0.7	0.9456	0.7432	-0.018
Mof_C 	C 	0.7325	0.8748	0.6879	-0.073
Mof_C 	C 	0.825	0.9337	0.5675	-0.013
Mof_C 	C 	0.884	0.0579	0.5051	-0.014
Mof_C 	C 	0.6743	0.7399	0.757	0.36
Mof_C 	C 	0.7073	0.6071	0.5334	0.063
Mof_C 	C 	0.618	0.6076	0.5014	-0.113
Mof_C 	C 	0.5479	0.502	0.5169	0.045
Mof_C 	C 	0.5742	0.3996	0.567	-0.116
Mof_C 	C 	0.6649	0.405	0.5951	0.059
Mof_C 	C 	0.2558	0.4254	0.0036	0.311
Mof_C 	C 	0.1889	0.418	0.9381	-0.08
Mof_C 	C 	0.2511	0.4434	0.8173	-0.012
Mof_C 	C 	0.1888	0.4432	0.7568	-0.023
Mof_C 	C 	0.0627	0.4204	0.8121	-0.081
Mof_C 	C 	0.0012	0.3925	0.9325	-0.115
Mof_C 	C 	0.063	0.3891	0.9949	0.083
Mof_C 	C 	0.9969	0.4313	0.743	0.418
Mof_C 	C 	0.6405	0.2407	0.9666	0.032
Mof_C 	C 	0.609	0.1194	0.9986	-0.037
Mof_C 	C 	0.5189	0.0648	0.9831	0.034
Mof_C 	C 	0.4666	0.1412	0.933	-0.101
Mof_C 	C 	0.5001	0.26	0.9049	0.054
Mof_C 	C 	0.071	0.7406	0.5036	0.325
Mof_C 	C 	0.1439	0.873	0.4381	-0.073
Mof_C 	C 	0.2393	0.9316	0.3173	-0.024
Mof_C 	C 	0.3	0.0544	0.2568	-0.018
Mof_C 	C 	0.2675	0.1252	0.3121	-0.086
Mof_C 	C 	0.175	0.0663	0.4325	-0.018
Mof_C 	C 	0.116	0.9421	0.4949	-0.027
Mof_C 	C 	0.3257	0.2601	0.243	0.363
Mof_C 	C 	0.2927	0.3929	0.4666	0.063
Mof_C 	C 	0.382	0.3924	0.4986	-0.114
Mof_C 	C 	0.4521	0.498	0.4831	0.045
Mof_C 	C 	0.4258	0.6004	0.433	-0.116
Mof_C 	C 	0.3351	0.595	0.4049	0.058
Mof_C 	C 	0.7442	0.5746	0.9964	0.416
Mof_C 	C 	0.8111	0.582	0.0619	-0.08
Mof_C 	C 	0.7489	0.5566	0.1827	-0.019
Mof_C 	C 	0.8112	0.5568	0.2432	-0.017
Mof_C 	C 	0.9373	0.5796	0.1879	-0.073
Mof_C 	C 	0.9988	0.6075	0.0675	0.086
Mof_C 	C 	0.937	0.6109	0.0051	-0.111
Mof_C 	C 	0.0031	0.5687	0.257	0.298
Mof_C 	C 	0.3595	0.7593	0.0334	0.094
Mof_C 	C 	0.391	0.8806	0.0014	-0.191
Mof_C 	C 	0.4811	0.9352	0.0169	0.056
Mof_C 	C 	0.5334	0.8588	0.067	-0.131
Mof_C 	C 	0.4999	0.74	0.0951	0.063
Mof_N 	N 	0.729	0.508	0.5808	-0.067
Mof_N 	N 	0.5888	0.3098	0.9192	-0.057
Mof_N 	N 	0.271	0.492	0.4192	-0.066
Mof_N 	N 	0.4112	0.6902	0.0808	-0.076
Mof_O 	O 	0.9075	0.3158	0.5573	-0.358
Mof_O 	O 	0.0084	0.3062	0.3856	-0.419
Mof_O 	O 	0.5828	0.6915	0.8627	-0.337
Mof_O 	O 	0.721	0.6829	0.7035	-0.377
Mof_O 	O 	0.8135	0.5093	0.6124	-0.271
Mof_O 	O 	0.3731	0.4648	0.9427	-0.324
Mof_O 	O 	0.1918	0.394	0.1144	-0.378
Mof_O 	O 	0.0542	0.4455	0.6373	-0.385
Mof_O 	O 	0.8864	0.4245	0.7965	-0.387
Mof_O 	O 	0.6217	0.4259	0.8876	-0.271
Mof_O 	O 	0.0925	0.6842	0.4427	-0.361
Mof_O 	O 	0.9916	0.6938	0.6144	-0.348
Mof_O 	O 	0.4172	0.3085	0.1373	-0.361
Mof_O 	O 	0.279	0.3171	0.2965	-0.381
Mof_O 	O 	0.1865	0.4907	0.3876	-0.28
Mof_O 	O 	0.6269	0.5352	0.0573	-0.393
Mof_O 	O 	0.8082	0.606	0.8856	-0.389
Mof_O 	O 	0.9458	0.5545	0.3627	-0.308
Mof_O 	O 	0.1136	0.5755	0.2035	-0.369
Mof_O 	O 	0.3783	0.5741	0.1124	-0.28
_end
