# CIF file generated by openbabel 3.1.0, see https://openbabel.org
data_I
_chemical_name_common 'image0'
_cell_length_a 12.463
_cell_length_b 12.463
_cell_length_c 12.463
_cell_angle_alpha 90
_cell_angle_beta 90
_cell_angle_gamma 90
_space_group_name_H-M_alt 'P 1'
_space_group_name_Hall 'P 1'
loop_
    _symmetry_equiv_pos_as_xyz
    x,y,z
loop_
    _atom_site_label
    _atom_site_type_symbol
    _atom_site_fract_x
    _atom_site_fract_y
    _atom_site_fract_z
    _atom_site_occupancy
    C1       C        0.69010    0.31920    0.95070    1.000
    C2       C        0.60230    0.26660    0.90630    1.000
    N1       N        0.56160    0.17500    0.95530    1.000
    C3       C        0.60870    0.13610    0.04860    1.000
    C4       C        0.69650    0.18870    0.09290    1.000
    N2       N        0.28030    0.04400    0.73720    1.000
    C5       C        0.80990    0.68080    0.45070    1.000
    C6       C        0.89770    0.73340    0.40630    1.000
    N3       N        0.93840    0.82500    0.45530    1.000
    C7       C        0.89130    0.86390    0.54860    1.000
    C8       C        0.80350    0.81130    0.59290    1.000
    N4       N        0.21970    0.95600    0.23720    1.000
    C9       C        0.30990    0.81920    0.54930    1.000
    C10      C        0.39770    0.76660    0.59370    1.000
    N5       N        0.43840    0.67500    0.54470    1.000
    C11      C        0.39130    0.63610    0.45140    1.000
    C12      C        0.30350    0.68870    0.40710    1.000
    N6       N        0.71970    0.54400    0.76280    1.000
    C13      C        0.19010    0.18080    0.04930    1.000
    C14      C        0.10230    0.23340    0.09370    1.000
    N7       N        0.06160    0.32500    0.04470    1.000
    C15      C        0.10870    0.36390    0.95140    1.000
    C16      C        0.19650    0.31130    0.90710    1.000
    N8       N        0.78030    0.45600    0.26280    1.000
    C17      C        0.95070    0.69010    0.31920    1.000
    C18      C        0.90630    0.60230    0.26660    1.000
    N9       N        0.95530    0.56160    0.17500    1.000
    C19      C        0.04860    0.60870    0.13610    1.000
    C20      C        0.09290    0.69650    0.18870    1.000
    N10      N        0.73720    0.28030    0.04400    1.000
    C21      C        0.45070    0.80990    0.68080    1.000
    C22      C        0.40630    0.89770    0.73340    1.000
    N11      N        0.45530    0.93840    0.82500    1.000
    C23      C        0.54860    0.89130    0.86390    1.000
    C24      C        0.59290    0.80350    0.81130    1.000
    N12      N        0.23720    0.21970    0.95600    1.000
    C25      C        0.54930    0.30990    0.81920    1.000
    C26      C        0.59370    0.39770    0.76660    1.000
    N13      N        0.54470    0.43840    0.67500    1.000
    C27      C        0.45140    0.39130    0.63610    1.000
    C28      C        0.40710    0.30350    0.68870    1.000
    N14      N        0.76280    0.71970    0.54400    1.000
    C29      C        0.04930    0.19010    0.18080    1.000
    C30      C        0.09370    0.10230    0.23340    1.000
    N15      N        0.04470    0.06160    0.32500    1.000
    C31      C        0.95140    0.10870    0.36390    1.000
    C32      C        0.90710    0.19650    0.31130    1.000
    N16      N        0.26280    0.78030    0.45600    1.000
    C33      C        0.31920    0.95070    0.69010    1.000
    C34      C        0.26660    0.90630    0.60230    1.000
    N17      N        0.17500    0.95530    0.56160    1.000
    C35      C        0.13610    0.04860    0.60870    1.000
    C36      C        0.18870    0.09290    0.69650    1.000
    N18      N        0.04400    0.73720    0.28030    1.000
    C37      C        0.68080    0.45070    0.80990    1.000
    C38      C        0.73340    0.40630    0.89770    1.000
    N19      N        0.82500    0.45530    0.93840    1.000
    C39      C        0.86390    0.54860    0.89130    1.000
    C40      C        0.81130    0.59290    0.80350    1.000
    N20      N        0.95600    0.23720    0.21970    1.000
    C41      C        0.81920    0.54930    0.30990    1.000
    C42      C        0.76660    0.59370    0.39770    1.000
    N21      N        0.67500    0.54470    0.43840    1.000
    C43      C        0.63610    0.45140    0.39130    1.000
    C44      C        0.68870    0.40710    0.30350    1.000
    N22      N        0.54400    0.76280    0.71970    1.000
    C45      C        0.18080    0.04930    0.19010    1.000
    C46      C        0.23340    0.09370    0.10230    1.000
    N23      N        0.32500    0.04470    0.06160    1.000
    C47      C        0.36390    0.95140    0.10870    1.000
    C48      C        0.31130    0.90710    0.19650    1.000
    N24      N        0.45600    0.26280    0.78030    1.000
    Ag1      Ag       0.38770    0.11230    0.88770    1.000
    Ag2      Ag       0.11230    0.88770    0.38770    1.000
    Ag3      Ag       0.61230    0.61230    0.61230    1.000
    Ag4      Ag       0.88770    0.38770    0.11230    1.000
