data_functionalizedCrystal
_audit_creation_method	'EQeq! by Chris Wilmer'
_symmetry_space_group_name_H-M	'P1'
_symmetry_Int_Tables_number	1
_symmetry_cell_setting	triclinic
loop_
_symmetry_equiv_pos_as_xyz
  x,y,z
_cell_length_a	8.266
_cell_length_b	12.874
_cell_length_c	15.7062
_cell_angle_alpha	114.195
_cell_angle_beta	96.6165
_cell_angle_gamma	90
loop_
_atom_site_label
_atom_site_type_symbol
_atom_site_fract_x
_atom_site_fract_y
_atom_site_fract_z
_atom_site_charge
Mof_Co	Co	0.93339	0.38279	0.49484	1.13
Mof_Co	Co	0.54361	0.38084	0.49186	1.14
Mof_Co	Co	0.85619	0.25386	0.27218	1.153
Mof_Co	Co	0.56661	0.88795	0.50516	1.13
Mof_Co	Co	0.95639	0.88898	0.50814	1.139
Mof_Co	Co	0.64381	0.98168	0.72782	1.151
Mof_Co	Co	0.06661	0.61721	0.50516	1.131
Mof_Co	Co	0.45639	0.61916	0.50814	1.141
Mof_Co	Co	0.14381	0.74614	0.72782	1.153
Mof_Co	Co	0.43339	0.11205	0.49484	1.13
Mof_Co	Co	0.04361	0.11102	0.49186	1.139
Mof_Co	Co	0.35619	0.01832	0.27218	1.151
Mof_P 	P 	0.7238	0.48953	0.3703	0.589
Mof_P 	P 	0.2052	0.22622	0.37252	0.552
Mof_P 	P 	0.7762	0.11923	0.6297	0.589
Mof_P 	P 	0.2948	0.8537	0.62748	0.552
Mof_P 	P 	0.2762	0.51047	0.6297	0.589
Mof_P 	P 	0.7948	0.77378	0.62748	0.552
Mof_P 	P 	0.2238	0.88077	0.3703	0.589
Mof_P 	P 	0.7052	0.1463	0.37252	0.552
Mof_H 	H 	0.6647	0.6401	0.3804	0.265
Mof_H 	H 	0.0863	0.2401	0.1726	0.135
Mof_H 	H 	0.9779	0.1541	0.0226	0.004
Mof_H 	H 	0.7174	0.2936	0.0944	0.077
Mof_H 	H 	0.8658	0.3312	0.0576	0.083
Mof_H 	H 	0.8589	0.0151	0.061	0.076
Mof_H 	H 	0.7099	0.0914	0.0932	0.06
Mof_H 	H 	0.8353	0.2597	0.6196	0.266
Mof_H 	H 	0.4137	0.0675	0.8274	0.135
Mof_H 	H 	0.5221	0.1315	0.9774	0.019
Mof_H 	H 	0.7826	0.1992	0.9056	0.064
Mof_H 	H 	0.6342	0.2736	0.9424	0.067
Mof_H 	H 	0.6411	0.9541	0.939	0.038
Mof_H 	H 	0.7901	0.9982	0.9068	0.025
Mof_H 	H 	0.3353	0.3599	0.6196	0.265
Mof_H 	H 	0.9137	0.7599	0.8274	0.135
Mof_H 	H 	0.0221	0.8459	0.9774	0.004
Mof_H 	H 	0.2826	0.7064	0.9056	0.077
Mof_H 	H 	0.1342	0.6688	0.9424	0.083
Mof_H 	H 	0.1411	0.9849	0.939	0.076
Mof_H 	H 	0.2901	0.9086	0.9068	0.06
Mof_H 	H 	0.1647	0.7403	0.3804	0.266
Mof_H 	H 	0.5863	0.9325	0.1726	0.135
Mof_H 	H 	0.4779	0.8685	0.0226	0.019
Mof_H 	H 	0.2174	0.8008	0.0944	0.064
Mof_H 	H 	0.3658	0.7264	0.0576	0.067
Mof_H 	H 	0.3589	0.0459	0.061	0.038
Mof_H 	H 	0.2099	0.0018	0.0932	0.025
Mof_C 	C 	0.8964	0.177	0.0666	0.084
Mof_C 	C 	0.795	0.2667	0.0492	-0.172
Mof_C 	C 	0.7912	0.0709	0.0498	-0.184
Mof_C 	C 	0.6036	0.1104	0.9334	0.036
Mof_C 	C 	0.705	0.2175	0.9508	-0.118
Mof_C 	C 	0.7088	0.0211	0.9502	-0.076
Mof_C 	C 	0.1036	0.823	0.9334	0.084
Mof_C 	C 	0.205	0.7333	0.9508	-0.172
Mof_C 	C 	0.2088	0.9291	0.9502	-0.184
Mof_C 	C 	0.3964	0.8896	0.0666	0.036
Mof_C 	C 	0.295	0.7825	0.0492	-0.118
Mof_C 	C 	0.2912	0.9789	0.0498	-0.076
Mof_N 	N 	0.9828	0.2247	0.163	-0.323
Mof_N 	N 	0.5172	0.0617	0.837	-0.317
Mof_N 	N 	0.0172	0.7753	0.837	-0.323
Mof_N 	N 	0.4828	0.9383	0.163	-0.317
Mof_O 	O 	0.5783	0.48595	0.4207	-0.569
Mof_O 	O 	0.8824	0.4964	0.4332	-0.606
Mof_O 	O 	0.7205	0.3803	0.2816	-0.455
Mof_O 	O 	0.7187	0.5912	0.3452	-0.479
Mof_O 	O 	0.0365	0.27661	0.37602	-0.581
Mof_O 	O 	0.2217	0.1576	0.4328	-0.623
Mof_O 	O 	0.333	0.3218	0.4062	-0.465
Mof_O 	O 	0.2236	0.1458	0.2712	-0.461
Mof_O 	O 	0.0084	0.2888	0.5734	-0.453
Mof_O 	O 	0.9217	0.06525	0.5793	-0.566
Mof_O 	O 	0.6176	0.0632	0.5668	-0.606
Mof_O 	O 	0.7795	0.0987	0.7184	-0.451
Mof_O 	O 	0.7813	0.246	0.6548	-0.478
Mof_O 	O 	0.4635	0.90059	0.62398	-0.58
Mof_O 	O 	0.2783	0.7248	0.5672	-0.622
Mof_O 	O 	0.167	0.9156	0.5938	-0.463
Mof_O 	O 	0.2764	0.8746	0.7288	-0.461
Mof_O 	O 	0.4916	0.7154	0.4266	-0.451
Mof_O 	O 	0.4217	0.51405	0.5793	-0.569
Mof_O 	O 	0.1176	0.5036	0.5668	-0.606
Mof_O 	O 	0.2795	0.6197	0.7184	-0.455
Mof_O 	O 	0.2813	0.4088	0.6548	-0.479
Mof_O 	O 	0.9635	0.72339	0.62398	-0.581
Mof_O 	O 	0.7783	0.8424	0.5672	-0.623
Mof_O 	O 	0.667	0.6782	0.5938	-0.465
Mof_O 	O 	0.7764	0.8542	0.7288	-0.461
Mof_O 	O 	0.9916	0.7112	0.4266	-0.453
Mof_O 	O 	0.0783	0.93475	0.4207	-0.566
Mof_O 	O 	0.3824	0.9368	0.4332	-0.606
Mof_O 	O 	0.2205	0.9013	0.2816	-0.451
Mof_O 	O 	0.2187	0.754	0.3452	-0.478
Mof_O 	O 	0.5365	0.09941	0.37602	-0.58
Mof_O 	O 	0.7217	0.2752	0.4328	-0.622
Mof_O 	O 	0.833	0.0844	0.4062	-0.463
Mof_O 	O 	0.7236	0.1254	0.2712	-0.461
Mof_O 	O 	0.5084	0.2846	0.5734	-0.451
_end
