# CIF file generated by openbabel 3.1.0, see https://openbabel.org
data_I
_chemical_name_common 'image0'
_cell_length_a 29.372
_cell_length_b 15.784
_cell_length_c 19.14
_cell_angle_alpha 90
_cell_angle_beta 107.16
_cell_angle_gamma 90
_space_group_name_H-M_alt 'P 1'
_space_group_name_Hall 'P 1'
loop_
    _symmetry_equiv_pos_as_xyz
    x,y,z
loop_
    _atom_site_label
    _atom_site_type_symbol
    _atom_site_fract_x
    _atom_site_fract_y
    _atom_site_fract_z
    _atom_site_occupancy
    Zn1      Zn       0.74047    0.82928    0.53567    1.000
    Zn2      Zn       0.58477    0.81496    0.79837    1.000
    Zn3      Zn       0.51353    0.89549    0.82074    1.000
    O1       O        0.55530    0.28880    0.36280    1.000
    O2       O        0.53710    0.16800    0.41070    1.000
    O3       O        0.58120    0.74990    0.70380    1.000
    O4       O        0.53906    0.63460    0.70670    1.000
    O5       O        0.69117    0.74840    0.55440    1.000
    O6       O        0.70541    0.63040    0.50220    1.000
    O7       O        0.71104    0.26820    0.88283    1.000
    O8       O        0.69525    0.15030    0.93461    1.000
    O9       O        0.56370    0.96950    0.81150    1.000
    O10      O        0.53650    0.97550    0.68140    1.000
    C1       C        0.60086    0.40460    0.57040    1.000
    C2       C        0.60594    0.35050    0.63060    1.000
    H1       H        0.61330    0.37340    0.67740    1.000
    C3       C        0.60015    0.26350    0.62170    1.000
    C4       C        0.58670    0.23050    0.55020    1.000
    H2       H        0.58200    0.17250    0.54300    1.000
    C5       C        0.58030    0.28350    0.49050    1.000
    C6       C        0.58810    0.37040    0.50100    1.000
    H3       H        0.58480    0.40560    0.46080    1.000
    C7       C        0.60834    0.49800    0.58270    1.000
    C8       C        0.58642    0.54150    0.62630    1.000
    H4       H        0.56630    0.51260    0.64760    1.000
    C9       C        0.59377    0.62810    0.63890    1.000
    C10      C        0.62551    0.66940    0.61020    1.000
    H5       H        0.63140    0.72680    0.61970    1.000
    C11      C        0.64878    0.62670    0.56740    1.000
    C12      C        0.63937    0.54060    0.55270    1.000
    H6       H        0.65400    0.51190    0.52270    1.000
    C13      C        0.60944    0.20660    0.68700    1.000
    C14      C        0.64271    0.22700    0.75020    1.000
    H7       H        0.65960    0.27740    0.75290    1.000
    C15      C        0.65235    0.17460    0.81130    1.000
    C16      C        0.62730    0.10020    0.80730    1.000
    H8       H        0.63380    0.06420    0.84750    1.000
    C17      C        0.59270    0.07910    0.74390    1.000
    C18      C        0.58430    0.13120    0.68350    1.000
    H9       H        0.56160    0.11590    0.64010    1.000
    C19      C        0.55430    0.24440    0.41420    1.000
    C20      C        0.56857    0.67500    0.68470    1.000
    C21      C        0.68485    0.67270    0.53880    1.000
    C22      C        0.68899    0.20030    0.88200    1.000
    C23      C        0.55660    0.00760    0.75120    1.000
    Zn4      Zn       0.51025    0.70113    0.76106    1.000
    O11      O        0.57600    0.30500    0.36430    1.000
    O12      O        0.58550    0.17560    0.40960    1.000
    O13      O        0.56050    0.75540    0.66970    1.000
    O14      O        0.59000    0.93960    0.78050    1.000
    O15      O        0.51590    0.00730    0.70330    1.000
    C24      C        0.58450    0.25390    0.41850    1.000
    C25      C        0.57430    0.98840    0.73180    1.000
    Zn5      Zn       0.24047    0.32928    0.53567    1.000
    Zn6      Zn       0.08477    0.31496    0.79837    1.000
    Zn7      Zn       0.01353    0.39549    0.82074    1.000
    O16      O        0.05530    0.78880    0.36280    1.000
    O17      O        0.03710    0.66800    0.41070    1.000
    O18      O        0.08120    0.24990    0.70380    1.000
    O19      O        0.03906    0.13460    0.70670    1.000
    O20      O        0.19117    0.24840    0.55440    1.000
    O21      O        0.20541    0.13040    0.50220    1.000
    O22      O        0.21104    0.76820    0.88283    1.000
    O23      O        0.19525    0.65030    0.93461    1.000
    O24      O        0.06370    0.46950    0.81150    1.000
    O25      O        0.03650    0.47550    0.68140    1.000
    C26      C        0.10086    0.90460    0.57040    1.000
    C27      C        0.10594    0.85050    0.63060    1.000
    H10      H        0.11330    0.87340    0.67740    1.000
    C28      C        0.10015    0.76350    0.62170    1.000
    C29      C        0.08670    0.73050    0.55020    1.000
    H11      H        0.08200    0.67250    0.54300    1.000
    C30      C        0.08030    0.78350    0.49050    1.000
    C31      C        0.08810    0.87040    0.50100    1.000
    H12      H        0.08480    0.90560    0.46080    1.000
    C32      C        0.10834    0.99800    0.58270    1.000
    C33      C        0.08642    0.04150    0.62630    1.000
    H13      H        0.06630    0.01260    0.64760    1.000
    C34      C        0.09377    0.12810    0.63890    1.000
    C35      C        0.12551    0.16940    0.61020    1.000
    H14      H        0.13140    0.22680    0.61970    1.000
    C36      C        0.14878    0.12670    0.56740    1.000
    C37      C        0.13937    0.04060    0.55270    1.000
    H15      H        0.15400    0.01190    0.52270    1.000
    C38      C        0.10944    0.70660    0.68700    1.000
    C39      C        0.14271    0.72700    0.75020    1.000
    H16      H        0.15960    0.77740    0.75290    1.000
    C40      C        0.15235    0.67460    0.81130    1.000
    C41      C        0.12730    0.60020    0.80730    1.000
    H17      H        0.13380    0.56420    0.84750    1.000
    C42      C        0.09270    0.57910    0.74390    1.000
    C43      C        0.08430    0.63120    0.68350    1.000
    H18      H        0.06160    0.61590    0.64010    1.000
    C44      C        0.05430    0.74440    0.41420    1.000
    C45      C        0.06857    0.17500    0.68470    1.000
    C46      C        0.18485    0.17270    0.53880    1.000
    C47      C        0.18899    0.70030    0.88200    1.000
    C48      C        0.05660    0.50760    0.75120    1.000
    Zn8      Zn       0.01025    0.20113    0.76106    1.000
    O26      O        0.07600    0.80500    0.36430    1.000
    O27      O        0.08550    0.67560    0.40960    1.000
    O28      O        0.06050    0.25540    0.66970    1.000
    O29      O        0.09000    0.43960    0.78050    1.000
    O30      O        0.01590    0.50730    0.70330    1.000
    C49      C        0.08450    0.75390    0.41850    1.000
    C50      C        0.07430    0.48840    0.73180    1.000
    Zn9      Zn       0.25953    0.82928    0.96433    1.000
    Zn10     Zn       0.41523    0.81496    0.70163    1.000
    Zn11     Zn       0.48647    0.89549    0.67926    1.000
    O31      O        0.44470    0.28880    0.13720    1.000
    O32      O        0.46290    0.16800    0.08930    1.000
    O33      O        0.41880    0.74990    0.79620    1.000
    O34      O        0.46094    0.63460    0.79330    1.000
    O35      O        0.30883    0.74840    0.94560    1.000
    O36      O        0.29459    0.63040    0.99780    1.000
    O37      O        0.28896    0.26820    0.61717    1.000
    O38      O        0.30475    0.15030    0.56539    1.000
    O39      O        0.43630    0.96950    0.68850    1.000
    O40      O        0.46350    0.97550    0.81860    1.000
    C51      C        0.39914    0.40460    0.92960    1.000
    C52      C        0.39406    0.35050    0.86940    1.000
    H19      H        0.38670    0.37340    0.82260    1.000
    C53      C        0.39985    0.26350    0.87830    1.000
    C54      C        0.41330    0.23050    0.94980    1.000
    H20      H        0.41800    0.17250    0.95700    1.000
    C55      C        0.41970    0.28350    0.00950    1.000
    C56      C        0.41190    0.37040    0.99900    1.000
    H21      H        0.41520    0.40560    0.03920    1.000
    C57      C        0.39166    0.49800    0.91730    1.000
    C58      C        0.41358    0.54150    0.87370    1.000
    H22      H        0.43370    0.51260    0.85240    1.000
    C59      C        0.40623    0.62810    0.86110    1.000
    C60      C        0.37449    0.66940    0.88980    1.000
    H23      H        0.36860    0.72680    0.88030    1.000
    C61      C        0.35122    0.62670    0.93260    1.000
    C62      C        0.36063    0.54060    0.94730    1.000
    H24      H        0.34600    0.51190    0.97730    1.000
    C63      C        0.39056    0.20660    0.81300    1.000
    C64      C        0.35729    0.22700    0.74980    1.000
    H25      H        0.34040    0.27740    0.74710    1.000
    C65      C        0.34765    0.17460    0.68870    1.000
    C66      C        0.37270    0.10020    0.69270    1.000
    H26      H        0.36620    0.06420    0.65250    1.000
    C67      C        0.40730    0.07910    0.75610    1.000
    C68      C        0.41570    0.13120    0.81650    1.000
    H27      H        0.43840    0.11590    0.85990    1.000
    C69      C        0.44570    0.24440    0.08580    1.000
    C70      C        0.43143    0.67500    0.81530    1.000
    C71      C        0.31515    0.67270    0.96120    1.000
    C72      C        0.31101    0.20030    0.61800    1.000
    C73      C        0.44340    0.00760    0.74880    1.000
    Zn12     Zn       0.48975    0.70113    0.73894    1.000
    O41      O        0.42400    0.30500    0.13570    1.000
    O42      O        0.41450    0.17560    0.09040    1.000
    O43      O        0.43950    0.75540    0.83030    1.000
    O44      O        0.41000    0.93960    0.71950    1.000
    O45      O        0.48410    0.00730    0.79670    1.000
    C74      C        0.41550    0.25390    0.08150    1.000
    C75      C        0.42570    0.98840    0.76820    1.000
    Zn13     Zn       0.75953    0.32928    0.96433    1.000
    Zn14     Zn       0.91523    0.31496    0.70163    1.000
    Zn15     Zn       0.98647    0.39549    0.67926    1.000
    O46      O        0.94470    0.78880    0.13720    1.000
    O47      O        0.96290    0.66800    0.08930    1.000
    O48      O        0.91880    0.24990    0.79620    1.000
    O49      O        0.96094    0.13460    0.79330    1.000
    O50      O        0.80883    0.24840    0.94560    1.000
    O51      O        0.79459    0.13040    0.99780    1.000
    O52      O        0.78896    0.76820    0.61717    1.000
    O53      O        0.80475    0.65030    0.56539    1.000
    O54      O        0.93630    0.46950    0.68850    1.000
    O55      O        0.96350    0.47550    0.81860    1.000
    C76      C        0.89914    0.90460    0.92960    1.000
    C77      C        0.89406    0.85050    0.86940    1.000
    H28      H        0.88670    0.87340    0.82260    1.000
    C78      C        0.89985    0.76350    0.87830    1.000
    C79      C        0.91330    0.73050    0.94980    1.000
    H29      H        0.91800    0.67250    0.95700    1.000
    C80      C        0.91970    0.78350    0.00950    1.000
    C81      C        0.91190    0.87040    0.99900    1.000
    H30      H        0.91520    0.90560    0.03920    1.000
    C82      C        0.89166    0.99800    0.91730    1.000
    C83      C        0.91358    0.04150    0.87370    1.000
    H31      H        0.93370    0.01260    0.85240    1.000
    C84      C        0.90623    0.12810    0.86110    1.000
    C85      C        0.87449    0.16940    0.88980    1.000
    H32      H        0.86860    0.22680    0.88030    1.000
    C86      C        0.85122    0.12670    0.93260    1.000
    C87      C        0.86063    0.04060    0.94730    1.000
    H33      H        0.84600    0.01190    0.97730    1.000
    C88      C        0.89056    0.70660    0.81300    1.000
    C89      C        0.85729    0.72700    0.74980    1.000
    H34      H        0.84040    0.77740    0.74710    1.000
    C90      C        0.84765    0.67460    0.68870    1.000
    C91      C        0.87270    0.60020    0.69270    1.000
    H35      H        0.86620    0.56420    0.65250    1.000
    C92      C        0.90730    0.57910    0.75610    1.000
    C93      C        0.91570    0.63120    0.81650    1.000
    H36      H        0.93840    0.61590    0.85990    1.000
    C94      C        0.94570    0.74440    0.08580    1.000
    C95      C        0.93143    0.17500    0.81530    1.000
    C96      C        0.81515    0.17270    0.96120    1.000
    C97      C        0.81101    0.70030    0.61800    1.000
    C98      C        0.94340    0.50760    0.74880    1.000
    Zn16     Zn       0.98975    0.20113    0.73894    1.000
    O56      O        0.92400    0.80500    0.13570    1.000
    O57      O        0.91450    0.67560    0.09040    1.000
    O58      O        0.93950    0.25540    0.83030    1.000
    O59      O        0.91000    0.43960    0.71950    1.000
    O60      O        0.98410    0.50730    0.79670    1.000
    C99      C        0.91550    0.75390    0.08150    1.000
    C100     C        0.92570    0.48840    0.76820    1.000
    Zn17     Zn       0.25953    0.17072    0.46433    1.000
    Zn18     Zn       0.41523    0.18504    0.20163    1.000
    Zn19     Zn       0.48647    0.10451    0.17926    1.000
    O61      O        0.44470    0.71120    0.63720    1.000
    O62      O        0.46290    0.83200    0.58930    1.000
    O63      O        0.41880    0.25010    0.29620    1.000
    O64      O        0.46094    0.36540    0.29330    1.000
    O65      O        0.30883    0.25160    0.44560    1.000
    O66      O        0.29459    0.36960    0.49780    1.000
    O67      O        0.28896    0.73180    0.11717    1.000
    O68      O        0.30475    0.84970    0.06539    1.000
    O69      O        0.43630    0.03050    0.18850    1.000
    O70      O        0.46350    0.02450    0.31860    1.000
    C101     C        0.39914    0.59540    0.42960    1.000
    C102     C        0.39406    0.64950    0.36940    1.000
    H37      H        0.38670    0.62660    0.32260    1.000
    C103     C        0.39985    0.73650    0.37830    1.000
    C104     C        0.41330    0.76950    0.44980    1.000
    H38      H        0.41800    0.82750    0.45700    1.000
    C105     C        0.41970    0.71650    0.50950    1.000
    C106     C        0.41190    0.62960    0.49900    1.000
    H39      H        0.41520    0.59440    0.53920    1.000
    C107     C        0.39166    0.50200    0.41730    1.000
    C108     C        0.41358    0.45850    0.37370    1.000
    H40      H        0.43370    0.48740    0.35240    1.000
    C109     C        0.40623    0.37190    0.36110    1.000
    C110     C        0.37449    0.33060    0.38980    1.000
    H41      H        0.36860    0.27320    0.38030    1.000
    C111     C        0.35122    0.37330    0.43260    1.000
    C112     C        0.36063    0.45940    0.44730    1.000
    H42      H        0.34600    0.48810    0.47730    1.000
    C113     C        0.39056    0.79340    0.31300    1.000
    C114     C        0.35729    0.77300    0.24980    1.000
    H43      H        0.34040    0.72260    0.24710    1.000
    C115     C        0.34765    0.82540    0.18870    1.000
    C116     C        0.37270    0.89980    0.19270    1.000
    H44      H        0.36620    0.93580    0.15250    1.000
    C117     C        0.40730    0.92090    0.25610    1.000
    C118     C        0.41570    0.86880    0.31650    1.000
    H45      H        0.43840    0.88410    0.35990    1.000
    C119     C        0.44570    0.75560    0.58580    1.000
    C120     C        0.43143    0.32500    0.31530    1.000
    C121     C        0.31515    0.32730    0.46120    1.000
    C122     C        0.31101    0.79970    0.11800    1.000
    C123     C        0.44340    0.99240    0.24880    1.000
    Zn20     Zn       0.48975    0.29887    0.23894    1.000
    O71      O        0.42400    0.69500    0.63570    1.000
    O72      O        0.41450    0.82440    0.59040    1.000
    O73      O        0.43950    0.24460    0.33030    1.000
    O74      O        0.41000    0.06040    0.21950    1.000
    O75      O        0.48410    0.99270    0.29670    1.000
    C124     C        0.41550    0.74610    0.58150    1.000
    C125     C        0.42570    0.01160    0.26820    1.000
    Zn21     Zn       0.75953    0.67072    0.46433    1.000
    Zn22     Zn       0.91523    0.68504    0.20163    1.000
    Zn23     Zn       0.98647    0.60451    0.17926    1.000
    O76      O        0.94470    0.21120    0.63720    1.000
    O77      O        0.96290    0.33200    0.58930    1.000
    O78      O        0.91880    0.75010    0.29620    1.000
    O79      O        0.96094    0.86540    0.29330    1.000
    O80      O        0.80883    0.75160    0.44560    1.000
    O81      O        0.79459    0.86960    0.49780    1.000
    O82      O        0.78896    0.23180    0.11717    1.000
    O83      O        0.80475    0.34970    0.06539    1.000
    O84      O        0.93630    0.53050    0.18850    1.000
    O85      O        0.96350    0.52450    0.31860    1.000
    C126     C        0.89914    0.09540    0.42960    1.000
    C127     C        0.89406    0.14950    0.36940    1.000
    H46      H        0.88670    0.12660    0.32260    1.000
    C128     C        0.89985    0.23650    0.37830    1.000
    C129     C        0.91330    0.26950    0.44980    1.000
    H47      H        0.91800    0.32750    0.45700    1.000
    C130     C        0.91970    0.21650    0.50950    1.000
    C131     C        0.91190    0.12960    0.49900    1.000
    H48      H        0.91520    0.09440    0.53920    1.000
    C132     C        0.89166    0.00200    0.41730    1.000
    C133     C        0.91358    0.95850    0.37370    1.000
    H49      H        0.93370    0.98740    0.35240    1.000
    C134     C        0.90623    0.87190    0.36110    1.000
    C135     C        0.87449    0.83060    0.38980    1.000
    H50      H        0.86860    0.77320    0.38030    1.000
    C136     C        0.85122    0.87330    0.43260    1.000
    C137     C        0.86063    0.95940    0.44730    1.000
    H51      H        0.84600    0.98810    0.47730    1.000
    C138     C        0.89056    0.29340    0.31300    1.000
    C139     C        0.85729    0.27300    0.24980    1.000
    H52      H        0.84040    0.22260    0.24710    1.000
    C140     C        0.84765    0.32540    0.18870    1.000
    C141     C        0.87270    0.39980    0.19270    1.000
    H53      H        0.86620    0.43580    0.15250    1.000
    C142     C        0.90730    0.42090    0.25610    1.000
    C143     C        0.91570    0.36880    0.31650    1.000
    H54      H        0.93840    0.38410    0.35990    1.000
    C144     C        0.94570    0.25560    0.58580    1.000
    C145     C        0.93143    0.82500    0.31530    1.000
    C146     C        0.81515    0.82730    0.46120    1.000
    C147     C        0.81101    0.29970    0.11800    1.000
    C148     C        0.94340    0.49240    0.24880    1.000
    Zn24     Zn       0.98975    0.79887    0.23894    1.000
    O86      O        0.92400    0.19500    0.63570    1.000
    O87      O        0.91450    0.32440    0.59040    1.000
    O88      O        0.93950    0.74460    0.33030    1.000
    O89      O        0.91000    0.56040    0.21950    1.000
    O90      O        0.98410    0.49270    0.29670    1.000
    C149     C        0.91550    0.24610    0.58150    1.000
    C150     C        0.92570    0.51160    0.26820    1.000
    Zn25     Zn       0.74047    0.17072    0.03567    1.000
    Zn26     Zn       0.58477    0.18504    0.29837    1.000
    Zn27     Zn       0.51353    0.10451    0.32074    1.000
    O91      O        0.55530    0.71120    0.86280    1.000
    O92      O        0.53710    0.83200    0.91070    1.000
    O93      O        0.58120    0.25010    0.20380    1.000
    O94      O        0.53906    0.36540    0.20670    1.000
    O95      O        0.69117    0.25160    0.05440    1.000
    O96      O        0.70541    0.36960    0.00220    1.000
    O97      O        0.71104    0.73180    0.38283    1.000
    O98      O        0.69525    0.84970    0.43461    1.000
    O99      O        0.56370    0.03050    0.31150    1.000
    O100     O        0.53650    0.02450    0.18140    1.000
    C151     C        0.60086    0.59540    0.07040    1.000
    C152     C        0.60594    0.64950    0.13060    1.000
    H55      H        0.61330    0.62660    0.17740    1.000
    C153     C        0.60015    0.73650    0.12170    1.000
    C154     C        0.58670    0.76950    0.05020    1.000
    H56      H        0.58200    0.82750    0.04300    1.000
    C155     C        0.58030    0.71650    0.99050    1.000
    C156     C        0.58810    0.62960    0.00100    1.000
    H57      H        0.58480    0.59440    0.96080    1.000
    C157     C        0.60834    0.50200    0.08270    1.000
    C158     C        0.58642    0.45850    0.12630    1.000
    H58      H        0.56630    0.48740    0.14760    1.000
    C159     C        0.59377    0.37190    0.13890    1.000
    C160     C        0.62551    0.33060    0.11020    1.000
    H59      H        0.63140    0.27320    0.11970    1.000
    C161     C        0.64878    0.37330    0.06740    1.000
    C162     C        0.63937    0.45940    0.05270    1.000
    H60      H        0.65400    0.48810    0.02270    1.000
    C163     C        0.60944    0.79340    0.18700    1.000
    C164     C        0.64271    0.77300    0.25020    1.000
    H61      H        0.65960    0.72260    0.25290    1.000
    C165     C        0.65235    0.82540    0.31130    1.000
    C166     C        0.62730    0.89980    0.30730    1.000
    H62      H        0.63380    0.93580    0.34750    1.000
    C167     C        0.59270    0.92090    0.24390    1.000
    C168     C        0.58430    0.86880    0.18350    1.000
    H63      H        0.56160    0.88410    0.14010    1.000
    C169     C        0.55430    0.75560    0.91420    1.000
    C170     C        0.56857    0.32500    0.18470    1.000
    C171     C        0.68485    0.32730    0.03880    1.000
    C172     C        0.68899    0.79970    0.38200    1.000
    C173     C        0.55660    0.99240    0.25120    1.000
    Zn28     Zn       0.51025    0.29887    0.26106    1.000
    O101     O        0.57600    0.69500    0.86430    1.000
    O102     O        0.58550    0.82440    0.90960    1.000
    O103     O        0.56050    0.24460    0.16970    1.000
    O104     O        0.59000    0.06040    0.28050    1.000
    O105     O        0.51590    0.99270    0.20330    1.000
    C174     C        0.58450    0.74610    0.91850    1.000
    C175     C        0.57430    0.01160    0.23180    1.000
    Zn29     Zn       0.24047    0.67072    0.03567    1.000
    Zn30     Zn       0.08477    0.68504    0.29837    1.000
    Zn31     Zn       0.01353    0.60451    0.32074    1.000
    O106     O        0.05530    0.21120    0.86280    1.000
    O107     O        0.03710    0.33200    0.91070    1.000
    O108     O        0.08120    0.75010    0.20380    1.000
    O109     O        0.03906    0.86540    0.20670    1.000
    O110     O        0.19117    0.75160    0.05440    1.000
    O111     O        0.20541    0.86960    0.00220    1.000
    O112     O        0.21104    0.23180    0.38283    1.000
    O113     O        0.19525    0.34970    0.43461    1.000
    O114     O        0.06370    0.53050    0.31150    1.000
    O115     O        0.03650    0.52450    0.18140    1.000
    C176     C        0.10086    0.09540    0.07040    1.000
    C177     C        0.10594    0.14950    0.13060    1.000
    H64      H        0.11330    0.12660    0.17740    1.000
    C178     C        0.10015    0.23650    0.12170    1.000
    C179     C        0.08670    0.26950    0.05020    1.000
    H65      H        0.08200    0.32750    0.04300    1.000
    C180     C        0.08030    0.21650    0.99050    1.000
    C181     C        0.08810    0.12960    0.00100    1.000
    H66      H        0.08480    0.09440    0.96080    1.000
    C182     C        0.10834    0.00200    0.08270    1.000
    C183     C        0.08642    0.95850    0.12630    1.000
    H67      H        0.06630    0.98740    0.14760    1.000
    C184     C        0.09377    0.87190    0.13890    1.000
    C185     C        0.12551    0.83060    0.11020    1.000
    H68      H        0.13140    0.77320    0.11970    1.000
    C186     C        0.14878    0.87330    0.06740    1.000
    C187     C        0.13937    0.95940    0.05270    1.000
    H69      H        0.15400    0.98810    0.02270    1.000
    C188     C        0.10944    0.29340    0.18700    1.000
    C189     C        0.14271    0.27300    0.25020    1.000
    H70      H        0.15960    0.22260    0.25290    1.000
    C190     C        0.15235    0.32540    0.31130    1.000
    C191     C        0.12730    0.39980    0.30730    1.000
    H71      H        0.13380    0.43580    0.34750    1.000
    C192     C        0.09270    0.42090    0.24390    1.000
    C193     C        0.08430    0.36880    0.18350    1.000
    H72      H        0.06160    0.38410    0.14010    1.000
    C194     C        0.05430    0.25560    0.91420    1.000
    C195     C        0.06857    0.82500    0.18470    1.000
    C196     C        0.18485    0.82730    0.03880    1.000
    C197     C        0.18899    0.29970    0.38200    1.000
    C198     C        0.05660    0.49240    0.25120    1.000
    Zn32     Zn       0.01025    0.79887    0.26106    1.000
    O116     O        0.07600    0.19500    0.86430    1.000
    O117     O        0.08550    0.32440    0.90960    1.000
    O118     O        0.06050    0.74460    0.16970    1.000
    O119     O        0.09000    0.56040    0.28050    1.000
    O120     O        0.01590    0.49270    0.20330    1.000
    C199     C        0.08450    0.24610    0.91850    1.000
    C200     C        0.07430    0.51160    0.23180    1.000
    O121     O        0.50000    0.82000    0.75000    1.000
    O122     O        0.00000    0.32000    0.75000    1.000
    O123     O        0.50000    0.18000    0.25000    1.000
    O124     O        0.00000    0.68000    0.25000    1.000
