data_functionalizedCrystal
_audit_creation_method	'EQeq! by Chris Wilmer'
_symmetry_space_group_name_H-M	'P1'
_symmetry_Int_Tables_number	1
_symmetry_cell_setting	triclinic
loop_
_symmetry_equiv_pos_as_xyz
  x,y,z
_cell_length_a	16.2111
_cell_length_b	11.8683
_cell_length_c	17.9923
_cell_angle_alpha	90
_cell_angle_beta	103.7
_cell_angle_gamma	90
loop_
_atom_site_label
_atom_site_type_symbol
_atom_site_fract_x
_atom_site_fract_y
_atom_site_fract_z
_atom_site_charge
Mof_Mo	Mo	0.2169	0.64127	0.06744	1.082
Mof_Mo	Mo	0.21593	0.34798	0.03711	1.073
Mof_Mo	Mo	0.11768	0.76708	0.96676	1.162
Mof_Mo	Mo	0.97955	0.64577	0.80495	1.166
Mof_Mo	Mo	0.97646	0.42919	0.78692	1.169
Mof_Mo	Mo	0.11124	0.25542	0.92195	1.142
Mof_Mn	Mn	0.37607	0.50208	0.86574	1.052
Mof_P 	P 	0.06137	0.20096	0.7375	0.528
Mof_P 	P 	0.17269	0.5245	0.88601	0.593
Mof_P 	P 	0.12328	0.83689	0.79012	0.564
Mof_P 	P 	0.38927	0.50764	0.05842	0.561
Mof_O 	O 	0.09286	0.6349	0.02412	-0.637
Mof_O 	O 	0.23931	0.7456	0.99174	-0.499
Mof_O 	O 	0.09189	0.3612	0.00114	-0.631
Mof_O 	O 	0.234	0.2737	0.94658	-0.485
Mof_O 	O 	0.029	0.3236	0.72188	-0.401
Mof_O 	O 	0.11425	0.4229	0.8586	-0.428
Mof_O 	O 	0.20514	0.4805	0.11464	-0.468
Mof_O 	O 	0.1223	0.1959	0.8184	-0.381
Mof_O 	O 	0.34354	0.3935	0.06116	-0.397
Mof_O 	O 	0.0176	0.55	0.73244	-0.53
Mof_O 	O 	0.21187	0.5095	0.97309	-0.421
Mof_O 	O 	0.1343	0.8623	0.87628	-0.404
Mof_O 	O 	0.96427	0.5236	0.87488	-0.606
Mof_O 	O 	0.0384	0.775	0.76023	-0.408
Mof_O 	O 	0.34197	0.6004	0.09155	-0.419
Mof_O 	O 	0.99159	0.7545	0.90058	-0.47
Mof_O 	O 	0.1302	0.9435	0.74782	-0.307
Mof_O 	O 	0.11563	0.6313	0.87741	-0.431
Mof_O 	O 	0.98624	0.2904	0.86273	-0.47
Mof_O 	O 	0.24014	0.5405	0.84182	-0.312
Mof_O 	O 	0.9853	0.1222	0.73462	-0.249
Mof_O 	O 	0.47729	0.4975	0.11739	-0.291
Mof_O 	O 	0.4023	0.5398	0.98191	-0.344
Mof_O 	O 	0.1999	0.7604	0.7805	-0.169
Mof_O 	O 	0.1087	0.169	0.67742	-0.298
Mof_O 	O 	0.3776	0.3179	0.8947	-0.385
Mof_H 	H 	0.4268	0.2972	0.9117	0.249
Mof_Mo	Mo	0.2831	0.14127	0.43256	1.097
Mof_Mo	Mo	0.28407	0.84798	0.46289	1.139
Mof_Mo	Mo	0.38232	0.26708	0.53324	1.129
Mof_Mo	Mo	0.52045	0.14577	0.69505	1.11
Mof_Mo	Mo	0.52354	0.92919	0.71308	1.179
Mof_Mo	Mo	0.38876	0.75542	0.57805	1.139
Mof_Mn	Mn	0.12393	0.00208	0.63426	0.996
Mof_P 	P 	0.43863	0.70096	0.7625	0.553
Mof_P 	P 	0.32731	0.0245	0.61399	0.572
Mof_P 	P 	0.37672	0.33689	0.70988	0.564
Mof_P 	P 	0.11073	0.00764	0.44158	0.538
Mof_O 	O 	0.40714	0.1349	0.47588	-0.624
Mof_O 	O 	0.26069	0.2456	0.50826	-0.517
Mof_O 	O 	0.40811	0.8612	0.49886	-0.611
Mof_O 	O 	0.266	0.7737	0.55342	-0.499
Mof_O 	O 	0.471	0.8236	0.77812	-0.382
Mof_O 	O 	0.38575	0.9229	0.6414	-0.402
Mof_O 	O 	0.29486	0.9805	0.38536	-0.458
Mof_O 	O 	0.3777	0.6959	0.6816	-0.374
Mof_O 	O 	0.15646	0.8935	0.43884	-0.375
Mof_O 	O 	0.4824	0.05	0.76756	-0.519
Mof_O 	O 	0.28813	0.0095	0.52691	-0.457
Mof_O 	O 	0.3657	0.3623	0.62372	-0.406
Mof_O 	O 	0.53573	0.0236	0.62512	-0.631
Mof_O 	O 	0.4616	0.275	0.73977	-0.393
Mof_O 	O 	0.15803	0.1004	0.40845	-0.426
Mof_O 	O 	0.50841	0.2545	0.59942	-0.482
Mof_O 	O 	0.3698	0.4435	0.75218	-0.328
Mof_O 	O 	0.38437	0.1313	0.62259	-0.421
Mof_O 	O 	0.51376	0.7904	0.63727	-0.487
Mof_O 	O 	0.25986	0.0405	0.65818	-0.313
Mof_O 	O 	0.5147	0.6222	0.76538	-0.268
Mof_O 	O 	0.02271	0.9975	0.38261	-0.277
Mof_O 	O 	0.0977	0.0398	0.51809	-0.373
Mof_O 	O 	0.3001	0.2604	0.7195	-0.173
Mof_O 	O 	0.3913	0.669	0.82258	-0.293
Mof_O 	O 	0.1224	0.8179	0.6053	-0.37
Mof_H 	H 	0.0732	0.7972	0.5883	0.239
Mof_Mo	Mo	0.7831	0.35873	0.93256	1.163
Mof_Mo	Mo	0.78407	0.65202	0.96289	1.173
Mof_Mo	Mo	0.88232	0.23292	0.03324	1.106
Mof_Mo	Mo	0.02045	0.35423	0.19505	1.06
Mof_Mo	Mo	0.02354	0.57081	0.21308	1.072
Mof_Mo	Mo	0.88876	0.74458	0.07805	1.133
Mof_Mn	Mn	0.62393	0.49792	0.13426	1.046
Mof_P 	P 	0.93863	0.79904	0.2625	0.567
Mof_P 	P 	0.82731	0.4755	0.11399	0.591
Mof_P 	P 	0.87672	0.16311	0.20988	0.563
Mof_P 	P 	0.61073	0.49236	0.94158	0.608
Mof_O 	O 	0.90714	0.3651	0.97588	-0.592
Mof_O 	O 	0.76069	0.2544	0.00826	-0.539
Mof_O 	O 	0.90811	0.6388	0.99886	-0.592
Mof_O 	O 	0.766	0.7263	0.05342	-0.515
Mof_O 	O 	0.971	0.6764	0.27812	-0.366
Mof_O 	O 	0.88575	0.5771	0.1414	-0.411
Mof_O 	O 	0.79486	0.5195	0.88536	-0.485
Mof_O 	O 	0.8777	0.8041	0.1816	-0.367
Mof_O 	O 	0.65646	0.6065	0.93884	-0.394
Mof_O 	O 	0.9824	0.45	0.26756	-0.467
Mof_O 	O 	0.78813	0.4905	0.02691	-0.468
Mof_O 	O 	0.8657	0.1377	0.12372	-0.404
Mof_O 	O 	0.03573	0.4764	0.12512	-0.603
Mof_O 	O 	0.9616	0.225	0.23977	-0.374
Mof_O 	O 	0.65803	0.3996	0.90845	-0.424
Mof_O 	O 	0.00841	0.2455	0.09942	-0.502
Mof_O 	O 	0.8698	0.0565	0.25218	-0.341
Mof_O 	O 	0.88437	0.3687	0.12259	-0.408
Mof_O 	O 	0.01376	0.7096	0.13727	-0.493
Mof_O 	O 	0.75986	0.4595	0.15818	-0.312
Mof_O 	O 	0.0147	0.8778	0.26538	-0.278
Mof_O 	O 	0.52271	0.5025	0.88261	-0.291
Mof_O 	O 	0.5977	0.4602	0.01809	-0.39
Mof_O 	O 	0.8001	0.2396	0.2195	-0.174
Mof_O 	O 	0.8913	0.831	0.32258	-0.295
Mof_O 	O 	0.6224	0.6821	0.1053	-0.387
Mof_H 	H 	0.5732	0.7028	0.0883	0.243
Mof_Mo	Mo	0.7169	0.85873	0.56744	1.147
Mof_Mo	Mo	0.71593	0.15202	0.53711	1.117
Mof_Mo	Mo	0.61768	0.73292	0.46676	1.124
Mof_Mo	Mo	0.47955	0.85423	0.30495	1.136
Mof_Mo	Mo	0.47646	0.07081	0.28692	1.059
Mof_Mo	Mo	0.61124	0.24458	0.42195	1.14
Mof_Mn	Mn	0.87607	0.99792	0.36574	1.083
Mof_P 	P 	0.56137	0.29904	0.2375	0.55
Mof_P 	P 	0.67269	0.9755	0.38601	0.61
Mof_P 	P 	0.62328	0.66311	0.29012	0.564
Mof_P 	P 	0.88927	0.99236	0.55842	0.613
Mof_O 	O 	0.59286	0.8651	0.52412	-0.615
Mof_O 	O 	0.73931	0.7544	0.49174	-0.521
Mof_O 	O 	0.59189	0.1388	0.50114	-0.62
Mof_O 	O 	0.734	0.2263	0.44658	-0.501
Mof_O 	O 	0.529	0.1764	0.22188	-0.383
Mof_O 	O 	0.61425	0.0771	0.3586	-0.435
Mof_O 	O 	0.70514	0.0195	0.61464	-0.493
Mof_O 	O 	0.6223	0.3041	0.3184	-0.373
Mof_O 	O 	0.84354	0.1065	0.56116	-0.407
Mof_O 	O 	0.5176	0.95	0.23244	-0.482
Mof_O 	O 	0.71187	0.9905	0.47309	-0.438
Mof_O 	O 	0.6343	0.6377	0.37628	-0.404
Mof_O 	O 	0.46427	0.9764	0.37488	-0.588
Mof_O 	O 	0.5384	0.725	0.26023	-0.396
Mof_O 	O 	0.84197	0.8996	0.59155	-0.42
Mof_O 	O 	0.49159	0.7455	0.40058	-0.484
Mof_O 	O 	0.6302	0.5565	0.24782	-0.327
Mof_O 	O 	0.61563	0.8687	0.37741	-0.423
Mof_O 	O 	0.48624	0.2096	0.36273	-0.48
Mof_O 	O 	0.74014	0.9595	0.34182	-0.31
Mof_O 	O 	0.4853	0.3778	0.23462	-0.267
Mof_O 	O 	0.97729	0.0025	0.61739	-0.29
Mof_O 	O 	0.9023	0.9602	0.48191	-0.362
Mof_O 	O 	0.6999	0.7396	0.2805	-0.171
Mof_O 	O 	0.6087	0.331	0.17742	-0.3
Mof_O 	O 	0.8776	0.1821	0.3947	-0.396
Mof_H 	H 	0.9268	0.2028	0.4117	0.254
Mof_Mn	Mn	-0	0.5	-0	1.051
Mof_Mn	Mn	0.5	-7.50582e-33	0.5	1.089
_end
