# CIF file generated by openbabel 3.1.0, see https://openbabel.org
data_I
_chemical_name_common 'image0'
_cell_length_a 30.809
_cell_length_b 5.369
_cell_length_c 25.126
_cell_angle_alpha 90
_cell_angle_beta 127.61
_cell_angle_gamma 90
_space_group_name_H-M_alt 'P 1'
_space_group_name_Hall 'P 1'
loop_
    _symmetry_equiv_pos_as_xyz
    x,y,z
loop_
    _atom_site_label
    _atom_site_type_symbol
    _atom_site_fract_x
    _atom_site_fract_y
    _atom_site_fract_z
    _atom_site_occupancy
    Cd1      Cd       0.26400    0.88500    0.57680    1.000
    Cd2      Cd       0.68650    0.00000    0.95800    1.000
    P1       P        0.70180    0.54200    0.04250    1.000
    P2       P        0.33100    0.44000    0.59210    1.000
    O1       O        0.73040    0.58600    0.12130    1.000
    O2       O        0.39210    0.49200    0.62080    1.000
    O3       O        0.74030    0.67400    0.02900    1.000
    O4       O        0.29650    0.58000    0.52560    1.000
    O5       O        0.64550    0.66300    0.00790    1.000
    O6       O        0.32160    0.56500    0.63870    1.000
    O7       O        0.70290    0.28200    0.03760    1.000
    O8       O        0.32610    0.16700    0.58740    1.000
    N1       N        0.74580    0.35300    0.28470    1.000
    N2       N        0.54020    0.34800    0.79030    1.000
    C1       C        0.75360    0.20000    0.34220    1.000
    C2       C        0.59080    0.25300    0.84640    1.000
    O9       O        0.79590    0.22600    0.40060    1.000
    O10      O        0.63400    0.31700    0.86150    1.000
    N3       N        0.71400    0.04400    0.31690    1.000
    N4       N        0.59630    0.04900    0.88600    1.000
    C3       C        0.66860    0.96800    0.25330    1.000
    C4       C        0.54360    0.98200    0.86390    1.000
    N5       N        0.63400    0.78700    0.24100    1.000
    N6       N        0.54410    0.78100    0.89960    1.000
    C5       C        0.66040    0.13500    0.19690    1.000
    C6       C        0.48990    0.08500    0.80960    1.000
    C7       C        0.69910    0.32000    0.21810    1.000
    C8       C        0.48350    0.28900    0.76770    1.000
    C9       C        0.79060    0.50700    0.30850    1.000
    C10      C        0.54630    0.57100    0.75260    1.000
    C11      C        0.84160    0.40600    0.32250    1.000
    C12      C        0.54810    0.45600    0.69450    1.000
    C13      C        0.82510    0.44900    0.25500    1.000
    C14      C        0.49170    0.53200    0.63430    1.000
    C15      C        0.80330    0.72400    0.23500    1.000
    C16      C        0.46890    0.73900    0.64960    1.000
    O11      O        0.76510    0.71600    0.25490    1.000
    O12      O        0.49820    0.70200    0.72180    1.000
    O13      O        0.87370    0.45300    0.25480    1.000
    O14      O        0.49500    0.54200    0.57430    1.000
    C17      C        0.76240    0.79600    0.15710    1.000
    C18      C        0.40750    0.71800    0.61580    1.000
    Cd3      Cd       0.23600    0.38500    0.42320    1.000
    Cd4      Cd       0.81350    0.50000    0.04200    1.000
    P3       P        0.79820    0.04200    0.95750    1.000
    P4       P        0.16900    0.94000    0.40790    1.000
    O15      O        0.76960    0.08600    0.87870    1.000
    O16      O        0.10790    0.99200    0.37920    1.000
    O17      O        0.75970    0.17400    0.97100    1.000
    O18      O        0.20350    0.08000    0.47440    1.000
    O19      O        0.85450    0.16300    0.99210    1.000
    O20      O        0.17840    0.06500    0.36130    1.000
    O21      O        0.79710    0.78200    0.96240    1.000
    O22      O        0.17390    0.66700    0.41260    1.000
    N7       N        0.75420    0.85300    0.71530    1.000
    N8       N        0.95980    0.84800    0.20970    1.000
    C19      C        0.74640    0.70000    0.65780    1.000
    C20      C        0.90920    0.75300    0.15360    1.000
    O23      O        0.70410    0.72600    0.59940    1.000
    O24      O        0.86600    0.81700    0.13850    1.000
    N9       N        0.78600    0.54400    0.68310    1.000
    N10      N        0.90370    0.54900    0.11400    1.000
    C21      C        0.83140    0.46800    0.74670    1.000
    C22      C        0.95640    0.48200    0.13610    1.000
    N11      N        0.86600    0.28700    0.75900    1.000
    N12      N        0.95590    0.28100    0.10040    1.000
    C23      C        0.83960    0.63500    0.80310    1.000
    C24      C        0.01010    0.58500    0.19040    1.000
    C25      C        0.80090    0.82000    0.78190    1.000
    C26      C        0.01650    0.78900    0.23230    1.000
    C27      C        0.70940    0.00700    0.69150    1.000
    C28      C        0.95370    0.07100    0.24740    1.000
    C29      C        0.65840    0.90600    0.67750    1.000
    C30      C        0.95190    0.95600    0.30550    1.000
    C31      C        0.67490    0.94900    0.74500    1.000
    C32      C        0.00830    0.03200    0.36570    1.000
    C33      C        0.69670    0.22400    0.76500    1.000
    C34      C        0.03110    0.23900    0.35040    1.000
    O25      O        0.73490    0.21600    0.74510    1.000
    O26      O        0.00180    0.20200    0.27820    1.000
    O27      O        0.62630    0.95300    0.74520    1.000
    O28      O        0.00500    0.04200    0.42570    1.000
    C35      C        0.73760    0.29600    0.84290    1.000
    C36      C        0.09250    0.21800    0.38420    1.000
    Cd5      Cd       0.76400    0.38500    0.57680    1.000
    Cd6      Cd       0.18650    0.50000    0.95800    1.000
    P5       P        0.20180    0.04200    0.04250    1.000
    P6       P        0.83100    0.94000    0.59210    1.000
    O29      O        0.23040    0.08600    0.12130    1.000
    O30      O        0.89210    0.99200    0.62080    1.000
    O31      O        0.24030    0.17400    0.02900    1.000
    O32      O        0.79650    0.08000    0.52560    1.000
    O33      O        0.14550    0.16300    0.00790    1.000
    O34      O        0.82160    0.06500    0.63870    1.000
    O35      O        0.20290    0.78200    0.03760    1.000
    O36      O        0.82610    0.66700    0.58740    1.000
    N13      N        0.24580    0.85300    0.28470    1.000
    N14      N        0.04020    0.84800    0.79030    1.000
    C37      C        0.25360    0.70000    0.34220    1.000
    C38      C        0.09080    0.75300    0.84640    1.000
    O37      O        0.29590    0.72600    0.40060    1.000
    O38      O        0.13400    0.81700    0.86150    1.000
    N15      N        0.21400    0.54400    0.31690    1.000
    N16      N        0.09630    0.54900    0.88600    1.000
    C39      C        0.16860    0.46800    0.25330    1.000
    C40      C        0.04360    0.48200    0.86390    1.000
    N17      N        0.13400    0.28700    0.24100    1.000
    N18      N        0.04410    0.28100    0.89960    1.000
    C41      C        0.16040    0.63500    0.19690    1.000
    C42      C        0.98990    0.58500    0.80960    1.000
    C43      C        0.19910    0.82000    0.21810    1.000
    C44      C        0.98350    0.78900    0.76770    1.000
    C45      C        0.29060    0.00700    0.30850    1.000
    C46      C        0.04630    0.07100    0.75260    1.000
    C47      C        0.34160    0.90600    0.32250    1.000
    C48      C        0.04810    0.95600    0.69450    1.000
    C49      C        0.32510    0.94900    0.25500    1.000
    C50      C        0.99170    0.03200    0.63430    1.000
    C51      C        0.30330    0.22400    0.23500    1.000
    C52      C        0.96890    0.23900    0.64960    1.000
    O39      O        0.26510    0.21600    0.25490    1.000
    O40      O        0.99820    0.20200    0.72180    1.000
    O41      O        0.37370    0.95300    0.25480    1.000
    O42      O        0.99500    0.04200    0.57430    1.000
    C53      C        0.26240    0.29600    0.15710    1.000
    C54      C        0.90750    0.21800    0.61580    1.000
    Cd7      Cd       0.73600    0.88500    0.42320    1.000
    Cd8      Cd       0.31350    0.00000    0.04200    1.000
    P7       P        0.29820    0.54200    0.95750    1.000
    P8       P        0.66900    0.44000    0.40790    1.000
    O43      O        0.26960    0.58600    0.87870    1.000
    O44      O        0.60790    0.49200    0.37920    1.000
    O45      O        0.25970    0.67400    0.97100    1.000
    O46      O        0.70350    0.58000    0.47440    1.000
    O47      O        0.35450    0.66300    0.99210    1.000
    O48      O        0.67840    0.56500    0.36130    1.000
    O49      O        0.29710    0.28200    0.96240    1.000
    O50      O        0.67390    0.16700    0.41260    1.000
    N19      N        0.25420    0.35300    0.71530    1.000
    N20      N        0.45980    0.34800    0.20970    1.000
    C55      C        0.24640    0.20000    0.65780    1.000
    C56      C        0.40920    0.25300    0.15360    1.000
    O51      O        0.20410    0.22600    0.59940    1.000
    O52      O        0.36600    0.31700    0.13850    1.000
    N21      N        0.28600    0.04400    0.68310    1.000
    N22      N        0.40370    0.04900    0.11400    1.000
    C57      C        0.33140    0.96800    0.74670    1.000
    C58      C        0.45640    0.98200    0.13610    1.000
    N23      N        0.36600    0.78700    0.75900    1.000
    N24      N        0.45590    0.78100    0.10040    1.000
    C59      C        0.33960    0.13500    0.80310    1.000
    C60      C        0.51010    0.08500    0.19040    1.000
    C61      C        0.30090    0.32000    0.78190    1.000
    C62      C        0.51650    0.28900    0.23230    1.000
    C63      C        0.20940    0.50700    0.69150    1.000
    C64      C        0.45370    0.57100    0.24740    1.000
    C65      C        0.15840    0.40600    0.67750    1.000
    C66      C        0.45190    0.45600    0.30550    1.000
    C67      C        0.17490    0.44900    0.74500    1.000
    C68      C        0.50830    0.53200    0.36570    1.000
    C69      C        0.19670    0.72400    0.76500    1.000
    C70      C        0.53110    0.73900    0.35040    1.000
    O53      O        0.23490    0.71600    0.74510    1.000
    O54      O        0.50180    0.70200    0.27820    1.000
    O55      O        0.12630    0.45300    0.74520    1.000
    O56      O        0.50500    0.54200    0.42570    1.000
    C71      C        0.23760    0.79600    0.84290    1.000
    C72      C        0.59250    0.71800    0.38420    1.000
