data_functionalizedCrystal
_audit_creation_method	'EQeq! by Chris Wilmer'
_symmetry_space_group_name_H-M	'P1'
_symmetry_Int_Tables_number	1
_symmetry_cell_setting	triclinic
loop_
_symmetry_equiv_pos_as_xyz
  x,y,z
_cell_length_a	15.2927
_cell_length_b	15.2927
_cell_length_c	12.301
_cell_angle_alpha	90
_cell_angle_beta	90
_cell_angle_gamma	90
loop_
_atom_site_label
_atom_site_type_symbol
_atom_site_fract_x
_atom_site_fract_y
_atom_site_fract_z
_atom_site_charge
Mof_H 	H 	0.617	0.5592	0.5816	0.036
Mof_C 	C 	0.5692	0.5367	0.6192	0.002
Mof_C 	C 	0.5684	0.5404	0.7322	-0.112
Mof_C 	C 	0.6398	0.5877	0.7918	0.43
Mof_O 	O 	0.6203	0.6155	0.8854	-0.459
Mof_O 	O 	0.71117	0.59694	0.7456	-0.48
Mof_H 	H 	0.29732	0.28839	0.40903	0.196
Mof_H 	H 	0.117	0.0592	0.0816	0.003
Mof_C 	C 	0.0692	0.0367	0.1192	0.049
Mof_C 	C 	0.0684	0.0404	0.2322	-0.145
Mof_C 	C 	0.1398	0.0877	0.2918	0.44
Mof_O 	O 	0.1203	0.1155	0.3854	-0.482
Mof_O 	O 	0.21117	0.09694	0.2456	-0.494
Mof_H 	H 	0.79732	0.78839	0.90903	0.208
Mof_H 	H 	0.883	0.9408	0.0816	0
Mof_C 	C 	0.9308	0.9633	0.1192	0.068
Mof_C 	C 	0.9316	0.9596	0.2322	-0.129
Mof_C 	C 	0.8602	0.9123	0.2918	0.439
Mof_O 	O 	0.8797	0.8845	0.3854	-0.474
Mof_O 	O 	0.78883	0.90306	0.2456	-0.491
Mof_H 	H 	0.20268	0.21161	0.90903	0.206
Mof_H 	H 	0.383	0.4408	0.5816	0.034
Mof_C 	C 	0.4308	0.4633	0.6192	0.002
Mof_C 	C 	0.4316	0.4596	0.7322	-0.113
Mof_C 	C 	0.3602	0.4123	0.7918	0.43
Mof_O 	O 	0.3797	0.3845	0.8854	-0.46
Mof_O 	O 	0.28883	0.40306	0.7456	-0.481
Mof_H 	H 	0.70268	0.71161	0.40903	0.196
Mof_H 	H 	0.4408	0.117	0.8316	0.09
Mof_C 	C 	0.4633	0.0692	0.8692	-0.152
Mof_C 	C 	0.4596	0.0684	0.9822	0.127
Mof_C 	C 	0.4123	0.1398	0.0418	0.257
Mof_O 	O 	0.3845	0.1203	0.1354	-0.443
Mof_O 	O 	0.40306	0.21117	0.9956	-0.4
Mof_H 	H 	0.71161	0.79732	0.65903	0.196
Mof_H 	H 	0.9408	0.617	0.3316	0.042
Mof_C 	C 	0.9633	0.5692	0.3692	-0.014
Mof_C 	C 	0.9596	0.5684	0.4822	-0.083
Mof_C 	C 	0.9123	0.6398	0.5418	0.423
Mof_O 	O 	0.8845	0.6203	0.6354	-0.466
Mof_O 	O 	0.90306	0.71117	0.4956	-0.481
Mof_H 	H 	0.21161	0.29732	0.15903	0.196
Mof_H 	H 	0.0592	0.383	0.3316	0.044
Mof_C 	C 	0.0367	0.4308	0.3692	-0.03
Mof_C 	C 	0.0404	0.4316	0.4822	-0.097
Mof_C 	C 	0.0877	0.3602	0.5418	0.424
Mof_O 	O 	0.1155	0.3797	0.6354	-0.472
Mof_O 	O 	0.09694	0.28883	0.4956	-0.485
Mof_H 	H 	0.78839	0.70268	0.15903	0.197
Mof_H 	H 	0.5592	0.883	0.8316	0.089
Mof_C 	C 	0.5367	0.9308	0.8692	-0.148
Mof_C 	C 	0.5404	0.9316	0.9822	0.133
Mof_C 	C 	0.5877	0.8602	0.0418	0.253
Mof_O 	O 	0.6155	0.8797	0.1354	-0.44
Mof_O 	O 	0.59694	0.78883	0.9956	-0.398
Mof_H 	H 	0.28839	0.20268	0.65903	0.196
Mof_H 	H 	0.883	0.5592	0.1684	-0.028
Mof_C 	C 	0.9308	0.5367	0.1308	0.18
Mof_C 	C 	0.9316	0.5404	0.0178	-0.353
Mof_C 	C 	0.8602	0.5877	0.9582	0.61
Mof_O 	O 	0.8797	0.6155	0.8646	-0.507
Mof_O 	O 	0.78883	0.59694	0.0044	-0.571
Mof_H 	H 	0.20268	0.28839	0.34097	0.195
Mof_H 	H 	0.383	0.0592	0.6684	0.019
Mof_C 	C 	0.4308	0.0367	0.6308	0.043
Mof_C 	C 	0.4316	0.0404	0.5178	-0.141
Mof_C 	C 	0.3602	0.0877	0.4582	0.441
Mof_O 	O 	0.3797	0.1155	0.3646	-0.483
Mof_O 	O 	0.28883	0.09694	0.5044	-0.489
Mof_H 	H 	0.70268	0.78839	0.84097	0.196
Mof_H 	H 	0.617	0.9408	0.6684	0.02
Mof_C 	C 	0.5692	0.9633	0.6308	0.047
Mof_C 	C 	0.5684	0.9596	0.5178	-0.137
Mof_C 	C 	0.6398	0.9123	0.4582	0.441
Mof_O 	O 	0.6203	0.8845	0.3646	-0.482
Mof_O 	O 	0.71117	0.90306	0.5044	-0.486
Mof_H 	H 	0.29732	0.21161	0.84097	0.196
Mof_H 	H 	0.117	0.4408	0.1684	-0.025
Mof_C 	C 	0.0692	0.4633	0.1308	0.163
Mof_C 	C 	0.0684	0.4596	0.0178	-0.362
Mof_C 	C 	0.1398	0.4123	0.9582	0.606
Mof_O 	O 	0.1203	0.3845	0.8646	-0.513
Mof_O 	O 	0.21117	0.40306	0.0044	-0.57
Mof_H 	H 	0.79732	0.71161	0.34097	0.196
Mof_H 	H 	0.0592	0.117	0.9184	0.06
Mof_C 	C 	0.0367	0.0692	0.8808	-0.038
Mof_C 	C 	0.0404	0.0684	0.7678	-0.087
Mof_C 	C 	0.0877	0.1398	0.7082	0.421
Mof_O 	O 	0.1155	0.1203	0.6146	-0.475
Mof_O 	O 	0.09694	0.21117	0.7544	-0.48
Mof_H 	H 	0.78839	0.79732	0.09097	0.186
Mof_H 	H 	0.5592	0.617	0.4184	0.03
Mof_C 	C 	0.5367	0.5692	0.3808	0.012
Mof_C 	C 	0.5404	0.5684	0.2678	-0.129
Mof_C 	C 	0.5877	0.6398	0.2082	0.437
Mof_O 	O 	0.6155	0.6203	0.1146	-0.493
Mof_O 	O 	0.59694	0.71117	0.2544	-0.491
Mof_H 	H 	0.28839	0.29732	0.59097	0.196
Mof_H 	H 	0.4408	0.383	0.4184	0.03
Mof_C 	C 	0.4633	0.4308	0.3808	0.012
Mof_C 	C 	0.4596	0.4316	0.2678	-0.129
Mof_C 	C 	0.4123	0.3602	0.2082	0.437
Mof_O 	O 	0.3845	0.3797	0.1146	-0.493
Mof_O 	O 	0.40306	0.28883	0.2544	-0.491
Mof_H 	H 	0.71161	0.70268	0.59097	0.196
Mof_H 	H 	0.9408	0.883	0.9184	0.058
Mof_C 	C 	0.9633	0.9308	0.8808	-0.016
Mof_C 	C 	0.9596	0.9316	0.7678	-0.07
Mof_C 	C 	0.9123	0.8602	0.7082	0.42
Mof_O 	O 	0.8845	0.8797	0.6146	-0.468
Mof_O 	O 	0.90306	0.78883	0.7544	-0.475
Mof_H 	H 	0.21161	0.20268	0.09097	0.185
Mof_Mg	Mg	0.1848	0.1848	0.5	1.479
Mof_Mg	Mg	0.3152	0.3152	-0	1.475
Mof_Mg	Mg	0.8152	0.6848	0.75	1.48
Mof_Mg	Mg	0.6848	0.8152	0.25	1.479
Mof_Mg	Mg	0.3152	0.1848	0.25	1.479
Mof_Mg	Mg	0.1848	0.3152	0.75	1.48
Mof_Mg	Mg	0.6848	0.6848	-0	1.475
Mof_Mg	Mg	0.8152	0.8152	0.5	1.479
Mof_H 	H 	-1.09623e-33	0	0.3639	0.04
Mof_C 	C 	1.8397e-34	0	0.061	-0.113
Mof_C 	C 	-1.32424e-33	-2.19372e-33	0.2883	0.059
Mof_H 	H 	0.5	0.5	0.8639	0.057
Mof_C 	C 	0.5	0.5	0.561	-0.005
Mof_C 	C 	0.5	0.5	0.7883	0.059
Mof_H 	H 	1.85147e-33	0.5	0.6139	0.059
Mof_C 	C 	-1.25578e-33	0.5	0.311	0.031
Mof_C 	C 	1.62346e-33	0.5	0.5383	0.021
Mof_H 	H 	0.5	0	0.1139	0.142
Mof_C 	C 	0.5	0	0.811	0.111
Mof_C 	C 	0.5	0	0.0383	-0.242
Mof_H 	H 	0.5	-2.19372e-33	0.3861	0.036
Mof_C 	C 	0.5	0	0.689	-0.071
Mof_C 	C 	0.5	0	0.4617	0.078
Mof_H 	H 	2.6724e-33	0.5	0.8861	-0.046
Mof_C 	C 	-5.26855e-34	0.5	0.189	-0.149
Mof_C 	C 	2.9004e-33	0.5	0.9617	0.341
Mof_H 	H 	0.5	0.5	0.1361	0.034
Mof_C 	C 	0.5	0.5	0.439	-0.016
Mof_C 	C 	0.5	0.5	0.2117	0.072
Mof_H 	H 	6.30586e-33	4.38744e-33	0.6361	0.058
Mof_C 	C 	2.83194e-33	0	0.939	0.057
Mof_C 	C 	2.14642e-33	0	0.7117	0.01
Mof_O 	O 	0.7554	0.75	0.125	-0.754
Mof_O 	O 	0.2554	0.25	0.625	-0.747
Mof_O 	O 	0.7446	0.75	0.625	-0.747
Mof_O 	O 	0.2446	0.25	0.125	-0.753
Mof_O 	O 	0.25	0.2554	0.375	-0.748
Mof_O 	O 	0.75	0.7554	0.875	-0.74
Mof_O 	O 	0.25	0.2446	0.875	-0.74
Mof_O 	O 	0.75	0.7446	0.375	-0.748
_end
