# CIF file generated by openbabel 3.1.0, see https://openbabel.org
data_I
_chemical_name_common 'image0'
_cell_length_a 22.13
_cell_length_b 7.774
_cell_length_c 6.655
_cell_angle_alpha 90
_cell_angle_beta 105.28
_cell_angle_gamma 90
_space_group_name_H-M_alt 'P 1'
_space_group_name_Hall 'P 1'
loop_
    _symmetry_equiv_pos_as_xyz
    x,y,z
loop_
    _atom_site_label
    _atom_site_type_symbol
    _atom_site_fract_x
    _atom_site_fract_y
    _atom_site_fract_z
    _atom_site_occupancy
    O1       O        0.35110    0.37300    0.47600    1.000
    O2       O        0.34700    0.31500    0.16500    1.000
    O3       O        0.30400    0.18200    0.75000    1.000
    O4       O        0.44700    0.33400    0.94800    1.000
    C1       C        0.37200    0.40150    0.31900    1.000
    C2       C        0.29500    0.18940    0.57300    1.000
    O5       O        0.33000    0.21100    0.85700    1.000
    O6       O        0.85110    0.87300    0.47600    1.000
    O7       O        0.84700    0.81500    0.16500    1.000
    O8       O        0.80400    0.68200    0.75000    1.000
    O9       O        0.94700    0.83400    0.94800    1.000
    C3       C        0.87200    0.90150    0.31900    1.000
    C4       C        0.79500    0.68940    0.57300    1.000
    O10      O        0.83000    0.71100    0.85700    1.000
    O11      O        0.64890    0.37300    0.52400    1.000
    O12      O        0.65300    0.31500    0.83500    1.000
    O13      O        0.69600    0.18200    0.25000    1.000
    O14      O        0.55300    0.33400    0.05200    1.000
    C5       C        0.62800    0.40150    0.68100    1.000
    C6       C        0.70500    0.18940    0.42700    1.000
    O15      O        0.67000    0.21100    0.14300    1.000
    O16      O        0.14890    0.87300    0.52400    1.000
    O17      O        0.15300    0.81500    0.83500    1.000
    O18      O        0.19600    0.68200    0.25000    1.000
    O19      O        0.05300    0.83400    0.05200    1.000
    C7       C        0.12800    0.90150    0.68100    1.000
    C8       C        0.20500    0.68940    0.42700    1.000
    O20      O        0.17000    0.71100    0.14300    1.000
    O21      O        0.64890    0.62700    0.52400    1.000
    O22      O        0.65300    0.68500    0.83500    1.000
    O23      O        0.69600    0.81800    0.25000    1.000
    O24      O        0.55300    0.66600    0.05200    1.000
    C9       C        0.62800    0.59850    0.68100    1.000
    C10      C        0.70500    0.81060    0.42700    1.000
    O25      O        0.67000    0.78900    0.14300    1.000
    O26      O        0.14890    0.12700    0.52400    1.000
    O27      O        0.15300    0.18500    0.83500    1.000
    O28      O        0.19600    0.31800    0.25000    1.000
    O29      O        0.05300    0.16600    0.05200    1.000
    C11      C        0.12800    0.09850    0.68100    1.000
    C12      C        0.20500    0.31060    0.42700    1.000
    O30      O        0.17000    0.28900    0.14300    1.000
    O31      O        0.35110    0.62700    0.47600    1.000
    O32      O        0.34700    0.68500    0.16500    1.000
    O33      O        0.30400    0.81800    0.75000    1.000
    O34      O        0.44700    0.66600    0.94800    1.000
    C13      C        0.37200    0.59850    0.31900    1.000
    C14      C        0.29500    0.81060    0.57300    1.000
    O35      O        0.33000    0.78900    0.85700    1.000
    O36      O        0.85110    0.12700    0.47600    1.000
    O37      O        0.84700    0.18500    0.16500    1.000
    O38      O        0.80400    0.31800    0.75000    1.000
    O39      O        0.94700    0.16600    0.94800    1.000
    C15      C        0.87200    0.09850    0.31900    1.000
    C16      C        0.79500    0.31060    0.57300    1.000
    O40      O        0.83000    0.28900    0.85700    1.000
    La1      La       0.34690    0.50000    0.84650    1.000
    La2      La       0.84690    0.00000    0.84650    1.000
    La3      La       0.65310    0.50000    0.15350    1.000
    La4      La       0.15310    0.00000    0.15350    1.000
    O41      O        0.26900    0.00000    0.50500    1.000
    O42      O        0.76900    0.50000    0.50500    1.000
    O43      O        0.73100    0.00000    0.49500    1.000
    O44      O        0.23100    0.50000    0.49500    1.000
    C17      C        0.50000    0.40150    0.00000    1.000
    C18      C        0.00000    0.90150    0.00000    1.000
    C19      C        0.50000    0.59850    0.00000    1.000
    C20      C        0.00000    0.09850    0.00000    1.000
