# CIF file generated by openbabel 3.1.0, see https://openbabel.org
data_I
_chemical_name_common 'image0'
_cell_length_a 16.183
_cell_length_b 28.455
_cell_length_c 17.23
_cell_angle_alpha 90
_cell_angle_beta 90
_cell_angle_gamma 90
_space_group_name_H-M_alt 'P 1'
_space_group_name_Hall 'P 1'
loop_
    _symmetry_equiv_pos_as_xyz
    x,y,z
loop_
    _atom_site_label
    _atom_site_type_symbol
    _atom_site_fract_x
    _atom_site_fract_y
    _atom_site_fract_z
    _atom_site_occupancy
    Cd1      Cd       0.84582    0.36880    0.02673    1.000
    O1       O        0.87840    0.36045    0.16370    1.000
    O2       O        0.74930    0.36778    0.12880    1.000
    O3       O        0.76550    0.39282    0.44670    1.000
    O4       O        0.00580    0.63892    0.98490    1.000
    O5       O        0.65300    0.37333    0.38760    1.000
    N1       N        0.88750    0.44589    0.04900    1.000
    N2       N        0.91880    0.62406    0.08420    1.000
    H1       H        0.87090    0.63110    0.10550    1.000
    N3       N        0.85080    0.78713    0.98680    1.000
    C1       C        0.87560    0.52960    0.03470    1.000
    H2       H        0.84920    0.55520    0.00940    1.000
    C2       C        0.94590    0.45390    0.10170    1.000
    H3       H        0.97170    0.42750    0.12530    1.000
    C3       C        0.93540    0.53720    0.08970    1.000
    C4       C        0.80310    0.36190    0.18030    1.000
    C5       C        0.77580    0.35570    0.26400    1.000
    H4       H        0.81720    0.33620    0.29150    1.000
    H5       H        0.72270    0.33840    0.26470    1.000
    C6       C        0.76500    0.40190    0.30810    1.000
    C7       C        0.84930    0.42540    0.31930    1.000
    H6       H        0.88830    0.40270    0.34120    1.000
    H7       H        0.84360    0.45210    0.35480    1.000
    H8       H        0.86990    0.43650    0.26910    1.000
    C8       C        0.85460    0.48340    0.01680    1.000
    H9       H        0.81340    0.47860    0.97840    1.000
    C9       C        0.97090    0.49800    0.12380    1.000
    H10      H        0.01250    0.50160    0.16230    1.000
    C10      C        0.90450    0.69620    0.01140    1.000
    C11      C        0.96540    0.58490    0.11430    1.000
    H11      H        0.96440    0.58640    0.17170    1.000
    H12      H        0.02360    0.58840    0.09760    1.000
    C12      C        0.94610    0.64990    0.02530    1.000
    C13      C        0.86870    0.72180    0.06990    1.000
    H13      H        0.86200    0.70840    0.12000    1.000
    C14      C        0.90950    0.71640    0.93860    1.000
    H14      H        0.93130    0.69930    0.89590    1.000
    C15      C        0.88250    0.76150    0.92950    1.000
    H15      H        0.88650    0.77530    0.87950    1.000
    C16      C        0.84250    0.76680    0.05560    1.000
    H16      H        0.81740    0.78400    0.09650    1.000
    C17      C        0.70550    0.43500    0.26440    1.000
    H17      H        0.73000    0.44380    0.21450    1.000
    H18      H        0.69590    0.46330    0.29550    1.000
    H19      H        0.65290    0.41880    0.25550    1.000
    C18      C        0.72550    0.38840    0.38580    1.000
    Cd2      Cd       0.65418    0.86880    0.47327    1.000
    O6       O        0.62160    0.86045    0.33630    1.000
    O7       O        0.75070    0.86778    0.37120    1.000
    O8       O        0.73450    0.89282    0.05330    1.000
    O9       O        0.49420    0.13892    0.51510    1.000
    O10      O        0.84700    0.87333    0.11240    1.000
    N4       N        0.61250    0.94589    0.45100    1.000
    N5       N        0.58120    0.12406    0.41580    1.000
    H20      H        0.62910    0.13110    0.39450    1.000
    N6       N        0.64920    0.28713    0.51320    1.000
    C19      C        0.62440    0.02960    0.46530    1.000
    H21      H        0.65080    0.05520    0.49060    1.000
    C20      C        0.55410    0.95390    0.39830    1.000
    H22      H        0.52830    0.92750    0.37470    1.000
    C21      C        0.56460    0.03720    0.41030    1.000
    C22      C        0.69690    0.86190    0.31970    1.000
    C23      C        0.72420    0.85570    0.23600    1.000
    H23      H        0.68280    0.83620    0.20850    1.000
    H24      H        0.77730    0.83840    0.23530    1.000
    C24      C        0.73500    0.90190    0.19190    1.000
    C25      C        0.65070    0.92540    0.18070    1.000
    H25      H        0.61170    0.90270    0.15880    1.000
    H26      H        0.65640    0.95210    0.14520    1.000
    H27      H        0.63010    0.93650    0.23090    1.000
    C26      C        0.64540    0.98340    0.48320    1.000
    H28      H        0.68660    0.97860    0.52160    1.000
    C27      C        0.52910    0.99800    0.37620    1.000
    H29      H        0.48750    0.00160    0.33770    1.000
    C28      C        0.59550    0.19620    0.48860    1.000
    C29      C        0.53460    0.08490    0.38570    1.000
    H30      H        0.53560    0.08640    0.32830    1.000
    H31      H        0.47640    0.08840    0.40240    1.000
    C30      C        0.55390    0.14990    0.47470    1.000
    C31      C        0.63130    0.22180    0.43010    1.000
    H32      H        0.63800    0.20840    0.38000    1.000
    C32      C        0.59050    0.21640    0.56140    1.000
    H33      H        0.56870    0.19930    0.60410    1.000
    C33      C        0.61750    0.26150    0.57050    1.000
    H34      H        0.61350    0.27530    0.62050    1.000
    C34      C        0.65750    0.26680    0.44440    1.000
    H35      H        0.68260    0.28400    0.40350    1.000
    C35      C        0.79450    0.93500    0.23560    1.000
    H36      H        0.77000    0.94380    0.28550    1.000
    H37      H        0.80410    0.96330    0.20450    1.000
    H38      H        0.84710    0.91880    0.24450    1.000
    C36      C        0.77450    0.88840    0.11420    1.000
    Cd3      Cd       0.84582    0.86880    0.97327    1.000
    O11      O        0.87840    0.86045    0.83630    1.000
    O12      O        0.74930    0.86778    0.87120    1.000
    O13      O        0.76550    0.89282    0.55330    1.000
    O14      O        0.00580    0.13892    0.01510    1.000
    O15      O        0.65300    0.87333    0.61240    1.000
    N7       N        0.88750    0.94589    0.95100    1.000
    N8       N        0.91880    0.12406    0.91580    1.000
    H39      H        0.87090    0.13110    0.89450    1.000
    N9       N        0.85080    0.28713    0.01320    1.000
    C37      C        0.87560    0.02960    0.96530    1.000
    H40      H        0.84920    0.05520    0.99060    1.000
    C38      C        0.94590    0.95390    0.89830    1.000
    H41      H        0.97170    0.92750    0.87470    1.000
    C39      C        0.93540    0.03720    0.91030    1.000
    C40      C        0.80310    0.86190    0.81970    1.000
    C41      C        0.77580    0.85570    0.73600    1.000
    H42      H        0.81720    0.83620    0.70850    1.000
    H43      H        0.72270    0.83840    0.73530    1.000
    C42      C        0.76500    0.90190    0.69190    1.000
    C43      C        0.84930    0.92540    0.68070    1.000
    H44      H        0.88830    0.90270    0.65880    1.000
    H45      H        0.84360    0.95210    0.64520    1.000
    H46      H        0.86990    0.93650    0.73090    1.000
    C44      C        0.85460    0.98340    0.98320    1.000
    H47      H        0.81340    0.97860    0.02160    1.000
    C45      C        0.97090    0.99800    0.87620    1.000
    H48      H        0.01250    0.00160    0.83770    1.000
    C46      C        0.90450    0.19620    0.98860    1.000
    C47      C        0.96540    0.08490    0.88570    1.000
    H49      H        0.96440    0.08640    0.82830    1.000
    H50      H        0.02360    0.08840    0.90240    1.000
    C48      C        0.94610    0.14990    0.97470    1.000
    C49      C        0.86870    0.22180    0.93010    1.000
    H51      H        0.86200    0.20840    0.88000    1.000
    C50      C        0.90950    0.21640    0.06140    1.000
    H52      H        0.93130    0.19930    0.10410    1.000
    C51      C        0.88250    0.26150    0.07050    1.000
    H53      H        0.88650    0.27530    0.12050    1.000
    C52      C        0.84250    0.26680    0.94440    1.000
    H54      H        0.81740    0.28400    0.90350    1.000
    C53      C        0.70550    0.93500    0.73560    1.000
    H55      H        0.73000    0.94380    0.78550    1.000
    H56      H        0.69590    0.96330    0.70450    1.000
    H57      H        0.65290    0.91880    0.74450    1.000
    C54      C        0.72550    0.88840    0.61420    1.000
    Cd4      Cd       0.65418    0.36880    0.52673    1.000
    O16      O        0.62160    0.36045    0.66370    1.000
    O17      O        0.75070    0.36778    0.62880    1.000
    O18      O        0.73450    0.39282    0.94670    1.000
    O19      O        0.49420    0.63892    0.48490    1.000
    O20      O        0.84700    0.37333    0.88760    1.000
    N10      N        0.61250    0.44589    0.54900    1.000
    N11      N        0.58120    0.62406    0.58420    1.000
    H58      H        0.62910    0.63110    0.60550    1.000
    N12      N        0.64920    0.78713    0.48680    1.000
    C55      C        0.62440    0.52960    0.53470    1.000
    H59      H        0.65080    0.55520    0.50940    1.000
    C56      C        0.55410    0.45390    0.60170    1.000
    H60      H        0.52830    0.42750    0.62530    1.000
    C57      C        0.56460    0.53720    0.58970    1.000
    C58      C        0.69690    0.36190    0.68030    1.000
    C59      C        0.72420    0.35570    0.76400    1.000
    H61      H        0.68280    0.33620    0.79150    1.000
    H62      H        0.77730    0.33840    0.76470    1.000
    C60      C        0.73500    0.40190    0.80810    1.000
    C61      C        0.65070    0.42540    0.81930    1.000
    H63      H        0.61170    0.40270    0.84120    1.000
    H64      H        0.65640    0.45210    0.85480    1.000
    H65      H        0.63010    0.43650    0.76910    1.000
    C62      C        0.64540    0.48340    0.51680    1.000
    H66      H        0.68660    0.47860    0.47840    1.000
    C63      C        0.52910    0.49800    0.62380    1.000
    H67      H        0.48750    0.50160    0.66230    1.000
    C64      C        0.59550    0.69620    0.51140    1.000
    C65      C        0.53460    0.58490    0.61430    1.000
    H68      H        0.53560    0.58640    0.67170    1.000
    H69      H        0.47640    0.58840    0.59760    1.000
    C66      C        0.55390    0.64990    0.52530    1.000
    C67      C        0.63130    0.72180    0.56990    1.000
    H70      H        0.63800    0.70840    0.62000    1.000
    C68      C        0.59050    0.71640    0.43860    1.000
    H71      H        0.56870    0.69930    0.39590    1.000
    C69      C        0.61750    0.76150    0.42950    1.000
    H72      H        0.61350    0.77530    0.37950    1.000
    C70      C        0.65750    0.76680    0.55560    1.000
    H73      H        0.68260    0.78400    0.59650    1.000
    C71      C        0.79450    0.43500    0.76440    1.000
    H74      H        0.77000    0.44380    0.71450    1.000
    H75      H        0.80410    0.46330    0.79550    1.000
    H76      H        0.84710    0.41880    0.75550    1.000
    C72      C        0.77450    0.38840    0.88580    1.000
    Cd5      Cd       0.34582    0.86880    0.02673    1.000
    O21      O        0.37840    0.86045    0.16370    1.000
    O22      O        0.24930    0.86778    0.12880    1.000
    O23      O        0.26550    0.89282    0.44670    1.000
    O24      O        0.50580    0.13892    0.98490    1.000
    O25      O        0.15300    0.87333    0.38760    1.000
    N13      N        0.38750    0.94589    0.04900    1.000
    N14      N        0.41880    0.12406    0.08420    1.000
    H77      H        0.37090    0.13110    0.10550    1.000
    N15      N        0.35080    0.28713    0.98680    1.000
    C73      C        0.37560    0.02960    0.03470    1.000
    H78      H        0.34920    0.05520    0.00940    1.000
    C74      C        0.44590    0.95390    0.10170    1.000
    H79      H        0.47170    0.92750    0.12530    1.000
    C75      C        0.43540    0.03720    0.08970    1.000
    C76      C        0.30310    0.86190    0.18030    1.000
    C77      C        0.27580    0.85570    0.26400    1.000
    H80      H        0.31720    0.83620    0.29150    1.000
    H81      H        0.22270    0.83840    0.26470    1.000
    C78      C        0.26500    0.90190    0.30810    1.000
    C79      C        0.34930    0.92540    0.31930    1.000
    H82      H        0.38830    0.90270    0.34120    1.000
    H83      H        0.34360    0.95210    0.35480    1.000
    H84      H        0.36990    0.93650    0.26910    1.000
    C80      C        0.35460    0.98340    0.01680    1.000
    H85      H        0.31340    0.97860    0.97840    1.000
    C81      C        0.47090    0.99800    0.12380    1.000
    H86      H        0.51250    0.00160    0.16230    1.000
    C82      C        0.40450    0.19620    0.01140    1.000
    C83      C        0.46540    0.08490    0.11430    1.000
    H87      H        0.46440    0.08640    0.17170    1.000
    H88      H        0.52360    0.08840    0.09760    1.000
    C84      C        0.44610    0.14990    0.02530    1.000
    C85      C        0.36870    0.22180    0.06990    1.000
    H89      H        0.36200    0.20840    0.12000    1.000
    C86      C        0.40950    0.21640    0.93860    1.000
    H90      H        0.43130    0.19930    0.89590    1.000
    C87      C        0.38250    0.26150    0.92950    1.000
    H91      H        0.38650    0.27530    0.87950    1.000
    C88      C        0.34250    0.26680    0.05560    1.000
    H92      H        0.31740    0.28400    0.09650    1.000
    C89      C        0.20550    0.93500    0.26440    1.000
    H93      H        0.23000    0.94380    0.21450    1.000
    H94      H        0.19590    0.96330    0.29550    1.000
    H95      H        0.15290    0.91880    0.25550    1.000
    C90      C        0.22550    0.88840    0.38580    1.000
    Cd6      Cd       0.15418    0.36880    0.47327    1.000
    O26      O        0.12160    0.36045    0.33630    1.000
    O27      O        0.25070    0.36778    0.37120    1.000
    O28      O        0.23450    0.39282    0.05330    1.000
    O29      O        0.99420    0.63892    0.51510    1.000
    O30      O        0.34700    0.37333    0.11240    1.000
    N16      N        0.11250    0.44589    0.45100    1.000
    N17      N        0.08120    0.62406    0.41580    1.000
    H96      H        0.12910    0.63110    0.39450    1.000
    N18      N        0.14920    0.78713    0.51320    1.000
    C91      C        0.12440    0.52960    0.46530    1.000
    H97      H        0.15080    0.55520    0.49060    1.000
    C92      C        0.05410    0.45390    0.39830    1.000
    H98      H        0.02830    0.42750    0.37470    1.000
    C93      C        0.06460    0.53720    0.41030    1.000
    C94      C        0.19690    0.36190    0.31970    1.000
    C95      C        0.22420    0.35570    0.23600    1.000
    H99      H        0.18280    0.33620    0.20850    1.000
    H100     H        0.27730    0.33840    0.23530    1.000
    C96      C        0.23500    0.40190    0.19190    1.000
    C97      C        0.15070    0.42540    0.18070    1.000
    H101     H        0.11170    0.40270    0.15880    1.000
    H102     H        0.15640    0.45210    0.14520    1.000
    H103     H        0.13010    0.43650    0.23090    1.000
    C98      C        0.14540    0.48340    0.48320    1.000
    H104     H        0.18660    0.47860    0.52160    1.000
    C99      C        0.02910    0.49800    0.37620    1.000
    H105     H        0.98750    0.50160    0.33770    1.000
    C100     C        0.09550    0.69620    0.48860    1.000
    C101     C        0.03460    0.58490    0.38570    1.000
    H106     H        0.03560    0.58640    0.32830    1.000
    H107     H        0.97640    0.58840    0.40240    1.000
    C102     C        0.05390    0.64990    0.47470    1.000
    C103     C        0.13130    0.72180    0.43010    1.000
    H108     H        0.13800    0.70840    0.38000    1.000
    C104     C        0.09050    0.71640    0.56140    1.000
    H109     H        0.06870    0.69930    0.60410    1.000
    C105     C        0.11750    0.76150    0.57050    1.000
    H110     H        0.11350    0.77530    0.62050    1.000
    C106     C        0.15750    0.76680    0.44440    1.000
    H111     H        0.18260    0.78400    0.40350    1.000
    C107     C        0.29450    0.43500    0.23560    1.000
    H112     H        0.27000    0.44380    0.28550    1.000
    H113     H        0.30410    0.46330    0.20450    1.000
    H114     H        0.34710    0.41880    0.24450    1.000
    C108     C        0.27450    0.38840    0.11420    1.000
    Cd7      Cd       0.34582    0.36880    0.97327    1.000
    O31      O        0.37840    0.36045    0.83630    1.000
    O32      O        0.24930    0.36778    0.87120    1.000
    O33      O        0.26550    0.39282    0.55330    1.000
    O34      O        0.50580    0.63892    0.01510    1.000
    O35      O        0.15300    0.37333    0.61240    1.000
    N19      N        0.38750    0.44589    0.95100    1.000
    N20      N        0.41880    0.62406    0.91580    1.000
    H115     H        0.37090    0.63110    0.89450    1.000
    N21      N        0.35080    0.78713    0.01320    1.000
    C109     C        0.37560    0.52960    0.96530    1.000
    H116     H        0.34920    0.55520    0.99060    1.000
    C110     C        0.44590    0.45390    0.89830    1.000
    H117     H        0.47170    0.42750    0.87470    1.000
    C111     C        0.43540    0.53720    0.91030    1.000
    C112     C        0.30310    0.36190    0.81970    1.000
    C113     C        0.27580    0.35570    0.73600    1.000
    H118     H        0.31720    0.33620    0.70850    1.000
    H119     H        0.22270    0.33840    0.73530    1.000
    C114     C        0.26500    0.40190    0.69190    1.000
    C115     C        0.34930    0.42540    0.68070    1.000
    H120     H        0.38830    0.40270    0.65880    1.000
    H121     H        0.34360    0.45210    0.64520    1.000
    H122     H        0.36990    0.43650    0.73090    1.000
    C116     C        0.35460    0.48340    0.98320    1.000
    H123     H        0.31340    0.47860    0.02160    1.000
    C117     C        0.47090    0.49800    0.87620    1.000
    H124     H        0.51250    0.50160    0.83770    1.000
    C118     C        0.40450    0.69620    0.98860    1.000
    C119     C        0.46540    0.58490    0.88570    1.000
    H125     H        0.46440    0.58640    0.82830    1.000
    H126     H        0.52360    0.58840    0.90240    1.000
    C120     C        0.44610    0.64990    0.97470    1.000
    C121     C        0.36870    0.72180    0.93010    1.000
    H127     H        0.36200    0.70840    0.88000    1.000
    C122     C        0.40950    0.71640    0.06140    1.000
    H128     H        0.43130    0.69930    0.10410    1.000
    C123     C        0.38250    0.76150    0.07050    1.000
    H129     H        0.38650    0.77530    0.12050    1.000
    C124     C        0.34250    0.76680    0.94440    1.000
    H130     H        0.31740    0.78400    0.90350    1.000
    C125     C        0.20550    0.43500    0.73560    1.000
    H131     H        0.23000    0.44380    0.78550    1.000
    H132     H        0.19590    0.46330    0.70450    1.000
    H133     H        0.15290    0.41880    0.74450    1.000
    C126     C        0.22550    0.38840    0.61420    1.000
    Cd8      Cd       0.15418    0.86880    0.52673    1.000
    O36      O        0.12160    0.86045    0.66370    1.000
    O37      O        0.25070    0.86778    0.62880    1.000
    O38      O        0.23450    0.89282    0.94670    1.000
    O39      O        0.99420    0.13892    0.48490    1.000
    O40      O        0.34700    0.87333    0.88760    1.000
    N22      N        0.11250    0.94589    0.54900    1.000
    N23      N        0.08120    0.12406    0.58420    1.000
    H134     H        0.12910    0.13110    0.60550    1.000
    N24      N        0.14920    0.28713    0.48680    1.000
    C127     C        0.12440    0.02960    0.53470    1.000
    H135     H        0.15080    0.05520    0.50940    1.000
    C128     C        0.05410    0.95390    0.60170    1.000
    H136     H        0.02830    0.92750    0.62530    1.000
    C129     C        0.06460    0.03720    0.58970    1.000
    C130     C        0.19690    0.86190    0.68030    1.000
    C131     C        0.22420    0.85570    0.76400    1.000
    H137     H        0.18280    0.83620    0.79150    1.000
    H138     H        0.27730    0.83840    0.76470    1.000
    C132     C        0.23500    0.90190    0.80810    1.000
    C133     C        0.15070    0.92540    0.81930    1.000
    H139     H        0.11170    0.90270    0.84120    1.000
    H140     H        0.15640    0.95210    0.85480    1.000
    H141     H        0.13010    0.93650    0.76910    1.000
    C134     C        0.14540    0.98340    0.51680    1.000
    H142     H        0.18660    0.97860    0.47840    1.000
    C135     C        0.02910    0.99800    0.62380    1.000
    H143     H        0.98750    0.00160    0.66230    1.000
    C136     C        0.09550    0.19620    0.51140    1.000
    C137     C        0.03460    0.08490    0.61430    1.000
    H144     H        0.03560    0.08640    0.67170    1.000
    H145     H        0.97640    0.08840    0.59760    1.000
    C138     C        0.05390    0.14990    0.52530    1.000
    C139     C        0.13130    0.22180    0.56990    1.000
    H146     H        0.13800    0.20840    0.62000    1.000
    C140     C        0.09050    0.21640    0.43860    1.000
    H147     H        0.06870    0.19930    0.39590    1.000
    C141     C        0.11750    0.26150    0.42950    1.000
    H148     H        0.11350    0.27530    0.37950    1.000
    C142     C        0.15750    0.26680    0.55560    1.000
    H149     H        0.18260    0.28400    0.59650    1.000
    C143     C        0.29450    0.93500    0.76440    1.000
    H150     H        0.27000    0.94380    0.71450    1.000
    H151     H        0.30410    0.96330    0.79550    1.000
    H152     H        0.34710    0.91880    0.75550    1.000
    C144     C        0.27450    0.88840    0.88580    1.000
    Cd9      Cd       0.65418    0.63120    0.02673    1.000
    O41      O        0.62160    0.63955    0.16370    1.000
    O42      O        0.75070    0.63222    0.12880    1.000
    O43      O        0.73450    0.60718    0.44670    1.000
    O44      O        0.49420    0.36108    0.98490    1.000
    O45      O        0.84700    0.62667    0.38760    1.000
    N25      N        0.61250    0.55411    0.04900    1.000
    N26      N        0.58120    0.37594    0.08420    1.000
    H153     H        0.62910    0.36890    0.10550    1.000
    N27      N        0.64920    0.21287    0.98680    1.000
    C145     C        0.62440    0.47040    0.03470    1.000
    H154     H        0.65080    0.44480    0.00940    1.000
    C146     C        0.55410    0.54610    0.10170    1.000
    H155     H        0.52830    0.57250    0.12530    1.000
    C147     C        0.56460    0.46280    0.08970    1.000
    C148     C        0.69690    0.63810    0.18030    1.000
    C149     C        0.72420    0.64430    0.26400    1.000
    H156     H        0.68280    0.66380    0.29150    1.000
    H157     H        0.77730    0.66160    0.26470    1.000
    C150     C        0.73500    0.59810    0.30810    1.000
    C151     C        0.65070    0.57460    0.31930    1.000
    H158     H        0.61170    0.59730    0.34120    1.000
    H159     H        0.65640    0.54790    0.35480    1.000
    H160     H        0.63010    0.56350    0.26910    1.000
    C152     C        0.64540    0.51660    0.01680    1.000
    H161     H        0.68660    0.52140    0.97840    1.000
    C153     C        0.52910    0.50200    0.12380    1.000
    H162     H        0.48750    0.49840    0.16230    1.000
    C154     C        0.59550    0.30380    0.01140    1.000
    C155     C        0.53460    0.41510    0.11430    1.000
    H163     H        0.53560    0.41360    0.17170    1.000
    H164     H        0.47640    0.41160    0.09760    1.000
    C156     C        0.55390    0.35010    0.02530    1.000
    C157     C        0.63130    0.27820    0.06990    1.000
    H165     H        0.63800    0.29160    0.12000    1.000
    C158     C        0.59050    0.28360    0.93860    1.000
    H166     H        0.56870    0.30070    0.89590    1.000
    C159     C        0.61750    0.23850    0.92950    1.000
    H167     H        0.61350    0.22470    0.87950    1.000
    C160     C        0.65750    0.23320    0.05560    1.000
    H168     H        0.68260    0.21600    0.09650    1.000
    C161     C        0.79450    0.56500    0.26440    1.000
    H169     H        0.77000    0.55620    0.21450    1.000
    H170     H        0.80410    0.53670    0.29550    1.000
    H171     H        0.84710    0.58120    0.25550    1.000
    C162     C        0.77450    0.61160    0.38580    1.000
    Cd10     Cd       0.84582    0.13120    0.47327    1.000
    O46      O        0.87840    0.13955    0.33630    1.000
    O47      O        0.74930    0.13222    0.37120    1.000
    O48      O        0.76550    0.10718    0.05330    1.000
    O49      O        0.00580    0.86108    0.51510    1.000
    O50      O        0.65300    0.12667    0.11240    1.000
    N28      N        0.88750    0.05411    0.45100    1.000
    N29      N        0.91880    0.87594    0.41580    1.000
    H172     H        0.87090    0.86890    0.39450    1.000
    N30      N        0.85080    0.71287    0.51320    1.000
    C163     C        0.87560    0.97040    0.46530    1.000
    H173     H        0.84920    0.94480    0.49060    1.000
    C164     C        0.94590    0.04610    0.39830    1.000
    H174     H        0.97170    0.07250    0.37470    1.000
    C165     C        0.93540    0.96280    0.41030    1.000
    C166     C        0.80310    0.13810    0.31970    1.000
    C167     C        0.77580    0.14430    0.23600    1.000
    H175     H        0.81720    0.16380    0.20850    1.000
    H176     H        0.72270    0.16160    0.23530    1.000
    C168     C        0.76500    0.09810    0.19190    1.000
    C169     C        0.84930    0.07460    0.18070    1.000
    H177     H        0.88830    0.09730    0.15880    1.000
    H178     H        0.84360    0.04790    0.14520    1.000
    H179     H        0.86990    0.06350    0.23090    1.000
    C170     C        0.85460    0.01660    0.48320    1.000
    H180     H        0.81340    0.02140    0.52160    1.000
    C171     C        0.97090    0.00200    0.37620    1.000
    H181     H        0.01250    0.99840    0.33770    1.000
    C172     C        0.90450    0.80380    0.48860    1.000
    C173     C        0.96540    0.91510    0.38570    1.000
    H182     H        0.96440    0.91360    0.32830    1.000
    H183     H        0.02360    0.91160    0.40240    1.000
    C174     C        0.94610    0.85010    0.47470    1.000
    C175     C        0.86870    0.77820    0.43010    1.000
    H184     H        0.86200    0.79160    0.38000    1.000
    C176     C        0.90950    0.78360    0.56140    1.000
    H185     H        0.93130    0.80070    0.60410    1.000
    C177     C        0.88250    0.73850    0.57050    1.000
    H186     H        0.88650    0.72470    0.62050    1.000
    C178     C        0.84250    0.73320    0.44440    1.000
    H187     H        0.81740    0.71600    0.40350    1.000
    C179     C        0.70550    0.06500    0.23560    1.000
    H188     H        0.73000    0.05620    0.28550    1.000
    H189     H        0.69590    0.03670    0.20450    1.000
    H190     H        0.65290    0.08120    0.24450    1.000
    C180     C        0.72550    0.11160    0.11420    1.000
    Cd11     Cd       0.65418    0.13120    0.97327    1.000
    O51      O        0.62160    0.13955    0.83630    1.000
    O52      O        0.75070    0.13222    0.87120    1.000
    O53      O        0.73450    0.10718    0.55330    1.000
    O54      O        0.49420    0.86108    0.01510    1.000
    O55      O        0.84700    0.12667    0.61240    1.000
    N31      N        0.61250    0.05411    0.95100    1.000
    N32      N        0.58120    0.87594    0.91580    1.000
    H191     H        0.62910    0.86890    0.89450    1.000
    N33      N        0.64920    0.71287    0.01320    1.000
    C181     C        0.62440    0.97040    0.96530    1.000
    H192     H        0.65080    0.94480    0.99060    1.000
    C182     C        0.55410    0.04610    0.89830    1.000
    H193     H        0.52830    0.07250    0.87470    1.000
    C183     C        0.56460    0.96280    0.91030    1.000
    C184     C        0.69690    0.13810    0.81970    1.000
    C185     C        0.72420    0.14430    0.73600    1.000
    H194     H        0.68280    0.16380    0.70850    1.000
    H195     H        0.77730    0.16160    0.73530    1.000
    C186     C        0.73500    0.09810    0.69190    1.000
    C187     C        0.65070    0.07460    0.68070    1.000
    H196     H        0.61170    0.09730    0.65880    1.000
    H197     H        0.65640    0.04790    0.64520    1.000
    H198     H        0.63010    0.06350    0.73090    1.000
    C188     C        0.64540    0.01660    0.98320    1.000
    H199     H        0.68660    0.02140    0.02160    1.000
    C189     C        0.52910    0.00200    0.87620    1.000
    H200     H        0.48750    0.99840    0.83770    1.000
    C190     C        0.59550    0.80380    0.98860    1.000
    C191     C        0.53460    0.91510    0.88570    1.000
    H201     H        0.53560    0.91360    0.82830    1.000
    H202     H        0.47640    0.91160    0.90240    1.000
    C192     C        0.55390    0.85010    0.97470    1.000
    C193     C        0.63130    0.77820    0.93010    1.000
    H203     H        0.63800    0.79160    0.88000    1.000
    C194     C        0.59050    0.78360    0.06140    1.000
    H204     H        0.56870    0.80070    0.10410    1.000
    C195     C        0.61750    0.73850    0.07050    1.000
    H205     H        0.61350    0.72470    0.12050    1.000
    C196     C        0.65750    0.73320    0.94440    1.000
    H206     H        0.68260    0.71600    0.90350    1.000
    C197     C        0.79450    0.06500    0.73560    1.000
    H207     H        0.77000    0.05620    0.78550    1.000
    H208     H        0.80410    0.03670    0.70450    1.000
    H209     H        0.84710    0.08120    0.74450    1.000
    C198     C        0.77450    0.11160    0.61420    1.000
    Cd12     Cd       0.84582    0.63120    0.52673    1.000
    O56      O        0.87840    0.63955    0.66370    1.000
    O57      O        0.74930    0.63222    0.62880    1.000
    O58      O        0.76550    0.60718    0.94670    1.000
    O59      O        0.00580    0.36108    0.48490    1.000
    O60      O        0.65300    0.62667    0.88760    1.000
    N34      N        0.88750    0.55411    0.54900    1.000
    N35      N        0.91880    0.37594    0.58420    1.000
    H210     H        0.87090    0.36890    0.60550    1.000
    N36      N        0.85080    0.21287    0.48680    1.000
    C199     C        0.87560    0.47040    0.53470    1.000
    H211     H        0.84920    0.44480    0.50940    1.000
    C200     C        0.94590    0.54610    0.60170    1.000
    H212     H        0.97170    0.57250    0.62530    1.000
    C201     C        0.93540    0.46280    0.58970    1.000
    C202     C        0.80310    0.63810    0.68030    1.000
    C203     C        0.77580    0.64430    0.76400    1.000
    H213     H        0.81720    0.66380    0.79150    1.000
    H214     H        0.72270    0.66160    0.76470    1.000
    C204     C        0.76500    0.59810    0.80810    1.000
    C205     C        0.84930    0.57460    0.81930    1.000
    H215     H        0.88830    0.59730    0.84120    1.000
    H216     H        0.84360    0.54790    0.85480    1.000
    H217     H        0.86990    0.56350    0.76910    1.000
    C206     C        0.85460    0.51660    0.51680    1.000
    H218     H        0.81340    0.52140    0.47840    1.000
    C207     C        0.97090    0.50200    0.62380    1.000
    H219     H        0.01250    0.49840    0.66230    1.000
    C208     C        0.90450    0.30380    0.51140    1.000
    C209     C        0.96540    0.41510    0.61430    1.000
    H220     H        0.96440    0.41360    0.67170    1.000
    H221     H        0.02360    0.41160    0.59760    1.000
    C210     C        0.94610    0.35010    0.52530    1.000
    C211     C        0.86870    0.27820    0.56990    1.000
    H222     H        0.86200    0.29160    0.62000    1.000
    C212     C        0.90950    0.28360    0.43860    1.000
    H223     H        0.93130    0.30070    0.39590    1.000
    C213     C        0.88250    0.23850    0.42950    1.000
    H224     H        0.88650    0.22470    0.37950    1.000
    C214     C        0.84250    0.23320    0.55560    1.000
    H225     H        0.81740    0.21600    0.59650    1.000
    C215     C        0.70550    0.56500    0.76440    1.000
    H226     H        0.73000    0.55620    0.71450    1.000
    H227     H        0.69590    0.53670    0.79550    1.000
    H228     H        0.65290    0.58120    0.75550    1.000
    C216     C        0.72550    0.61160    0.88580    1.000
    Cd13     Cd       0.15418    0.13120    0.02673    1.000
    O61      O        0.12160    0.13955    0.16370    1.000
    O62      O        0.25070    0.13222    0.12880    1.000
    O63      O        0.23450    0.10718    0.44670    1.000
    O64      O        0.99420    0.86108    0.98490    1.000
    O65      O        0.34700    0.12667    0.38760    1.000
    N37      N        0.11250    0.05411    0.04900    1.000
    N38      N        0.08120    0.87594    0.08420    1.000
    H229     H        0.12910    0.86890    0.10550    1.000
    N39      N        0.14920    0.71287    0.98680    1.000
    C217     C        0.12440    0.97040    0.03470    1.000
    H230     H        0.15080    0.94480    0.00940    1.000
    C218     C        0.05410    0.04610    0.10170    1.000
    H231     H        0.02830    0.07250    0.12530    1.000
    C219     C        0.06460    0.96280    0.08970    1.000
    C220     C        0.19690    0.13810    0.18030    1.000
    C221     C        0.22420    0.14430    0.26400    1.000
    H232     H        0.18280    0.16380    0.29150    1.000
    H233     H        0.27730    0.16160    0.26470    1.000
    C222     C        0.23500    0.09810    0.30810    1.000
    C223     C        0.15070    0.07460    0.31930    1.000
    H234     H        0.11170    0.09730    0.34120    1.000
    H235     H        0.15640    0.04790    0.35480    1.000
    H236     H        0.13010    0.06350    0.26910    1.000
    C224     C        0.14540    0.01660    0.01680    1.000
    H237     H        0.18660    0.02140    0.97840    1.000
    C225     C        0.02910    0.00200    0.12380    1.000
    H238     H        0.98750    0.99840    0.16230    1.000
    C226     C        0.09550    0.80380    0.01140    1.000
    C227     C        0.03460    0.91510    0.11430    1.000
    H239     H        0.03560    0.91360    0.17170    1.000
    H240     H        0.97640    0.91160    0.09760    1.000
    C228     C        0.05390    0.85010    0.02530    1.000
    C229     C        0.13130    0.77820    0.06990    1.000
    H241     H        0.13800    0.79160    0.12000    1.000
    C230     C        0.09050    0.78360    0.93860    1.000
    H242     H        0.06870    0.80070    0.89590    1.000
    C231     C        0.11750    0.73850    0.92950    1.000
    H243     H        0.11350    0.72470    0.87950    1.000
    C232     C        0.15750    0.73320    0.05560    1.000
    H244     H        0.18260    0.71600    0.09650    1.000
    C233     C        0.29450    0.06500    0.26440    1.000
    H245     H        0.27000    0.05620    0.21450    1.000
    H246     H        0.30410    0.03670    0.29550    1.000
    H247     H        0.34710    0.08120    0.25550    1.000
    C234     C        0.27450    0.11160    0.38580    1.000
    Cd14     Cd       0.34582    0.63120    0.47327    1.000
    O66      O        0.37840    0.63955    0.33630    1.000
    O67      O        0.24930    0.63222    0.37120    1.000
    O68      O        0.26550    0.60718    0.05330    1.000
    O69      O        0.50580    0.36108    0.51510    1.000
    O70      O        0.15300    0.62667    0.11240    1.000
    N40      N        0.38750    0.55411    0.45100    1.000
    N41      N        0.41880    0.37594    0.41580    1.000
    H248     H        0.37090    0.36890    0.39450    1.000
    N42      N        0.35080    0.21287    0.51320    1.000
    C235     C        0.37560    0.47040    0.46530    1.000
    H249     H        0.34920    0.44480    0.49060    1.000
    C236     C        0.44590    0.54610    0.39830    1.000
    H250     H        0.47170    0.57250    0.37470    1.000
    C237     C        0.43540    0.46280    0.41030    1.000
    C238     C        0.30310    0.63810    0.31970    1.000
    C239     C        0.27580    0.64430    0.23600    1.000
    H251     H        0.31720    0.66380    0.20850    1.000
    H252     H        0.22270    0.66160    0.23530    1.000
    C240     C        0.26500    0.59810    0.19190    1.000
    C241     C        0.34930    0.57460    0.18070    1.000
    H253     H        0.38830    0.59730    0.15880    1.000
    H254     H        0.34360    0.54790    0.14520    1.000
    H255     H        0.36990    0.56350    0.23090    1.000
    C242     C        0.35460    0.51660    0.48320    1.000
    H256     H        0.31340    0.52140    0.52160    1.000
    C243     C        0.47090    0.50200    0.37620    1.000
    H257     H        0.51250    0.49840    0.33770    1.000
    C244     C        0.40450    0.30380    0.48860    1.000
    C245     C        0.46540    0.41510    0.38570    1.000
    H258     H        0.46440    0.41360    0.32830    1.000
    H259     H        0.52360    0.41160    0.40240    1.000
    C246     C        0.44610    0.35010    0.47470    1.000
    C247     C        0.36870    0.27820    0.43010    1.000
    H260     H        0.36200    0.29160    0.38000    1.000
    C248     C        0.40950    0.28360    0.56140    1.000
    H261     H        0.43130    0.30070    0.60410    1.000
    C249     C        0.38250    0.23850    0.57050    1.000
    H262     H        0.38650    0.22470    0.62050    1.000
    C250     C        0.34250    0.23320    0.44440    1.000
    H263     H        0.31740    0.21600    0.40350    1.000
    C251     C        0.20550    0.56500    0.23560    1.000
    H264     H        0.23000    0.55620    0.28550    1.000
    H265     H        0.19590    0.53670    0.20450    1.000
    H266     H        0.15290    0.58120    0.24450    1.000
    C252     C        0.22550    0.61160    0.11420    1.000
    Cd15     Cd       0.15418    0.63120    0.97327    1.000
    O71      O        0.12160    0.63955    0.83630    1.000
    O72      O        0.25070    0.63222    0.87120    1.000
    O73      O        0.23450    0.60718    0.55330    1.000
    O74      O        0.99420    0.36108    0.01510    1.000
    O75      O        0.34700    0.62667    0.61240    1.000
    N43      N        0.11250    0.55411    0.95100    1.000
    N44      N        0.08120    0.37594    0.91580    1.000
    H267     H        0.12910    0.36890    0.89450    1.000
    N45      N        0.14920    0.21287    0.01320    1.000
    C253     C        0.12440    0.47040    0.96530    1.000
    H268     H        0.15080    0.44480    0.99060    1.000
    C254     C        0.05410    0.54610    0.89830    1.000
    H269     H        0.02830    0.57250    0.87470    1.000
    C255     C        0.06460    0.46280    0.91030    1.000
    C256     C        0.19690    0.63810    0.81970    1.000
    C257     C        0.22420    0.64430    0.73600    1.000
    H270     H        0.18280    0.66380    0.70850    1.000
    H271     H        0.27730    0.66160    0.73530    1.000
    C258     C        0.23500    0.59810    0.69190    1.000
    C259     C        0.15070    0.57460    0.68070    1.000
    H272     H        0.11170    0.59730    0.65880    1.000
    H273     H        0.15640    0.54790    0.64520    1.000
    H274     H        0.13010    0.56350    0.73090    1.000
    C260     C        0.14540    0.51660    0.98320    1.000
    H275     H        0.18660    0.52140    0.02160    1.000
    C261     C        0.02910    0.50200    0.87620    1.000
    H276     H        0.98750    0.49840    0.83770    1.000
    C262     C        0.09550    0.30380    0.98860    1.000
    C263     C        0.03460    0.41510    0.88570    1.000
    H277     H        0.03560    0.41360    0.82830    1.000
    H278     H        0.97640    0.41160    0.90240    1.000
    C264     C        0.05390    0.35010    0.97470    1.000
    C265     C        0.13130    0.27820    0.93010    1.000
    H279     H        0.13800    0.29160    0.88000    1.000
    C266     C        0.09050    0.28360    0.06140    1.000
    H280     H        0.06870    0.30070    0.10410    1.000
    C267     C        0.11750    0.23850    0.07050    1.000
    H281     H        0.11350    0.22470    0.12050    1.000
    C268     C        0.15750    0.23320    0.94440    1.000
    H282     H        0.18260    0.21600    0.90350    1.000
    C269     C        0.29450    0.56500    0.73560    1.000
    H283     H        0.27000    0.55620    0.78550    1.000
    H284     H        0.30410    0.53670    0.70450    1.000
    H285     H        0.34710    0.58120    0.74450    1.000
    C270     C        0.27450    0.61160    0.61420    1.000
    Cd16     Cd       0.34582    0.13120    0.52673    1.000
    O76      O        0.37840    0.13955    0.66370    1.000
    O77      O        0.24930    0.13222    0.62880    1.000
    O78      O        0.26550    0.10718    0.94670    1.000
    O79      O        0.50580    0.86108    0.48490    1.000
    O80      O        0.15300    0.12667    0.88760    1.000
    N46      N        0.38750    0.05411    0.54900    1.000
    N47      N        0.41880    0.87594    0.58420    1.000
    H286     H        0.37090    0.86890    0.60550    1.000
    N48      N        0.35080    0.71287    0.48680    1.000
    C271     C        0.37560    0.97040    0.53470    1.000
    H287     H        0.34920    0.94480    0.50940    1.000
    C272     C        0.44590    0.04610    0.60170    1.000
    H288     H        0.47170    0.07250    0.62530    1.000
    C273     C        0.43540    0.96280    0.58970    1.000
    C274     C        0.30310    0.13810    0.68030    1.000
    C275     C        0.27580    0.14430    0.76400    1.000
    H289     H        0.31720    0.16380    0.79150    1.000
    H290     H        0.22270    0.16160    0.76470    1.000
    C276     C        0.26500    0.09810    0.80810    1.000
    C277     C        0.34930    0.07460    0.81930    1.000
    H291     H        0.38830    0.09730    0.84120    1.000
    H292     H        0.34360    0.04790    0.85480    1.000
    H293     H        0.36990    0.06350    0.76910    1.000
    C278     C        0.35460    0.01660    0.51680    1.000
    H294     H        0.31340    0.02140    0.47840    1.000
    C279     C        0.47090    0.00200    0.62380    1.000
    H295     H        0.51250    0.99840    0.66230    1.000
    C280     C        0.40450    0.80380    0.51140    1.000
    C281     C        0.46540    0.91510    0.61430    1.000
    H296     H        0.46440    0.91360    0.67170    1.000
    H297     H        0.52360    0.91160    0.59760    1.000
    C282     C        0.44610    0.85010    0.52530    1.000
    C283     C        0.36870    0.77820    0.56990    1.000
    H298     H        0.36200    0.79160    0.62000    1.000
    C284     C        0.40950    0.78360    0.43860    1.000
    H299     H        0.43130    0.80070    0.39590    1.000
    C285     C        0.38250    0.73850    0.42950    1.000
    H300     H        0.38650    0.72470    0.37950    1.000
    C286     C        0.34250    0.73320    0.55560    1.000
    H301     H        0.31740    0.71600    0.59650    1.000
    C287     C        0.20550    0.06500    0.76440    1.000
    H302     H        0.23000    0.05620    0.71450    1.000
    H303     H        0.19590    0.03670    0.79550    1.000
    H304     H        0.15290    0.08120    0.75550    1.000
    C288     C        0.22550    0.11160    0.88580    1.000
