# CIF file generated by openbabel 3.1.0, see https://openbabel.org
data_I
_chemical_name_common 'image0'
_cell_length_a 17.041
_cell_length_b 17.041
_cell_length_c 25.371
_cell_angle_alpha 90
_cell_angle_beta 90
_cell_angle_gamma 90
_space_group_name_H-M_alt 'P 1'
_space_group_name_Hall 'P 1'
loop_
    _symmetry_equiv_pos_as_xyz
    x,y,z
loop_
    _atom_site_label
    _atom_site_type_symbol
    _atom_site_fract_x
    _atom_site_fract_y
    _atom_site_fract_z
    _atom_site_occupancy
    Sm1      Sm       0.27553    0.11819    0.80808    1.000
    Cu1      Cu       0.12896    0.37850    0.16824    1.000
    Cu2      Cu       0.11999    0.18517    0.00864    1.000
    Na1      Na       0.23360    0.19430    0.11389    1.000
    N1       N        0.38570    0.85090    0.75380    1.000
    N2       N        0.07930    0.27950    0.96890    1.000
    O1       O        0.32260    0.97630    0.80280    1.000
    O2       O        0.27640    0.02520    0.72890    1.000
    O3       O        0.29760    0.78410    0.82690    1.000
    O4       O        0.26110    0.68880    0.77160    1.000
    O5       O        0.59370    0.88020    0.76950    1.000
    O6       O        0.49650    0.88490    0.82740    1.000
    O7       O        0.10790    0.37960    0.09380    1.000
    O8       O        0.11520    0.25250    0.07220    1.000
    O9       O        0.99930    0.14500    0.99890    1.000
    O10      O        0.89310    0.17900    0.95360    1.000
    O11      O        0.19650    0.20420    0.86260    1.000
    O12      O        0.15920    0.15410    0.93950    1.000
    C1       C        0.30670    0.97130    0.75420    1.000
    C2       C        0.32410    0.89490    0.72590    1.000
    H1       H        0.34110    0.90590    0.69020    1.000
    H2       H        0.27680    0.86350    0.72410    1.000
    C3       C        0.30500    0.74370    0.78410    1.000
    C4       C        0.37230    0.76610    0.75040    1.000
    H3       H        0.36160    0.75160    0.71410    1.000
    H4       H        0.41890    0.73820    0.76180    1.000
    C5       C        0.52310    0.87880    0.78100    1.000
    C6       C        0.46660    0.87540    0.73570    1.000
    H5       H        0.46360    0.92660    0.71920    1.000
    H6       H        0.48570    0.83830    0.70970    1.000
    C7       C        0.10430    0.32420    0.06080    1.000
    C8       C        0.08390    0.34660    0.00600    1.000
    H7       H        0.03360    0.37340    0.00630    1.000
    H8       H        0.12290    0.38340    0.99310    1.000
    C9       C        0.96100    0.19120    0.97060    1.000
    C10      C        0.99890    0.26520    0.95170    1.000
    H9       H        0.99830    0.26480    0.91350    1.000
    H10      H        0.96680    0.30900    0.96310    1.000
    C11      C        0.16400    0.20970    0.90640    1.000
    C12      C        0.13180    0.28690    0.92210    1.000
    H11      H        0.10260    0.30920    0.89290    1.000
    H12      H        0.17470    0.32230    0.93040    1.000
    Sm2      Sm       0.72447    0.88181    0.80808    1.000
    Cu3      Cu       0.87104    0.62150    0.16824    1.000
    Cu4      Cu       0.88001    0.81483    0.00864    1.000
    Na2      Na       0.76640    0.80570    0.11389    1.000
    N3       N        0.61430    0.14910    0.75380    1.000
    N4       N        0.92070    0.72050    0.96890    1.000
    O13      O        0.67740    0.02370    0.80280    1.000
    O14      O        0.72360    0.97480    0.72890    1.000
    O15      O        0.70240    0.21590    0.82690    1.000
    O16      O        0.73890    0.31120    0.77160    1.000
    O17      O        0.40630    0.11980    0.76950    1.000
    O18      O        0.50350    0.11510    0.82740    1.000
    O19      O        0.89210    0.62040    0.09380    1.000
    O20      O        0.88480    0.74750    0.07220    1.000
    O21      O        0.00070    0.85500    0.99890    1.000
    O22      O        0.10690    0.82100    0.95360    1.000
    O23      O        0.80350    0.79580    0.86260    1.000
    O24      O        0.84080    0.84590    0.93950    1.000
    C13      C        0.69330    0.02870    0.75420    1.000
    C14      C        0.67590    0.10510    0.72590    1.000
    H13      H        0.65890    0.09410    0.69020    1.000
    H14      H        0.72320    0.13650    0.72410    1.000
    C15      C        0.69500    0.25630    0.78410    1.000
    C16      C        0.62770    0.23390    0.75040    1.000
    H15      H        0.63840    0.24840    0.71410    1.000
    H16      H        0.58110    0.26180    0.76180    1.000
    C17      C        0.47690    0.12120    0.78100    1.000
    C18      C        0.53340    0.12460    0.73570    1.000
    H17      H        0.53640    0.07340    0.71920    1.000
    H18      H        0.51430    0.16170    0.70970    1.000
    C19      C        0.89570    0.67580    0.06080    1.000
    C20      C        0.91610    0.65340    0.00600    1.000
    H19      H        0.96640    0.62660    0.00630    1.000
    H20      H        0.87710    0.61660    0.99310    1.000
    C21      C        0.03900    0.80880    0.97060    1.000
    C22      C        0.00110    0.73480    0.95170    1.000
    H21      H        0.00170    0.73520    0.91350    1.000
    H22      H        0.03320    0.69100    0.96310    1.000
    C23      C        0.83600    0.79030    0.90640    1.000
    C24      C        0.86820    0.71310    0.92210    1.000
    H23      H        0.89740    0.69080    0.89290    1.000
    H24      H        0.82530    0.67770    0.93040    1.000
    Sm3      Sm       0.11819    0.72447    0.19192    1.000
    Cu5      Cu       0.37850    0.87104    0.83176    1.000
    Cu6      Cu       0.18517    0.88001    0.99136    1.000
    Na3      Na       0.19430    0.76640    0.88611    1.000
    N5       N        0.85090    0.61430    0.24620    1.000
    N6       N        0.27950    0.92070    0.03110    1.000
    O25      O        0.97630    0.67740    0.19720    1.000
    O26      O        0.02520    0.72360    0.27110    1.000
    O27      O        0.78410    0.70240    0.17310    1.000
    O28      O        0.68880    0.73890    0.22840    1.000
    O29      O        0.88020    0.40630    0.23050    1.000
    O30      O        0.88490    0.50350    0.17260    1.000
    O31      O        0.37960    0.89210    0.90620    1.000
    O32      O        0.25250    0.88480    0.92780    1.000
    O33      O        0.14500    0.00070    0.00110    1.000
    O34      O        0.17900    0.10690    0.04640    1.000
    O35      O        0.20420    0.80350    0.13740    1.000
    O36      O        0.15410    0.84080    0.06050    1.000
    C25      C        0.97130    0.69330    0.24580    1.000
    C26      C        0.89490    0.67590    0.27410    1.000
    H25      H        0.90590    0.65890    0.30980    1.000
    H26      H        0.86350    0.72320    0.27590    1.000
    C27      C        0.74370    0.69500    0.21590    1.000
    C28      C        0.76610    0.62770    0.24960    1.000
    H27      H        0.75160    0.63840    0.28590    1.000
    H28      H        0.73820    0.58110    0.23820    1.000
    C29      C        0.87880    0.47690    0.21900    1.000
    C30      C        0.87540    0.53340    0.26430    1.000
    H29      H        0.92660    0.53640    0.28080    1.000
    H30      H        0.83830    0.51430    0.29030    1.000
    C31      C        0.32420    0.89570    0.93920    1.000
    C32      C        0.34660    0.91610    0.99400    1.000
    H31      H        0.37340    0.96640    0.99370    1.000
    H32      H        0.38340    0.87710    0.00690    1.000
    C33      C        0.19120    0.03900    0.02940    1.000
    C34      C        0.26520    0.00110    0.04830    1.000
    H33      H        0.26480    0.00170    0.08650    1.000
    H34      H        0.30900    0.03320    0.03690    1.000
    C35      C        0.20970    0.83600    0.09360    1.000
    C36      C        0.28690    0.86820    0.07790    1.000
    H35      H        0.30920    0.89740    0.10710    1.000
    H36      H        0.32230    0.82530    0.06960    1.000
    Sm4      Sm       0.88181    0.27553    0.19192    1.000
    Cu7      Cu       0.62150    0.12896    0.83176    1.000
    Cu8      Cu       0.81483    0.11999    0.99136    1.000
    Na4      Na       0.80570    0.23360    0.88611    1.000
    N7       N        0.14910    0.38570    0.24620    1.000
    N8       N        0.72050    0.07930    0.03110    1.000
    O37      O        0.02370    0.32260    0.19720    1.000
    O38      O        0.97480    0.27640    0.27110    1.000
    O39      O        0.21590    0.29760    0.17310    1.000
    O40      O        0.31120    0.26110    0.22840    1.000
    O41      O        0.11980    0.59370    0.23050    1.000
    O42      O        0.11510    0.49650    0.17260    1.000
    O43      O        0.62040    0.10790    0.90620    1.000
    O44      O        0.74750    0.11520    0.92780    1.000
    O45      O        0.85500    0.99930    0.00110    1.000
    O46      O        0.82100    0.89310    0.04640    1.000
    O47      O        0.79580    0.19650    0.13740    1.000
    O48      O        0.84590    0.15920    0.06050    1.000
    C37      C        0.02870    0.30670    0.24580    1.000
    C38      C        0.10510    0.32410    0.27410    1.000
    H37      H        0.09410    0.34110    0.30980    1.000
    H38      H        0.13650    0.27680    0.27590    1.000
    C39      C        0.25630    0.30500    0.21590    1.000
    C40      C        0.23390    0.37230    0.24960    1.000
    H39      H        0.24840    0.36160    0.28590    1.000
    H40      H        0.26180    0.41890    0.23820    1.000
    C41      C        0.12120    0.52310    0.21900    1.000
    C42      C        0.12460    0.46660    0.26430    1.000
    H41      H        0.07340    0.46360    0.28080    1.000
    H42      H        0.16170    0.48570    0.29030    1.000
    C43      C        0.67580    0.10430    0.93920    1.000
    C44      C        0.65340    0.08390    0.99400    1.000
    H43      H        0.62660    0.03360    0.99370    1.000
    H44      H        0.61660    0.12290    0.00690    1.000
    C45      C        0.80880    0.96100    0.02940    1.000
    C46      C        0.73480    0.99890    0.04830    1.000
    H45      H        0.73520    0.99830    0.08650    1.000
    H46      H        0.69100    0.96680    0.03690    1.000
    C47      C        0.79030    0.16400    0.09360    1.000
    C48      C        0.71310    0.13180    0.07790    1.000
    H47      H        0.69080    0.10260    0.10710    1.000
    H48      H        0.67770    0.17470    0.06960    1.000
    Sm5      Sm       0.22447    0.61819    0.69192    1.000
    Cu9      Cu       0.37104    0.87850    0.33176    1.000
    Cu10     Cu       0.38001    0.68517    0.49136    1.000
    Na5      Na       0.26640    0.69430    0.38611    1.000
    N9       N        0.11430    0.35090    0.74620    1.000
    N10      N        0.42070    0.77950    0.53110    1.000
    O49      O        0.17740    0.47630    0.69720    1.000
    O50      O        0.22360    0.52520    0.77110    1.000
    O51      O        0.20240    0.28410    0.67310    1.000
    O52      O        0.23890    0.18880    0.72840    1.000
    O53      O        0.90630    0.38020    0.73050    1.000
    O54      O        0.00350    0.38490    0.67260    1.000
    O55      O        0.39210    0.87960    0.40620    1.000
    O56      O        0.38480    0.75250    0.42780    1.000
    O57      O        0.50070    0.64500    0.50110    1.000
    O58      O        0.60690    0.67900    0.54640    1.000
    O59      O        0.30350    0.70420    0.63740    1.000
    O60      O        0.34080    0.65410    0.56050    1.000
    C49      C        0.19330    0.47130    0.74580    1.000
    C50      C        0.17590    0.39490    0.77410    1.000
    H49      H        0.15890    0.40590    0.80980    1.000
    H50      H        0.22320    0.36350    0.77590    1.000
    C51      C        0.19500    0.24370    0.71590    1.000
    C52      C        0.12770    0.26610    0.74960    1.000
    H51      H        0.13840    0.25160    0.78590    1.000
    H52      H        0.08110    0.23820    0.73820    1.000
    C53      C        0.97690    0.37880    0.71900    1.000
    C54      C        0.03340    0.37540    0.76430    1.000
    H53      H        0.03640    0.42660    0.78080    1.000
    H54      H        0.01430    0.33830    0.79030    1.000
    C55      C        0.39570    0.82420    0.43920    1.000
    C56      C        0.41610    0.84660    0.49400    1.000
    H55      H        0.46640    0.87340    0.49370    1.000
    H56      H        0.37710    0.88340    0.50690    1.000
    C57      C        0.53900    0.69120    0.52940    1.000
    C58      C        0.50110    0.76520    0.54830    1.000
    H57      H        0.50170    0.76480    0.58650    1.000
    H58      H        0.53320    0.80900    0.53690    1.000
    C59      C        0.33600    0.70970    0.59360    1.000
    C60      C        0.36820    0.78690    0.57790    1.000
    H59      H        0.39740    0.80920    0.60710    1.000
    H60      H        0.32530    0.82230    0.56960    1.000
    Sm6      Sm       0.77553    0.38181    0.69192    1.000
    Cu11     Cu       0.62896    0.12150    0.33176    1.000
    Cu12     Cu       0.61999    0.31483    0.49136    1.000
    Na6      Na       0.73360    0.30570    0.38611    1.000
    N11      N        0.88570    0.64910    0.74620    1.000
    N12      N        0.57930    0.22050    0.53110    1.000
    O61      O        0.82260    0.52370    0.69720    1.000
    O62      O        0.77640    0.47480    0.77110    1.000
    O63      O        0.79760    0.71590    0.67310    1.000
    O64      O        0.76110    0.81120    0.72840    1.000
    O65      O        0.09370    0.61980    0.73050    1.000
    O66      O        0.99650    0.61510    0.67260    1.000
    O67      O        0.60790    0.12040    0.40620    1.000
    O68      O        0.61520    0.24750    0.42780    1.000
    O69      O        0.49930    0.35500    0.50110    1.000
    O70      O        0.39310    0.32100    0.54640    1.000
    O71      O        0.69650    0.29580    0.63740    1.000
    O72      O        0.65920    0.34590    0.56050    1.000
    C61      C        0.80670    0.52870    0.74580    1.000
    C62      C        0.82410    0.60510    0.77410    1.000
    H61      H        0.84110    0.59410    0.80980    1.000
    H62      H        0.77680    0.63650    0.77590    1.000
    C63      C        0.80500    0.75630    0.71590    1.000
    C64      C        0.87230    0.73390    0.74960    1.000
    H63      H        0.86160    0.74840    0.78590    1.000
    H64      H        0.91890    0.76180    0.73820    1.000
    C65      C        0.02310    0.62120    0.71900    1.000
    C66      C        0.96660    0.62460    0.76430    1.000
    H65      H        0.96360    0.57340    0.78080    1.000
    H66      H        0.98570    0.66170    0.79030    1.000
    C67      C        0.60430    0.17580    0.43920    1.000
    C68      C        0.58390    0.15340    0.49400    1.000
    H67      H        0.53360    0.12660    0.49370    1.000
    H68      H        0.62290    0.11660    0.50690    1.000
    C69      C        0.46100    0.30880    0.52940    1.000
    C70      C        0.49890    0.23480    0.54830    1.000
    H69      H        0.49830    0.23520    0.58650    1.000
    H70      H        0.46680    0.19100    0.53690    1.000
    C71      C        0.66400    0.29030    0.59360    1.000
    C72      C        0.63180    0.21310    0.57790    1.000
    H71      H        0.60260    0.19080    0.60710    1.000
    H72      H        0.67470    0.17770    0.56960    1.000
    Sm7      Sm       0.38181    0.22447    0.30808    1.000
    Cu13     Cu       0.12150    0.37104    0.66824    1.000
    Cu14     Cu       0.31483    0.38001    0.50864    1.000
    Na7      Na       0.30570    0.26640    0.61389    1.000
    N13      N        0.64910    0.11430    0.25380    1.000
    N14      N        0.22050    0.42070    0.46890    1.000
    O73      O        0.52370    0.17740    0.30280    1.000
    O74      O        0.47480    0.22360    0.22890    1.000
    O75      O        0.71590    0.20240    0.32690    1.000
    O76      O        0.81120    0.23890    0.27160    1.000
    O77      O        0.61980    0.90630    0.26950    1.000
    O78      O        0.61510    0.00350    0.32740    1.000
    O79      O        0.12040    0.39210    0.59380    1.000
    O80      O        0.24750    0.38480    0.57220    1.000
    O81      O        0.35500    0.50070    0.49890    1.000
    O82      O        0.32100    0.60690    0.45360    1.000
    O83      O        0.29580    0.30350    0.36260    1.000
    O84      O        0.34590    0.34080    0.43950    1.000
    C73      C        0.52870    0.19330    0.25420    1.000
    C74      C        0.60510    0.17590    0.22590    1.000
    H73      H        0.59410    0.15890    0.19020    1.000
    H74      H        0.63650    0.22320    0.22410    1.000
    C75      C        0.75630    0.19500    0.28410    1.000
    C76      C        0.73390    0.12770    0.25040    1.000
    H75      H        0.74840    0.13840    0.21410    1.000
    H76      H        0.76180    0.08110    0.26180    1.000
    C77      C        0.62120    0.97690    0.28100    1.000
    C78      C        0.62460    0.03340    0.23570    1.000
    H77      H        0.57340    0.03640    0.21920    1.000
    H78      H        0.66170    0.01430    0.20970    1.000
    C79      C        0.17580    0.39570    0.56080    1.000
    C80      C        0.15340    0.41610    0.50600    1.000
    H79      H        0.12660    0.46640    0.50630    1.000
    H80      H        0.11660    0.37710    0.49310    1.000
    C81      C        0.30880    0.53900    0.47060    1.000
    C82      C        0.23480    0.50110    0.45170    1.000
    H81      H        0.23520    0.50170    0.41350    1.000
    H82      H        0.19100    0.53320    0.46310    1.000
    C83      C        0.29030    0.33600    0.40640    1.000
    C84      C        0.21310    0.36820    0.42210    1.000
    H83      H        0.19080    0.39740    0.39290    1.000
    H84      H        0.17770    0.32530    0.43040    1.000
    Sm8      Sm       0.61819    0.77553    0.30808    1.000
    Cu15     Cu       0.87850    0.62896    0.66824    1.000
    Cu16     Cu       0.68517    0.61999    0.50864    1.000
    Na8      Na       0.69430    0.73360    0.61389    1.000
    N15      N        0.35090    0.88570    0.25380    1.000
    N16      N        0.77950    0.57930    0.46890    1.000
    O85      O        0.47630    0.82260    0.30280    1.000
    O86      O        0.52520    0.77640    0.22890    1.000
    O87      O        0.28410    0.79760    0.32690    1.000
    O88      O        0.18880    0.76110    0.27160    1.000
    O89      O        0.38020    0.09370    0.26950    1.000
    O90      O        0.38490    0.99650    0.32740    1.000
    O91      O        0.87960    0.60790    0.59380    1.000
    O92      O        0.75250    0.61520    0.57220    1.000
    O93      O        0.64500    0.49930    0.49890    1.000
    O94      O        0.67900    0.39310    0.45360    1.000
    O95      O        0.70420    0.69650    0.36260    1.000
    O96      O        0.65410    0.65920    0.43950    1.000
    C85      C        0.47130    0.80670    0.25420    1.000
    C86      C        0.39490    0.82410    0.22590    1.000
    H85      H        0.40590    0.84110    0.19020    1.000
    H86      H        0.36350    0.77680    0.22410    1.000
    C87      C        0.24370    0.80500    0.28410    1.000
    C88      C        0.26610    0.87230    0.25040    1.000
    H87      H        0.25160    0.86160    0.21410    1.000
    H88      H        0.23820    0.91890    0.26180    1.000
    C89      C        0.37880    0.02310    0.28100    1.000
    C90      C        0.37540    0.96660    0.23570    1.000
    H89      H        0.42660    0.96360    0.21920    1.000
    H90      H        0.33830    0.98570    0.20970    1.000
    C91      C        0.82420    0.60430    0.56080    1.000
    C92      C        0.84660    0.58390    0.50600    1.000
    H91      H        0.87340    0.53360    0.50630    1.000
    H92      H        0.88340    0.62290    0.49310    1.000
    C93      C        0.69120    0.46100    0.47060    1.000
    C94      C        0.76520    0.49890    0.45170    1.000
    H93      H        0.76480    0.49830    0.41350    1.000
    H94      H        0.80900    0.46680    0.46310    1.000
    C95      C        0.70970    0.66400    0.40640    1.000
    C96      C        0.78690    0.63180    0.42210    1.000
    H95      H        0.80920    0.60260    0.39290    1.000
    H96      H        0.82230    0.67470    0.43040    1.000
    Na9      Na       0.00000    0.00000    0.00000    1.000
    Na10     Na       0.50000    0.50000    0.50000    1.000
