data_functionalizedCrystal
_audit_creation_method	'EQeq! by Chris Wilmer'
_symmetry_space_group_name_H-M	'P1'
_symmetry_Int_Tables_number	1
_symmetry_cell_setting	triclinic
loop_
_symmetry_equiv_pos_as_xyz
  x,y,z
_cell_length_a	9.109
_cell_length_b	11.021
_cell_length_c	11.987
_cell_angle_alpha	90
_cell_angle_beta	90
_cell_angle_gamma	90
loop_
_atom_site_label
_atom_site_type_symbol
_atom_site_fract_x
_atom_site_fract_y
_atom_site_fract_z
_atom_site_charge
Mof_P 	P 	0.5416	0.3135	0.4062	0.71
Mof_O 	O 	0.5432	0.3961	0.5095	-0.29
Mof_O 	O 	0.5353	0.1816	0.4368	-0.386
Mof_O 	O 	0.4079	0.3527	0.3341	-1.009
Mof_O 	O 	0.3168	0.6556	0.6599	-1.017
Mof_P 	P 	0.5416	0.1865	0.0938	0.688
Mof_O 	O 	0.5432	0.1039	0.9905	-0.259
Mof_O 	O 	0.5353	0.3184	0.0632	-0.386
Mof_O 	O 	0.4079	0.1473	0.1659	-1.016
Mof_O 	O 	0.3168	0.8444	0.8401	-1.008
Mof_P 	P 	0.9584	0.6865	0.9062	0.733
Mof_O 	O 	0.9568	0.6039	0.0095	-0.284
Mof_O 	O 	0.9647	0.8184	0.9368	-0.36
Mof_O 	O 	0.0921	0.6473	0.8341	-1.022
Mof_O 	O 	0.1832	0.3444	0.1599	-1.014
Mof_P 	P 	0.9584	0.8135	0.5938	0.721
Mof_O 	O 	0.9568	0.8961	0.4905	-0.253
Mof_O 	O 	0.9647	0.6816	0.5632	-0.372
Mof_O 	O 	0.0921	0.8527	0.6659	-1.017
Mof_O 	O 	0.1832	0.1556	0.3401	-1.018
Mof_P 	P 	0.4584	0.6865	0.5938	0.71
Mof_O 	O 	0.4568	0.6039	0.4905	-0.29
Mof_O 	O 	0.4647	0.8184	0.5632	-0.373
Mof_O 	O 	0.5921	0.6473	0.6659	-1.012
Mof_O 	O 	0.6832	0.3444	0.3401	-1.012
Mof_P 	P 	0.4584	0.8135	0.9062	0.722
Mof_O 	O 	0.4568	0.8961	0.0095	-0.281
Mof_O 	O 	0.4647	0.6816	0.9368	-0.373
Mof_O 	O 	0.5921	0.8527	0.8341	-1.004
Mof_O 	O 	0.6832	0.1556	0.1599	-1.018
Mof_P 	P 	0.0416	0.3135	0.0938	0.67
Mof_O 	O 	0.0432	0.3961	0.9905	-0.257
Mof_O 	O 	0.0353	0.1816	0.0632	-0.403
Mof_O 	O 	0.9079	0.3527	0.1659	-0.991
Mof_O 	O 	0.8168	0.6556	0.8401	-1.013
Mof_P 	P 	0.0416	0.1865	0.4062	0.691
Mof_O 	O 	0.0432	0.1039	0.5095	-0.296
Mof_O 	O 	0.0353	0.3184	0.4368	-0.387
Mof_O 	O 	0.9079	0.1473	0.3341	-0.999
Mof_O 	O 	0.8168	0.8444	0.6599	-1.009
Mof_Ga	Ga	0.7035	0.75	0.75	3.757
Mof_Ga	Ga	0.7965	0.25	0.25	3.74
Mof_Ga	Ga	0.2965	0.25	0.25	3.719
Mof_Ga	Ga	0.2035	0.75	0.75	3.742
Mof_H 	H 	0.5	0.5	0.5	0.233
Mof_H 	H 	0.5	0	-0	0.194
Mof_H 	H 	-0	0.5	-0	0.199
Mof_H 	H 	2.46701e-33	0	0.5	0.2
_end
