data_functionalizedCrystal
_audit_creation_method	'EQeq! by Chris Wilmer'
_symmetry_space_group_name_H-M	'P1'
_symmetry_Int_Tables_number	1
_symmetry_cell_setting	triclinic
loop_
_symmetry_equiv_pos_as_xyz
  x,y,z
_cell_length_a	10.006
_cell_length_b	18.34
_cell_length_c	20.26
_cell_angle_alpha	88.72
_cell_angle_beta	83.46
_cell_angle_gamma	86.86
loop_
_atom_site_label
_atom_site_type_symbol
_atom_site_fract_x
_atom_site_fract_y
_atom_site_fract_z
_atom_site_charge
Mof_Na	Na	0.8929	0.7208	0.8791	1.764
Mof_Cd	Cd	0.88666	0.54786	0.96064	0.464
Mof_Cd	Cd	0.3893	0.9598	0.4549	0.538
Mof_C 	C 	0.964	0.5971	0.1007	0.326
Mof_C 	C 	0.957	0.6564	0.1534	-0.118
Mof_C 	C 	0.0432	0.6513	0.2015	0.053
Mof_H 	H 	0.1069	0.6124	0.2015	0.019
Mof_C 	C 	0.0356	0.7045	0.2507	-0.146
Mof_H 	H 	0.0922	0.699	0.284	0.081
Mof_C 	C 	0.9499	0.7624	0.2511	0.091
Mof_C 	C 	0.8626	0.7681	0.2011	-0.136
Mof_H 	H 	0.7979	0.8066	0.2026	0.094
Mof_C 	C 	0.8692	0.7184	0.1497	0.051
Mof_H 	H 	0.8178	0.726	0.1145	0.017
Mof_C 	C 	0.9346	0.8207	0.3043	-0.038
Mof_C 	C 	0.8113	0.8492	0.3304	0.01
Mof_H 	H 	0.7339	0.8351	0.3138	0.045
Mof_C 	C 	0.8003	0.8997	0.3824	-0.12
Mof_C 	C 	0.9163	0.9241	0.404	0.042
Mof_H 	H 	0.911	0.9596	0.4363	0.043
Mof_C 	C 	0.0393	0.8949	0.377	-0.097
Mof_C 	C 	0.0508	0.8402	0.3303	-0.007
Mof_H 	H 	0.134	0.8169	0.3167	0.044
Mof_C 	C 	0.1687	0.9121	0.4007	0.315
Mof_C 	C 	0.6669	0.9305	0.4118	0.432
Mof_C 	C 	0.4827	0.8933	0.5852	0.325
Mof_C 	C 	0.463	0.8378	0.6448	-0.075
Mof_C 	C 	0.387	0.7762	0.6364	0.005
Mof_H 	H 	0.3503	0.7692	0.597	0.035
Mof_C 	C 	0.3684	0.7238	0.6925	-0.132
Mof_H 	H 	0.3159	0.6836	0.6917	0.063
Mof_C 	C 	0.4327	0.7385	0.7449	0.084
Mof_C 	C 	0.5028	0.7971	0.7523	-0.124
Mof_H 	H 	0.5354	0.8045	0.7927	0.036
Mof_C 	C 	0.5295	0.8505	0.6971	0.002
Mof_H 	H 	0.5863	0.8889	0.6985	0.037
Mof_C 	C 	0.4199	0.6812	0.8001	-0.115
Mof_C 	C 	0.2931	0.654	0.8227	0.063
Mof_H 	H 	0.2188	0.6646	0.7998	-0.042
Mof_C 	C 	0.282	0.609	0.8829	-0.202
Mof_C 	C 	0.3939	0.5872	0.9102	0.12
Mof_H 	H 	0.3871	0.5541	0.9458	0.017
Mof_C 	C 	0.5203	0.6125	0.8871	-0.217
Mof_C 	C 	0.5296	0.6601	0.8309	0.093
Mof_H 	H 	0.613	0.6772	0.8146	-0.069
Mof_C 	C 	0.65	0.5836	0.9165	0.516
Mof_C 	C 	0.148	0.5844	0.913	0.413
Mof_O 	O 	0.6509	0.5337	0.9481	-0.387
Mof_O 	O 	0.7435	0.6295	0.9126	-0.608
Mof_O 	O 	0.1388	0.548	0.9641	-0.333
Mof_O 	O 	0.042	0.6082	0.8877	-0.53
Mof_O 	O 	0.4052	0.8882	0.5411	-0.292
Mof_O 	O 	0.5782	0.9309	0.5928	-0.291
Mof_O 	O 	0.1692	0.965	0.4415	-0.268
Mof_O 	O 	0.2792	0.8894	0.3815	-0.273
Mof_O 	O 	0.675	0.9665	0.4579	-0.338
Mof_O 	O 	0.5676	0.9087	0.3956	-0.328
Mof_O 	O 	0.8878	0.6119	0.0536	-0.319
Mof_O 	O 	0.0541	0.5491	0.103	-0.299
Mof_Na	Na	0.1071	0.2792	0.1209	1.763
Mof_Cd	Cd	0.11334	0.45214	0.03936	0.463
Mof_Cd	Cd	0.6107	0.0402	0.5451	0.537
Mof_C 	C 	0.036	0.4029	0.8993	0.325
Mof_C 	C 	0.043	0.3436	0.8466	-0.118
Mof_C 	C 	0.9568	0.3487	0.7985	0.053
Mof_H 	H 	0.8931	0.3876	0.7985	0.019
Mof_C 	C 	0.9644	0.2955	0.7493	-0.146
Mof_H 	H 	0.9078	0.301	0.716	0.081
Mof_C 	C 	0.0501	0.2376	0.7489	0.091
Mof_C 	C 	0.1374	0.2319	0.7989	-0.136
Mof_H 	H 	0.2021	0.1934	0.7974	0.094
Mof_C 	C 	0.1308	0.2816	0.8503	0.051
Mof_H 	H 	0.1822	0.274	0.8855	0.017
Mof_C 	C 	0.0654	0.1793	0.6957	-0.038
Mof_C 	C 	0.1887	0.1508	0.6696	0.01
Mof_H 	H 	0.2661	0.1649	0.6862	0.045
Mof_C 	C 	0.1997	0.1003	0.6176	-0.12
Mof_C 	C 	0.0837	0.0759	0.596	0.042
Mof_H 	H 	0.089	0.0404	0.5637	0.043
Mof_C 	C 	0.9607	0.1051	0.623	-0.097
Mof_C 	C 	0.9492	0.1598	0.6697	-0.007
Mof_H 	H 	0.866	0.1831	0.6833	0.044
Mof_C 	C 	0.8313	0.0879	0.5993	0.315
Mof_C 	C 	0.3331	0.0695	0.5882	0.432
Mof_C 	C 	0.5173	0.1067	0.4148	0.325
Mof_C 	C 	0.537	0.1622	0.3552	-0.075
Mof_C 	C 	0.613	0.2238	0.3636	0.005
Mof_H 	H 	0.6497	0.2308	0.403	0.035
Mof_C 	C 	0.6316	0.2762	0.3075	-0.132
Mof_H 	H 	0.6841	0.3164	0.3083	0.063
Mof_C 	C 	0.5673	0.2615	0.2551	0.084
Mof_C 	C 	0.4972	0.2029	0.2477	-0.124
Mof_H 	H 	0.4646	0.1955	0.2073	0.036
Mof_C 	C 	0.4705	0.1495	0.3029	0.002
Mof_H 	H 	0.4137	0.1111	0.3015	0.037
Mof_C 	C 	0.5801	0.3188	0.1999	-0.115
Mof_C 	C 	0.7069	0.346	0.1773	0.063
Mof_H 	H 	0.7812	0.3354	0.2002	-0.042
Mof_C 	C 	0.718	0.391	0.1171	-0.202
Mof_C 	C 	0.6061	0.4128	0.0898	0.12
Mof_H 	H 	0.6129	0.4459	0.0542	0.017
Mof_C 	C 	0.4797	0.3875	0.1129	-0.217
Mof_C 	C 	0.4704	0.3399	0.1691	0.093
Mof_H 	H 	0.387	0.3228	0.1854	-0.069
Mof_C 	C 	0.35	0.4164	0.0835	0.516
Mof_C 	C 	0.852	0.4156	0.087	0.413
Mof_O 	O 	0.3491	0.4663	0.0519	-0.387
Mof_O 	O 	0.2565	0.3705	0.0874	-0.608
Mof_O 	O 	0.8612	0.452	0.0359	-0.333
Mof_O 	O 	0.958	0.3918	0.1123	-0.53
Mof_O 	O 	0.5948	0.1118	0.4589	-0.292
Mof_O 	O 	0.4218	0.0691	0.4072	-0.291
Mof_O 	O 	0.8308	0.035	0.5585	-0.268
Mof_O 	O 	0.7208	0.1106	0.6185	-0.273
Mof_O 	O 	0.325	0.0335	0.5421	-0.338
Mof_O 	O 	0.4324	0.0913	0.6044	-0.328
Mof_O 	O 	0.1122	0.3881	0.9464	-0.319
Mof_O 	O 	0.9459	0.4509	0.897	-0.299
Mof_Cd	Cd	0.91568	0.96922	0.01845	0.325
Mof_Cl	Cl	0.7295	0.8823	0.0525	-0.422
Mof_N 	N 	0.9002	0.0835	0.0606	-0.185
Mof_N 	N 	0.9019	0.0362	0.9219	-0.174
Mof_N 	N 	0.0014	0.1066	0.3674	-0.088
Mof_N 	N 	0.54	0.3367	0.9232	-0.09
Mof_C 	C 	0.4665	0.4001	0.8976	-0.392
Mof_H 	H 	0.4283	0.3869	0.8585	0.153
Mof_H 	H 	0.5271	0.4385	0.8867	0.164
Mof_H 	H 	0.3958	0.4167	0.9308	0.171
Mof_C 	C 	0.6618	0.3427	0.9335	0.049
Mof_H 	H 	0.6961	0.3889	0.9287	0.042
Mof_C 	C 	0.7527	0.282	0.9524	-0.135
Mof_H 	H 	0.8384	0.2901	0.9634	0.06
Mof_C 	C 	0.7075	0.2152	0.9533	0.095
Mof_C 	C 	0.5568	0.2119	0.9517	-0.158
Mof_H 	H 	0.5098	0.171	0.9658	0.103
Mof_C 	C 	0.497	0.2725	0.9284	0.077
Mof_H 	H 	0.4131	0.2671	0.9141	0.014
Mof_C 	C 	0.7866	0.1464	0.9726	-0.114
Mof_C 	C 	0.8194	0.1366	0.0394	0.088
Mof_C 	C 	0.7735	0.1886	0.0919	-0.112
Mof_H 	H 	0.7196	0.2313	0.0892	0.046
Mof_C 	C 	0.8293	0.1594	0.1464	-0.136
Mof_H 	H 	0.8155	0.1781	0.189	0.03
Mof_C 	C 	0.9123	0.0955	0.1266	0.06
Mof_C 	C 	0.8242	0.1037	0.9161	0.092
Mof_C 	C 	0.7946	0.1168	0.8489	-0.072
Mof_H 	H 	0.743	0.1562	0.8339	0.067
Mof_C 	C 	0.8548	0.0622	0.8117	-0.079
Mof_H 	H 	0.8525	0.0574	0.7663	0.073
Mof_C 	C 	0.9244	0.0117	0.8542	0.086
Mof_C 	C 	0.9936	0.0493	0.1648	-0.128
Mof_C 	C 	0.9942	0.0703	0.2373	0.086
Mof_C 	C 	0.8794	0.0778	0.2805	-0.158
Mof_H 	H 	0.7963	0.0709	0.2658	0.093
Mof_C 	C 	0.8862	0.0958	0.346	0.06
Mof_H 	H 	0.8075	0.1002	0.3752	0.03
Mof_C 	C 	0.1221	0.0815	0.2613	-0.175
Mof_H 	H 	0.2034	0.0742	0.2345	0.061
Mof_C 	C 	0.1164	0.1035	0.3251	0.053
Mof_H 	H 	0.1953	0.1171	0.3405	0.016
Mof_C 	C 	0.011	0.1285	0.4376	-0.406
Mof_H 	H 	0.9307	0.1567	0.4539	0.159
Mof_H 	H 	0.0201	0.0856	0.465	0.182
Mof_H 	H 	0.0878	0.1573	0.4388	0.157
Mof_Cd	Cd	0.08432	0.03078	0.98155	0.325
Mof_Cl	Cl	0.2705	0.1177	0.9475	-0.422
Mof_N 	N 	0.0998	0.9165	0.9394	-0.185
Mof_N 	N 	0.0981	0.9638	0.0781	-0.174
Mof_N 	N 	0.9986	0.8934	0.6326	-0.088
Mof_N 	N 	0.46	0.6633	0.0768	-0.09
Mof_C 	C 	0.5335	0.5999	0.1024	-0.392
Mof_H 	H 	0.5717	0.6131	0.1415	0.153
Mof_H 	H 	0.4729	0.5615	0.1133	0.164
Mof_H 	H 	0.6042	0.5833	0.0692	0.171
Mof_C 	C 	0.3382	0.6573	0.0665	0.049
Mof_H 	H 	0.3039	0.6111	0.0713	0.042
Mof_C 	C 	0.2473	0.718	0.0476	-0.135
Mof_H 	H 	0.1616	0.7099	0.0366	0.06
Mof_C 	C 	0.2925	0.7848	0.0467	0.095
Mof_C 	C 	0.4432	0.7881	0.0483	-0.158
Mof_H 	H 	0.4902	0.829	0.0342	0.103
Mof_C 	C 	0.503	0.7275	0.0716	0.077
Mof_H 	H 	0.5869	0.7329	0.0859	0.014
Mof_C 	C 	0.2134	0.8536	0.0274	-0.114
Mof_C 	C 	0.1806	0.8634	0.9606	0.088
Mof_C 	C 	0.2265	0.8114	0.9081	-0.112
Mof_H 	H 	0.2804	0.7687	0.9108	0.046
Mof_C 	C 	0.1707	0.8406	0.8536	-0.136
Mof_H 	H 	0.1845	0.8219	0.811	0.03
Mof_C 	C 	0.0877	0.9045	0.8734	0.06
Mof_C 	C 	0.1758	0.8963	0.0839	0.092
Mof_C 	C 	0.2054	0.8832	0.1511	-0.072
Mof_H 	H 	0.257	0.8438	0.1661	0.067
Mof_C 	C 	0.1452	0.9378	0.1883	-0.079
Mof_H 	H 	0.1475	0.9426	0.2337	0.073
Mof_C 	C 	0.0756	0.9883	0.1458	0.086
Mof_C 	C 	0.0064	0.9507	0.8352	-0.128
Mof_C 	C 	0.0058	0.9297	0.7627	0.086
Mof_C 	C 	0.1206	0.9222	0.7195	-0.158
Mof_H 	H 	0.2037	0.9291	0.7342	0.093
Mof_C 	C 	0.1138	0.9042	0.654	0.06
Mof_H 	H 	0.1925	0.8998	0.6248	0.03
Mof_C 	C 	0.8779	0.9185	0.7387	-0.175
Mof_H 	H 	0.7966	0.9258	0.7655	0.061
Mof_C 	C 	0.8836	0.8965	0.6749	0.053
Mof_H 	H 	0.8047	0.8829	0.6595	0.016
Mof_C 	C 	0.989	0.8715	0.5624	-0.406
Mof_H 	H 	0.0693	0.8433	0.5461	0.159
Mof_H 	H 	0.9799	0.9144	0.535	0.182
Mof_H 	H 	0.9122	0.8427	0.5612	0.157
_end
