# CIF file generated by openbabel 3.1.0, see https://openbabel.org
data_I
_chemical_name_common 'image0'
_cell_length_a 42.145
_cell_length_b 14.296
_cell_length_c 13.771
_cell_angle_alpha 90
_cell_angle_beta 101.683
_cell_angle_gamma 90
_space_group_name_H-M_alt 'P 1'
_space_group_name_Hall 'P 1'
loop_
    _symmetry_equiv_pos_as_xyz
    x,y,z
loop_
    _atom_site_label
    _atom_site_type_symbol
    _atom_site_fract_x
    _atom_site_fract_y
    _atom_site_fract_z
    _atom_site_occupancy
    C1       C        0.25235    0.08570    0.07990    1.000
    C2       C        0.27319    0.01220    0.14140    1.000
    C3       C        0.30510    0.00100    0.13260    1.000
    H1       H        0.31360    0.03930    0.08960    1.000
    C4       C        0.32470    0.93300    0.18760    1.000
    C5       C        0.31082    0.87880    0.25250    1.000
    H2       H        0.32340    0.83340    0.29050    1.000
    C6       C        0.27907    0.89000    0.26240    1.000
    C7       C        0.25996    0.95510    0.20400    1.000
    H3       H        0.23820    0.96060    0.20670    1.000
    C8       C        0.26584    0.82990    0.33660    1.000
    C9       C        0.35836    0.91710    0.17600    1.000
    C10      C        0.37833    0.98750    0.15370    1.000
    H4       H        0.37030    0.04830    0.14690    1.000
    C11      C        0.40938    0.97150    0.14130    1.000
    H5       H        0.42200    0.02160    0.12880    1.000
    C12      C        0.42207    0.88240    0.14690    1.000
    C13      C        0.40292    0.80980    0.16960    1.000
    H6       H        0.41090    0.74900    0.17440    1.000
    C14      C        0.37195    0.82720    0.18500    1.000
    H7       H        0.35980    0.77770    0.20180    1.000
    C15      C        0.45611    0.86160    0.13260    1.000
    C16      C        0.47662    0.93560    0.12270    1.000
    H8       H        0.46970    0.99690    0.12740    1.000
    C17      C        0.50747    0.91800    0.10560    1.000
    H9       H        0.52120    0.96750    0.09900    1.000
    C18      C        0.51781    0.82640    0.09860    1.000
    C19      C        0.49730    0.75240    0.10850    1.000
    H10      H        0.50420    0.69110    0.10380    1.000
    C20      C        0.46645    0.77000    0.12550    1.000
    H11      H        0.45270    0.72050    0.13220    1.000
    C21      C        0.55155    0.80930    0.07780    1.000
    C22      C        0.57349    0.88050    0.07320    1.000
    H12      H        0.56820    0.94160    0.08670    1.000
    C23      C        0.60308    0.86220    0.04890    1.000
    H13      H        0.61700    0.91160    0.04360    1.000
    C24      C        0.61225    0.77260    0.03240    1.000
    C25      C        0.59122    0.70030    0.04390    1.000
    H14      H        0.59770    0.63870    0.03830    1.000
    C26      C        0.56088    0.71790    0.06350    1.000
    H15      H        0.54670    0.66870    0.06720    1.000
    C27      C        0.64392    0.75360    0.00320    1.000
    O1       O        0.22238    0.07370    0.05630    1.000
    O2       O        0.26545    0.15670    0.05170    1.000
    O3       O        0.23724    0.84510    0.34570    1.000
    O4       O        0.28434    0.76940    0.38320    1.000
    O5       O        0.65464    0.67120    0.01020    1.000
    O6       O        0.65931    0.81740    0.97310    1.000
    Tb1      Tb       0.20398    0.20869    0.95456    1.000
    C28      C        0.75235    0.58570    0.07990    1.000
    C29      C        0.77319    0.51220    0.14140    1.000
    C30      C        0.80510    0.50100    0.13260    1.000
    H16      H        0.81360    0.53930    0.08960    1.000
    C31      C        0.82470    0.43300    0.18760    1.000
    C32      C        0.81082    0.37880    0.25250    1.000
    H17      H        0.82340    0.33340    0.29050    1.000
    C33      C        0.77907    0.39000    0.26240    1.000
    C34      C        0.75996    0.45510    0.20400    1.000
    H18      H        0.73820    0.46060    0.20670    1.000
    C35      C        0.76584    0.32990    0.33660    1.000
    C36      C        0.85836    0.41710    0.17600    1.000
    C37      C        0.87833    0.48750    0.15370    1.000
    H19      H        0.87030    0.54830    0.14690    1.000
    C38      C        0.90938    0.47150    0.14130    1.000
    H20      H        0.92200    0.52160    0.12880    1.000
    C39      C        0.92207    0.38240    0.14690    1.000
    C40      C        0.90292    0.30980    0.16960    1.000
    H21      H        0.91090    0.24900    0.17440    1.000
    C41      C        0.87195    0.32720    0.18500    1.000
    H22      H        0.85980    0.27770    0.20180    1.000
    C42      C        0.95611    0.36160    0.13260    1.000
    C43      C        0.97662    0.43560    0.12270    1.000
    H23      H        0.96970    0.49690    0.12740    1.000
    C44      C        0.00747    0.41800    0.10560    1.000
    H24      H        0.02120    0.46750    0.09900    1.000
    C45      C        0.01781    0.32640    0.09860    1.000
    C46      C        0.99730    0.25240    0.10850    1.000
    H25      H        0.00420    0.19110    0.10380    1.000
    C47      C        0.96645    0.27000    0.12550    1.000
    H26      H        0.95270    0.22050    0.13220    1.000
    C48      C        0.05155    0.30930    0.07780    1.000
    C49      C        0.07349    0.38050    0.07320    1.000
    H27      H        0.06820    0.44160    0.08670    1.000
    C50      C        0.10308    0.36220    0.04890    1.000
    H28      H        0.11700    0.41160    0.04360    1.000
    C51      C        0.11225    0.27260    0.03240    1.000
    C52      C        0.09122    0.20030    0.04390    1.000
    H29      H        0.09770    0.13870    0.03830    1.000
    C53      C        0.06088    0.21790    0.06350    1.000
    H30      H        0.04670    0.16870    0.06720    1.000
    C54      C        0.14392    0.25360    0.00320    1.000
    O7       O        0.72238    0.57370    0.05630    1.000
    O8       O        0.76545    0.65670    0.05170    1.000
    O9       O        0.73724    0.34510    0.34570    1.000
    O10      O        0.78434    0.26940    0.38320    1.000
    O11      O        0.15464    0.17120    0.01020    1.000
    O12      O        0.15931    0.31740    0.97310    1.000
    Tb2      Tb       0.70398    0.70869    0.95456    1.000
    C55      C        0.74765    0.08570    0.42010    1.000
    C56      C        0.72681    0.01220    0.35860    1.000
    C57      C        0.69490    0.00100    0.36740    1.000
    H31      H        0.68640    0.03930    0.41040    1.000
    C58      C        0.67530    0.93300    0.31240    1.000
    C59      C        0.68918    0.87880    0.24750    1.000
    H32      H        0.67660    0.83340    0.20950    1.000
    C60      C        0.72093    0.89000    0.23760    1.000
    C61      C        0.74004    0.95510    0.29600    1.000
    H33      H        0.76180    0.96060    0.29330    1.000
    C62      C        0.73416    0.82990    0.16340    1.000
    C63      C        0.64164    0.91710    0.32400    1.000
    C64      C        0.62167    0.98750    0.34630    1.000
    H34      H        0.62970    0.04830    0.35310    1.000
    C65      C        0.59062    0.97150    0.35870    1.000
    H35      H        0.57800    0.02160    0.37120    1.000
    C66      C        0.57793    0.88240    0.35310    1.000
    C67      C        0.59708    0.80980    0.33040    1.000
    H36      H        0.58910    0.74900    0.32560    1.000
    C68      C        0.62805    0.82720    0.31500    1.000
    H37      H        0.64020    0.77770    0.29820    1.000
    C69      C        0.54389    0.86160    0.36740    1.000
    C70      C        0.52338    0.93560    0.37730    1.000
    H38      H        0.53030    0.99690    0.37260    1.000
    C71      C        0.49253    0.91800    0.39440    1.000
    H39      H        0.47880    0.96750    0.40100    1.000
    C72      C        0.48219    0.82640    0.40140    1.000
    C73      C        0.50270    0.75240    0.39150    1.000
    H40      H        0.49580    0.69110    0.39620    1.000
    C74      C        0.53355    0.77000    0.37450    1.000
    H41      H        0.54730    0.72050    0.36780    1.000
    C75      C        0.44845    0.80930    0.42220    1.000
    C76      C        0.42651    0.88050    0.42680    1.000
    H42      H        0.43180    0.94160    0.41330    1.000
    C77      C        0.39692    0.86220    0.45110    1.000
    H43      H        0.38300    0.91160    0.45640    1.000
    C78      C        0.38775    0.77260    0.46760    1.000
    C79      C        0.40878    0.70030    0.45610    1.000
    H44      H        0.40230    0.63870    0.46170    1.000
    C80      C        0.43912    0.71790    0.43650    1.000
    H45      H        0.45330    0.66870    0.43280    1.000
    C81      C        0.35608    0.75360    0.49680    1.000
    O13      O        0.77762    0.07370    0.44370    1.000
    O14      O        0.73455    0.15670    0.44830    1.000
    O15      O        0.76276    0.84510    0.15430    1.000
    O16      O        0.71566    0.76940    0.11680    1.000
    O17      O        0.34536    0.67120    0.48980    1.000
    O18      O        0.34069    0.81740    0.52690    1.000
    Tb3      Tb       0.79602    0.20869    0.54544    1.000
    C82      C        0.24765    0.58570    0.42010    1.000
    C83      C        0.22681    0.51220    0.35860    1.000
    C84      C        0.19490    0.50100    0.36740    1.000
    H46      H        0.18640    0.53930    0.41040    1.000
    C85      C        0.17530    0.43300    0.31240    1.000
    C86      C        0.18918    0.37880    0.24750    1.000
    H47      H        0.17660    0.33340    0.20950    1.000
    C87      C        0.22093    0.39000    0.23760    1.000
    C88      C        0.24004    0.45510    0.29600    1.000
    H48      H        0.26180    0.46060    0.29330    1.000
    C89      C        0.23416    0.32990    0.16340    1.000
    C90      C        0.14164    0.41710    0.32400    1.000
    C91      C        0.12167    0.48750    0.34630    1.000
    H49      H        0.12970    0.54830    0.35310    1.000
    C92      C        0.09062    0.47150    0.35870    1.000
    H50      H        0.07800    0.52160    0.37120    1.000
    C93      C        0.07793    0.38240    0.35310    1.000
    C94      C        0.09708    0.30980    0.33040    1.000
    H51      H        0.08910    0.24900    0.32560    1.000
    C95      C        0.12805    0.32720    0.31500    1.000
    H52      H        0.14020    0.27770    0.29820    1.000
    C96      C        0.04389    0.36160    0.36740    1.000
    C97      C        0.02338    0.43560    0.37730    1.000
    H53      H        0.03030    0.49690    0.37260    1.000
    C98      C        0.99253    0.41800    0.39440    1.000
    H54      H        0.97880    0.46750    0.40100    1.000
    C99      C        0.98219    0.32640    0.40140    1.000
    C100     C        0.00270    0.25240    0.39150    1.000
    H55      H        0.99580    0.19110    0.39620    1.000
    C101     C        0.03355    0.27000    0.37450    1.000
    H56      H        0.04730    0.22050    0.36780    1.000
    C102     C        0.94845    0.30930    0.42220    1.000
    C103     C        0.92651    0.38050    0.42680    1.000
    H57      H        0.93180    0.44160    0.41330    1.000
    C104     C        0.89692    0.36220    0.45110    1.000
    H58      H        0.88300    0.41160    0.45640    1.000
    C105     C        0.88775    0.27260    0.46760    1.000
    C106     C        0.90878    0.20030    0.45610    1.000
    H59      H        0.90230    0.13870    0.46170    1.000
    C107     C        0.93912    0.21790    0.43650    1.000
    H60      H        0.95330    0.16870    0.43280    1.000
    C108     C        0.85608    0.25360    0.49680    1.000
    O19      O        0.27762    0.57370    0.44370    1.000
    O20      O        0.23455    0.65670    0.44830    1.000
    O21      O        0.26276    0.34510    0.15430    1.000
    O22      O        0.21566    0.26940    0.11680    1.000
    O23      O        0.84536    0.17120    0.48980    1.000
    O24      O        0.84069    0.31740    0.52690    1.000
    Tb4      Tb       0.29602    0.70869    0.54544    1.000
    C109     C        0.74765    0.91430    0.92010    1.000
    C110     C        0.72681    0.98780    0.85860    1.000
    C111     C        0.69490    0.99900    0.86740    1.000
    H61      H        0.68640    0.96070    0.91040    1.000
    C112     C        0.67530    0.06700    0.81240    1.000
    C113     C        0.68918    0.12120    0.74750    1.000
    H62      H        0.67660    0.16660    0.70950    1.000
    C114     C        0.72093    0.11000    0.73760    1.000
    C115     C        0.74004    0.04490    0.79600    1.000
    H63      H        0.76180    0.03940    0.79330    1.000
    C116     C        0.73416    0.17010    0.66340    1.000
    C117     C        0.64164    0.08290    0.82400    1.000
    C118     C        0.62167    0.01250    0.84630    1.000
    H64      H        0.62970    0.95170    0.85310    1.000
    C119     C        0.59062    0.02850    0.85870    1.000
    H65      H        0.57800    0.97840    0.87120    1.000
    C120     C        0.57793    0.11760    0.85310    1.000
    C121     C        0.59708    0.19020    0.83040    1.000
    H66      H        0.58910    0.25100    0.82560    1.000
    C122     C        0.62805    0.17280    0.81500    1.000
    H67      H        0.64020    0.22230    0.79820    1.000
    C123     C        0.54389    0.13840    0.86740    1.000
    C124     C        0.52338    0.06440    0.87730    1.000
    H68      H        0.53030    0.00310    0.87260    1.000
    C125     C        0.49253    0.08200    0.89440    1.000
    H69      H        0.47880    0.03250    0.90100    1.000
    C126     C        0.48219    0.17360    0.90140    1.000
    C127     C        0.50270    0.24760    0.89150    1.000
    H70      H        0.49580    0.30890    0.89620    1.000
    C128     C        0.53355    0.23000    0.87450    1.000
    H71      H        0.54730    0.27950    0.86780    1.000
    C129     C        0.44845    0.19070    0.92220    1.000
    C130     C        0.42651    0.11950    0.92680    1.000
    H72      H        0.43180    0.05840    0.91330    1.000
    C131     C        0.39692    0.13780    0.95110    1.000
    H73      H        0.38300    0.08840    0.95640    1.000
    C132     C        0.38775    0.22740    0.96760    1.000
    C133     C        0.40878    0.29970    0.95610    1.000
    H74      H        0.40230    0.36130    0.96170    1.000
    C134     C        0.43912    0.28210    0.93650    1.000
    H75      H        0.45330    0.33130    0.93280    1.000
    C135     C        0.35608    0.24640    0.99680    1.000
    O25      O        0.77762    0.92630    0.94370    1.000
    O26      O        0.73455    0.84330    0.94830    1.000
    O27      O        0.76276    0.15490    0.65430    1.000
    O28      O        0.71566    0.23060    0.61680    1.000
    O29      O        0.34536    0.32880    0.98980    1.000
    O30      O        0.34069    0.18260    0.02690    1.000
    Tb5      Tb       0.79602    0.79131    0.04544    1.000
    C136     C        0.24765    0.41430    0.92010    1.000
    C137     C        0.22681    0.48780    0.85860    1.000
    C138     C        0.19490    0.49900    0.86740    1.000
    H76      H        0.18640    0.46070    0.91040    1.000
    C139     C        0.17530    0.56700    0.81240    1.000
    C140     C        0.18918    0.62120    0.74750    1.000
    H77      H        0.17660    0.66660    0.70950    1.000
    C141     C        0.22093    0.61000    0.73760    1.000
    C142     C        0.24004    0.54490    0.79600    1.000
    H78      H        0.26180    0.53940    0.79330    1.000
    C143     C        0.23416    0.67010    0.66340    1.000
    C144     C        0.14164    0.58290    0.82400    1.000
    C145     C        0.12167    0.51250    0.84630    1.000
    H79      H        0.12970    0.45170    0.85310    1.000
    C146     C        0.09062    0.52850    0.85870    1.000
    H80      H        0.07800    0.47840    0.87120    1.000
    C147     C        0.07793    0.61760    0.85310    1.000
    C148     C        0.09708    0.69020    0.83040    1.000
    H81      H        0.08910    0.75100    0.82560    1.000
    C149     C        0.12805    0.67280    0.81500    1.000
    H82      H        0.14020    0.72230    0.79820    1.000
    C150     C        0.04389    0.63840    0.86740    1.000
    C151     C        0.02338    0.56440    0.87730    1.000
    H83      H        0.03030    0.50310    0.87260    1.000
    C152     C        0.99253    0.58200    0.89440    1.000
    H84      H        0.97880    0.53250    0.90100    1.000
    C153     C        0.98219    0.67360    0.90140    1.000
    C154     C        0.00270    0.74760    0.89150    1.000
    H85      H        0.99580    0.80890    0.89620    1.000
    C155     C        0.03355    0.73000    0.87450    1.000
    H86      H        0.04730    0.77950    0.86780    1.000
    C156     C        0.94845    0.69070    0.92220    1.000
    C157     C        0.92651    0.61950    0.92680    1.000
    H87      H        0.93180    0.55840    0.91330    1.000
    C158     C        0.89692    0.63780    0.95110    1.000
    H88      H        0.88300    0.58840    0.95640    1.000
    C159     C        0.88775    0.72740    0.96760    1.000
    C160     C        0.90878    0.79970    0.95610    1.000
    H89      H        0.90230    0.86130    0.96170    1.000
    C161     C        0.93912    0.78210    0.93650    1.000
    H90      H        0.95330    0.83130    0.93280    1.000
    C162     C        0.85608    0.74640    0.99680    1.000
    O31      O        0.27762    0.42630    0.94370    1.000
    O32      O        0.23455    0.34330    0.94830    1.000
    O33      O        0.26276    0.65490    0.65430    1.000
    O34      O        0.21566    0.73060    0.61680    1.000
    O35      O        0.84536    0.82880    0.98980    1.000
    O36      O        0.84069    0.68260    0.02690    1.000
    Tb6      Tb       0.29602    0.29131    0.04544    1.000
    C163     C        0.25235    0.91430    0.57990    1.000
    C164     C        0.27319    0.98780    0.64140    1.000
    C165     C        0.30510    0.99900    0.63260    1.000
    H91      H        0.31360    0.96070    0.58960    1.000
    C166     C        0.32470    0.06700    0.68760    1.000
    C167     C        0.31082    0.12120    0.75250    1.000
    H92      H        0.32340    0.16660    0.79050    1.000
    C168     C        0.27907    0.11000    0.76240    1.000
    C169     C        0.25996    0.04490    0.70400    1.000
    H93      H        0.23820    0.03940    0.70670    1.000
    C170     C        0.26584    0.17010    0.83660    1.000
    C171     C        0.35836    0.08290    0.67600    1.000
    C172     C        0.37833    0.01250    0.65370    1.000
    H94      H        0.37030    0.95170    0.64690    1.000
    C173     C        0.40938    0.02850    0.64130    1.000
    H95      H        0.42200    0.97840    0.62880    1.000
    C174     C        0.42207    0.11760    0.64690    1.000
    C175     C        0.40292    0.19020    0.66960    1.000
    H96      H        0.41090    0.25100    0.67440    1.000
    C176     C        0.37195    0.17280    0.68500    1.000
    H97      H        0.35980    0.22230    0.70180    1.000
    C177     C        0.45611    0.13840    0.63260    1.000
    C178     C        0.47662    0.06440    0.62270    1.000
    H98      H        0.46970    0.00310    0.62740    1.000
    C179     C        0.50747    0.08200    0.60560    1.000
    H99      H        0.52120    0.03250    0.59900    1.000
    C180     C        0.51781    0.17360    0.59860    1.000
    C181     C        0.49730    0.24760    0.60850    1.000
    H100     H        0.50420    0.30890    0.60380    1.000
    C182     C        0.46645    0.23000    0.62550    1.000
    H101     H        0.45270    0.27950    0.63220    1.000
    C183     C        0.55155    0.19070    0.57780    1.000
    C184     C        0.57349    0.11950    0.57320    1.000
    H102     H        0.56820    0.05840    0.58670    1.000
    C185     C        0.60308    0.13780    0.54890    1.000
    H103     H        0.61700    0.08840    0.54360    1.000
    C186     C        0.61225    0.22740    0.53240    1.000
    C187     C        0.59122    0.29970    0.54390    1.000
    H104     H        0.59770    0.36130    0.53830    1.000
    C188     C        0.56088    0.28210    0.56350    1.000
    H105     H        0.54670    0.33130    0.56720    1.000
    C189     C        0.64392    0.24640    0.50320    1.000
    O37      O        0.22238    0.92630    0.55630    1.000
    O38      O        0.26545    0.84330    0.55170    1.000
    O39      O        0.23724    0.15490    0.84570    1.000
    O40      O        0.28434    0.23060    0.88320    1.000
    O41      O        0.65464    0.32880    0.51020    1.000
    O42      O        0.65931    0.18260    0.47310    1.000
    Tb7      Tb       0.20398    0.79131    0.45456    1.000
    C190     C        0.75235    0.41430    0.57990    1.000
    C191     C        0.77319    0.48780    0.64140    1.000
    C192     C        0.80510    0.49900    0.63260    1.000
    H106     H        0.81360    0.46070    0.58960    1.000
    C193     C        0.82470    0.56700    0.68760    1.000
    C194     C        0.81082    0.62120    0.75250    1.000
    H107     H        0.82340    0.66660    0.79050    1.000
    C195     C        0.77907    0.61000    0.76240    1.000
    C196     C        0.75996    0.54490    0.70400    1.000
    H108     H        0.73820    0.53940    0.70670    1.000
    C197     C        0.76584    0.67010    0.83660    1.000
    C198     C        0.85836    0.58290    0.67600    1.000
    C199     C        0.87833    0.51250    0.65370    1.000
    H109     H        0.87030    0.45170    0.64690    1.000
    C200     C        0.90938    0.52850    0.64130    1.000
    H110     H        0.92200    0.47840    0.62880    1.000
    C201     C        0.92207    0.61760    0.64690    1.000
    C202     C        0.90292    0.69020    0.66960    1.000
    H111     H        0.91090    0.75100    0.67440    1.000
    C203     C        0.87195    0.67280    0.68500    1.000
    H112     H        0.85980    0.72230    0.70180    1.000
    C204     C        0.95611    0.63840    0.63260    1.000
    C205     C        0.97662    0.56440    0.62270    1.000
    H113     H        0.96970    0.50310    0.62740    1.000
    C206     C        0.00747    0.58200    0.60560    1.000
    H114     H        0.02120    0.53250    0.59900    1.000
    C207     C        0.01781    0.67360    0.59860    1.000
    C208     C        0.99730    0.74760    0.60850    1.000
    H115     H        0.00420    0.80890    0.60380    1.000
    C209     C        0.96645    0.73000    0.62550    1.000
    H116     H        0.95270    0.77950    0.63220    1.000
    C210     C        0.05155    0.69070    0.57780    1.000
    C211     C        0.07349    0.61950    0.57320    1.000
    H117     H        0.06820    0.55840    0.58670    1.000
    C212     C        0.10308    0.63780    0.54890    1.000
    H118     H        0.11700    0.58840    0.54360    1.000
    C213     C        0.11225    0.72740    0.53240    1.000
    C214     C        0.09122    0.79970    0.54390    1.000
    H119     H        0.09770    0.86130    0.53830    1.000
    C215     C        0.06088    0.78210    0.56350    1.000
    H120     H        0.04670    0.83130    0.56720    1.000
    C216     C        0.14392    0.74640    0.50320    1.000
    O43      O        0.72238    0.42630    0.55630    1.000
    O44      O        0.76545    0.34330    0.55170    1.000
    O45      O        0.73724    0.65490    0.84570    1.000
    O46      O        0.78434    0.73060    0.88320    1.000
    O47      O        0.15464    0.82880    0.51020    1.000
    O48      O        0.15931    0.68260    0.47310    1.000
    Tb8      Tb       0.70398    0.29131    0.45456    1.000
