# CIF file generated by openbabel 3.1.0, see https://openbabel.org
data_I
_chemical_name_common 'image0'
_cell_length_a 19.3411
_cell_length_b 19.3411
_cell_length_c 37.8517
_cell_angle_alpha 90
_cell_angle_beta 90
_cell_angle_gamma 120
_space_group_name_H-M_alt 'P 1'
_space_group_name_Hall 'P 1'
loop_
    _symmetry_equiv_pos_as_xyz
    x,y,z
loop_
    _atom_site_label
    _atom_site_type_symbol
    _atom_site_fract_x
    _atom_site_fract_y
    _atom_site_fract_z
    _atom_site_occupancy
    O1       O        0.21900    0.29170    0.87030    1.000
    O2       O        0.18200    0.21751    0.82129    1.000
    H1       H        0.34030    0.12980    0.95950    1.000
    C1       C        0.27450    0.19960    0.90058    1.000
    H2       H        0.28750    0.24770    0.91140    1.000
    C2       C        0.23650    0.18000    0.86837    1.000
    C3       C        0.21050    0.23420    0.85185    1.000
    N1       N        0.39860    0.20440    0.07988    1.000
    C4       C        0.40950    0.27550    0.06577    1.000
    H3       H        0.42390    0.31920    0.08040    1.000
    C5       C        0.39870    0.28110    0.02980    1.000
    H4       H        0.40600    0.32870    0.02040    1.000
    C6       C        0.37720    0.21570    0.00793    1.000
    C7       C        0.36630    0.14460    0.02204    1.000
    H5       H        0.35190    0.10080    0.00740    1.000
    C8       C        0.37700    0.13890    0.05801    1.000
    H6       H        0.36980    0.09140    0.06740    1.000
    O3       O        0.38210    0.31240    0.95890    1.000
    C9       C        0.35660    0.22760    0.96950    1.000
    O4       O        0.88567    0.62503    0.20363    1.000
    O5       O        0.84867    0.55084    0.15462    1.000
    H7       H        0.00697    0.46313    0.29283    1.000
    C10      C        0.94117    0.53293    0.23391    1.000
    H8       H        0.95417    0.58103    0.24473    1.000
    C11      C        0.90317    0.51333    0.20170    1.000
    C12      C        0.87717    0.56753    0.18518    1.000
    N2       N        0.06527    0.53773    0.41321    1.000
    C13      C        0.07617    0.60883    0.39910    1.000
    H9       H        0.09057    0.65253    0.41373    1.000
    C14      C        0.06537    0.61443    0.36313    1.000
    H10      H        0.07267    0.66203    0.35373    1.000
    C15      C        0.04387    0.54903    0.34126    1.000
    C16      C        0.03297    0.47793    0.35537    1.000
    H11      H        0.01857    0.43413    0.34073    1.000
    C17      C        0.04367    0.47223    0.39134    1.000
    H12      H        0.03647    0.42473    0.40073    1.000
    O6       O        0.04877    0.64573    0.29223    1.000
    C18      C        0.02327    0.56093    0.30283    1.000
    O7       O        0.55233    0.95837    0.53697    1.000
    O8       O        0.51533    0.88418    0.48796    1.000
    H13      H        0.67363    0.79647    0.62617    1.000
    C19      C        0.60783    0.86627    0.56725    1.000
    H14      H        0.62083    0.91437    0.57807    1.000
    C20      C        0.56983    0.84667    0.53504    1.000
    C21      C        0.54383    0.90087    0.51852    1.000
    N3       N        0.73193    0.87107    0.74655    1.000
    C22      C        0.74283    0.94217    0.73244    1.000
    H15      H        0.75723    0.98587    0.74707    1.000
    C23      C        0.73203    0.94777    0.69647    1.000
    H16      H        0.73933    0.99537    0.68707    1.000
    C24      C        0.71053    0.88237    0.67460    1.000
    C25      C        0.69963    0.81127    0.68871    1.000
    H17      H        0.68523    0.76747    0.67407    1.000
    C26      C        0.71033    0.80557    0.72468    1.000
    H18      H        0.70313    0.75807    0.73407    1.000
    O9       O        0.71543    0.97907    0.62557    1.000
    C27      C        0.68993    0.89427    0.63617    1.000
    O10      O        0.70830    0.92730    0.87030    1.000
    O11      O        0.78249    0.96449    0.82129    1.000
    H19      H        0.87020    0.21050    0.95950    1.000
    C28      C        0.80040    0.07490    0.90058    1.000
    H20      H        0.75230    0.03980    0.91140    1.000
    C29      C        0.82000    0.05650    0.86837    1.000
    C30      C        0.76580    0.97630    0.85185    1.000
    N4       N        0.79560    0.19420    0.07988    1.000
    C31      C        0.72450    0.13400    0.06577    1.000
    H21      H        0.68080    0.10470    0.08040    1.000
    C32      C        0.71890    0.11760    0.02980    1.000
    H22      H        0.67130    0.07730    0.02040    1.000
    C33      C        0.78430    0.16150    0.00793    1.000
    C34      C        0.85540    0.22170    0.02204    1.000
    H23      H        0.89920    0.25110    0.00740    1.000
    C35      C        0.86110    0.23810    0.05801    1.000
    H24      H        0.90860    0.27840    0.06740    1.000
    O12      O        0.68760    0.06970    0.95890    1.000
    C36      C        0.77240    0.12900    0.96950    1.000
    O13      O        0.37497    0.26063    0.20363    1.000
    O14      O        0.44916    0.29782    0.15462    1.000
    H25      H        0.53687    0.54383    0.29283    1.000
    C37      C        0.46707    0.40823    0.23391    1.000
    H26      H        0.41897    0.37313    0.24473    1.000
    C38      C        0.48667    0.38983    0.20170    1.000
    C39      C        0.43247    0.30963    0.18518    1.000
    N5       N        0.46227    0.52753    0.41321    1.000
    C40      C        0.39117    0.46733    0.39910    1.000
    H27      H        0.34747    0.43803    0.41373    1.000
    C41      C        0.38557    0.45093    0.36313    1.000
    H28      H        0.33797    0.41063    0.35373    1.000
    C42      C        0.45097    0.49483    0.34126    1.000
    C43      C        0.52207    0.55503    0.35537    1.000
    H29      H        0.56587    0.58443    0.34073    1.000
    C44      C        0.52777    0.57143    0.39134    1.000
    H30      H        0.57527    0.61173    0.40073    1.000
    O15      O        0.35427    0.40303    0.29223    1.000
    C45      C        0.43907    0.46233    0.30283    1.000
    O16      O        0.04163    0.59397    0.53697    1.000
    O17      O        0.11582    0.63116    0.48796    1.000
    H31      H        0.20353    0.87717    0.62617    1.000
    C46      C        0.13373    0.74157    0.56725    1.000
    H32      H        0.08563    0.70647    0.57807    1.000
    C47      C        0.15333    0.72317    0.53504    1.000
    C48      C        0.09913    0.64297    0.51852    1.000
    N6       N        0.12893    0.86087    0.74655    1.000
    C49      C        0.05783    0.80067    0.73244    1.000
    H33      H        0.01413    0.77137    0.74707    1.000
    C50      C        0.05223    0.78427    0.69647    1.000
    H34      H        0.00463    0.74397    0.68707    1.000
    C51      C        0.11763    0.82817    0.67460    1.000
    C52      C        0.18873    0.88837    0.68871    1.000
    H35      H        0.23253    0.91777    0.67407    1.000
    C53      C        0.19443    0.90477    0.72468    1.000
    H36      H        0.24193    0.94507    0.73407    1.000
    O18      O        0.02093    0.73637    0.62557    1.000
    C54      C        0.10573    0.79567    0.63617    1.000
    O19      O        0.07270    0.78100    0.87030    1.000
    O20      O        0.03551    0.81800    0.82129    1.000
    H37      H        0.78950    0.65970    0.95950    1.000
    C55      C        0.92510    0.72550    0.90058    1.000
    H38      H        0.96020    0.71250    0.91140    1.000
    C56      C        0.94350    0.76350    0.86837    1.000
    C57      C        0.02370    0.78950    0.85185    1.000
    N7       N        0.80580    0.60140    0.07988    1.000
    C58      C        0.86600    0.59050    0.06577    1.000
    H39      H        0.89530    0.57610    0.08040    1.000
    C59      C        0.88240    0.60130    0.02980    1.000
    H40      H        0.92270    0.59400    0.02040    1.000
    C60      C        0.83850    0.62280    0.00793    1.000
    C61      C        0.77830    0.63370    0.02204    1.000
    H41      H        0.74890    0.64810    0.00740    1.000
    C62      C        0.76190    0.62300    0.05801    1.000
    H42      H        0.72160    0.63020    0.06740    1.000
    O21      O        0.93030    0.61790    0.95890    1.000
    C63      C        0.87100    0.64340    0.96950    1.000
    O22      O        0.73937    0.11433    0.20363    1.000
    O23      O        0.70218    0.15133    0.15462    1.000
    H43      H        0.45617    0.99303    0.29283    1.000
    C64      C        0.59177    0.05883    0.23391    1.000
    H44      H        0.62687    0.04583    0.24473    1.000
    C65      C        0.61017    0.09683    0.20170    1.000
    C66      C        0.69037    0.12283    0.18518    1.000
    N8       N        0.47247    0.93473    0.41321    1.000
    C67      C        0.53267    0.92383    0.39910    1.000
    H45      H        0.56197    0.90943    0.41373    1.000
    C68      C        0.54907    0.93463    0.36313    1.000
    H46      H        0.58937    0.92733    0.35373    1.000
    C69      C        0.50517    0.95613    0.34126    1.000
    C70      C        0.44497    0.96703    0.35537    1.000
    H47      H        0.41557    0.98143    0.34073    1.000
    C71      C        0.42857    0.95633    0.39134    1.000
    H48      H        0.38827    0.96353    0.40073    1.000
    O24      O        0.59697    0.95123    0.29223    1.000
    C72      C        0.53767    0.97673    0.30283    1.000
    O25      O        0.40603    0.44767    0.53697    1.000
    O26      O        0.36884    0.48467    0.48796    1.000
    H49      H        0.12283    0.32637    0.62617    1.000
    C73      C        0.25843    0.39217    0.56725    1.000
    H50      H        0.29353    0.37917    0.57807    1.000
    C74      C        0.27683    0.43017    0.53504    1.000
    C75      C        0.35703    0.45617    0.51852    1.000
    N9       N        0.13913    0.26807    0.74655    1.000
    C76      C        0.19933    0.25717    0.73244    1.000
    H51      H        0.22863    0.24277    0.74707    1.000
    C77      C        0.21573    0.26797    0.69647    1.000
    H52      H        0.25603    0.26067    0.68707    1.000
    C78      C        0.17183    0.28947    0.67460    1.000
    C79      C        0.11163    0.30037    0.68871    1.000
    H53      H        0.08223    0.31477    0.67407    1.000
    C80      C        0.09523    0.28967    0.72468    1.000
    H54      H        0.05493    0.29687    0.73407    1.000
    O27      O        0.26363    0.28457    0.62557    1.000
    C81      C        0.20433    0.31007    0.63617    1.000
    O28      O        0.29170    0.21900    0.12970    1.000
    O29      O        0.21751    0.18200    0.17871    1.000
    H55      H        0.12980    0.34030    0.04050    1.000
    C82      C        0.19960    0.27450    0.09942    1.000
    H56      H        0.24770    0.28750    0.08860    1.000
    C83      C        0.18000    0.23650    0.13163    1.000
    C84      C        0.23420    0.21050    0.14815    1.000
    N10      N        0.20440    0.39860    0.92012    1.000
    C85      C        0.27550    0.40950    0.93423    1.000
    H57      H        0.31920    0.42390    0.91960    1.000
    C86      C        0.28110    0.39870    0.97020    1.000
    H58      H        0.32870    0.40600    0.97960    1.000
    C87      C        0.21570    0.37720    0.99207    1.000
    C88      C        0.14460    0.36630    0.97796    1.000
    H59      H        0.10080    0.35190    0.99260    1.000
    C89      C        0.13890    0.37700    0.94199    1.000
    H60      H        0.09140    0.36980    0.93260    1.000
    O30      O        0.31240    0.38210    0.04110    1.000
    C90      C        0.22760    0.35660    0.03050    1.000
    O31      O        0.95837    0.55233    0.46303    1.000
    O32      O        0.88418    0.51533    0.51204    1.000
    H61      H        0.79647    0.67363    0.37383    1.000
    C91      C        0.86627    0.60783    0.43275    1.000
    H62      H        0.91437    0.62083    0.42193    1.000
    C92      C        0.84667    0.56983    0.46496    1.000
    C93      C        0.90087    0.54383    0.48148    1.000
    N11      N        0.87107    0.73193    0.25345    1.000
    C94      C        0.94217    0.74283    0.26756    1.000
    H63      H        0.98587    0.75723    0.25293    1.000
    C95      C        0.94777    0.73203    0.30353    1.000
    H64      H        0.99537    0.73933    0.31293    1.000
    C96      C        0.88237    0.71053    0.32540    1.000
    C97      C        0.81127    0.69963    0.31129    1.000
    H65      H        0.76747    0.68523    0.32593    1.000
    C98      C        0.80557    0.71033    0.27532    1.000
    H66      H        0.75807    0.70313    0.26593    1.000
    O33      O        0.97907    0.71543    0.37443    1.000
    C99      C        0.89427    0.68993    0.36383    1.000
    O34      O        0.62503    0.88567    0.79637    1.000
    O35      O        0.55084    0.84867    0.84538    1.000
    H67      H        0.46313    0.00697    0.70717    1.000
    C100     C        0.53293    0.94117    0.76609    1.000
    H68      H        0.58103    0.95417    0.75527    1.000
    C101     C        0.51333    0.90317    0.79830    1.000
    C102     C        0.56753    0.87717    0.81482    1.000
    N12      N        0.53773    0.06527    0.58679    1.000
    C103     C        0.60883    0.07617    0.60090    1.000
    H69      H        0.65253    0.09057    0.58627    1.000
    C104     C        0.61443    0.06537    0.63687    1.000
    H70      H        0.66203    0.07267    0.64627    1.000
    C105     C        0.54903    0.04387    0.65874    1.000
    C106     C        0.47793    0.03297    0.64463    1.000
    H71      H        0.43413    0.01857    0.65927    1.000
    C107     C        0.47223    0.04367    0.60866    1.000
    H72      H        0.42473    0.03647    0.59927    1.000
    O36      O        0.64573    0.04877    0.70777    1.000
    C108     C        0.56093    0.02327    0.69717    1.000
    O37      O        0.92730    0.70830    0.12970    1.000
    O38      O        0.96449    0.78249    0.17871    1.000
    H73      H        0.21050    0.87020    0.04050    1.000
    C109     C        0.07490    0.80040    0.09942    1.000
    H74      H        0.03980    0.75230    0.08860    1.000
    C110     C        0.05650    0.82000    0.13163    1.000
    C111     C        0.97630    0.76580    0.14815    1.000
    N13      N        0.19420    0.79560    0.92012    1.000
    C112     C        0.13400    0.72450    0.93423    1.000
    H75      H        0.10470    0.68080    0.91960    1.000
    C113     C        0.11760    0.71890    0.97020    1.000
    H76      H        0.07730    0.67130    0.97960    1.000
    C114     C        0.16150    0.78430    0.99207    1.000
    C115     C        0.22170    0.85540    0.97796    1.000
    H77      H        0.25110    0.89920    0.99260    1.000
    C116     C        0.23810    0.86110    0.94199    1.000
    H78      H        0.27840    0.90860    0.93260    1.000
    O39      O        0.06970    0.68760    0.04110    1.000
    C117     C        0.12900    0.77240    0.03050    1.000
    O40      O        0.59397    0.04163    0.46303    1.000
    O41      O        0.63116    0.11582    0.51204    1.000
    H79      H        0.87717    0.20353    0.37383    1.000
    C118     C        0.74157    0.13373    0.43275    1.000
    H80      H        0.70647    0.08563    0.42193    1.000
    C119     C        0.72317    0.15333    0.46496    1.000
    C120     C        0.64297    0.09913    0.48148    1.000
    N14      N        0.86087    0.12893    0.25345    1.000
    C121     C        0.80067    0.05783    0.26756    1.000
    H81      H        0.77137    0.01413    0.25293    1.000
    C122     C        0.78427    0.05223    0.30353    1.000
    H82      H        0.74397    0.00463    0.31293    1.000
    C123     C        0.82817    0.11763    0.32540    1.000
    C124     C        0.88837    0.18873    0.31129    1.000
    H83      H        0.91777    0.23253    0.32593    1.000
    C125     C        0.90477    0.19443    0.27532    1.000
    H84      H        0.94507    0.24193    0.26593    1.000
    O42      O        0.73637    0.02093    0.37443    1.000
    C126     C        0.79567    0.10573    0.36383    1.000
    O43      O        0.26063    0.37497    0.79637    1.000
    O44      O        0.29782    0.44916    0.84538    1.000
    H85      H        0.54383    0.53687    0.70717    1.000
    C127     C        0.40823    0.46707    0.76609    1.000
    H86      H        0.37313    0.41897    0.75527    1.000
    C128     C        0.38983    0.48667    0.79830    1.000
    C129     C        0.30963    0.43247    0.81482    1.000
    N15      N        0.52753    0.46227    0.58679    1.000
    C130     C        0.46733    0.39117    0.60090    1.000
    H87      H        0.43803    0.34747    0.58627    1.000
    C131     C        0.45093    0.38557    0.63687    1.000
    H88      H        0.41063    0.33797    0.64627    1.000
    C132     C        0.49483    0.45097    0.65874    1.000
    C133     C        0.55503    0.52207    0.64463    1.000
    H89      H        0.58443    0.56587    0.65927    1.000
    C134     C        0.57143    0.52777    0.60866    1.000
    H90      H        0.61173    0.57527    0.59927    1.000
    O45      O        0.40303    0.35427    0.70777    1.000
    C135     C        0.46233    0.43907    0.69717    1.000
    O46      O        0.78100    0.07270    0.12970    1.000
    O47      O        0.81800    0.03551    0.17871    1.000
    H91      H        0.65970    0.78950    0.04050    1.000
    C136     C        0.72550    0.92510    0.09942    1.000
    H92      H        0.71250    0.96020    0.08860    1.000
    C137     C        0.76350    0.94350    0.13163    1.000
    C138     C        0.78950    0.02370    0.14815    1.000
    N16      N        0.60140    0.80580    0.92012    1.000
    C139     C        0.59050    0.86600    0.93423    1.000
    H93      H        0.57610    0.89530    0.91960    1.000
    C140     C        0.60130    0.88240    0.97020    1.000
    H94      H        0.59400    0.92270    0.97960    1.000
    C141     C        0.62280    0.83850    0.99207    1.000
    C142     C        0.63370    0.77830    0.97796    1.000
    H95      H        0.64810    0.74890    0.99260    1.000
    C143     C        0.62300    0.76190    0.94199    1.000
    H96      H        0.63020    0.72160    0.93260    1.000
    O48      O        0.61790    0.93030    0.04110    1.000
    C144     C        0.64340    0.87100    0.03050    1.000
    O49      O        0.44767    0.40603    0.46303    1.000
    O50      O        0.48467    0.36884    0.51204    1.000
    H97      H        0.32637    0.12283    0.37383    1.000
    C145     C        0.39217    0.25843    0.43275    1.000
    H98      H        0.37917    0.29353    0.42193    1.000
    C146     C        0.43017    0.27683    0.46496    1.000
    C147     C        0.45617    0.35703    0.48148    1.000
    N17      N        0.26807    0.13913    0.25345    1.000
    C148     C        0.25717    0.19933    0.26756    1.000
    H99      H        0.24277    0.22863    0.25293    1.000
    C149     C        0.26797    0.21573    0.30353    1.000
    H100     H        0.26067    0.25603    0.31293    1.000
    C150     C        0.28947    0.17183    0.32540    1.000
    C151     C        0.30037    0.11163    0.31129    1.000
    H101     H        0.31477    0.08223    0.32593    1.000
    C152     C        0.28967    0.09523    0.27532    1.000
    H102     H        0.29687    0.05493    0.26593    1.000
    O51      O        0.28457    0.26363    0.37443    1.000
    C153     C        0.31007    0.20433    0.36383    1.000
    O52      O        0.11433    0.73937    0.79637    1.000
    O53      O        0.15133    0.70218    0.84538    1.000
    H103     H        0.99303    0.45617    0.70717    1.000
    C154     C        0.05883    0.59177    0.76609    1.000
    H104     H        0.04583    0.62687    0.75527    1.000
    C155     C        0.09683    0.61017    0.79830    1.000
    C156     C        0.12283    0.69037    0.81482    1.000
    N18      N        0.93473    0.47247    0.58679    1.000
    C157     C        0.92383    0.53267    0.60090    1.000
    H105     H        0.90943    0.56197    0.58627    1.000
    C158     C        0.93463    0.54907    0.63687    1.000
    H106     H        0.92733    0.58937    0.64627    1.000
    C159     C        0.95613    0.50517    0.65874    1.000
    C160     C        0.96703    0.44497    0.64463    1.000
    H107     H        0.98143    0.41557    0.65927    1.000
    C161     C        0.95633    0.42857    0.60866    1.000
    H108     H        0.96353    0.38827    0.59927    1.000
    O54      O        0.95123    0.59697    0.70777    1.000
    C162     C        0.97673    0.53767    0.69717    1.000
    O55      O        0.78100    0.70830    0.12970    1.000
    O56      O        0.81800    0.78249    0.17871    1.000
    H109     H        0.65970    0.87020    0.04050    1.000
    C163     C        0.72550    0.80040    0.09942    1.000
    H110     H        0.71250    0.75230    0.08860    1.000
    C164     C        0.76350    0.82000    0.13163    1.000
    C165     C        0.78950    0.76580    0.14815    1.000
    N19      N        0.60140    0.79560    0.92012    1.000
    C166     C        0.59050    0.72450    0.93423    1.000
    H111     H        0.57610    0.68080    0.91960    1.000
    C167     C        0.60130    0.71890    0.97020    1.000
    H112     H        0.59400    0.67130    0.97960    1.000
    C168     C        0.62280    0.78430    0.99207    1.000
    C169     C        0.63370    0.85540    0.97796    1.000
    H113     H        0.64810    0.89920    0.99260    1.000
    C170     C        0.62300    0.86110    0.94199    1.000
    H114     H        0.63020    0.90860    0.93260    1.000
    O57      O        0.61790    0.68760    0.04110    1.000
    C171     C        0.64340    0.77240    0.03050    1.000
    O58      O        0.44767    0.04163    0.46303    1.000
    O59      O        0.48467    0.11582    0.51204    1.000
    H115     H        0.32637    0.20353    0.37383    1.000
    C172     C        0.39217    0.13373    0.43275    1.000
    H116     H        0.37917    0.08563    0.42193    1.000
    C173     C        0.43017    0.15333    0.46496    1.000
    C174     C        0.45617    0.09913    0.48148    1.000
    N20      N        0.26807    0.12893    0.25345    1.000
    C175     C        0.25717    0.05783    0.26756    1.000
    H117     H        0.24277    0.01413    0.25293    1.000
    C176     C        0.26797    0.05223    0.30353    1.000
    H118     H        0.26067    0.00463    0.31293    1.000
    C177     C        0.28947    0.11763    0.32540    1.000
    C178     C        0.30037    0.18873    0.31129    1.000
    H119     H        0.31477    0.23253    0.32593    1.000
    C179     C        0.28967    0.19443    0.27532    1.000
    H120     H        0.29687    0.24193    0.26593    1.000
    O60      O        0.28457    0.02093    0.37443    1.000
    C180     C        0.31007    0.10573    0.36383    1.000
    O61      O        0.11433    0.37497    0.79637    1.000
    O62      O        0.15133    0.44916    0.84538    1.000
    H121     H        0.99303    0.53687    0.70717    1.000
    C181     C        0.05883    0.46707    0.76609    1.000
    H122     H        0.04583    0.41897    0.75527    1.000
    C182     C        0.09683    0.48667    0.79830    1.000
    C183     C        0.12283    0.43247    0.81482    1.000
    N21      N        0.93473    0.46227    0.58679    1.000
    C184     C        0.92383    0.39117    0.60090    1.000
    H123     H        0.90943    0.34747    0.58627    1.000
    C185     C        0.93463    0.38557    0.63687    1.000
    H124     H        0.92733    0.33797    0.64627    1.000
    C186     C        0.95613    0.45097    0.65874    1.000
    C187     C        0.96703    0.52207    0.64463    1.000
    H125     H        0.98143    0.56587    0.65927    1.000
    C188     C        0.95633    0.52777    0.60866    1.000
    H126     H        0.96353    0.57527    0.59927    1.000
    O63      O        0.95123    0.35427    0.70777    1.000
    C189     C        0.97673    0.43907    0.69717    1.000
    O64      O        0.29170    0.07270    0.12970    1.000
    O65      O        0.21751    0.03551    0.17871    1.000
    H127     H        0.12980    0.78950    0.04050    1.000
    C190     C        0.19960    0.92510    0.09942    1.000
    H128     H        0.24770    0.96020    0.08860    1.000
    C191     C        0.18000    0.94350    0.13163    1.000
    C192     C        0.23420    0.02370    0.14815    1.000
    N22      N        0.20440    0.80580    0.92012    1.000
    C193     C        0.27550    0.86600    0.93423    1.000
    H129     H        0.31920    0.89530    0.91960    1.000
    C194     C        0.28110    0.88240    0.97020    1.000
    H130     H        0.32870    0.92270    0.97960    1.000
    C195     C        0.21570    0.83850    0.99207    1.000
    C196     C        0.14460    0.77830    0.97796    1.000
    H131     H        0.10080    0.74890    0.99260    1.000
    C197     C        0.13890    0.76190    0.94199    1.000
    H132     H        0.09140    0.72160    0.93260    1.000
    O66      O        0.31240    0.93030    0.04110    1.000
    C198     C        0.22760    0.87100    0.03050    1.000
    O67      O        0.95837    0.40603    0.46303    1.000
    O68      O        0.88418    0.36884    0.51204    1.000
    H133     H        0.79647    0.12283    0.37383    1.000
    C199     C        0.86627    0.25843    0.43275    1.000
    H134     H        0.91437    0.29353    0.42193    1.000
    C200     C        0.84667    0.27683    0.46496    1.000
    C201     C        0.90087    0.35703    0.48148    1.000
    N23      N        0.87107    0.13913    0.25345    1.000
    C202     C        0.94217    0.19933    0.26756    1.000
    H135     H        0.98587    0.22863    0.25293    1.000
    C203     C        0.94777    0.21573    0.30353    1.000
    H136     H        0.99537    0.25603    0.31293    1.000
    C204     C        0.88237    0.17183    0.32540    1.000
    C205     C        0.81127    0.11163    0.31129    1.000
    H137     H        0.76747    0.08223    0.32593    1.000
    C206     C        0.80557    0.09523    0.27532    1.000
    H138     H        0.75807    0.05493    0.26593    1.000
    O69      O        0.97907    0.26363    0.37443    1.000
    C207     C        0.89427    0.20433    0.36383    1.000
    O70      O        0.62503    0.73937    0.79637    1.000
    O71      O        0.55084    0.70218    0.84538    1.000
    H139     H        0.46313    0.45617    0.70717    1.000
    C208     C        0.53293    0.59177    0.76609    1.000
    H140     H        0.58103    0.62687    0.75527    1.000
    C209     C        0.51333    0.61017    0.79830    1.000
    C210     C        0.56753    0.69037    0.81482    1.000
    N24      N        0.53773    0.47247    0.58679    1.000
    C211     C        0.60883    0.53267    0.60090    1.000
    H141     H        0.65253    0.56197    0.58627    1.000
    C212     C        0.61443    0.54907    0.63687    1.000
    H142     H        0.66203    0.58937    0.64627    1.000
    C213     C        0.54903    0.50517    0.65874    1.000
    C214     C        0.47793    0.44497    0.64463    1.000
    H143     H        0.43413    0.41557    0.65927    1.000
    C215     C        0.47223    0.42857    0.60866    1.000
    H144     H        0.42473    0.38827    0.59927    1.000
    O72      O        0.64573    0.59697    0.70777    1.000
    C216     C        0.56093    0.53767    0.69717    1.000
    O73      O        0.92730    0.21900    0.12970    1.000
    O74      O        0.96449    0.18200    0.17871    1.000
    H145     H        0.21050    0.34030    0.04050    1.000
    C217     C        0.07490    0.27450    0.09942    1.000
    H146     H        0.03980    0.28750    0.08860    1.000
    C218     C        0.05650    0.23650    0.13163    1.000
    C219     C        0.97630    0.21050    0.14815    1.000
    N25      N        0.19420    0.39860    0.92012    1.000
    C220     C        0.13400    0.40950    0.93423    1.000
    H147     H        0.10470    0.42390    0.91960    1.000
    C221     C        0.11760    0.39870    0.97020    1.000
    H148     H        0.07730    0.40600    0.97960    1.000
    C222     C        0.16150    0.37720    0.99207    1.000
    C223     C        0.22170    0.36630    0.97796    1.000
    H149     H        0.25110    0.35190    0.99260    1.000
    C224     C        0.23810    0.37700    0.94199    1.000
    H150     H        0.27840    0.36980    0.93260    1.000
    O75      O        0.06970    0.38210    0.04110    1.000
    C225     C        0.12900    0.35660    0.03050    1.000
    O76      O        0.59397    0.55233    0.46303    1.000
    O77      O        0.63116    0.51533    0.51204    1.000
    H151     H        0.87717    0.67363    0.37383    1.000
    C226     C        0.74157    0.60783    0.43275    1.000
    H152     H        0.70647    0.62083    0.42193    1.000
    C227     C        0.72317    0.56983    0.46496    1.000
    C228     C        0.64297    0.54383    0.48148    1.000
    N26      N        0.86087    0.73193    0.25345    1.000
    C229     C        0.80067    0.74283    0.26756    1.000
    H153     H        0.77137    0.75723    0.25293    1.000
    C230     C        0.78427    0.73203    0.30353    1.000
    H154     H        0.74397    0.73933    0.31293    1.000
    C231     C        0.82817    0.71053    0.32540    1.000
    C232     C        0.88837    0.69963    0.31129    1.000
    H155     H        0.91777    0.68523    0.32593    1.000
    C233     C        0.90477    0.71033    0.27532    1.000
    H156     H        0.94507    0.70313    0.26593    1.000
    O78      O        0.73637    0.71543    0.37443    1.000
    C234     C        0.79567    0.68993    0.36383    1.000
    O79      O        0.26063    0.88567    0.79637    1.000
    O80      O        0.29782    0.84867    0.84538    1.000
    H157     H        0.54383    0.00697    0.70717    1.000
    C235     C        0.40823    0.94117    0.76609    1.000
    H158     H        0.37313    0.95417    0.75527    1.000
    C236     C        0.38983    0.90317    0.79830    1.000
    C237     C        0.30963    0.87717    0.81482    1.000
    N27      N        0.52753    0.06527    0.58679    1.000
    C238     C        0.46733    0.07617    0.60090    1.000
    H159     H        0.43803    0.09057    0.58627    1.000
    C239     C        0.45093    0.06537    0.63687    1.000
    H160     H        0.41063    0.07267    0.64627    1.000
    C240     C        0.49483    0.04387    0.65874    1.000
    C241     C        0.55503    0.03297    0.64463    1.000
    H161     H        0.58443    0.01857    0.65927    1.000
    C242     C        0.57143    0.04367    0.60866    1.000
    H162     H        0.61173    0.03647    0.59927    1.000
    O81      O        0.40303    0.04877    0.70777    1.000
    C243     C        0.46233    0.02327    0.69717    1.000
    O82      O        0.70830    0.78100    0.87030    1.000
    O83      O        0.78249    0.81800    0.82129    1.000
    H163     H        0.87020    0.65970    0.95950    1.000
    C244     C        0.80040    0.72550    0.90058    1.000
    H164     H        0.75230    0.71250    0.91140    1.000
    C245     C        0.82000    0.76350    0.86837    1.000
    C246     C        0.76580    0.78950    0.85185    1.000
    N28      N        0.79560    0.60140    0.07988    1.000
    C247     C        0.72450    0.59050    0.06577    1.000
    H165     H        0.68080    0.57610    0.08040    1.000
    C248     C        0.71890    0.60130    0.02980    1.000
    H166     H        0.67130    0.59400    0.02040    1.000
    C249     C        0.78430    0.62280    0.00793    1.000
    C250     C        0.85540    0.63370    0.02204    1.000
    H167     H        0.89920    0.64810    0.00740    1.000
    C251     C        0.86110    0.62300    0.05801    1.000
    H168     H        0.90860    0.63020    0.06740    1.000
    O84      O        0.68760    0.61790    0.95890    1.000
    C252     C        0.77240    0.64340    0.96950    1.000
    O85      O        0.37497    0.11433    0.20363    1.000
    O86      O        0.44916    0.15133    0.15462    1.000
    H169     H        0.53687    0.99303    0.29283    1.000
    C253     C        0.46707    0.05883    0.23391    1.000
    H170     H        0.41897    0.04583    0.24473    1.000
    C254     C        0.48667    0.09683    0.20170    1.000
    C255     C        0.43247    0.12283    0.18518    1.000
    N29      N        0.46227    0.93473    0.41321    1.000
    C256     C        0.39117    0.92383    0.39910    1.000
    H171     H        0.34747    0.90943    0.41373    1.000
    C257     C        0.38557    0.93463    0.36313    1.000
    H172     H        0.33797    0.92733    0.35373    1.000
    C258     C        0.45097    0.95613    0.34126    1.000
    C259     C        0.52207    0.96703    0.35537    1.000
    H173     H        0.56587    0.98143    0.34073    1.000
    C260     C        0.52777    0.95633    0.39134    1.000
    H174     H        0.57527    0.96353    0.40073    1.000
    O87      O        0.35427    0.95123    0.29223    1.000
    C261     C        0.43907    0.97673    0.30283    1.000
    O88      O        0.04163    0.44767    0.53697    1.000
    O89      O        0.11582    0.48467    0.48796    1.000
    H175     H        0.20353    0.32637    0.62617    1.000
    C262     C        0.13373    0.39217    0.56725    1.000
    H176     H        0.08563    0.37917    0.57807    1.000
    C263     C        0.15333    0.43017    0.53504    1.000
    C264     C        0.09913    0.45617    0.51852    1.000
    N30      N        0.12893    0.26807    0.74655    1.000
    C265     C        0.05783    0.25717    0.73244    1.000
    H177     H        0.01413    0.24277    0.74707    1.000
    C266     C        0.05223    0.26797    0.69647    1.000
    H178     H        0.00463    0.26067    0.68707    1.000
    C267     C        0.11763    0.28947    0.67460    1.000
    C268     C        0.18873    0.30037    0.68871    1.000
    H179     H        0.23253    0.31477    0.67407    1.000
    C269     C        0.19443    0.28967    0.72468    1.000
    H180     H        0.24193    0.29687    0.73407    1.000
    O90      O        0.02093    0.28457    0.62557    1.000
    C270     C        0.10573    0.31007    0.63617    1.000
    O91      O        0.07270    0.29170    0.87030    1.000
    O92      O        0.03551    0.21751    0.82129    1.000
    H181     H        0.78950    0.12980    0.95950    1.000
    C271     C        0.92510    0.19960    0.90058    1.000
    H182     H        0.96020    0.24770    0.91140    1.000
    C272     C        0.94350    0.18000    0.86837    1.000
    C273     C        0.02370    0.23420    0.85185    1.000
    N31      N        0.80580    0.20440    0.07988    1.000
    C274     C        0.86600    0.27550    0.06577    1.000
    H183     H        0.89530    0.31920    0.08040    1.000
    C275     C        0.88240    0.28110    0.02980    1.000
    H184     H        0.92270    0.32870    0.02040    1.000
    C276     C        0.83850    0.21570    0.00793    1.000
    C277     C        0.77830    0.14460    0.02204    1.000
    H185     H        0.74890    0.10080    0.00740    1.000
    C278     C        0.76190    0.13890    0.05801    1.000
    H186     H        0.72160    0.09140    0.06740    1.000
    O93      O        0.93030    0.31240    0.95890    1.000
    C279     C        0.87100    0.22760    0.96950    1.000
    O94      O        0.73937    0.62503    0.20363    1.000
    O95      O        0.70218    0.55084    0.15462    1.000
    H187     H        0.45617    0.46313    0.29283    1.000
    C280     C        0.59177    0.53293    0.23391    1.000
    H188     H        0.62687    0.58103    0.24473    1.000
    C281     C        0.61017    0.51333    0.20170    1.000
    C282     C        0.69037    0.56753    0.18518    1.000
    N32      N        0.47247    0.53773    0.41321    1.000
    C283     C        0.53267    0.60883    0.39910    1.000
    H189     H        0.56197    0.65253    0.41373    1.000
    C284     C        0.54907    0.61443    0.36313    1.000
    H190     H        0.58937    0.66203    0.35373    1.000
    C285     C        0.50517    0.54903    0.34126    1.000
    C286     C        0.44497    0.47793    0.35537    1.000
    H191     H        0.41557    0.43413    0.34073    1.000
    C287     C        0.42857    0.47223    0.39134    1.000
    H192     H        0.38827    0.42473    0.40073    1.000
    O96      O        0.59697    0.64573    0.29223    1.000
    C288     C        0.53767    0.56093    0.30283    1.000
    O97      O        0.40603    0.95837    0.53697    1.000
    O98      O        0.36884    0.88418    0.48796    1.000
    H193     H        0.12283    0.79647    0.62617    1.000
    C289     C        0.25843    0.86627    0.56725    1.000
    H194     H        0.29353    0.91437    0.57807    1.000
    C290     C        0.27683    0.84667    0.53504    1.000
    C291     C        0.35703    0.90087    0.51852    1.000
    N33      N        0.13913    0.87107    0.74655    1.000
    C292     C        0.19933    0.94217    0.73244    1.000
    H195     H        0.22863    0.98587    0.74707    1.000
    C293     C        0.21573    0.94777    0.69647    1.000
    H196     H        0.25603    0.99537    0.68707    1.000
    C294     C        0.17183    0.88237    0.67460    1.000
    C295     C        0.11163    0.81127    0.68871    1.000
    H197     H        0.08223    0.76747    0.67407    1.000
    C296     C        0.09523    0.80557    0.72468    1.000
    H198     H        0.05493    0.75807    0.73407    1.000
    O99      O        0.26363    0.97907    0.62557    1.000
    C297     C        0.20433    0.89427    0.63617    1.000
    O100     O        0.21900    0.92730    0.87030    1.000
    O101     O        0.18200    0.96449    0.82129    1.000
    H199     H        0.34030    0.21050    0.95950    1.000
    C298     C        0.27450    0.07490    0.90058    1.000
    H200     H        0.28750    0.03980    0.91140    1.000
    C299     C        0.23650    0.05650    0.86837    1.000
    C300     C        0.21050    0.97630    0.85185    1.000
    N34      N        0.39860    0.19420    0.07988    1.000
    C301     C        0.40950    0.13400    0.06577    1.000
    H201     H        0.42390    0.10470    0.08040    1.000
    C302     C        0.39870    0.11760    0.02980    1.000
    H202     H        0.40600    0.07730    0.02040    1.000
    C303     C        0.37720    0.16150    0.00793    1.000
    C304     C        0.36630    0.22170    0.02204    1.000
    H203     H        0.35190    0.25110    0.00740    1.000
    C305     C        0.37700    0.23810    0.05801    1.000
    H204     H        0.36980    0.27840    0.06740    1.000
    O102     O        0.38210    0.06970    0.95890    1.000
    C306     C        0.35660    0.12900    0.96950    1.000
    O103     O        0.88567    0.26063    0.20363    1.000
    O104     O        0.84867    0.29782    0.15462    1.000
    H205     H        0.00697    0.54383    0.29283    1.000
    C307     C        0.94117    0.40823    0.23391    1.000
    H206     H        0.95417    0.37313    0.24473    1.000
    C308     C        0.90317    0.38983    0.20170    1.000
    C309     C        0.87717    0.30963    0.18518    1.000
    N35      N        0.06527    0.52753    0.41321    1.000
    C310     C        0.07617    0.46733    0.39910    1.000
    H207     H        0.09057    0.43803    0.41373    1.000
    C311     C        0.06537    0.45093    0.36313    1.000
    H208     H        0.07267    0.41063    0.35373    1.000
    C312     C        0.04387    0.49483    0.34126    1.000
    C313     C        0.03297    0.55503    0.35537    1.000
    H209     H        0.01857    0.58443    0.34073    1.000
    C314     C        0.04367    0.57143    0.39134    1.000
    H210     H        0.03647    0.61173    0.40073    1.000
    O105     O        0.04877    0.40303    0.29223    1.000
    C315     C        0.02327    0.46233    0.30283    1.000
    O106     O        0.55233    0.59397    0.53697    1.000
    O107     O        0.51533    0.63116    0.48796    1.000
    H211     H        0.67363    0.87717    0.62617    1.000
    C316     C        0.60783    0.74157    0.56725    1.000
    H212     H        0.62083    0.70647    0.57807    1.000
    C317     C        0.56983    0.72317    0.53504    1.000
    C318     C        0.54383    0.64297    0.51852    1.000
    N36      N        0.73193    0.86087    0.74655    1.000
    C319     C        0.74283    0.80067    0.73244    1.000
    H213     H        0.75723    0.77137    0.74707    1.000
    C320     C        0.73203    0.78427    0.69647    1.000
    H214     H        0.73933    0.74397    0.68707    1.000
    C321     C        0.71053    0.82817    0.67460    1.000
    C322     C        0.69963    0.88837    0.68871    1.000
    H215     H        0.68523    0.91777    0.67407    1.000
    C323     C        0.71033    0.90477    0.72468    1.000
    H216     H        0.70313    0.94507    0.73407    1.000
    O108     O        0.71543    0.73637    0.62557    1.000
    C324     C        0.68993    0.79567    0.63617    1.000
    Zn1      Zn       0.37969    0.18985    0.13305    1.000
    N37      N        0.33230    0.16615    0.95068    1.000
    C325     C        0.29310    0.14655    0.91672    1.000
    C326     C        0.21800    0.10900    0.85170    1.000
    H217     H        0.19340    0.09670    0.82970    1.000
    Zn2      Zn       0.04636    0.52318    0.46638    1.000
    N38      N        0.99897    0.49948    0.28401    1.000
    C327     C        0.95977    0.47988    0.25005    1.000
    C328     C        0.88467    0.44233    0.18503    1.000
    H218     H        0.86007    0.43003    0.16303    1.000
    Zn3      Zn       0.71302    0.85651    0.79972    1.000
    N39      N        0.66563    0.83282    0.61735    1.000
    C329     C        0.62643    0.81322    0.58339    1.000
    C330     C        0.55133    0.77567    0.51837    1.000
    H219     H        0.52673    0.76337    0.49637    1.000
    Zn4      Zn       0.81015    0.18985    0.13305    1.000
    N40      N        0.83385    0.16615    0.95068    1.000
    C331     C        0.85345    0.14655    0.91672    1.000
    C332     C        0.89100    0.10900    0.85170    1.000
    H220     H        0.90330    0.09670    0.82970    1.000
    Zn5      Zn       0.47682    0.52318    0.46638    1.000
    N41      N        0.50052    0.49948    0.28401    1.000
    C333     C        0.52012    0.47988    0.25005    1.000
    C334     C        0.55767    0.44233    0.18503    1.000
    H221     H        0.56997    0.43003    0.16303    1.000
    Zn6      Zn       0.14349    0.85651    0.79972    1.000
    N42      N        0.16718    0.83282    0.61735    1.000
    C335     C        0.18678    0.81322    0.58339    1.000
    C336     C        0.22433    0.77567    0.51837    1.000
    H222     H        0.23663    0.76337    0.49637    1.000
    Zn7      Zn       0.81015    0.62031    0.13305    1.000
    N43      N        0.83385    0.66770    0.95068    1.000
    C337     C        0.85345    0.70690    0.91672    1.000
    C338     C        0.89100    0.78200    0.85170    1.000
    H223     H        0.90330    0.80660    0.82970    1.000
    Zn8      Zn       0.47682    0.95364    0.46638    1.000
    N44      N        0.50052    0.00103    0.28401    1.000
    C339     C        0.52012    0.04023    0.25005    1.000
    C340     C        0.55767    0.11533    0.18503    1.000
    H224     H        0.56997    0.13993    0.16303    1.000
    Zn9      Zn       0.14349    0.28698    0.79972    1.000
    N45      N        0.16718    0.33437    0.61735    1.000
    C341     C        0.18678    0.37357    0.58339    1.000
    C342     C        0.22433    0.44867    0.51837    1.000
    H225     H        0.23663    0.47327    0.49637    1.000
    Zn10     Zn       0.18985    0.37969    0.86695    1.000
    N46      N        0.16615    0.33230    0.04932    1.000
    C343     C        0.14655    0.29310    0.08328    1.000
    C344     C        0.10900    0.21800    0.14830    1.000
    H226     H        0.09670    0.19340    0.17030    1.000
    Zn11     Zn       0.85651    0.71302    0.20028    1.000
    N47      N        0.83282    0.66563    0.38265    1.000
    C345     C        0.81322    0.62643    0.41661    1.000
    C346     C        0.77567    0.55133    0.48163    1.000
    H227     H        0.76337    0.52673    0.50363    1.000
    Zn12     Zn       0.52318    0.04636    0.53362    1.000
    N48      N        0.49948    0.99897    0.71599    1.000
    C347     C        0.47988    0.95977    0.74995    1.000
    C348     C        0.44233    0.88467    0.81497    1.000
    H228     H        0.43003    0.86007    0.83697    1.000
    Zn13     Zn       0.18985    0.81015    0.86695    1.000
    N49      N        0.16615    0.83385    0.04932    1.000
    C349     C        0.14655    0.85345    0.08328    1.000
    C350     C        0.10900    0.89100    0.14830    1.000
    H229     H        0.09670    0.90330    0.17030    1.000
    Zn14     Zn       0.85651    0.14349    0.20028    1.000
    N50      N        0.83282    0.16718    0.38265    1.000
    C351     C        0.81322    0.18678    0.41661    1.000
    C352     C        0.77567    0.22433    0.48163    1.000
    H230     H        0.76337    0.23663    0.50363    1.000
    Zn15     Zn       0.52318    0.47682    0.53362    1.000
    N51      N        0.49948    0.50052    0.71599    1.000
    C353     C        0.47988    0.52012    0.74995    1.000
    C354     C        0.44233    0.55767    0.81497    1.000
    H231     H        0.43003    0.56997    0.83697    1.000
    Zn16     Zn       0.62031    0.81015    0.86695    1.000
    N52      N        0.66770    0.83385    0.04932    1.000
    C355     C        0.70690    0.85345    0.08328    1.000
    C356     C        0.78200    0.89100    0.14830    1.000
    H232     H        0.80660    0.90330    0.17030    1.000
    Zn17     Zn       0.28698    0.14349    0.20028    1.000
    N53      N        0.33437    0.16718    0.38265    1.000
    C357     C        0.37357    0.18678    0.41661    1.000
    C358     C        0.44867    0.22433    0.48163    1.000
    H233     H        0.47327    0.23663    0.50363    1.000
    Zn18     Zn       0.95364    0.47682    0.53362    1.000
    N54      N        0.00103    0.50052    0.71599    1.000
    C359     C        0.04023    0.52012    0.74995    1.000
    C360     C        0.11533    0.55767    0.81497    1.000
    H234     H        0.13993    0.56997    0.83697    1.000
