data_functionalizedCrystal
_audit_creation_method	'EQeq! by Chris Wilmer'
_symmetry_space_group_name_H-M	'P1'
_symmetry_Int_Tables_number	1
_symmetry_cell_setting	triclinic
loop_
_symmetry_equiv_pos_as_xyz
  x,y,z
_cell_length_a	16.611
_cell_length_b	16.723
_cell_length_c	19.288
_cell_angle_alpha	78.537
_cell_angle_beta	65.243
_cell_angle_gamma	62.351
loop_
_atom_site_label
_atom_site_type_symbol
_atom_site_fract_x
_atom_site_fract_y
_atom_site_fract_z
_atom_site_charge
Mof_Cd	Cd	0.12298	0.71219	0.44014	0.52
Mof_Cd	Cd	0.20507	0.84098	0.25575	0.451
Mof_Cd	Cd	0.28922	0.9556	0.06328	0.469
Mof_O 	O 	0.1411	0.8198	0.4886	-0.272
Mof_O 	O 	0.2248	0.7819	0.37	-0.301
Mof_O 	O 	0.0431	0.8886	0.3201	-0.287
Mof_O 	O 	0.0282	0.762	0.3717	-0.28
Mof_O 	O 	0.3666	0.7949	0.199	-0.297
Mof_O 	O 	0.3971	0.9022	0.1186	-0.303
Mof_O 	O 	0.1816	0.8921	0.1425	-0.299
Mof_O 	O 	0.2617	0.8518	0.0222	-0.278
Mof_O 	O 	0.2173	0.0857	0.1325	-0.269
Mof_O 	O 	0.1831	0.0943	0.0318	-0.27
Mof_N 	N 	0.9799	0.7492	0.5456	-0.161
Mof_N 	N 	0.7257	0.8168	0.7443	-0.1
Mof_N 	N 	0.6548	0.8871	0.7394	-0.102
Mof_N 	N 	0.4142	0.9436	0.9466	-0.166
Mof_C 	C 	0.9567	0.6876	0.5916	0.112
Mof_H 	H 	0.9984	0.6261	0.5776	0.019
Mof_C 	C 	0.8751	0.7062	0.6595	-0.186
Mof_H 	H 	0.8628	0.6598	0.6932	0.1
Mof_C 	C 	0.8116	0.799	0.6749	0.176
Mof_C 	C 	0.8351	0.8613	0.6255	-0.211
Mof_H 	H 	0.7919	0.9236	0.6345	0.118
Mof_C 	C 	0.9187	0.8362	0.5642	0.129
Mof_H 	H 	0.9355	0.8817	0.5323	0.003
Mof_C 	C 	0.5741	0.9059	0.8119	0.198
Mof_C 	C 	0.5856	0.8996	0.8778	-0.205
Mof_H 	H 	0.6483	0.8841	0.8779	0.127
Mof_C 	C 	0.5046	0.916	0.9462	0.114
Mof_H 	H 	0.5132	0.9076	0.9932	0.009
Mof_C 	C 	0.4047	0.9556	0.8803	0.128
Mof_H 	H 	0.3407	0.9775	0.8803	0.001
Mof_C 	C 	0.4819	0.9382	0.8115	-0.214
Mof_H 	H 	0.4719	0.9481	0.7649	0.113
Mof_C 	C 	0.2088	0.8199	0.4272	0.32
Mof_C 	C 	0.2694	0.8661	0.4216	-0.101
Mof_C 	C 	0.2401	0.9261	0.4769	0.03
Mof_H 	H 	0.1805	0.9373	0.5198	0.04
Mof_C 	C 	0.2958	0.9702	0.4713	-0.106
Mof_H 	H 	0.2739	0.012	0.5093	0.073
Mof_C 	C 	0.3825	0.9528	0.4103	0.044
Mof_C 	C 	0.4142	0.8921	0.3551	-0.098
Mof_H 	H 	0.4757	0.8784	0.3138	0.069
Mof_C 	C 	0.3556	0.851	0.3602	0.027
Mof_H 	H 	0.3756	0.812	0.3207	0.043
Mof_C 	C 	0.4387	0.0045	0.4027	0.035
Mof_C 	C 	0.3926	0.0961	0.4092	-0.087
Mof_H 	H 	0.3246	0.1262	0.4185	0.063
Mof_C 	C 	0.4421	0.1467	0.4027	0.004
Mof_C 	C 	0.5402	0.103	0.3892	-0.088
Mof_H 	H 	0.5737	0.1369	0.3875	0.06
Mof_C 	C 	0.5928	0.009	0.3779	0.036
Mof_C 	C 	0.5401	0.9615	0.3853	-0.101
Mof_H 	H 	0.5735	0.8979	0.3785	0.064
Mof_C 	C 	0.387	0.2482	0.4086	0.118
Mof_C 	C 	0.4002	0.296	0.4508	-0.124
Mof_H 	H 	0.4456	0.2646	0.4753	0.073
Mof_C 	C 	0.3489	0.3875	0.4575	0.075
Mof_H 	H 	0.3578	0.4197	0.4871	0.023
Mof_C 	C 	0.2829	0.4334	0.4203	-0.241
Mof_C 	C 	0.2705	0.3889	0.3758	0.009
Mof_H 	H 	0.2255	0.4201	0.3509	0.042
Mof_C 	C 	0.3263	0.2966	0.3687	-0.036
Mof_H 	H 	0.3228	0.2652	0.3349	0.049
Mof_C 	C 	0.2293	0.5347	0.4245	0.582
Mof_O 	O 	0.143	0.5694	0.4305	-0.273
Mof_O 	O 	0.2455	0.5762	0.4603	-0.201
Mof_C 	C 	0.697	0.964	0.3657	0.027
Mof_C 	C 	0.7578	0.0094	0.3287	-0.084
Mof_H 	H 	0.7323	0.0679	0.3077	0.061
Mof_C 	C 	0.853	0.9694	0.3231	0.009
Mof_H 	H 	0.893	0.001	0.2995	0.047
Mof_C 	C 	0.8915	0.8837	0.3513	-0.085
Mof_C 	C 	0.8341	0.838	0.3861	0.013
Mof_H 	H 	0.8602	0.7792	0.4064	0.04
Mof_C 	C 	0.7396	0.8773	0.3912	-0.091
Mof_H 	H 	0.7014	0.8439	0.4131	0.061
Mof_C 	C 	0.9972	0.8405	0.3468	0.313
Mof_C 	C 	0.4202	0.833	0.1567	0.343
Mof_C 	C 	0.5582	0.7082	0.1915	0.038
Mof_H 	H 	0.5163	0.6793	0.2194	0.036
Mof_C 	C 	0.6539	0.6669	0.1864	-0.11
Mof_H 	H 	0.6769	0.6106	0.2112	0.071
Mof_C 	C 	0.7157	0.7062	0.146	0.049
Mof_C 	C 	0.682	0.7902	0.1125	-0.109
Mof_H 	H 	0.7239	0.8197	0.0871	0.078
Mof_C 	C 	0.5853	0.8306	0.117	0.036
Mof_H 	H 	0.5624	0.887	0.0921	0.035
Mof_C 	C 	0.5216	0.7903	0.1571	-0.109
Mof_C 	C 	0.8219	0.6571	0.1344	0.039
Mof_C 	C 	0.8739	0.7027	0.1335	-0.104
Mof_H 	H 	0.8414	0.766	0.1422	0.07
Mof_C 	C 	0.972	0.6569	0.1203	0.043
Mof_C 	C 	0.0196	0.5649	0.1122	-0.103
Mof_H 	H 	0.0878	0.5349	0.1024	0.067
Mof_C 	C 	0.9691	0.5141	0.1182	0.036
Mof_C 	C 	0.8691	0.5628	0.1282	-0.097
Mof_H 	H 	0.8332	0.531	0.1308	0.065
Mof_C 	C 	0.0182	0.4164	0.1121	0.043
Mof_C 	C 	0.0827	0.3678	0.1464	-0.097
Mof_H 	H 	0.0957	0.3976	0.1748	0.067
Mof_C 	C 	0.1295	0.2759	0.1404	0.026
Mof_H 	H 	0.1724	0.2427	0.1669	0.04
Mof_C 	C 	0.1163	0.2293	0.0966	-0.092
Mof_C 	C 	0.0511	0.2795	0.0606	0.029
Mof_H 	H 	0.0421	0.2506	0.0285	0.037
Mof_C 	C 	0.9995	0.3709	0.0713	-0.096
Mof_H 	H 	0.9502	0.404	0.0506	0.065
Mof_C 	C 	0.176	0.1314	0.0869	0.295
Mof_C 	C 	0.0316	0.7072	0.1134	0.043
Mof_C 	C 	0.9941	0.7777	0.1632	-0.101
Mof_H 	H 	0.9306	0.7953	0.2023	0.072
Mof_C 	C 	0.0497	0.8204	0.1547	0.041
Mof_H 	H 	0.0248	0.8668	0.1896	0.035
Mof_C 	C 	0.1418	0.7992	0.097	-0.102
Mof_C 	C 	0.1766	0.7319	0.0453	0.032
Mof_H 	H 	0.2377	0.7183	0.0037	0.037
Mof_C 	C 	0.1225	0.6846	0.0543	-0.096
Mof_H 	H 	0.1477	0.6372	0.0203	0.064
Mof_C 	C 	0.2004	0.8482	0.086	0.314
Mof_C 	C 	0.4254	0.3051	0.3552	-0.131
Mof_H 	H 	0.484	0.28	0.3118	0.077
Mof_C 	C 	0.3782	0.396	0.3661	0.092
Mof_H 	H 	0.4098	0.4335	0.3371	0.013
Mof_C 	C 	0.2329	0.3822	0.4513	0.116
Mof_H 	H 	0.1637	0.4088	0.4772	0.009
Mof_C 	C 	0.2859	0.2901	0.4442	-0.151
Mof_H 	H 	0.2514	0.2533	0.4648	0.08
Mof_O 	O 	0.2373	0.5842	0.3677	-0.283
Mof_O 	O 	0.1887	0.5713	0.4876	-0.172
Mof_Cd	Cd	0.87702	0.28781	0.55986	0.52
Mof_Cd	Cd	0.79493	0.15902	0.74425	0.451
Mof_Cd	Cd	0.71078	0.0444	0.93672	0.469
Mof_O 	O 	0.8589	0.1802	0.5114	-0.272
Mof_O 	O 	0.7752	0.2181	0.63	-0.301
Mof_O 	O 	0.9569	0.1114	0.6799	-0.287
Mof_O 	O 	0.9718	0.238	0.6283	-0.28
Mof_O 	O 	0.6334	0.2051	0.801	-0.297
Mof_O 	O 	0.6029	0.0978	0.8814	-0.303
Mof_O 	O 	0.8184	0.1079	0.8575	-0.299
Mof_O 	O 	0.7383	0.1482	0.9778	-0.278
Mof_O 	O 	0.7827	0.9143	0.8675	-0.269
Mof_O 	O 	0.8169	0.9057	0.9682	-0.27
Mof_N 	N 	0.0201	0.2508	0.4544	-0.161
Mof_N 	N 	0.2743	0.1832	0.2557	-0.1
Mof_N 	N 	0.3452	0.1129	0.2606	-0.102
Mof_N 	N 	0.5858	0.0564	0.0534	-0.166
Mof_C 	C 	0.0433	0.3124	0.4084	0.112
Mof_H 	H 	0.0016	0.3739	0.4224	0.019
Mof_C 	C 	0.1249	0.2938	0.3405	-0.186
Mof_H 	H 	0.1372	0.3402	0.3068	0.1
Mof_C 	C 	0.1884	0.201	0.3251	0.176
Mof_C 	C 	0.1649	0.1387	0.3745	-0.211
Mof_H 	H 	0.2081	0.0764	0.3655	0.118
Mof_C 	C 	0.0813	0.1638	0.4358	0.129
Mof_H 	H 	0.0645	0.1183	0.4677	0.003
Mof_C 	C 	0.4259	0.0941	0.1881	0.198
Mof_C 	C 	0.4144	0.1004	0.1222	-0.205
Mof_H 	H 	0.3517	0.1159	0.1221	0.127
Mof_C 	C 	0.4954	0.084	0.0538	0.114
Mof_H 	H 	0.4868	0.0924	0.0068	0.009
Mof_C 	C 	0.5953	0.0444	0.1197	0.128
Mof_H 	H 	0.6593	0.0225	0.1197	0.001
Mof_C 	C 	0.5181	0.0618	0.1885	-0.214
Mof_H 	H 	0.5281	0.0519	0.2351	0.113
Mof_C 	C 	0.7912	0.1801	0.5728	0.32
Mof_C 	C 	0.7306	0.1339	0.5784	-0.101
Mof_C 	C 	0.7599	0.0739	0.5231	0.03
Mof_H 	H 	0.8195	0.0627	0.4802	0.04
Mof_C 	C 	0.7042	0.0298	0.5287	-0.106
Mof_H 	H 	0.7261	0.988	0.4907	0.073
Mof_C 	C 	0.6175	0.0472	0.5897	0.044
Mof_C 	C 	0.5858	0.1079	0.6449	-0.098
Mof_H 	H 	0.5243	0.1216	0.6862	0.069
Mof_C 	C 	0.6444	0.149	0.6398	0.027
Mof_H 	H 	0.6244	0.188	0.6793	0.043
Mof_C 	C 	0.5613	0.9955	0.5973	0.035
Mof_C 	C 	0.6074	0.9039	0.5908	-0.087
Mof_H 	H 	0.6754	0.8738	0.5815	0.063
Mof_C 	C 	0.5579	0.8533	0.5973	0.004
Mof_C 	C 	0.4598	0.897	0.6108	-0.088
Mof_H 	H 	0.4263	0.8631	0.6125	0.06
Mof_C 	C 	0.4072	0.991	0.6221	0.036
Mof_C 	C 	0.4599	0.0385	0.6147	-0.101
Mof_H 	H 	0.4265	0.1021	0.6215	0.064
Mof_C 	C 	0.613	0.7518	0.5914	0.118
Mof_C 	C 	0.5998	0.704	0.5492	-0.124
Mof_H 	H 	0.5544	0.7354	0.5247	0.073
Mof_C 	C 	0.6511	0.6125	0.5425	0.075
Mof_H 	H 	0.6422	0.5803	0.5129	0.023
Mof_C 	C 	0.7171	0.5666	0.5797	-0.241
Mof_C 	C 	0.7295	0.6111	0.6242	0.009
Mof_H 	H 	0.7745	0.5799	0.6491	0.042
Mof_C 	C 	0.6737	0.7034	0.6313	-0.036
Mof_H 	H 	0.6772	0.7348	0.6651	0.049
Mof_C 	C 	0.7707	0.4653	0.5755	0.582
Mof_O 	O 	0.857	0.4306	0.5695	-0.273
Mof_O 	O 	0.7545	0.4238	0.5397	-0.201
Mof_C 	C 	0.303	0.036	0.6343	0.027
Mof_C 	C 	0.2422	0.9906	0.6713	-0.084
Mof_H 	H 	0.2677	0.9321	0.6923	0.061
Mof_C 	C 	0.147	0.0306	0.6769	0.009
Mof_H 	H 	0.107	0.999	0.7005	0.047
Mof_C 	C 	0.1085	0.1163	0.6487	-0.085
Mof_C 	C 	0.1659	0.162	0.6139	0.013
Mof_H 	H 	0.1398	0.2208	0.5936	0.04
Mof_C 	C 	0.2604	0.1227	0.6088	-0.091
Mof_H 	H 	0.2986	0.1561	0.5869	0.061
Mof_C 	C 	0.0028	0.1595	0.6532	0.313
Mof_C 	C 	0.5798	0.167	0.8433	0.343
Mof_C 	C 	0.4418	0.2918	0.8085	0.038
Mof_H 	H 	0.4837	0.3207	0.7806	0.036
Mof_C 	C 	0.3461	0.3331	0.8136	-0.11
Mof_H 	H 	0.3231	0.3894	0.7888	0.071
Mof_C 	C 	0.2843	0.2938	0.854	0.049
Mof_C 	C 	0.318	0.2098	0.8875	-0.109
Mof_H 	H 	0.2761	0.1803	0.9129	0.078
Mof_C 	C 	0.4147	0.1694	0.883	0.036
Mof_H 	H 	0.4376	0.113	0.9079	0.035
Mof_C 	C 	0.4784	0.2097	0.8429	-0.109
Mof_C 	C 	0.1781	0.3429	0.8656	0.039
Mof_C 	C 	0.1261	0.2973	0.8665	-0.104
Mof_H 	H 	0.1586	0.234	0.8578	0.07
Mof_C 	C 	0.028	0.3431	0.8797	0.043
Mof_C 	C 	0.9804	0.4351	0.8878	-0.103
Mof_H 	H 	0.9122	0.4651	0.8976	0.067
Mof_C 	C 	0.0309	0.4859	0.8818	0.036
Mof_C 	C 	0.1309	0.4372	0.8718	-0.097
Mof_H 	H 	0.1668	0.469	0.8692	0.065
Mof_C 	C 	0.9818	0.5836	0.8879	0.043
Mof_C 	C 	0.9173	0.6322	0.8536	-0.097
Mof_H 	H 	0.9043	0.6024	0.8252	0.067
Mof_C 	C 	0.8705	0.7241	0.8596	0.026
Mof_H 	H 	0.8276	0.7573	0.8331	0.04
Mof_C 	C 	0.8837	0.7707	0.9034	-0.092
Mof_C 	C 	0.9489	0.7205	0.9394	0.029
Mof_H 	H 	0.9579	0.7494	0.9715	0.037
Mof_C 	C 	0.0005	0.6291	0.9287	-0.096
Mof_H 	H 	0.0498	0.596	0.9494	0.065
Mof_C 	C 	0.824	0.8686	0.9131	0.295
Mof_C 	C 	0.9684	0.2928	0.8866	0.043
Mof_C 	C 	0.0059	0.2223	0.8368	-0.101
Mof_H 	H 	0.0694	0.2047	0.7977	0.072
Mof_C 	C 	0.9503	0.1796	0.8453	0.041
Mof_H 	H 	0.9752	0.1332	0.8104	0.035
Mof_C 	C 	0.8582	0.2008	0.903	-0.102
Mof_C 	C 	0.8234	0.2681	0.9547	0.032
Mof_H 	H 	0.7623	0.2817	0.9963	0.037
Mof_C 	C 	0.8775	0.3154	0.9457	-0.096
Mof_H 	H 	0.8523	0.3628	0.9797	0.064
Mof_C 	C 	0.7996	0.1518	0.914	0.314
Mof_C 	C 	0.5746	0.6949	0.6448	-0.131
Mof_H 	H 	0.516	0.72	0.6882	0.077
Mof_C 	C 	0.6218	0.604	0.6339	0.092
Mof_H 	H 	0.5902	0.5665	0.6629	0.013
Mof_C 	C 	0.7671	0.6178	0.5487	0.116
Mof_H 	H 	0.8363	0.5912	0.5228	0.009
Mof_C 	C 	0.7141	0.7099	0.5558	-0.151
Mof_H 	H 	0.7486	0.7467	0.5352	0.08
Mof_O 	O 	0.7627	0.4158	0.6323	-0.283
Mof_O 	O 	0.8113	0.4287	0.5124	-0.172
_end
