data_functionalizedCrystal
_audit_creation_method	'EQeq! by Chris Wilmer'
_symmetry_space_group_name_H-M	'P1'
_symmetry_Int_Tables_number	1
_symmetry_cell_setting	triclinic
loop_
_symmetry_equiv_pos_as_xyz
  x,y,z
_cell_length_a	7.6506
_cell_length_b	9.8596
_cell_length_c	14.8519
_cell_angle_alpha	90
_cell_angle_beta	98.389
_cell_angle_gamma	90
loop_
_atom_site_label
_atom_site_type_symbol
_atom_site_fract_x
_atom_site_fract_y
_atom_site_fract_z
_atom_site_charge
Mof_Eu	Eu	0.8527	0.45549	0.63954	2.32
Mof_Eu	Eu	0.6473	0.95549	0.86046	2.295
Mof_Eu	Eu	0.1473	0.54451	0.36046	2.319
Mof_Eu	Eu	0.3527	0.04451	0.13954	2.294
Mof_H 	H 	0.8846	0.6985	0.016	-0.028
Mof_H 	H 	0.6742	0.3875	0.8652	-0.076
Mof_H 	H 	0.7039	0.3893	0.1367	-0.053
Mof_H 	H 	0.6154	0.1985	0.484	-0.026
Mof_H 	H 	0.8258	0.8875	0.6348	-0.071
Mof_H 	H 	0.7961	0.8893	0.3633	-0.05
Mof_H 	H 	0.1154	0.3015	0.984	-0.028
Mof_H 	H 	0.3258	0.6125	0.1348	-0.076
Mof_H 	H 	0.2961	0.6107	0.8633	-0.053
Mof_H 	H 	0.3846	0.8015	0.516	-0.026
Mof_H 	H 	0.1742	0.1125	0.3652	-0.071
Mof_H 	H 	0.2039	0.1107	0.6367	-0.05
Mof_C 	C 	0.8307	0.6137	0.0125	0.182
Mof_C 	C 	0.7791	0.5582	0.9263	-0.318
Mof_C 	C 	0.7041	0.4302	0.9212	0.247
Mof_C 	C 	0.6741	0.3668	0.0008	-0.318
Mof_C 	C 	0.7262	0.4316	0.0836	0.181
Mof_C 	C 	0.8076	0.637	0.8441	0.562
Mof_C 	C 	0.588	0.2295	0.9993	0.626
Mof_C 	C 	0.4566	0.5314	0.5388	0.273
Mof_C 	C 	0.6693	0.1137	0.4875	0.173
Mof_C 	C 	0.7209	0.0582	0.5737	-0.301
Mof_C 	C 	0.7959	0.9302	0.5788	0.23
Mof_C 	C 	0.8259	0.8668	0.4992	-0.305
Mof_C 	C 	0.7738	0.9316	0.4164	0.174
Mof_C 	C 	0.6924	0.137	0.6559	0.556
Mof_C 	C 	0.912	0.7295	0.5007	0.615
Mof_C 	C 	0.0434	0.0314	0.9612	0.271
Mof_C 	C 	0.1693	0.3863	0.9875	0.182
Mof_C 	C 	0.2209	0.4418	0.0737	-0.318
Mof_C 	C 	0.2959	0.5698	0.0788	0.247
Mof_C 	C 	0.3259	0.6332	0.9992	-0.318
Mof_C 	C 	0.2738	0.5684	0.9164	0.181
Mof_C 	C 	0.1924	0.363	0.1559	0.562
Mof_C 	C 	0.412	0.7705	0.0007	0.626
Mof_C 	C 	0.5434	0.4686	0.4612	0.273
Mof_C 	C 	0.3307	0.8863	0.5125	0.173
Mof_C 	C 	0.2791	0.9418	0.4263	-0.301
Mof_C 	C 	0.2041	0.0698	0.4212	0.23
Mof_C 	C 	0.1741	0.1332	0.5008	-0.305
Mof_C 	C 	0.2262	0.0684	0.5836	0.174
Mof_C 	C 	0.3076	0.863	0.3441	0.556
Mof_C 	C 	0.088	0.2705	0.4993	0.615
Mof_C 	C 	0.9566	0.9686	0.0388	0.271
Mof_N 	N 	0.8075	0.553	0.0899	-0.202
Mof_N 	N 	0.6925	0.053	0.4101	-0.199
Mof_N 	N 	0.1925	0.447	0.9101	-0.202
Mof_N 	N 	0.3075	0.947	0.5899	-0.199
Mof_O 	O 	0.8042	0.5773	0.76981	-0.621
Mof_O 	O 	0.834	0.764	0.85353	-0.582
Mof_O 	O 	0.5895	0.159	0.92893	-0.629
Mof_O 	O 	0.5224	0.1939	0.06779	-0.651
Mof_O 	O 	0.5529	0.549	0.61357	-0.455
Mof_O 	O 	0.2964	0.562	0.52042	-0.453
Mof_O 	O 	0.6958	0.0773	0.73019	-0.613
Mof_O 	O 	0.666	0.264	0.64647	-0.579
Mof_O 	O 	0.9105	0.659	0.57107	-0.633
Mof_O 	O 	0.9776	0.6939	0.43221	-0.648
Mof_O 	O 	0.9471	0.049	0.88643	-0.447
Mof_O 	O 	0.2036	0.062	0.97958	-0.446
Mof_O 	O 	0.1958	0.4227	0.23019	-0.621
Mof_O 	O 	0.166	0.236	0.14647	-0.582
Mof_O 	O 	0.4105	0.841	0.07107	-0.629
Mof_O 	O 	0.4776	0.8061	0.93221	-0.651
Mof_O 	O 	0.4471	0.451	0.38643	-0.455
Mof_O 	O 	0.7036	0.438	0.47958	-0.453
Mof_O 	O 	0.3042	0.9227	0.26981	-0.613
Mof_O 	O 	0.334	0.736	0.35353	-0.579
Mof_O 	O 	0.0895	0.341	0.42893	-0.633
Mof_O 	O 	0.0224	0.3061	0.56779	-0.648
Mof_O 	O 	0.0529	0.951	0.11357	-0.447
Mof_O 	O 	0.7964	0.938	0.02042	-0.446
_end
