data_functionalizedCrystal
_audit_creation_method	'EQeq! by Chris Wilmer'
_symmetry_space_group_name_H-M	'P1'
_symmetry_Int_Tables_number	1
_symmetry_cell_setting	triclinic
loop_
_symmetry_equiv_pos_as_xyz
  x,y,z
_cell_length_a	34.533
_cell_length_b	34.533
_cell_length_c	8.473
_cell_angle_alpha	90
_cell_angle_beta	90
_cell_angle_gamma	120
loop_
_atom_site_label
_atom_site_type_symbol
_atom_site_fract_x
_atom_site_fract_y
_atom_site_fract_z
_atom_site_charge
Mof_Ag	Ag	0.14518	0.31774	0.50581	0.443
Mof_O 	O 	0.33328	0.3288	0.7516	-0.212
Mof_N 	N 	0.2047	0.3378	0.6547	-0.198
Mof_N 	N 	0.2765	0.1975	0.6036	-0.197
Mof_C 	C 	0.2181	0.3728	0.7508	0.064
Mof_H 	H 	0.2015	0.3874	0.7542	-0.021
Mof_C 	C 	0.2555	0.3884	0.8456	-0.136
Mof_H 	H 	0.2638	0.4128	0.9118	0.058
Mof_C 	C 	0.28	0.3675	0.8408	0.022
Mof_H 	H 	0.3057	0.3779	0.9016	0.037
Mof_C 	C 	0.266	0.3301	0.7438	-0.078
Mof_C 	C 	0.228	0.3171	0.6528	0.055
Mof_H 	H 	0.2184	0.2924	0.5871	-0.007
Mof_C 	C 	0.2928	0.3074	0.7344	0.177
Mof_C 	C 	0.2705	0.2585	0.7086	-0.074
Mof_C 	C 	0.2284	0.2288	0.7744	0.019
Mof_H 	H 	0.2125	0.2392	0.8317	0.014
Mof_C 	C 	0.2118	0.184	0.7508	-0.123
Mof_H 	H 	0.184	0.1633	0.7916	0.059
Mof_C 	C 	0.2365	0.1694	0.6662	0.062
Mof_H 	H 	0.2247	0.1389	0.6521	-0.022
Mof_C 	C 	0.2933	0.2412	0.6286	0.054
Mof_H 	H 	0.3217	0.2609	0.5902	0.013
Mof_Ag	Ag	0.68226	0.82744	0.50581	0.442
Mof_O 	O 	0.6712	0.00448	0.7516	-0.214
Mof_N 	N 	0.6622	0.8669	0.6547	-0.199
Mof_N 	N 	0.8025	0.079	0.6036	-0.198
Mof_C 	C 	0.6272	0.8453	0.7508	0.063
Mof_H 	H 	0.6126	0.8141	0.7542	-0.022
Mof_C 	C 	0.6116	0.8671	0.8456	-0.137
Mof_H 	H 	0.5872	0.851	0.9118	0.057
Mof_C 	C 	0.6325	0.9125	0.8408	0.022
Mof_H 	H 	0.6221	0.9278	0.9016	0.037
Mof_C 	C 	0.6699	0.9359	0.7438	-0.079
Mof_C 	C 	0.6829	0.9109	0.6528	0.055
Mof_H 	H 	0.7076	0.926	0.5871	-0.007
Mof_C 	C 	0.6926	0.9854	0.7344	0.178
Mof_C 	C 	0.7415	0.012	0.7086	-0.075
Mof_C 	C 	0.7712	0.9996	0.7744	0.019
Mof_H 	H 	0.7608	0.9733	0.8317	0.014
Mof_C 	C 	0.816	0.0278	0.7508	-0.124
Mof_H 	H 	0.8367	0.0207	0.7916	0.059
Mof_C 	C 	0.8306	0.0671	0.6662	0.062
Mof_H 	H 	0.8611	0.0858	0.6521	-0.022
Mof_C 	C 	0.7588	0.0521	0.6286	0.054
Mof_H 	H 	0.7391	0.0608	0.5902	0.013
Mof_Ag	Ag	0.17256	0.85482	0.50581	0.442
Mof_O 	O 	0.99552	0.66672	0.7516	-0.213
Mof_N 	N 	0.1331	0.7953	0.6547	-0.199
Mof_N 	N 	0.921	0.7235	0.6036	-0.198
Mof_C 	C 	0.1547	0.7819	0.7508	0.063
Mof_H 	H 	0.1859	0.7985	0.7542	-0.022
Mof_C 	C 	0.1329	0.7445	0.8456	-0.137
Mof_H 	H 	0.149	0.7362	0.9118	0.057
Mof_C 	C 	0.0875	0.72	0.8408	0.022
Mof_H 	H 	0.0722	0.6943	0.9016	0.037
Mof_C 	C 	0.0641	0.734	0.7438	-0.078
Mof_C 	C 	0.0891	0.772	0.6528	0.055
Mof_H 	H 	0.074	0.7816	0.5871	-0.007
Mof_C 	C 	0.0146	0.7072	0.7344	0.177
Mof_C 	C 	0.988	0.7295	0.7086	-0.074
Mof_C 	C 	0.0004	0.7716	0.7744	0.019
Mof_H 	H 	0.0267	0.7875	0.8317	0.014
Mof_C 	C 	0.9722	0.7882	0.7508	-0.124
Mof_H 	H 	0.9793	0.816	0.7916	0.059
Mof_C 	C 	0.9329	0.7635	0.6662	0.062
Mof_H 	H 	0.9142	0.7753	0.6521	-0.022
Mof_C 	C 	0.9479	0.7067	0.6286	0.054
Mof_H 	H 	0.9392	0.6783	0.5902	0.013
Mof_Ag	Ag	0.85482	0.68226	0.49419	0.442
Mof_O 	O 	0.66672	0.6712	0.2484	-0.213
Mof_N 	N 	0.7953	0.6622	0.3453	-0.199
Mof_N 	N 	0.7235	0.8025	0.3964	-0.198
Mof_C 	C 	0.7819	0.6272	0.2492	0.063
Mof_H 	H 	0.7985	0.6126	0.2458	-0.022
Mof_C 	C 	0.7445	0.6116	0.1544	-0.137
Mof_H 	H 	0.7362	0.5872	0.0882	0.057
Mof_C 	C 	0.72	0.6325	0.1592	0.022
Mof_H 	H 	0.6943	0.6221	0.0984	0.037
Mof_C 	C 	0.734	0.6699	0.2562	-0.078
Mof_C 	C 	0.772	0.6829	0.3472	0.055
Mof_H 	H 	0.7816	0.7076	0.4129	-0.007
Mof_C 	C 	0.7072	0.6926	0.2656	0.177
Mof_C 	C 	0.7295	0.7415	0.2914	-0.074
Mof_C 	C 	0.7716	0.7712	0.2256	0.019
Mof_H 	H 	0.7875	0.7608	0.1683	0.014
Mof_C 	C 	0.7882	0.816	0.2492	-0.123
Mof_H 	H 	0.816	0.8367	0.2084	0.059
Mof_C 	C 	0.7635	0.8306	0.3338	0.062
Mof_H 	H 	0.7753	0.8611	0.3479	-0.022
Mof_C 	C 	0.7067	0.7588	0.3714	0.054
Mof_H 	H 	0.6783	0.7391	0.4098	0.013
Mof_Ag	Ag	0.31774	0.17256	0.49419	0.442
Mof_O 	O 	0.3288	0.99552	0.2484	-0.214
Mof_N 	N 	0.3378	0.1331	0.3453	-0.199
Mof_N 	N 	0.1975	0.921	0.3964	-0.198
Mof_C 	C 	0.3728	0.1547	0.2492	0.063
Mof_H 	H 	0.3874	0.1859	0.2458	-0.022
Mof_C 	C 	0.3884	0.1329	0.1544	-0.137
Mof_H 	H 	0.4128	0.149	0.0882	0.057
Mof_C 	C 	0.3675	0.0875	0.1592	0.022
Mof_H 	H 	0.3779	0.0722	0.0984	0.037
Mof_C 	C 	0.3301	0.0641	0.2562	-0.079
Mof_C 	C 	0.3171	0.0891	0.3472	0.055
Mof_H 	H 	0.2924	0.074	0.4129	-0.007
Mof_C 	C 	0.3074	0.0146	0.2656	0.178
Mof_C 	C 	0.2585	0.988	0.2914	-0.075
Mof_C 	C 	0.2288	0.0004	0.2256	0.019
Mof_H 	H 	0.2392	0.0267	0.1683	0.014
Mof_C 	C 	0.184	0.9722	0.2492	-0.124
Mof_H 	H 	0.1633	0.9793	0.2084	0.059
Mof_C 	C 	0.1694	0.9329	0.3338	0.062
Mof_H 	H 	0.1389	0.9142	0.3479	-0.022
Mof_C 	C 	0.2412	0.9479	0.3714	0.054
Mof_H 	H 	0.2609	0.9392	0.4098	0.013
Mof_Ag	Ag	0.82744	0.14518	0.49419	0.442
Mof_O 	O 	0.00448	0.33328	0.2484	-0.213
Mof_N 	N 	0.8669	0.2047	0.3453	-0.199
Mof_N 	N 	0.079	0.2765	0.3964	-0.198
Mof_C 	C 	0.8453	0.2181	0.2492	0.063
Mof_H 	H 	0.8141	0.2015	0.2458	-0.022
Mof_C 	C 	0.8671	0.2555	0.1544	-0.137
Mof_H 	H 	0.851	0.2638	0.0882	0.057
Mof_C 	C 	0.9125	0.28	0.1592	0.022
Mof_H 	H 	0.9278	0.3057	0.0984	0.037
Mof_C 	C 	0.9359	0.266	0.2562	-0.078
Mof_C 	C 	0.9109	0.228	0.3472	0.055
Mof_H 	H 	0.926	0.2184	0.4129	-0.007
Mof_C 	C 	0.9854	0.2928	0.2656	0.177
Mof_C 	C 	0.012	0.2705	0.2914	-0.074
Mof_C 	C 	0.9996	0.2284	0.2256	0.019
Mof_H 	H 	0.9733	0.2125	0.1683	0.014
Mof_C 	C 	0.0278	0.2118	0.2492	-0.124
Mof_H 	H 	0.0207	0.184	0.2084	0.059
Mof_C 	C 	0.0671	0.2365	0.3338	0.062
Mof_H 	H 	0.0858	0.2247	0.3479	-0.022
Mof_C 	C 	0.0521	0.2933	0.3714	0.054
Mof_H 	H 	0.0608	0.3217	0.4098	0.013
Mof_Ag	Ag	0.81185	0.65107	0.83914	0.442
Mof_O 	O 	0.99995	0.66213	0.08493	-0.213
Mof_N 	N 	0.87137	0.67113	0.98803	-0.199
Mof_N 	N 	0.94317	0.53083	0.93693	-0.198
Mof_C 	C 	0.88477	0.70613	0.08413	0.063
Mof_H 	H 	0.86817	0.72073	0.08753	-0.022
Mof_C 	C 	0.92217	0.72173	0.17893	-0.137
Mof_H 	H 	0.93047	0.74613	0.24513	0.057
Mof_C 	C 	0.94667	0.70083	0.17413	0.022
Mof_H 	H 	0.97237	0.71123	0.23493	0.037
Mof_C 	C 	0.93267	0.66343	0.07713	-0.078
Mof_C 	C 	0.89467	0.65043	0.98613	0.055
Mof_H 	H 	0.88507	0.62573	0.92043	-0.007
Mof_C 	C 	0.95947	0.64073	0.06773	0.177
Mof_C 	C 	0.93717	0.59183	0.04193	-0.073
Mof_C 	C 	0.89507	0.56213	0.10773	0.018
Mof_H 	H 	0.87917	0.57253	0.16503	0.014
Mof_C 	C 	0.87847	0.51733	0.08413	-0.122
Mof_H 	H 	0.85067	0.49663	0.12493	0.059
Mof_C 	C 	0.90317	0.50273	0.99953	0.061
Mof_H 	H 	0.89137	0.47223	0.98543	-0.022
Mof_C 	C 	0.95997	0.57453	0.96193	0.053
Mof_H 	H 	0.98837	0.59423	0.92353	0.013
Mof_Ag	Ag	0.34893	0.16077	0.83914	0.442
Mof_O 	O 	0.33787	0.33781	0.08493	-0.213
Mof_N 	N 	0.32887	0.20023	0.98803	-0.199
Mof_N 	N 	0.46917	0.41233	0.93693	-0.198
Mof_C 	C 	0.29387	0.17863	0.08413	0.063
Mof_H 	H 	0.27927	0.14743	0.08753	-0.022
Mof_C 	C 	0.27827	0.20043	0.17893	-0.137
Mof_H 	H 	0.25387	0.18433	0.24513	0.057
Mof_C 	C 	0.29917	0.24583	0.17413	0.022
Mof_H 	H 	0.28877	0.26113	0.23493	0.037
Mof_C 	C 	0.33657	0.26923	0.07713	-0.078
Mof_C 	C 	0.34957	0.24423	0.98613	0.055
Mof_H 	H 	0.37427	0.25933	0.92043	-0.007
Mof_C 	C 	0.35927	0.31873	0.06773	0.177
Mof_C 	C 	0.40817	0.34533	0.04193	-0.073
Mof_C 	C 	0.43787	0.33293	0.10773	0.018
Mof_H 	H 	0.42747	0.30663	0.16503	0.014
Mof_C 	C 	0.48267	0.36113	0.08413	-0.122
Mof_H 	H 	0.50337	0.35403	0.12493	0.059
Mof_C 	C 	0.49727	0.40043	0.99953	0.061
Mof_H 	H 	0.52777	0.41913	0.98543	-0.022
Mof_C 	C 	0.42547	0.38543	0.96193	0.053
Mof_H 	H 	0.40577	0.39413	0.92353	0.013
Mof_Ag	Ag	0.83923	0.18815	0.83914	0.442
Mof_O 	O 	0.66219	5e-05	0.08493	-0.213
Mof_N 	N 	0.79977	0.12863	0.98803	-0.199
Mof_N 	N 	0.58767	0.05683	0.93693	-0.198
Mof_C 	C 	0.82137	0.11523	0.08413	0.063
Mof_H 	H 	0.85257	0.13183	0.08753	-0.022
Mof_C 	C 	0.79957	0.07783	0.17893	-0.137
Mof_H 	H 	0.81567	0.06953	0.24513	0.057
Mof_C 	C 	0.75417	0.05333	0.17413	0.022
Mof_H 	H 	0.73887	0.02763	0.23493	0.037
Mof_C 	C 	0.73077	0.06733	0.07713	-0.078
Mof_C 	C 	0.75577	0.10533	0.98613	0.054
Mof_H 	H 	0.74067	0.11493	0.92043	-0.007
Mof_C 	C 	0.68127	0.04053	0.06773	0.177
Mof_C 	C 	0.65467	0.06283	0.04193	-0.073
Mof_C 	C 	0.66707	0.10493	0.10773	0.018
Mof_H 	H 	0.69337	0.12083	0.16503	0.014
Mof_C 	C 	0.63887	0.12153	0.08413	-0.122
Mof_H 	H 	0.64597	0.14933	0.12493	0.059
Mof_C 	C 	0.59957	0.09683	0.99953	0.06
Mof_H 	H 	0.58087	0.10863	0.98543	-0.022
Mof_C 	C 	0.61457	0.04003	0.96193	0.053
Mof_H 	H 	0.60587	0.01163	0.92353	0.013
Mof_Ag	Ag	0.52149	0.01559	0.82752	0.442
Mof_O 	O 	0.33339	0.00453	0.58173	-0.213
Mof_N 	N 	0.46197	0.99553	0.67863	-0.199
Mof_N 	N 	0.39017	0.13583	0.72973	-0.198
Mof_C 	C 	0.44857	0.96053	0.58253	0.063
Mof_H 	H 	0.46517	0.94593	0.57913	-0.022
Mof_C 	C 	0.41117	0.94493	0.48773	-0.137
Mof_H 	H 	0.40287	0.92053	0.42153	0.057
Mof_C 	C 	0.38667	0.96583	0.49253	0.022
Mof_H 	H 	0.36097	0.95543	0.43173	0.037
Mof_C 	C 	0.40067	0.00323	0.58953	-0.078
Mof_C 	C 	0.43867	0.01623	0.68053	0.055
Mof_H 	H 	0.44827	0.04093	0.74623	-0.007
Mof_C 	C 	0.37387	0.02593	0.59893	0.177
Mof_C 	C 	0.39617	0.07483	0.62473	-0.074
Mof_C 	C 	0.43827	0.10453	0.55893	0.019
Mof_H 	H 	0.45417	0.09413	0.50163	0.014
Mof_C 	C 	0.45487	0.14933	0.58253	-0.124
Mof_H 	H 	0.48267	0.17003	0.54173	0.059
Mof_C 	C 	0.43017	0.16393	0.66713	0.062
Mof_H 	H 	0.44197	0.19443	0.68123	-0.022
Mof_C 	C 	0.37337	0.09213	0.70473	0.054
Mof_H 	H 	0.34497	0.07243	0.74313	0.013
Mof_Ag	Ag	0.98441	0.50589	0.82752	0.442
Mof_O 	O 	0.99547	0.32885	0.58173	-0.213
Mof_N 	N 	0.00447	0.46643	0.67863	-0.199
Mof_N 	N 	0.86417	0.25433	0.72973	-0.198
Mof_C 	C 	0.03947	0.48803	0.58253	0.063
Mof_H 	H 	0.05407	0.51923	0.57913	-0.022
Mof_C 	C 	0.05507	0.46623	0.48773	-0.137
Mof_H 	H 	0.07947	0.48233	0.42153	0.057
Mof_C 	C 	0.03417	0.42083	0.49253	0.022
Mof_H 	H 	0.04457	0.40553	0.43173	0.037
Mof_C 	C 	0.99677	0.39743	0.58953	-0.079
Mof_C 	C 	0.98377	0.42243	0.68053	0.055
Mof_H 	H 	0.95907	0.40733	0.74623	-0.007
Mof_C 	C 	0.97407	0.34793	0.59893	0.177
Mof_C 	C 	0.92517	0.32133	0.62473	-0.074
Mof_C 	C 	0.89547	0.33373	0.55893	0.019
Mof_H 	H 	0.90587	0.36003	0.50163	0.014
Mof_C 	C 	0.85067	0.30553	0.58253	-0.124
Mof_H 	H 	0.82997	0.31263	0.54173	0.059
Mof_C 	C 	0.83607	0.26623	0.66713	0.062
Mof_H 	H 	0.80557	0.24753	0.68123	-0.022
Mof_C 	C 	0.90787	0.28123	0.70473	0.054
Mof_H 	H 	0.92757	0.27253	0.74313	0.013
Mof_Ag	Ag	0.49411	0.47851	0.82752	0.442
Mof_O 	O 	0.67115	0.66661	0.58173	-0.213
Mof_N 	N 	0.53357	0.53803	0.67863	-0.199
Mof_N 	N 	0.74567	0.60983	0.72973	-0.198
Mof_C 	C 	0.51197	0.55143	0.58253	0.063
Mof_H 	H 	0.48077	0.53483	0.57913	-0.022
Mof_C 	C 	0.53377	0.58883	0.48773	-0.137
Mof_H 	H 	0.51767	0.59713	0.42153	0.057
Mof_C 	C 	0.57917	0.61333	0.49253	0.022
Mof_H 	H 	0.59447	0.63903	0.43173	0.037
Mof_C 	C 	0.60257	0.59933	0.58953	-0.078
Mof_C 	C 	0.57757	0.56133	0.68053	0.055
Mof_H 	H 	0.59267	0.55173	0.74623	-0.007
Mof_C 	C 	0.65207	0.62613	0.59893	0.177
Mof_C 	C 	0.67867	0.60383	0.62473	-0.074
Mof_C 	C 	0.66627	0.56173	0.55893	0.019
Mof_H 	H 	0.63997	0.54583	0.50163	0.014
Mof_C 	C 	0.69447	0.54513	0.58253	-0.124
Mof_H 	H 	0.68737	0.51733	0.54173	0.059
Mof_C 	C 	0.73377	0.56983	0.66713	0.062
Mof_H 	H 	0.75247	0.55803	0.68123	-0.022
Mof_C 	C 	0.71877	0.62663	0.70473	0.054
Mof_H 	H 	0.72747	0.65503	0.74313	0.013
Mof_Ag	Ag	0.47851	0.98441	0.17248	0.442
Mof_O 	O 	0.66661	0.99547	0.41827	-0.213
Mof_N 	N 	0.53803	0.00447	0.32137	-0.199
Mof_N 	N 	0.60983	0.86417	0.27027	-0.198
Mof_C 	C 	0.55143	0.03947	0.41747	0.063
Mof_H 	H 	0.53483	0.05407	0.42087	-0.022
Mof_C 	C 	0.58883	0.05507	0.51227	-0.137
Mof_H 	H 	0.59713	0.07947	0.57847	0.057
Mof_C 	C 	0.61333	0.03417	0.50747	0.022
Mof_H 	H 	0.63903	0.04457	0.56827	0.037
Mof_C 	C 	0.59933	0.99677	0.41047	-0.078
Mof_C 	C 	0.56133	0.98377	0.31947	0.055
Mof_H 	H 	0.55173	0.95907	0.25377	-0.007
Mof_C 	C 	0.62613	0.97407	0.40107	0.177
Mof_C 	C 	0.60383	0.92517	0.37527	-0.074
Mof_C 	C 	0.56173	0.89547	0.44107	0.019
Mof_H 	H 	0.54583	0.90587	0.49837	0.014
Mof_C 	C 	0.54513	0.85067	0.41747	-0.124
Mof_H 	H 	0.51733	0.82997	0.45827	0.059
Mof_C 	C 	0.56983	0.83607	0.33287	0.062
Mof_H 	H 	0.55803	0.80557	0.31877	-0.022
Mof_C 	C 	0.62663	0.90787	0.29527	0.054
Mof_H 	H 	0.65503	0.92757	0.25687	0.013
Mof_Ag	Ag	0.01559	0.49411	0.17248	0.442
Mof_O 	O 	0.00453	0.67115	0.41827	-0.213
Mof_N 	N 	0.99553	0.53357	0.32137	-0.199
Mof_N 	N 	0.13583	0.74567	0.27027	-0.198
Mof_C 	C 	0.96053	0.51197	0.41747	0.063
Mof_H 	H 	0.94593	0.48077	0.42087	-0.022
Mof_C 	C 	0.94493	0.53377	0.51227	-0.137
Mof_H 	H 	0.92053	0.51767	0.57847	0.057
Mof_C 	C 	0.96583	0.57917	0.50747	0.022
Mof_H 	H 	0.95543	0.59447	0.56827	0.037
Mof_C 	C 	0.00323	0.60257	0.41047	-0.079
Mof_C 	C 	0.01623	0.57757	0.31947	0.055
Mof_H 	H 	0.04093	0.59267	0.25377	-0.007
Mof_C 	C 	0.02593	0.65207	0.40107	0.177
Mof_C 	C 	0.07483	0.67867	0.37527	-0.074
Mof_C 	C 	0.10453	0.66627	0.44107	0.019
Mof_H 	H 	0.09413	0.63997	0.49837	0.014
Mof_C 	C 	0.14933	0.69447	0.41747	-0.124
Mof_H 	H 	0.17003	0.68737	0.45827	0.059
Mof_C 	C 	0.16393	0.73377	0.33287	0.062
Mof_H 	H 	0.19443	0.75247	0.31877	-0.022
Mof_C 	C 	0.09213	0.71877	0.29527	0.054
Mof_H 	H 	0.07243	0.72747	0.25687	0.013
Mof_Ag	Ag	0.50589	0.52149	0.17248	0.442
Mof_O 	O 	0.32885	0.33339	0.41827	-0.213
Mof_N 	N 	0.46643	0.46197	0.32137	-0.199
Mof_N 	N 	0.25433	0.39017	0.27027	-0.198
Mof_C 	C 	0.48803	0.44857	0.41747	0.063
Mof_H 	H 	0.51923	0.46517	0.42087	-0.022
Mof_C 	C 	0.46623	0.41117	0.51227	-0.137
Mof_H 	H 	0.48233	0.40287	0.57847	0.057
Mof_C 	C 	0.42083	0.38667	0.50747	0.022
Mof_H 	H 	0.40553	0.36097	0.56827	0.037
Mof_C 	C 	0.39743	0.40067	0.41047	-0.078
Mof_C 	C 	0.42243	0.43867	0.31947	0.055
Mof_H 	H 	0.40733	0.44827	0.25377	-0.007
Mof_C 	C 	0.34793	0.37387	0.40107	0.177
Mof_C 	C 	0.32133	0.39617	0.37527	-0.074
Mof_C 	C 	0.33373	0.43827	0.44107	0.019
Mof_H 	H 	0.36003	0.45417	0.49837	0.014
Mof_C 	C 	0.30553	0.45487	0.41747	-0.124
Mof_H 	H 	0.31263	0.48267	0.45827	0.059
Mof_C 	C 	0.26623	0.43017	0.33287	0.062
Mof_H 	H 	0.24753	0.44197	0.31877	-0.022
Mof_C 	C 	0.28123	0.37337	0.29527	0.054
Mof_H 	H 	0.27253	0.34497	0.25687	0.013
Mof_Ag	Ag	0.18815	0.34893	0.16086	0.442
Mof_O 	O 	5e-05	0.33787	0.91507	-0.213
Mof_N 	N 	0.12863	0.32887	0.01197	-0.199
Mof_N 	N 	0.05683	0.46917	0.06307	-0.198
Mof_C 	C 	0.11523	0.29387	0.91587	0.063
Mof_H 	H 	0.13183	0.27927	0.91247	-0.022
Mof_C 	C 	0.07783	0.27827	0.82107	-0.137
Mof_H 	H 	0.06953	0.25387	0.75487	0.057
Mof_C 	C 	0.05333	0.29917	0.82587	0.022
Mof_H 	H 	0.02763	0.28877	0.76507	0.037
Mof_C 	C 	0.06733	0.33657	0.92287	-0.078
Mof_C 	C 	0.10533	0.34957	0.01387	0.055
Mof_H 	H 	0.11493	0.37427	0.07957	-0.007
Mof_C 	C 	0.04053	0.35927	0.93227	0.177
Mof_C 	C 	0.06283	0.40817	0.95807	-0.073
Mof_C 	C 	0.10493	0.43787	0.89227	0.018
Mof_H 	H 	0.12083	0.42747	0.83497	0.014
Mof_C 	C 	0.12153	0.48267	0.91587	-0.122
Mof_H 	H 	0.14933	0.50337	0.87507	0.059
Mof_C 	C 	0.09683	0.49727	0.00047	0.061
Mof_H 	H 	0.10863	0.52777	0.01457	-0.022
Mof_C 	C 	0.04003	0.42547	0.03807	0.053
Mof_H 	H 	0.01163	0.40577	0.07647	0.013
Mof_Ag	Ag	0.65107	0.83923	0.16086	0.442
Mof_O 	O 	0.66213	0.66219	0.91507	-0.213
Mof_N 	N 	0.67113	0.79977	0.01197	-0.199
Mof_N 	N 	0.53083	0.58767	0.06307	-0.198
Mof_C 	C 	0.70613	0.82137	0.91587	0.063
Mof_H 	H 	0.72073	0.85257	0.91247	-0.022
Mof_C 	C 	0.72173	0.79957	0.82107	-0.137
Mof_H 	H 	0.74613	0.81567	0.75487	0.057
Mof_C 	C 	0.70083	0.75417	0.82587	0.022
Mof_H 	H 	0.71123	0.73887	0.76507	0.037
Mof_C 	C 	0.66343	0.73077	0.92287	-0.078
Mof_C 	C 	0.65043	0.75577	0.01387	0.055
Mof_H 	H 	0.62573	0.74067	0.07957	-0.007
Mof_C 	C 	0.64073	0.68127	0.93227	0.177
Mof_C 	C 	0.59183	0.65467	0.95807	-0.073
Mof_C 	C 	0.56213	0.66707	0.89227	0.018
Mof_H 	H 	0.57253	0.69337	0.83497	0.014
Mof_C 	C 	0.51733	0.63887	0.91587	-0.122
Mof_H 	H 	0.49663	0.64597	0.87507	0.059
Mof_C 	C 	0.50273	0.59957	0.00047	0.061
Mof_H 	H 	0.47223	0.58087	0.01457	-0.022
Mof_C 	C 	0.57453	0.61457	0.03807	0.053
Mof_H 	H 	0.59423	0.60587	0.07647	0.013
Mof_Ag	Ag	0.16077	0.81185	0.16086	0.442
Mof_O 	O 	0.33781	0.99995	0.91507	-0.213
Mof_N 	N 	0.20023	0.87137	0.01197	-0.199
Mof_N 	N 	0.41233	0.94317	0.06307	-0.198
Mof_C 	C 	0.17863	0.88477	0.91587	0.063
Mof_H 	H 	0.14743	0.86817	0.91247	-0.022
Mof_C 	C 	0.20043	0.92217	0.82107	-0.137
Mof_H 	H 	0.18433	0.93047	0.75487	0.057
Mof_C 	C 	0.24583	0.94667	0.82587	0.022
Mof_H 	H 	0.26113	0.97237	0.76507	0.037
Mof_C 	C 	0.26923	0.93267	0.92287	-0.078
Mof_C 	C 	0.24423	0.89467	0.01387	0.054
Mof_H 	H 	0.25933	0.88507	0.07957	-0.007
Mof_C 	C 	0.31873	0.95947	0.93227	0.177
Mof_C 	C 	0.34533	0.93717	0.95807	-0.073
Mof_C 	C 	0.33293	0.89507	0.89227	0.018
Mof_H 	H 	0.30663	0.87917	0.83497	0.014
Mof_C 	C 	0.36113	0.87847	0.91587	-0.122
Mof_H 	H 	0.35403	0.85067	0.87507	0.059
Mof_C 	C 	0.40043	0.90317	0.00047	0.06
Mof_H 	H 	0.41913	0.89137	0.01457	-0.022
Mof_C 	C 	0.38543	0.95997	0.03807	0.053
Mof_H 	H 	0.39413	0.98837	0.07647	0.013
_end
