data_functionalizedCrystal
_audit_creation_method	'EQeq! by Chris Wilmer'
_symmetry_space_group_name_H-M	'P1'
_symmetry_Int_Tables_number	1
_symmetry_cell_setting	triclinic
loop_
_symmetry_equiv_pos_as_xyz
  x,y,z
_cell_length_a	13.5715
_cell_length_b	13.5715
_cell_length_c	8.7125
_cell_angle_alpha	90
_cell_angle_beta	90
_cell_angle_gamma	120
loop_
_atom_site_label
_atom_site_type_symbol
_atom_site_fract_x
_atom_site_fract_y
_atom_site_fract_z
_atom_site_charge
Mof_Mo	Mo	0.66667	0.33333	0.3438	0.549
Mof_Mo	Mo	0.33333	0.66667	0.8438	0.527
Mof_Cu	Cu	0.5613	0.43871	0.47814	0.821
Mof_N 	N 	0.5124	0.4876	0.2714	-0.193
Mof_C 	C 	0.486	0.514	0.1598	-0.16
Mof_Cu	Cu	0.5613	0.12259	0.47814	0.82
Mof_N 	N 	0.5124	0.0248	0.2714	-0.19
Mof_C 	C 	0.486	0.972	0.1598	-0.167
Mof_Cu	Cu	0.87741	0.43871	0.47814	0.82
Mof_N 	N 	0.9752	0.4876	0.2714	-0.19
Mof_C 	C 	0.028	0.514	0.1598	-0.167
Mof_Cu	Cu	0.4387	0.5613	0.97814	0.802
Mof_N 	N 	0.4876	0.5124	0.7714	-0.191
Mof_C 	C 	0.514	0.486	0.6598	-0.211
Mof_Cu	Cu	0.4387	0.87741	0.97814	0.801
Mof_N 	N 	0.4876	0.9752	0.7714	-0.197
Mof_C 	C 	0.514	0.028	0.6598	-0.203
Mof_Cu	Cu	0.12259	0.5613	0.97814	0.801
Mof_N 	N 	0.0248	0.5124	0.7714	-0.197
Mof_C 	C 	0.972	0.486	0.6598	-0.203
Mof_S 	S 	0.75628	0.51256	0.43682	-0.566
Mof_S 	S 	0.48744	0.24372	0.43682	-0.566
Mof_S 	S 	0.75628	0.24372	0.43682	-0.565
Mof_S 	S 	0.24372	0.48744	0.93682	-0.602
Mof_S 	S 	0.51256	0.75628	0.93682	-0.602
Mof_S 	S 	0.24372	0.75628	0.93682	-0.604
Mof_H 	H 	0.134	0.3839	0.6326	0.107
Mof_H 	H 	0.313	0.5089	0.4211	0.098
Mof_C 	C 	0.2347	0.2894	0.383	-0.343
Mof_H 	H 	0.1916	0.2107	0.416	0.118
Mof_H 	H 	0.2427	0.292	0.2719	0.126
Mof_H 	H 	0.3094	0.3258	0.4299	0.105
Mof_H 	H 	0.2499	0.3839	0.6326	0.108
Mof_H 	H 	0.1959	0.5089	0.4211	0.097
Mof_C 	C 	0.0547	0.2894	0.383	-0.339
Mof_H 	H 	0.0191	0.2107	0.416	0.116
Mof_H 	H 	0.0493	0.292	0.2719	0.124
Mof_H 	H 	0.0164	0.3258	0.4299	0.102
Mof_N 	N 	0.17455	0.3491	0.4282	0.038
Mof_C 	C 	0.1725	0.345	0.5937	-0.326
Mof_H 	H 	0.13315	0.2663	0.6273	0.11
Mof_C 	C 	0.236	0.472	0.3813	-0.329
Mof_H 	H 	0.23865	0.4773	0.2702	0.106
Mof_H 	H 	0.6161	0.7501	0.6326	0.108
Mof_H 	H 	0.4911	0.8041	0.4211	0.097
Mof_C 	C 	0.7106	0.9453	0.383	-0.339
Mof_H 	H 	0.7893	0.9809	0.416	0.116
Mof_H 	H 	0.708	0.9507	0.2719	0.124
Mof_H 	H 	0.6742	0.9836	0.4299	0.102
Mof_H 	H 	0.6161	0.866	0.6326	0.107
Mof_H 	H 	0.4911	0.687	0.4211	0.098
Mof_C 	C 	0.7106	0.7653	0.383	-0.343
Mof_H 	H 	0.7893	0.8084	0.416	0.118
Mof_H 	H 	0.708	0.7573	0.2719	0.126
Mof_H 	H 	0.6742	0.6906	0.4299	0.105
Mof_N 	N 	0.6509	0.82545	0.4282	0.038
Mof_C 	C 	0.655	0.8275	0.5937	-0.326
Mof_H 	H 	0.7337	0.86685	0.6273	0.11
Mof_C 	C 	0.528	0.764	0.3813	-0.329
Mof_H 	H 	0.5227	0.76135	0.2702	0.106
Mof_H 	H 	0.2499	0.866	0.6326	0.105
Mof_H 	H 	0.1959	0.687	0.4211	0.097
Mof_C 	C 	0.0547	0.7653	0.383	-0.337
Mof_H 	H 	0.0191	0.8084	0.416	0.114
Mof_H 	H 	0.0493	0.7573	0.2719	0.123
Mof_H 	H 	0.0164	0.6906	0.4299	0.101
Mof_H 	H 	0.134	0.7501	0.6326	0.105
Mof_H 	H 	0.313	0.8041	0.4211	0.097
Mof_C 	C 	0.2347	0.9453	0.383	-0.337
Mof_H 	H 	0.1916	0.9809	0.416	0.114
Mof_H 	H 	0.2427	0.9507	0.2719	0.123
Mof_H 	H 	0.3094	0.9836	0.4299	0.101
Mof_N 	N 	0.17455	0.82545	0.4282	0.037
Mof_C 	C 	0.1725	0.8275	0.5937	-0.323
Mof_H 	H 	0.13315	0.86685	0.6273	0.108
Mof_C 	C 	0.236	0.764	0.3813	-0.328
Mof_H 	H 	0.23865	0.76135	0.2702	0.106
Mof_H 	H 	0.866	0.6161	0.1326	0.096
Mof_H 	H 	0.687	0.4911	0.9211	0.069
Mof_C 	C 	0.7653	0.7106	0.883	-0.302
Mof_H 	H 	0.8084	0.7893	0.916	0.089
Mof_H 	H 	0.7573	0.708	0.7719	0.103
Mof_H 	H 	0.6906	0.6742	0.9299	0.076
Mof_H 	H 	0.7501	0.6161	0.1326	0.096
Mof_H 	H 	0.8041	0.4911	0.9211	0.07
Mof_C 	C 	0.9453	0.7106	0.883	-0.306
Mof_H 	H 	0.9809	0.7893	0.916	0.092
Mof_H 	H 	0.9507	0.708	0.7719	0.106
Mof_H 	H 	0.9836	0.6742	0.9299	0.08
Mof_N 	N 	0.82545	0.6509	0.9282	-0.008
Mof_C 	C 	0.8275	0.655	0.0937	-0.23
Mof_H 	H 	0.86685	0.7337	0.1273	0.102
Mof_C 	C 	0.764	0.528	0.8813	-0.287
Mof_H 	H 	0.76135	0.5227	0.7702	0.08
Mof_H 	H 	0.3839	0.2499	0.1326	0.096
Mof_H 	H 	0.5089	0.1959	0.9211	0.07
Mof_C 	C 	0.2894	0.0547	0.883	-0.306
Mof_H 	H 	0.2107	0.0191	0.916	0.092
Mof_H 	H 	0.292	0.0493	0.7719	0.106
Mof_H 	H 	0.3258	0.0164	0.9299	0.08
Mof_H 	H 	0.3839	0.134	0.1326	0.096
Mof_H 	H 	0.5089	0.313	0.9211	0.069
Mof_C 	C 	0.2894	0.2347	0.883	-0.302
Mof_H 	H 	0.2107	0.1916	0.916	0.089
Mof_H 	H 	0.292	0.2427	0.7719	0.103
Mof_H 	H 	0.3258	0.3094	0.9299	0.076
Mof_N 	N 	0.3491	0.17455	0.9282	-0.008
Mof_C 	C 	0.345	0.1725	0.0937	-0.23
Mof_H 	H 	0.2663	0.13315	0.1273	0.102
Mof_C 	C 	0.472	0.236	0.8813	-0.287
Mof_H 	H 	0.4773	0.23865	0.7702	0.08
Mof_H 	H 	0.7501	0.134	0.1326	0.098
Mof_H 	H 	0.8041	0.313	0.9211	0.071
Mof_C 	C 	0.9453	0.2347	0.883	-0.31
Mof_H 	H 	0.9809	0.1916	0.916	0.095
Mof_H 	H 	0.9507	0.2427	0.7719	0.107
Mof_H 	H 	0.9836	0.3094	0.9299	0.081
Mof_H 	H 	0.866	0.2499	0.1326	0.098
Mof_H 	H 	0.687	0.1959	0.9211	0.071
Mof_C 	C 	0.7653	0.0547	0.883	-0.31
Mof_H 	H 	0.8084	0.0191	0.916	0.095
Mof_H 	H 	0.7573	0.0493	0.7719	0.107
Mof_H 	H 	0.6906	0.0164	0.9299	0.081
Mof_N 	N 	0.82545	0.17455	0.9282	-0.005
Mof_C 	C 	0.8275	0.1725	0.0937	-0.236
Mof_H 	H 	0.86685	0.13315	0.1273	0.104
Mof_C 	C 	0.764	0.236	0.8813	-0.289
Mof_H 	H 	0.76135	0.23865	0.7702	0.081
_end
