# CIF file generated by openbabel 3.1.0, see https://openbabel.org
data_I
_chemical_name_common 'image0'
_cell_length_a 39.9
_cell_length_b 9.9925
_cell_length_c 28.728
_cell_angle_alpha 90
_cell_angle_beta 133.799
_cell_angle_gamma 90
_space_group_name_H-M_alt 'P 1'
_space_group_name_Hall 'P 1'
loop_
    _symmetry_equiv_pos_as_xyz
    x,y,z
loop_
    _atom_site_label
    _atom_site_type_symbol
    _atom_site_fract_x
    _atom_site_fract_y
    _atom_site_fract_z
    _atom_site_occupancy
    Cu1      Cu       0.42533    0.85743    0.08497    1.000
    Cu2      Cu       0.40646    0.89400    0.23489    1.000
    O1       O        0.58113    0.01530    0.46103    1.000
    O2       O        0.50900    0.90100    0.34235    1.000
    O3       O        0.42340    0.46980    0.87176    1.000
    O4       O        0.43026    0.70870    0.13496    1.000
    O5       O        0.41504    0.85030    0.17727    1.000
    O6       O        0.45191    0.04130    0.27271    1.000
    O7       O        0.34234    0.53660    0.15830    1.000
    N1       N        0.43642    0.30130    0.93588    1.000
    H1       H        0.44450    0.28540    0.97270    1.000
    N2       N        0.41397    0.08870    0.81165    1.000
    C1       C        0.55602    0.12060    0.43357    1.000
    C2       C        0.52600    0.13970    0.36060    1.000
    O8       O        0.55700    0.21030    0.46367    1.000
    C3       C        0.49361    0.01860    0.32262    1.000
    N3       N        0.43092    0.71600    0.03032    1.000
    C4       C        0.45857    0.60940    0.05828    1.000
    H2       H        0.47830    0.59840    0.10350    1.000
    C5       C        0.46013    0.51390    0.02505    1.000
    H3       H        0.48050    0.43950    0.04710    1.000
    C6       C        0.43169    0.52800    0.95934    1.000
    C7       C        0.42986    0.43090    0.91786    1.000
    C8       C        0.43171    0.18890    0.90215    1.000
    C9       C        0.40283    0.63950    0.92962    1.000
    H4       H        0.38310    0.65350    0.88460    1.000
    C10      C        0.40337    0.72960    0.96667    1.000
    H5       H        0.38320    0.80470    0.94590    1.000
    N4       N        0.14450    0.65960    0.97687    1.000
    C11      C        0.16425    0.78180    0.99324    1.000
    H6       H        0.14540    0.85900    0.97900    1.000
    C12      C        0.21054    0.79690    0.02970    1.000
    H7       H        0.22360    0.88400    0.04020    1.000
    C13      C        0.23832    0.68610    0.05130    1.000
    H8       H        0.27060    0.69590    0.07670    1.000
    C14      C        0.21860    0.55920    0.03571    1.000
    C15      C        0.17108    0.55150    0.99744    1.000
    H9       H        0.15690    0.46570    0.98540    1.000
    N5       N        0.24800    0.44820    0.06106    1.000
    H10      H        0.27740    0.46410    0.08300    1.000
    C16      C        0.42038    0.73210    0.16735    1.000
    N6       N        0.34755    0.03580    0.17194    1.000
    C17      C        0.35014    0.14100    0.14630    1.000
    H11      H        0.37760    0.15220    0.15470    1.000
    C18      C        0.31534    0.23500    0.10809    1.000
    H12      H        0.31880    0.30760    0.09030    1.000
    C19      C        0.27565    0.22200    0.09616    1.000
    C20      C        0.23558    0.31820    0.05509    1.000
    O9       O        0.19567    0.27960    0.01995    1.000
    C21      C        0.27243    0.11340    0.12330    1.000
    H13      H        0.24550    0.10110    0.11600    1.000
    C22      C        0.30871    0.02430    0.16070    1.000
    H14      H        0.30640    0.95120    0.17940    1.000
    C23      C        0.49827    0.26970    0.33688    1.000
    H15      H        0.47730    0.26600    0.34360    1.000
    H16      H        0.48010    0.28120    0.29080    1.000
    H17      H        0.51960    0.34530    0.36100    1.000
    C24      C        0.55954    0.14650    0.35108    1.000
    H18      H        0.58280    0.21610    0.37910    1.000
    H19      H        0.54200    0.16780    0.30600    1.000
    H20      H        0.57500    0.05990    0.36220    1.000
    C25      C        0.41882    0.96690    0.83590    1.000
    H21      H        0.41360    0.88930    0.81240    1.000
    C26      C        0.43111    0.95210    0.89350    1.000
    H22      H        0.43470    0.86510    0.90980    1.000
    C27      C        0.43832    0.06350    0.92800    1.000
    H23      H        0.44760    0.05440    0.96850    1.000
    C28      C        0.42019    0.19790    0.84429    1.000
    H24      H        0.41660    0.28390    0.82720    1.000
    O10      O        0.36724    0.73570    0.20440    1.000
    C29      C        0.37071    0.62940    0.18312    1.000
    C30      C        0.41418    0.61160    0.19405    1.000
    C31      C        0.41145    0.48110    0.16362    1.000
    H25      H        0.38450    0.48410    0.11690    1.000
    H26      H        0.40820    0.40550    0.18200    1.000
    H27      H        0.43980    0.47020    0.17250    1.000
    C32      C        0.45658    0.60560    0.26772    1.000
    H28      H        0.48450    0.58340    0.27650    1.000
    H29      H        0.45140    0.53690    0.28650    1.000
    H30      H        0.46080    0.69270    0.28680    1.000
    Cu3      Cu       0.92533    0.35743    0.08497    1.000
    Cu4      Cu       0.90646    0.39400    0.23489    1.000
    O11      O        0.08113    0.51530    0.46103    1.000
    O12      O        0.00900    0.40100    0.34235    1.000
    O13      O        0.92340    0.96980    0.87176    1.000
    O14      O        0.93026    0.20870    0.13496    1.000
    O15      O        0.91504    0.35030    0.17727    1.000
    O16      O        0.95191    0.54130    0.27271    1.000
    O17      O        0.84234    0.03660    0.15830    1.000
    N7       N        0.93642    0.80130    0.93588    1.000
    H31      H        0.94450    0.78540    0.97270    1.000
    N8       N        0.91397    0.58870    0.81165    1.000
    C33      C        0.05602    0.62060    0.43357    1.000
    C34      C        0.02600    0.63970    0.36060    1.000
    O18      O        0.05700    0.71030    0.46367    1.000
    C35      C        0.99361    0.51860    0.32262    1.000
    N9       N        0.93092    0.21600    0.03032    1.000
    C36      C        0.95857    0.10940    0.05828    1.000
    H32      H        0.97830    0.09840    0.10350    1.000
    C37      C        0.96013    0.01390    0.02505    1.000
    H33      H        0.98050    0.93950    0.04710    1.000
    C38      C        0.93169    0.02800    0.95934    1.000
    C39      C        0.92986    0.93090    0.91786    1.000
    C40      C        0.93171    0.68890    0.90215    1.000
    C41      C        0.90283    0.13950    0.92962    1.000
    H34      H        0.88310    0.15350    0.88460    1.000
    C42      C        0.90337    0.22960    0.96667    1.000
    H35      H        0.88320    0.30470    0.94590    1.000
    N10      N        0.64450    0.15960    0.97687    1.000
    C43      C        0.66425    0.28180    0.99324    1.000
    H36      H        0.64540    0.35900    0.97900    1.000
    C44      C        0.71054    0.29690    0.02970    1.000
    H37      H        0.72360    0.38400    0.04020    1.000
    C45      C        0.73832    0.18610    0.05130    1.000
    H38      H        0.77060    0.19590    0.07670    1.000
    C46      C        0.71860    0.05920    0.03571    1.000
    C47      C        0.67108    0.05150    0.99744    1.000
    H39      H        0.65690    0.96570    0.98540    1.000
    N11      N        0.74800    0.94820    0.06106    1.000
    H40      H        0.77740    0.96410    0.08300    1.000
    C48      C        0.92038    0.23210    0.16735    1.000
    N12      N        0.84755    0.53580    0.17194    1.000
    C49      C        0.85014    0.64100    0.14630    1.000
    H41      H        0.87760    0.65220    0.15470    1.000
    C50      C        0.81534    0.73500    0.10809    1.000
    H42      H        0.81880    0.80760    0.09030    1.000
    C51      C        0.77565    0.72200    0.09616    1.000
    C52      C        0.73558    0.81820    0.05509    1.000
    O19      O        0.69567    0.77960    0.01995    1.000
    C53      C        0.77243    0.61340    0.12330    1.000
    H43      H        0.74550    0.60110    0.11600    1.000
    C54      C        0.80871    0.52430    0.16070    1.000
    H44      H        0.80640    0.45120    0.17940    1.000
    C55      C        0.99827    0.76970    0.33688    1.000
    H45      H        0.97730    0.76600    0.34360    1.000
    H46      H        0.98010    0.78120    0.29080    1.000
    H47      H        0.01960    0.84530    0.36100    1.000
    C56      C        0.05954    0.64650    0.35108    1.000
    H48      H        0.08280    0.71610    0.37910    1.000
    H49      H        0.04200    0.66780    0.30600    1.000
    H50      H        0.07500    0.55990    0.36220    1.000
    C57      C        0.91882    0.46690    0.83590    1.000
    H51      H        0.91360    0.38930    0.81240    1.000
    C58      C        0.93111    0.45210    0.89350    1.000
    H52      H        0.93470    0.36510    0.90980    1.000
    C59      C        0.93832    0.56350    0.92800    1.000
    H53      H        0.94760    0.55440    0.96850    1.000
    C60      C        0.92019    0.69790    0.84429    1.000
    H54      H        0.91660    0.78390    0.82720    1.000
    O20      O        0.86724    0.23570    0.20440    1.000
    C61      C        0.87071    0.12940    0.18312    1.000
    C62      C        0.91418    0.11160    0.19405    1.000
    C63      C        0.91145    0.98110    0.16362    1.000
    H55      H        0.88450    0.98410    0.11690    1.000
    H56      H        0.90820    0.90550    0.18200    1.000
    H57      H        0.93980    0.97020    0.17250    1.000
    C64      C        0.95658    0.10560    0.26772    1.000
    H58      H        0.98450    0.08340    0.27650    1.000
    H59      H        0.95140    0.03690    0.28650    1.000
    H60      H        0.96080    0.19270    0.28680    1.000
    Cu5      Cu       0.57467    0.85743    0.41503    1.000
    Cu6      Cu       0.59354    0.89400    0.26511    1.000
    O21      O        0.41887    0.01530    0.03897    1.000
    O22      O        0.49100    0.90100    0.15765    1.000
    O23      O        0.57660    0.46980    0.62824    1.000
    O24      O        0.56974    0.70870    0.36504    1.000
    O25      O        0.58496    0.85030    0.32273    1.000
    O26      O        0.54809    0.04130    0.22729    1.000
    O27      O        0.65766    0.53660    0.34170    1.000
    N13      N        0.56358    0.30130    0.56412    1.000
    H61      H        0.55550    0.28540    0.52730    1.000
    N14      N        0.58603    0.08870    0.68835    1.000
    C65      C        0.44398    0.12060    0.06643    1.000
    C66      C        0.47400    0.13970    0.13940    1.000
    O28      O        0.44300    0.21030    0.03633    1.000
    C67      C        0.50639    0.01860    0.17738    1.000
    N15      N        0.56908    0.71600    0.46968    1.000
    C68      C        0.54143    0.60940    0.44172    1.000
    H62      H        0.52170    0.59840    0.39650    1.000
    C69      C        0.53987    0.51390    0.47495    1.000
    H63      H        0.51950    0.43950    0.45290    1.000
    C70      C        0.56831    0.52800    0.54066    1.000
    C71      C        0.57014    0.43090    0.58214    1.000
    C72      C        0.56829    0.18890    0.59785    1.000
    C73      C        0.59717    0.63950    0.57038    1.000
    H64      H        0.61690    0.65350    0.61540    1.000
    C74      C        0.59663    0.72960    0.53333    1.000
    H65      H        0.61680    0.80470    0.55410    1.000
    N16      N        0.85550    0.65960    0.52313    1.000
    C75      C        0.83575    0.78180    0.50676    1.000
    H66      H        0.85460    0.85900    0.52100    1.000
    C76      C        0.78946    0.79690    0.47030    1.000
    H67      H        0.77640    0.88400    0.45980    1.000
    C77      C        0.76168    0.68610    0.44870    1.000
    H68      H        0.72940    0.69590    0.42330    1.000
    C78      C        0.78140    0.55920    0.46429    1.000
    C79      C        0.82892    0.55150    0.50256    1.000
    H69      H        0.84310    0.46570    0.51460    1.000
    N17      N        0.75200    0.44820    0.43894    1.000
    H70      H        0.72260    0.46410    0.41700    1.000
    C80      C        0.57962    0.73210    0.33265    1.000
    N18      N        0.65245    0.03580    0.32806    1.000
    C81      C        0.64986    0.14100    0.35370    1.000
    H71      H        0.62240    0.15220    0.34530    1.000
    C82      C        0.68466    0.23500    0.39191    1.000
    H72      H        0.68120    0.30760    0.40970    1.000
    C83      C        0.72435    0.22200    0.40384    1.000
    C84      C        0.76442    0.31820    0.44491    1.000
    O29      O        0.80433    0.27960    0.48005    1.000
    C85      C        0.72757    0.11340    0.37670    1.000
    H73      H        0.75450    0.10110    0.38400    1.000
    C86      C        0.69129    0.02430    0.33930    1.000
    H74      H        0.69360    0.95120    0.32060    1.000
    C87      C        0.50173    0.26970    0.16312    1.000
    H75      H        0.52270    0.26600    0.15640    1.000
    H76      H        0.51990    0.28120    0.20920    1.000
    H77      H        0.48040    0.34530    0.13900    1.000
    C88      C        0.44046    0.14650    0.14892    1.000
    H78      H        0.41720    0.21610    0.12090    1.000
    H79      H        0.45800    0.16780    0.19400    1.000
    H80      H        0.42500    0.05990    0.13780    1.000
    C89      C        0.58118    0.96690    0.66410    1.000
    H81      H        0.58640    0.88930    0.68760    1.000
    C90      C        0.56889    0.95210    0.60650    1.000
    H82      H        0.56530    0.86510    0.59020    1.000
    C91      C        0.56168    0.06350    0.57200    1.000
    H83      H        0.55240    0.05440    0.53150    1.000
    C92      C        0.57981    0.19790    0.65571    1.000
    H84      H        0.58340    0.28390    0.67280    1.000
    O30      O        0.63276    0.73570    0.29560    1.000
    C93      C        0.62929    0.62940    0.31688    1.000
    C94      C        0.58582    0.61160    0.30595    1.000
    C95      C        0.58855    0.48110    0.33638    1.000
    H85      H        0.61550    0.48410    0.38310    1.000
    H86      H        0.59180    0.40550    0.31800    1.000
    H87      H        0.56020    0.47020    0.32750    1.000
    C96      C        0.54342    0.60560    0.23228    1.000
    H88      H        0.51550    0.58340    0.22350    1.000
    H89      H        0.54860    0.53690    0.21350    1.000
    H90      H        0.53920    0.69270    0.21320    1.000
    Cu7      Cu       0.07467    0.35743    0.41503    1.000
    Cu8      Cu       0.09354    0.39400    0.26511    1.000
    O31      O        0.91887    0.51530    0.03897    1.000
    O32      O        0.99100    0.40100    0.15765    1.000
    O33      O        0.07660    0.96980    0.62824    1.000
    O34      O        0.06974    0.20870    0.36504    1.000
    O35      O        0.08496    0.35030    0.32273    1.000
    O36      O        0.04809    0.54130    0.22729    1.000
    O37      O        0.15766    0.03660    0.34170    1.000
    N19      N        0.06358    0.80130    0.56412    1.000
    H91      H        0.05550    0.78540    0.52730    1.000
    N20      N        0.08603    0.58870    0.68835    1.000
    C97      C        0.94398    0.62060    0.06643    1.000
    C98      C        0.97400    0.63970    0.13940    1.000
    O38      O        0.94300    0.71030    0.03633    1.000
    C99      C        0.00639    0.51860    0.17738    1.000
    N21      N        0.06908    0.21600    0.46968    1.000
    C100     C        0.04143    0.10940    0.44172    1.000
    H92      H        0.02170    0.09840    0.39650    1.000
    C101     C        0.03987    0.01390    0.47495    1.000
    H93      H        0.01950    0.93950    0.45290    1.000
    C102     C        0.06831    0.02800    0.54066    1.000
    C103     C        0.07014    0.93090    0.58214    1.000
    C104     C        0.06829    0.68890    0.59785    1.000
    C105     C        0.09717    0.13950    0.57038    1.000
    H94      H        0.11690    0.15350    0.61540    1.000
    C106     C        0.09663    0.22960    0.53333    1.000
    H95      H        0.11680    0.30470    0.55410    1.000
    N22      N        0.35550    0.15960    0.52313    1.000
    C107     C        0.33575    0.28180    0.50676    1.000
    H96      H        0.35460    0.35900    0.52100    1.000
    C108     C        0.28946    0.29690    0.47030    1.000
    H97      H        0.27640    0.38400    0.45980    1.000
    C109     C        0.26168    0.18610    0.44870    1.000
    H98      H        0.22940    0.19590    0.42330    1.000
    C110     C        0.28140    0.05920    0.46429    1.000
    C111     C        0.32892    0.05150    0.50256    1.000
    H99      H        0.34310    0.96570    0.51460    1.000
    N23      N        0.25200    0.94820    0.43894    1.000
    H100     H        0.22260    0.96410    0.41700    1.000
    C112     C        0.07962    0.23210    0.33265    1.000
    N24      N        0.15245    0.53580    0.32806    1.000
    C113     C        0.14986    0.64100    0.35370    1.000
    H101     H        0.12240    0.65220    0.34530    1.000
    C114     C        0.18466    0.73500    0.39191    1.000
    H102     H        0.18120    0.80760    0.40970    1.000
    C115     C        0.22435    0.72200    0.40384    1.000
    C116     C        0.26442    0.81820    0.44491    1.000
    O39      O        0.30433    0.77960    0.48005    1.000
    C117     C        0.22757    0.61340    0.37670    1.000
    H103     H        0.25450    0.60110    0.38400    1.000
    C118     C        0.19129    0.52430    0.33930    1.000
    H104     H        0.19360    0.45120    0.32060    1.000
    C119     C        0.00173    0.76970    0.16312    1.000
    H105     H        0.02270    0.76600    0.15640    1.000
    H106     H        0.01990    0.78120    0.20920    1.000
    H107     H        0.98040    0.84530    0.13900    1.000
    C120     C        0.94046    0.64650    0.14892    1.000
    H108     H        0.91720    0.71610    0.12090    1.000
    H109     H        0.95800    0.66780    0.19400    1.000
    H110     H        0.92500    0.55990    0.13780    1.000
    C121     C        0.08118    0.46690    0.66410    1.000
    H111     H        0.08640    0.38930    0.68760    1.000
    C122     C        0.06889    0.45210    0.60650    1.000
    H112     H        0.06530    0.36510    0.59020    1.000
    C123     C        0.06168    0.56350    0.57200    1.000
    H113     H        0.05240    0.55440    0.53150    1.000
    C124     C        0.07981    0.69790    0.65571    1.000
    H114     H        0.08340    0.78390    0.67280    1.000
    O40      O        0.13276    0.23570    0.29560    1.000
    C125     C        0.12929    0.12940    0.31688    1.000
    C126     C        0.08582    0.11160    0.30595    1.000
    C127     C        0.08855    0.98110    0.33638    1.000
    H115     H        0.11550    0.98410    0.38310    1.000
    H116     H        0.09180    0.90550    0.31800    1.000
    H117     H        0.06020    0.97020    0.32750    1.000
    C128     C        0.04342    0.10560    0.23228    1.000
    H118     H        0.01550    0.08340    0.22350    1.000
    H119     H        0.04860    0.03690    0.21350    1.000
    H120     H        0.03920    0.19270    0.21320    1.000
    Cu9      Cu       0.57467    0.14257    0.91503    1.000
    Cu10     Cu       0.59354    0.10600    0.76511    1.000
    O41      O        0.41887    0.98470    0.53897    1.000
    O42      O        0.49100    0.09900    0.65765    1.000
    O43      O        0.57660    0.53020    0.12824    1.000
    O44      O        0.56974    0.29130    0.86504    1.000
    O45      O        0.58496    0.14970    0.82273    1.000
    O46      O        0.54809    0.95870    0.72729    1.000
    O47      O        0.65766    0.46340    0.84170    1.000
    N25      N        0.56358    0.69870    0.06412    1.000
    H121     H        0.55550    0.71460    0.02730    1.000
    N26      N        0.58603    0.91130    0.18835    1.000
    C129     C        0.44398    0.87940    0.56643    1.000
    C130     C        0.47400    0.86030    0.63940    1.000
    O48      O        0.44300    0.78970    0.53633    1.000
    C131     C        0.50639    0.98140    0.67738    1.000
    N27      N        0.56908    0.28400    0.96968    1.000
    C132     C        0.54143    0.39060    0.94172    1.000
    H122     H        0.52170    0.40160    0.89650    1.000
    C133     C        0.53987    0.48610    0.97495    1.000
    H123     H        0.51950    0.56050    0.95290    1.000
    C134     C        0.56831    0.47200    0.04066    1.000
    C135     C        0.57014    0.56910    0.08214    1.000
    C136     C        0.56829    0.81110    0.09785    1.000
    C137     C        0.59717    0.36050    0.07038    1.000
    H124     H        0.61690    0.34650    0.11540    1.000
    C138     C        0.59663    0.27040    0.03333    1.000
    H125     H        0.61680    0.19530    0.05410    1.000
    N28      N        0.85550    0.34040    0.02313    1.000
    C139     C        0.83575    0.21820    0.00676    1.000
    H126     H        0.85460    0.14100    0.02100    1.000
    C140     C        0.78946    0.20310    0.97030    1.000
    H127     H        0.77640    0.11600    0.95980    1.000
    C141     C        0.76168    0.31390    0.94870    1.000
    H128     H        0.72940    0.30410    0.92330    1.000
    C142     C        0.78140    0.44080    0.96429    1.000
    C143     C        0.82892    0.44850    0.00256    1.000
    H129     H        0.84310    0.53430    0.01460    1.000
    N29      N        0.75200    0.55180    0.93894    1.000
    H130     H        0.72260    0.53590    0.91700    1.000
    C144     C        0.57962    0.26790    0.83265    1.000
    N30      N        0.65245    0.96420    0.82806    1.000
    C145     C        0.64986    0.85900    0.85370    1.000
    H131     H        0.62240    0.84780    0.84530    1.000
    C146     C        0.68466    0.76500    0.89191    1.000
    H132     H        0.68120    0.69240    0.90970    1.000
    C147     C        0.72435    0.77800    0.90384    1.000
    C148     C        0.76442    0.68180    0.94491    1.000
    O49      O        0.80433    0.72040    0.98005    1.000
    C149     C        0.72757    0.88660    0.87670    1.000
    H133     H        0.75450    0.89890    0.88400    1.000
    C150     C        0.69129    0.97570    0.83930    1.000
    H134     H        0.69360    0.04880    0.82060    1.000
    C151     C        0.50173    0.73030    0.66312    1.000
    H135     H        0.52270    0.73400    0.65640    1.000
    H136     H        0.51990    0.71880    0.70920    1.000
    H137     H        0.48040    0.65470    0.63900    1.000
    C152     C        0.44046    0.85350    0.64892    1.000
    H138     H        0.41720    0.78390    0.62090    1.000
    H139     H        0.45800    0.83220    0.69400    1.000
    H140     H        0.42500    0.94010    0.63780    1.000
    C153     C        0.58118    0.03310    0.16410    1.000
    H141     H        0.58640    0.11070    0.18760    1.000
    C154     C        0.56889    0.04790    0.10650    1.000
    H142     H        0.56530    0.13490    0.09020    1.000
    C155     C        0.56168    0.93650    0.07200    1.000
    H143     H        0.55240    0.94560    0.03150    1.000
    C156     C        0.57981    0.80210    0.15571    1.000
    H144     H        0.58340    0.71610    0.17280    1.000
    O50      O        0.63276    0.26430    0.79560    1.000
    C157     C        0.62929    0.37060    0.81688    1.000
    C158     C        0.58582    0.38840    0.80595    1.000
    C159     C        0.58855    0.51890    0.83638    1.000
    H145     H        0.61550    0.51590    0.88310    1.000
    H146     H        0.59180    0.59450    0.81800    1.000
    H147     H        0.56020    0.52980    0.82750    1.000
    C160     C        0.54342    0.39440    0.73228    1.000
    H148     H        0.51550    0.41660    0.72350    1.000
    H149     H        0.54860    0.46310    0.71350    1.000
    H150     H        0.53920    0.30730    0.71320    1.000
    Cu11     Cu       0.07467    0.64257    0.91503    1.000
    Cu12     Cu       0.09354    0.60600    0.76511    1.000
    O51      O        0.91887    0.48470    0.53897    1.000
    O52      O        0.99100    0.59900    0.65765    1.000
    O53      O        0.07660    0.03020    0.12824    1.000
    O54      O        0.06974    0.79130    0.86504    1.000
    O55      O        0.08496    0.64970    0.82273    1.000
    O56      O        0.04809    0.45870    0.72729    1.000
    O57      O        0.15766    0.96340    0.84170    1.000
    N31      N        0.06358    0.19870    0.06412    1.000
    H151     H        0.05550    0.21460    0.02730    1.000
    N32      N        0.08603    0.41130    0.18835    1.000
    C161     C        0.94398    0.37940    0.56643    1.000
    C162     C        0.97400    0.36030    0.63940    1.000
    O58      O        0.94300    0.28970    0.53633    1.000
    C163     C        0.00639    0.48140    0.67738    1.000
    N33      N        0.06908    0.78400    0.96968    1.000
    C164     C        0.04143    0.89060    0.94172    1.000
    H152     H        0.02170    0.90160    0.89650    1.000
    C165     C        0.03987    0.98610    0.97495    1.000
    H153     H        0.01950    0.06050    0.95290    1.000
    C166     C        0.06831    0.97200    0.04066    1.000
    C167     C        0.07014    0.06910    0.08214    1.000
    C168     C        0.06829    0.31110    0.09785    1.000
    C169     C        0.09717    0.86050    0.07038    1.000
    H154     H        0.11690    0.84650    0.11540    1.000
    C170     C        0.09663    0.77040    0.03333    1.000
    H155     H        0.11680    0.69530    0.05410    1.000
    N34      N        0.35550    0.84040    0.02313    1.000
    C171     C        0.33575    0.71820    0.00676    1.000
    H156     H        0.35460    0.64100    0.02100    1.000
    C172     C        0.28946    0.70310    0.97030    1.000
    H157     H        0.27640    0.61600    0.95980    1.000
    C173     C        0.26168    0.81390    0.94870    1.000
    H158     H        0.22940    0.80410    0.92330    1.000
    C174     C        0.28140    0.94080    0.96429    1.000
    C175     C        0.32892    0.94850    0.00256    1.000
    H159     H        0.34310    0.03430    0.01460    1.000
    N35      N        0.25200    0.05180    0.93894    1.000
    H160     H        0.22260    0.03590    0.91700    1.000
    C176     C        0.07962    0.76790    0.83265    1.000
    N36      N        0.15245    0.46420    0.82806    1.000
    C177     C        0.14986    0.35900    0.85370    1.000
    H161     H        0.12240    0.34780    0.84530    1.000
    C178     C        0.18466    0.26500    0.89191    1.000
    H162     H        0.18120    0.19240    0.90970    1.000
    C179     C        0.22435    0.27800    0.90384    1.000
    C180     C        0.26442    0.18180    0.94491    1.000
    O59      O        0.30433    0.22040    0.98005    1.000
    C181     C        0.22757    0.38660    0.87670    1.000
    H163     H        0.25450    0.39890    0.88400    1.000
    C182     C        0.19129    0.47570    0.83930    1.000
    H164     H        0.19360    0.54880    0.82060    1.000
    C183     C        0.00173    0.23030    0.66312    1.000
    H165     H        0.02270    0.23400    0.65640    1.000
    H166     H        0.01990    0.21880    0.70920    1.000
    H167     H        0.98040    0.15470    0.63900    1.000
    C184     C        0.94046    0.35350    0.64892    1.000
    H168     H        0.91720    0.28390    0.62090    1.000
    H169     H        0.95800    0.33220    0.69400    1.000
    H170     H        0.92500    0.44010    0.63780    1.000
    C185     C        0.08118    0.53310    0.16410    1.000
    H171     H        0.08640    0.61070    0.18760    1.000
    C186     C        0.06889    0.54790    0.10650    1.000
    H172     H        0.06530    0.63490    0.09020    1.000
    C187     C        0.06168    0.43650    0.07200    1.000
    H173     H        0.05240    0.44560    0.03150    1.000
    C188     C        0.07981    0.30210    0.15571    1.000
    H174     H        0.08340    0.21610    0.17280    1.000
    O60      O        0.13276    0.76430    0.79560    1.000
    C189     C        0.12929    0.87060    0.81688    1.000
    C190     C        0.08582    0.88840    0.80595    1.000
    C191     C        0.08855    0.01890    0.83638    1.000
    H175     H        0.11550    0.01590    0.88310    1.000
    H176     H        0.09180    0.09450    0.81800    1.000
    H177     H        0.06020    0.02980    0.82750    1.000
    C192     C        0.04342    0.89440    0.73228    1.000
    H178     H        0.01550    0.91660    0.72350    1.000
    H179     H        0.04860    0.96310    0.71350    1.000
    H180     H        0.03920    0.80730    0.71320    1.000
    Cu13     Cu       0.42533    0.14257    0.58497    1.000
    Cu14     Cu       0.40646    0.10600    0.73489    1.000
    O61      O        0.58113    0.98470    0.96103    1.000
    O62      O        0.50900    0.09900    0.84235    1.000
    O63      O        0.42340    0.53020    0.37176    1.000
    O64      O        0.43026    0.29130    0.63496    1.000
    O65      O        0.41504    0.14970    0.67727    1.000
    O66      O        0.45191    0.95870    0.77271    1.000
    O67      O        0.34234    0.46340    0.65830    1.000
    N37      N        0.43642    0.69870    0.43588    1.000
    H181     H        0.44450    0.71460    0.47270    1.000
    N38      N        0.41397    0.91130    0.31165    1.000
    C193     C        0.55602    0.87940    0.93357    1.000
    C194     C        0.52600    0.86030    0.86060    1.000
    O68      O        0.55700    0.78970    0.96367    1.000
    C195     C        0.49361    0.98140    0.82262    1.000
    N39      N        0.43092    0.28400    0.53032    1.000
    C196     C        0.45857    0.39060    0.55828    1.000
    H182     H        0.47830    0.40160    0.60350    1.000
    C197     C        0.46013    0.48610    0.52505    1.000
    H183     H        0.48050    0.56050    0.54710    1.000
    C198     C        0.43169    0.47200    0.45934    1.000
    C199     C        0.42986    0.56910    0.41786    1.000
    C200     C        0.43171    0.81110    0.40215    1.000
    C201     C        0.40283    0.36050    0.42962    1.000
    H184     H        0.38310    0.34650    0.38460    1.000
    C202     C        0.40337    0.27040    0.46667    1.000
    H185     H        0.38320    0.19530    0.44590    1.000
    N40      N        0.14450    0.34040    0.47687    1.000
    C203     C        0.16425    0.21820    0.49324    1.000
    H186     H        0.14540    0.14100    0.47900    1.000
    C204     C        0.21054    0.20310    0.52970    1.000
    H187     H        0.22360    0.11600    0.54020    1.000
    C205     C        0.23832    0.31390    0.55130    1.000
    H188     H        0.27060    0.30410    0.57670    1.000
    C206     C        0.21860    0.44080    0.53571    1.000
    C207     C        0.17108    0.44850    0.49744    1.000
    H189     H        0.15690    0.53430    0.48540    1.000
    N41      N        0.24800    0.55180    0.56106    1.000
    H190     H        0.27740    0.53590    0.58300    1.000
    C208     C        0.42038    0.26790    0.66735    1.000
    N42      N        0.34755    0.96420    0.67194    1.000
    C209     C        0.35014    0.85900    0.64630    1.000
    H191     H        0.37760    0.84780    0.65470    1.000
    C210     C        0.31534    0.76500    0.60809    1.000
    H192     H        0.31880    0.69240    0.59030    1.000
    C211     C        0.27565    0.77800    0.59616    1.000
    C212     C        0.23558    0.68180    0.55509    1.000
    O69      O        0.19567    0.72040    0.51995    1.000
    C213     C        0.27243    0.88660    0.62330    1.000
    H193     H        0.24550    0.89890    0.61600    1.000
    C214     C        0.30871    0.97570    0.66070    1.000
    H194     H        0.30640    0.04880    0.67940    1.000
    C215     C        0.49827    0.73030    0.83688    1.000
    H195     H        0.47730    0.73400    0.84360    1.000
    H196     H        0.48010    0.71880    0.79080    1.000
    H197     H        0.51960    0.65470    0.86100    1.000
    C216     C        0.55954    0.85350    0.85108    1.000
    H198     H        0.58280    0.78390    0.87910    1.000
    H199     H        0.54200    0.83220    0.80600    1.000
    H200     H        0.57500    0.94010    0.86220    1.000
    C217     C        0.41882    0.03310    0.33590    1.000
    H201     H        0.41360    0.11070    0.31240    1.000
    C218     C        0.43111    0.04790    0.39350    1.000
    H202     H        0.43470    0.13490    0.40980    1.000
    C219     C        0.43832    0.93650    0.42800    1.000
    H203     H        0.44760    0.94560    0.46850    1.000
    C220     C        0.42019    0.80210    0.34429    1.000
    H204     H        0.41660    0.71610    0.32720    1.000
    O70      O        0.36724    0.26430    0.70440    1.000
    C221     C        0.37071    0.37060    0.68312    1.000
    C222     C        0.41418    0.38840    0.69405    1.000
    C223     C        0.41145    0.51890    0.66362    1.000
    H205     H        0.38450    0.51590    0.61690    1.000
    H206     H        0.40820    0.59450    0.68200    1.000
    H207     H        0.43980    0.52980    0.67250    1.000
    C224     C        0.45658    0.39440    0.76772    1.000
    H208     H        0.48450    0.41660    0.77650    1.000
    H209     H        0.45140    0.46310    0.78650    1.000
    H210     H        0.46080    0.30730    0.78680    1.000
    Cu15     Cu       0.92533    0.64257    0.58497    1.000
    Cu16     Cu       0.90646    0.60600    0.73489    1.000
    O71      O        0.08113    0.48470    0.96103    1.000
    O72      O        0.00900    0.59900    0.84235    1.000
    O73      O        0.92340    0.03020    0.37176    1.000
    O74      O        0.93026    0.79130    0.63496    1.000
    O75      O        0.91504    0.64970    0.67727    1.000
    O76      O        0.95191    0.45870    0.77271    1.000
    O77      O        0.84234    0.96340    0.65830    1.000
    N43      N        0.93642    0.19870    0.43588    1.000
    H211     H        0.94450    0.21460    0.47270    1.000
    N44      N        0.91397    0.41130    0.31165    1.000
    C225     C        0.05602    0.37940    0.93357    1.000
    C226     C        0.02600    0.36030    0.86060    1.000
    O78      O        0.05700    0.28970    0.96367    1.000
    C227     C        0.99361    0.48140    0.82262    1.000
    N45      N        0.93092    0.78400    0.53032    1.000
    C228     C        0.95857    0.89060    0.55828    1.000
    H212     H        0.97830    0.90160    0.60350    1.000
    C229     C        0.96013    0.98610    0.52505    1.000
    H213     H        0.98050    0.06050    0.54710    1.000
    C230     C        0.93169    0.97200    0.45934    1.000
    C231     C        0.92986    0.06910    0.41786    1.000
    C232     C        0.93171    0.31110    0.40215    1.000
    C233     C        0.90283    0.86050    0.42962    1.000
    H214     H        0.88310    0.84650    0.38460    1.000
    C234     C        0.90337    0.77040    0.46667    1.000
    H215     H        0.88320    0.69530    0.44590    1.000
    N46      N        0.64450    0.84040    0.47687    1.000
    C235     C        0.66425    0.71820    0.49324    1.000
    H216     H        0.64540    0.64100    0.47900    1.000
    C236     C        0.71054    0.70310    0.52970    1.000
    H217     H        0.72360    0.61600    0.54020    1.000
    C237     C        0.73832    0.81390    0.55130    1.000
    H218     H        0.77060    0.80410    0.57670    1.000
    C238     C        0.71860    0.94080    0.53571    1.000
    C239     C        0.67108    0.94850    0.49744    1.000
    H219     H        0.65690    0.03430    0.48540    1.000
    N47      N        0.74800    0.05180    0.56106    1.000
    H220     H        0.77740    0.03590    0.58300    1.000
    C240     C        0.92038    0.76790    0.66735    1.000
    N48      N        0.84755    0.46420    0.67194    1.000
    C241     C        0.85014    0.35900    0.64630    1.000
    H221     H        0.87760    0.34780    0.65470    1.000
    C242     C        0.81534    0.26500    0.60809    1.000
    H222     H        0.81880    0.19240    0.59030    1.000
    C243     C        0.77565    0.27800    0.59616    1.000
    C244     C        0.73558    0.18180    0.55509    1.000
    O79      O        0.69567    0.22040    0.51995    1.000
    C245     C        0.77243    0.38660    0.62330    1.000
    H223     H        0.74550    0.39890    0.61600    1.000
    C246     C        0.80871    0.47570    0.66070    1.000
    H224     H        0.80640    0.54880    0.67940    1.000
    C247     C        0.99827    0.23030    0.83688    1.000
    H225     H        0.97730    0.23400    0.84360    1.000
    H226     H        0.98010    0.21880    0.79080    1.000
    H227     H        0.01960    0.15470    0.86100    1.000
    C248     C        0.05954    0.35350    0.85108    1.000
    H228     H        0.08280    0.28390    0.87910    1.000
    H229     H        0.04200    0.33220    0.80600    1.000
    H230     H        0.07500    0.44010    0.86220    1.000
    C249     C        0.91882    0.53310    0.33590    1.000
    H231     H        0.91360    0.61070    0.31240    1.000
    C250     C        0.93111    0.54790    0.39350    1.000
    H232     H        0.93470    0.63490    0.40980    1.000
    C251     C        0.93832    0.43650    0.42800    1.000
    H233     H        0.94760    0.44560    0.46850    1.000
    C252     C        0.92019    0.30210    0.34429    1.000
    H234     H        0.91660    0.21610    0.32720    1.000
    O80      O        0.86724    0.76430    0.70440    1.000
    C253     C        0.87071    0.87060    0.68312    1.000
    C254     C        0.91418    0.88840    0.69405    1.000
    C255     C        0.91145    0.01890    0.66362    1.000
    H235     H        0.88450    0.01590    0.61690    1.000
    H236     H        0.90820    0.09450    0.68200    1.000
    H237     H        0.93980    0.02980    0.67250    1.000
    C256     C        0.95658    0.89440    0.76772    1.000
    H238     H        0.98450    0.91660    0.77650    1.000
    H239     H        0.95140    0.96310    0.78650    1.000
    H240     H        0.96080    0.80730    0.78680    1.000
