data_functionalizedCrystal
_audit_creation_method	'EQeq! by Chris Wilmer'
_symmetry_space_group_name_H-M	'P1'
_symmetry_Int_Tables_number	1
_symmetry_cell_setting	triclinic
loop_
_symmetry_equiv_pos_as_xyz
  x,y,z
_cell_length_a	24.5021
_cell_length_b	24.5021
_cell_length_c	71.8088
_cell_angle_alpha	90
_cell_angle_beta	90
_cell_angle_gamma	90
loop_
_atom_site_label
_atom_site_type_symbol
_atom_site_fract_x
_atom_site_fract_y
_atom_site_fract_z
_atom_site_charge
Mof_O 	O 	0.9298	0.00754	0.11681	-0.416
Mof_O 	O 	0.99569	0.07268	0.11814	-0.394
Mof_O 	O 	0.9261	0.48831	0.0947	-0.404
Mof_C 	C 	0.9496	0.0511	0.1121	0.342
Mof_C 	C 	0.87378	0.14139	0.06756	0.052
Mof_C 	C 	0.8503	0.09401	0.07449	-0.105
Mof_H 	H 	0.8172	0.0813	0.0696	0.068
Mof_C 	C 	0.8758	0.06538	0.08867	0.027
Mof_H 	H 	0.86	0.0333	0.0934	0.037
Mof_C 	C 	0.92487	0.08412	0.09593	-0.091
Mof_C 	C 	0.94834	0.13149	0.08901	0.03
Mof_H 	H 	0.9815	0.1442	0.0939	0.036
Mof_C 	C 	0.9228	0.16012	0.07483	-0.105
Mof_H 	H 	0.9387	0.1922	0.0701	0.068
Mof_Cu	Cu	0.96026	0.96411	0.13667	0.904
Mof_C 	C 	0.8264	0.259	0.03581	-0.005
Mof_C 	C 	0.82923	0.31554	0.03508	0.026
Mof_C 	C 	0.803	0.34364	0.02091	-0.16
Mof_H 	H 	0.805	0.3819	0.0204	0.094
Mof_C 	C 	0.77405	0.31522	0.00747	0.175
Mof_C 	C 	0.77123	0.25868	0.0082	-0.042
Mof_C 	C 	0.7974	0.23057	0.02237	0.034
Mof_C 	C 	0.8496	0.229	0.0508	-0.072
Mof_H 	H 	0.8672	0.2481	0.0604	0.06
Mof_C 	C 	0.8471	0.1731	0.05175	0.009
Mof_C 	C 	0.8171	0.1438	0.03777	-0.045
Mof_H 	H 	0.8147	0.1055	0.0381	0.048
Mof_C 	C 	0.7916	0.1732	0.02376	-0.059
Mof_H 	H 	0.7701	0.1547	0.015	0.06
Mof_C 	C 	0.86268	0.35081	0.04905	0.048
Mof_C 	C 	0.83758	0.39425	0.058	-0.103
Mof_H 	H 	0.8009	0.4024	0.0555	0.071
Mof_C 	C 	0.86675	0.42557	0.07063	0.026
Mof_H 	H 	0.8498	0.4549	0.0767	0.04
Mof_C 	C 	0.92103	0.41345	0.07431	-0.085
Mof_C 	C 	0.94613	0.37001	0.06535	0.027
Mof_H 	H 	0.9828	0.3618	0.0678	0.037
Mof_C 	C 	0.91696	0.33869	0.05272	-0.105
Mof_H 	H 	0.9339	0.3093	0.0467	0.068
Mof_O 	O 	0.9982	0.42929	0.09338	-0.409
Mof_C 	C 	0.9519	0.4467	0.08928	0.347
Mof_O 	O 	0.7485	0.3408	0.99313	-0.218
Mof_C 	C 	0.7683	0.3988	0.9896	0.03
Mof_C 	C 	0.7315	0.4273	0.9747	-0.013
Mof_C 	C 	0.7265	0.3952	0.9969	0.063
Mof_C 	C 	0.676	0.3922	0.0094	-0.006
Mof_O 	O 	0.4298	0.50754	0.61681	-0.416
Mof_O 	O 	0.49569	0.57268	0.61814	-0.393
Mof_O 	O 	0.4261	0.98831	0.5947	-0.403
Mof_C 	C 	0.4496	0.5511	0.6121	0.343
Mof_C 	C 	0.37378	0.64139	0.56756	0.053
Mof_C 	C 	0.3503	0.59401	0.57449	-0.105
Mof_H 	H 	0.3172	0.5813	0.5696	0.069
Mof_C 	C 	0.3758	0.56538	0.58867	0.028
Mof_H 	H 	0.36	0.5333	0.5934	0.037
Mof_C 	C 	0.42487	0.58412	0.59593	-0.09
Mof_C 	C 	0.44834	0.63149	0.58901	0.031
Mof_H 	H 	0.4815	0.6442	0.5939	0.037
Mof_C 	C 	0.4228	0.66012	0.57483	-0.105
Mof_H 	H 	0.4387	0.6922	0.5701	0.068
Mof_Cu	Cu	0.46026	0.46411	0.63667	0.905
Mof_C 	C 	0.3264	0.759	0.53581	-0.005
Mof_C 	C 	0.32923	0.81554	0.53508	0.026
Mof_C 	C 	0.303	0.84364	0.52091	-0.16
Mof_H 	H 	0.305	0.8819	0.5204	0.094
Mof_C 	C 	0.27405	0.81522	0.50747	0.175
Mof_C 	C 	0.27123	0.75868	0.5082	-0.042
Mof_C 	C 	0.2974	0.73057	0.52237	0.034
Mof_C 	C 	0.3496	0.729	0.5508	-0.072
Mof_H 	H 	0.3672	0.7481	0.5604	0.06
Mof_C 	C 	0.3471	0.6731	0.55175	0.009
Mof_C 	C 	0.3171	0.6438	0.53777	-0.045
Mof_H 	H 	0.3147	0.6055	0.5381	0.048
Mof_C 	C 	0.2916	0.6732	0.52376	-0.059
Mof_H 	H 	0.2701	0.6547	0.515	0.06
Mof_C 	C 	0.36268	0.85081	0.54905	0.048
Mof_C 	C 	0.33758	0.89425	0.558	-0.103
Mof_H 	H 	0.3009	0.9024	0.5555	0.071
Mof_C 	C 	0.36675	0.92557	0.57063	0.026
Mof_H 	H 	0.3498	0.9549	0.5767	0.04
Mof_C 	C 	0.42103	0.91345	0.57431	-0.085
Mof_C 	C 	0.44613	0.87001	0.56535	0.027
Mof_H 	H 	0.4828	0.8618	0.5678	0.037
Mof_C 	C 	0.41696	0.83869	0.55272	-0.105
Mof_H 	H 	0.4339	0.8093	0.5467	0.068
Mof_O 	O 	0.4982	0.92929	0.59338	-0.409
Mof_C 	C 	0.4519	0.9467	0.58928	0.347
Mof_O 	O 	0.2485	0.8408	0.49313	-0.218
Mof_C 	C 	0.2683	0.8988	0.4896	0.03
Mof_C 	C 	0.2315	0.9273	0.4747	-0.013
Mof_C 	C 	0.2265	0.8952	0.4969	0.063
Mof_C 	C 	0.176	0.8922	0.5094	-0.006
Mof_O 	O 	0.5702	0.49246	0.61681	-0.416
Mof_O 	O 	0.50431	0.42732	0.61814	-0.393
Mof_O 	O 	0.5739	0.01169	0.5947	-0.403
Mof_C 	C 	0.5504	0.4489	0.6121	0.343
Mof_C 	C 	0.62622	0.35861	0.56756	0.053
Mof_C 	C 	0.6497	0.40599	0.57449	-0.105
Mof_H 	H 	0.6828	0.4187	0.5696	0.069
Mof_C 	C 	0.6242	0.43462	0.58867	0.028
Mof_H 	H 	0.64	0.4667	0.5934	0.037
Mof_C 	C 	0.57513	0.41588	0.59593	-0.09
Mof_C 	C 	0.55166	0.36851	0.58901	0.031
Mof_H 	H 	0.5185	0.3558	0.5939	0.037
Mof_C 	C 	0.5772	0.33988	0.57483	-0.105
Mof_H 	H 	0.5613	0.3078	0.5701	0.068
Mof_Cu	Cu	0.53974	0.53589	0.63667	0.905
Mof_C 	C 	0.6736	0.241	0.53581	-0.005
Mof_C 	C 	0.67077	0.18446	0.53508	0.026
Mof_C 	C 	0.697	0.15636	0.52091	-0.16
Mof_H 	H 	0.695	0.1181	0.5204	0.094
Mof_C 	C 	0.72595	0.18478	0.50747	0.175
Mof_C 	C 	0.72877	0.24132	0.5082	-0.042
Mof_C 	C 	0.7026	0.26943	0.52237	0.034
Mof_C 	C 	0.6504	0.271	0.5508	-0.072
Mof_H 	H 	0.6328	0.2519	0.5604	0.06
Mof_C 	C 	0.6529	0.3269	0.55175	0.009
Mof_C 	C 	0.6829	0.3562	0.53777	-0.045
Mof_H 	H 	0.6853	0.3945	0.5381	0.048
Mof_C 	C 	0.7084	0.3268	0.52376	-0.059
Mof_H 	H 	0.7299	0.3453	0.515	0.06
Mof_C 	C 	0.63732	0.14919	0.54905	0.048
Mof_C 	C 	0.66242	0.10575	0.558	-0.103
Mof_H 	H 	0.6991	0.0976	0.5555	0.071
Mof_C 	C 	0.63325	0.07443	0.57063	0.026
Mof_H 	H 	0.6502	0.0451	0.5767	0.04
Mof_C 	C 	0.57897	0.08655	0.57431	-0.085
Mof_C 	C 	0.55387	0.12999	0.56535	0.027
Mof_H 	H 	0.5172	0.1382	0.5678	0.037
Mof_C 	C 	0.58304	0.16131	0.55272	-0.105
Mof_H 	H 	0.5661	0.1907	0.5467	0.068
Mof_O 	O 	0.5018	0.07071	0.59338	-0.409
Mof_C 	C 	0.5481	0.0533	0.58928	0.347
Mof_O 	O 	0.7515	0.1592	0.49313	-0.218
Mof_C 	C 	0.7317	0.1012	0.4896	0.03
Mof_C 	C 	0.7685	0.0727	0.4747	-0.013
Mof_C 	C 	0.7735	0.1048	0.4969	0.063
Mof_C 	C 	0.824	0.1078	0.5094	-0.006
Mof_O 	O 	0.0702	0.99246	0.11681	-0.415
Mof_O 	O 	0.00431	0.92732	0.11814	-0.393
Mof_O 	O 	0.0739	0.51169	0.0947	-0.403
Mof_C 	C 	0.0504	0.9489	0.1121	0.343
Mof_C 	C 	0.12622	0.85861	0.06756	0.053
Mof_C 	C 	0.1497	0.90599	0.07449	-0.104
Mof_H 	H 	0.1828	0.9187	0.0696	0.069
Mof_C 	C 	0.1242	0.93462	0.08867	0.028
Mof_H 	H 	0.14	0.9667	0.0934	0.038
Mof_C 	C 	0.07513	0.91588	0.09593	-0.09
Mof_C 	C 	0.05166	0.86851	0.08901	0.031
Mof_H 	H 	0.0185	0.8558	0.0939	0.037
Mof_C 	C 	0.0772	0.83988	0.07483	-0.105
Mof_H 	H 	0.0613	0.8078	0.0701	0.068
Mof_Cu	Cu	0.03974	0.03589	0.13667	0.904
Mof_C 	C 	0.1736	0.741	0.03581	-0.005
Mof_C 	C 	0.17077	0.68446	0.03508	0.026
Mof_C 	C 	0.197	0.65636	0.02091	-0.16
Mof_H 	H 	0.195	0.6181	0.0204	0.094
Mof_C 	C 	0.22595	0.68478	0.00747	0.175
Mof_C 	C 	0.22877	0.74132	0.0082	-0.042
Mof_C 	C 	0.2026	0.76943	0.02237	0.034
Mof_C 	C 	0.1504	0.771	0.0508	-0.072
Mof_H 	H 	0.1328	0.7519	0.0604	0.06
Mof_C 	C 	0.1529	0.8269	0.05175	0.009
Mof_C 	C 	0.1829	0.8562	0.03777	-0.045
Mof_H 	H 	0.1853	0.8945	0.0381	0.048
Mof_C 	C 	0.2084	0.8268	0.02376	-0.059
Mof_H 	H 	0.2299	0.8453	0.015	0.06
Mof_C 	C 	0.13732	0.64919	0.04905	0.048
Mof_C 	C 	0.16242	0.60575	0.058	-0.103
Mof_H 	H 	0.1991	0.5976	0.0555	0.071
Mof_C 	C 	0.13325	0.57443	0.07063	0.026
Mof_H 	H 	0.1502	0.5451	0.0767	0.04
Mof_C 	C 	0.07897	0.58655	0.07431	-0.085
Mof_C 	C 	0.05387	0.62999	0.06535	0.027
Mof_H 	H 	0.0172	0.6382	0.0678	0.037
Mof_C 	C 	0.08304	0.66131	0.05272	-0.105
Mof_H 	H 	0.0661	0.6907	0.0467	0.068
Mof_O 	O 	0.0018	0.57071	0.09338	-0.409
Mof_C 	C 	0.0481	0.5533	0.08928	0.347
Mof_O 	O 	0.2515	0.6592	0.99313	-0.218
Mof_C 	C 	0.2317	0.6012	0.9896	0.03
Mof_C 	C 	0.2685	0.5727	0.9747	-0.013
Mof_C 	C 	0.2735	0.6048	0.9969	0.063
Mof_C 	C 	0.324	0.6078	0.0094	-0.006
Mof_O 	O 	0.99246	0.4298	0.36681	-0.415
Mof_O 	O 	0.92732	0.49569	0.36814	-0.393
Mof_O 	O 	0.51169	0.4261	0.3447	-0.403
Mof_C 	C 	0.9489	0.4496	0.3621	0.343
Mof_C 	C 	0.85861	0.37378	0.31756	0.053
Mof_C 	C 	0.90599	0.3503	0.32449	-0.105
Mof_H 	H 	0.9187	0.3172	0.3196	0.069
Mof_C 	C 	0.93462	0.3758	0.33867	0.028
Mof_H 	H 	0.9667	0.36	0.3434	0.037
Mof_C 	C 	0.91588	0.42487	0.34593	-0.09
Mof_C 	C 	0.86851	0.44834	0.33901	0.031
Mof_H 	H 	0.8558	0.4815	0.3439	0.037
Mof_C 	C 	0.83988	0.4228	0.32483	-0.105
Mof_H 	H 	0.8078	0.4387	0.3201	0.068
Mof_Cu	Cu	0.03589	0.46026	0.38667	0.905
Mof_C 	C 	0.741	0.3264	0.28581	-0.005
Mof_C 	C 	0.68446	0.32923	0.28508	0.026
Mof_C 	C 	0.65636	0.303	0.27091	-0.16
Mof_H 	H 	0.6181	0.305	0.2704	0.094
Mof_C 	C 	0.68478	0.27405	0.25747	0.175
Mof_C 	C 	0.74132	0.27123	0.2582	-0.042
Mof_C 	C 	0.76943	0.2974	0.27237	0.034
Mof_C 	C 	0.771	0.3496	0.3008	-0.072
Mof_H 	H 	0.7519	0.3672	0.3104	0.06
Mof_C 	C 	0.8269	0.3471	0.30175	0.009
Mof_C 	C 	0.8562	0.3171	0.28777	-0.045
Mof_H 	H 	0.8945	0.3147	0.2881	0.048
Mof_C 	C 	0.8268	0.2916	0.27376	-0.059
Mof_H 	H 	0.8453	0.2701	0.265	0.06
Mof_C 	C 	0.64919	0.36268	0.29905	0.048
Mof_C 	C 	0.60575	0.33758	0.308	-0.103
Mof_H 	H 	0.5976	0.3009	0.3055	0.071
Mof_C 	C 	0.57443	0.36675	0.32063	0.026
Mof_H 	H 	0.5451	0.3498	0.3267	0.04
Mof_C 	C 	0.58655	0.42103	0.32431	-0.085
Mof_C 	C 	0.62999	0.44613	0.31535	0.027
Mof_H 	H 	0.6382	0.4828	0.3178	0.037
Mof_C 	C 	0.66131	0.41696	0.30272	-0.105
Mof_H 	H 	0.6907	0.4339	0.2967	0.068
Mof_O 	O 	0.57071	0.4982	0.34338	-0.409
Mof_C 	C 	0.5533	0.4519	0.33928	0.347
Mof_O 	O 	0.6592	0.2485	0.24313	-0.218
Mof_C 	C 	0.6012	0.2683	0.2396	0.03
Mof_C 	C 	0.5727	0.2315	0.2247	-0.013
Mof_C 	C 	0.6048	0.2265	0.2469	0.063
Mof_C 	C 	0.6078	0.176	0.2594	-0.006
Mof_O 	O 	0.49246	0.9298	0.86681	-0.416
Mof_O 	O 	0.42732	0.99569	0.86814	-0.393
Mof_O 	O 	0.01169	0.9261	0.8447	-0.403
Mof_C 	C 	0.4489	0.9496	0.8621	0.343
Mof_C 	C 	0.35861	0.87378	0.81756	0.053
Mof_C 	C 	0.40599	0.8503	0.82449	-0.105
Mof_H 	H 	0.4187	0.8172	0.8196	0.069
Mof_C 	C 	0.43462	0.8758	0.83867	0.028
Mof_H 	H 	0.4667	0.86	0.8434	0.037
Mof_C 	C 	0.41588	0.92487	0.84593	-0.09
Mof_C 	C 	0.36851	0.94834	0.83901	0.031
Mof_H 	H 	0.3558	0.9815	0.8439	0.037
Mof_C 	C 	0.33988	0.9228	0.82483	-0.105
Mof_H 	H 	0.3078	0.9387	0.8201	0.068
Mof_Cu	Cu	0.53589	0.96026	0.88667	0.905
Mof_C 	C 	0.241	0.8264	0.78581	-0.005
Mof_C 	C 	0.18446	0.82923	0.78508	0.026
Mof_C 	C 	0.15636	0.803	0.77091	-0.16
Mof_H 	H 	0.1181	0.805	0.7704	0.094
Mof_C 	C 	0.18478	0.77405	0.75747	0.175
Mof_C 	C 	0.24132	0.77123	0.7582	-0.042
Mof_C 	C 	0.26943	0.7974	0.77237	0.034
Mof_C 	C 	0.271	0.8496	0.8008	-0.072
Mof_H 	H 	0.2519	0.8672	0.8104	0.06
Mof_C 	C 	0.3269	0.8471	0.80175	0.009
Mof_C 	C 	0.3562	0.8171	0.78777	-0.045
Mof_H 	H 	0.3945	0.8147	0.7881	0.048
Mof_C 	C 	0.3268	0.7916	0.77376	-0.059
Mof_H 	H 	0.3453	0.7701	0.765	0.06
Mof_C 	C 	0.14919	0.86268	0.79905	0.048
Mof_C 	C 	0.10575	0.83758	0.808	-0.103
Mof_H 	H 	0.0976	0.8009	0.8055	0.071
Mof_C 	C 	0.07443	0.86675	0.82063	0.026
Mof_H 	H 	0.0451	0.8498	0.8267	0.04
Mof_C 	C 	0.08655	0.92103	0.82431	-0.085
Mof_C 	C 	0.12999	0.94613	0.81535	0.027
Mof_H 	H 	0.1382	0.9828	0.8178	0.037
Mof_C 	C 	0.16131	0.91696	0.80272	-0.105
Mof_H 	H 	0.1907	0.9339	0.7967	0.068
Mof_O 	O 	0.07071	0.9982	0.84338	-0.409
Mof_C 	C 	0.0533	0.9519	0.83928	0.347
Mof_O 	O 	0.1592	0.7485	0.74313	-0.218
Mof_C 	C 	0.1012	0.7683	0.7396	0.03
Mof_C 	C 	0.0727	0.7315	0.7247	-0.013
Mof_C 	C 	0.1048	0.7265	0.7469	0.063
Mof_C 	C 	0.1078	0.676	0.7594	-0.006
Mof_O 	O 	0.50754	0.0702	0.86681	-0.416
Mof_O 	O 	0.57268	0.00431	0.86814	-0.393
Mof_O 	O 	0.98831	0.0739	0.8447	-0.403
Mof_C 	C 	0.5511	0.0504	0.8621	0.343
Mof_C 	C 	0.64139	0.12622	0.81756	0.053
Mof_C 	C 	0.59401	0.1497	0.82449	-0.105
Mof_H 	H 	0.5813	0.1828	0.8196	0.069
Mof_C 	C 	0.56538	0.1242	0.83867	0.028
Mof_H 	H 	0.5333	0.14	0.8434	0.037
Mof_C 	C 	0.58412	0.07513	0.84593	-0.09
Mof_C 	C 	0.63149	0.05166	0.83901	0.031
Mof_H 	H 	0.6442	0.0185	0.8439	0.037
Mof_C 	C 	0.66012	0.0772	0.82483	-0.105
Mof_H 	H 	0.6922	0.0613	0.8201	0.068
Mof_Cu	Cu	0.46411	0.03974	0.88667	0.905
Mof_C 	C 	0.759	0.1736	0.78581	-0.005
Mof_C 	C 	0.81554	0.17077	0.78508	0.026
Mof_C 	C 	0.84364	0.197	0.77091	-0.16
Mof_H 	H 	0.8819	0.195	0.7704	0.094
Mof_C 	C 	0.81522	0.22595	0.75747	0.175
Mof_C 	C 	0.75868	0.22877	0.7582	-0.042
Mof_C 	C 	0.73057	0.2026	0.77237	0.034
Mof_C 	C 	0.729	0.1504	0.8008	-0.072
Mof_H 	H 	0.7481	0.1328	0.8104	0.06
Mof_C 	C 	0.6731	0.1529	0.80175	0.009
Mof_C 	C 	0.6438	0.1829	0.78777	-0.045
Mof_H 	H 	0.6055	0.1853	0.7881	0.048
Mof_C 	C 	0.6732	0.2084	0.77376	-0.059
Mof_H 	H 	0.6547	0.2299	0.765	0.06
Mof_C 	C 	0.85081	0.13732	0.79905	0.048
Mof_C 	C 	0.89425	0.16242	0.808	-0.103
Mof_H 	H 	0.9024	0.1991	0.8055	0.071
Mof_C 	C 	0.92557	0.13325	0.82063	0.026
Mof_H 	H 	0.9549	0.1502	0.8267	0.04
Mof_C 	C 	0.91345	0.07897	0.82431	-0.085
Mof_C 	C 	0.87001	0.05387	0.81535	0.027
Mof_H 	H 	0.8618	0.0172	0.8178	0.037
Mof_C 	C 	0.83869	0.08304	0.80272	-0.105
Mof_H 	H 	0.8093	0.0661	0.7967	0.068
Mof_O 	O 	0.92929	0.0018	0.84338	-0.409
Mof_C 	C 	0.9467	0.0481	0.83928	0.347
Mof_O 	O 	0.8408	0.2515	0.74313	-0.218
Mof_C 	C 	0.8988	0.2317	0.7396	0.03
Mof_C 	C 	0.9273	0.2685	0.7247	-0.013
Mof_C 	C 	0.8952	0.2735	0.7469	0.063
Mof_C 	C 	0.8922	0.324	0.7594	-0.006
Mof_O 	O 	0.00754	0.5702	0.36681	-0.415
Mof_O 	O 	0.07268	0.50431	0.36814	-0.393
Mof_O 	O 	0.48831	0.5739	0.3447	-0.403
Mof_C 	C 	0.0511	0.5504	0.3621	0.343
Mof_C 	C 	0.14139	0.62622	0.31756	0.053
Mof_C 	C 	0.09401	0.6497	0.32449	-0.105
Mof_H 	H 	0.0813	0.6828	0.3196	0.069
Mof_C 	C 	0.06538	0.6242	0.33867	0.028
Mof_H 	H 	0.0333	0.64	0.3434	0.037
Mof_C 	C 	0.08412	0.57513	0.34593	-0.09
Mof_C 	C 	0.13149	0.55166	0.33901	0.031
Mof_H 	H 	0.1442	0.5185	0.3439	0.037
Mof_C 	C 	0.16012	0.5772	0.32483	-0.105
Mof_H 	H 	0.1922	0.5613	0.3201	0.068
Mof_Cu	Cu	0.96411	0.53974	0.38667	0.905
Mof_C 	C 	0.259	0.6736	0.28581	-0.005
Mof_C 	C 	0.31554	0.67077	0.28508	0.026
Mof_C 	C 	0.34364	0.697	0.27091	-0.16
Mof_H 	H 	0.3819	0.695	0.2704	0.094
Mof_C 	C 	0.31522	0.72595	0.25747	0.175
Mof_C 	C 	0.25868	0.72877	0.2582	-0.042
Mof_C 	C 	0.23057	0.7026	0.27237	0.034
Mof_C 	C 	0.229	0.6504	0.3008	-0.072
Mof_H 	H 	0.2481	0.6328	0.3104	0.06
Mof_C 	C 	0.1731	0.6529	0.30175	0.009
Mof_C 	C 	0.1438	0.6829	0.28777	-0.045
Mof_H 	H 	0.1055	0.6853	0.2881	0.048
Mof_C 	C 	0.1732	0.7084	0.27376	-0.059
Mof_H 	H 	0.1547	0.7299	0.265	0.06
Mof_C 	C 	0.35081	0.63732	0.29905	0.048
Mof_C 	C 	0.39425	0.66242	0.308	-0.103
Mof_H 	H 	0.4024	0.6991	0.3055	0.071
Mof_C 	C 	0.42557	0.63325	0.32063	0.026
Mof_H 	H 	0.4549	0.6502	0.3267	0.04
Mof_C 	C 	0.41345	0.57897	0.32431	-0.085
Mof_C 	C 	0.37001	0.55387	0.31535	0.027
Mof_H 	H 	0.3618	0.5172	0.3178	0.037
Mof_C 	C 	0.33869	0.58304	0.30272	-0.105
Mof_H 	H 	0.3093	0.5661	0.2967	0.068
Mof_O 	O 	0.42929	0.5018	0.34338	-0.409
Mof_C 	C 	0.4467	0.5481	0.33928	0.347
Mof_O 	O 	0.3408	0.7515	0.24313	-0.218
Mof_C 	C 	0.3988	0.7317	0.2396	0.03
Mof_C 	C 	0.4273	0.7685	0.2247	-0.013
Mof_C 	C 	0.3952	0.7735	0.2469	0.063
Mof_C 	C 	0.3922	0.824	0.2594	-0.006
Mof_O 	O 	0.5702	0.00754	0.63319	-0.415
Mof_O 	O 	0.50431	0.07268	0.63186	-0.393
Mof_O 	O 	0.5739	0.48831	0.6553	-0.403
Mof_C 	C 	0.5504	0.0511	0.6379	0.343
Mof_C 	C 	0.62622	0.14139	0.68244	0.053
Mof_C 	C 	0.6497	0.09401	0.67551	-0.105
Mof_H 	H 	0.6828	0.0813	0.6804	0.069
Mof_C 	C 	0.6242	0.06538	0.66133	0.028
Mof_H 	H 	0.64	0.0333	0.6566	0.037
Mof_C 	C 	0.57513	0.08412	0.65407	-0.09
Mof_C 	C 	0.55166	0.13149	0.66099	0.031
Mof_H 	H 	0.5185	0.1442	0.6561	0.037
Mof_C 	C 	0.5772	0.16012	0.67517	-0.105
Mof_H 	H 	0.5613	0.1922	0.6799	0.068
Mof_Cu	Cu	0.53974	0.96411	0.61333	0.905
Mof_C 	C 	0.6736	0.259	0.71419	-0.005
Mof_C 	C 	0.67077	0.31554	0.71492	0.026
Mof_C 	C 	0.697	0.34364	0.72909	-0.16
Mof_H 	H 	0.695	0.3819	0.7296	0.094
Mof_C 	C 	0.72595	0.31522	0.74253	0.175
Mof_C 	C 	0.72877	0.25868	0.7418	-0.042
Mof_C 	C 	0.7026	0.23057	0.72763	0.034
Mof_C 	C 	0.6504	0.229	0.6992	-0.072
Mof_H 	H 	0.6328	0.2481	0.6896	0.06
Mof_C 	C 	0.6529	0.1731	0.69825	0.009
Mof_C 	C 	0.6829	0.1438	0.71223	-0.045
Mof_H 	H 	0.6853	0.1055	0.7119	0.048
Mof_C 	C 	0.7084	0.1732	0.72624	-0.059
Mof_H 	H 	0.7299	0.1547	0.735	0.06
Mof_C 	C 	0.63732	0.35081	0.70095	0.048
Mof_C 	C 	0.66242	0.39425	0.692	-0.103
Mof_H 	H 	0.6991	0.4024	0.6945	0.071
Mof_C 	C 	0.63325	0.42557	0.67937	0.026
Mof_H 	H 	0.6502	0.4549	0.6733	0.04
Mof_C 	C 	0.57897	0.41345	0.67569	-0.085
Mof_C 	C 	0.55387	0.37001	0.68465	0.027
Mof_H 	H 	0.5172	0.3618	0.6822	0.037
Mof_C 	C 	0.58304	0.33869	0.69728	-0.105
Mof_H 	H 	0.5661	0.3093	0.7033	0.068
Mof_O 	O 	0.5018	0.42929	0.65662	-0.409
Mof_C 	C 	0.5481	0.4467	0.66072	0.347
Mof_O 	O 	0.7515	0.3408	0.75687	-0.218
Mof_C 	C 	0.7317	0.3988	0.7604	0.03
Mof_C 	C 	0.7685	0.4273	0.7753	-0.013
Mof_C 	C 	0.7735	0.3952	0.7531	0.063
Mof_C 	C 	0.824	0.3922	0.7406	-0.006
Mof_O 	O 	0.0702	0.50754	0.13319	-0.416
Mof_O 	O 	0.00431	0.57268	0.13186	-0.393
Mof_O 	O 	0.0739	0.98831	0.1553	-0.403
Mof_C 	C 	0.0504	0.5511	0.1379	0.343
Mof_C 	C 	0.12622	0.64139	0.18244	0.053
Mof_C 	C 	0.1497	0.59401	0.17551	-0.105
Mof_H 	H 	0.1828	0.5813	0.1804	0.069
Mof_C 	C 	0.1242	0.56538	0.16133	0.028
Mof_H 	H 	0.14	0.5333	0.1566	0.037
Mof_C 	C 	0.07513	0.58412	0.15407	-0.09
Mof_C 	C 	0.05166	0.63149	0.16099	0.031
Mof_H 	H 	0.0185	0.6442	0.1561	0.037
Mof_C 	C 	0.0772	0.66012	0.17517	-0.105
Mof_H 	H 	0.0613	0.6922	0.1799	0.068
Mof_Cu	Cu	0.03974	0.46411	0.11333	0.905
Mof_C 	C 	0.1736	0.759	0.21419	-0.005
Mof_C 	C 	0.17077	0.81554	0.21492	0.026
Mof_C 	C 	0.197	0.84364	0.22909	-0.16
Mof_H 	H 	0.195	0.8819	0.2296	0.094
Mof_C 	C 	0.22595	0.81522	0.24253	0.175
Mof_C 	C 	0.22877	0.75868	0.2418	-0.042
Mof_C 	C 	0.2026	0.73057	0.22763	0.034
Mof_C 	C 	0.1504	0.729	0.1992	-0.072
Mof_H 	H 	0.1328	0.7481	0.1896	0.06
Mof_C 	C 	0.1529	0.6731	0.19825	0.009
Mof_C 	C 	0.1829	0.6438	0.21223	-0.045
Mof_H 	H 	0.1853	0.6055	0.2119	0.048
Mof_C 	C 	0.2084	0.6732	0.22624	-0.059
Mof_H 	H 	0.2299	0.6547	0.235	0.06
Mof_C 	C 	0.13732	0.85081	0.20095	0.048
Mof_C 	C 	0.16242	0.89425	0.192	-0.103
Mof_H 	H 	0.1991	0.9024	0.1945	0.071
Mof_C 	C 	0.13325	0.92557	0.17937	0.026
Mof_H 	H 	0.1502	0.9549	0.1733	0.04
Mof_C 	C 	0.07897	0.91345	0.17569	-0.085
Mof_C 	C 	0.05387	0.87001	0.18465	0.027
Mof_H 	H 	0.0172	0.8618	0.1822	0.037
Mof_C 	C 	0.08304	0.83869	0.19728	-0.105
Mof_H 	H 	0.0661	0.8093	0.2033	0.068
Mof_O 	O 	0.0018	0.92929	0.15662	-0.409
Mof_C 	C 	0.0481	0.9467	0.16072	0.347
Mof_O 	O 	0.2515	0.8408	0.25687	-0.218
Mof_C 	C 	0.2317	0.8988	0.2604	0.03
Mof_C 	C 	0.2685	0.9273	0.2753	-0.013
Mof_C 	C 	0.2735	0.8952	0.2531	0.063
Mof_C 	C 	0.324	0.8922	0.2406	-0.006
Mof_O 	O 	0.9298	0.49246	0.13319	-0.416
Mof_O 	O 	0.99569	0.42732	0.13186	-0.393
Mof_O 	O 	0.9261	0.01169	0.1553	-0.403
Mof_C 	C 	0.9496	0.4489	0.1379	0.343
Mof_C 	C 	0.87378	0.35861	0.18244	0.053
Mof_C 	C 	0.8503	0.40599	0.17551	-0.105
Mof_H 	H 	0.8172	0.4187	0.1804	0.069
Mof_C 	C 	0.8758	0.43462	0.16133	0.028
Mof_H 	H 	0.86	0.4667	0.1566	0.037
Mof_C 	C 	0.92487	0.41588	0.15407	-0.09
Mof_C 	C 	0.94834	0.36851	0.16099	0.031
Mof_H 	H 	0.9815	0.3558	0.1561	0.037
Mof_C 	C 	0.9228	0.33988	0.17517	-0.105
Mof_H 	H 	0.9387	0.3078	0.1799	0.068
Mof_Cu	Cu	0.96026	0.53589	0.11333	0.905
Mof_C 	C 	0.8264	0.241	0.21419	-0.005
Mof_C 	C 	0.82923	0.18446	0.21492	0.026
Mof_C 	C 	0.803	0.15636	0.22909	-0.16
Mof_H 	H 	0.805	0.1181	0.2296	0.094
Mof_C 	C 	0.77405	0.18478	0.24253	0.175
Mof_C 	C 	0.77123	0.24132	0.2418	-0.042
Mof_C 	C 	0.7974	0.26943	0.22763	0.034
Mof_C 	C 	0.8496	0.271	0.1992	-0.072
Mof_H 	H 	0.8672	0.2519	0.1896	0.06
Mof_C 	C 	0.8471	0.3269	0.19825	0.009
Mof_C 	C 	0.8171	0.3562	0.21223	-0.045
Mof_H 	H 	0.8147	0.3945	0.2119	0.048
Mof_C 	C 	0.7916	0.3268	0.22624	-0.059
Mof_H 	H 	0.7701	0.3453	0.235	0.06
Mof_C 	C 	0.86268	0.14919	0.20095	0.048
Mof_C 	C 	0.83758	0.10575	0.192	-0.103
Mof_H 	H 	0.8009	0.0976	0.1945	0.071
Mof_C 	C 	0.86675	0.07443	0.17937	0.026
Mof_H 	H 	0.8498	0.0451	0.1733	0.04
Mof_C 	C 	0.92103	0.08655	0.17569	-0.085
Mof_C 	C 	0.94613	0.12999	0.18465	0.027
Mof_H 	H 	0.9828	0.1382	0.1822	0.037
Mof_C 	C 	0.91696	0.16131	0.19728	-0.105
Mof_H 	H 	0.9339	0.1907	0.2033	0.068
Mof_O 	O 	0.9982	0.07071	0.15662	-0.409
Mof_C 	C 	0.9519	0.0533	0.16072	0.347
Mof_O 	O 	0.7485	0.1592	0.25687	-0.218
Mof_C 	C 	0.7683	0.1012	0.2604	0.03
Mof_C 	C 	0.7315	0.0727	0.2753	-0.013
Mof_C 	C 	0.7265	0.1048	0.2531	0.063
Mof_C 	C 	0.676	0.1078	0.2406	-0.006
Mof_O 	O 	0.4298	0.99246	0.63319	-0.415
Mof_O 	O 	0.49569	0.92732	0.63186	-0.393
Mof_O 	O 	0.4261	0.51169	0.6553	-0.403
Mof_C 	C 	0.4496	0.9489	0.6379	0.343
Mof_C 	C 	0.37378	0.85861	0.68244	0.053
Mof_C 	C 	0.3503	0.90599	0.67551	-0.105
Mof_H 	H 	0.3172	0.9187	0.6804	0.069
Mof_C 	C 	0.3758	0.93462	0.66133	0.028
Mof_H 	H 	0.36	0.9667	0.6566	0.037
Mof_C 	C 	0.42487	0.91588	0.65407	-0.09
Mof_C 	C 	0.44834	0.86851	0.66099	0.031
Mof_H 	H 	0.4815	0.8558	0.6561	0.037
Mof_C 	C 	0.4228	0.83988	0.67517	-0.105
Mof_H 	H 	0.4387	0.8078	0.6799	0.068
Mof_Cu	Cu	0.46026	0.03589	0.61333	0.905
Mof_C 	C 	0.3264	0.741	0.71419	-0.005
Mof_C 	C 	0.32923	0.68446	0.71492	0.026
Mof_C 	C 	0.303	0.65636	0.72909	-0.16
Mof_H 	H 	0.305	0.6181	0.7296	0.094
Mof_C 	C 	0.27405	0.68478	0.74253	0.175
Mof_C 	C 	0.27123	0.74132	0.7418	-0.042
Mof_C 	C 	0.2974	0.76943	0.72763	0.034
Mof_C 	C 	0.3496	0.771	0.6992	-0.072
Mof_H 	H 	0.3672	0.7519	0.6896	0.06
Mof_C 	C 	0.3471	0.8269	0.69825	0.009
Mof_C 	C 	0.3171	0.8562	0.71223	-0.045
Mof_H 	H 	0.3147	0.8945	0.7119	0.048
Mof_C 	C 	0.2916	0.8268	0.72624	-0.059
Mof_H 	H 	0.2701	0.8453	0.735	0.06
Mof_C 	C 	0.36268	0.64919	0.70095	0.048
Mof_C 	C 	0.33758	0.60575	0.692	-0.103
Mof_H 	H 	0.3009	0.5976	0.6945	0.071
Mof_C 	C 	0.36675	0.57443	0.67937	0.026
Mof_H 	H 	0.3498	0.5451	0.6733	0.04
Mof_C 	C 	0.42103	0.58655	0.67569	-0.085
Mof_C 	C 	0.44613	0.62999	0.68465	0.027
Mof_H 	H 	0.4828	0.6382	0.6822	0.037
Mof_C 	C 	0.41696	0.66131	0.69728	-0.105
Mof_H 	H 	0.4339	0.6907	0.7033	0.068
Mof_O 	O 	0.4982	0.57071	0.65662	-0.409
Mof_C 	C 	0.4519	0.5533	0.66072	0.347
Mof_O 	O 	0.2485	0.6592	0.75687	-0.218
Mof_C 	C 	0.2683	0.6012	0.7604	0.03
Mof_C 	C 	0.2315	0.5727	0.7753	-0.013
Mof_C 	C 	0.2265	0.6048	0.7531	0.063
Mof_C 	C 	0.176	0.6078	0.7406	-0.006
Mof_O 	O 	0.50754	0.4298	0.38319	-0.416
Mof_O 	O 	0.57268	0.49569	0.38186	-0.393
Mof_O 	O 	0.98831	0.4261	0.4053	-0.403
Mof_C 	C 	0.5511	0.4496	0.3879	0.343
Mof_C 	C 	0.64139	0.37378	0.43244	0.053
Mof_C 	C 	0.59401	0.3503	0.42551	-0.105
Mof_H 	H 	0.5813	0.3172	0.4304	0.069
Mof_C 	C 	0.56538	0.3758	0.41133	0.028
Mof_H 	H 	0.5333	0.36	0.4066	0.037
Mof_C 	C 	0.58412	0.42487	0.40407	-0.09
Mof_C 	C 	0.63149	0.44834	0.41099	0.031
Mof_H 	H 	0.6442	0.4815	0.4061	0.037
Mof_C 	C 	0.66012	0.4228	0.42517	-0.105
Mof_H 	H 	0.6922	0.4387	0.4299	0.068
Mof_Cu	Cu	0.46411	0.46026	0.36333	0.905
Mof_C 	C 	0.759	0.3264	0.46419	-0.005
Mof_C 	C 	0.81554	0.32923	0.46492	0.026
Mof_C 	C 	0.84364	0.303	0.47909	-0.16
Mof_H 	H 	0.8819	0.305	0.4796	0.094
Mof_C 	C 	0.81522	0.27405	0.49253	0.175
Mof_C 	C 	0.75868	0.27123	0.4918	-0.042
Mof_C 	C 	0.73057	0.2974	0.47763	0.034
Mof_C 	C 	0.729	0.3496	0.4492	-0.072
Mof_H 	H 	0.7481	0.3672	0.4396	0.06
Mof_C 	C 	0.6731	0.3471	0.44825	0.009
Mof_C 	C 	0.6438	0.3171	0.46223	-0.045
Mof_H 	H 	0.6055	0.3147	0.4619	0.048
Mof_C 	C 	0.6732	0.2916	0.47624	-0.059
Mof_H 	H 	0.6547	0.2701	0.485	0.06
Mof_C 	C 	0.85081	0.36268	0.45095	0.048
Mof_C 	C 	0.89425	0.33758	0.442	-0.103
Mof_H 	H 	0.9024	0.3009	0.4445	0.071
Mof_C 	C 	0.92557	0.36675	0.42937	0.026
Mof_H 	H 	0.9549	0.3498	0.4233	0.04
Mof_C 	C 	0.91345	0.42103	0.42569	-0.085
Mof_C 	C 	0.87001	0.44613	0.43465	0.027
Mof_H 	H 	0.8618	0.4828	0.4322	0.037
Mof_C 	C 	0.83869	0.41696	0.44728	-0.105
Mof_H 	H 	0.8093	0.4339	0.4533	0.068
Mof_O 	O 	0.92929	0.4982	0.40662	-0.409
Mof_C 	C 	0.9467	0.4519	0.41072	0.347
Mof_O 	O 	0.8408	0.2485	0.50687	-0.218
Mof_C 	C 	0.8988	0.2683	0.5104	0.03
Mof_C 	C 	0.9273	0.2315	0.5253	-0.013
Mof_C 	C 	0.8952	0.2265	0.5031	0.063
Mof_C 	C 	0.8922	0.176	0.4906	-0.006
Mof_O 	O 	0.00754	0.9298	0.88319	-0.415
Mof_O 	O 	0.07268	0.99569	0.88186	-0.393
Mof_O 	O 	0.48831	0.9261	0.9053	-0.403
Mof_C 	C 	0.0511	0.9496	0.8879	0.343
Mof_C 	C 	0.14139	0.87378	0.93244	0.053
Mof_C 	C 	0.09401	0.8503	0.92551	-0.104
Mof_H 	H 	0.0813	0.8172	0.9304	0.069
Mof_C 	C 	0.06538	0.8758	0.91133	0.028
Mof_H 	H 	0.0333	0.86	0.9066	0.038
Mof_C 	C 	0.08412	0.92487	0.90407	-0.09
Mof_C 	C 	0.13149	0.94834	0.91099	0.031
Mof_H 	H 	0.1442	0.9815	0.9061	0.037
Mof_C 	C 	0.16012	0.9228	0.92517	-0.105
Mof_H 	H 	0.1922	0.9387	0.9299	0.068
Mof_Cu	Cu	0.96411	0.96026	0.86333	0.904
Mof_C 	C 	0.259	0.8264	0.96419	-0.005
Mof_C 	C 	0.31554	0.82923	0.96492	0.026
Mof_C 	C 	0.34364	0.803	0.97909	-0.16
Mof_H 	H 	0.3819	0.805	0.9796	0.094
Mof_C 	C 	0.31522	0.77405	0.99253	0.175
Mof_C 	C 	0.25868	0.77123	0.9918	-0.042
Mof_C 	C 	0.23057	0.7974	0.97763	0.034
Mof_C 	C 	0.229	0.8496	0.9492	-0.072
Mof_H 	H 	0.2481	0.8672	0.9396	0.06
Mof_C 	C 	0.1731	0.8471	0.94825	0.009
Mof_C 	C 	0.1438	0.8171	0.96223	-0.045
Mof_H 	H 	0.1055	0.8147	0.9619	0.048
Mof_C 	C 	0.1732	0.7916	0.97624	-0.059
Mof_H 	H 	0.1547	0.7701	0.985	0.06
Mof_C 	C 	0.35081	0.86268	0.95095	0.048
Mof_C 	C 	0.39425	0.83758	0.942	-0.103
Mof_H 	H 	0.4024	0.8009	0.9445	0.071
Mof_C 	C 	0.42557	0.86675	0.92937	0.026
Mof_H 	H 	0.4549	0.8498	0.9233	0.04
Mof_C 	C 	0.41345	0.92103	0.92569	-0.085
Mof_C 	C 	0.37001	0.94613	0.93465	0.027
Mof_H 	H 	0.3618	0.9828	0.9322	0.037
Mof_C 	C 	0.33869	0.91696	0.94728	-0.105
Mof_H 	H 	0.3093	0.9339	0.9533	0.068
Mof_O 	O 	0.42929	0.9982	0.90662	-0.409
Mof_C 	C 	0.4467	0.9519	0.91072	0.347
Mof_O 	O 	0.3408	0.7485	0.00687	-0.218
Mof_C 	C 	0.3988	0.7683	0.0104	0.03
Mof_C 	C 	0.4273	0.7315	0.0253	-0.013
Mof_C 	C 	0.3952	0.7265	0.0031	0.063
Mof_C 	C 	0.3922	0.676	0.9906	-0.006
Mof_O 	O 	0.99246	0.0702	0.88319	-0.415
Mof_O 	O 	0.92732	0.00431	0.88186	-0.393
Mof_O 	O 	0.51169	0.0739	0.9053	-0.403
Mof_C 	C 	0.9489	0.0504	0.8879	0.343
Mof_C 	C 	0.85861	0.12622	0.93244	0.053
Mof_C 	C 	0.90599	0.1497	0.92551	-0.104
Mof_H 	H 	0.9187	0.1828	0.9304	0.069
Mof_C 	C 	0.93462	0.1242	0.91133	0.028
Mof_H 	H 	0.9667	0.14	0.9066	0.038
Mof_C 	C 	0.91588	0.07513	0.90407	-0.09
Mof_C 	C 	0.86851	0.05166	0.91099	0.031
Mof_H 	H 	0.8558	0.0185	0.9061	0.037
Mof_C 	C 	0.83988	0.0772	0.92517	-0.105
Mof_H 	H 	0.8078	0.0613	0.9299	0.068
Mof_Cu	Cu	0.03589	0.03974	0.86333	0.904
Mof_C 	C 	0.741	0.1736	0.96419	-0.005
Mof_C 	C 	0.68446	0.17077	0.96492	0.026
Mof_C 	C 	0.65636	0.197	0.97909	-0.16
Mof_H 	H 	0.6181	0.195	0.9796	0.094
Mof_C 	C 	0.68478	0.22595	0.99253	0.175
Mof_C 	C 	0.74132	0.22877	0.9918	-0.042
Mof_C 	C 	0.76943	0.2026	0.97763	0.034
Mof_C 	C 	0.771	0.1504	0.9492	-0.072
Mof_H 	H 	0.7519	0.1328	0.9396	0.06
Mof_C 	C 	0.8269	0.1529	0.94825	0.009
Mof_C 	C 	0.8562	0.1829	0.96223	-0.045
Mof_H 	H 	0.8945	0.1853	0.9619	0.048
Mof_C 	C 	0.8268	0.2084	0.97624	-0.059
Mof_H 	H 	0.8453	0.2299	0.985	0.06
Mof_C 	C 	0.64919	0.13732	0.95095	0.048
Mof_C 	C 	0.60575	0.16242	0.942	-0.103
Mof_H 	H 	0.5976	0.1991	0.9445	0.071
Mof_C 	C 	0.57443	0.13325	0.92937	0.026
Mof_H 	H 	0.5451	0.1502	0.9233	0.04
Mof_C 	C 	0.58655	0.07897	0.92569	-0.085
Mof_C 	C 	0.62999	0.05387	0.93465	0.027
Mof_H 	H 	0.6382	0.0172	0.9322	0.037
Mof_C 	C 	0.66131	0.08304	0.94728	-0.105
Mof_H 	H 	0.6907	0.0661	0.9533	0.068
Mof_O 	O 	0.57071	0.0018	0.90662	-0.409
Mof_C 	C 	0.5533	0.0481	0.91072	0.347
Mof_O 	O 	0.6592	0.2515	0.00687	-0.218
Mof_C 	C 	0.6012	0.2317	0.0104	0.03
Mof_C 	C 	0.5727	0.2685	0.0253	-0.013
Mof_C 	C 	0.6048	0.2735	0.0031	0.063
Mof_C 	C 	0.6078	0.324	0.9906	-0.006
Mof_O 	O 	0.49246	0.5702	0.38319	-0.416
Mof_O 	O 	0.42732	0.50431	0.38186	-0.393
Mof_O 	O 	0.01169	0.5739	0.4053	-0.403
Mof_C 	C 	0.4489	0.5504	0.3879	0.343
Mof_C 	C 	0.35861	0.62622	0.43244	0.053
Mof_C 	C 	0.40599	0.6497	0.42551	-0.105
Mof_H 	H 	0.4187	0.6828	0.4304	0.069
Mof_C 	C 	0.43462	0.6242	0.41133	0.028
Mof_H 	H 	0.4667	0.64	0.4066	0.037
Mof_C 	C 	0.41588	0.57513	0.40407	-0.09
Mof_C 	C 	0.36851	0.55166	0.41099	0.031
Mof_H 	H 	0.3558	0.5185	0.4061	0.037
Mof_C 	C 	0.33988	0.5772	0.42517	-0.105
Mof_H 	H 	0.3078	0.5613	0.4299	0.068
Mof_Cu	Cu	0.53589	0.53974	0.36333	0.905
Mof_C 	C 	0.241	0.6736	0.46419	-0.005
Mof_C 	C 	0.18446	0.67077	0.46492	0.026
Mof_C 	C 	0.15636	0.697	0.47909	-0.16
Mof_H 	H 	0.1181	0.695	0.4796	0.094
Mof_C 	C 	0.18478	0.72595	0.49253	0.175
Mof_C 	C 	0.24132	0.72877	0.4918	-0.042
Mof_C 	C 	0.26943	0.7026	0.47763	0.034
Mof_C 	C 	0.271	0.6504	0.4492	-0.072
Mof_H 	H 	0.2519	0.6328	0.4396	0.06
Mof_C 	C 	0.3269	0.6529	0.44825	0.009
Mof_C 	C 	0.3562	0.6829	0.46223	-0.045
Mof_H 	H 	0.3945	0.6853	0.4619	0.048
Mof_C 	C 	0.3268	0.7084	0.47624	-0.059
Mof_H 	H 	0.3453	0.7299	0.485	0.06
Mof_C 	C 	0.14919	0.63732	0.45095	0.048
Mof_C 	C 	0.10575	0.66242	0.442	-0.103
Mof_H 	H 	0.0976	0.6991	0.4445	0.071
Mof_C 	C 	0.07443	0.63325	0.42937	0.026
Mof_H 	H 	0.0451	0.6502	0.4233	0.04
Mof_C 	C 	0.08655	0.57897	0.42569	-0.085
Mof_C 	C 	0.12999	0.55387	0.43465	0.027
Mof_H 	H 	0.1382	0.5172	0.4322	0.037
Mof_C 	C 	0.16131	0.58304	0.44728	-0.105
Mof_H 	H 	0.1907	0.5661	0.4533	0.068
Mof_O 	O 	0.07071	0.5018	0.40662	-0.409
Mof_C 	C 	0.0533	0.5481	0.41072	0.347
Mof_O 	O 	0.1592	0.7515	0.50687	-0.218
Mof_C 	C 	0.1012	0.7317	0.5104	0.03
Mof_C 	C 	0.0727	0.7685	0.5253	-0.013
Mof_C 	C 	0.1048	0.7735	0.5031	0.063
Mof_C 	C 	0.1078	0.824	0.4906	-0.006
_end
