# CIF file generated by openbabel 3.1.0, see https://openbabel.org
data_I
_chemical_name_common 'image0'
_cell_length_a 8.2319
_cell_length_b 9.165
_cell_length_c 17.58
_cell_angle_alpha 90
_cell_angle_beta 90
_cell_angle_gamma 90
_space_group_name_H-M_alt 'P 1'
_space_group_name_Hall 'P 1'
loop_
    _symmetry_equiv_pos_as_xyz
    x,y,z
loop_
    _atom_site_label
    _atom_site_type_symbol
    _atom_site_fract_x
    _atom_site_fract_y
    _atom_site_fract_z
    _atom_site_occupancy
    Al1      Al       0.86130    0.86880    0.56605    1.000
    Al2      Al       0.93970    0.41220    0.46845    1.000
    Al3      Al       0.44260    0.58530    0.66700    1.000
    P1       P        0.13350    0.63110    0.57117    1.000
    P2       P        0.07070    0.09050    0.47317    1.000
    P3       P        0.56410    0.91540    0.67268    1.000
    O1       O        0.96430    0.03310    0.53600    1.000
    O2       O        0.01430    0.24200    0.45050    1.000
    O3       O        0.24460    0.09790    0.50110    1.000
    O4       O        0.45140    0.98770    0.61460    1.000
    O5       O        0.50750    0.75870    0.68260    1.000
    O6       O        0.73840    0.92110    0.64590    1.000
    O7       O        0.54810    0.98920    0.74830    1.000
    O8       O        0.06620    0.99490    0.40240    1.000
    O9       O        0.23480    0.58700    0.64020    1.000
    O10      O        0.05550    0.49430    0.53860    1.000
    O11      O        0.23850    0.70500    0.51120    1.000
    O12      O        0.00180    0.73320    0.59990    1.000
    Al4      Al       0.63870    0.13120    0.06605    1.000
    Al5      Al       0.56030    0.58780    0.96845    1.000
    Al6      Al       0.05740    0.41470    0.16700    1.000
    P4       P        0.36650    0.36890    0.07117    1.000
    P5       P        0.42930    0.90950    0.97317    1.000
    P6       P        0.93590    0.08460    0.17268    1.000
    O13      O        0.53570    0.96690    0.03600    1.000
    O14      O        0.48570    0.75800    0.95050    1.000
    O15      O        0.25540    0.90210    0.00110    1.000
    O16      O        0.04860    0.01230    0.11460    1.000
    O17      O        0.99250    0.24130    0.18260    1.000
    O18      O        0.76160    0.07890    0.14590    1.000
    O19      O        0.95190    0.01080    0.24830    1.000
    O20      O        0.43380    0.00510    0.90240    1.000
    O21      O        0.26520    0.41300    0.14020    1.000
    O22      O        0.44450    0.50570    0.03860    1.000
    O23      O        0.26150    0.29500    0.01120    1.000
    O24      O        0.49820    0.26680    0.09990    1.000
    Al7      Al       0.13870    0.36880    0.93395    1.000
    Al8      Al       0.06030    0.91220    0.03155    1.000
    Al9      Al       0.55740    0.08530    0.83300    1.000
    P7       P        0.86650    0.13110    0.92883    1.000
    P8       P        0.92930    0.59050    0.02683    1.000
    P9       P        0.43590    0.41540    0.82732    1.000
    O25      O        0.03570    0.53310    0.96400    1.000
    O26      O        0.98570    0.74200    0.04950    1.000
    O27      O        0.75540    0.59790    0.99890    1.000
    O28      O        0.54860    0.48770    0.88540    1.000
    O29      O        0.49250    0.25870    0.81740    1.000
    O30      O        0.26160    0.42110    0.85410    1.000
    O31      O        0.45190    0.48920    0.75170    1.000
    O32      O        0.93380    0.49490    0.09760    1.000
    O33      O        0.76520    0.08700    0.85980    1.000
    O34      O        0.94450    0.99430    0.96140    1.000
    O35      O        0.76150    0.20500    0.98880    1.000
    O36      O        0.99820    0.23320    0.90010    1.000
    Al10     Al       0.36130    0.63120    0.43395    1.000
    Al11     Al       0.43970    0.08780    0.53155    1.000
    Al12     Al       0.94260    0.91470    0.33300    1.000
    P10      P        0.63350    0.86890    0.42883    1.000
    P11      P        0.57070    0.40950    0.52683    1.000
    P12      P        0.06410    0.58460    0.32732    1.000
    O37      O        0.46430    0.46690    0.46400    1.000
    O38      O        0.51430    0.25800    0.54950    1.000
    O39      O        0.74460    0.40210    0.49890    1.000
    O40      O        0.95140    0.51230    0.38540    1.000
    O41      O        0.00750    0.74130    0.31740    1.000
    O42      O        0.23840    0.57890    0.35410    1.000
    O43      O        0.04810    0.51080    0.25170    1.000
    O44      O        0.56620    0.50510    0.59760    1.000
    O45      O        0.73480    0.91300    0.35980    1.000
    O46      O        0.55550    0.00570    0.46140    1.000
    O47      O        0.73850    0.79500    0.48880    1.000
    O48      O        0.50180    0.76680    0.40010    1.000
