data_functionalizedCrystal
_audit_creation_method	'EQeq! by Chris Wilmer'
_symmetry_space_group_name_H-M	'P1'
_symmetry_Int_Tables_number	1
_symmetry_cell_setting	triclinic
loop_
_symmetry_equiv_pos_as_xyz
  x,y,z
_cell_length_a	8.782
_cell_length_b	14.9417
_cell_length_c	15.4943
_cell_angle_alpha	90
_cell_angle_beta	92.94
_cell_angle_gamma	90
loop_
_atom_site_label
_atom_site_type_symbol
_atom_site_fract_x
_atom_site_fract_y
_atom_site_fract_z
_atom_site_charge
Mof_Zn	Zn	0.65033	0.61909	0.01032	1.237
Mof_P 	P 	0.7899	0.72018	0.85023	0.469
Mof_P 	P 	0.66127	0.5803	0.58375	0.447
Mof_O 	O 	0.7806	0.6476	0.91643	-0.456
Mof_O 	O 	0.815	0.8129	0.88448	-0.418
Mof_O 	O 	0.725	0.49922	0.54044	-0.412
Mof_O 	O 	0.5613	0.63797	0.52414	-0.457
Mof_O 	O 	0.655	0.72223	0.78397	-0.422
Mof_O 	O 	0.5845	0.55504	0.66609	-0.467
Mof_H 	H 	0.91	0.699	0.807	0.009
Mof_H 	H 	0.782	0.6303	0.6072	-0.001
Mof_Zn	Zn	0.15033	0.11909	0.01032	1.216
Mof_P 	P 	0.2899	0.22018	0.85023	0.466
Mof_P 	P 	0.16127	0.0803	0.58375	0.445
Mof_O 	O 	0.2806	0.1476	0.91643	-0.493
Mof_O 	O 	0.315	0.3129	0.88448	-0.454
Mof_O 	O 	0.225	0.99922	0.54044	-0.451
Mof_O 	O 	0.0613	0.13797	0.52414	-0.523
Mof_O 	O 	0.155	0.22223	0.78397	-0.464
Mof_O 	O 	0.0845	0.05504	0.66609	-0.513
Mof_H 	H 	0.41	0.199	0.807	-0.028
Mof_H 	H 	0.282	0.1303	0.6072	-0.028
Mof_Zn	Zn	0.34967	0.61909	0.48968	1.23
Mof_P 	P 	0.2101	0.72018	0.64977	0.466
Mof_P 	P 	0.33873	0.5803	0.91625	0.445
Mof_O 	O 	0.2194	0.6476	0.58357	-0.497
Mof_O 	O 	0.185	0.8129	0.61552	-0.467
Mof_O 	O 	0.275	0.49922	0.95956	-0.456
Mof_O 	O 	0.4387	0.63797	0.97586	-0.473
Mof_O 	O 	0.345	0.72223	0.71603	-0.435
Mof_O 	O 	0.4155	0.55504	0.83391	-0.476
Mof_H 	H 	0.09	0.699	0.693	-0.065
Mof_H 	H 	0.218	0.6303	0.8928	-0.048
Mof_Zn	Zn	0.84967	0.11909	0.48968	1.253
Mof_P 	P 	0.7101	0.22018	0.64977	0.469
Mof_P 	P 	0.83873	0.0803	0.91625	0.448
Mof_O 	O 	0.7194	0.1476	0.58357	-0.457
Mof_O 	O 	0.685	0.3129	0.61552	-0.431
Mof_O 	O 	0.775	0.99922	0.95956	-0.421
Mof_O 	O 	0.9387	0.13797	0.97586	-0.406
Mof_O 	O 	0.845	0.22223	0.71603	-0.379
Mof_O 	O 	0.9155	0.05504	0.83391	-0.416
Mof_H 	H 	0.59	0.199	0.693	-0.028
Mof_H 	H 	0.718	0.1303	0.8928	-0.019
Mof_Zn	Zn	0.34967	0.38091	0.98968	1.228
Mof_P 	P 	0.2101	0.27982	0.14977	0.466
Mof_P 	P 	0.33873	0.4197	0.41625	0.445
Mof_O 	O 	0.2194	0.3524	0.08357	-0.492
Mof_O 	O 	0.185	0.1871	0.11552	-0.465
Mof_O 	O 	0.275	0.50078	0.45956	-0.453
Mof_O 	O 	0.4387	0.36203	0.47586	-0.469
Mof_O 	O 	0.345	0.27777	0.21603	-0.434
Mof_O 	O 	0.4155	0.44496	0.33391	-0.475
Mof_H 	H 	0.09	0.301	0.193	-0.064
Mof_H 	H 	0.218	0.3697	0.3928	-0.047
Mof_Zn	Zn	0.84967	0.88091	0.98968	1.249
Mof_P 	P 	0.7101	0.77982	0.14977	0.469
Mof_P 	P 	0.83873	0.9197	0.41625	0.447
Mof_O 	O 	0.7194	0.8524	0.08357	-0.452
Mof_O 	O 	0.685	0.6871	0.11552	-0.428
Mof_O 	O 	0.775	0.00078	0.45956	-0.416
Mof_O 	O 	0.9387	0.86203	0.47586	-0.401
Mof_O 	O 	0.845	0.77777	0.21603	-0.377
Mof_O 	O 	0.9155	0.94496	0.33391	-0.415
Mof_H 	H 	0.59	0.801	0.193	-0.027
Mof_H 	H 	0.718	0.8697	0.3928	-0.018
Mof_Zn	Zn	0.65033	0.38091	0.51032	1.235
Mof_P 	P 	0.7899	0.27982	0.35023	0.47
Mof_P 	P 	0.66127	0.4197	0.08375	0.447
Mof_O 	O 	0.7806	0.3524	0.41643	-0.451
Mof_O 	O 	0.815	0.1871	0.38448	-0.415
Mof_O 	O 	0.725	0.50078	0.04044	-0.408
Mof_O 	O 	0.5613	0.36203	0.02414	-0.451
Mof_O 	O 	0.655	0.27777	0.28397	-0.421
Mof_O 	O 	0.5845	0.44496	0.16609	-0.466
Mof_H 	H 	0.91	0.301	0.307	0.01
Mof_H 	H 	0.782	0.3697	0.1072	0.001
Mof_Zn	Zn	0.15033	0.88091	0.51032	1.212
Mof_P 	P 	0.2899	0.77982	0.35023	0.466
Mof_P 	P 	0.16127	0.9197	0.08375	0.446
Mof_O 	O 	0.2806	0.8524	0.41643	-0.49
Mof_O 	O 	0.315	0.6871	0.38448	-0.452
Mof_O 	O 	0.225	0.00078	0.04044	-0.448
Mof_O 	O 	0.0613	0.86203	0.02414	-0.516
Mof_O 	O 	0.155	0.77777	0.28397	-0.463
Mof_O 	O 	0.0845	0.94496	0.16609	-0.511
Mof_H 	H 	0.41	0.801	0.307	-0.027
Mof_H 	H 	0.282	0.8697	0.1072	-0.026
Mof_Zn	Zn	0.5	0.63203	0.75	1.23
Mof_Zn	Zn	5.21584e-33	0.13203	0.75	1.194
Mof_Zn	Zn	0.5	0.36797	0.25	1.23
Mof_Zn	Zn	3.49943e-18	0.86797	0.25	1.194
_end
