# CIF file generated by openbabel 3.1.0, see https://openbabel.org
data_I
_chemical_name_common 'image0'
_cell_length_a 6.533
_cell_length_b 10.453
_cell_length_c 19.293
_cell_angle_alpha 90
_cell_angle_beta 90
_cell_angle_gamma 90
_space_group_name_H-M_alt 'P 1'
_space_group_name_Hall 'P 1'
loop_
    _symmetry_equiv_pos_as_xyz
    x,y,z
loop_
    _atom_site_label
    _atom_site_type_symbol
    _atom_site_fract_x
    _atom_site_fract_y
    _atom_site_fract_z
    _atom_site_occupancy
    N1       N        0.31160    0.79720    0.80640    1.000
    C1       C        0.31610    0.90990    0.75900    1.000
    C2       C        0.31610    0.84390    0.87930    1.000
    H1       H        0.62020    0.08620    0.85250    1.000
    H2       H        0.31470    0.88050    0.71130    1.000
    H3       H        0.19440    0.96130    0.76650    1.000
    H4       H        0.19380    0.89370    0.88850    1.000
    H5       H        0.31670    0.77130    0.91060    1.000
    N2       N        0.31160    0.20280    0.19360    1.000
    C3       C        0.31610    0.09010    0.24100    1.000
    C4       C        0.31610    0.15610    0.12070    1.000
    H6       H        0.62020    0.91380    0.14750    1.000
    H7       H        0.31470    0.11950    0.28870    1.000
    H8       H        0.19440    0.03870    0.23350    1.000
    H9       H        0.19380    0.10630    0.11150    1.000
    H10      H        0.31670    0.22870    0.08940    1.000
    N3       N        0.18840    0.70280    0.30640    1.000
    C5       C        0.18390    0.59010    0.25900    1.000
    C6       C        0.18390    0.65610    0.37930    1.000
    H11      H        0.87980    0.41380    0.35250    1.000
    H12      H        0.18530    0.61950    0.21130    1.000
    H13      H        0.30560    0.53870    0.26650    1.000
    H14      H        0.30620    0.60630    0.38850    1.000
    H15      H        0.18330    0.72870    0.41060    1.000
    N4       N        0.18840    0.29720    0.69360    1.000
    C7       C        0.18390    0.40990    0.74100    1.000
    C8       C        0.18390    0.34390    0.62070    1.000
    H16      H        0.87980    0.58620    0.64750    1.000
    H17      H        0.18530    0.38050    0.78870    1.000
    H18      H        0.30560    0.46130    0.73350    1.000
    H19      H        0.30620    0.39370    0.61150    1.000
    H20      H        0.18330    0.27130    0.58940    1.000
    N5       N        0.68840    0.20280    0.19360    1.000
    C9       C        0.68390    0.09010    0.24100    1.000
    C10      C        0.68390    0.15610    0.12070    1.000
    H21      H        0.37980    0.91380    0.14750    1.000
    H22      H        0.68530    0.11950    0.28870    1.000
    H23      H        0.80560    0.03870    0.23350    1.000
    H24      H        0.80620    0.10630    0.11150    1.000
    H25      H        0.68330    0.22870    0.08940    1.000
    N6       N        0.68840    0.79720    0.80640    1.000
    C11      C        0.68390    0.90990    0.75900    1.000
    C12      C        0.68390    0.84390    0.87930    1.000
    H26      H        0.37980    0.08620    0.85250    1.000
    H27      H        0.68530    0.88050    0.71130    1.000
    H28      H        0.80560    0.96130    0.76650    1.000
    H29      H        0.80620    0.89370    0.88850    1.000
    H30      H        0.68330    0.77130    0.91060    1.000
    N7       N        0.81160    0.29720    0.69360    1.000
    C13      C        0.81610    0.40990    0.74100    1.000
    C14      C        0.81610    0.34390    0.62070    1.000
    H31      H        0.12020    0.58620    0.64750    1.000
    H32      H        0.81470    0.38050    0.78870    1.000
    H33      H        0.69440    0.46130    0.73350    1.000
    H34      H        0.69380    0.39370    0.61150    1.000
    H35      H        0.81670    0.27130    0.58940    1.000
    N8       N        0.81160    0.70280    0.30640    1.000
    C15      C        0.81610    0.59010    0.25900    1.000
    C16      C        0.81610    0.65610    0.37930    1.000
    H36      H        0.12020    0.41380    0.35250    1.000
    H37      H        0.81470    0.61950    0.21130    1.000
    H38      H        0.69440    0.53870    0.26650    1.000
    H39      H        0.69380    0.60630    0.38850    1.000
    H40      H        0.81670    0.72870    0.41060    1.000
    Ag1      Ag       0.50000    0.17763    0.70343    1.000
    N9       N        0.50000    0.98970    0.77070    1.000
    N10      N        0.50000    0.92410    0.89240    1.000
    C17      C        0.50000    0.03390    0.84410    1.000
    C18      C        0.50000    0.72080    0.79410    1.000
    H41      H        0.50000    0.68980    0.74670    1.000
    H42      H        0.50000    0.64710    0.82470    1.000
    Ag2      Ag       0.50000    0.82237    0.29657    1.000
    N11      N        0.50000    0.01030    0.22930    1.000
    N12      N        0.50000    0.07590    0.10760    1.000
    C19      C        0.50000    0.96610    0.15590    1.000
    C20      C        0.50000    0.27920    0.20590    1.000
    H43      H        0.50000    0.31020    0.25330    1.000
    H44      H        0.50000    0.35290    0.17530    1.000
    Ag3      Ag       0.00000    0.32237    0.20343    1.000
    N13      N        0.00000    0.51030    0.27070    1.000
    N14      N        0.00000    0.57590    0.39240    1.000
    C21      C        0.00000    0.46610    0.34410    1.000
    C22      C        0.00000    0.77920    0.29410    1.000
    H45      H        0.00000    0.81020    0.24670    1.000
    H46      H        0.00000    0.85290    0.32470    1.000
    Ag4      Ag       0.00000    0.67763    0.79657    1.000
    N15      N        0.00000    0.48970    0.72930    1.000
    N16      N        0.00000    0.42410    0.60760    1.000
    C23      C        0.00000    0.53390    0.65590    1.000
    C24      C        0.00000    0.22080    0.70590    1.000
    H47      H        0.00000    0.18980    0.75330    1.000
    H48      H        0.00000    0.14710    0.67530    1.000
    Ag5      Ag       0.50000    0.00000    0.00000    1.000
    Ag6      Ag       0.00000    0.50000    0.50000    1.000
