data_functionalizedCrystal
_audit_creation_method	'EQeq! by Chris Wilmer'
_symmetry_space_group_name_H-M	'P1'
_symmetry_Int_Tables_number	1
_symmetry_cell_setting	triclinic
loop_
_symmetry_equiv_pos_as_xyz
  x,y,z
_cell_length_a	24.2756
_cell_length_b	24.2756
_cell_length_c	35.4381
_cell_angle_alpha	90
_cell_angle_beta	90
_cell_angle_gamma	120
loop_
_atom_site_label
_atom_site_type_symbol
_atom_site_fract_x
_atom_site_fract_y
_atom_site_fract_z
_atom_site_charge
Mof_Fe	Fe	0.11415	0.21491	0.31766	0.989
Mof_O 	O 	0.0412	0.08286	0.2205	-0.562
Mof_O 	O 	0.0803	0.1606	0.27615	-0.543
Mof_C 	C 	0.0625	0.0549	0.4312	-0.014
Mof_C 	C 	0.0837	0.1125	0.4059	0.599
Mof_C 	C 	0.0989	0.1025	0.3666	0.183
Mof_O 	O 	0.1263	0.1534	0.3458	-0.1
Mof_O 	O 	0.0863	0.0502	0.3549	-0.197
Mof_N 	N 	0.1532	0.3154	0.20905	-0.215
Mof_C 	C 	0.1346	0.2973	0.1683	0.117
Mof_C 	C 	0.0638	0.2699	0.1601	-0.403
Mof_C 	C 	0.0192	0.209	0.1802	0.456
Mof_O 	O 	0.0347	0.2023	0.21324	-0.408
Mof_O 	O 	0.0301	0.2005	0.33701	-0.452
Mof_C 	C 	0.2234	0.3415	0.2148	0.128
Mof_C 	C 	0.2514	0.3064	0.1947	-0.412
Mof_C 	C 	0.2227	0.237	0.2032	0.459
Mof_O 	O 	0.1684	0.2089	0.21881	-0.408
Mof_O 	O 	0.21	0.2539	0.30607	-0.409
Mof_C 	C 	0.1318	0.3605	0.2234	0.132
Mof_C 	C 	0.1587	0.3916	0.2608	-0.424
Mof_C 	C 	0.1439	0.3476	0.2939	0.478
Mof_O 	O 	0.1223	0.2893	0.28633	-0.394
Mof_O 	O 	0.1555	0.3694	0.32685	-0.393
Mof_Fe	Fe	0.194	0.55071	0.42606	1.023
Mof_Fe	Fe	0.31064	0.52918	0.42805	1.031
Mof_Fe	Fe	0.19995	0.44907	0.36146	1.085
Mof_Fe	Fe	0.10886	0.58869	0.48899	1.067
Mof_O 	O 	0.2806	0.5845	0.45703	-0.572
Mof_O 	O 	0.2526	0.6381	0.39898	-0.581
Mof_O 	O 	0.2349	0.5101	0.40006	-0.554
Mof_O 	O 	0.1725	0.6074	0.45329	-0.548
Mof_C 	C 	0.3439	0.614	0.2498	0.126
Mof_C 	C 	0.2993	0.5499	0.2674	-0.41
Mof_C 	C 	0.305	0.5454	0.3089	0.44
Mof_O 	O 	0.2701	0.4902	0.32384	-0.414
Mof_O 	O 	0.3433	0.5947	0.32682	-0.329
Mof_C 	C 	0.2869	0.6854	0.6042	0.136
Mof_C 	C 	0.2222	0.6515	0.5859	-0.415
Mof_C 	C 	0.221	0.6643	0.5444	0.464
Mof_O 	O 	0.1662	0.6423	0.53046	-0.425
Mof_O 	O 	0.2736	0.6961	0.5284	-0.334
Mof_N 	N 	0.1296	0.3531	0.4688	-0.215
Mof_C 	C 	0.1309	0.3751	0.5083	0.123
Mof_C 	C 	0.094	0.4088	0.5153	-0.398
Mof_C 	C 	0.1206	0.4726	0.4944	0.469
Mof_O 	O 	0.1433	0.4769	0.46152	-0.413
Mof_O 	O 	0.1133	0.5143	0.51081	-0.428
Mof_C 	C 	0.1679	0.3197	0.4657	0.107
Mof_C 	C 	0.2315	0.3493	0.486	-0.392
Mof_C 	C 	0.2809	0.4159	0.4738	0.459
Mof_O 	O 	0.2618	0.4526	0.46178	-0.41
Mof_O 	O 	0.0921	0.6617	0.47718	-0.409
Mof_C 	C 	0.0638	0.3056	0.451	0.144
Mof_C 	C 	0.0316	0.3361	0.4302	-0.47
Mof_C 	C 	0.0661	0.37	0.395	0.458
Mof_O 	O 	0.1268	0.393	0.39553	-0.388
Mof_O 	O 	0.0353	0.3783	0.3699	-0.319
Mof_N 	N 	0.4465	0.4745	0.3722	-0.248
Mof_C 	C 	0.3958	0.4051	0.3678	0.104
Mof_C 	C 	0.3328	0.3863	0.3676	-0.435
Mof_C 	C 	0.3027	0.4235	0.3814	0.462
Mof_O 	O 	0.3386	0.4786	0.39494	-0.403
Mof_O 	O 	0.2426	0.3983	0.37896	-0.392
Mof_C 	C 	0.5136	0.4926	0.3769	0.44
Mof_C 	C 	0.5302	0.4764	0.4158	-0.164
Mof_C 	C 	0.5178	0.5084	0.4498	0.387
Mof_O 	O 	0.0436	0.533	0.44851	-0.381
Mof_O 	O 	0.0281	0.5568	0.52315	-0.375
Mof_C 	C 	0.4358	0.4948	0.3329	-0.241
Mof_C 	C 	0.4801	0.5621	0.3224	-0.468
Mof_C 	C 	0.4871	0.6133	0.3494	0.504
Mof_O 	O 	0.1285	0.5288	0.38383	-0.407
Mof_O 	O 	0.1566	0.4892	0.33472	-0.431
Mof_H 	H 	0.0409	0.0822	0.1923	0.224
Mof_H 	H 	0.095	0.0417	0.4304	0.038
Mof_H 	H 	0.0599	0.0671	0.4575	0.031
Mof_H 	H 	0.0495	0.1235	0.4051	-0.304
Mof_H 	H 	0.1218	0.149	0.4171	0.055
Mof_C 	C 	0.0561	0.9942	0.4368	-0.16
Mof_H 	H 	0.0968	0.0346	0.4339	0.033
Mof_H 	H 	0.0492	0.983	0.464	0.073
Mof_C 	C 	0.057	0.1143	0.4148	0.253
Mof_H 	H 	0.0636	0.1553	0.4245	0.009
Mof_H 	H 	0.0973	0.1137	0.4191	-0.476
Mof_C 	C 	0.0463	0.1118	0.3754	-0.012
Mof_O 	O 	0.1016	0.1458	0.3557	-0.288
Mof_O 	O 	0.9917	0.069	0.359	0.008
Mof_H 	H 	0.132	0.2783	0.2232	0.162
Mof_H 	H 	0.1468	0.2655	0.1609	0.003
Mof_H 	H 	0.1592	0.3354	0.1524	-0.014
Mof_H 	H 	0.0521	0.3022	0.1669	0.15
Mof_H 	H 	0.0571	0.2624	0.1326	0.145
Mof_H 	H 	0.2315	0.3413	0.2421	0.002
Mof_H 	H 	0.2462	0.3863	0.2062	-0.019
Mof_H 	H 	0.2479	0.3111	0.1672	0.142
Mof_H 	H 	0.2973	0.3276	0.2008	0.142
Mof_H 	H 	0.1433	0.3943	0.2043	-0.018
Mof_H 	H 	0.0848	0.3367	0.2254	-0.002
Mof_H 	H 	0.1427	0.421	0.2664	0.153
Mof_H 	H 	0.2055	0.4176	0.2582	0.149
Mof_H 	H 	0.2799	0.5845	0.4852	0.237
Mof_H 	H 	0.3602	0.6146	0.3708	0.243
Mof_H 	H 	0.3883	0.6255	0.2557	-0.009
Mof_H 	H 	0.3389	0.6102	0.2221	-0.015
Mof_H 	H 	0.2551	0.5388	0.2616	0.148
Mof_H 	H 	0.3068	0.5176	0.2552	0.137
Mof_H 	H 	0.2683	0.5738	0.5999	-0.011
Mof_H 	H 	0.3218	0.6031	0.6318	-0.018
Mof_H 	H 	0.3948	0.599	0.5894	0.149
Mof_H 	H 	0.3362	0.5304	0.5992	0.146
Mof_H 	H 	0.1488	0.3889	0.4535	0.162
Mof_H 	H 	0.1758	0.4042	0.5155	0.004
Mof_H 	H 	0.1142	0.3378	0.5252	-0.017
Mof_H 	H 	0.0939	0.4165	0.5428	0.139
Mof_H 	H 	0.0493	0.3806	0.5074	0.146
Mof_H 	H 	0.1757	0.3164	0.4386	0.012
Mof_H 	H 	0.1414	0.2758	0.4754	-0.011
Mof_H 	H 	0.2236	0.3504	0.5134	0.139
Mof_H 	H 	0.2497	0.3212	0.4826	0.142
Mof_H 	H 	0.0698	0.2775	0.4333	-0.01
Mof_H 	H 	0.0351	0.2785	0.4713	-0.029
Mof_H 	H 	0.9878	0.3029	0.4235	0.183
Mof_H 	H 	0.0285	0.3668	0.4472	0.172
Mof_H 	H 	0.4396	0.4996	0.3893	0.08
Mof_H 	H 	0.436	0.4996	0.387	0.073
Mof_C 	C 	0.3987	0.4069	0.3824	0.109
Mof_H 	H 	0.3968	0.4024	0.4102	0.027
Mof_H 	H 	0.4131	0.3783	0.3721	0.011
Mof_H 	H 	0.4048	0.3902	0.3438	-0.019
Mof_H 	H 	0.4025	0.3814	0.3883	-0.085
Mof_H 	H 	0.3348	0.3888	0.3397	0.074
Mof_H 	H 	0.3045	0.3411	0.3745	0.08
Mof_H 	H 	0.3118	0.3458	0.3819	0.064
Mof_H 	H 	0.3188	0.3751	0.3411	0.072
Mof_H 	H 	0.5402	0.539	0.3728	-0.07
Mof_H 	H 	0.5248	0.471	0.3572	-0.14
Mof_C 	C 	0.493	0.448	0.3926	-0.508
Mof_H 	H 	0.4633	0.4059	0.4033	0.151
Mof_H 	H 	0.5158	0.4414	0.3718	0.18
Mof_H 	H 	0.5052	0.4297	0.4193	0.137
Mof_H 	H 	0.5757	0.4888	0.4158	0.054
Mof_H 	H 	0.5678	0.5103	0.4026	0.024
Mof_H 	H 	0.5431	0.4468	0.4264	0.005
Mof_H 	H 	0.4394	0.4671	0.3137	0.117
Mof_H 	H 	0.3917	0.4873	0.3317	0.107
Mof_C 	C 	0.481	0.5014	0.3416	0.347
Mof_H 	H 	0.4675	0.4679	0.3221	-0.114
Mof_H 	H 	0.5259	0.5151	0.3479	-0.13
Mof_H 	H 	0.4662	0.5702	0.2978	0.058
Mof_H 	H 	0.5227	0.5671	0.3186	0.114
Mof_H 	H 	0.5148	0.5813	0.3036	0.081
Mof_H 	H 	0.4394	0.5462	0.3087	0.145
Mof_Fe	Fe	0.78509	0.89924	0.31766	0.984
Mof_O 	O 	0.91714	0.95834	0.2205	-0.535
Mof_O 	O 	0.8394	0.9197	0.27615	-0.531
Mof_C 	C 	0.9451	0.0076	0.4312	-0.085
Mof_C 	C 	0.8875	0.9712	0.4059	0.685
Mof_C 	C 	0.8975	0.9964	0.3666	0.256
Mof_O 	O 	0.8466	0.9729	0.3458	0.092
Mof_O 	O 	0.9498	0.0361	0.3549	-0.287
Mof_N 	N 	0.6846	0.8378	0.20905	-0.218
Mof_C 	C 	0.7027	0.8373	0.1683	0.128
Mof_C 	C 	0.7301	0.7939	0.1601	-0.429
Mof_C 	C 	0.791	0.8102	0.1802	0.499
Mof_O 	O 	0.7977	0.8324	0.21324	-0.416
Mof_O 	O 	0.7995	0.8296	0.33701	-0.417
Mof_C 	C 	0.6585	0.8819	0.2148	0.138
Mof_C 	C 	0.6936	0.945	0.1947	-0.435
Mof_C 	C 	0.763	0.9857	0.2032	0.498
Mof_O 	O 	0.7911	0.9595	0.21881	-0.403
Mof_O 	O 	0.7461	0.9561	0.30607	-0.385
Mof_C 	C 	0.6395	0.7713	0.2234	0.13
Mof_C 	C 	0.6084	0.7671	0.2608	-0.423
Mof_C 	C 	0.6524	0.7963	0.2939	0.479
Mof_O 	O 	0.7107	0.833	0.28633	-0.391
Mof_O 	O 	0.6306	0.7861	0.32685	-0.392
Mof_Fe	Fe	0.44929	0.64329	0.42606	1.025
Mof_Fe	Fe	0.47082	0.78146	0.42805	1.032
Mof_Fe	Fe	0.55093	0.75088	0.36146	1.086
Mof_Fe	Fe	0.41131	0.52017	0.48899	1.068
Mof_O 	O 	0.4155	0.6961	0.45703	-0.573
Mof_O 	O 	0.3619	0.6145	0.39898	-0.581
Mof_O 	O 	0.4899	0.7248	0.40006	-0.555
Mof_O 	O 	0.3926	0.5651	0.45329	-0.549
Mof_C 	C 	0.386	0.7299	0.2498	0.127
Mof_C 	C 	0.4501	0.7494	0.2674	-0.411
Mof_C 	C 	0.4546	0.7596	0.3089	0.442
Mof_O 	O 	0.5098	0.7799	0.32384	-0.412
Mof_O 	O 	0.4053	0.7486	0.32682	-0.329
Mof_C 	C 	0.3146	0.6015	0.6042	0.136
Mof_C 	C 	0.3485	0.5707	0.5859	-0.416
Mof_C 	C 	0.3357	0.5567	0.5444	0.465
Mof_O 	O 	0.3577	0.5239	0.53046	-0.424
Mof_O 	O 	0.3039	0.5775	0.5284	-0.335
Mof_N 	N 	0.6469	0.7765	0.4688	-0.211
Mof_C 	C 	0.6249	0.7558	0.5083	0.123
Mof_C 	C 	0.5912	0.6852	0.5153	-0.401
Mof_C 	C 	0.5274	0.648	0.4944	0.473
Mof_O 	O 	0.5231	0.6664	0.46152	-0.413
Mof_O 	O 	0.4857	0.599	0.51081	-0.427
Mof_C 	C 	0.6803	0.8482	0.4657	0.107
Mof_C 	C 	0.6507	0.8822	0.486	-0.395
Mof_C 	C 	0.5841	0.865	0.4738	0.461
Mof_O 	O 	0.5474	0.8092	0.46178	-0.411
Mof_O 	O 	0.3383	0.4304	0.47718	-0.406
Mof_C 	C 	0.6944	0.7582	0.451	0.11
Mof_C 	C 	0.6639	0.6955	0.4302	-0.397
Mof_C 	C 	0.63	0.6961	0.395	0.439
Mof_O 	O 	0.607	0.7338	0.39553	-0.382
Mof_O 	O 	0.6217	0.657	0.3699	-0.301
Mof_N 	N 	0.5255	0.972	0.3722	-0.232
Mof_C 	C 	0.5949	0.9907	0.3678	0.144
Mof_C 	C 	0.6137	0.9465	0.3676	-0.476
Mof_C 	C 	0.5765	0.8792	0.3814	0.478
Mof_O 	O 	0.5214	0.86	0.39494	-0.407
Mof_O 	O 	0.6017	0.8443	0.37896	-0.396
Mof_C 	C 	0.5074	0.021	0.3769	0.373
Mof_C 	C 	0.5236	0.0538	0.4158	-0.28
Mof_C 	C 	0.4916	0.0094	0.4498	0.388
Mof_O 	O 	0.467	0.5106	0.44851	-0.365
Mof_O 	O 	0.4432	0.4713	0.52315	-0.364
Mof_C 	C 	0.5052	0.941	0.3329	0.067
Mof_C 	C 	0.4379	0.918	0.3224	-0.542
Mof_C 	C 	0.3867	0.8738	0.3494	0.53
Mof_O 	O 	0.4712	0.5997	0.38383	-0.411
Mof_O 	O 	0.5108	0.6674	0.33472	-0.438
Mof_H 	H 	0.9178	0.9587	0.1923	0.234
Mof_H 	H 	0.9583	0.0533	0.4304	0.062
Mof_H 	H 	0.9329	0.9928	0.4575	0.078
Mof_H 	H 	0.8765	0.926	0.4051	-0.358
Mof_H 	H 	0.851	0.9728	0.4171	0.055
Mof_C 	C 	0.0058	0.0619	0.4368	-0.202
Mof_H 	H 	0.9654	0.0622	0.4339	0.054
Mof_H 	H 	0.017	0.0662	0.464	0.058
Mof_C 	C 	0.8857	0.9427	0.4148	0.245
Mof_H 	H 	0.8447	0.9083	0.4245	0.028
Mof_H 	H 	0.8863	0.9836	0.4191	-0.513
Mof_C 	C 	0.8882	0.9345	0.3754	0.115
Mof_O 	O 	0.8542	0.9558	0.3557	-0.521
Mof_O 	O 	0.931	0.9227	0.359	-0.097
Mof_H 	H 	0.7217	0.8537	0.2232	0.163
Mof_H 	H 	0.7345	0.8813	0.1609	0.002
Mof_H 	H 	0.6646	0.8238	0.1524	-0.015
Mof_H 	H 	0.6978	0.7499	0.1669	0.163
Mof_H 	H 	0.7376	0.7947	0.1326	0.159
Mof_H 	H 	0.6587	0.8902	0.2421	0.001
Mof_H 	H 	0.6137	0.8599	0.2062	-0.021
Mof_H 	H 	0.6889	0.9368	0.1672	0.153
Mof_H 	H 	0.6724	0.9697	0.2008	0.156
Mof_H 	H 	0.6057	0.749	0.2043	-0.015
Mof_H 	H 	0.6633	0.7481	0.2254	0.003
Mof_H 	H 	0.579	0.7217	0.2664	0.154
Mof_H 	H 	0.5824	0.7879	0.2582	0.15
Mof_H 	H 	0.4155	0.6954	0.4852	0.237
Mof_H 	H 	0.3854	0.7456	0.3708	0.243
Mof_H 	H 	0.3745	0.7628	0.2557	-0.008
Mof_H 	H 	0.3898	0.7287	0.2221	-0.015
Mof_H 	H 	0.4612	0.7163	0.2616	0.148
Mof_H 	H 	0.4824	0.7892	0.2552	0.139
Mof_H 	H 	0.4262	0.6945	0.5999	-0.01
Mof_H 	H 	0.3969	0.7187	0.6318	-0.018
Mof_H 	H 	0.401	0.7958	0.5894	0.15
Mof_H 	H 	0.4696	0.8058	0.5992	0.149
Mof_H 	H 	0.6111	0.7599	0.4535	0.16
Mof_H 	H 	0.5958	0.7716	0.5155	0.004
Mof_H 	H 	0.6622	0.7764	0.5252	-0.013
Mof_H 	H 	0.5835	0.6774	0.5428	0.142
Mof_H 	H 	0.6194	0.6687	0.5074	0.154
Mof_H 	H 	0.6836	0.8593	0.4386	0.013
Mof_H 	H 	0.7242	0.8656	0.4754	-0.006
Mof_H 	H 	0.6496	0.8732	0.5134	0.142
Mof_H 	H 	0.6788	0.9285	0.4826	0.149
Mof_H 	H 	0.7225	0.7923	0.4333	0.004
Mof_H 	H 	0.7215	0.7566	0.4713	-0.01
Mof_H 	H 	0.6971	0.6849	0.4235	0.143
Mof_H 	H 	0.6332	0.6617	0.4472	0.159
Mof_H 	H 	0.5004	0.94	0.3893	0.075
Mof_H 	H 	0.5004	0.9364	0.387	0.074
Mof_C 	C 	0.5931	0.9918	0.3824	0.146
Mof_H 	H 	0.5976	0.9944	0.4102	0.043
Mof_H 	H 	0.6217	0.0348	0.3721	0.021
Mof_H 	H 	0.6098	0.0146	0.3438	-0.054
Mof_H 	H 	0.6186	0.0211	0.3883	-0.143
Mof_H 	H 	0.6112	0.946	0.3397	0.079
Mof_H 	H 	0.6589	0.9634	0.3745	0.09
Mof_H 	H 	0.6542	0.966	0.3819	0.072
Mof_H 	H 	0.6249	0.9437	0.3411	0.086
Mof_H 	H 	0.461	0.0012	0.3728	-0.072
Mof_H 	H 	0.529	0.0538	0.3572	-0.127
Mof_C 	C 	0.552	0.045	0.3926	-0.363
Mof_H 	H 	0.5941	0.0574	0.4033	0.103
Mof_H 	H 	0.5586	0.0744	0.3718	0.135
Mof_H 	H 	0.5703	0.0755	0.4193	0.141
Mof_H 	H 	0.5112	0.0869	0.4158	0.066
Mof_H 	H 	0.4897	0.0575	0.4026	0.052
Mof_H 	H 	0.5532	0.0963	0.4264	0.031
Mof_H 	H 	0.5329	0.9723	0.3137	-0.01
Mof_H 	H 	0.5127	0.9044	0.3317	0.014
Mof_C 	C 	0.4986	0.9796	0.3416	0.085
Mof_H 	H 	0.5321	0.9996	0.3221	0.008
Mof_H 	H 	0.4849	0.0108	0.3479	-0.054
Mof_H 	H 	0.4298	0.896	0.2978	0.09
Mof_H 	H 	0.4329	0.9556	0.3186	0.156
Mof_H 	H 	0.4187	0.9335	0.3036	0.078
Mof_H 	H 	0.4538	0.8932	0.3087	0.131
Mof_Fe	Fe	0.10076	0.88585	0.31766	0.981
Mof_O 	O 	0.04166	0.9588	0.2205	-0.545
Mof_O 	O 	0.0803	0.9197	0.27615	-0.527
Mof_C 	C 	0.9924	0.9375	0.4312	0.066
Mof_C 	C 	0.0288	0.9163	0.4059	0.612
Mof_C 	C 	0.0036	0.9011	0.3666	0.12
Mof_O 	O 	0.0271	0.8737	0.3458	-0.057
Mof_O 	O 	0.9639	0.9137	0.3549	-0.15
Mof_N 	N 	0.1622	0.8468	0.20905	-0.217
Mof_C 	C 	0.1627	0.8654	0.1683	0.143
Mof_C 	C 	0.2061	0.9362	0.1601	-0.457
Mof_C 	C 	0.1898	0.9808	0.1802	0.54
Mof_O 	O 	0.1676	0.9653	0.21324	-0.411
Mof_O 	O 	0.1704	0.9699	0.33701	-0.388
Mof_C 	C 	0.1181	0.7766	0.2148	0.116
Mof_C 	C 	0.055	0.7486	0.1947	-0.385
Mof_C 	C 	0.0143	0.7773	0.2032	0.412
Mof_O 	O 	0.0405	0.8316	0.21881	-0.403
Mof_O 	O 	0.0439	0.79	0.30607	-0.436
Mof_C 	C 	0.2287	0.8682	0.2234	0.126
Mof_C 	C 	0.2329	0.8413	0.2608	-0.419
Mof_C 	C 	0.2037	0.8561	0.2939	0.478
Mof_O 	O 	0.167	0.8777	0.28633	-0.387
Mof_O 	O 	0.2139	0.8445	0.32685	-0.391
Mof_Fe	Fe	0.35671	0.806	0.42606	1.027
Mof_Fe	Fe	0.21854	0.68936	0.42805	1.03
Mof_Fe	Fe	0.24912	0.80005	0.36146	1.085
Mof_Fe	Fe	0.47983	0.89114	0.48899	1.07
Mof_O 	O 	0.3039	0.7194	0.45703	-0.573
Mof_O 	O 	0.3855	0.7474	0.39898	-0.581
Mof_O 	O 	0.2752	0.7651	0.40006	-0.555
Mof_O 	O 	0.4349	0.8275	0.45329	-0.549
Mof_C 	C 	0.2701	0.6561	0.2498	0.126
Mof_C 	C 	0.2506	0.7007	0.2674	-0.41
Mof_C 	C 	0.2404	0.695	0.3089	0.438
Mof_O 	O 	0.2201	0.7299	0.32384	-0.415
Mof_O 	O 	0.2514	0.6567	0.32682	-0.329
Mof_C 	C 	0.3985	0.7131	0.6042	0.137
Mof_C 	C 	0.4293	0.7778	0.5859	-0.418
Mof_C 	C 	0.4433	0.779	0.5444	0.466
Mof_O 	O 	0.4761	0.8338	0.53046	-0.423
Mof_O 	O 	0.4225	0.7264	0.5284	-0.335
Mof_N 	N 	0.2235	0.8704	0.4688	-0.207
Mof_C 	C 	0.2442	0.8691	0.5083	0.125
Mof_C 	C 	0.3148	0.906	0.5153	-0.405
Mof_C 	C 	0.352	0.8794	0.4944	0.476
Mof_O 	O 	0.3336	0.8567	0.46152	-0.412
Mof_O 	O 	0.401	0.8867	0.51081	-0.425
Mof_C 	C 	0.1518	0.8321	0.4657	0.104
Mof_C 	C 	0.1178	0.7685	0.486	-0.388
Mof_C 	C 	0.135	0.7191	0.4738	0.458
Mof_O 	O 	0.1908	0.7382	0.46178	-0.41
Mof_O 	O 	0.5696	0.9079	0.47718	-0.403
Mof_C 	C 	0.2418	0.9362	0.451	0.077
Mof_C 	C 	0.3045	0.9684	0.4302	-0.325
Mof_C 	C 	0.3039	0.9339	0.395	0.419
Mof_O 	O 	0.2662	0.8732	0.39553	-0.376
Mof_O 	O 	0.343	0.9647	0.3699	-0.283
Mof_N 	N 	0.028	0.5535	0.3722	-0.265
Mof_C 	C 	0.0093	0.6042	0.3678	0.064
Mof_C 	C 	0.0535	0.6672	0.3676	-0.394
Mof_C 	C 	0.1208	0.6973	0.3814	0.446
Mof_O 	O 	0.14	0.6614	0.39494	-0.398
Mof_O 	O 	0.1557	0.7574	0.37896	-0.389
Mof_C 	C 	0.979	0.4864	0.3769	0.506
Mof_C 	C 	0.9462	0.4698	0.4158	-0.05
Mof_C 	C 	0.9906	0.4822	0.4498	0.386
Mof_O 	O 	0.4894	0.9564	0.44851	-0.349
Mof_O 	O 	0.5287	0.9719	0.52315	-0.352
Mof_C 	C 	0.059	0.5642	0.3329	-0.547
Mof_C 	C 	0.082	0.5199	0.3224	-0.395
Mof_C 	C 	0.1262	0.5129	0.3494	0.479
Mof_O 	O 	0.4003	0.8715	0.38383	-0.414
Mof_O 	O 	0.3326	0.8434	0.33472	-0.444
Mof_H 	H 	0.0413	0.9591	0.1923	0.229
Mof_H 	H 	0.9467	0.905	0.4304	0.052
Mof_H 	H 	0.0072	0.9401	0.4575	-0.003
Mof_H 	H 	0.074	0.9505	0.4051	-0.337
Mof_H 	H 	0.0272	0.8782	0.4171	0.061
Mof_C 	C 	0.9381	0.9439	0.4368	-0.134
Mof_H 	H 	0.9378	0.9032	0.4339	0.014
Mof_H 	H 	0.9338	0.9508	0.464	0.056
Mof_C 	C 	0.0573	0.943	0.4148	0.251
Mof_H 	H 	0.0917	0.9364	0.4245	0.023
Mof_H 	H 	0.0164	0.9027	0.4191	-0.505
Mof_C 	C 	0.0655	0.9537	0.3754	0.107
Mof_O 	O 	0.0442	0.8984	0.3557	-0.333
Mof_O 	O 	0.0773	0.0083	0.359	-0.109
Mof_H 	H 	0.1463	0.868	0.2232	0.163
Mof_H 	H 	0.1187	0.8532	0.1609	-0.009
Mof_H 	H 	0.1762	0.8408	0.1524	-0.021
Mof_H 	H 	0.2501	0.9479	0.1669	0.178
Mof_H 	H 	0.2053	0.9429	0.1326	0.171
Mof_H 	H 	0.1098	0.7685	0.2421	0.003
Mof_H 	H 	0.1401	0.7538	0.2062	-0.016
Mof_H 	H 	0.0632	0.7521	0.1672	0.129
Mof_H 	H 	0.0303	0.7027	0.2008	0.126
Mof_H 	H 	0.251	0.8567	0.2043	-0.012
Mof_H 	H 	0.2519	0.9152	0.2254	0.008
Mof_H 	H 	0.2783	0.8573	0.2664	0.155
Mof_H 	H 	0.2121	0.7945	0.2582	0.148
Mof_H 	H 	0.3046	0.7201	0.4852	0.237
Mof_H 	H 	0.2544	0.6398	0.3708	0.243
Mof_H 	H 	0.2372	0.6117	0.2557	-0.009
Mof_H 	H 	0.2713	0.6611	0.2221	-0.016
Mof_H 	H 	0.2837	0.7449	0.2616	0.148
Mof_H 	H 	0.2108	0.6932	0.2552	0.136
Mof_H 	H 	0.3055	0.7317	0.5999	-0.01
Mof_H 	H 	0.2813	0.6782	0.6318	-0.018
Mof_H 	H 	0.2042	0.6052	0.5894	0.147
Mof_H 	H 	0.1942	0.6638	0.5992	0.144
Mof_H 	H 	0.2401	0.8512	0.4535	0.159
Mof_H 	H 	0.2284	0.8242	0.5155	0.003
Mof_H 	H 	0.2236	0.8858	0.5252	-0.012
Mof_H 	H 	0.3226	0.9061	0.5428	0.145
Mof_H 	H 	0.3313	0.9507	0.5074	0.163
Mof_H 	H 	0.1407	0.8243	0.4386	0.011
Mof_H 	H 	0.1344	0.8586	0.4754	-0.008
Mof_H 	H 	0.1268	0.7764	0.5134	0.136
Mof_H 	H 	0.0715	0.7503	0.4826	0.135
Mof_H 	H 	0.2077	0.9302	0.4333	0.017
Mof_H 	H 	0.2434	0.9649	0.4713	0.007
Mof_H 	H 	0.3151	0.0122	0.4235	0.102
Mof_H 	H 	0.3383	0.9715	0.4472	0.146
Mof_H 	H 	0.06	0.5604	0.3893	0.086
Mof_H 	H 	0.0636	0.564	0.387	0.071
Mof_C 	C 	0.0082	0.6013	0.3824	0.073
Mof_H 	H 	0.0056	0.6032	0.4102	0.011
Mof_H 	H 	0.9652	0.5869	0.3721	0.002
Mof_H 	H 	0.9854	0.5952	0.3438	0.016
Mof_H 	H 	0.9789	0.5975	0.3883	-0.028
Mof_H 	H 	0.054	0.6652	0.3397	0.068
Mof_H 	H 	0.0366	0.6955	0.3745	0.069
Mof_H 	H 	0.034	0.6882	0.3819	0.056
Mof_H 	H 	0.0563	0.6812	0.3411	0.058
Mof_H 	H 	0.9988	0.4598	0.3728	-0.068
Mof_H 	H 	0.9462	0.4752	0.3572	-0.153
Mof_C 	C 	0.955	0.507	0.3926	-0.652
Mof_H 	H 	0.9426	0.5367	0.4033	0.198
Mof_H 	H 	0.9256	0.4842	0.3718	0.226
Mof_H 	H 	0.9245	0.4948	0.4193	0.134
Mof_H 	H 	0.9131	0.4243	0.4158	0.042
Mof_H 	H 	0.9425	0.4322	0.4026	-0.004
Mof_H 	H 	0.9037	0.4569	0.4264	-0.021
Mof_H 	H 	0.0277	0.5606	0.3137	0.243
Mof_H 	H 	0.0956	0.6083	0.3317	0.199
Mof_C 	C 	0.0204	0.519	0.3416	0.606
Mof_H 	H 	0.0004	0.5325	0.3221	-0.235
Mof_H 	H 	0.9892	0.4741	0.3479	-0.206
Mof_H 	H 	0.104	0.5338	0.2978	0.027
Mof_H 	H 	0.0444	0.4773	0.3186	0.072
Mof_H 	H 	0.0665	0.4852	0.3036	0.084
Mof_H 	H 	0.1068	0.5606	0.3087	0.159
Mof_Fe	Fe	0.21491	0.11415	0.18234	0.988
Mof_O 	O 	0.08286	0.0412	0.2795	-0.563
Mof_O 	O 	0.1606	0.0803	0.22385	-0.543
Mof_C 	C 	0.0549	0.0625	0.0688	-0.013
Mof_C 	C 	0.1125	0.0837	0.0941	0.599
Mof_C 	C 	0.1025	0.0989	0.1334	0.184
Mof_O 	O 	0.1534	0.1263	0.1542	-0.1
Mof_O 	O 	0.0502	0.0863	0.1451	-0.198
Mof_N 	N 	0.3154	0.1532	0.29095	-0.215
Mof_C 	C 	0.2973	0.1346	0.3317	0.117
Mof_C 	C 	0.2699	0.0638	0.3399	-0.402
Mof_C 	C 	0.209	0.0192	0.3198	0.455
Mof_O 	O 	0.2023	0.0347	0.28676	-0.408
Mof_O 	O 	0.2005	0.0301	0.16299	-0.452
Mof_C 	C 	0.3415	0.2234	0.2852	0.128
Mof_C 	C 	0.3064	0.2514	0.3053	-0.412
Mof_C 	C 	0.237	0.2227	0.2968	0.459
Mof_O 	O 	0.2089	0.1684	0.28119	-0.408
Mof_O 	O 	0.2539	0.21	0.19393	-0.409
Mof_C 	C 	0.3605	0.1318	0.2766	0.132
Mof_C 	C 	0.3916	0.1587	0.2392	-0.424
Mof_C 	C 	0.3476	0.1439	0.2061	0.477
Mof_O 	O 	0.2893	0.1223	0.21367	-0.394
Mof_O 	O 	0.3694	0.1555	0.17315	-0.393
Mof_Fe	Fe	0.55071	0.194	0.07394	1.023
Mof_Fe	Fe	0.52918	0.31064	0.07195	1.031
Mof_Fe	Fe	0.44907	0.19995	0.13854	1.085
Mof_Fe	Fe	0.58869	0.10886	0.01101	1.066
Mof_O 	O 	0.5845	0.2806	0.04297	-0.572
Mof_O 	O 	0.6381	0.2526	0.10102	-0.581
Mof_O 	O 	0.5101	0.2349	0.09994	-0.554
Mof_O 	O 	0.6074	0.1725	0.04671	-0.548
Mof_C 	C 	0.614	0.3439	0.2502	0.126
Mof_C 	C 	0.5499	0.2993	0.2326	-0.41
Mof_C 	C 	0.5454	0.305	0.1911	0.44
Mof_O 	O 	0.4902	0.2701	0.17616	-0.414
Mof_O 	O 	0.5947	0.3433	0.17318	-0.329
Mof_C 	C 	0.6854	0.2869	0.8958	0.136
Mof_C 	C 	0.6515	0.2222	0.9141	-0.415
Mof_C 	C 	0.6643	0.221	0.9556	0.464
Mof_O 	O 	0.6423	0.1662	0.96954	-0.425
Mof_O 	O 	0.6961	0.2736	0.9716	-0.334
Mof_N 	N 	0.3531	0.1296	0.0312	-0.215
Mof_C 	C 	0.3751	0.1309	0.9917	0.123
Mof_C 	C 	0.4088	0.094	0.9847	-0.398
Mof_C 	C 	0.4726	0.1206	0.0056	0.469
Mof_O 	O 	0.4769	0.1433	0.03848	-0.413
Mof_O 	O 	0.5143	0.1133	0.98919	-0.428
Mof_C 	C 	0.3197	0.1679	0.0343	0.108
Mof_C 	C 	0.3493	0.2315	0.014	-0.392
Mof_C 	C 	0.4159	0.2809	0.0262	0.459
Mof_O 	O 	0.4526	0.2618	0.03822	-0.41
Mof_O 	O 	0.6617	0.0921	0.02282	-0.409
Mof_C 	C 	0.3056	0.0638	0.049	0.145
Mof_C 	C 	0.3361	0.0316	0.0698	-0.471
Mof_C 	C 	0.37	0.0661	0.105	0.458
Mof_O 	O 	0.393	0.1268	0.10447	-0.388
Mof_O 	O 	0.3783	0.0353	0.1301	-0.319
Mof_N 	N 	0.4745	0.4465	0.1278	-0.248
Mof_C 	C 	0.4051	0.3958	0.1322	0.104
Mof_C 	C 	0.3863	0.3328	0.1324	-0.435
Mof_C 	C 	0.4235	0.3027	0.1186	0.462
Mof_O 	O 	0.4786	0.3386	0.10506	-0.403
Mof_O 	O 	0.3983	0.2426	0.12104	-0.392
Mof_C 	C 	0.4926	0.5136	0.1231	0.44
Mof_C 	C 	0.4764	0.5302	0.0842	-0.164
Mof_C 	C 	0.5084	0.5178	0.0502	0.387
Mof_O 	O 	0.533	0.0436	0.05149	-0.381
Mof_O 	O 	0.5568	0.0281	0.97685	-0.375
Mof_C 	C 	0.4948	0.4358	0.1671	-0.241
Mof_C 	C 	0.5621	0.4801	0.1776	-0.468
Mof_C 	C 	0.6133	0.4871	0.1506	0.504
Mof_O 	O 	0.5288	0.1285	0.11617	-0.407
Mof_O 	O 	0.4892	0.1566	0.16528	-0.431
Mof_H 	H 	0.0822	0.0409	0.3077	0.224
Mof_H 	H 	0.0417	0.095	0.0696	0.038
Mof_H 	H 	0.0671	0.0599	0.0425	0.031
Mof_H 	H 	0.1235	0.0495	0.0949	-0.303
Mof_H 	H 	0.149	0.1218	0.0829	0.055
Mof_C 	C 	0.9942	0.0561	0.0632	-0.162
Mof_H 	H 	0.0346	0.0968	0.0661	0.033
Mof_H 	H 	0.983	0.0492	0.036	0.073
Mof_C 	C 	0.1143	0.057	0.0852	0.253
Mof_H 	H 	0.1553	0.0636	0.0755	0.009
Mof_H 	H 	0.1137	0.0973	0.0809	-0.476
Mof_C 	C 	0.1118	0.0463	0.1246	-0.012
Mof_O 	O 	0.1458	0.1016	0.1443	-0.288
Mof_O 	O 	0.069	0.9917	0.141	0.008
Mof_H 	H 	0.2783	0.132	0.2768	0.162
Mof_H 	H 	0.2655	0.1468	0.3391	0.003
Mof_H 	H 	0.3354	0.1592	0.3476	-0.014
Mof_H 	H 	0.3022	0.0521	0.3331	0.15
Mof_H 	H 	0.2624	0.0571	0.3674	0.144
Mof_H 	H 	0.3413	0.2315	0.2579	0.002
Mof_H 	H 	0.3863	0.2462	0.2938	-0.019
Mof_H 	H 	0.3111	0.2479	0.3328	0.142
Mof_H 	H 	0.3276	0.2973	0.2992	0.142
Mof_H 	H 	0.3943	0.1433	0.2957	-0.018
Mof_H 	H 	0.3367	0.0848	0.2746	-0.002
Mof_H 	H 	0.421	0.1427	0.2336	0.153
Mof_H 	H 	0.4176	0.2055	0.2418	0.149
Mof_H 	H 	0.5845	0.2799	0.0148	0.237
Mof_H 	H 	0.6146	0.3602	0.1292	0.243
Mof_H 	H 	0.6255	0.3883	0.2443	-0.009
Mof_H 	H 	0.6102	0.3389	0.2779	-0.015
Mof_H 	H 	0.5388	0.2551	0.2384	0.148
Mof_H 	H 	0.5176	0.3068	0.2448	0.137
Mof_H 	H 	0.5738	0.2683	0.9001	-0.011
Mof_H 	H 	0.6031	0.3218	0.8682	-0.018
Mof_H 	H 	0.599	0.3948	0.9106	0.149
Mof_H 	H 	0.5304	0.3362	0.9008	0.146
Mof_H 	H 	0.3889	0.1488	0.0465	0.162
Mof_H 	H 	0.4042	0.1758	0.9845	0.004
Mof_H 	H 	0.3378	0.1142	0.9748	-0.017
Mof_H 	H 	0.4165	0.0939	0.9572	0.139
Mof_H 	H 	0.3806	0.0493	0.9926	0.146
Mof_H 	H 	0.3164	0.1757	0.0614	0.012
Mof_H 	H 	0.2758	0.1414	0.0246	-0.011
Mof_H 	H 	0.3504	0.2236	0.9866	0.139
Mof_H 	H 	0.3212	0.2497	0.0174	0.142
Mof_H 	H 	0.2775	0.0698	0.0667	-0.01
Mof_H 	H 	0.2785	0.0351	0.0287	-0.029
Mof_H 	H 	0.3029	0.9878	0.0765	0.184
Mof_H 	H 	0.3668	0.0285	0.0528	0.172
Mof_H 	H 	0.4996	0.4396	0.1107	0.08
Mof_H 	H 	0.4996	0.436	0.113	0.073
Mof_C 	C 	0.4069	0.3987	0.1176	0.109
Mof_H 	H 	0.4024	0.3968	0.0898	0.027
Mof_H 	H 	0.3783	0.4131	0.1279	0.011
Mof_H 	H 	0.3902	0.4048	0.1562	-0.019
Mof_H 	H 	0.3814	0.4025	0.1117	-0.085
Mof_H 	H 	0.3888	0.3348	0.1603	0.074
Mof_H 	H 	0.3411	0.3045	0.1255	0.08
Mof_H 	H 	0.3458	0.3118	0.1181	0.064
Mof_H 	H 	0.3751	0.3188	0.1589	0.072
Mof_H 	H 	0.539	0.5402	0.1272	-0.07
Mof_H 	H 	0.471	0.5248	0.1428	-0.14
Mof_C 	C 	0.448	0.493	0.1074	-0.508
Mof_H 	H 	0.4059	0.4633	0.0967	0.151
Mof_H 	H 	0.4414	0.5158	0.1282	0.18
Mof_H 	H 	0.4297	0.5052	0.0807	0.137
Mof_H 	H 	0.4888	0.5757	0.0842	0.054
Mof_H 	H 	0.5103	0.5678	0.0974	0.024
Mof_H 	H 	0.4468	0.5431	0.0736	0.005
Mof_H 	H 	0.4671	0.4394	0.1863	0.117
Mof_H 	H 	0.4873	0.3917	0.1683	0.107
Mof_C 	C 	0.5014	0.481	0.1584	0.347
Mof_H 	H 	0.4679	0.4675	0.1779	-0.114
Mof_H 	H 	0.5151	0.5259	0.1521	-0.13
Mof_H 	H 	0.5702	0.4662	0.2022	0.058
Mof_H 	H 	0.5671	0.5227	0.1814	0.114
Mof_H 	H 	0.5813	0.5148	0.1964	0.081
Mof_H 	H 	0.5462	0.4394	0.1913	0.145
Mof_Fe	Fe	0.89924	0.78509	0.18234	0.984
Mof_O 	O 	0.95834	0.91714	0.2795	-0.535
Mof_O 	O 	0.9197	0.8394	0.22385	-0.531
Mof_C 	C 	0.0076	0.9451	0.0688	-0.083
Mof_C 	C 	0.9712	0.8875	0.0941	0.685
Mof_C 	C 	0.9964	0.8975	0.1334	0.255
Mof_O 	O 	0.9729	0.8466	0.1542	0.091
Mof_O 	O 	0.0361	0.9498	0.1451	-0.287
Mof_N 	N 	0.8378	0.6846	0.29095	-0.218
Mof_C 	C 	0.8373	0.7027	0.3317	0.128
Mof_C 	C 	0.7939	0.7301	0.3399	-0.429
Mof_C 	C 	0.8102	0.791	0.3198	0.499
Mof_O 	O 	0.8324	0.7977	0.28676	-0.416
Mof_O 	O 	0.8296	0.7995	0.16299	-0.417
Mof_C 	C 	0.8819	0.6585	0.2852	0.138
Mof_C 	C 	0.945	0.6936	0.3053	-0.434
Mof_C 	C 	0.9857	0.763	0.2968	0.498
Mof_O 	O 	0.9595	0.7911	0.28119	-0.403
Mof_O 	O 	0.9561	0.7461	0.19393	-0.385
Mof_C 	C 	0.7713	0.6395	0.2766	0.13
Mof_C 	C 	0.7671	0.6084	0.2392	-0.423
Mof_C 	C 	0.7963	0.6524	0.2061	0.479
Mof_O 	O 	0.833	0.7107	0.21367	-0.391
Mof_O 	O 	0.7861	0.6306	0.17315	-0.392
Mof_Fe	Fe	0.64329	0.44929	0.07394	1.025
Mof_Fe	Fe	0.78146	0.47082	0.07195	1.032
Mof_Fe	Fe	0.75088	0.55093	0.13854	1.086
Mof_Fe	Fe	0.52017	0.41131	0.01101	1.068
Mof_O 	O 	0.6961	0.4155	0.04297	-0.573
Mof_O 	O 	0.6145	0.3619	0.10102	-0.581
Mof_O 	O 	0.7248	0.4899	0.09994	-0.555
Mof_O 	O 	0.5651	0.3926	0.04671	-0.549
Mof_C 	C 	0.7299	0.386	0.2502	0.127
Mof_C 	C 	0.7494	0.4501	0.2326	-0.411
Mof_C 	C 	0.7596	0.4546	0.1911	0.442
Mof_O 	O 	0.7799	0.5098	0.17616	-0.412
Mof_O 	O 	0.7486	0.4053	0.17318	-0.329
Mof_C 	C 	0.6015	0.3146	0.8958	0.136
Mof_C 	C 	0.5707	0.3485	0.9141	-0.416
Mof_C 	C 	0.5567	0.3357	0.9556	0.465
Mof_O 	O 	0.5239	0.3577	0.96954	-0.424
Mof_O 	O 	0.5775	0.3039	0.9716	-0.334
Mof_N 	N 	0.7765	0.6469	0.0312	-0.211
Mof_C 	C 	0.7558	0.6249	0.9917	0.123
Mof_C 	C 	0.6852	0.5912	0.9847	-0.401
Mof_C 	C 	0.648	0.5274	0.0056	0.472
Mof_O 	O 	0.6664	0.5231	0.03848	-0.412
Mof_O 	O 	0.599	0.4857	0.98919	-0.427
Mof_C 	C 	0.8482	0.6803	0.0343	0.107
Mof_C 	C 	0.8822	0.6507	0.014	-0.395
Mof_C 	C 	0.865	0.5841	0.0262	0.461
Mof_O 	O 	0.8092	0.5474	0.03822	-0.411
Mof_O 	O 	0.4304	0.3383	0.02282	-0.406
Mof_C 	C 	0.7582	0.6944	0.049	0.11
Mof_C 	C 	0.6955	0.6639	0.0698	-0.397
Mof_C 	C 	0.6961	0.63	0.105	0.439
Mof_O 	O 	0.7338	0.607	0.10447	-0.382
Mof_O 	O 	0.657	0.6217	0.1301	-0.301
Mof_N 	N 	0.972	0.5255	0.1278	-0.232
Mof_C 	C 	0.9907	0.5949	0.1322	0.144
Mof_C 	C 	0.9465	0.6137	0.1324	-0.475
Mof_C 	C 	0.8792	0.5765	0.1186	0.477
Mof_O 	O 	0.86	0.5214	0.10506	-0.407
Mof_O 	O 	0.8443	0.6017	0.12104	-0.396
Mof_C 	C 	0.021	0.5074	0.1231	0.374
Mof_C 	C 	0.0538	0.5236	0.0842	-0.278
Mof_C 	C 	0.0094	0.4916	0.0502	0.388
Mof_O 	O 	0.5106	0.467	0.05149	-0.365
Mof_O 	O 	0.4713	0.4432	0.97685	-0.364
Mof_C 	C 	0.941	0.5052	0.1671	0.062
Mof_C 	C 	0.918	0.4379	0.1776	-0.541
Mof_C 	C 	0.8738	0.3867	0.1506	0.53
Mof_O 	O 	0.5997	0.4712	0.11617	-0.411
Mof_O 	O 	0.6674	0.5108	0.16528	-0.438
Mof_H 	H 	0.9587	0.9178	0.3077	0.234
Mof_H 	H 	0.0533	0.9583	0.0696	0.063
Mof_H 	H 	0.9928	0.9329	0.0425	0.077
Mof_H 	H 	0.926	0.8765	0.0949	-0.358
Mof_H 	H 	0.9728	0.851	0.0829	0.055
Mof_C 	C 	0.0619	0.0058	0.0632	-0.203
Mof_H 	H 	0.0622	0.9654	0.0661	0.053
Mof_H 	H 	0.0662	0.017	0.036	0.058
Mof_C 	C 	0.9427	0.8857	0.0852	0.245
Mof_H 	H 	0.9083	0.8447	0.0755	0.028
Mof_H 	H 	0.9836	0.8863	0.0809	-0.513
Mof_C 	C 	0.9345	0.8882	0.1246	0.115
Mof_O 	O 	0.9558	0.8542	0.1443	-0.52
Mof_O 	O 	0.9227	0.931	0.141	-0.097
Mof_H 	H 	0.8537	0.7217	0.2768	0.163
Mof_H 	H 	0.8813	0.7345	0.3391	0.002
Mof_H 	H 	0.8238	0.6646	0.3476	-0.015
Mof_H 	H 	0.7499	0.6978	0.3331	0.163
Mof_H 	H 	0.7947	0.7376	0.3674	0.159
Mof_H 	H 	0.8902	0.6587	0.2579	0.001
Mof_H 	H 	0.8599	0.6137	0.2938	-0.021
Mof_H 	H 	0.9368	0.6889	0.3328	0.153
Mof_H 	H 	0.9697	0.6724	0.2992	0.156
Mof_H 	H 	0.749	0.6057	0.2957	-0.015
Mof_H 	H 	0.7481	0.6633	0.2746	0.003
Mof_H 	H 	0.7217	0.579	0.2336	0.154
Mof_H 	H 	0.7879	0.5824	0.2418	0.15
Mof_H 	H 	0.6954	0.4155	0.0148	0.237
Mof_H 	H 	0.7456	0.3854	0.1292	0.243
Mof_H 	H 	0.7628	0.3745	0.2443	-0.008
Mof_H 	H 	0.7287	0.3898	0.2779	-0.015
Mof_H 	H 	0.7163	0.4612	0.2384	0.148
Mof_H 	H 	0.7892	0.4824	0.2448	0.139
Mof_H 	H 	0.6945	0.4262	0.9001	-0.01
Mof_H 	H 	0.7187	0.3969	0.8682	-0.018
Mof_H 	H 	0.7958	0.401	0.9106	0.15
Mof_H 	H 	0.8058	0.4696	0.9008	0.149
Mof_H 	H 	0.7599	0.6111	0.0465	0.16
Mof_H 	H 	0.7716	0.5958	0.9845	0.004
Mof_H 	H 	0.7764	0.6622	0.9748	-0.013
Mof_H 	H 	0.6774	0.5835	0.9572	0.142
Mof_H 	H 	0.6687	0.6194	0.9926	0.154
Mof_H 	H 	0.8593	0.6836	0.0614	0.013
Mof_H 	H 	0.8656	0.7242	0.0246	-0.006
Mof_H 	H 	0.8732	0.6496	0.9866	0.142
Mof_H 	H 	0.9285	0.6788	0.0174	0.149
Mof_H 	H 	0.7923	0.7225	0.0667	0.004
Mof_H 	H 	0.7566	0.7215	0.0287	-0.01
Mof_H 	H 	0.6849	0.6971	0.0765	0.143
Mof_H 	H 	0.6617	0.6332	0.0528	0.159
Mof_H 	H 	0.94	0.5004	0.1107	0.075
Mof_H 	H 	0.9364	0.5004	0.113	0.074
Mof_C 	C 	0.9918	0.5931	0.1176	0.145
Mof_H 	H 	0.9944	0.5976	0.0898	0.043
Mof_H 	H 	0.0348	0.6217	0.1279	0.021
Mof_H 	H 	0.0146	0.6098	0.1562	-0.053
Mof_H 	H 	0.0211	0.6186	0.1117	-0.142
Mof_H 	H 	0.946	0.6112	0.1603	0.079
Mof_H 	H 	0.9634	0.6589	0.1255	0.09
Mof_H 	H 	0.966	0.6542	0.1181	0.072
Mof_H 	H 	0.9437	0.6249	0.1589	0.086
Mof_H 	H 	0.0012	0.461	0.1272	-0.072
Mof_H 	H 	0.0538	0.529	0.1428	-0.127
Mof_C 	C 	0.045	0.552	0.1074	-0.365
Mof_H 	H 	0.0574	0.5941	0.0967	0.104
Mof_H 	H 	0.0744	0.5586	0.1282	0.136
Mof_H 	H 	0.0755	0.5703	0.0807	0.141
Mof_H 	H 	0.0869	0.5112	0.0842	0.066
Mof_H 	H 	0.0575	0.4897	0.0974	0.051
Mof_H 	H 	0.0963	0.5532	0.0736	0.031
Mof_H 	H 	0.9723	0.5329	0.1863	-0.008
Mof_H 	H 	0.9044	0.5127	0.1683	0.015
Mof_C 	C 	0.9796	0.4986	0.1584	0.089
Mof_H 	H 	0.9996	0.5321	0.1779	0.006
Mof_H 	H 	0.0108	0.4849	0.1521	-0.055
Mof_H 	H 	0.896	0.4298	0.2022	0.089
Mof_H 	H 	0.9556	0.4329	0.1814	0.156
Mof_H 	H 	0.9335	0.4187	0.1964	0.078
Mof_H 	H 	0.8932	0.4538	0.1913	0.131
Mof_Fe	Fe	0.88585	0.10076	0.18234	0.981
Mof_O 	O 	0.9588	0.04166	0.2795	-0.546
Mof_O 	O 	0.9197	0.0803	0.22385	-0.527
Mof_C 	C 	0.9375	0.9924	0.0688	0.067
Mof_C 	C 	0.9163	0.0288	0.0941	0.611
Mof_C 	C 	0.9011	0.0036	0.1334	0.119
Mof_O 	O 	0.8737	0.0271	0.1542	-0.058
Mof_O 	O 	0.9137	0.9639	0.1451	-0.149
Mof_N 	N 	0.8468	0.1622	0.29095	-0.217
Mof_C 	C 	0.8654	0.1627	0.3317	0.143
Mof_C 	C 	0.9362	0.2061	0.3399	-0.456
Mof_C 	C 	0.9808	0.1898	0.3198	0.539
Mof_O 	O 	0.9653	0.1676	0.28676	-0.411
Mof_O 	O 	0.9699	0.1704	0.16299	-0.389
Mof_C 	C 	0.7766	0.1181	0.2852	0.116
Mof_C 	C 	0.7486	0.055	0.3053	-0.385
Mof_C 	C 	0.7773	0.0143	0.2968	0.412
Mof_O 	O 	0.8316	0.0405	0.28119	-0.403
Mof_O 	O 	0.79	0.0439	0.19393	-0.436
Mof_C 	C 	0.8682	0.2287	0.2766	0.126
Mof_C 	C 	0.8413	0.2329	0.2392	-0.419
Mof_C 	C 	0.8561	0.2037	0.2061	0.478
Mof_O 	O 	0.8777	0.167	0.21367	-0.387
Mof_O 	O 	0.8445	0.2139	0.17315	-0.391
Mof_Fe	Fe	0.806	0.35671	0.07394	1.027
Mof_Fe	Fe	0.68936	0.21854	0.07195	1.03
Mof_Fe	Fe	0.80005	0.24912	0.13854	1.085
Mof_Fe	Fe	0.89114	0.47983	0.01101	1.069
Mof_O 	O 	0.7194	0.3039	0.04297	-0.573
Mof_O 	O 	0.7474	0.3855	0.10102	-0.581
Mof_O 	O 	0.7651	0.2752	0.09994	-0.555
Mof_O 	O 	0.8275	0.4349	0.04671	-0.549
Mof_C 	C 	0.6561	0.2701	0.2502	0.126
Mof_C 	C 	0.7007	0.2506	0.2326	-0.41
Mof_C 	C 	0.695	0.2404	0.1911	0.438
Mof_O 	O 	0.7299	0.2201	0.17616	-0.415
Mof_O 	O 	0.6567	0.2514	0.17318	-0.329
Mof_C 	C 	0.7131	0.3985	0.8958	0.137
Mof_C 	C 	0.7778	0.4293	0.9141	-0.418
Mof_C 	C 	0.779	0.4433	0.9556	0.466
Mof_O 	O 	0.8338	0.4761	0.96954	-0.423
Mof_O 	O 	0.7264	0.4225	0.9716	-0.335
Mof_N 	N 	0.8704	0.2235	0.0312	-0.207
Mof_C 	C 	0.8691	0.2442	0.9917	0.125
Mof_C 	C 	0.906	0.3148	0.9847	-0.405
Mof_C 	C 	0.8794	0.352	0.0056	0.475
Mof_O 	O 	0.8567	0.3336	0.03848	-0.412
Mof_O 	O 	0.8867	0.401	0.98919	-0.424
Mof_C 	C 	0.8321	0.1518	0.0343	0.104
Mof_C 	C 	0.7685	0.1178	0.014	-0.389
Mof_C 	C 	0.7191	0.135	0.0262	0.458
Mof_O 	O 	0.7382	0.1908	0.03822	-0.41
Mof_O 	O 	0.9079	0.5696	0.02282	-0.403
Mof_C 	C 	0.9362	0.2418	0.049	0.078
Mof_C 	C 	0.9684	0.3045	0.0698	-0.326
Mof_C 	C 	0.9339	0.3039	0.105	0.42
Mof_O 	O 	0.8732	0.2662	0.10447	-0.376
Mof_O 	O 	0.9647	0.343	0.1301	-0.284
Mof_N 	N 	0.5535	0.028	0.1278	-0.265
Mof_C 	C 	0.6042	0.0093	0.1322	0.063
Mof_C 	C 	0.6672	0.0535	0.1324	-0.393
Mof_C 	C 	0.6973	0.1208	0.1186	0.446
Mof_O 	O 	0.6614	0.14	0.10506	-0.398
Mof_O 	O 	0.7574	0.1557	0.12104	-0.389
Mof_C 	C 	0.4864	0.979	0.1231	0.507
Mof_C 	C 	0.4698	0.9462	0.0842	-0.049
Mof_C 	C 	0.4822	0.9906	0.0502	0.386
Mof_O 	O 	0.9564	0.4894	0.05149	-0.35
Mof_O 	O 	0.9719	0.5287	0.97685	-0.352
Mof_C 	C 	0.5642	0.059	0.1671	-0.55
Mof_C 	C 	0.5199	0.082	0.1776	-0.394
Mof_C 	C 	0.5129	0.1262	0.1506	0.478
Mof_O 	O 	0.8715	0.4003	0.11617	-0.414
Mof_O 	O 	0.8434	0.3326	0.16528	-0.444
Mof_H 	H 	0.9591	0.0413	0.3077	0.229
Mof_H 	H 	0.905	0.9467	0.0696	0.052
Mof_H 	H 	0.9401	0.0072	0.0425	-0.004
Mof_H 	H 	0.9505	0.074	0.0949	-0.336
Mof_H 	H 	0.8782	0.0272	0.0829	0.061
Mof_C 	C 	0.9439	0.9381	0.0632	-0.135
Mof_H 	H 	0.9032	0.9378	0.0661	0.014
Mof_H 	H 	0.9508	0.9338	0.036	0.057
Mof_C 	C 	0.943	0.0573	0.0852	0.251
Mof_H 	H 	0.9364	0.0917	0.0755	0.023
Mof_H 	H 	0.9027	0.0164	0.0809	-0.505
Mof_C 	C 	0.9537	0.0655	0.1246	0.106
Mof_O 	O 	0.8984	0.0442	0.1443	-0.331
Mof_O 	O 	0.0083	0.0773	0.141	-0.109
Mof_H 	H 	0.868	0.1463	0.2768	0.163
Mof_H 	H 	0.8532	0.1187	0.3391	-0.009
Mof_H 	H 	0.8408	0.1762	0.3476	-0.021
Mof_H 	H 	0.9479	0.2501	0.3331	0.178
Mof_H 	H 	0.9429	0.2053	0.3674	0.171
Mof_H 	H 	0.7685	0.1098	0.2579	0.003
Mof_H 	H 	0.7538	0.1401	0.2938	-0.016
Mof_H 	H 	0.7521	0.0632	0.3328	0.129
Mof_H 	H 	0.7027	0.0303	0.2992	0.126
Mof_H 	H 	0.8567	0.251	0.2957	-0.012
Mof_H 	H 	0.9152	0.2519	0.2746	0.008
Mof_H 	H 	0.8573	0.2783	0.2336	0.155
Mof_H 	H 	0.7945	0.2121	0.2418	0.148
Mof_H 	H 	0.7201	0.3046	0.0148	0.237
Mof_H 	H 	0.6398	0.2544	0.1292	0.243
Mof_H 	H 	0.6117	0.2372	0.2443	-0.009
Mof_H 	H 	0.6611	0.2713	0.2779	-0.016
Mof_H 	H 	0.7449	0.2837	0.2384	0.148
Mof_H 	H 	0.6932	0.2108	0.2448	0.136
Mof_H 	H 	0.7317	0.3055	0.9001	-0.01
Mof_H 	H 	0.6782	0.2813	0.8682	-0.018
Mof_H 	H 	0.6052	0.2042	0.9106	0.147
Mof_H 	H 	0.6638	0.1942	0.9008	0.144
Mof_H 	H 	0.8512	0.2401	0.0465	0.159
Mof_H 	H 	0.8242	0.2284	0.9845	0.004
Mof_H 	H 	0.8858	0.2236	0.9748	-0.012
Mof_H 	H 	0.9061	0.3226	0.9572	0.145
Mof_H 	H 	0.9507	0.3313	0.9926	0.163
Mof_H 	H 	0.8243	0.1407	0.0614	0.011
Mof_H 	H 	0.8586	0.1344	0.0246	-0.008
Mof_H 	H 	0.7764	0.1268	0.9866	0.137
Mof_H 	H 	0.7503	0.0715	0.0174	0.135
Mof_H 	H 	0.9302	0.2077	0.0667	0.016
Mof_H 	H 	0.9649	0.2434	0.0287	0.007
Mof_H 	H 	0.0122	0.3151	0.0765	0.103
Mof_H 	H 	0.9715	0.3383	0.0528	0.146
Mof_H 	H 	0.5604	0.06	0.1107	0.086
Mof_H 	H 	0.564	0.0636	0.113	0.071
Mof_C 	C 	0.6013	0.0082	0.1176	0.073
Mof_H 	H 	0.6032	0.0056	0.0898	0.011
Mof_H 	H 	0.5869	0.9652	0.1279	0.002
Mof_H 	H 	0.5952	0.9854	0.1562	0.016
Mof_H 	H 	0.5975	0.9789	0.1117	-0.027
Mof_H 	H 	0.6652	0.054	0.1603	0.068
Mof_H 	H 	0.6955	0.0366	0.1255	0.069
Mof_H 	H 	0.6882	0.034	0.1181	0.056
Mof_H 	H 	0.6812	0.0563	0.1589	0.058
Mof_H 	H 	0.4598	0.9988	0.1272	-0.068
Mof_H 	H 	0.4752	0.9462	0.1428	-0.153
Mof_C 	C 	0.507	0.955	0.1074	-0.654
Mof_H 	H 	0.5367	0.9426	0.0967	0.198
Mof_H 	H 	0.4842	0.9256	0.1282	0.226
Mof_H 	H 	0.4948	0.9245	0.0807	0.134
Mof_H 	H 	0.4243	0.9131	0.0842	0.042
Mof_H 	H 	0.4322	0.9425	0.0974	-0.004
Mof_H 	H 	0.4569	0.9037	0.0736	-0.022
Mof_H 	H 	0.5606	0.0277	0.1863	0.244
Mof_H 	H 	0.6083	0.0956	0.1683	0.2
Mof_C 	C 	0.519	0.0204	0.1584	0.609
Mof_H 	H 	0.5325	0.0004	0.1779	-0.236
Mof_H 	H 	0.4741	0.9892	0.1521	-0.207
Mof_H 	H 	0.5338	0.104	0.2022	0.026
Mof_H 	H 	0.4773	0.0444	0.1814	0.072
Mof_H 	H 	0.4852	0.0665	0.1964	0.084
Mof_H 	H 	0.5606	0.1068	0.1913	0.159
Mof_Fe	Fe	0.88585	0.78509	0.68234	0.981
Mof_O 	O 	0.9588	0.91714	0.7795	-0.537
Mof_O 	O 	0.9197	0.8394	0.72385	-0.53
Mof_C 	C 	0.9375	0.9451	0.5688	-0.008
Mof_C 	C 	0.9163	0.8875	0.5941	0.663
Mof_C 	C 	0.9011	0.8975	0.6334	0.188
Mof_O 	O 	0.8737	0.8466	0.6542	0.049
Mof_O 	O 	0.9137	0.9498	0.6451	-0.224
Mof_N 	N 	0.8468	0.6846	0.79095	-0.218
Mof_C 	C 	0.8654	0.7027	0.8317	0.141
Mof_C 	C 	0.9362	0.7301	0.8399	-0.454
Mof_C 	C 	0.9808	0.791	0.8198	0.537
Mof_O 	O 	0.9653	0.7977	0.78676	-0.411
Mof_O 	O 	0.9699	0.7995	0.66299	-0.387
Mof_C 	C 	0.7766	0.6585	0.7852	0.128
Mof_C 	C 	0.7486	0.6936	0.8053	-0.411
Mof_C 	C 	0.7773	0.763	0.7968	0.457
Mof_O 	O 	0.8316	0.7911	0.78119	-0.411
Mof_O 	O 	0.79	0.7461	0.69393	-0.413
Mof_C 	C 	0.8682	0.6395	0.7766	0.127
Mof_C 	C 	0.8413	0.6084	0.7392	-0.42
Mof_C 	C 	0.8561	0.6524	0.7061	0.479
Mof_O 	O 	0.8777	0.7107	0.71367	-0.387
Mof_O 	O 	0.8445	0.6306	0.67315	-0.39
Mof_Fe	Fe	0.806	0.44929	0.57394	1.027
Mof_Fe	Fe	0.68936	0.47082	0.57195	1.031
Mof_Fe	Fe	0.80005	0.55093	0.63854	1.086
Mof_Fe	Fe	0.89114	0.41131	0.51101	1.07
Mof_O 	O 	0.7194	0.4155	0.54297	-0.573
Mof_O 	O 	0.7474	0.3619	0.60102	-0.581
Mof_O 	O 	0.7651	0.4899	0.59994	-0.555
Mof_O 	O 	0.8275	0.3926	0.54671	-0.549
Mof_C 	C 	0.6561	0.386	0.7502	0.126
Mof_C 	C 	0.7007	0.4501	0.7326	-0.411
Mof_C 	C 	0.695	0.4546	0.6911	0.44
Mof_O 	O 	0.7299	0.5098	0.67616	-0.413
Mof_O 	O 	0.6567	0.4053	0.67318	-0.329
Mof_C 	C 	0.7131	0.3146	0.3958	0.137
Mof_C 	C 	0.7778	0.3485	0.4141	-0.418
Mof_C 	C 	0.779	0.3357	0.4556	0.466
Mof_O 	O 	0.8338	0.3577	0.46954	-0.423
Mof_O 	O 	0.7264	0.3039	0.4716	-0.335
Mof_N 	N 	0.8704	0.6469	0.5312	-0.207
Mof_C 	C 	0.8691	0.6249	0.4917	0.124
Mof_C 	C 	0.906	0.5912	0.4847	-0.405
Mof_C 	C 	0.8794	0.5274	0.5056	0.476
Mof_O 	O 	0.8567	0.5231	0.53848	-0.412
Mof_O 	O 	0.8867	0.4857	0.48919	-0.425
Mof_C 	C 	0.8321	0.6803	0.5343	0.105
Mof_C 	C 	0.7685	0.6507	0.514	-0.391
Mof_C 	C 	0.7191	0.5841	0.5262	0.459
Mof_O 	O 	0.7382	0.5474	0.53822	-0.41
Mof_O 	O 	0.9079	0.3383	0.52282	-0.402
Mof_C 	C 	0.9362	0.6944	0.549	0.078
Mof_C 	C 	0.9684	0.6639	0.5698	-0.327
Mof_C 	C 	0.9339	0.63	0.605	0.42
Mof_O 	O 	0.8732	0.607	0.60447	-0.376
Mof_O 	O 	0.9647	0.6217	0.6301	-0.284
Mof_N 	N 	0.5535	0.5255	0.6278	-0.248
Mof_C 	C 	0.6042	0.5949	0.6322	0.104
Mof_C 	C 	0.6672	0.6137	0.6324	-0.434
Mof_C 	C 	0.6973	0.5765	0.6186	0.462
Mof_O 	O 	0.6614	0.5214	0.60506	-0.403
Mof_O 	O 	0.7574	0.6017	0.62104	-0.393
Mof_C 	C 	0.4864	0.5074	0.6231	0.44
Mof_C 	C 	0.4698	0.5236	0.5842	-0.165
Mof_C 	C 	0.4822	0.4916	0.5502	0.387
Mof_O 	O 	0.9564	0.467	0.55149	-0.349
Mof_O 	O 	0.9719	0.4432	0.47685	-0.352
Mof_C 	C 	0.5642	0.5052	0.6671	-0.241
Mof_C 	C 	0.5199	0.4379	0.6776	-0.468
Mof_C 	C 	0.5129	0.3867	0.6506	0.504
Mof_O 	O 	0.8715	0.4712	0.61617	-0.415
Mof_O 	O 	0.8434	0.5108	0.66528	-0.445
Mof_H 	H 	0.9591	0.9178	0.8077	0.234
Mof_H 	H 	0.905	0.9583	0.5696	0.062
Mof_H 	H 	0.9401	0.9329	0.5425	0.039
Mof_H 	H 	0.9505	0.8765	0.5949	-0.359
Mof_H 	H 	0.8782	0.851	0.5829	0.059
Mof_C 	C 	0.9439	0.0058	0.5632	-0.165
Mof_H 	H 	0.9032	0.9654	0.5661	0.034
Mof_H 	H 	0.9508	0.017	0.536	0.05
Mof_C 	C 	0.943	0.8857	0.5852	0.246
Mof_H 	H 	0.9364	0.8447	0.5755	0.031
Mof_H 	H 	0.9027	0.8863	0.5809	-0.518
Mof_C 	C 	0.9537	0.8882	0.6246	0.148
Mof_O 	O 	0.8984	0.8542	0.6443	-0.465
Mof_O 	O 	0.0083	0.931	0.641	-0.138
Mof_H 	H 	0.868	0.7217	0.7768	0.164
Mof_H 	H 	0.8532	0.7345	0.8391	-0.005
Mof_H 	H 	0.8408	0.6646	0.8476	-0.019
Mof_H 	H 	0.9479	0.6978	0.8331	0.177
Mof_H 	H 	0.9429	0.7376	0.8674	0.172
Mof_H 	H 	0.7685	0.6587	0.7579	0.002
Mof_H 	H 	0.7538	0.6137	0.7938	-0.019
Mof_H 	H 	0.7521	0.6889	0.8328	0.141
Mof_H 	H 	0.7027	0.6724	0.7992	0.142
Mof_H 	H 	0.8567	0.6057	0.7957	-0.012
Mof_H 	H 	0.9152	0.6633	0.7746	0.008
Mof_H 	H 	0.8573	0.579	0.7336	0.156
Mof_H 	H 	0.7945	0.5824	0.7418	0.148
Mof_H 	H 	0.7201	0.4155	0.5148	0.237
Mof_H 	H 	0.6398	0.3854	0.6292	0.243
Mof_H 	H 	0.6117	0.3745	0.7443	-0.009
Mof_H 	H 	0.6611	0.3898	0.7779	-0.015
Mof_H 	H 	0.7449	0.4612	0.7384	0.149
Mof_H 	H 	0.6932	0.4824	0.7448	0.138
Mof_H 	H 	0.7317	0.4262	0.4001	-0.01
Mof_H 	H 	0.6782	0.3969	0.3682	-0.018
Mof_H 	H 	0.6052	0.401	0.4106	0.149
Mof_H 	H 	0.6638	0.4696	0.4008	0.147
Mof_H 	H 	0.8512	0.6111	0.5465	0.159
Mof_H 	H 	0.8242	0.5958	0.4845	0.004
Mof_H 	H 	0.8858	0.6622	0.4748	-0.011
Mof_H 	H 	0.9061	0.5835	0.4572	0.145
Mof_H 	H 	0.9507	0.6194	0.4926	0.163
Mof_H 	H 	0.8243	0.6836	0.5614	0.012
Mof_H 	H 	0.8586	0.7242	0.5246	-0.006
Mof_H 	H 	0.7764	0.6496	0.4866	0.14
Mof_H 	H 	0.7503	0.6788	0.5174	0.142
Mof_H 	H 	0.9302	0.7225	0.5667	0.017
Mof_H 	H 	0.9649	0.7215	0.5287	0.007
Mof_H 	H 	0.0122	0.6971	0.5765	0.103
Mof_H 	H 	0.9715	0.6332	0.5528	0.146
Mof_H 	H 	0.5604	0.5004	0.6107	0.08
Mof_H 	H 	0.564	0.5004	0.613	0.073
Mof_C 	C 	0.6013	0.5931	0.6176	0.109
Mof_H 	H 	0.6032	0.5976	0.5898	0.027
Mof_H 	H 	0.5869	0.6217	0.6279	0.011
Mof_H 	H 	0.5952	0.6098	0.6562	-0.019
Mof_H 	H 	0.5975	0.6186	0.6117	-0.085
Mof_H 	H 	0.6652	0.6112	0.6603	0.074
Mof_H 	H 	0.6955	0.6589	0.6255	0.08
Mof_H 	H 	0.6882	0.6542	0.6181	0.064
Mof_H 	H 	0.6812	0.6249	0.6589	0.072
Mof_H 	H 	0.4598	0.461	0.6272	-0.07
Mof_H 	H 	0.4752	0.529	0.6428	-0.14
Mof_C 	C 	0.507	0.552	0.6074	-0.508
Mof_H 	H 	0.5367	0.5941	0.5967	0.151
Mof_H 	H 	0.4842	0.5586	0.6282	0.18
Mof_H 	H 	0.4948	0.5703	0.5807	0.138
Mof_H 	H 	0.4243	0.5112	0.5842	0.054
Mof_H 	H 	0.4322	0.4897	0.5974	0.024
Mof_H 	H 	0.4569	0.5532	0.5736	0.005
Mof_H 	H 	0.5606	0.5329	0.6863	0.117
Mof_H 	H 	0.6083	0.5127	0.6683	0.107
Mof_C 	C 	0.519	0.4986	0.6584	0.346
Mof_H 	H 	0.5325	0.5321	0.6779	-0.114
Mof_H 	H 	0.4741	0.4849	0.6521	-0.13
Mof_H 	H 	0.5338	0.4298	0.7022	0.058
Mof_H 	H 	0.4773	0.4329	0.6814	0.114
Mof_H 	H 	0.4852	0.4187	0.6964	0.081
Mof_H 	H 	0.5606	0.4538	0.6913	0.145
Mof_Fe	Fe	0.21491	0.10076	0.68234	0.985
Mof_O 	O 	0.08286	0.04166	0.7795	-0.565
Mof_O 	O 	0.1606	0.0803	0.72385	-0.541
Mof_C 	C 	0.0549	0.9924	0.5688	0.07
Mof_C 	C 	0.1125	0.0288	0.5941	0.578
Mof_C 	C 	0.1025	0.0036	0.6334	0.116
Mof_O 	O 	0.1534	0.0271	0.6542	-0.135
Mof_O 	O 	0.0502	0.9639	0.6451	-0.135
Mof_N 	N 	0.3154	0.1622	0.79095	-0.215
Mof_C 	C 	0.2973	0.1627	0.8317	0.132
Mof_C 	C 	0.2699	0.2061	0.8399	-0.432
Mof_C 	C 	0.209	0.1898	0.8198	0.5
Mof_O 	O 	0.2023	0.1676	0.78676	-0.417
Mof_O 	O 	0.2005	0.1704	0.66299	-0.424
Mof_C 	C 	0.3415	0.1181	0.7852	0.115
Mof_C 	C 	0.3064	0.055	0.8053	-0.385
Mof_C 	C 	0.237	0.0143	0.7968	0.412
Mof_O 	O 	0.2089	0.0405	0.78119	-0.402
Mof_O 	O 	0.2539	0.0439	0.69393	-0.435
Mof_C 	C 	0.3605	0.2287	0.7766	0.129
Mof_C 	C 	0.3916	0.2329	0.7392	-0.421
Mof_C 	C 	0.3476	0.2037	0.7061	0.478
Mof_O 	O 	0.2893	0.167	0.71367	-0.391
Mof_O 	O 	0.3694	0.2139	0.67315	-0.392
Mof_Fe	Fe	0.55071	0.35671	0.57394	1.025
Mof_Fe	Fe	0.52918	0.21854	0.57195	1.03
Mof_Fe	Fe	0.44907	0.24912	0.63854	1.085
Mof_Fe	Fe	0.58869	0.47983	0.51101	1.068
Mof_O 	O 	0.5845	0.3039	0.54297	-0.572
Mof_O 	O 	0.6381	0.3855	0.60102	-0.581
Mof_O 	O 	0.5101	0.2752	0.59994	-0.554
Mof_O 	O 	0.6074	0.4349	0.54671	-0.549
Mof_C 	C 	0.614	0.2701	0.7502	0.126
Mof_C 	C 	0.5499	0.2506	0.7326	-0.409
Mof_C 	C 	0.5454	0.2404	0.6911	0.438
Mof_O 	O 	0.4902	0.2201	0.67616	-0.415
Mof_O 	O 	0.5947	0.2514	0.67318	-0.329
Mof_C 	C 	0.6854	0.3985	0.3958	0.136
Mof_C 	C 	0.6515	0.4293	0.4141	-0.416
Mof_C 	C 	0.6643	0.4433	0.4556	0.465
Mof_O 	O 	0.6423	0.4761	0.46954	-0.424
Mof_O 	O 	0.6961	0.4225	0.4716	-0.335
Mof_N 	N 	0.3531	0.2235	0.5312	-0.211
Mof_C 	C 	0.3751	0.2442	0.4917	0.124
Mof_C 	C 	0.4088	0.3148	0.4847	-0.402
Mof_C 	C 	0.4726	0.352	0.5056	0.473
Mof_O 	O 	0.4769	0.3336	0.53848	-0.413
Mof_O 	O 	0.5143	0.401	0.48919	-0.427
Mof_C 	C 	0.3197	0.1518	0.5343	0.105
Mof_C 	C 	0.3493	0.1178	0.514	-0.388
Mof_C 	C 	0.4159	0.135	0.5262	0.458
Mof_O 	O 	0.4526	0.1908	0.53822	-0.41
Mof_O 	O 	0.6617	0.5696	0.52282	-0.406
Mof_C 	C 	0.3056	0.2418	0.549	0.111
Mof_C 	C 	0.3361	0.3045	0.5698	-0.398
Mof_C 	C 	0.37	0.3039	0.605	0.439
Mof_O 	O 	0.393	0.2662	0.60447	-0.382
Mof_O 	O 	0.3783	0.343	0.6301	-0.301
Mof_N 	N 	0.4745	0.028	0.6278	-0.265
Mof_C 	C 	0.4051	0.0093	0.6322	0.063
Mof_C 	C 	0.3863	0.0535	0.6324	-0.393
Mof_C 	C 	0.4235	0.1208	0.6186	0.446
Mof_O 	O 	0.4786	0.14	0.60506	-0.398
Mof_O 	O 	0.3983	0.1557	0.62104	-0.389
Mof_C 	C 	0.4926	0.979	0.6231	0.507
Mof_C 	C 	0.4764	0.9462	0.5842	-0.05
Mof_C 	C 	0.5084	0.9906	0.5502	0.386
Mof_O 	O 	0.533	0.4894	0.55149	-0.365
Mof_O 	O 	0.5568	0.5287	0.47685	-0.364
Mof_C 	C 	0.4948	0.059	0.6671	-0.547
Mof_C 	C 	0.5621	0.082	0.6776	-0.395
Mof_C 	C 	0.6133	0.1262	0.6506	0.479
Mof_O 	O 	0.5288	0.4003	0.61617	-0.411
Mof_O 	O 	0.4892	0.3326	0.66528	-0.438
Mof_H 	H 	0.0822	0.0413	0.8077	0.224
Mof_H 	H 	0.0417	0.9467	0.5696	0.041
Mof_H 	H 	0.0671	0.0072	0.5425	-0.01
Mof_H 	H 	0.1235	0.074	0.5949	-0.307
Mof_H 	H 	0.149	0.0272	0.5829	0.06
Mof_C 	C 	0.9942	0.9381	0.5632	-0.133
Mof_H 	H 	0.0346	0.9378	0.5661	0.012
Mof_H 	H 	0.983	0.9338	0.536	0.068
Mof_C 	C 	0.1143	0.0573	0.5852	0.255
Mof_H 	H 	0.1553	0.0917	0.5755	0.012
Mof_H 	H 	0.1137	0.0164	0.5809	-0.484
Mof_C 	C 	0.1118	0.0655	0.6246	0.024
Mof_O 	O 	0.1458	0.0442	0.6443	-0.239
Mof_O 	O 	0.069	0.0773	0.641	-0.035
Mof_H 	H 	0.2783	0.1463	0.7768	0.162
Mof_H 	H 	0.2655	0.1187	0.8391	-0.005
Mof_H 	H 	0.3354	0.1762	0.8476	-0.018
Mof_H 	H 	0.3022	0.2501	0.8331	0.164
Mof_H 	H 	0.2624	0.2053	0.8674	0.158
Mof_H 	H 	0.3413	0.1098	0.7579	0.003
Mof_H 	H 	0.3863	0.1401	0.7938	-0.016
Mof_H 	H 	0.3111	0.0632	0.8328	0.129
Mof_H 	H 	0.3276	0.0303	0.7992	0.126
Mof_H 	H 	0.3943	0.251	0.7957	-0.015
Mof_H 	H 	0.3367	0.2519	0.7746	0.003
Mof_H 	H 	0.421	0.2783	0.7336	0.154
Mof_H 	H 	0.4176	0.2121	0.7418	0.148
Mof_H 	H 	0.5845	0.3046	0.5148	0.237
Mof_H 	H 	0.6146	0.2544	0.6292	0.243
Mof_H 	H 	0.6255	0.2372	0.7443	-0.009
Mof_H 	H 	0.6102	0.2713	0.7779	-0.016
Mof_H 	H 	0.5388	0.2837	0.7384	0.148
Mof_H 	H 	0.5176	0.2108	0.7448	0.135
Mof_H 	H 	0.5738	0.3055	0.4001	-0.01
Mof_H 	H 	0.6031	0.2813	0.3682	-0.018
Mof_H 	H 	0.599	0.2042	0.4106	0.147
Mof_H 	H 	0.5304	0.1942	0.4008	0.144
Mof_H 	H 	0.3889	0.2401	0.5465	0.16
Mof_H 	H 	0.4042	0.2284	0.4845	0.003
Mof_H 	H 	0.3378	0.2236	0.4748	-0.015
Mof_H 	H 	0.4165	0.3226	0.4572	0.142
Mof_H 	H 	0.3806	0.3313	0.4926	0.154
Mof_H 	H 	0.3164	0.1407	0.5614	0.011
Mof_H 	H 	0.2758	0.1344	0.5246	-0.01
Mof_H 	H 	0.3504	0.1268	0.4866	0.136
Mof_H 	H 	0.3212	0.0715	0.5174	0.134
Mof_H 	H 	0.2775	0.2077	0.5667	0.003
Mof_H 	H 	0.2785	0.2434	0.5287	-0.012
Mof_H 	H 	0.3029	0.3151	0.5765	0.142
Mof_H 	H 	0.3668	0.3383	0.5528	0.159
Mof_H 	H 	0.4996	0.06	0.6107	0.086
Mof_H 	H 	0.4996	0.0636	0.613	0.071
Mof_C 	C 	0.4069	0.0082	0.6176	0.073
Mof_H 	H 	0.4024	0.0056	0.5898	0.011
Mof_H 	H 	0.3783	0.9652	0.6279	0.002
Mof_H 	H 	0.3902	0.9854	0.6562	0.016
Mof_H 	H 	0.3814	0.9789	0.6117	-0.027
Mof_H 	H 	0.3888	0.054	0.6603	0.068
Mof_H 	H 	0.3411	0.0366	0.6255	0.069
Mof_H 	H 	0.3458	0.034	0.6181	0.056
Mof_H 	H 	0.3751	0.0563	0.6589	0.058
Mof_H 	H 	0.539	0.9988	0.6272	-0.068
Mof_H 	H 	0.471	0.9462	0.6428	-0.153
Mof_C 	C 	0.448	0.955	0.6074	-0.652
Mof_H 	H 	0.4059	0.9426	0.5967	0.198
Mof_H 	H 	0.4414	0.9256	0.6282	0.226
Mof_H 	H 	0.4297	0.9245	0.5807	0.134
Mof_H 	H 	0.4888	0.9131	0.5842	0.042
Mof_H 	H 	0.5103	0.9425	0.5974	-0.004
Mof_H 	H 	0.4468	0.9037	0.5736	-0.021
Mof_H 	H 	0.4671	0.0277	0.6863	0.243
Mof_H 	H 	0.4873	0.0956	0.6683	0.199
Mof_C 	C 	0.5014	0.0204	0.6584	0.606
Mof_H 	H 	0.4679	0.0004	0.6779	-0.235
Mof_H 	H 	0.5151	0.9892	0.6521	-0.206
Mof_H 	H 	0.5702	0.104	0.7022	0.027
Mof_H 	H 	0.5671	0.0444	0.6814	0.072
Mof_H 	H 	0.5813	0.0665	0.6964	0.084
Mof_H 	H 	0.5462	0.1068	0.6913	0.159
Mof_Fe	Fe	0.89924	0.11415	0.68234	0.987
Mof_O 	O 	0.95834	0.0412	0.7795	-0.542
Mof_O 	O 	0.9197	0.0803	0.72385	-0.53
Mof_C 	C 	0.0076	0.0625	0.5688	-0.094
Mof_C 	C 	0.9712	0.0837	0.5941	0.656
Mof_C 	C 	0.9964	0.0989	0.6334	0.256
Mof_O 	O 	0.9729	0.1263	0.6542	0.024
Mof_O 	O 	0.0361	0.0863	0.6451	-0.276
Mof_N 	N 	0.8378	0.1532	0.79095	-0.217
Mof_C 	C 	0.8373	0.1346	0.8317	0.116
Mof_C 	C 	0.7939	0.0638	0.8399	-0.402
Mof_C 	C 	0.8102	0.0192	0.8198	0.457
Mof_O 	O 	0.8324	0.0347	0.78676	-0.407
Mof_O 	O 	0.8296	0.0301	0.66299	-0.447
Mof_C 	C 	0.8819	0.2234	0.7852	0.138
Mof_C 	C 	0.945	0.2514	0.8053	-0.436
Mof_C 	C 	0.9857	0.2227	0.7968	0.501
Mof_O 	O 	0.9595	0.1684	0.78119	-0.401
Mof_O 	O 	0.9561	0.21	0.69393	-0.382
Mof_C 	C 	0.7713	0.1318	0.7766	0.133
Mof_C 	C 	0.7671	0.1587	0.7392	-0.425
Mof_C 	C 	0.7963	0.1439	0.7061	0.478
Mof_O 	O 	0.833	0.1223	0.71367	-0.394
Mof_O 	O 	0.7861	0.1555	0.67315	-0.393
Mof_Fe	Fe	0.64329	0.194	0.57394	1.023
Mof_Fe	Fe	0.78146	0.31064	0.57195	1.032
Mof_Fe	Fe	0.75088	0.19995	0.63854	1.086
Mof_Fe	Fe	0.52017	0.10886	0.51101	1.067
Mof_O 	O 	0.6961	0.2806	0.54297	-0.572
Mof_O 	O 	0.6145	0.2526	0.60102	-0.581
Mof_O 	O 	0.7248	0.2349	0.59994	-0.554
Mof_O 	O 	0.5651	0.1725	0.54671	-0.548
Mof_C 	C 	0.7299	0.3439	0.7502	0.126
Mof_C 	C 	0.7494	0.2993	0.7326	-0.411
Mof_C 	C 	0.7596	0.305	0.6911	0.442
Mof_O 	O 	0.7799	0.2701	0.67616	-0.412
Mof_O 	O 	0.7486	0.3433	0.67318	-0.329
Mof_C 	C 	0.6015	0.2869	0.3958	0.136
Mof_C 	C 	0.5707	0.2222	0.4141	-0.415
Mof_C 	C 	0.5567	0.221	0.4556	0.464
Mof_O 	O 	0.5239	0.1662	0.46954	-0.425
Mof_O 	O 	0.5775	0.2736	0.4716	-0.334
Mof_N 	N 	0.7765	0.1296	0.5312	-0.215
Mof_C 	C 	0.7558	0.1309	0.4917	0.123
Mof_C 	C 	0.6852	0.094	0.4847	-0.398
Mof_C 	C 	0.648	0.1206	0.5056	0.469
Mof_O 	O 	0.6664	0.1433	0.53848	-0.413
Mof_O 	O 	0.599	0.1133	0.48919	-0.428
Mof_C 	C 	0.8482	0.1679	0.5343	0.108
Mof_C 	C 	0.8822	0.2315	0.514	-0.395
Mof_C 	C 	0.865	0.2809	0.5262	0.461
Mof_O 	O 	0.8092	0.2618	0.53822	-0.411
Mof_O 	O 	0.4304	0.0921	0.52282	-0.409
Mof_C 	C 	0.7582	0.0638	0.549	0.143
Mof_C 	C 	0.6955	0.0316	0.5698	-0.468
Mof_C 	C 	0.6961	0.0661	0.605	0.457
Mof_O 	O 	0.7338	0.1268	0.60447	-0.387
Mof_O 	O 	0.657	0.0353	0.6301	-0.319
Mof_N 	N 	0.972	0.4465	0.6278	-0.232
Mof_C 	C 	0.9907	0.3958	0.6322	0.145
Mof_C 	C 	0.9465	0.3328	0.6324	-0.477
Mof_C 	C 	0.8792	0.3027	0.6186	0.478
Mof_O 	O 	0.86	0.3386	0.60506	-0.408
Mof_O 	O 	0.8443	0.2426	0.62104	-0.396
Mof_C 	C 	0.021	0.5136	0.6231	0.372
Mof_C 	C 	0.0538	0.5302	0.5842	-0.28
Mof_C 	C 	0.0094	0.5178	0.5502	0.388
Mof_O 	O 	0.5106	0.0436	0.55149	-0.381
Mof_O 	O 	0.4713	0.0281	0.47685	-0.375
Mof_C 	C 	0.941	0.4358	0.6671	0.067
Mof_C 	C 	0.918	0.4801	0.6776	-0.542
Mof_C 	C 	0.8738	0.4871	0.6506	0.53
Mof_O 	O 	0.5997	0.1285	0.61617	-0.407
Mof_O 	O 	0.6674	0.1566	0.66528	-0.432
Mof_H 	H 	0.9587	0.0409	0.8077	0.228
Mof_H 	H 	0.0533	0.095	0.5696	0.049
Mof_H 	H 	0.9928	0.0599	0.5425	0.077
Mof_H 	H 	0.926	0.0495	0.5949	-0.332
Mof_H 	H 	0.9728	0.1218	0.5829	0.053
Mof_C 	C 	0.0619	0.0561	0.5632	-0.2
Mof_H 	H 	0.0622	0.0968	0.5661	0.055
Mof_H 	H 	0.0662	0.0492	0.536	0.069
Mof_C 	C 	0.9427	0.057	0.5852	0.249
Mof_H 	H 	0.9083	0.0636	0.5755	0.018
Mof_H 	H 	0.9836	0.0973	0.5809	-0.492
Mof_C 	C 	0.9345	0.0463	0.6246	0.039
Mof_O 	O 	0.9558	0.1016	0.6443	-0.44
Mof_O 	O 	0.9227	0.9917	0.641	-0.026
Mof_H 	H 	0.8537	0.132	0.7768	0.163
Mof_H 	H 	0.8813	0.1468	0.8391	0.006
Mof_H 	H 	0.8238	0.1592	0.8476	-0.012
Mof_H 	H 	0.7499	0.0521	0.8331	0.15
Mof_H 	H 	0.7947	0.0571	0.8674	0.146
Mof_H 	H 	0.8902	0.2315	0.7579	0.001
Mof_H 	H 	0.8599	0.2462	0.7938	-0.021
Mof_H 	H 	0.9368	0.2479	0.8328	0.154
Mof_H 	H 	0.9697	0.2973	0.7992	0.157
Mof_H 	H 	0.749	0.1433	0.7957	-0.018
Mof_H 	H 	0.7481	0.0848	0.7746	-0.002
Mof_H 	H 	0.7217	0.1427	0.7336	0.153
Mof_H 	H 	0.7879	0.2055	0.7418	0.15
Mof_H 	H 	0.6954	0.2799	0.5148	0.238
Mof_H 	H 	0.7456	0.3602	0.6292	0.243
Mof_H 	H 	0.7628	0.3883	0.7443	-0.008
Mof_H 	H 	0.7287	0.3389	0.7779	-0.015
Mof_H 	H 	0.7163	0.2551	0.7384	0.148
Mof_H 	H 	0.7892	0.3068	0.7448	0.139
Mof_H 	H 	0.6945	0.2683	0.4001	-0.01
Mof_H 	H 	0.7187	0.3218	0.3682	-0.018
Mof_H 	H 	0.7958	0.3948	0.4106	0.15
Mof_H 	H 	0.8058	0.3362	0.4008	0.149
Mof_H 	H 	0.7599	0.1488	0.5465	0.162
Mof_H 	H 	0.7716	0.1758	0.4845	0.004
Mof_H 	H 	0.7764	0.1142	0.4748	-0.016
Mof_H 	H 	0.6774	0.0939	0.4572	0.139
Mof_H 	H 	0.6687	0.0493	0.4926	0.146
Mof_H 	H 	0.8593	0.1757	0.5614	0.013
Mof_H 	H 	0.8656	0.1414	0.5246	-0.008
Mof_H 	H 	0.8732	0.2236	0.4866	0.142
Mof_H 	H 	0.9285	0.2497	0.5174	0.149
Mof_H 	H 	0.7923	0.0698	0.5667	-0.009
Mof_H 	H 	0.7566	0.0351	0.5287	-0.028
Mof_H 	H 	0.6849	0.9878	0.5765	0.182
Mof_H 	H 	0.6617	0.0285	0.5528	0.171
Mof_H 	H 	0.94	0.4396	0.6107	0.075
Mof_H 	H 	0.9364	0.436	0.613	0.074
Mof_C 	C 	0.9918	0.3987	0.6176	0.146
Mof_H 	H 	0.9944	0.3968	0.5898	0.043
Mof_H 	H 	0.0348	0.4131	0.6279	0.021
Mof_H 	H 	0.0146	0.4048	0.6562	-0.054
Mof_H 	H 	0.0211	0.4025	0.6117	-0.144
Mof_H 	H 	0.946	0.3348	0.6603	0.08
Mof_H 	H 	0.9634	0.3045	0.6255	0.09
Mof_H 	H 	0.966	0.3118	0.6181	0.072
Mof_H 	H 	0.9437	0.3188	0.6589	0.086
Mof_H 	H 	0.0012	0.5402	0.6272	-0.072
Mof_H 	H 	0.0538	0.5248	0.6428	-0.127
Mof_C 	C 	0.045	0.493	0.6074	-0.363
Mof_H 	H 	0.0574	0.4633	0.5967	0.103
Mof_H 	H 	0.0744	0.5158	0.6282	0.135
Mof_H 	H 	0.0755	0.5052	0.5807	0.141
Mof_H 	H 	0.0869	0.5757	0.5842	0.066
Mof_H 	H 	0.0575	0.5678	0.5974	0.052
Mof_H 	H 	0.0963	0.5431	0.5736	0.031
Mof_H 	H 	0.9723	0.4394	0.6863	-0.01
Mof_H 	H 	0.9044	0.3917	0.6683	0.014
Mof_C 	C 	0.9796	0.481	0.6584	0.085
Mof_H 	H 	0.9996	0.4675	0.6779	0.008
Mof_H 	H 	0.0108	0.5259	0.6521	-0.054
Mof_H 	H 	0.896	0.4662	0.7022	0.09
Mof_H 	H 	0.9556	0.5227	0.6814	0.156
Mof_H 	H 	0.9335	0.5148	0.6964	0.078
Mof_H 	H 	0.8932	0.4394	0.6913	0.131
Mof_Fe	Fe	0.78509	0.88585	0.81766	0.981
Mof_O 	O 	0.91714	0.9588	0.7205	-0.537
Mof_O 	O 	0.8394	0.9197	0.77615	-0.53
Mof_C 	C 	0.9451	0.9375	0.9312	-0.007
Mof_C 	C 	0.8875	0.9163	0.9059	0.663
Mof_C 	C 	0.8975	0.9011	0.8666	0.189
Mof_O 	O 	0.8466	0.8737	0.8458	0.049
Mof_O 	O 	0.9498	0.9137	0.8549	-0.224
Mof_N 	N 	0.6846	0.8468	0.70905	-0.218
Mof_C 	C 	0.7027	0.8654	0.6683	0.141
Mof_C 	C 	0.7301	0.9362	0.6601	-0.454
Mof_C 	C 	0.791	0.9808	0.6802	0.537
Mof_O 	O 	0.7977	0.9653	0.71324	-0.411
Mof_O 	O 	0.7995	0.9699	0.83701	-0.387
Mof_C 	C 	0.6585	0.7766	0.7148	0.128
Mof_C 	C 	0.6936	0.7486	0.6947	-0.411
Mof_C 	C 	0.763	0.7773	0.7032	0.457
Mof_O 	O 	0.7911	0.8316	0.71881	-0.411
Mof_O 	O 	0.7461	0.79	0.80607	-0.413
Mof_C 	C 	0.6395	0.8682	0.7234	0.127
Mof_C 	C 	0.6084	0.8413	0.7608	-0.42
Mof_C 	C 	0.6524	0.8561	0.7939	0.479
Mof_O 	O 	0.7107	0.8777	0.78633	-0.387
Mof_O 	O 	0.6306	0.8445	0.82685	-0.39
Mof_Fe	Fe	0.44929	0.806	0.92606	1.027
Mof_Fe	Fe	0.47082	0.68936	0.92805	1.031
Mof_Fe	Fe	0.55093	0.80005	0.86146	1.086
Mof_Fe	Fe	0.41131	0.89114	0.98899	1.07
Mof_O 	O 	0.4155	0.7194	0.95703	-0.573
Mof_O 	O 	0.3619	0.7474	0.89898	-0.581
Mof_O 	O 	0.4899	0.7651	0.90006	-0.555
Mof_O 	O 	0.3926	0.8275	0.95329	-0.549
Mof_C 	C 	0.386	0.6561	0.7498	0.126
Mof_C 	C 	0.4501	0.7007	0.7674	-0.411
Mof_C 	C 	0.4546	0.695	0.8089	0.44
Mof_O 	O 	0.5098	0.7299	0.82384	-0.413
Mof_O 	O 	0.4053	0.6567	0.82682	-0.329
Mof_C 	C 	0.3146	0.7131	0.1042	0.137
Mof_C 	C 	0.3485	0.7778	0.0859	-0.418
Mof_C 	C 	0.3357	0.779	0.0444	0.466
Mof_O 	O 	0.3577	0.8338	0.03046	-0.423
Mof_O 	O 	0.3039	0.7264	0.0284	-0.335
Mof_N 	N 	0.6469	0.8704	0.9688	-0.207
Mof_C 	C 	0.6249	0.8691	0.0083	0.124
Mof_C 	C 	0.5912	0.906	0.0153	-0.405
Mof_C 	C 	0.5274	0.8794	0.9944	0.475
Mof_O 	O 	0.5231	0.8567	0.96152	-0.412
Mof_O 	O 	0.4857	0.8867	0.01081	-0.425
Mof_C 	C 	0.6803	0.8321	0.9657	0.105
Mof_C 	C 	0.6507	0.7685	0.986	-0.391
Mof_C 	C 	0.5841	0.7191	0.9738	0.459
Mof_O 	O 	0.5474	0.7382	0.96178	-0.41
Mof_O 	O 	0.3383	0.9079	0.97718	-0.403
Mof_C 	C 	0.6944	0.9362	0.951	0.078
Mof_C 	C 	0.6639	0.9684	0.9302	-0.328
Mof_C 	C 	0.63	0.9339	0.895	0.42
Mof_O 	O 	0.607	0.8732	0.89553	-0.376
Mof_O 	O 	0.6217	0.9647	0.8699	-0.284
Mof_N 	N 	0.5255	0.5535	0.8722	-0.248
Mof_C 	C 	0.5949	0.6042	0.8678	0.104
Mof_C 	C 	0.6137	0.6672	0.8676	-0.434
Mof_C 	C 	0.5765	0.6973	0.8814	0.462
Mof_O 	O 	0.5214	0.6614	0.89494	-0.403
Mof_O 	O 	0.6017	0.7574	0.87896	-0.393
Mof_C 	C 	0.5074	0.4864	0.8769	0.44
Mof_C 	C 	0.5236	0.4698	0.9158	-0.165
Mof_C 	C 	0.4916	0.4822	0.9498	0.387
Mof_O 	O 	0.467	0.9564	0.94851	-0.35
Mof_O 	O 	0.4432	0.9719	0.02315	-0.352
Mof_C 	C 	0.5052	0.5642	0.8329	-0.241
Mof_C 	C 	0.4379	0.5199	0.8224	-0.468
Mof_C 	C 	0.3867	0.5129	0.8494	0.504
Mof_O 	O 	0.4712	0.8715	0.88383	-0.414
Mof_O 	O 	0.5108	0.8434	0.83472	-0.445
Mof_H 	H 	0.9178	0.9591	0.6923	0.234
Mof_H 	H 	0.9583	0.905	0.9304	0.062
Mof_H 	H 	0.9329	0.9401	0.9575	0.039
Mof_H 	H 	0.8765	0.9505	0.9051	-0.359
Mof_H 	H 	0.851	0.8782	0.9171	0.059
Mof_C 	C 	0.0058	0.9439	0.9368	-0.167
Mof_H 	H 	0.9654	0.9032	0.9339	0.034
Mof_H 	H 	0.017	0.9508	0.964	0.051
Mof_C 	C 	0.8857	0.943	0.9148	0.246
Mof_H 	H 	0.8447	0.9364	0.9245	0.031
Mof_H 	H 	0.8863	0.9027	0.9191	-0.518
Mof_C 	C 	0.8882	0.9537	0.8754	0.147
Mof_O 	O 	0.8542	0.8984	0.8557	-0.465
Mof_O 	O 	0.931	0.0083	0.859	-0.137
Mof_H 	H 	0.7217	0.868	0.7232	0.164
Mof_H 	H 	0.7345	0.8532	0.6609	-0.005
Mof_H 	H 	0.6646	0.8408	0.6524	-0.019
Mof_H 	H 	0.6978	0.9479	0.6669	0.177
Mof_H 	H 	0.7376	0.9429	0.6326	0.171
Mof_H 	H 	0.6587	0.7685	0.7421	0.002
Mof_H 	H 	0.6137	0.7538	0.7062	-0.019
Mof_H 	H 	0.6889	0.7521	0.6672	0.141
Mof_H 	H 	0.6724	0.7027	0.7008	0.142
Mof_H 	H 	0.6057	0.8567	0.7043	-0.012
Mof_H 	H 	0.6633	0.9152	0.7254	0.008
Mof_H 	H 	0.579	0.8573	0.7664	0.156
Mof_H 	H 	0.5824	0.7945	0.7582	0.148
Mof_H 	H 	0.4155	0.7201	0.9852	0.237
Mof_H 	H 	0.3854	0.6398	0.8708	0.243
Mof_H 	H 	0.3745	0.6117	0.7557	-0.009
Mof_H 	H 	0.3898	0.6611	0.7221	-0.015
Mof_H 	H 	0.4612	0.7449	0.7616	0.149
Mof_H 	H 	0.4824	0.6932	0.7552	0.138
Mof_H 	H 	0.4262	0.7317	0.0999	-0.01
Mof_H 	H 	0.3969	0.6782	0.1318	-0.018
Mof_H 	H 	0.401	0.6052	0.0894	0.149
Mof_H 	H 	0.4696	0.6638	0.0992	0.147
Mof_H 	H 	0.6111	0.8512	0.9535	0.159
Mof_H 	H 	0.5958	0.8242	0.0155	0.004
Mof_H 	H 	0.6622	0.8858	0.0252	-0.011
Mof_H 	H 	0.5835	0.9061	0.0428	0.145
Mof_H 	H 	0.6194	0.9507	0.0074	0.163
Mof_H 	H 	0.6836	0.8243	0.9386	0.012
Mof_H 	H 	0.7242	0.8586	0.9754	-0.006
Mof_H 	H 	0.6496	0.7764	0.0134	0.14
Mof_H 	H 	0.6788	0.7503	0.9826	0.142
Mof_H 	H 	0.7225	0.9302	0.9333	0.017
Mof_H 	H 	0.7215	0.9649	0.9713	0.007
Mof_H 	H 	0.6971	0.0122	0.9235	0.104
Mof_H 	H 	0.6332	0.9715	0.9472	0.147
Mof_H 	H 	0.5004	0.5604	0.8893	0.08
Mof_H 	H 	0.5004	0.564	0.887	0.073
Mof_C 	C 	0.5931	0.6013	0.8824	0.109
Mof_H 	H 	0.5976	0.6032	0.9102	0.027
Mof_H 	H 	0.6217	0.5869	0.8721	0.011
Mof_H 	H 	0.6098	0.5952	0.8438	-0.019
Mof_H 	H 	0.6186	0.5975	0.8883	-0.085
Mof_H 	H 	0.6112	0.6652	0.8397	0.074
Mof_H 	H 	0.6589	0.6955	0.8745	0.08
Mof_H 	H 	0.6542	0.6882	0.8819	0.064
Mof_H 	H 	0.6249	0.6812	0.8411	0.072
Mof_H 	H 	0.461	0.4598	0.8728	-0.07
Mof_H 	H 	0.529	0.4752	0.8572	-0.14
Mof_C 	C 	0.552	0.507	0.8926	-0.508
Mof_H 	H 	0.5941	0.5367	0.9033	0.151
Mof_H 	H 	0.5586	0.4842	0.8718	0.18
Mof_H 	H 	0.5703	0.4948	0.9193	0.138
Mof_H 	H 	0.5112	0.4243	0.9158	0.054
Mof_H 	H 	0.4897	0.4322	0.9026	0.024
Mof_H 	H 	0.5532	0.4569	0.9264	0.005
Mof_H 	H 	0.5329	0.5606	0.8137	0.117
Mof_H 	H 	0.5127	0.6083	0.8317	0.107
Mof_C 	C 	0.4986	0.519	0.8416	0.346
Mof_H 	H 	0.5321	0.5325	0.8221	-0.114
Mof_H 	H 	0.4849	0.4741	0.8479	-0.13
Mof_H 	H 	0.4298	0.5338	0.7978	0.058
Mof_H 	H 	0.4329	0.4773	0.8186	0.114
Mof_H 	H 	0.4187	0.4852	0.8036	0.081
Mof_H 	H 	0.4538	0.5606	0.8087	0.145
Mof_Fe	Fe	0.10076	0.21491	0.81766	0.985
Mof_O 	O 	0.04166	0.08286	0.7205	-0.565
Mof_O 	O 	0.0803	0.1606	0.77615	-0.541
Mof_C 	C 	0.9924	0.0549	0.9312	0.071
Mof_C 	C 	0.0288	0.1125	0.9059	0.578
Mof_C 	C 	0.0036	0.1025	0.8666	0.115
Mof_O 	O 	0.0271	0.1534	0.8458	-0.136
Mof_O 	O 	0.9639	0.0502	0.8549	-0.134
Mof_N 	N 	0.1622	0.3154	0.70905	-0.215
Mof_C 	C 	0.1627	0.2973	0.6683	0.132
Mof_C 	C 	0.2061	0.2699	0.6601	-0.432
Mof_C 	C 	0.1898	0.209	0.6802	0.5
Mof_O 	O 	0.1676	0.2023	0.71324	-0.417
Mof_O 	O 	0.1704	0.2005	0.83701	-0.424
Mof_C 	C 	0.1181	0.3415	0.7148	0.115
Mof_C 	C 	0.055	0.3064	0.6947	-0.384
Mof_C 	C 	0.0143	0.237	0.7032	0.412
Mof_O 	O 	0.0405	0.2089	0.71881	-0.402
Mof_O 	O 	0.0439	0.2539	0.80607	-0.435
Mof_C 	C 	0.2287	0.3605	0.7234	0.129
Mof_C 	C 	0.2329	0.3916	0.7608	-0.421
Mof_C 	C 	0.2037	0.3476	0.7939	0.478
Mof_O 	O 	0.167	0.2893	0.78633	-0.391
Mof_O 	O 	0.2139	0.3694	0.82685	-0.392
Mof_Fe	Fe	0.35671	0.55071	0.92606	1.025
Mof_Fe	Fe	0.21854	0.52918	0.92805	1.03
Mof_Fe	Fe	0.24912	0.44907	0.86146	1.085
Mof_Fe	Fe	0.47983	0.58869	0.98899	1.068
Mof_O 	O 	0.3039	0.5845	0.95703	-0.572
Mof_O 	O 	0.3855	0.6381	0.89898	-0.581
Mof_O 	O 	0.2752	0.5101	0.90006	-0.554
Mof_O 	O 	0.4349	0.6074	0.95329	-0.549
Mof_C 	C 	0.2701	0.614	0.7498	0.126
Mof_C 	C 	0.2506	0.5499	0.7674	-0.409
Mof_C 	C 	0.2404	0.5454	0.8089	0.438
Mof_O 	O 	0.2201	0.4902	0.82384	-0.415
Mof_O 	O 	0.2514	0.5947	0.82682	-0.329
Mof_C 	C 	0.3985	0.6854	0.1042	0.136
Mof_C 	C 	0.4293	0.6515	0.0859	-0.416
Mof_C 	C 	0.4433	0.6643	0.0444	0.465
Mof_O 	O 	0.4761	0.6423	0.03046	-0.424
Mof_O 	O 	0.4225	0.6961	0.0284	-0.334
Mof_N 	N 	0.2235	0.3531	0.9688	-0.211
Mof_C 	C 	0.2442	0.3751	0.0083	0.124
Mof_C 	C 	0.3148	0.4088	0.0153	-0.402
Mof_C 	C 	0.352	0.4726	0.9944	0.473
Mof_O 	O 	0.3336	0.4769	0.96152	-0.413
Mof_O 	O 	0.401	0.5143	0.01081	-0.427
Mof_C 	C 	0.1518	0.3197	0.9657	0.105
Mof_C 	C 	0.1178	0.3493	0.986	-0.388
Mof_C 	C 	0.135	0.4159	0.9738	0.458
Mof_O 	O 	0.1908	0.4526	0.96178	-0.41
Mof_O 	O 	0.5696	0.6617	0.97718	-0.406
Mof_C 	C 	0.2418	0.3056	0.951	0.111
Mof_C 	C 	0.3045	0.3361	0.9302	-0.398
Mof_C 	C 	0.3039	0.37	0.895	0.439
Mof_O 	O 	0.2662	0.393	0.89553	-0.382
Mof_O 	O 	0.343	0.3783	0.8699	-0.301
Mof_N 	N 	0.028	0.4745	0.8722	-0.265
Mof_C 	C 	0.0093	0.4051	0.8678	0.063
Mof_C 	C 	0.0535	0.3863	0.8676	-0.392
Mof_C 	C 	0.1208	0.4235	0.8814	0.446
Mof_O 	O 	0.14	0.4786	0.89494	-0.398
Mof_O 	O 	0.1557	0.3983	0.87896	-0.388
Mof_C 	C 	0.979	0.4926	0.8769	0.507
Mof_C 	C 	0.9462	0.4764	0.9158	-0.049
Mof_C 	C 	0.9906	0.5084	0.9498	0.386
Mof_O 	O 	0.4894	0.533	0.94851	-0.365
Mof_O 	O 	0.5287	0.5568	0.02315	-0.364
Mof_C 	C 	0.059	0.4948	0.8329	-0.551
Mof_C 	C 	0.082	0.5621	0.8224	-0.394
Mof_C 	C 	0.1262	0.6133	0.8494	0.478
Mof_O 	O 	0.4003	0.5288	0.88383	-0.411
Mof_O 	O 	0.3326	0.4892	0.83472	-0.438
Mof_H 	H 	0.0413	0.0822	0.6923	0.224
Mof_H 	H 	0.9467	0.0417	0.9304	0.042
Mof_H 	H 	0.0072	0.0671	0.9575	-0.011
Mof_H 	H 	0.074	0.1235	0.9051	-0.307
Mof_H 	H 	0.0272	0.149	0.9171	0.06
Mof_C 	C 	0.9381	0.9942	0.9368	-0.134
Mof_H 	H 	0.9378	0.0346	0.9339	0.011
Mof_H 	H 	0.9338	0.983	0.964	0.068
Mof_C 	C 	0.0573	0.1143	0.9148	0.254
Mof_H 	H 	0.0917	0.1553	0.9245	0.012
Mof_H 	H 	0.0164	0.1137	0.9191	-0.485
Mof_C 	C 	0.0655	0.1118	0.8754	0.024
Mof_O 	O 	0.0442	0.1458	0.8557	-0.239
Mof_O 	O 	0.0773	0.069	0.859	-0.035
Mof_H 	H 	0.1463	0.2783	0.7232	0.162
Mof_H 	H 	0.1187	0.2655	0.6609	-0.005
Mof_H 	H 	0.1762	0.3354	0.6524	-0.018
Mof_H 	H 	0.2501	0.3022	0.6669	0.164
Mof_H 	H 	0.2053	0.2624	0.6326	0.158
Mof_H 	H 	0.1098	0.3413	0.7421	0.003
Mof_H 	H 	0.1401	0.3863	0.7062	-0.016
Mof_H 	H 	0.0632	0.3111	0.6672	0.129
Mof_H 	H 	0.0303	0.3276	0.7008	0.126
Mof_H 	H 	0.251	0.3943	0.7043	-0.015
Mof_H 	H 	0.2519	0.3367	0.7254	0.003
Mof_H 	H 	0.2783	0.421	0.7664	0.154
Mof_H 	H 	0.2121	0.4176	0.7582	0.148
Mof_H 	H 	0.3046	0.5845	0.9852	0.237
Mof_H 	H 	0.2544	0.6146	0.8708	0.243
Mof_H 	H 	0.2372	0.6255	0.7557	-0.009
Mof_H 	H 	0.2713	0.6102	0.7221	-0.016
Mof_H 	H 	0.2837	0.5388	0.7616	0.148
Mof_H 	H 	0.2108	0.5176	0.7552	0.135
Mof_H 	H 	0.3055	0.5738	0.0999	-0.01
Mof_H 	H 	0.2813	0.6031	0.1318	-0.018
Mof_H 	H 	0.2042	0.599	0.0894	0.147
Mof_H 	H 	0.1942	0.5304	0.0992	0.144
Mof_H 	H 	0.2401	0.3889	0.9535	0.16
Mof_H 	H 	0.2284	0.4042	0.0155	0.003
Mof_H 	H 	0.2236	0.3378	0.0252	-0.015
Mof_H 	H 	0.3226	0.4165	0.0428	0.142
Mof_H 	H 	0.3313	0.3806	0.0074	0.154
Mof_H 	H 	0.1407	0.3164	0.9386	0.011
Mof_H 	H 	0.1344	0.2758	0.9754	-0.01
Mof_H 	H 	0.1268	0.3504	0.0134	0.136
Mof_H 	H 	0.0715	0.3212	0.9826	0.135
Mof_H 	H 	0.2077	0.2775	0.9333	0.003
Mof_H 	H 	0.2434	0.2785	0.9713	-0.012
Mof_H 	H 	0.3151	0.3029	0.9235	0.142
Mof_H 	H 	0.3383	0.3668	0.9472	0.159
Mof_H 	H 	0.06	0.4996	0.8893	0.086
Mof_H 	H 	0.0636	0.4996	0.887	0.071
Mof_C 	C 	0.0082	0.4069	0.8824	0.072
Mof_H 	H 	0.0056	0.4024	0.9102	0.011
Mof_H 	H 	0.9652	0.3783	0.8721	0.002
Mof_H 	H 	0.9854	0.3902	0.8438	0.017
Mof_H 	H 	0.9789	0.3814	0.8883	-0.026
Mof_H 	H 	0.054	0.3888	0.8397	0.068
Mof_H 	H 	0.0366	0.3411	0.8745	0.069
Mof_H 	H 	0.034	0.3458	0.8819	0.056
Mof_H 	H 	0.0563	0.3751	0.8411	0.058
Mof_H 	H 	0.9988	0.539	0.8728	-0.068
Mof_H 	H 	0.9462	0.471	0.8572	-0.153
Mof_C 	C 	0.955	0.448	0.8926	-0.654
Mof_H 	H 	0.9426	0.4059	0.9033	0.198
Mof_H 	H 	0.9256	0.4414	0.8718	0.226
Mof_H 	H 	0.9245	0.4297	0.9193	0.134
Mof_H 	H 	0.9131	0.4888	0.9158	0.042
Mof_H 	H 	0.9425	0.5103	0.9026	-0.004
Mof_H 	H 	0.9037	0.4468	0.9264	-0.022
Mof_H 	H 	0.0277	0.4671	0.8137	0.244
Mof_H 	H 	0.0956	0.4873	0.8317	0.2
Mof_C 	C 	0.0204	0.5014	0.8416	0.609
Mof_H 	H 	0.0004	0.4679	0.8221	-0.236
Mof_H 	H 	0.9892	0.5151	0.8479	-0.207
Mof_H 	H 	0.104	0.5702	0.7978	0.026
Mof_H 	H 	0.0444	0.5671	0.8186	0.072
Mof_H 	H 	0.0665	0.5813	0.8036	0.084
Mof_H 	H 	0.1068	0.5462	0.8087	0.159
Mof_Fe	Fe	0.11415	0.89924	0.81766	0.987
Mof_O 	O 	0.0412	0.95834	0.7205	-0.543
Mof_O 	O 	0.0803	0.9197	0.77615	-0.53
Mof_C 	C 	0.0625	0.0076	0.9312	-0.092
Mof_C 	C 	0.0837	0.9712	0.9059	0.656
Mof_C 	C 	0.0989	0.9964	0.8666	0.255
Mof_O 	O 	0.1263	0.9729	0.8458	0.022
Mof_O 	O 	0.0863	0.0361	0.8549	-0.275
Mof_N 	N 	0.1532	0.8378	0.70905	-0.217
Mof_C 	C 	0.1346	0.8373	0.6683	0.116
Mof_C 	C 	0.0638	0.7939	0.6601	-0.402
Mof_C 	C 	0.0192	0.8102	0.6802	0.456
Mof_O 	O 	0.0347	0.8324	0.71324	-0.407
Mof_O 	O 	0.0301	0.8296	0.83701	-0.448
Mof_C 	C 	0.2234	0.8819	0.7148	0.138
Mof_C 	C 	0.2514	0.945	0.6947	-0.435
Mof_C 	C 	0.2227	0.9857	0.7032	0.501
Mof_O 	O 	0.1684	0.9595	0.71881	-0.401
Mof_O 	O 	0.21	0.9561	0.80607	-0.383
Mof_C 	C 	0.1318	0.7713	0.7234	0.133
Mof_C 	C 	0.1587	0.7671	0.7608	-0.425
Mof_C 	C 	0.1439	0.7963	0.7939	0.478
Mof_O 	O 	0.1223	0.833	0.78633	-0.394
Mof_O 	O 	0.1555	0.7861	0.82685	-0.393
Mof_Fe	Fe	0.194	0.64329	0.92606	1.023
Mof_Fe	Fe	0.31064	0.78146	0.92805	1.032
Mof_Fe	Fe	0.19995	0.75088	0.86146	1.086
Mof_Fe	Fe	0.10886	0.52017	0.98899	1.066
Mof_O 	O 	0.2806	0.6961	0.95703	-0.572
Mof_O 	O 	0.2526	0.6145	0.89898	-0.581
Mof_O 	O 	0.2349	0.7248	0.90006	-0.554
Mof_O 	O 	0.1725	0.5651	0.95329	-0.548
Mof_C 	C 	0.3439	0.7299	0.7498	0.126
Mof_C 	C 	0.2993	0.7494	0.7674	-0.411
Mof_C 	C 	0.305	0.7596	0.8089	0.442
Mof_O 	O 	0.2701	0.7799	0.82384	-0.412
Mof_O 	O 	0.3433	0.7486	0.82682	-0.329
Mof_C 	C 	0.2869	0.6015	0.1042	0.136
Mof_C 	C 	0.2222	0.5707	0.0859	-0.415
Mof_C 	C 	0.221	0.5567	0.0444	0.464
Mof_O 	O 	0.1662	0.5239	0.03046	-0.425
Mof_O 	O 	0.2736	0.5775	0.0284	-0.334
Mof_N 	N 	0.1296	0.7765	0.9688	-0.215
Mof_C 	C 	0.1309	0.7558	0.0083	0.123
Mof_C 	C 	0.094	0.6852	0.0153	-0.397
Mof_C 	C 	0.1206	0.648	0.9944	0.468
Mof_O 	O 	0.1433	0.6664	0.96152	-0.413
Mof_O 	O 	0.1133	0.599	0.01081	-0.428
Mof_C 	C 	0.1679	0.8482	0.9657	0.109
Mof_C 	C 	0.2315	0.8822	0.986	-0.396
Mof_C 	C 	0.2809	0.865	0.9738	0.461
Mof_O 	O 	0.2618	0.8092	0.96178	-0.411
Mof_O 	O 	0.0921	0.4304	0.97718	-0.409
Mof_C 	C 	0.0638	0.7582	0.951	0.143
Mof_C 	C 	0.0316	0.6955	0.9302	-0.469
Mof_C 	C 	0.0661	0.6961	0.895	0.458
Mof_O 	O 	0.1268	0.7338	0.89553	-0.387
Mof_O 	O 	0.0353	0.657	0.8699	-0.319
Mof_N 	N 	0.4465	0.972	0.8722	-0.232
Mof_C 	C 	0.3958	0.9907	0.8678	0.144
Mof_C 	C 	0.3328	0.9465	0.8676	-0.476
Mof_C 	C 	0.3027	0.8792	0.8814	0.478
Mof_O 	O 	0.3386	0.86	0.89494	-0.407
Mof_O 	O 	0.2426	0.8443	0.87896	-0.396
Mof_C 	C 	0.5136	0.021	0.8769	0.373
Mof_C 	C 	0.5302	0.0538	0.9158	-0.278
Mof_C 	C 	0.5178	0.0094	0.9498	0.388
Mof_O 	O 	0.0436	0.5106	0.94851	-0.381
Mof_O 	O 	0.0281	0.4713	0.02315	-0.375
Mof_C 	C 	0.4358	0.941	0.8329	0.062
Mof_C 	C 	0.4801	0.918	0.8224	-0.541
Mof_C 	C 	0.4871	0.8738	0.8494	0.53
Mof_O 	O 	0.1285	0.5997	0.88383	-0.407
Mof_O 	O 	0.1566	0.6674	0.83472	-0.431
Mof_H 	H 	0.0409	0.9587	0.6923	0.228
Mof_H 	H 	0.095	0.0533	0.9304	0.05
Mof_H 	H 	0.0599	0.9928	0.9575	0.076
Mof_H 	H 	0.0495	0.926	0.9051	-0.331
Mof_H 	H 	0.1218	0.9728	0.9171	0.053
Mof_C 	C 	0.0561	0.0619	0.9368	-0.2
Mof_H 	H 	0.0968	0.0622	0.9339	0.054
Mof_H 	H 	0.0492	0.0662	0.964	0.07
Mof_C 	C 	0.057	0.9427	0.9148	0.249
Mof_H 	H 	0.0636	0.9083	0.9245	0.018
Mof_H 	H 	0.0973	0.9836	0.9191	-0.492
Mof_C 	C 	0.0463	0.9345	0.8754	0.038
Mof_O 	O 	0.1016	0.9558	0.8557	-0.438
Mof_O 	O 	0.9917	0.9227	0.859	-0.025
Mof_H 	H 	0.132	0.8537	0.7232	0.163
Mof_H 	H 	0.1468	0.8813	0.6609	0.006
Mof_H 	H 	0.1592	0.8238	0.6524	-0.012
Mof_H 	H 	0.0521	0.7499	0.6669	0.15
Mof_H 	H 	0.0571	0.7947	0.6326	0.146
Mof_H 	H 	0.2315	0.8902	0.7421	0.001
Mof_H 	H 	0.2462	0.8599	0.7062	-0.021
Mof_H 	H 	0.2479	0.9368	0.6672	0.153
Mof_H 	H 	0.2973	0.9697	0.7008	0.157
Mof_H 	H 	0.1433	0.749	0.7043	-0.018
Mof_H 	H 	0.0848	0.7481	0.7254	-0.002
Mof_H 	H 	0.1427	0.7217	0.7664	0.153
Mof_H 	H 	0.2055	0.7879	0.7582	0.15
Mof_H 	H 	0.2799	0.6954	0.9852	0.237
Mof_H 	H 	0.3602	0.7456	0.8708	0.243
Mof_H 	H 	0.3883	0.7628	0.7557	-0.008
Mof_H 	H 	0.3389	0.7287	0.7221	-0.015
Mof_H 	H 	0.2551	0.7163	0.7616	0.148
Mof_H 	H 	0.3068	0.7892	0.7552	0.139
Mof_H 	H 	0.2683	0.6945	0.0999	-0.01
Mof_H 	H 	0.3218	0.7187	0.1318	-0.018
Mof_H 	H 	0.3948	0.7958	0.0894	0.15
Mof_H 	H 	0.3362	0.8058	0.0992	0.149
Mof_H 	H 	0.1488	0.7599	0.9535	0.162
Mof_H 	H 	0.1758	0.7716	0.0155	0.004
Mof_H 	H 	0.1142	0.7764	0.0252	-0.016
Mof_H 	H 	0.0939	0.6774	0.0428	0.139
Mof_H 	H 	0.0493	0.6687	0.0074	0.146
Mof_H 	H 	0.1757	0.8593	0.9386	0.013
Mof_H 	H 	0.1414	0.8656	0.9754	-0.009
Mof_H 	H 	0.2236	0.8732	0.0134	0.142
Mof_H 	H 	0.2497	0.9285	0.9826	0.15
Mof_H 	H 	0.0698	0.7923	0.9333	-0.009
Mof_H 	H 	0.0351	0.7566	0.9713	-0.028
Mof_H 	H 	0.9878	0.6849	0.9235	0.183
Mof_H 	H 	0.0285	0.6617	0.9472	0.171
Mof_H 	H 	0.4396	0.94	0.8893	0.075
Mof_H 	H 	0.436	0.9364	0.887	0.074
Mof_C 	C 	0.3987	0.9918	0.8824	0.146
Mof_H 	H 	0.3968	0.9944	0.9102	0.043
Mof_H 	H 	0.4131	0.0348	0.8721	0.021
Mof_H 	H 	0.4048	0.0146	0.8438	-0.054
Mof_H 	H 	0.4025	0.0211	0.8883	-0.143
Mof_H 	H 	0.3348	0.946	0.8397	0.08
Mof_H 	H 	0.3045	0.9634	0.8745	0.09
Mof_H 	H 	0.3118	0.966	0.8819	0.072
Mof_H 	H 	0.3188	0.9437	0.8411	0.086
Mof_H 	H 	0.5402	0.0012	0.8728	-0.072
Mof_H 	H 	0.5248	0.0538	0.8572	-0.127
Mof_C 	C 	0.493	0.045	0.8926	-0.365
Mof_H 	H 	0.4633	0.0574	0.9033	0.104
Mof_H 	H 	0.5158	0.0744	0.8718	0.135
Mof_H 	H 	0.5052	0.0755	0.9193	0.141
Mof_H 	H 	0.5757	0.0869	0.9158	0.066
Mof_H 	H 	0.5678	0.0575	0.9026	0.051
Mof_H 	H 	0.5431	0.0963	0.9264	0.031
Mof_H 	H 	0.4394	0.9723	0.8137	-0.008
Mof_H 	H 	0.3917	0.9044	0.8317	0.015
Mof_C 	C 	0.481	0.9796	0.8416	0.089
Mof_H 	H 	0.4675	0.9996	0.8221	0.006
Mof_H 	H 	0.5259	0.0108	0.8479	-0.055
Mof_H 	H 	0.4662	0.896	0.7978	0.089
Mof_H 	H 	0.5227	0.9556	0.8186	0.156
Mof_H 	H 	0.5148	0.9335	0.8036	0.078
Mof_H 	H 	0.4394	0.8932	0.8087	0.131
Mof_Fe	Fe	-2.79151e-33	0	0.25	0.867
Mof_Fe	Fe	-0	-2.23321e-32	0.75	0.867
Mof_Fe	Fe	-6.97867e-18	0.12906	0.25	1.002
Mof_Fe	Fe	0.87094	0.87094	0.25	1.047
Mof_Fe	Fe	0.12906	0	0.25	1.001
Mof_Fe	Fe	6.70669e-17	0.87094	0.75	1.005
Mof_Fe	Fe	0.12906	0.12906	0.75	1.043
Mof_Fe	Fe	0.87094	-2.23321e-32	0.75	1.005
Mof_Fe	Fe	0.12809	0.12809	0.25	1.017
Mof_Fe	Fe	0.87191	0	0.25	0.974
Mof_Fe	Fe	-4.46942e-17	0.87191	0.25	0.974
Mof_Fe	Fe	0.87191	0.87191	0.75	1.015
Mof_Fe	Fe	0.12809	-2.23321e-32	0.75	0.974
Mof_Fe	Fe	4.2077e-18	0.12809	0.75	0.973
Mof_N 	N 	-5.58302e-33	0	0.4203	-0.158
Mof_H 	H 	-5.58302e-33	0	0.396	0.109
Mof_N 	N 	1.39576e-33	0	0.0797	-0.158
Mof_H 	H 	2.79151e-33	-2.79151e-33	0.104	0.109
Mof_N 	N 	-0	0	0.5797	-0.158
Mof_H 	H 	1.1166e-32	0	0.604	0.109
Mof_N 	N 	-1.1166e-32	-2.23321e-32	0.9203	-0.158
Mof_H 	H 	-1.1166e-32	-2.23321e-32	0.896	0.109
Mof_Fe	Fe	0.33333	0.66667	0.42863	0.978
Mof_N 	N 	0.33333	0.66667	0.2629	-0.221
Mof_N 	N 	0.33333	0.66667	0.5911	-0.227
Mof_H 	H 	0.33333	0.66667	0.2891	0.157
Mof_H 	H 	0.33333	0.66667	0.5649	0.158
Mof_Fe	Fe	0.66667	0.33333	0.07137	0.978
Mof_N 	N 	0.66667	0.33333	0.2371	-0.221
Mof_N 	N 	0.66667	0.33333	0.9089	-0.227
Mof_H 	H 	0.66667	0.33333	0.2109	0.157
Mof_H 	H 	0.66667	0.33333	0.9351	0.158
Mof_Fe	Fe	0.66667	0.33333	0.57137	0.978
Mof_N 	N 	0.66667	0.33333	0.7371	-0.221
Mof_N 	N 	0.66667	0.33333	0.4089	-0.227
Mof_H 	H 	0.66667	0.33333	0.7109	0.157
Mof_H 	H 	0.66667	0.33333	0.4351	0.158
Mof_Fe	Fe	0.33333	0.66667	0.92863	0.978
Mof_N 	N 	0.33333	0.66667	0.7629	-0.221
Mof_N 	N 	0.33333	0.66667	0.0911	-0.227
Mof_H 	H 	0.33333	0.66667	0.7891	0.157
Mof_H 	H 	0.33333	0.66667	0.0649	0.158
_end
