data_functionalizedCrystal
_audit_creation_method	'EQeq! by Chris Wilmer'
_symmetry_space_group_name_H-M	'P1'
_symmetry_Int_Tables_number	1
_symmetry_cell_setting	triclinic
loop_
_symmetry_equiv_pos_as_xyz
  x,y,z
_cell_length_a	28.9123
_cell_length_b	20.7706
_cell_length_c	29.7284
_cell_angle_alpha	90
_cell_angle_beta	101.224
_cell_angle_gamma	90
loop_
_atom_site_label
_atom_site_type_symbol
_atom_site_fract_x
_atom_site_fract_y
_atom_site_fract_z
_atom_site_charge
Mof_Cu	Cu	0.74012	0.50369	0.56474	0.825
Mof_O 	O 	0.3421	0.8301	0.2593	-0.147
Mof_N 	N 	0.2833	0.6005	0.12047	-0.241
Mof_C 	C 	0.457	0.9143	0.284	0.054
Mof_Cu	Cu	0.2386	0.54932	0.07284	0.823
Mof_O 	O 	0.6087	0.6698	0.302	-0.149
Mof_N 	N 	0.7711	0.4307	0.6024	-0.241
Mof_O 	O 	0.5745	0.6442	0.3912	-0.235
Mof_O 	O 	0.1242	0.357	0.896	-0.259
Mof_O 	O 	0.3887	0.7639	0.205	-0.256
Mof_N 	N 	0.7017	0.5504	0.5122	-0.242
Mof_C 	C 	0.4091	0.9002	0.2836	-0.12
Mof_H 	H 	0.3916	0.9273	0.2999	0.077
Mof_O 	O 	0.3858	0.6929	0.2619	-0.228
Mof_N 	N 	0.2861	0.943	0.5307	-0.228
Mof_C 	C 	0.3874	0.8474	0.26	0.087
Mof_C 	C 	0.4127	0.8106	0.2352	0.148
Mof_O 	O 	0.63808	0.7065	0.39049	-0.259
Mof_N 	N 	0.19461	0.499	0.02431	-0.237
Mof_C 	C 	0.4591	0.8221	0.2347	-0.147
Mof_H 	H 	0.4757	0.7953	0.2173	0.094
Mof_N 	N 	0.7949	0.9984	0.0316	-0.228
Mof_C 	C 	0.4824	0.8747	0.2603	0.059
Mof_O 	O 	0.50614	0.9082	0.50098	-0.144
Mof_C 	C 	0.5353	0.8811	0.2615	-0.195
Mof_H 	H 	0.5419	0.8705	0.2309	0.082
Mof_H 	H 	0.545	0.9263	0.2686	0.078
Mof_O 	O 	0.42469	0.9586	0.45713	-0.265
Mof_C 	C 	0.5636	0.8371	0.297	0.052
Mof_O 	O 	0.3938	0.8661	0.4306	-0.248
Mof_C 	C 	0.5725	0.7754	0.2827	-0.127
Mof_H 	H 	0.5619	0.7638	0.2515	0.074
Mof_O 	O 	0.8281	0.1937	0.7477	-0.147
Mof_C 	C 	0.5968	0.7305	0.3131	0.088
Mof_O 	O 	0.87315	0.28	0.70475	-0.262
Mof_C 	C 	0.6108	0.7493	0.3584	0.142
Mof_O 	O 	0.8448	0.2147	0.6458	-0.24
Mof_C 	C 	0.6037	0.81	0.3731	-0.151
Mof_H 	H 	0.6147	0.8211	0.4044	0.09
Mof_O 	O 	0.0826	0.4006	0.812	-0.149
Mof_C 	C 	0.5804	0.856	0.3425	0.056
Mof_C 	C 	0.5751	0.9244	0.3604	-0.188
Mof_H 	H 	0.6046	0.9362	0.3818	0.077
Mof_H 	H 	0.5711	0.9547	0.3342	0.075
Mof_O 	O 	0.05921	0.3932	0.9189	-0.239
Mof_C 	C 	0.5339	0.9332	0.3849	0.044
Mof_O 	O 	0.99029	0.145	0.99601	-0.14
Mof_C 	C 	0.5404	0.917	0.4317	-0.116
Mof_H 	H 	0.5701	0.9009	0.4469	0.071
Mof_O 	O 	0.91304	0.0855	0.9494	-0.249
Mof_C 	C 	0.5044	0.9241	0.4563	0.088
Mof_O 	O 	0.9456	0.9896	0.9723	-0.228
Mof_C 	C 	0.461	0.9494	0.4322	0.161
Mof_C 	C 	0.4546	0.9667	0.3877	-0.162
Mof_H 	H 	0.4254	0.9849	0.3731	0.094
Mof_C 	C 	0.4905	0.9581	0.3623	0.071
Mof_C 	C 	0.4784	0.972	0.3115	-0.203
Mof_H 	H 	0.5073	0.9853	0.3008	0.082
Mof_H 	H 	0.4557	0.0083	0.3061	0.086
Mof_C 	C 	0.3172	0.8653	0.2868	-0.177
Mof_H 	H 	0.3356	0.8674	0.3181	0.098
Mof_H 	H 	0.2869	0.8442	0.287	0.098
Mof_H 	H 	0.3116	0.909	0.2745	0.085
Mof_C 	C 	0.3749	0.7088	0.2218	0.269
Mof_C 	C 	0.3441	0.6703	0.1855	-0.004
Mof_C 	C 	0.3298	0.6107	0.1964	-0.088
Mof_H 	H 	0.3407	0.5927	0.2259	0.067
Mof_C 	C 	0.2985	0.5769	0.1624	0.046
Mof_H 	H 	0.2877	0.5356	0.1696	-0.025
Mof_C 	C 	0.2998	0.6574	0.1105	0.056
Mof_H 	H 	0.2905	0.6733	0.0801	-0.01
Mof_C 	C 	0.3296	0.695	0.1421	-0.087
Mof_H 	H 	0.3398	0.7362	0.1341	0.076
Mof_C 	C 	0.602	0.6554	0.2535	-0.169
Mof_H 	H 	0.5684	0.6584	0.2397	0.083
Mof_H 	H 	0.6133	0.6117	0.2494	0.086
Mof_H 	H 	0.6198	0.6863	0.2387	0.079
Mof_C 	C 	0.6152	0.6569	0.4049	0.281
Mof_C 	C 	0.6471	0.6196	0.4413	-0.014
Mof_C 	C 	0.6306	0.5607	0.4557	-0.078
Mof_H 	H 	0.601	0.5436	0.441	0.069
Mof_C 	C 	0.6585	0.5287	0.4913	0.039
Mof_H 	H 	0.6471	0.4898	0.5019	-0.014
Mof_C 	C 	0.7175	0.605	0.4971	0.047
Mof_H 	H 	0.7481	0.6197	0.5109	-0.013
Mof_C 	C 	0.6913	0.6413	0.4623	-0.079
Mof_H 	H 	0.7035	0.6805	0.4529	0.068
Mof_C 	C 	0.5491	0.8804	0.5245	-0.171
Mof_H 	H 	0.5552	0.8404	0.5092	0.086
Mof_H 	H 	0.5467	0.871	0.5563	0.09
Mof_H 	H 	0.5751	0.9107	0.5243	0.091
Mof_C 	C 	0.3921	0.913	0.4529	0.29
Mof_C 	C 	0.3553	0.9256	0.48	-0.016
Mof_C 	C 	0.3178	0.8845	0.4753	-0.081
Mof_H 	H 	0.3157	0.8486	0.4552	0.071
Mof_C 	C 	0.2827	0.8962	0.5003	0.057
Mof_H 	H 	0.2555	0.8696	0.4953	-0.011
Mof_C 	C 	0.3233	0.9824	0.5359	0.053
Mof_H 	H 	0.3254	0.0166	0.5574	-0.019
Mof_C 	C 	0.3586	0.9751	0.5113	-0.079
Mof_H 	H 	0.3848	0.0036	0.5159	0.068
Mof_C 	C 	0.9737	0.1795	0.758	0.062
Mof_C 	C 	0.9469	0.2272	0.7317	-0.154
Mof_H 	H 	0.9618	0.2585	0.7161	0.094
Mof_C 	C 	0.8991	0.2284	0.7285	0.149
Mof_C 	C 	0.8758	0.1848	0.7509	0.082
Mof_C 	C 	0.902	0.1362	0.7752	-0.122
Mof_H 	H 	0.8864	0.1042	0.7895	0.075
Mof_C 	C 	0.951	0.133	0.7793	0.048
Mof_C 	C 	0.9766	0.0789	0.8086	-0.198
Mof_H 	H 	0.9579	0.0388	0.8027	0.083
Mof_H 	H 	0.0075	0.0713	0.8	0.078
Mof_C 	C 	0.9839	0.0956	0.8592	0.066
Mof_C 	C 	0.9472	0.0827	0.8821	-0.155
Mof_H 	H 	0.9193	0.0624	0.8664	0.092
Mof_C 	C 	0.9513	0.0992	0.927	0.145
Mof_C 	C 	0.9915	0.13	0.9515	0.092
Mof_C 	C 	0.028	0.1415	0.9292	-0.124
Mof_H 	H 	0.0558	0.1616	0.9454	0.075
Mof_C 	C 	0.0252	0.1242	0.8831	0.048
Mof_C 	C 	0.0677	0.1372	0.8618	-0.191
Mof_H 	H 	0.0667	0.1077	0.8355	0.074
Mof_H 	H 	0.0966	0.1273	0.8846	0.077
Mof_C 	C 	0.0708	0.207	0.845	0.057
Mof_C 	C 	0.0935	0.2512	0.8765	-0.153
Mof_H 	H 	0.1068	0.2377	0.9067	0.089
Mof_C 	C 	0.0972	0.3153	0.8643	0.146
Mof_C 	C 	0.0777	0.3371	0.8207	0.084
Mof_C 	C 	0.0554	0.2915	0.7889	-0.125
Mof_H 	H 	0.0423	0.3051	0.7586	0.074
Mof_C 	C 	0.0519	0.2274	0.8003	0.048
Mof_C 	C 	0.0273	0.1833	0.762	-0.195
Mof_H 	H 	0.0407	0.1395	0.7674	0.077
Mof_H 	H 	0.0342	0.1988	0.7325	0.083
Mof_C 	C 	0.8063	0.1589	0.7803	-0.187
Mof_H 	H 	0.8027	0.1136	0.7713	0.089
Mof_H 	H 	0.7753	0.1776	0.7809	0.097
Mof_H 	H 	0.8263	0.1622	0.8109	0.09
Mof_C 	C 	0.8465	0.2665	0.6641	0.283
Mof_C 	C 	0.8201	0.3241	0.6432	-0.011
Mof_C 	C 	0.7825	0.3161	0.6072	-0.078
Mof_H 	H 	0.7729	0.2744	0.596	0.069
Mof_C 	C 	0.759	0.3706	0.5878	0.046
Mof_H 	H 	0.7331	0.3652	0.5631	-0.016
Mof_C 	C 	0.8075	0.4375	0.6374	0.053
Mof_H 	H 	0.8166	0.4797	0.6478	-0.02
Mof_C 	C 	0.8324	0.3856	0.6592	-0.081
Mof_H 	H 	0.8575	0.392	0.6847	0.069
Mof_C 	C 	0.0568	0.4246	0.7687	-0.171
Mof_H 	H 	0.0709	0.4076	0.7437	0.081
Mof_H 	H 	0.0583	0.4718	0.7685	0.087
Mof_H 	H 	0.0239	0.4108	0.7645	0.085
Mof_C 	C 	0.1016	0.3917	0.9229	0.277
Mof_C 	C 	0.1348	0.4281	0.9581	-0.016
Mof_C 	C 	0.1184	0.4822	0.9778	-0.076
Mof_H 	H 	0.0865	0.4958	0.9687	0.069
Mof_C 	C 	0.1497	0.5161	0.0111	0.044
Mof_H 	H 	0.1385	0.5527	0.0249	-0.016
Mof_C 	C 	0.2104	0.4467	0.0051	0.042
Mof_H 	H 	0.2425	0.4345	0.0146	-0.008
Mof_C 	C 	0.1817	0.41	0.972	-0.074
Mof_H 	H 	0.1938	0.3733	0.959	0.065
Mof_C 	C 	0.0332	0.1719	0.0221	-0.186
Mof_H 	H 	0.0592	0.1417	0.0223	0.1
Mof_H 	H 	0.0293	0.1798	0.0537	0.097
Mof_H 	H 	0.0401	0.2126	0.0081	0.09
Mof_C 	C 	0.9142	0.0275	0.9706	0.267
Mof_C 	C 	0.8718	0.018	0.991	-0.003
Mof_C 	C 	0.874	0.9758	0.0266	-0.092
Mof_H 	H 	0.9022	0.9524	0.0375	0.071
Mof_C 	C 	0.8357	0.9674	0.0464	0.059
Mof_H 	H 	0.838	0.9387	0.0716	-0.021
Mof_C 	C 	0.7923	0.0386	0.9958	0.055
Mof_H 	H 	0.7634	0.0602	0.9846	-0.01
Mof_C 	C 	0.8298	0.0498	0.9749	-0.084
Mof_H 	H 	0.827	0.0788	0.9499	0.071
Mof_Cu	Cu	0.74012	0.99631	0.06474	0.824
Mof_O 	O 	0.3421	0.6699	0.7593	-0.148
Mof_N 	N 	0.2833	0.8995	0.62047	-0.242
Mof_C 	C 	0.457	0.5857	0.784	0.053
Mof_Cu	Cu	0.2386	0.95068	0.57284	0.822
Mof_O 	O 	0.6087	0.8302	0.802	-0.15
Mof_N 	N 	0.7711	0.0693	0.1024	-0.242
Mof_O 	O 	0.5745	0.8558	0.8912	-0.236
Mof_O 	O 	0.1242	0.143	0.396	-0.26
Mof_O 	O 	0.3887	0.7361	0.705	-0.257
Mof_N 	N 	0.7017	0.9496	0.0122	-0.243
Mof_C 	C 	0.4091	0.5998	0.7836	-0.121
Mof_H 	H 	0.3916	0.5727	0.7999	0.076
Mof_O 	O 	0.3858	0.8071	0.7619	-0.229
Mof_N 	N 	0.2861	0.557	0.0307	-0.229
Mof_C 	C 	0.3874	0.6526	0.76	0.086
Mof_C 	C 	0.4127	0.6894	0.7352	0.147
Mof_O 	O 	0.63808	0.7935	0.89049	-0.26
Mof_N 	N 	0.19461	0.001	0.52431	-0.238
Mof_C 	C 	0.4591	0.6779	0.7347	-0.148
Mof_H 	H 	0.4757	0.7047	0.7173	0.093
Mof_N 	N 	0.7949	0.5016	0.5316	-0.229
Mof_C 	C 	0.4824	0.6253	0.7603	0.059
Mof_O 	O 	0.50614	0.5918	0.00098	-0.144
Mof_C 	C 	0.5353	0.6189	0.7615	-0.196
Mof_H 	H 	0.5419	0.6295	0.7309	0.082
Mof_H 	H 	0.545	0.5737	0.7686	0.078
Mof_O 	O 	0.42469	0.5414	0.95713	-0.265
Mof_C 	C 	0.5636	0.6629	0.797	0.052
Mof_O 	O 	0.3938	0.6339	0.9306	-0.248
Mof_C 	C 	0.5725	0.7246	0.7827	-0.127
Mof_H 	H 	0.5619	0.7362	0.7515	0.074
Mof_O 	O 	0.8281	0.3063	0.2477	-0.147
Mof_C 	C 	0.5968	0.7695	0.8131	0.088
Mof_O 	O 	0.87315	0.22	0.20475	-0.262
Mof_C 	C 	0.6108	0.7507	0.8584	0.142
Mof_O 	O 	0.8448	0.2853	0.1458	-0.24
Mof_C 	C 	0.6037	0.69	0.8731	-0.151
Mof_H 	H 	0.6147	0.6789	0.9044	0.09
Mof_O 	O 	0.0826	0.0994	0.312	-0.149
Mof_C 	C 	0.5804	0.644	0.8425	0.056
Mof_C 	C 	0.5751	0.5756	0.8604	-0.188
Mof_H 	H 	0.6046	0.5638	0.8818	0.077
Mof_H 	H 	0.5711	0.5453	0.8342	0.075
Mof_O 	O 	0.05921	0.1068	0.4189	-0.239
Mof_C 	C 	0.5339	0.5668	0.8849	0.044
Mof_O 	O 	0.99029	0.355	0.49601	-0.14
Mof_C 	C 	0.5404	0.583	0.9317	-0.117
Mof_H 	H 	0.5701	0.5991	0.9469	0.071
Mof_O 	O 	0.91304	0.4145	0.4494	-0.249
Mof_C 	C 	0.5044	0.5759	0.9563	0.089
Mof_O 	O 	0.9456	0.5104	0.4723	-0.229
Mof_C 	C 	0.461	0.5506	0.9322	0.161
Mof_C 	C 	0.4546	0.5333	0.8877	-0.162
Mof_H 	H 	0.4254	0.5151	0.8731	0.094
Mof_C 	C 	0.4905	0.5419	0.8623	0.071
Mof_C 	C 	0.4784	0.528	0.8115	-0.202
Mof_H 	H 	0.5073	0.5147	0.8008	0.082
Mof_H 	H 	0.4557	0.4917	0.8061	0.085
Mof_C 	C 	0.3172	0.6347	0.7868	-0.177
Mof_H 	H 	0.3356	0.6326	0.8181	0.098
Mof_H 	H 	0.2869	0.6558	0.787	0.098
Mof_H 	H 	0.3116	0.591	0.7745	0.085
Mof_C 	C 	0.3749	0.7912	0.7218	0.269
Mof_C 	C 	0.3441	0.8297	0.6855	-0.004
Mof_C 	C 	0.3298	0.8893	0.6964	-0.088
Mof_H 	H 	0.3407	0.9073	0.7259	0.067
Mof_C 	C 	0.2985	0.9231	0.6624	0.046
Mof_H 	H 	0.2877	0.9644	0.6696	-0.024
Mof_C 	C 	0.2998	0.8426	0.6105	0.056
Mof_H 	H 	0.2905	0.8267	0.5801	-0.01
Mof_C 	C 	0.3296	0.805	0.6421	-0.087
Mof_H 	H 	0.3398	0.7638	0.6341	0.076
Mof_C 	C 	0.602	0.8446	0.7535	-0.169
Mof_H 	H 	0.5684	0.8416	0.7397	0.083
Mof_H 	H 	0.6133	0.8883	0.7494	0.086
Mof_H 	H 	0.6198	0.8137	0.7387	0.079
Mof_C 	C 	0.6152	0.8431	0.9049	0.281
Mof_C 	C 	0.6471	0.8804	0.9413	-0.013
Mof_C 	C 	0.6306	0.9393	0.9557	-0.079
Mof_H 	H 	0.601	0.9564	0.941	0.069
Mof_C 	C 	0.6585	0.9713	0.9913	0.04
Mof_H 	H 	0.6471	0.0102	0.0019	-0.014
Mof_C 	C 	0.7175	0.895	0.9971	0.049
Mof_H 	H 	0.7481	0.8803	0.0109	-0.013
Mof_C 	C 	0.6913	0.8587	0.9623	-0.08
Mof_H 	H 	0.7035	0.8195	0.9529	0.068
Mof_C 	C 	0.5491	0.6196	0.0245	-0.171
Mof_H 	H 	0.5552	0.6596	0.0092	0.086
Mof_H 	H 	0.5467	0.629	0.0563	0.09
Mof_H 	H 	0.5751	0.5893	0.0243	0.091
Mof_C 	C 	0.3921	0.587	0.9529	0.29
Mof_C 	C 	0.3553	0.5744	0.98	-0.016
Mof_C 	C 	0.3178	0.6155	0.9753	-0.081
Mof_H 	H 	0.3157	0.6514	0.9552	0.071
Mof_C 	C 	0.2827	0.6038	0.0003	0.057
Mof_H 	H 	0.2555	0.6304	0.9953	-0.011
Mof_C 	C 	0.3233	0.5176	0.0359	0.053
Mof_H 	H 	0.3254	0.4834	0.0574	-0.019
Mof_C 	C 	0.3586	0.5249	0.0113	-0.079
Mof_H 	H 	0.3848	0.4964	0.0159	0.068
Mof_C 	C 	0.9737	0.3205	0.258	0.063
Mof_C 	C 	0.9469	0.2728	0.2317	-0.154
Mof_H 	H 	0.9618	0.2415	0.2161	0.094
Mof_C 	C 	0.8991	0.2716	0.2285	0.149
Mof_C 	C 	0.8758	0.3152	0.2509	0.082
Mof_C 	C 	0.902	0.3638	0.2752	-0.122
Mof_H 	H 	0.8864	0.3958	0.2895	0.075
Mof_C 	C 	0.951	0.367	0.2793	0.048
Mof_C 	C 	0.9766	0.4211	0.3086	-0.198
Mof_H 	H 	0.9579	0.4612	0.3027	0.083
Mof_H 	H 	0.0075	0.4287	0.3	0.078
Mof_C 	C 	0.9839	0.4044	0.3592	0.066
Mof_C 	C 	0.9472	0.4173	0.3821	-0.155
Mof_H 	H 	0.9193	0.4376	0.3664	0.092
Mof_C 	C 	0.9513	0.4008	0.427	0.146
Mof_C 	C 	0.9915	0.37	0.4515	0.092
Mof_C 	C 	0.028	0.3585	0.4292	-0.124
Mof_H 	H 	0.0558	0.3384	0.4454	0.075
Mof_C 	C 	0.0252	0.3758	0.3831	0.048
Mof_C 	C 	0.0677	0.3628	0.3618	-0.191
Mof_H 	H 	0.0667	0.3923	0.3355	0.074
Mof_H 	H 	0.0966	0.3727	0.3846	0.077
Mof_C 	C 	0.0708	0.293	0.345	0.057
Mof_C 	C 	0.0935	0.2488	0.3765	-0.153
Mof_H 	H 	0.1068	0.2623	0.4067	0.089
Mof_C 	C 	0.0972	0.1847	0.3643	0.146
Mof_C 	C 	0.0777	0.1629	0.3207	0.084
Mof_C 	C 	0.0554	0.2085	0.2889	-0.125
Mof_H 	H 	0.0423	0.1949	0.2586	0.074
Mof_C 	C 	0.0519	0.2726	0.3003	0.048
Mof_C 	C 	0.0273	0.3167	0.262	-0.195
Mof_H 	H 	0.0407	0.3605	0.2674	0.077
Mof_H 	H 	0.0342	0.3012	0.2325	0.083
Mof_C 	C 	0.8063	0.3411	0.2803	-0.187
Mof_H 	H 	0.8027	0.3864	0.2713	0.089
Mof_H 	H 	0.7753	0.3224	0.2809	0.097
Mof_H 	H 	0.8263	0.3378	0.3109	0.09
Mof_C 	C 	0.8465	0.2335	0.1641	0.283
Mof_C 	C 	0.8201	0.1759	0.1432	-0.011
Mof_C 	C 	0.7825	0.1839	0.1072	-0.078
Mof_H 	H 	0.7729	0.2256	0.096	0.069
Mof_C 	C 	0.759	0.1294	0.0878	0.046
Mof_H 	H 	0.7331	0.1348	0.0631	-0.016
Mof_C 	C 	0.8075	0.0625	0.1374	0.053
Mof_H 	H 	0.8166	0.0203	0.1478	-0.02
Mof_C 	C 	0.8324	0.1144	0.1592	-0.081
Mof_H 	H 	0.8575	0.108	0.1847	0.069
Mof_C 	C 	0.0568	0.0754	0.2687	-0.171
Mof_H 	H 	0.0709	0.0924	0.2437	0.081
Mof_H 	H 	0.0583	0.0282	0.2685	0.088
Mof_H 	H 	0.0239	0.0892	0.2645	0.085
Mof_C 	C 	0.1016	0.1083	0.4229	0.277
Mof_C 	C 	0.1348	0.0719	0.4581	-0.016
Mof_C 	C 	0.1184	0.0178	0.4778	-0.076
Mof_H 	H 	0.0865	0.0042	0.4687	0.069
Mof_C 	C 	0.1497	0.9839	0.5111	0.044
Mof_H 	H 	0.1385	0.9473	0.5249	-0.016
Mof_C 	C 	0.2104	0.0533	0.5051	0.042
Mof_H 	H 	0.2425	0.0655	0.5146	-0.008
Mof_C 	C 	0.1817	0.09	0.472	-0.073
Mof_H 	H 	0.1938	0.1267	0.459	0.065
Mof_C 	C 	0.0332	0.3281	0.5221	-0.186
Mof_H 	H 	0.0592	0.3583	0.5223	0.1
Mof_H 	H 	0.0293	0.3202	0.5537	0.097
Mof_H 	H 	0.0401	0.2874	0.5081	0.09
Mof_C 	C 	0.9142	0.4725	0.4706	0.268
Mof_C 	C 	0.8718	0.482	0.491	-0.003
Mof_C 	C 	0.874	0.5242	0.5266	-0.092
Mof_H 	H 	0.9022	0.5476	0.5375	0.071
Mof_C 	C 	0.8357	0.5326	0.5464	0.059
Mof_H 	H 	0.838	0.5613	0.5716	-0.021
Mof_C 	C 	0.7923	0.4614	0.4958	0.056
Mof_H 	H 	0.7634	0.4398	0.4846	-0.01
Mof_C 	C 	0.8298	0.4502	0.4749	-0.084
Mof_H 	H 	0.827	0.4212	0.4499	0.071
Mof_Cu	Cu	0.25988	0.00369	0.93526	0.824
Mof_O 	O 	0.6579	0.3301	0.2407	-0.148
Mof_N 	N 	0.7167	0.1005	0.37953	-0.242
Mof_C 	C 	0.543	0.4143	0.216	0.053
Mof_Cu	Cu	0.7614	0.04932	0.42716	0.822
Mof_O 	O 	0.3913	0.1698	0.198	-0.15
Mof_N 	N 	0.2289	0.9307	0.8976	-0.242
Mof_O 	O 	0.4255	0.1442	0.1088	-0.236
Mof_O 	O 	0.8758	0.857	0.604	-0.26
Mof_O 	O 	0.6113	0.2639	0.295	-0.257
Mof_N 	N 	0.2983	0.0504	0.9878	-0.243
Mof_C 	C 	0.5909	0.4002	0.2164	-0.121
Mof_H 	H 	0.6084	0.4273	0.2001	0.076
Mof_O 	O 	0.6142	0.1929	0.2381	-0.229
Mof_N 	N 	0.7139	0.443	0.9693	-0.229
Mof_C 	C 	0.6126	0.3474	0.24	0.086
Mof_C 	C 	0.5873	0.3106	0.2648	0.147
Mof_O 	O 	0.36192	0.2065	0.10951	-0.26
Mof_N 	N 	0.80539	0.999	0.47569	-0.238
Mof_C 	C 	0.5409	0.3221	0.2653	-0.148
Mof_H 	H 	0.5243	0.2953	0.2827	0.093
Mof_N 	N 	0.2051	0.4984	0.4684	-0.229
Mof_C 	C 	0.5176	0.3747	0.2397	0.059
Mof_O 	O 	0.49386	0.4082	0.99902	-0.144
Mof_C 	C 	0.4647	0.3811	0.2385	-0.196
Mof_H 	H 	0.4581	0.3705	0.2691	0.082
Mof_H 	H 	0.455	0.4263	0.2314	0.078
Mof_O 	O 	0.57531	0.4586	0.04287	-0.265
Mof_C 	C 	0.4364	0.3371	0.203	0.052
Mof_O 	O 	0.6062	0.3661	0.0694	-0.248
Mof_C 	C 	0.4275	0.2754	0.2173	-0.127
Mof_H 	H 	0.4381	0.2638	0.2485	0.074
Mof_O 	O 	0.1719	0.6937	0.7523	-0.147
Mof_C 	C 	0.4032	0.2305	0.1869	0.088
Mof_O 	O 	0.12685	0.78	0.79525	-0.262
Mof_C 	C 	0.3892	0.2493	0.1416	0.142
Mof_O 	O 	0.1552	0.7147	0.8542	-0.24
Mof_C 	C 	0.3963	0.31	0.1269	-0.151
Mof_H 	H 	0.3853	0.3211	0.0956	0.09
Mof_O 	O 	0.9174	0.9006	0.688	-0.149
Mof_C 	C 	0.4196	0.356	0.1575	0.056
Mof_C 	C 	0.4249	0.4244	0.1396	-0.188
Mof_H 	H 	0.3954	0.4362	0.1182	0.077
Mof_H 	H 	0.4289	0.4547	0.1658	0.075
Mof_O 	O 	0.94079	0.8932	0.5811	-0.239
Mof_C 	C 	0.4661	0.4332	0.1151	0.044
Mof_O 	O 	0.00971	0.645	0.50399	-0.14
Mof_C 	C 	0.4596	0.417	0.0683	-0.117
Mof_H 	H 	0.4299	0.4009	0.0531	0.071
Mof_O 	O 	0.08696	0.5855	0.5506	-0.249
Mof_C 	C 	0.4956	0.4241	0.0437	0.089
Mof_O 	O 	0.0544	0.4896	0.5277	-0.229
Mof_C 	C 	0.539	0.4494	0.0678	0.161
Mof_C 	C 	0.5454	0.4667	0.1123	-0.162
Mof_H 	H 	0.5746	0.4849	0.1269	0.094
Mof_C 	C 	0.5095	0.4581	0.1377	0.071
Mof_C 	C 	0.5216	0.472	0.1885	-0.202
Mof_H 	H 	0.4927	0.4853	0.1992	0.082
Mof_H 	H 	0.5443	0.5083	0.1939	0.085
Mof_C 	C 	0.6828	0.3653	0.2132	-0.177
Mof_H 	H 	0.6644	0.3674	0.1819	0.098
Mof_H 	H 	0.7131	0.3442	0.213	0.098
Mof_H 	H 	0.6884	0.409	0.2255	0.085
Mof_C 	C 	0.6251	0.2088	0.2782	0.269
Mof_C 	C 	0.6559	0.1703	0.3145	-0.004
Mof_C 	C 	0.6702	0.1107	0.3036	-0.088
Mof_H 	H 	0.6593	0.0927	0.2741	0.067
Mof_C 	C 	0.7015	0.0769	0.3376	0.046
Mof_H 	H 	0.7123	0.0356	0.3304	-0.024
Mof_C 	C 	0.7002	0.1574	0.3895	0.056
Mof_H 	H 	0.7095	0.1733	0.4199	-0.01
Mof_C 	C 	0.6704	0.195	0.3579	-0.087
Mof_H 	H 	0.6602	0.2362	0.3659	0.076
Mof_C 	C 	0.398	0.1554	0.2465	-0.169
Mof_H 	H 	0.4316	0.1584	0.2603	0.083
Mof_H 	H 	0.3867	0.1117	0.2506	0.086
Mof_H 	H 	0.3802	0.1863	0.2613	0.079
Mof_C 	C 	0.3848	0.1569	0.0951	0.281
Mof_C 	C 	0.3529	0.1196	0.0587	-0.013
Mof_C 	C 	0.3694	0.0607	0.0443	-0.079
Mof_H 	H 	0.399	0.0436	0.059	0.069
Mof_C 	C 	0.3415	0.0287	0.0087	0.04
Mof_H 	H 	0.3529	0.9898	0.9981	-0.014
Mof_C 	C 	0.2825	0.105	0.0029	0.049
Mof_H 	H 	0.2519	0.1197	0.9891	-0.013
Mof_C 	C 	0.3087	0.1413	0.0377	-0.08
Mof_H 	H 	0.2965	0.1805	0.0471	0.068
Mof_C 	C 	0.4509	0.3804	0.9755	-0.171
Mof_H 	H 	0.4448	0.3404	0.9908	0.086
Mof_H 	H 	0.4533	0.371	0.9437	0.09
Mof_H 	H 	0.4249	0.4107	0.9757	0.091
Mof_C 	C 	0.6079	0.413	0.0471	0.29
Mof_C 	C 	0.6447	0.4256	0.02	-0.016
Mof_C 	C 	0.6822	0.3845	0.0247	-0.081
Mof_H 	H 	0.6843	0.3486	0.0448	0.071
Mof_C 	C 	0.7173	0.3962	0.9997	0.057
Mof_H 	H 	0.7445	0.3696	0.0047	-0.011
Mof_C 	C 	0.6767	0.4824	0.9641	0.053
Mof_H 	H 	0.6746	0.5166	0.9426	-0.019
Mof_C 	C 	0.6414	0.4751	0.9887	-0.079
Mof_H 	H 	0.6152	0.5036	0.9841	0.068
Mof_C 	C 	0.0263	0.6795	0.742	0.063
Mof_C 	C 	0.0531	0.7272	0.7683	-0.154
Mof_H 	H 	0.0382	0.7585	0.7839	0.094
Mof_C 	C 	0.1009	0.7284	0.7715	0.149
Mof_C 	C 	0.1242	0.6848	0.7491	0.082
Mof_C 	C 	0.098	0.6362	0.7248	-0.122
Mof_H 	H 	0.1136	0.6042	0.7105	0.075
Mof_C 	C 	0.049	0.633	0.7207	0.048
Mof_C 	C 	0.0234	0.5789	0.6914	-0.198
Mof_H 	H 	0.0421	0.5388	0.6973	0.083
Mof_H 	H 	0.9925	0.5713	0.7	0.078
Mof_C 	C 	0.0161	0.5956	0.6408	0.066
Mof_C 	C 	0.0528	0.5827	0.6179	-0.155
Mof_H 	H 	0.0807	0.5624	0.6336	0.092
Mof_C 	C 	0.0487	0.5992	0.573	0.146
Mof_C 	C 	0.0085	0.63	0.5485	0.092
Mof_C 	C 	0.972	0.6415	0.5708	-0.124
Mof_H 	H 	0.9442	0.6616	0.5546	0.075
Mof_C 	C 	0.9748	0.6242	0.6169	0.048
Mof_C 	C 	0.9323	0.6372	0.6382	-0.191
Mof_H 	H 	0.9333	0.6077	0.6645	0.074
Mof_H 	H 	0.9034	0.6273	0.6154	0.077
Mof_C 	C 	0.9292	0.707	0.655	0.057
Mof_C 	C 	0.9065	0.7512	0.6235	-0.153
Mof_H 	H 	0.8932	0.7377	0.5933	0.089
Mof_C 	C 	0.9028	0.8153	0.6357	0.146
Mof_C 	C 	0.9223	0.8371	0.6793	0.084
Mof_C 	C 	0.9446	0.7915	0.7111	-0.125
Mof_H 	H 	0.9577	0.8051	0.7414	0.074
Mof_C 	C 	0.9481	0.7274	0.6997	0.048
Mof_C 	C 	0.9727	0.6833	0.738	-0.195
Mof_H 	H 	0.9593	0.6395	0.7326	0.077
Mof_H 	H 	0.9658	0.6988	0.7675	0.083
Mof_C 	C 	0.1937	0.6589	0.7197	-0.187
Mof_H 	H 	0.1973	0.6136	0.7287	0.089
Mof_H 	H 	0.2247	0.6776	0.7191	0.097
Mof_H 	H 	0.1737	0.6622	0.6891	0.09
Mof_C 	C 	0.1535	0.7665	0.8359	0.283
Mof_C 	C 	0.1799	0.8241	0.8568	-0.011
Mof_C 	C 	0.2175	0.8161	0.8928	-0.078
Mof_H 	H 	0.2271	0.7744	0.904	0.069
Mof_C 	C 	0.241	0.8706	0.9122	0.046
Mof_H 	H 	0.2669	0.8652	0.9369	-0.016
Mof_C 	C 	0.1925	0.9375	0.8626	0.053
Mof_H 	H 	0.1834	0.9797	0.8522	-0.02
Mof_C 	C 	0.1676	0.8856	0.8408	-0.081
Mof_H 	H 	0.1425	0.892	0.8153	0.069
Mof_C 	C 	0.9432	0.9246	0.7313	-0.171
Mof_H 	H 	0.9291	0.9076	0.7563	0.081
Mof_H 	H 	0.9417	0.9718	0.7315	0.088
Mof_H 	H 	0.9761	0.9108	0.7355	0.085
Mof_C 	C 	0.8984	0.8917	0.5771	0.277
Mof_C 	C 	0.8652	0.9281	0.5419	-0.016
Mof_C 	C 	0.8816	0.9822	0.5222	-0.076
Mof_H 	H 	0.9135	0.9958	0.5313	0.069
Mof_C 	C 	0.8503	0.0161	0.4889	0.044
Mof_H 	H 	0.8615	0.0527	0.4751	-0.016
Mof_C 	C 	0.7896	0.9467	0.4949	0.042
Mof_H 	H 	0.7575	0.9345	0.4854	-0.008
Mof_C 	C 	0.8183	0.91	0.528	-0.073
Mof_H 	H 	0.8062	0.8733	0.541	0.065
Mof_C 	C 	0.9668	0.6719	0.4779	-0.186
Mof_H 	H 	0.9408	0.6417	0.4777	0.1
Mof_H 	H 	0.9707	0.6798	0.4463	0.097
Mof_H 	H 	0.9599	0.7126	0.4919	0.09
Mof_C 	C 	0.0858	0.5275	0.5294	0.268
Mof_C 	C 	0.1282	0.518	0.509	-0.003
Mof_C 	C 	0.126	0.4758	0.4734	-0.092
Mof_H 	H 	0.0978	0.4524	0.4625	0.071
Mof_C 	C 	0.1643	0.4674	0.4536	0.059
Mof_H 	H 	0.162	0.4387	0.4284	-0.021
Mof_C 	C 	0.2077	0.5386	0.5042	0.056
Mof_H 	H 	0.2366	0.5602	0.5154	-0.01
Mof_C 	C 	0.1702	0.5498	0.5251	-0.084
Mof_H 	H 	0.173	0.5788	0.5501	0.071
Mof_Cu	Cu	0.25988	0.49631	0.43526	0.824
Mof_O 	O 	0.6579	0.1699	0.7407	-0.148
Mof_N 	N 	0.7167	0.3995	0.87953	-0.242
Mof_C 	C 	0.543	0.0857	0.716	0.053
Mof_Cu	Cu	0.7614	0.45068	0.92716	0.822
Mof_O 	O 	0.3913	0.3302	0.698	-0.15
Mof_N 	N 	0.2289	0.5693	0.3976	-0.242
Mof_O 	O 	0.4255	0.3558	0.6088	-0.236
Mof_O 	O 	0.8758	0.643	0.104	-0.26
Mof_O 	O 	0.6113	0.2361	0.795	-0.257
Mof_N 	N 	0.2983	0.4496	0.4878	-0.243
Mof_C 	C 	0.5909	0.0998	0.7164	-0.121
Mof_H 	H 	0.6084	0.0727	0.7001	0.076
Mof_O 	O 	0.6142	0.3071	0.7381	-0.229
Mof_N 	N 	0.7139	0.057	0.4693	-0.229
Mof_C 	C 	0.6126	0.1526	0.74	0.086
Mof_C 	C 	0.5873	0.1894	0.7648	0.147
Mof_O 	O 	0.36192	0.2935	0.60951	-0.26
Mof_N 	N 	0.80539	0.501	0.97569	-0.238
Mof_C 	C 	0.5409	0.1779	0.7653	-0.148
Mof_H 	H 	0.5243	0.2047	0.7827	0.093
Mof_N 	N 	0.2051	0.0016	0.9684	-0.229
Mof_C 	C 	0.5176	0.1253	0.7397	0.059
Mof_O 	O 	0.49386	0.0918	0.49902	-0.144
Mof_C 	C 	0.4647	0.1189	0.7385	-0.195
Mof_H 	H 	0.4581	0.1295	0.7691	0.082
Mof_H 	H 	0.455	0.0737	0.7314	0.078
Mof_O 	O 	0.57531	0.0414	0.54287	-0.265
Mof_C 	C 	0.4364	0.1629	0.703	0.052
Mof_O 	O 	0.6062	0.1339	0.5694	-0.248
Mof_C 	C 	0.4275	0.2246	0.7173	-0.127
Mof_H 	H 	0.4381	0.2362	0.7485	0.074
Mof_O 	O 	0.1719	0.8063	0.2523	-0.147
Mof_C 	C 	0.4032	0.2695	0.6869	0.088
Mof_O 	O 	0.12685	0.72	0.29525	-0.262
Mof_C 	C 	0.3892	0.2507	0.6416	0.142
Mof_O 	O 	0.1552	0.7853	0.3542	-0.24
Mof_C 	C 	0.3963	0.19	0.6269	-0.151
Mof_H 	H 	0.3853	0.1789	0.5956	0.09
Mof_O 	O 	0.9174	0.5994	0.188	-0.149
Mof_C 	C 	0.4196	0.144	0.6575	0.056
Mof_C 	C 	0.4249	0.0756	0.6396	-0.188
Mof_H 	H 	0.3954	0.0638	0.6182	0.077
Mof_H 	H 	0.4289	0.0453	0.6658	0.075
Mof_O 	O 	0.94079	0.6068	0.0811	-0.239
Mof_C 	C 	0.4661	0.0668	0.6151	0.044
Mof_O 	O 	0.00971	0.855	0.00399	-0.14
Mof_C 	C 	0.4596	0.083	0.5683	-0.116
Mof_H 	H 	0.4299	0.0991	0.5531	0.071
Mof_O 	O 	0.08696	0.9145	0.0506	-0.249
Mof_C 	C 	0.4956	0.0759	0.5437	0.088
Mof_O 	O 	0.0544	0.0104	0.0277	-0.228
Mof_C 	C 	0.539	0.0506	0.5678	0.161
Mof_C 	C 	0.5454	0.0333	0.6123	-0.162
Mof_H 	H 	0.5746	0.0151	0.6269	0.094
Mof_C 	C 	0.5095	0.0419	0.6377	0.071
Mof_C 	C 	0.5216	0.028	0.6885	-0.203
Mof_H 	H 	0.4927	0.0147	0.6992	0.082
Mof_H 	H 	0.5443	0.9917	0.6939	0.086
Mof_C 	C 	0.6828	0.1347	0.7132	-0.177
Mof_H 	H 	0.6644	0.1326	0.6819	0.098
Mof_H 	H 	0.7131	0.1558	0.713	0.098
Mof_H 	H 	0.6884	0.091	0.7255	0.085
Mof_C 	C 	0.6251	0.2912	0.7782	0.269
Mof_C 	C 	0.6559	0.3297	0.8145	-0.004
Mof_C 	C 	0.6702	0.3893	0.8036	-0.088
Mof_H 	H 	0.6593	0.4073	0.7741	0.067
Mof_C 	C 	0.7015	0.4231	0.8376	0.046
Mof_H 	H 	0.7123	0.4644	0.8304	-0.025
Mof_C 	C 	0.7002	0.3426	0.8895	0.056
Mof_H 	H 	0.7095	0.3267	0.9199	-0.01
Mof_C 	C 	0.6704	0.305	0.8579	-0.087
Mof_H 	H 	0.6602	0.2638	0.8659	0.076
Mof_C 	C 	0.398	0.3446	0.7465	-0.169
Mof_H 	H 	0.4316	0.3416	0.7603	0.083
Mof_H 	H 	0.3867	0.3883	0.7506	0.086
Mof_H 	H 	0.3802	0.3137	0.7613	0.079
Mof_C 	C 	0.3848	0.3431	0.5951	0.281
Mof_C 	C 	0.3529	0.3804	0.5587	-0.014
Mof_C 	C 	0.3694	0.4393	0.5443	-0.078
Mof_H 	H 	0.399	0.4564	0.559	0.069
Mof_C 	C 	0.3415	0.4713	0.5087	0.039
Mof_H 	H 	0.3529	0.5102	0.4981	-0.014
Mof_C 	C 	0.2825	0.395	0.5029	0.047
Mof_H 	H 	0.2519	0.3803	0.4891	-0.013
Mof_C 	C 	0.3087	0.3587	0.5377	-0.079
Mof_H 	H 	0.2965	0.3195	0.5471	0.068
Mof_C 	C 	0.4509	0.1196	0.4755	-0.171
Mof_H 	H 	0.4448	0.1596	0.4908	0.086
Mof_H 	H 	0.4533	0.129	0.4437	0.09
Mof_H 	H 	0.4249	0.0893	0.4757	0.091
Mof_C 	C 	0.6079	0.087	0.5471	0.29
Mof_C 	C 	0.6447	0.0744	0.52	-0.016
Mof_C 	C 	0.6822	0.1155	0.5247	-0.081
Mof_H 	H 	0.6843	0.1514	0.5448	0.071
Mof_C 	C 	0.7173	0.1038	0.4997	0.057
Mof_H 	H 	0.7445	0.1304	0.5047	-0.011
Mof_C 	C 	0.6767	0.0176	0.4641	0.053
Mof_H 	H 	0.6746	0.9834	0.4426	-0.019
Mof_C 	C 	0.6414	0.0249	0.4887	-0.079
Mof_H 	H 	0.6152	0.9964	0.4841	0.068
Mof_C 	C 	0.0263	0.8205	0.242	0.062
Mof_C 	C 	0.0531	0.7728	0.2683	-0.154
Mof_H 	H 	0.0382	0.7415	0.2839	0.094
Mof_C 	C 	0.1009	0.7716	0.2715	0.149
Mof_C 	C 	0.1242	0.8152	0.2491	0.082
Mof_C 	C 	0.098	0.8638	0.2248	-0.122
Mof_H 	H 	0.1136	0.8958	0.2105	0.075
Mof_C 	C 	0.049	0.867	0.2207	0.048
Mof_C 	C 	0.0234	0.9211	0.1914	-0.198
Mof_H 	H 	0.0421	0.9612	0.1973	0.083
Mof_H 	H 	0.9925	0.9287	0.2	0.078
Mof_C 	C 	0.0161	0.9044	0.1408	0.066
Mof_C 	C 	0.0528	0.9173	0.1179	-0.155
Mof_H 	H 	0.0807	0.9376	0.1336	0.092
Mof_C 	C 	0.0487	0.9008	0.073	0.145
Mof_C 	C 	0.0085	0.87	0.0485	0.092
Mof_C 	C 	0.972	0.8585	0.0708	-0.124
Mof_H 	H 	0.9442	0.8384	0.0546	0.075
Mof_C 	C 	0.9748	0.8758	0.1169	0.048
Mof_C 	C 	0.9323	0.8628	0.1382	-0.191
Mof_H 	H 	0.9333	0.8923	0.1645	0.074
Mof_H 	H 	0.9034	0.8727	0.1154	0.077
Mof_C 	C 	0.9292	0.793	0.155	0.057
Mof_C 	C 	0.9065	0.7488	0.1235	-0.153
Mof_H 	H 	0.8932	0.7623	0.0933	0.089
Mof_C 	C 	0.9028	0.6847	0.1357	0.146
Mof_C 	C 	0.9223	0.6629	0.1793	0.084
Mof_C 	C 	0.9446	0.7085	0.2111	-0.125
Mof_H 	H 	0.9577	0.6949	0.2414	0.074
Mof_C 	C 	0.9481	0.7726	0.1997	0.048
Mof_C 	C 	0.9727	0.8167	0.238	-0.195
Mof_H 	H 	0.9593	0.8605	0.2326	0.077
Mof_H 	H 	0.9658	0.8012	0.2675	0.083
Mof_C 	C 	0.1937	0.8411	0.2197	-0.187
Mof_H 	H 	0.1973	0.8864	0.2287	0.089
Mof_H 	H 	0.2247	0.8224	0.2191	0.097
Mof_H 	H 	0.1737	0.8378	0.1891	0.09
Mof_C 	C 	0.1535	0.7335	0.3359	0.283
Mof_C 	C 	0.1799	0.6759	0.3568	-0.011
Mof_C 	C 	0.2175	0.6839	0.3928	-0.078
Mof_H 	H 	0.2271	0.7256	0.404	0.069
Mof_C 	C 	0.241	0.6294	0.4122	0.046
Mof_H 	H 	0.2669	0.6348	0.4369	-0.016
Mof_C 	C 	0.1925	0.5625	0.3626	0.053
Mof_H 	H 	0.1834	0.5203	0.3522	-0.02
Mof_C 	C 	0.1676	0.6144	0.3408	-0.081
Mof_H 	H 	0.1425	0.608	0.3153	0.069
Mof_C 	C 	0.9432	0.5754	0.2313	-0.171
Mof_H 	H 	0.9291	0.5924	0.2563	0.081
Mof_H 	H 	0.9417	0.5282	0.2315	0.087
Mof_H 	H 	0.9761	0.5892	0.2355	0.085
Mof_C 	C 	0.8984	0.6083	0.0771	0.277
Mof_C 	C 	0.8652	0.5719	0.0419	-0.016
Mof_C 	C 	0.8816	0.5178	0.0222	-0.076
Mof_H 	H 	0.9135	0.5042	0.0313	0.069
Mof_C 	C 	0.8503	0.4839	0.9889	0.044
Mof_H 	H 	0.8615	0.4473	0.9751	-0.016
Mof_C 	C 	0.7896	0.5533	0.9949	0.042
Mof_H 	H 	0.7575	0.5655	0.9854	-0.008
Mof_C 	C 	0.8183	0.59	0.028	-0.074
Mof_H 	H 	0.8062	0.6267	0.041	0.065
Mof_C 	C 	0.9668	0.8281	0.9779	-0.186
Mof_H 	H 	0.9408	0.8583	0.9777	0.1
Mof_H 	H 	0.9707	0.8202	0.9463	0.097
Mof_H 	H 	0.9599	0.7874	0.9919	0.09
Mof_C 	C 	0.0858	0.9725	0.0294	0.267
Mof_C 	C 	0.1282	0.982	0.009	-0.003
Mof_C 	C 	0.126	0.0242	0.9734	-0.092
Mof_H 	H 	0.0978	0.0476	0.9625	0.071
Mof_C 	C 	0.1643	0.0326	0.9536	0.059
Mof_H 	H 	0.162	0.0613	0.9284	-0.021
Mof_C 	C 	0.2077	0.9614	0.0042	0.055
Mof_H 	H 	0.2366	0.9398	0.0154	-0.01
Mof_C 	C 	0.1702	0.9502	0.0251	-0.084
Mof_H 	H 	0.173	0.9212	0.0501	0.071
_end
