# CIF file generated by openbabel 3.1.0, see https://openbabel.org
data_I
_chemical_name_common 'EPOTAF_clean'
_cell_length_a 10.7765
_cell_length_b 15.0683
_cell_length_c 28.487
_cell_angle_alpha 86.8973
_cell_angle_beta 81.2941
_cell_angle_gamma 69.0478
_space_group_name_H-M_alt 'P 1'
_space_group_name_Hall 'P 1'
loop_
    _symmetry_equiv_pos_as_xyz
    x,y,z
loop_
    _atom_site_label
    _atom_site_type_symbol
    _atom_site_fract_x
    _atom_site_fract_y
    _atom_site_fract_z
    _atom_site_occupancy
    Cu1      Cu       0.62216    0.96212    0.01088    1.000
    Cu2      Cu       0.41572    0.96212    0.48912    1.000
    Cu3      Cu       0.37784    0.03788    0.98912    1.000
    Cu4      Cu       0.58428    0.03788    0.51088    1.000
    H1       H        0.55400    0.77520    0.12820    1.000
    H2       H        0.19970    0.88880    0.08700    1.000
    H3       H        0.10700    0.79240    0.14480    1.000
    H4       H        0.17510    0.52160    0.18510    1.000
    H5       H        0.15970    0.44560    0.22370    1.000
    H6       H        0.22920    0.27800    0.08610    1.000
    H7       H        0.39580    0.56440    0.20960    1.000
    H8       H        0.33290    0.63740    0.25200    1.000
    H9       H        0.47130    0.68220    0.18550    1.000
    H10      H        0.55760    0.29100    0.17070    1.000
    H11      H        0.60460    0.16840    0.11360    1.000
    H12      H        0.17290    0.39560    0.14320    1.000
    H13      H        0.67080    0.77520    0.37180    1.000
    H14      H        0.91150    0.88880    0.41300    1.000
    H15      H        0.10060    0.79240    0.35520    1.000
    H16      H        0.30330    0.52160    0.31490    1.000
    H17      H        0.39470    0.44560    0.27630    1.000
    H18      H        0.49280    0.27800    0.41390    1.000
    H19      H        0.03980    0.56440    0.29040    1.000
    H20      H        0.02970    0.63740    0.24800    1.000
    H21      H        0.84650    0.68220    0.31450    1.000
    H22      H        0.15140    0.29100    0.32930    1.000
    H23      H        0.22700    0.16840    0.38640    1.000
    H24      H        0.43150    0.39560    0.35680    1.000
    H25      H        0.44600    0.22480    0.87180    1.000
    H26      H        0.80030    0.11120    0.91300    1.000
    H27      H        0.89300    0.20760    0.85520    1.000
    H28      H        0.82490    0.47840    0.81490    1.000
    H29      H        0.84030    0.55440    0.77630    1.000
    H30      H        0.77080    0.72200    0.91390    1.000
    H31      H        0.60420    0.43560    0.79040    1.000
    H32      H        0.66710    0.36260    0.74800    1.000
    H33      H        0.52870    0.31780    0.81450    1.000
    H34      H        0.44240    0.70900    0.82930    1.000
    H35      H        0.39540    0.83160    0.88640    1.000
    H36      H        0.82710    0.60440    0.85680    1.000
    H37      H        0.32920    0.22480    0.62820    1.000
    H38      H        0.08850    0.11120    0.58700    1.000
    H39      H        0.89940    0.20760    0.64480    1.000
    H40      H        0.69670    0.47840    0.68510    1.000
    H41      H        0.60530    0.55440    0.72370    1.000
    H42      H        0.50720    0.72200    0.58610    1.000
    H43      H        0.96020    0.43560    0.70960    1.000
    H44      H        0.97030    0.36260    0.75200    1.000
    H45      H        0.15350    0.31780    0.68550    1.000
    H46      H        0.84860    0.70900    0.67070    1.000
    H47      H        0.77300    0.83160    0.61360    1.000
    H48      H        0.56850    0.60440    0.64320    1.000
    C1       C        0.46500    0.77960    0.13030    1.000
    C2       C        0.38681    0.83898    0.10170    1.000
    C3       C        0.25560    0.84580    0.10620    1.000
    C4       C        0.19680    0.78680    0.14110    1.000
    C5       C        0.43079    0.90082    0.06561    1.000
    C6       C        0.21510    0.48220    0.21088    1.000
    C7       C        0.29499    0.28042    0.10320    1.000
    C8       C        0.31236    0.60448    0.22759    1.000
    C9       C        0.29082    0.72316    0.16720    1.000
    C10      C        0.41544    0.72112    0.16490    1.000
    C11      C        0.36145    0.35550    0.15970    1.000
    C12      C        0.49220    0.28840    0.15350    1.000
    C13      C        0.51920    0.21480    0.11870    1.000
    C14      C        0.42463    0.21134    0.09360    1.000
    C15      C        0.26008    0.35224    0.13670    1.000
    C16      C        0.45033    0.13294    0.05950    1.000
    C17      C        0.75540    0.77960    0.36970    1.000
    C18      C        0.77421    0.83898    0.39830    1.000
    C19      C        0.89860    0.84580    0.39380    1.000
    C20      C        0.01640    0.78680    0.35890    1.000
    C21      C        0.66839    0.90082    0.43439    1.000
    C22      C        0.30270    0.48220    0.28912    1.000
    C23      C        0.42459    0.28042    0.39680    1.000
    C24      C        0.08316    0.60448    0.27241    1.000
    C25      C        0.98602    0.72316    0.33280    1.000
    C26      C        0.86344    0.72112    0.33510    1.000
    C27      C        0.28305    0.35550    0.34030    1.000
    C28      C        0.21940    0.28840    0.34650    1.000
    C29      C        0.26600    0.21480    0.38130    1.000
    C30      C        0.36403    0.21134    0.40640    1.000
    C31      C        0.38768    0.35224    0.36330    1.000
    C32      C        0.41673    0.13294    0.44050    1.000
    C33      C        0.53500    0.22040    0.86970    1.000
    C34      C        0.61319    0.16102    0.89830    1.000
    C35      C        0.74440    0.15420    0.89380    1.000
    C36      C        0.80320    0.21320    0.85890    1.000
    C37      C        0.56921    0.09918    0.93439    1.000
    C38      C        0.78490    0.51780    0.78912    1.000
    C39      C        0.70501    0.71958    0.89680    1.000
    C40      C        0.68764    0.39552    0.77241    1.000
    C41      C        0.70918    0.27684    0.83280    1.000
    C42      C        0.58456    0.27888    0.83510    1.000
    C43      C        0.63855    0.64450    0.84030    1.000
    C44      C        0.50780    0.71160    0.84650    1.000
    C45      C        0.48080    0.78520    0.88130    1.000
    C46      C        0.57537    0.78866    0.90640    1.000
    C47      C        0.73992    0.64776    0.86330    1.000
    C48      C        0.54967    0.86706    0.94050    1.000
    C49      C        0.24460    0.22040    0.63030    1.000
    C50      C        0.22579    0.16102    0.60170    1.000
    C51      C        0.10140    0.15420    0.60620    1.000
    C52      C        0.98360    0.21320    0.64110    1.000
    C53      C        0.33161    0.09918    0.56561    1.000
    C54      C        0.69730    0.51780    0.71088    1.000
    C55      C        0.57541    0.71958    0.60320    1.000
    C56      C        0.91684    0.39552    0.72759    1.000
    C57      C        0.01398    0.27684    0.66720    1.000
    C58      C        0.13656    0.27888    0.66490    1.000
    C59      C        0.71695    0.64450    0.65970    1.000
    C60      C        0.78060    0.71160    0.65350    1.000
    C61      C        0.73400    0.78520    0.61870    1.000
    C62      C        0.63597    0.78866    0.59360    1.000
    C63      C        0.61232    0.64776    0.63670    1.000
    C64      C        0.58327    0.86706    0.55950    1.000
    C65      C        0.22780    0.54440    0.25000    1.000
    C66      C        0.77220    0.45560    0.75000    1.000
    O1       O        0.34238    0.95564    0.04246    1.000
    O2       O        0.54990    0.89200    0.06122    1.000
    O3       O        0.56841    0.06998    0.05487    1.000
    O4       O        0.36011    0.13518    0.03640    1.000
    O5       O        0.23023    0.67114    0.19698    1.000
    O6       O        0.34906    0.42028    0.19438    1.000
    O7       O        0.70198    0.95564    0.45754    1.000
    O8       O        0.55810    0.89200    0.43878    1.000
    O9       O        0.36161    0.06998    0.44513    1.000
    O10      O        0.50471    0.13518    0.46360    1.000
    O11      O        0.09863    0.67114    0.30302    1.000
    O12      O        0.23066    0.42028    0.30562    1.000
    O13      O        0.65762    0.04436    0.95754    1.000
    O14      O        0.45010    0.10800    0.93878    1.000
    O15      O        0.43159    0.93002    0.94513    1.000
    O16      O        0.63989    0.86482    0.96360    1.000
    O17      O        0.76977    0.32886    0.80302    1.000
    O18      O        0.65094    0.57972    0.80562    1.000
    O19      O        0.29802    0.04436    0.54246    1.000
    O20      O        0.44190    0.10800    0.56122    1.000
    O21      O        0.63839    0.93002    0.55487    1.000
    O22      O        0.49529    0.86482    0.53640    1.000
    O23      O        0.90137    0.32886    0.69698    1.000
    O24      O        0.76934    0.57972    0.69438    1.000
