data_functionalizedCrystal
_audit_creation_method	'EQeq! by Chris Wilmer'
_symmetry_space_group_name_H-M	'P1'
_symmetry_Int_Tables_number	1
_symmetry_cell_setting	triclinic
loop_
_symmetry_equiv_pos_as_xyz
  x,y,z
_cell_length_a	13.6605
_cell_length_b	15.0103
_cell_length_c	18.5345
_cell_angle_alpha	69.051
_cell_angle_beta	71.145
_cell_angle_gamma	65.014
loop_
_atom_site_label
_atom_site_type_symbol
_atom_site_fract_x
_atom_site_fract_y
_atom_site_fract_z
_atom_site_charge
Mof_Dy	Dy	0.84786	0.49709	0.13764	2.197
Mof_Dy	Dy	0.62999	0.50384	0.36986	2.061
Mof_O 	O 	0.4066	0.6136	0.5144	-0.609
Mof_O 	O 	0.5173	0.6596	0.4018	-0.557
Mof_O 	O 	0.6474	0.3658	0.3247	-0.533
Mof_O 	O 	0.0114	0.3724	0.1031	-0.587
Mof_O 	O 	0.9228	0.4295	0.2492	-0.547
Mof_O 	O 	0.771	0.3792	0.2126	-0.628
Mof_O 	O 	0.0911	0.3972	0.9765	-0.607
Mof_O 	O 	0.8228	0.6379	0.177	-0.547
Mof_O 	O 	0.6701	0.6056	0.1205	-0.567
Mof_O 	O 	0.5875	0.5828	0.246	-0.586
Mof_O 	O 	0.7332	0.6088	0.3012	-0.567
Mof_O 	O 	0.8143	0.3913	0.3661	-0.537
Mof_N 	N 	0.4294	0.8845	0.0576	-0.141
Mof_N 	N 	0.1873	0.0642	0.1463	-0.147
Mof_N 	N 	0.8121	0.0955	0.1984	-0.14
Mof_N 	N 	0.7047	0.8872	0.3188	-0.136
Mof_N 	N 	0.3236	0.9608	0.3682	-0.146
Mof_N 	N 	0.0646	0.1296	0.4478	-0.138
Mof_C 	C 	0.0757	0.3423	0.0442	0.566
Mof_C 	C 	0.5941	0.6327	0.1761	0.537
Mof_C 	C 	0.3515	0.9245	0.1152	0.081
Mof_C 	C 	0.5031	0.7908	0.0777	0.12
Mof_H 	H 	0.5552	0.7623	0.0378	0.003
Mof_C 	C 	0.5048	0.7345	0.1557	-0.218
Mof_C 	C 	0.4225	0.7754	0.216	0.116
Mof_H 	H 	0.4198	0.7386	0.2685	-0.016
Mof_C 	C 	0.3459	0.8712	0.1954	-0.161
Mof_H 	H 	0.2912	0.9003	0.234	0.097
Mof_C 	C 	0.2756	0.0304	0.091	0.094
Mof_C 	C 	0.124	0.1628	0.128	0.142
Mof_H 	H 	0.0623	0.1866	0.1655	-0.006
Mof_C 	C 	0.1445	0.2299	0.0578	-0.246
Mof_C 	C 	0.2325	0.1936	0.0004	0.14
Mof_H 	H 	0.2469	0.2371	0.9511	-0.01
Mof_C 	C 	0.2996	0.0916	0.0169	-0.178
Mof_H 	H 	0.3589	0.0655	0.979	0.106
Mof_C 	C 	0.714	0.334	0.2675	0.561
Mof_C 	C 	0.755	0.0397	0.2601	0.084
Mof_C 	C 	0.7976	0.1917	0.2012	0.129
Mof_H 	H 	0.8342	0.2309	0.1596	-0.017
Mof_C 	C 	0.7296	0.2301	0.2647	-0.23
Mof_C 	C 	0.6772	0.1691	0.3276	0.122
Mof_H 	H 	0.6338	0.1932	0.3716	-0.003
Mof_C 	C 	0.6885	0.0744	0.3259	-0.166
Mof_H 	H 	0.6526	0.0348	0.3676	0.1
Mof_C 	C 	0.7628	0.9417	0.2562	0.081
Mof_C 	C 	0.7102	0.7962	0.3129	0.115
Mof_H 	H 	0.6726	0.7579	0.3544	0.003
Mof_C 	C 	0.7705	0.7602	0.2464	-0.209
Mof_C 	C 	0.8284	0.8183	0.1844	0.107
Mof_H 	H 	0.8691	0.7954	0.1395	0.002
Mof_C 	C 	0.8253	0.9088	0.1896	-0.157
Mof_H 	H 	0.8644	0.9467	0.1491	0.095
Mof_C 	C 	0.7758	0.6606	0.2412	0.544
Mof_C 	C 	0.9039	0.3751	0.3182	0.514
Mof_C 	C 	0.1521	0.0934	0.3928	0.081
Mof_C 	C 	0.9906	0.222	0.4228	0.11
Mof_H 	H 	0.9306	0.249	0.46	0.002
Mof_C 	C 	0.9988	0.2792	0.3444	-0.2
Mof_C 	C 	0.0902	0.243	0.2893	0.106
Mof_H 	H 	0.1001	0.2807	0.237	0.004
Mof_C 	C 	0.1668	0.1482	0.3147	-0.154
Mof_H 	H 	0.229	0.1212	0.2788	0.096
Mof_C 	C 	0.2282	0.9882	0.4185	0.094
Mof_C 	C 	0.3881	0.8636	0.384	0.126
Mof_H 	H 	0.4557	0.8446	0.3497	0.006
Mof_C 	C 	0.3618	0.7895	0.4475	-0.22
Mof_C 	C 	0.2652	0.82	0.5018	0.123
Mof_H 	H 	0.2465	0.7737	0.548	-0.004
Mof_C 	C 	0.1977	0.9208	0.4859	-0.173
Mof_H 	H 	0.1317	0.9428	0.5208	0.103
Mof_C 	C 	0.4353	0.6783	0.456	0.522
Mof_Dy	Dy	0.15214	0.50291	0.86236	2.196
Mof_Dy	Dy	0.37001	0.49616	0.63014	2.06
Mof_O 	O 	0.5934	0.3864	0.4856	-0.61
Mof_O 	O 	0.4827	0.3404	0.5982	-0.558
Mof_O 	O 	0.3526	0.6342	0.6753	-0.533
Mof_O 	O 	0.9886	0.6276	0.8969	-0.587
Mof_O 	O 	0.0772	0.5705	0.7508	-0.547
Mof_O 	O 	0.229	0.6208	0.7874	-0.628
Mof_O 	O 	0.9089	0.6028	0.0235	-0.607
Mof_O 	O 	0.1772	0.3621	0.823	-0.547
Mof_O 	O 	0.3299	0.3944	0.8795	-0.567
Mof_O 	O 	0.4125	0.4172	0.754	-0.586
Mof_O 	O 	0.2668	0.3912	0.6988	-0.567
Mof_O 	O 	0.1857	0.6087	0.6339	-0.537
Mof_N 	N 	0.5706	0.1155	0.9424	-0.141
Mof_N 	N 	0.8127	0.9358	0.8537	-0.147
Mof_N 	N 	0.1879	0.9045	0.8016	-0.14
Mof_N 	N 	0.2953	0.1128	0.6812	-0.136
Mof_N 	N 	0.6764	0.0392	0.6318	-0.146
Mof_N 	N 	0.9354	0.8704	0.5522	-0.138
Mof_C 	C 	0.9243	0.6577	0.9558	0.566
Mof_C 	C 	0.4059	0.3673	0.8239	0.537
Mof_C 	C 	0.6485	0.0755	0.8848	0.081
Mof_C 	C 	0.4969	0.2092	0.9223	0.12
Mof_H 	H 	0.4448	0.2377	0.9622	0.003
Mof_C 	C 	0.4952	0.2655	0.8443	-0.218
Mof_C 	C 	0.5775	0.2246	0.784	0.116
Mof_H 	H 	0.5802	0.2614	0.7315	-0.016
Mof_C 	C 	0.6541	0.1288	0.8046	-0.161
Mof_H 	H 	0.7088	0.0997	0.766	0.097
Mof_C 	C 	0.7244	0.9696	0.909	0.094
Mof_C 	C 	0.876	0.8372	0.872	0.142
Mof_H 	H 	0.9377	0.8134	0.8345	-0.006
Mof_C 	C 	0.8555	0.7701	0.9422	-0.246
Mof_C 	C 	0.7675	0.8064	0.9996	0.14
Mof_H 	H 	0.7531	0.7629	0.0489	-0.01
Mof_C 	C 	0.7004	0.9084	0.9831	-0.178
Mof_H 	H 	0.6411	0.9345	0.021	0.106
Mof_C 	C 	0.286	0.666	0.7325	0.561
Mof_C 	C 	0.245	0.9603	0.7399	0.084
Mof_C 	C 	0.2024	0.8083	0.7988	0.129
Mof_H 	H 	0.1658	0.7691	0.8404	-0.017
Mof_C 	C 	0.2704	0.7699	0.7353	-0.23
Mof_C 	C 	0.3228	0.8309	0.6724	0.122
Mof_H 	H 	0.3662	0.8068	0.6284	-0.003
Mof_C 	C 	0.3115	0.9256	0.6741	-0.166
Mof_H 	H 	0.3474	0.9652	0.6324	0.1
Mof_C 	C 	0.2372	0.0583	0.7438	0.081
Mof_C 	C 	0.2898	0.2038	0.6871	0.115
Mof_H 	H 	0.3274	0.2421	0.6456	0.003
Mof_C 	C 	0.2295	0.2398	0.7536	-0.209
Mof_C 	C 	0.1716	0.1817	0.8156	0.107
Mof_H 	H 	0.1309	0.2046	0.8605	0.002
Mof_C 	C 	0.1747	0.0912	0.8104	-0.157
Mof_H 	H 	0.1356	0.0533	0.8509	0.095
Mof_C 	C 	0.2242	0.3394	0.7588	0.544
Mof_C 	C 	0.0961	0.6249	0.6818	0.514
Mof_C 	C 	0.8479	0.9066	0.6072	0.081
Mof_C 	C 	0.0094	0.778	0.5772	0.11
Mof_H 	H 	0.0694	0.751	0.54	0.002
Mof_C 	C 	0.0012	0.7208	0.6556	-0.2
Mof_C 	C 	0.9098	0.757	0.7107	0.106
Mof_H 	H 	0.8999	0.7193	0.763	0.004
Mof_C 	C 	0.8332	0.8518	0.6853	-0.154
Mof_H 	H 	0.771	0.8788	0.7212	0.096
Mof_C 	C 	0.7718	0.0118	0.5815	0.094
Mof_C 	C 	0.6119	0.1364	0.616	0.126
Mof_H 	H 	0.5443	0.1554	0.6503	0.006
Mof_C 	C 	0.6382	0.2105	0.5525	-0.22
Mof_C 	C 	0.7348	0.18	0.4982	0.123
Mof_H 	H 	0.7535	0.2263	0.452	-0.004
Mof_C 	C 	0.8023	0.0792	0.5141	-0.173
Mof_H 	H 	0.8683	0.0572	0.4792	0.103
Mof_C 	C 	0.5647	0.3217	0.544	0.522
_end
