data_functionalizedCrystal
_audit_creation_method	'EQeq! by Chris Wilmer'
_symmetry_space_group_name_H-M	'P1'
_symmetry_Int_Tables_number	1
_symmetry_cell_setting	triclinic
loop_
_symmetry_equiv_pos_as_xyz
  x,y,z
_cell_length_a	9.7794
_cell_length_b	17.3026
_cell_length_c	18.2274
_cell_angle_alpha	92.4172
_cell_angle_beta	90
_cell_angle_gamma	106.415
loop_
_atom_site_label
_atom_site_type_symbol
_atom_site_fract_x
_atom_site_fract_y
_atom_site_fract_z
_atom_site_charge
Mof_Co	Co	0.14491	0.69238	0.0021	1.161
Mof_Co	Co	0.45254	0.30763	0.4979	1.179
Mof_Co	Co	0.85509	0.30763	0.9979	1.194
Mof_Co	Co	0.54746	0.69237	0.5021	1.179
Mof_Co	Co	3.8464e-17	0.5	-0	1.155
Mof_Co	Co	0.5	0.5	0.5	1.185
Mof_H 	H 	0.59078	0.92588	0.09307	0.029
Mof_H 	H 	0.28958	0.92984	0.92313	0.03
Mof_H 	H 	0.53027	0.57222	0.8838	0.052
Mof_H 	H 	0.30305	0.50564	0.08391	0.054
Mof_H 	H 	0.00702	0.74294	0.22265	0.005
Mof_H 	H 	0.87718	0.73624	0.33972	0.055
Mof_H 	H 	0.62268	0.49652	0.27667	0.044
Mof_H 	H 	0.74862	0.50452	0.15849	0.048
Mof_H 	H 	0.6649	0.07412	0.40693	0.038
Mof_H 	H 	0.35974	0.07016	0.57687	0.039
Mof_H 	H 	0.95805	0.42778	0.6162	0.036
Mof_H 	H 	0.79741	0.49436	0.41609	0.031
Mof_H 	H 	0.26408	0.25706	0.27735	0.038
Mof_H 	H 	0.14094	0.26376	0.16028	0.032
Mof_H 	H 	0.12616	0.50348	0.22333	0.037
Mof_H 	H 	0.2441	0.49548	0.34151	0.049
Mof_H 	H 	0.40922	0.07412	0.90693	0.045
Mof_H 	H 	0.71042	0.07016	0.07687	0.052
Mof_H 	H 	0.46973	0.42778	0.1162	0.034
Mof_H 	H 	0.69695	0.49436	0.91609	0.033
Mof_H 	H 	0.99298	0.25706	0.77735	0.075
Mof_H 	H 	0.12282	0.26376	0.66028	0.03
Mof_H 	H 	0.37732	0.50348	0.72333	0.037
Mof_H 	H 	0.25138	0.49548	0.84151	0.053
Mof_H 	H 	0.3351	0.92588	0.59307	0.036
Mof_H 	H 	0.64026	0.92984	0.42313	0.045
Mof_H 	H 	0.04195	0.57222	0.3838	0.05
Mof_H 	H 	0.20259	0.50564	0.58391	0.056
Mof_H 	H 	0.73592	0.74294	0.72265	0.046
Mof_H 	H 	0.85906	0.73624	0.83972	0.051
Mof_H 	H 	0.87384	0.49652	0.77667	0.044
Mof_H 	H 	0.7559	0.50452	0.65849	0.051
Mof_C 	C 	0.35843	0.83108	0.01991	0.277
Mof_C 	C 	0.43249	0.91836	0.00902	-0.12
Mof_C 	C 	0.55109	0.95826	0.05237	0.005
Mof_C 	C 	0.38182	0.96054	0.95674	0.044
Mof_C 	C 	0.30851	0.59246	0.9627	0.351
Mof_C 	C 	0.40604	0.54358	0.9818	-0.026
Mof_C 	C 	0.51718	0.5405	0.93445	-0.035
Mof_C 	C 	0.38906	0.50308	0.04731	-0.068
Mof_C 	C 	0.95566	0.6303	0.11	0.409
Mof_C 	C 	0.88346	0.62484	0.18252	-0.113
Mof_C 	C 	0.9215	0.68968	0.23407	0.053
Mof_C 	C 	0.84938	0.68566	0.30012	-0.029
Mof_C 	C 	0.7407	0.61612	0.31515	-0.075
Mof_C 	C 	0.70539	0.55072	0.26443	-0.018
Mof_C 	C 	0.77634	0.55514	0.19804	0.009
Mof_C 	C 	0.66059	0.61178	0.38535	0.363
Mof_C 	C 	0.52735	0.16892	0.48009	0.308
Mof_C 	C 	0.51413	0.08164	0.49098	-0.073
Mof_C 	C 	0.59283	0.04174	0.44763	-0.007
Mof_C 	C 	0.42128	0.03946	0.54326	-0.008
Mof_C 	C 	0.71605	0.40754	0.5373	0.338
Mof_C 	C 	0.86246	0.45642	0.5182	-0.112
Mof_C 	C 	0.97668	0.4595	0.56555	0.059
Mof_C 	C 	0.88598	0.49692	0.45269	0.055
Mof_C 	C 	0.32536	0.3697	0.39	0.355
Mof_C 	C 	0.25862	0.37516	0.31748	-0.087
Mof_C 	C 	0.23182	0.31032	0.26593	-0.01
Mof_C 	C 	0.16372	0.31434	0.19988	-0.016
Mof_C 	C 	0.12458	0.38388	0.18485	-0.085
Mof_C 	C 	0.15467	0.44928	0.23557	-0.015
Mof_C 	C 	0.2212	0.44486	0.30196	-0.011
Mof_C 	C 	0.04881	0.38822	0.11465	0.322
Mof_C 	C 	0.64157	0.16892	0.98009	0.329
Mof_C 	C 	0.56751	0.08164	0.99098	-0.025
Mof_C 	C 	0.44891	0.04174	0.94763	-0.042
Mof_C 	C 	0.61818	0.03946	0.04326	-0.057
Mof_C 	C 	0.69149	0.40754	0.0373	0.304
Mof_C 	C 	0.59396	0.45642	0.0182	-0.126
Mof_C 	C 	0.48282	0.4595	0.06555	0.024
Mof_C 	C 	0.61094	0.49692	0.95269	0.049
Mof_C 	C 	0.04434	0.3697	0.89	0.309
Mof_C 	C 	0.11654	0.37516	0.81748	-0.056
Mof_C 	C 	0.0785	0.31032	0.76593	-0.064
Mof_C 	C 	0.15062	0.31434	0.69988	0.015
Mof_C 	C 	0.2593	0.38388	0.68485	-0.105
Mof_C 	C 	0.29461	0.44928	0.73557	0.003
Mof_C 	C 	0.22366	0.44486	0.80196	-0.027
Mof_C 	C 	0.33941	0.38822	0.61465	0.37
Mof_C 	C 	0.47265	0.83108	0.51991	0.305
Mof_C 	C 	0.48587	0.91836	0.50902	-0.066
Mof_C 	C 	0.40717	0.95826	0.55237	-0.022
Mof_C 	C 	0.57872	0.96054	0.45674	-0.019
Mof_C 	C 	0.28395	0.59246	0.4627	0.311
Mof_C 	C 	0.13754	0.54358	0.4818	-0.043
Mof_C 	C 	0.02332	0.5405	0.43445	-0.07
Mof_C 	C 	0.11402	0.50308	0.54731	-0.071
Mof_C 	C 	0.67464	0.6303	0.61	0.356
Mof_C 	C 	0.74138	0.62484	0.68252	-0.08
Mof_C 	C 	0.76818	0.68968	0.73407	-0.009
Mof_C 	C 	0.83628	0.68566	0.80012	0.002
Mof_C 	C 	0.87542	0.61612	0.81515	-0.093
Mof_C 	C 	0.84533	0.55072	0.76443	-0.002
Mof_C 	C 	0.7788	0.55514	0.69804	-0.01
Mof_C 	C 	0.95119	0.61178	0.88535	0.399
Mof_O 	O 	0.25627	0.79826	0.97381	-0.384
Mof_O 	O 	0.3934	0.79468	0.07045	-0.304
Mof_O 	O 	0.2077	0.59298	0.00893	-0.555
Mof_O 	O 	0.32842	0.63228	0.90685	-0.321
Mof_O 	O 	0.05638	0.69342	0.0997	-0.479
Mof_O 	O 	0.9107	0.57336	0.06305	-0.449
Mof_O 	O 	0.67047	0.6783	0.41982	-0.443
Mof_O 	O 	0.58965	0.54322	0.40412	-0.437
Mof_O 	O 	0.45801	0.20174	0.52619	-0.421
Mof_O 	O 	0.59872	0.20532	0.42955	-0.305
Mof_O 	O 	0.61472	0.40702	0.49107	-0.524
Mof_O 	O 	0.69614	0.36772	0.59315	-0.321
Mof_O 	O 	0.36296	0.30658	0.4003	-0.441
Mof_O 	O 	0.33734	0.42664	0.43695	-0.445
Mof_O 	O 	0.99217	0.3217	0.08018	-0.418
Mof_O 	O 	0.04643	0.45678	0.09588	-0.446
Mof_O 	O 	0.74373	0.20174	0.02619	-0.446
Mof_O 	O 	0.6066	0.20532	0.92955	-0.306
Mof_O 	O 	0.7923	0.40702	0.99107	-0.485
Mof_O 	O 	0.67158	0.36772	0.09315	-0.316
Mof_O 	O 	0.94362	0.30658	0.9003	-0.404
Mof_O 	O 	0.0893	0.42664	0.93695	-0.425
Mof_O 	O 	0.32953	0.3217	0.58018	-0.45
Mof_O 	O 	0.41035	0.45678	0.59588	-0.441
Mof_O 	O 	0.54199	0.79826	0.47381	-0.418
Mof_O 	O 	0.40128	0.79468	0.57045	-0.307
Mof_O 	O 	0.38528	0.59298	0.50893	-0.518
Mof_O 	O 	0.30386	0.63228	0.40685	-0.317
Mof_O 	O 	0.63704	0.69342	0.5997	-0.436
Mof_O 	O 	0.66266	0.57336	0.56305	-0.441
Mof_O 	O 	0.00783	0.6783	0.91982	-0.462
Mof_O 	O 	0.95357	0.54322	0.90412	-0.422
Mof_H 	H 	0.43446	0.78542	0.83466	0.096
Mof_H 	H 	0.28986	0.70734	0.84081	0.107
Mof_H 	H 	0.44672	0.75698	0.70353	0.035
Mof_H 	H 	0.46552	0.67894	0.75834	0.03
Mof_H 	H 	0.20215	0.68412	0.67624	0.091
Mof_H 	H 	0.30786	0.621	0.65753	0.089
Mof_H 	H 	0.20737	0.61046	0.73651	0.086
Mof_H 	H 	0.16178	0.77222	0.75704	0.02
Mof_H 	H 	0.21036	0.82224	0.84371	0.031
Mof_H 	H 	0.36939	0.86418	0.70268	0.095
Mof_H 	H 	0.26874	0.91872	0.74761	0.075
Mof_H 	H 	0.4244	0.91108	0.78725	0.085
Mof_C 	C 	0.39063	0.71104	0.74075	0.033
Mof_C 	C 	0.26792	0.65226	0.69974	-0.23
Mof_C 	C 	0.25211	0.80498	0.79191	0.033
Mof_C 	C 	0.33438	0.8802	0.75461	-0.233
Mof_N 	N 	0.34422	0.75152	0.80657	-0.194
Mof_H 	H 	0.64904	0.21458	0.66534	0.094
Mof_H 	H 	0.58252	0.29266	0.65919	0.107
Mof_H 	H 	0.68974	0.24302	0.79647	0.035
Mof_H 	H 	0.78658	0.32106	0.74166	0.033
Mof_H 	H 	0.51803	0.31588	0.82376	0.098
Mof_H 	H 	0.68686	0.379	0.84247	0.094
Mof_H 	H 	0.59691	0.38954	0.76349	0.093
Mof_H 	H 	0.38956	0.22778	0.74296	0.025
Mof_H 	H 	0.38812	0.17776	0.65629	0.032
Mof_H 	H 	0.50521	0.13582	0.79732	0.096
Mof_H 	H 	0.35002	0.08128	0.75239	0.077
Mof_H 	H 	0.51332	0.08892	0.71275	0.085
Mof_C 	C 	0.67959	0.28896	0.75925	0.035
Mof_C 	C 	0.61566	0.34774	0.80026	-0.234
Mof_C 	C 	0.44713	0.19502	0.70809	0.032
Mof_C 	C 	0.45418	0.1198	0.74539	-0.233
Mof_N 	N 	0.5927	0.24848	0.69343	-0.194
Mof_H 	H 	0.56554	0.21458	0.16534	0.087
Mof_H 	H 	0.71014	0.29266	0.15919	0.107
Mof_H 	H 	0.55328	0.24302	0.29647	0.032
Mof_H 	H 	0.53448	0.32106	0.24166	0.027
Mof_H 	H 	0.79785	0.31588	0.32376	0.103
Mof_H 	H 	0.69214	0.379	0.34247	0.095
Mof_H 	H 	0.79263	0.38954	0.26349	0.1
Mof_H 	H 	0.83822	0.22778	0.24296	0.033
Mof_H 	H 	0.78964	0.17776	0.15629	0.035
Mof_H 	H 	0.63061	0.13582	0.29732	0.095
Mof_H 	H 	0.73126	0.08128	0.25239	0.082
Mof_H 	H 	0.5756	0.08892	0.21275	0.081
Mof_C 	C 	0.60937	0.28896	0.25925	0.038
Mof_C 	C 	0.73208	0.34774	0.30026	-0.239
Mof_C 	C 	0.74789	0.19502	0.20809	0.029
Mof_C 	C 	0.66562	0.1198	0.24539	-0.231
Mof_N 	N 	0.65578	0.24848	0.19343	-0.193
Mof_H 	H 	0.35096	0.78542	0.33466	0.088
Mof_H 	H 	0.41748	0.70734	0.34081	0.106
Mof_H 	H 	0.31026	0.75698	0.20353	0.031
Mof_H 	H 	0.21342	0.67894	0.25834	0.023
Mof_H 	H 	0.48197	0.68412	0.17624	0.095
Mof_H 	H 	0.31314	0.621	0.15753	0.089
Mof_H 	H 	0.40309	0.61046	0.23651	0.092
Mof_H 	H 	0.61044	0.77222	0.25704	0.027
Mof_H 	H 	0.61188	0.82224	0.34371	0.034
Mof_H 	H 	0.49479	0.86418	0.20268	0.093
Mof_H 	H 	0.64998	0.91872	0.24761	0.078
Mof_H 	H 	0.48668	0.91108	0.28725	0.08
Mof_C 	C 	0.32041	0.71104	0.24075	0.036
Mof_C 	C 	0.38434	0.65226	0.19974	-0.234
Mof_C 	C 	0.55287	0.80498	0.29191	0.03
Mof_C 	C 	0.54582	0.8802	0.25461	-0.23
Mof_N 	N 	0.4073	0.75152	0.30657	-0.193
_end
