data_functionalizedCrystal
_audit_creation_method	'EQeq! by Chris Wilmer'
_symmetry_space_group_name_H-M	'P1'
_symmetry_Int_Tables_number	1
_symmetry_cell_setting	triclinic
loop_
_symmetry_equiv_pos_as_xyz
  x,y,z
_cell_length_a	13.0469
_cell_length_b	14.126
_cell_length_c	14.2105
_cell_angle_alpha	90
_cell_angle_beta	91.11
_cell_angle_gamma	90
loop_
_atom_site_label
_atom_site_type_symbol
_atom_site_fract_x
_atom_site_fract_y
_atom_site_fract_z
_atom_site_charge
Mof_Co	Co	0.23061	0.12332	0.26302	1.184
Mof_Co	Co	0.94338	0.99903	0.31871	1.19
Mof_Co	Co	0.24346	0.87217	0.2835	1.185
Mof_Co	Co	0.15621	0.00824	0.67085	1.18
Mof_Co	Co	0.61457	0.02064	0.41433	1.183
Mof_Co	Co	0.7463	0.6247	0.31763	1.184
Mof_Co	Co	0.77897	0.37874	0.30324	1.186
Mof_Co	Co	0.05276	0.53225	0.27137	1.162
Mof_Co	Co	0.34079	0.48494	0.41552	1.183
Mof_Co	Co	0.3779	0.48211	0.1689	1.186
Mof_P 	P 	0.09689	0.98387	0.14303	0.51
Mof_P 	P 	0.14257	0.99777	0.43721	0.556
Mof_P 	P 	0.77141	0.14551	0.30124	0.528
Mof_P 	P 	0.43707	0.0127	0.26139	0.539
Mof_P 	P 	0.74963	0.85867	0.33134	0.524
Mof_P 	P 	0.85426	0.53381	0.14634	0.545
Mof_P 	P 	0.90075	0.50924	0.4394	0.528
Mof_P 	P 	0.5606	0.48275	0.31834	0.54
Mof_P 	P 	0.25166	0.64452	0.28721	0.543
Mof_P 	P 	0.22016	0.36006	0.25666	0.545
Mof_O 	O 	0.1396	0.8908	0.1841	-0.431
Mof_O 	O 	0.1764	0.0635	0.1471	-0.418
Mof_O 	O 	0.999	0.011	0.1947	-0.39
Mof_O 	O 	0.2046	0.9101	0.4069	-0.445
Mof_O 	O 	0.1577	0.0803	0.3706	-0.496
Mof_O 	O 	0.0288	0.9715	0.4311	-0.432
Mof_O 	O 	0.1747	0.0246	0.5371	-0.412
Mof_O 	O 	0.759	0.0833	0.2124	-0.44
Mof_O 	O 	0.6786	0.1369	0.3661	-0.435
Mof_O 	O 	0.8683	0.1105	0.3561	-0.408
Mof_O 	O 	0.7859	0.2472	0.271	-0.398
Mof_O 	O 	0.5155	0.0264	0.1837	-0.41
Mof_O 	O 	0.4859	0.9853	0.3551	-0.447
Mof_O 	O 	0.378	0.1058	0.2721	-0.422
Mof_O 	O 	0.3626	0.9343	0.2294	-0.42
Mof_O 	O 	0.6837	0.8778	0.242	-0.446
Mof_O 	O 	0.0663	0.9663	0.0401	-0.363
Mof_O 	O 	0.7168	0.9196	0.414	-0.428
Mof_O 	O 	0.8651	0.8782	0.3127	-0.396
Mof_O 	O 	0.7396	0.7547	0.3616	-0.383
Mof_O 	O 	0.802	0.5667	0.4301	-0.45
Mof_O 	O 	0.8221	0.6227	0.2025	-0.43
Mof_O 	O 	0.8149	0.5437	0.0452	-0.359
Mof_O 	O 	0.9711	0.5282	0.151	-0.379
Mof_O 	O 	0.8037	0.4475	0.1876	-0.451
Mof_O 	O 	0.8866	0.4122	0.3923	-0.443
Mof_O 	O 	0.9888	0.5623	0.3906	-0.407
Mof_O 	O 	0.6441	0.4106	0.3477	-0.423
Mof_O 	O 	0.4879	0.4897	0.4005	-0.421
Mof_O 	O 	0.6066	0.5802	0.2996	-0.429
Mof_O 	O 	0.5074	0.4459	0.2287	-0.422
Mof_O 	O 	0.9311	0.4984	0.5424	-0.379
Mof_O 	O 	0.321	0.5977	0.2158	-0.452
Mof_O 	O 	0.1402	0.6439	0.2514	-0.426
Mof_O 	O 	0.2905	0.7465	0.2973	-0.407
Mof_O 	O 	0.2589	0.5936	0.3822	-0.459
Mof_O 	O 	0.303	0.3781	0.3315	-0.466
Mof_O 	O 	0.1208	0.4118	0.2792	-0.452
Mof_O 	O 	0.1939	0.2551	0.2516	-0.403
Mof_O 	O 	0.2621	0.3915	0.1607	-0.397
Mof_Co	Co	0.73061	0.87668	0.76302	1.181
Mof_Co	Co	0.44338	0.00097	0.81871	1.18
Mof_Co	Co	0.74346	0.12783	0.7835	1.183
Mof_Co	Co	0.65621	0.99176	0.17085	1.187
Mof_Co	Co	0.11457	0.97936	0.91433	1.157
Mof_Co	Co	0.2463	0.3753	0.81763	1.18
Mof_Co	Co	0.27897	0.62126	0.80324	1.18
Mof_Co	Co	0.55276	0.46775	0.77137	1.176
Mof_Co	Co	0.84079	0.51506	0.91552	1.166
Mof_Co	Co	0.8779	0.51789	0.6689	1.19
Mof_P 	P 	0.59689	0.01613	0.64303	0.537
Mof_P 	P 	0.64257	0.00223	0.93721	0.497
Mof_P 	P 	0.27141	0.85449	0.80124	0.528
Mof_P 	P 	0.93707	0.9873	0.76139	0.555
Mof_P 	P 	0.24963	0.14133	0.83134	0.524
Mof_P 	P 	0.35426	0.46619	0.64634	0.546
Mof_P 	P 	0.40075	0.49076	0.9394	0.471
Mof_P 	P 	0.0606	0.51725	0.81834	0.515
Mof_P 	P 	0.75166	0.35548	0.78721	0.543
Mof_P 	P 	0.72016	0.63994	0.75666	0.545
Mof_O 	O 	0.6396	0.1092	0.6841	-0.436
Mof_O 	O 	0.6764	0.9365	0.6471	-0.432
Mof_O 	O 	0.499	0.989	0.6947	-0.433
Mof_O 	O 	0.7046	0.0899	0.9069	-0.453
Mof_O 	O 	0.6577	0.9197	0.8706	-0.49
Mof_O 	O 	0.5288	0.0285	0.9311	-0.429
Mof_O 	O 	0.6747	0.9754	0.0371	-0.343
Mof_O 	O 	0.259	0.9167	0.7124	-0.454
Mof_O 	O 	0.1786	0.8631	0.8661	-0.459
Mof_O 	O 	0.3683	0.8895	0.8561	-0.433
Mof_O 	O 	0.2859	0.7528	0.771	-0.417
Mof_O 	O 	0.0155	0.9736	0.6837	-0.451
Mof_O 	O 	0.9859	0.0147	0.8551	-0.442
Mof_O 	O 	0.878	0.8942	0.7721	-0.429
Mof_O 	O 	0.8626	0.0657	0.7294	-0.423
Mof_O 	O 	0.1837	0.1222	0.742	-0.462
Mof_O 	O 	0.5663	0.0337	0.5401	-0.394
Mof_O 	O 	0.2168	0.0804	0.914	-0.46
Mof_O 	O 	0.3651	0.1218	0.8127	-0.412
Mof_O 	O 	0.2396	0.2453	0.8616	-0.405
Mof_O 	O 	0.302	0.4333	0.9301	-0.47
Mof_O 	O 	0.3221	0.3773	0.7025	-0.444
Mof_O 	O 	0.3149	0.4563	0.5452	-0.409
Mof_O 	O 	0.4711	0.4718	0.651	-0.415
Mof_O 	O 	0.3037	0.5525	0.6876	-0.467
Mof_O 	O 	0.3866	0.5878	0.8923	-0.462
Mof_O 	O 	0.4888	0.4377	0.8906	-0.438
Mof_O 	O 	0.1441	0.5894	0.8477	-0.441
Mof_O 	O 	0.9879	0.5103	0.9005	-0.415
Mof_O 	O 	0.1066	0.4198	0.7996	-0.447
Mof_O 	O 	0.0074	0.5541	0.7287	-0.451
Mof_O 	O 	0.4311	0.5016	0.0424	-0.328
Mof_O 	O 	0.821	0.4023	0.7158	-0.454
Mof_O 	O 	0.6402	0.3561	0.7514	-0.425
Mof_O 	O 	0.7905	0.2535	0.7973	-0.412
Mof_O 	O 	0.7589	0.4064	0.8822	-0.473
Mof_O 	O 	0.803	0.6219	0.8315	-0.473
Mof_O 	O 	0.6208	0.5882	0.7792	-0.449
Mof_O 	O 	0.6939	0.7449	0.7516	-0.407
Mof_O 	O 	0.7621	0.6085	0.6607	-0.41
_end
