data_functionalizedCrystal
_audit_creation_method	'EQeq! by Chris Wilmer'
_symmetry_space_group_name_H-M	'P1'
_symmetry_Int_Tables_number	1
_symmetry_cell_setting	triclinic
loop_
_symmetry_equiv_pos_as_xyz
  x,y,z
_cell_length_a	11.921
_cell_length_b	12.527
_cell_length_c	12.552
_cell_angle_alpha	90
_cell_angle_beta	98.87
_cell_angle_gamma	90
loop_
_atom_site_label
_atom_site_type_symbol
_atom_site_fract_x
_atom_site_fract_y
_atom_site_fract_z
_atom_site_charge
Mof_C 	C 	0.4842	0.339	0.4902	-0.029
Mof_C 	C 	0.3887	0.3746	0.5309	-0.186
Mof_H 	H 	0.3266	0.4017	0.485	0.102
Mof_C 	C 	0.3875	0.369	0.6407	0.245
Mof_C 	C 	0.4821	0.3333	0.7114	-0.307
Mof_H 	H 	0.4804	0.3289	0.7851	0.144
Mof_C 	C 	0.5788	0.3044	0.6691	0.251
Mof_C 	C 	0.5797	0.3039	0.5596	-0.185
Mof_H 	H 	0.6434	0.2803	0.5321	0.107
Mof_C 	C 	0.487	0.3412	0.3725	0.474
Mof_C 	C 	0.2795	0.3807	0.7845	0.033
Mof_H 	H 	0.3032	0.3072	0.803	0.031
Mof_C 	C 	0.3556	0.457	0.861	0.5
Mof_C 	C 	0.1555	0.3924	0.7975	-0.44
Mof_H 	H 	0.1106	0.3424	0.7511	0.167
Mof_H 	H 	0.1304	0.4637	0.7784	0.132
Mof_H 	H 	0.147	0.3785	0.871	0.15
Mof_C 	C 	0.6914	0.295	0.8442	0.057
Mof_H 	H 	0.6599	0.3656	0.8552	0.017
Mof_C 	C 	0.6321	0.2134	0.9064	0.473
Mof_C 	C 	0.8185	0.2983	0.8835	-0.478
Mof_H 	H 	0.8528	0.3514	0.8437	0.181
Mof_H 	H 	0.851	0.2298	0.8727	0.171
Mof_H 	H 	0.832	0.3158	0.9588	0.15
Mof_C 	C 	0.0208	0.5465	0.09	0.068
Mof_C 	C 	0.9621	0.5487	0.9877	-0.241
Mof_H 	H 	0.9993	0.5348	0.9293	0.112
Mof_C 	C 	0.8463	0.5717	0.971	0.287
Mof_C 	C 	0.7904	0.5912	0.0574	-0.337
Mof_H 	H 	0.7131	0.6063	0.0462	0.143
Mof_C 	C 	0.8507	0.5881	0.1616	0.289
Mof_C 	C 	0.9668	0.5663	0.179	-0.228
Mof_H 	H 	0.0074	0.565	0.2484	0.124
Mof_C 	C 	0.1459	0.52	0.1079	0.268
Mof_C 	C 	0.6871	0.5724	0.2498	0.15
Mof_H 	H 	0.6364	0.6188	0.2013	-0.018
Mof_C 	C 	0.6733	0.4575	0.2101	0.34
Mof_C 	C 	0.6587	0.5811	0.362	-0.576
Mof_H 	H 	0.675	0.6521	0.3888	0.211
Mof_H 	H 	0.7035	0.5308	0.4081	0.2
Mof_H 	H 	0.5796	0.566	0.3608	0.183
Mof_C 	C 	0.6817	0.5999	0.8364	0.147
Mof_H 	H 	0.6341	0.5535	0.8736	-0.023
Mof_C 	C 	0.6623	0.7159	0.8642	0.325
Mof_C 	C 	0.6511	0.5851	0.7159	-0.553
Mof_H 	H 	0.6621	0.5118	0.6978	0.201
Mof_H 	H 	0.6987	0.6298	0.6797	0.19
Mof_H 	H 	0.573	0.6043	0.6937	0.17
Mof_O 	O 	0.5635	0.2861	0.3383	-0.576
Mof_O 	O 	0.4163	0.3976	0.3145	-0.603
Mof_O 	O 	0.288	0.3981	0.6758	-0.263
Mof_O 	O 	0.379	0.5445	0.8262	-0.631
Mof_O 	O 	0.3894	0.4208	0.9542	-0.624
Mof_O 	O 	0.6781	0.2749	0.7325	-0.254
Mof_O 	O 	0.6257	0.2377	0.0017	-0.622
Mof_O 	O 	0.5927	0.1287	0.8597	-0.558
Mof_O 	O 	0.1957	0.4967	0.1998	-0.454
Mof_O 	O 	0.1977	0.5217	0.0276	-0.494
Mof_O 	O 	0.797	0.57	0.8645	-0.283
Mof_O 	O 	0.7433	0.7808	0.8764	-0.464
Mof_O 	O 	0.5616	0.7456	0.8705	-0.632
Mof_O 	O 	0.8019	0.6059	0.2515	-0.278
Mof_O 	O 	0.7503	0.3915	0.2336	-0.5
Mof_O 	O 	0.577	0.4317	0.1562	-0.647
Mof_O 	O 	0.7623	0.1656	0.3508	-0.904
Mof_H 	H 	0.7701	0.1089	0.3148	0.299
Mof_H 	H 	0.803	0.1608	0.4127	0.39
Mof_Sm	Sm	0.37249	0.44591	0.13211	2.558
Mof_Sm	Sm	0.64169	0.22916	0.18787	2.443
Mof_C 	C 	0.5158	0.839	0.5098	-0.036
Mof_C 	C 	0.6113	0.8746	0.4691	-0.19
Mof_H 	H 	0.6734	0.9017	0.515	0.094
Mof_C 	C 	0.6125	0.869	0.3593	0.241
Mof_C 	C 	0.5179	0.8333	0.2886	-0.314
Mof_H 	H 	0.5196	0.8289	0.2149	0.143
Mof_C 	C 	0.4212	0.8044	0.3309	0.242
Mof_C 	C 	0.4203	0.8039	0.4404	-0.191
Mof_H 	H 	0.3566	0.7803	0.4679	0.099
Mof_C 	C 	0.513	0.8412	0.6275	0.464
Mof_C 	C 	0.7205	0.8807	0.2155	0.047
Mof_H 	H 	0.6968	0.8072	0.197	0.027
Mof_C 	C 	0.6444	0.957	0.139	0.416
Mof_C 	C 	0.8445	0.8924	0.2025	-0.428
Mof_H 	H 	0.8894	0.8424	0.2489	0.158
Mof_H 	H 	0.8696	0.9637	0.2216	0.108
Mof_H 	H 	0.853	0.8785	0.129	0.137
Mof_C 	C 	0.3086	0.795	0.1558	0.04
Mof_H 	H 	0.3401	0.8656	0.1448	0.008
Mof_C 	C 	0.3679	0.7134	0.0936	0.483
Mof_C 	C 	0.1815	0.7983	0.1165	-0.44
Mof_H 	H 	0.1472	0.8514	0.1563	0.154
Mof_H 	H 	0.149	0.7298	0.1273	0.155
Mof_H 	H 	0.168	0.8158	0.0412	0.128
Mof_C 	C 	0.9792	0.0465	0.91	0.075
Mof_C 	C 	0.0379	0.0487	0.0123	-0.243
Mof_H 	H 	0.0007	0.0348	0.0707	0.126
Mof_C 	C 	0.1537	0.0717	0.029	0.298
Mof_C 	C 	0.2096	0.0912	0.9426	-0.336
Mof_H 	H 	0.2869	0.1063	0.9538	0.153
Mof_C 	C 	0.1493	0.0881	0.8384	0.312
Mof_C 	C 	0.0332	0.0663	0.821	-0.232
Mof_H 	H 	0.9926	0.065	0.7516	0.142
Mof_C 	C 	0.8541	0.02	0.8921	0.34
Mof_C 	C 	0.3129	0.0724	0.7502	0.276
Mof_H 	H 	0.3636	0.1188	0.7987	-0.047
Mof_C 	C 	0.3267	0.9575	0.7899	0.245
Mof_C 	C 	0.3413	0.0811	0.638	-0.729
Mof_H 	H 	0.325	0.1521	0.6112	0.259
Mof_H 	H 	0.2965	0.0308	0.5919	0.264
Mof_H 	H 	0.4204	0.066	0.6392	0.248
Mof_C 	C 	0.3183	0.0999	0.1636	0.159
Mof_H 	H 	0.3659	0.0535	0.1264	-0.013
Mof_C 	C 	0.3377	0.2159	0.1358	0.321
Mof_C 	C 	0.3489	0.0851	0.2841	-0.588
Mof_H 	H 	0.3379	0.0118	0.3022	0.232
Mof_H 	H 	0.3013	0.1298	0.3203	0.205
Mof_H 	H 	0.427	0.1043	0.3063	0.188
Mof_O 	O 	0.4365	0.7861	0.6617	-0.577
Mof_O 	O 	0.5837	0.8976	0.6855	-0.6
Mof_O 	O 	0.712	0.8981	0.3242	-0.279
Mof_O 	O 	0.621	0.0445	0.1738	-0.567
Mof_O 	O 	0.6106	0.9208	0.0458	-0.603
Mof_O 	O 	0.3219	0.7749	0.2675	-0.262
Mof_O 	O 	0.3743	0.7377	0.9983	-0.629
Mof_O 	O 	0.4073	0.6287	0.1403	-0.599
Mof_O 	O 	0.8043	0.9967	0.8002	-0.515
Mof_O 	O 	0.8023	0.0217	0.9724	-0.467
Mof_O 	O 	0.203	0.07	0.1355	-0.273
Mof_O 	O 	0.2567	0.2808	0.1236	-0.468
Mof_O 	O 	0.4384	0.2456	0.1295	-0.638
Mof_O 	O 	0.1981	0.1059	0.7485	-0.297
Mof_O 	O 	0.2497	0.8915	0.7664	-0.498
Mof_O 	O 	0.423	0.9317	0.8438	-0.63
Mof_O 	O 	0.2377	0.6656	0.6492	-0.898
Mof_H 	H 	0.2299	0.6089	0.6852	0.281
Mof_H 	H 	0.197	0.6608	0.5873	0.373
Mof_Sm	Sm	0.62751	0.94591	0.86789	2.423
Mof_Sm	Sm	0.35831	0.72916	0.81213	2.428
_end
