data_functionalizedCrystal
_audit_creation_method	'EQeq! by Chris Wilmer'
_symmetry_space_group_name_H-M	'P1'
_symmetry_Int_Tables_number	1
_symmetry_cell_setting	triclinic
loop_
_symmetry_equiv_pos_as_xyz
  x,y,z
_cell_length_a	6.0812
_cell_length_b	12.3887
_cell_length_c	23.472
_cell_angle_alpha	90
_cell_angle_beta	90
_cell_angle_gamma	94.3221
loop_
_atom_site_label
_atom_site_type_symbol
_atom_site_fract_x
_atom_site_fract_y
_atom_site_fract_z
_atom_site_charge
Mof_Ho	Ho	0.00869	0.60917	0.831	2.027
Mof_Ho	Ho	0.50869	0.10917	0.669	2.07
Mof_Ho	Ho	0.99131	0.39083	0.169	2.115
Mof_Ho	Ho	0.49131	0.89083	0.331	2.154
Mof_Cu	Cu	1.14434e-18	0.5	0.5	0.917
Mof_Cu	Cu	0.5	0	-0	0.897
Mof_H 	H 	0.5302	0.7751	0.8372	0.042
Mof_H 	H 	0.8715	0.3983	0.8604	0.37
Mof_H 	H 	0.1285	0.6017	0.1396	0.385
Mof_H 	H 	0.1755	0.6435	0.6041	0.046
Mof_H 	H 	0.5554	0.3747	0.3287	0.051
Mof_H 	H 	0.6755	0.1435	0.8959	0.049
Mof_H 	H 	0.2125	0.1517	0.5636	0.381
Mof_H 	H 	0.3715	0.8983	0.6396	0.382
Mof_H 	H 	0.6576	0.5928	0.8853	0.345
Mof_H 	H 	0.8424	0.9072	0.3853	0.357
Mof_H 	H 	0.4698	0.2249	0.1628	0.038
Mof_H 	H 	0.7875	0.8483	0.4364	0.405
Mof_H 	H 	0.1123	0.5777	0.2934	0.02
Mof_H 	H 	0.0554	0.8747	0.1713	0.039
Mof_H 	H 	0.6123	0.0777	0.2066	0.023
Mof_H 	H 	0.6285	0.1017	0.3604	0.384
Mof_H 	H 	0.5951	0.9239	0.6398	0.322
Mof_H 	H 	0.3245	0.8565	0.1041	0.057
Mof_H 	H 	0.7125	0.6517	0.9364	0.394
Mof_H 	H 	0.1576	0.0928	0.6147	0.33
Mof_H 	H 	0.2875	0.3483	0.0636	0.388
Mof_H 	H 	0.4446	0.6253	0.6713	0.054
Mof_H 	H 	0.9446	0.1253	0.8287	0.062
Mof_H 	H 	0.0951	0.4239	0.8602	0.281
Mof_H 	H 	0.3424	0.4072	0.1147	0.343
Mof_H 	H 	0.3877	0.9223	0.7934	0.034
Mof_H 	H 	0.9698	0.7249	0.3372	0.045
Mof_H 	H 	0.9049	0.5761	0.1398	0.323
Mof_H 	H 	0.8245	0.3565	0.3959	0.053
Mof_H 	H 	0.0302	0.2751	0.6628	0.015
Mof_H 	H 	0.8877	0.4223	0.7066	0.08
Mof_H 	H 	0.4049	0.0761	0.3602	0.313
Mof_C 	C 	0.8183	0.8561	0.9926	0.308
Mof_C 	C 	0.6817	0.6439	0.4926	0.283
Mof_C 	C 	0.4745	0.0985	0.2174	0.017
Mof_C 	C 	0.1817	0.1439	0.0074	0.254
Mof_C 	C 	0.5255	0.9015	0.7826	0.025
Mof_C 	C 	0.0951	0.1734	0.2518	-0.017
Mof_C 	C 	0.306	0.6628	0.4055	0.456
Mof_C 	C 	0.5328	0.4251	0.5965	-0.046
Mof_C 	C 	0.1584	0.0729	0.2702	-0.096
Mof_C 	C 	0.3639	0.434	0.5564	-0.007
Mof_C 	C 	0.8639	0.934	0.9436	0.058
Mof_C 	C 	0.4101	0.7321	0.2218	0.356
Mof_C 	C 	0.7648	0.086	0.8985	0.038
Mof_C 	C 	0.9101	0.2321	0.2782	0.353
Mof_C 	C 	0.4285	0.5752	0.6418	0.016
Mof_C 	C 	0.1361	0.066	0.0564	-0.042
Mof_C 	C 	0.9049	0.8266	0.7482	0.019
Mof_C 	C 	0.7352	0.414	0.3985	0.028
Mof_C 	C 	0.9745	0.5985	0.2826	0.036
Mof_C 	C 	0.5899	0.2679	0.7782	0.351
Mof_C 	C 	0.4839	0.5103	0.8039	0.428
Mof_C 	C 	0.6584	0.5729	0.2298	-0.066
Mof_C 	C 	0.0255	0.4015	0.7174	-0.06
Mof_C 	C 	0.3183	0.3561	0.5074	0.285
Mof_C 	C 	0.4672	0.5749	0.4035	-0.051
Mof_C 	C 	0.5951	0.6734	0.2482	-0.019
Mof_C 	C 	0.4049	0.3266	0.7518	-0.017
Mof_C 	C 	0.3416	0.4271	0.7702	-0.065
Mof_C 	C 	0.6361	0.566	0.4436	-0
Mof_C 	C 	0.2648	0.586	0.6015	0.027
Mof_C 	C 	0.8937	0.6905	0.3071	0.03
Mof_C 	C 	0.694	0.3372	0.5945	0.447
Mof_C 	C 	0.9285	0.0752	0.8582	-0
Mof_C 	C 	0.3937	0.1905	0.1929	0.035
Mof_C 	C 	0.194	0.8372	0.9055	0.452
Mof_C 	C 	0.9672	0.0749	0.0965	-0.041
Mof_C 	C 	0.5715	0.4248	0.3582	0.016
Mof_C 	C 	0.0328	0.9251	0.9035	-0.079
Mof_C 	C 	0.0899	0.7679	0.7218	0.318
Mof_C 	C 	0.2352	0.914	0.1015	0.009
Mof_C 	C 	0.5161	0.4897	0.1961	0.436
Mof_C 	C 	0.8416	0.9271	0.7298	-0.046
Mof_C 	C 	0.1063	0.3095	0.6929	0.068
Mof_C 	C 	0.0161	0.9897	0.3039	0.46
Mof_C 	C 	0.806	0.1628	0.0945	0.449
Mof_C 	C 	0.6063	0.8095	0.8071	0.038
Mof_C 	C 	0.0715	0.9248	0.1418	0.061
Mof_C 	C 	0.9839	0.0103	0.6961	0.445
Mof_N 	N 	0.7901	0.7704	0.788	-0.175
Mof_N 	N 	0.2349	0.5157	0.5596	-0.186
Mof_N 	N 	0.2651	0.9843	0.0596	-0.158
Mof_N 	N 	0.2901	0.2704	0.712	-0.188
Mof_N 	N 	0.4381	0.5039	0.3602	-0.091
Mof_N 	N 	0.1437	0.4602	0.7561	-0.166
Mof_N 	N 	0.2099	0.2296	0.212	-0.183
Mof_N 	N 	0.7349	0.0157	0.9404	-0.201
Mof_N 	N 	0.6437	0.9602	0.7439	-0.168
Mof_N 	N 	0.5619	0.4961	0.6398	-0.088
Mof_N 	N 	0.3563	0.0398	0.2561	-0.186
Mof_N 	N 	0.9381	0.0039	0.1398	-0.117
Mof_N 	N 	0.0619	0.9961	0.8602	-0.079
Mof_N 	N 	0.7099	0.7296	0.288	-0.181
Mof_N 	N 	0.8563	0.5398	0.2439	-0.18
Mof_N 	N 	0.7651	0.4843	0.4404	-0.179
Mof_O 	O 	0.1208	0.9323	0.3377	-0.529
Mof_O 	O 	0.8551	0.3537	0.5626	-0.336
Mof_O 	O 	0.3551	0.8537	0.9374	-0.337
Mof_O 	O 	0.7451	0.6408	0.9009	-0.854
Mof_O 	O 	0.2549	0.3592	0.0991	-0.875
Mof_O 	O 	0.8469	0.2051	0.327	-0.306
Mof_O 	O 	0.7549	0.8592	0.4009	-0.883
Mof_O 	O 	0.1841	0.021	0.7064	-0.557
Mof_O 	O 	0.6449	0.1463	0.0626	-0.36
Mof_O 	O 	0.3245	0.1139	0.9716	-0.323
Mof_O 	O 	0.8245	0.6139	0.5284	-0.333
Mof_O 	O 	0.1575	0.6908	0.7501	-0.472
Mof_O 	O 	0.1755	0.3861	0.4716	-0.355
Mof_O 	O 	0.3159	0.479	0.2064	-0.526
Mof_O 	O 	0.6575	0.1908	0.7499	-0.478
Mof_O 	O 	0.0893	0.2282	0.0043	-0.257
Mof_O 	O 	0.8159	0.979	0.2936	-0.513
Mof_O 	O 	0.9744	0.4388	0.8756	-0.796
Mof_O 	O 	0.8425	0.3092	0.2499	-0.483
Mof_O 	O 	0.3792	0.5677	0.8377	-0.511
Mof_O 	O 	0.3425	0.8092	0.2501	-0.484
Mof_O 	O 	0.8792	0.0677	0.6623	-0.519
Mof_O 	O 	0.9107	0.7718	0.9957	-0.228
Mof_O 	O 	0.6569	0.2596	0.6274	-0.513
Mof_O 	O 	0.3469	0.7051	0.173	-0.306
Mof_O 	O 	0.4107	0.2718	0.5043	-0.249
Mof_O 	O 	0.5893	0.7282	0.4957	-0.24
Mof_O 	O 	0.3431	0.7404	0.3726	-0.531
Mof_O 	O 	0.5256	0.0612	0.3756	-0.886
Mof_O 	O 	0.1449	0.6463	0.4374	-0.359
Mof_O 	O 	0.2451	0.1408	0.5991	-0.864
Mof_O 	O 	0.1531	0.7949	0.673	-0.297
Mof_O 	O 	0.1569	0.7596	0.8726	-0.521
Mof_O 	O 	0.6755	0.8861	0.0284	-0.361
Mof_O 	O 	0.6841	0.521	0.7936	-0.503
Mof_O 	O 	0.0256	0.5612	0.1244	-0.88
Mof_O 	O 	0.6531	0.2949	0.827	-0.296
Mof_O 	O 	0.8431	0.2404	0.1274	-0.523
Mof_O 	O 	0.4744	0.9388	0.6244	-0.846
Mof_O 	O 	0.6208	0.4323	0.1623	-0.525
_end
