# CIF file generated by openbabel 3.1.0, see https://openbabel.org
data_I
_chemical_name_common 'image0'
_cell_length_a 13.6353
_cell_length_b 10.2259
_cell_length_c 17.6925
_cell_angle_alpha 90
_cell_angle_beta 90.704
_cell_angle_gamma 90
_space_group_name_H-M_alt 'P 1'
_space_group_name_Hall 'P 1'
loop_
    _symmetry_equiv_pos_as_xyz
    x,y,z
loop_
    _atom_site_label
    _atom_site_type_symbol
    _atom_site_fract_x
    _atom_site_fract_y
    _atom_site_fract_z
    _atom_site_occupancy
    Mn1      Mn       0.38998    0.92028    0.96582    1.000
    Mn2      Mn       0.15231    0.07019    0.98044    1.000
    O1       O        0.39003    0.06607    0.88339    1.000
    O2       O        0.32015    0.79610    0.88709    1.000
    O3       O        0.30207    0.47525    0.55193    1.000
    O4       O        0.25122    0.17252    0.90529    1.000
    O5       O        0.18200    0.89201    0.92125    1.000
    O6       O        0.09025    0.52068    0.57364    1.000
    O7       O        0.45454    0.41015    0.55139    1.000
    O8       O        0.95763    0.63740    0.59482    1.000
    C1       C        0.23073    0.82370    0.87702    1.000
    C2       C        0.18104    0.76760    0.80777    1.000
    C3       C        0.23636    0.70910    0.75228    1.000
    H1       H        0.30420    0.70500    0.75800    1.000
    C4       C        0.19228    0.65660    0.68834    1.000
    H2       H        0.23060    0.61790    0.65140    1.000
    C5       C        0.09124    0.66150    0.67908    1.000
    C6       C        0.03637    0.72180    0.73425    1.000
    H3       H        0.96860    0.72650    0.72840    1.000
    C7       C        0.08052    0.77530    0.79817    1.000
    H4       H        0.04250    0.81640    0.83450    1.000
    C8       C        0.32429    0.14670    0.86665    1.000
    C9       C        0.33688    0.21940    0.79365    1.000
    C10      C        0.42910    0.22820    0.76131    1.000
    H5       H        0.48300    0.19000    0.78530    1.000
    C11      C        0.44082    0.29320    0.69383    1.000
    H6       H        0.50290    0.30180    0.67330    1.000
    C12      C        0.35942    0.34630    0.65630    1.000
    C13      C        0.26732    0.33750    0.68817    1.000
    H7       H        0.21290    0.37250    0.66330    1.000
    C14      C        0.25711    0.27590    0.75761    1.000
    H8       H        0.19580    0.27270    0.78010    1.000
    C15      C        0.37261    0.41360    0.58246    1.000
    C16      C        0.04282    0.60180    0.60990    1.000
    Mn3      Mn       0.61002    0.42028    0.53418    1.000
    Mn4      Mn       0.84769    0.57019    0.51956    1.000
    O9       O        0.60997    0.56607    0.61661    1.000
    O10      O        0.67985    0.29610    0.61291    1.000
    O11      O        0.69793    0.97525    0.94807    1.000
    O12      O        0.74878    0.67252    0.59471    1.000
    O13      O        0.81800    0.39201    0.57875    1.000
    O14      O        0.90975    0.02068    0.92636    1.000
    O15      O        0.54546    0.91015    0.94861    1.000
    O16      O        0.04237    0.13740    0.90518    1.000
    C17      C        0.76927    0.32370    0.62298    1.000
    C18      C        0.81896    0.26760    0.69223    1.000
    C19      C        0.76364    0.20910    0.74772    1.000
    H9       H        0.69580    0.20500    0.74200    1.000
    C20      C        0.80772    0.15660    0.81166    1.000
    H10      H        0.76940    0.11790    0.84860    1.000
    C21      C        0.90876    0.16150    0.82092    1.000
    C22      C        0.96363    0.22180    0.76575    1.000
    H11      H        0.03140    0.22650    0.77160    1.000
    C23      C        0.91948    0.27530    0.70183    1.000
    H12      H        0.95750    0.31640    0.66550    1.000
    C24      C        0.67571    0.64670    0.63335    1.000
    C25      C        0.66312    0.71940    0.70635    1.000
    C26      C        0.57090    0.72820    0.73869    1.000
    H13      H        0.51700    0.69000    0.71470    1.000
    C27      C        0.55918    0.79320    0.80617    1.000
    H14      H        0.49710    0.80180    0.82670    1.000
    C28      C        0.64058    0.84630    0.84370    1.000
    C29      C        0.73268    0.83750    0.81183    1.000
    H15      H        0.78710    0.87250    0.83670    1.000
    C30      C        0.74289    0.77590    0.74239    1.000
    H16      H        0.80420    0.77270    0.71990    1.000
    C31      C        0.62739    0.91360    0.91754    1.000
    C32      C        0.95718    0.10180    0.89010    1.000
    Mn5      Mn       0.61002    0.07972    0.03418    1.000
    Mn6      Mn       0.84769    0.92981    0.01956    1.000
    O17      O        0.60997    0.93393    0.11661    1.000
    O18      O        0.67985    0.20390    0.11291    1.000
    O19      O        0.69793    0.52475    0.44807    1.000
    O20      O        0.74878    0.82748    0.09471    1.000
    O21      O        0.81800    0.10799    0.07875    1.000
    O22      O        0.90975    0.47932    0.42636    1.000
    O23      O        0.54546    0.58985    0.44861    1.000
    O24      O        0.04237    0.36260    0.40518    1.000
    C33      C        0.76927    0.17630    0.12298    1.000
    C34      C        0.81896    0.23240    0.19223    1.000
    C35      C        0.76364    0.29090    0.24772    1.000
    H17      H        0.69580    0.29500    0.24200    1.000
    C36      C        0.80772    0.34340    0.31166    1.000
    H18      H        0.76940    0.38210    0.34860    1.000
    C37      C        0.90876    0.33850    0.32092    1.000
    C38      C        0.96363    0.27820    0.26575    1.000
    H19      H        0.03140    0.27350    0.27160    1.000
    C39      C        0.91948    0.22470    0.20183    1.000
    H20      H        0.95750    0.18360    0.16550    1.000
    C40      C        0.67571    0.85330    0.13335    1.000
    C41      C        0.66312    0.78060    0.20635    1.000
    C42      C        0.57090    0.77180    0.23869    1.000
    H21      H        0.51700    0.81000    0.21470    1.000
    C43      C        0.55918    0.70680    0.30617    1.000
    H22      H        0.49710    0.69820    0.32670    1.000
    C44      C        0.64058    0.65370    0.34370    1.000
    C45      C        0.73268    0.66250    0.31183    1.000
    H23      H        0.78710    0.62750    0.33670    1.000
    C46      C        0.74289    0.72410    0.24239    1.000
    H24      H        0.80420    0.72730    0.21990    1.000
    C47      C        0.62739    0.58640    0.41754    1.000
    C48      C        0.95718    0.39820    0.39010    1.000
    Mn7      Mn       0.38998    0.57972    0.46582    1.000
    Mn8      Mn       0.15231    0.42981    0.48044    1.000
    O25      O        0.39003    0.43393    0.38339    1.000
    O26      O        0.32015    0.70390    0.38709    1.000
    O27      O        0.30207    0.02475    0.05193    1.000
    O28      O        0.25122    0.32748    0.40529    1.000
    O29      O        0.18200    0.60799    0.42125    1.000
    O30      O        0.09025    0.97932    0.07364    1.000
    O31      O        0.45454    0.08985    0.05139    1.000
    O32      O        0.95763    0.86260    0.09482    1.000
    C49      C        0.23073    0.67630    0.37702    1.000
    C50      C        0.18104    0.73240    0.30777    1.000
    C51      C        0.23636    0.79090    0.25228    1.000
    H25      H        0.30420    0.79500    0.25800    1.000
    C52      C        0.19228    0.84340    0.18834    1.000
    H26      H        0.23060    0.88210    0.15140    1.000
    C53      C        0.09124    0.83850    0.17908    1.000
    C54      C        0.03637    0.77820    0.23425    1.000
    H27      H        0.96860    0.77350    0.22840    1.000
    C55      C        0.08052    0.72470    0.29817    1.000
    H28      H        0.04250    0.68360    0.33450    1.000
    C56      C        0.32429    0.35330    0.36665    1.000
    C57      C        0.33688    0.28060    0.29365    1.000
    C58      C        0.42910    0.27180    0.26131    1.000
    H29      H        0.48300    0.31000    0.28530    1.000
    C59      C        0.44082    0.20680    0.19383    1.000
    H30      H        0.50290    0.19820    0.17330    1.000
    C60      C        0.35942    0.15370    0.15630    1.000
    C61      C        0.26732    0.16250    0.18817    1.000
    H31      H        0.21290    0.12750    0.16330    1.000
    C62      C        0.25711    0.22410    0.25761    1.000
    H32      H        0.19580    0.22730    0.28010    1.000
    C63      C        0.37261    0.08640    0.08246    1.000
    C64      C        0.04282    0.89820    0.10990    1.000
