# CIF file generated by openbabel 3.1.0, see https://openbabel.org
data_I
_chemical_name_common 'NOQKOV_clean'
_cell_length_a 11.5618
_cell_length_b 11.8493
_cell_length_c 15.7206
_cell_angle_alpha 76.325
_cell_angle_beta 71.246
_cell_angle_gamma 65.33
_space_group_name_H-M_alt 'P 1'
_space_group_name_Hall 'P 1'
loop_
    _symmetry_equiv_pos_as_xyz
    x,y,z
loop_
    _atom_site_label
    _atom_site_type_symbol
    _atom_site_fract_x
    _atom_site_fract_y
    _atom_site_fract_z
    _atom_site_occupancy
    Co1      Co       0.50000    0.50000    0.00000    1.000
    Co2      Co       0.00000    0.50000    0.00000    1.000
    Co3      Co       0.00000    0.00000    0.00000    1.000
    H1       H        0.41210    0.55190    0.20260    1.000
    H2       H        0.95410    0.68650    0.55330    1.000
    H3       H        0.38200    0.45090    0.34590    1.000
    H4       H        0.32260    0.09990    0.37750    1.000
    H5       H        0.15820    0.33790    0.14360    1.000
    H6       H        0.29950    0.80590    0.05700    1.000
    H7       H        0.15820    0.33120    0.29110    1.000
    H8       H        0.12400    0.33040    0.84890    1.000
    H9       H        0.13080    0.32630    0.70210    1.000
    H10      H        0.90480    0.93950    0.34370    1.000
    H11      H        0.98760    0.02130    0.80490    1.000
    H12      H        0.45840    0.30440    0.46470    1.000
    H13      H        0.37910    0.07710    0.74190    1.000
    H14      H        0.01240    0.97870    0.19510    1.000
    H15      H        0.04590    0.31350    0.44670    1.000
    H16      H        0.61130    0.77830    0.38670    1.000
    H17      H        0.02670    0.31370    0.59900    1.000
    H18      H        0.48740    0.24740    0.10110    1.000
    H19      H        0.26820    0.03410    0.88880    1.000
    H20      H        0.67740    0.90010    0.62250    1.000
    H21      H        0.45680    0.13920    0.24220    1.000
    H22      H        0.84180    0.66210    0.85640    1.000
    H23      H        0.62090    0.92290    0.25810    1.000
    H24      H        0.09520    0.06050    0.65630    1.000
    H25      H        0.25750    0.01570    0.52600    1.000
    H26      H        0.73180    0.96590    0.11120    1.000
    H27      H        0.61800    0.54910    0.65410    1.000
    H28      H        0.51260    0.75260    0.89890    1.000
    H29      H        0.58790    0.44810    0.79740    1.000
    H30      H        0.54320    0.86080    0.75780    1.000
    H31      H        0.84180    0.66880    0.70890    1.000
    H32      H        0.87600    0.66960    0.15110    1.000
    H33      H        0.70050    0.19410    0.94300    1.000
    H34      H        0.97330    0.68630    0.40100    1.000
    H35      H        0.54160    0.69560    0.53530    1.000
    H36      H        0.86920    0.67370    0.29790    1.000
    H37      H        0.74250    0.98430    0.47400    1.000
    H38      H        0.38870    0.22170    0.61330    1.000
    C1       C        0.27100    0.49700    0.96500    1.000
    C2       C        0.22920    0.62390    0.99350    1.000
    C3       C        0.70160    0.93380    0.24680    1.000
    C4       C        0.75160    0.92380    0.31880    1.000
    C5       C        0.93450    0.59940    0.17990    1.000
    C6       C        0.31140    0.11460    0.58460    1.000
    C7       C        0.88170    0.26670    0.00650    1.000
    C8       C        0.46530    0.28950    0.15190    1.000
    C9       C        0.86780    0.94310    0.29680    1.000
    C10      C        0.44740    0.22410    0.23610    1.000
    C11      C        0.92950    0.60270    0.26800    1.000
    C12      C        0.97360    0.61060    0.53160    1.000
    C13      C        0.76830    0.95940    0.15920    1.000
    C14      C        0.01310    0.50170    0.31310    1.000
    C15      C        0.68860    0.88540    0.41540    1.000
    C16      C        0.42190    0.46670    0.21060    1.000
    C17      C        0.99240    0.49980    0.59110    1.000
    C18      C        0.72900    0.50300    0.03500    1.000
    C19      C        0.25980    0.76530    0.03630    1.000
    C20      C        0.74020    0.23470    0.96370    1.000
    C21      C        0.98970    0.77160    0.97210    1.000
    C22      C        0.41380    0.24850    0.47700    1.000
    C23      C        0.58620    0.75150    0.52300    1.000
    C24      C        0.13220    0.05690    0.70320    1.000
    C25      C        0.06840    0.03260    0.79220    1.000
    C26      C        0.98320    0.61090    0.44120    1.000
    C27      C        0.59650    0.59320    0.70370    1.000
    C28      C        0.09880    0.40250    0.26380    1.000
    C29      C        0.01680    0.38910    0.55880    1.000
    C30      C        0.01030    0.22840    0.02790    1.000
    C31      C        0.29550    0.07700    0.51390    1.000
    C32      C        0.98690    0.49830    0.68690    1.000
    C33      C        0.93160    0.96740    0.20780    1.000
    C34      C        0.61110    0.78290    0.59430    1.000
    C35      C        0.07050    0.39730    0.73200    1.000
    C36      C        0.33400    0.12730    0.42530    1.000
    C37      C        0.90120    0.59750    0.73620    1.000
    C38      C        0.11830    0.73330    0.99350    1.000
    C39      C        0.29840    0.06620    0.75320    1.000
    C40      C        0.58450    0.71910    0.68710    1.000
    C41      C        0.57810    0.53330    0.78940    1.000
    C42      C        0.53470    0.71050    0.84810    1.000
    C43      C        0.24840    0.07620    0.68120    1.000
    C44      C        0.55260    0.77590    0.76390    1.000
    C45      C        0.37340    0.19820    0.56540    1.000
    C46      C        0.06550    0.40060    0.82010    1.000
    C47      C        0.41550    0.28090    0.31290    1.000
    C48      C        0.70450    0.92300    0.48610    1.000
    C49      C        0.77080    0.37610    0.00650    1.000
    C50      C        0.90210    0.59300    0.82430    1.000
    C51      C        0.09790    0.40700    0.17570    1.000
    C52      C        0.23170    0.04060    0.84080    1.000
    C53      C        0.00760    0.50020    0.40890    1.000
    C54      C        0.02640    0.38940    0.46840    1.000
    C55      C        0.40350    0.40680    0.29630    1.000
    C56      C        0.66600    0.87270    0.57470    1.000
    C57      C        0.38890    0.21710    0.40570    1.000
    C58      C        0.62660    0.80180    0.43460    1.000
    N1       N        0.01600    0.50410    0.13240    1.000
    N2       N        0.68220    0.35450    0.97920    1.000
    N3       N        0.88300    0.97570    0.13890    1.000
    N4       N        0.31780    0.64550    0.02080    1.000
    N5       N        0.98400    0.49590    0.86760    1.000
    N6       N        0.11700    0.02430    0.86110    1.000
    N7       N        0.13990    0.82310    0.01990    1.000
    N8       N        0.45330    0.41100    0.13660    1.000
    N9       N        0.86010    0.17690    0.98010    1.000
    N10      N        0.54670    0.58900    0.86340    1.000
    O1       O        0.19460    0.46810    0.94220    1.000
    O2       O        0.05500    0.30610    0.03210    1.000
    O3       O        0.38950    0.42540    0.96290    1.000
    O4       O        0.94500    0.69390    0.96790    1.000
    O5       O        0.80540    0.53190    0.05780    1.000
    O6       O        0.07420    0.10980    0.03890    1.000
    O7       O        0.92580    0.89020    0.96110    1.000
    O8       O        0.61050    0.57460    0.03710    1.000
