data_functionalizedCrystal
_audit_creation_method	'EQeq! by Chris Wilmer'
_symmetry_space_group_name_H-M	'P1'
_symmetry_Int_Tables_number	1
_symmetry_cell_setting	triclinic
loop_
_symmetry_equiv_pos_as_xyz
  x,y,z
_cell_length_a	15.0597
_cell_length_b	26.9731
_cell_length_c	31.2339
_cell_angle_alpha	90
_cell_angle_beta	90
_cell_angle_gamma	90
loop_
_atom_site_label
_atom_site_type_symbol
_atom_site_fract_x
_atom_site_fract_y
_atom_site_fract_z
_atom_site_charge
Mof_O 	O 	0.854	0.4341	0.1212	-0.499
Mof_O 	O 	0.9895	0.4107	0.1076	-0.5
Mof_O 	O 	0.0111	0.5877	0.2851	-0.51
Mof_O 	O 	0.1475	0.565	0.2721	-0.561
Mof_C 	C 	0.9368	0.4368	0.1281	0.296
Mof_C 	C 	0.0653	0.5613	0.2642	0.354
Mof_C 	C 	0.0319	0.5284	0.2296	-0.144
Mof_C 	C 	0.9688	0.4695	0.1632	-0.005
Mof_N 	N 	0.176	0.4828	0.2267	-0.266
Mof_H 	H 	0.2078	0.4598	0.2155	0.141
Mof_H 	H 	0.1971	0.5011	0.2467	0.143
Mof_C 	C 	0.9114	0.5061	0.1819	0
Mof_H 	H 	0.8532	0.5103	0.1726	0.033
Mof_C 	C 	0.9467	0.5345	0.214	0.033
Mof_H 	H 	0.9115	0.5593	0.2259	0.023
Mof_C 	C 	0.0863	0.4907	0.2118	0.083
Mof_C 	C 	0.0526	0.4616	0.1798	-0.096
Mof_H 	H 	0.0869	0.4358	0.169	0.082
Mof_N 	N 	0.178	0.521	0.198	-0.285
Mof_H 	H 	0.2001	0.5392	0.2181	0.158
Mof_H 	H 	0.2108	0.5095	0.1783	0.144
Mof_C 	C 	0.09	0.511	0.1985	0.106
Mof_C 	C 	0.9422	0.5164	0.2275	-0.02
Mof_H 	H 	0.9034	0.528	0.2484	0.043
Mof_C 	C 	0.9107	0.4869	0.1943	-0.078
Mof_H 	H 	0.8507	0.4789	0.1929	0.062
Mof_C 	C 	0.0584	0.4815	0.1652	-0.047
Mof_H 	H 	0.0973	0.4699	0.1444	0.047
Mof_O 	O 	0.854	0.9341	0.6212	-0.5
Mof_O 	O 	0.9895	0.9107	0.6076	-0.501
Mof_O 	O 	0.0111	0.0877	0.7851	-0.511
Mof_O 	O 	0.1475	0.065	0.7721	-0.562
Mof_C 	C 	0.9368	0.9368	0.6281	0.295
Mof_C 	C 	0.0653	0.0613	0.7642	0.353
Mof_C 	C 	0.0319	0.0284	0.7296	-0.145
Mof_C 	C 	0.9688	0.9695	0.6632	-0.006
Mof_N 	N 	0.176	0.9828	0.7267	-0.267
Mof_H 	H 	0.2078	0.9598	0.7155	0.14
Mof_H 	H 	0.1971	0.0011	0.7467	0.142
Mof_C 	C 	0.9114	0.0061	0.6819	0
Mof_H 	H 	0.8532	0.0103	0.6726	0.033
Mof_C 	C 	0.9467	0.0345	0.714	0.034
Mof_H 	H 	0.9115	0.0593	0.7259	0.023
Mof_C 	C 	0.0863	0.9907	0.7118	0.082
Mof_C 	C 	0.0526	0.9616	0.6798	-0.097
Mof_H 	H 	0.0869	0.9358	0.669	0.082
Mof_N 	N 	0.178	0.021	0.698	-0.285
Mof_H 	H 	0.2001	0.0392	0.7181	0.158
Mof_H 	H 	0.2108	0.0095	0.6783	0.144
Mof_C 	C 	0.09	0.011	0.6985	0.107
Mof_C 	C 	0.9422	0.0164	0.7275	-0.021
Mof_H 	H 	0.9034	0.028	0.7484	0.043
Mof_C 	C 	0.9107	0.9869	0.6943	-0.078
Mof_H 	H 	0.8507	0.9789	0.6929	0.062
Mof_C 	C 	0.0584	0.9815	0.6652	-0.045
Mof_H 	H 	0.0973	0.9699	0.6444	0.046
Mof_O 	O 	0.354	0.4341	0.6212	-0.5
Mof_O 	O 	0.4895	0.4107	0.6076	-0.501
Mof_O 	O 	0.5111	0.5877	0.7851	-0.511
Mof_O 	O 	0.6475	0.565	0.7721	-0.562
Mof_C 	C 	0.4368	0.4368	0.6281	0.295
Mof_C 	C 	0.5653	0.5613	0.7642	0.353
Mof_C 	C 	0.5319	0.5284	0.7296	-0.145
Mof_C 	C 	0.4688	0.4695	0.6632	-0.006
Mof_N 	N 	0.676	0.4828	0.7267	-0.267
Mof_H 	H 	0.7078	0.4598	0.7155	0.14
Mof_H 	H 	0.6971	0.5011	0.7467	0.142
Mof_C 	C 	0.4114	0.5061	0.6819	-0.001
Mof_H 	H 	0.3532	0.5103	0.6726	0.033
Mof_C 	C 	0.4467	0.5345	0.714	0.033
Mof_H 	H 	0.4115	0.5593	0.7259	0.024
Mof_C 	C 	0.5863	0.4907	0.7118	0.083
Mof_C 	C 	0.5526	0.4616	0.6798	-0.096
Mof_H 	H 	0.5869	0.4358	0.669	0.082
Mof_N 	N 	0.678	0.521	0.698	-0.285
Mof_H 	H 	0.7001	0.5392	0.7181	0.158
Mof_H 	H 	0.7108	0.5095	0.6783	0.144
Mof_C 	C 	0.59	0.511	0.6985	0.106
Mof_C 	C 	0.4422	0.5164	0.7275	-0.02
Mof_H 	H 	0.4034	0.528	0.7484	0.043
Mof_C 	C 	0.4107	0.4869	0.6943	-0.078
Mof_H 	H 	0.3507	0.4789	0.6929	0.062
Mof_C 	C 	0.5584	0.4815	0.6652	-0.047
Mof_H 	H 	0.5973	0.4699	0.6444	0.047
Mof_O 	O 	0.354	0.9341	0.1212	-0.5
Mof_O 	O 	0.4895	0.9107	0.1076	-0.501
Mof_O 	O 	0.5111	0.0877	0.2851	-0.511
Mof_O 	O 	0.6475	0.065	0.2721	-0.562
Mof_C 	C 	0.4368	0.9368	0.1281	0.295
Mof_C 	C 	0.5653	0.0613	0.2642	0.353
Mof_C 	C 	0.5319	0.0284	0.2296	-0.145
Mof_C 	C 	0.4688	0.9695	0.1632	-0.006
Mof_N 	N 	0.676	0.9828	0.2267	-0.267
Mof_H 	H 	0.7078	0.9598	0.2155	0.14
Mof_H 	H 	0.6971	0.0011	0.2467	0.141
Mof_C 	C 	0.4114	0.0061	0.1819	-0
Mof_H 	H 	0.3532	0.0103	0.1726	0.033
Mof_C 	C 	0.4467	0.0345	0.214	0.033
Mof_H 	H 	0.4115	0.0593	0.2259	0.024
Mof_C 	C 	0.5863	0.9907	0.2118	0.084
Mof_C 	C 	0.5526	0.9616	0.1798	-0.094
Mof_H 	H 	0.5869	0.9358	0.169	0.081
Mof_N 	N 	0.678	0.021	0.198	-0.284
Mof_H 	H 	0.7001	0.0392	0.2181	0.158
Mof_H 	H 	0.7108	0.0095	0.1783	0.144
Mof_C 	C 	0.59	0.011	0.1985	0.105
Mof_C 	C 	0.4422	0.0164	0.2275	-0.021
Mof_H 	H 	0.4034	0.028	0.2484	0.043
Mof_C 	C 	0.4107	0.9869	0.1943	-0.078
Mof_H 	H 	0.3507	0.9789	0.1929	0.062
Mof_C 	C 	0.5584	0.9815	0.1652	-0.048
Mof_H 	H 	0.5973	0.9699	0.1444	0.047
Mof_O 	O 	0.896	0.3159	0.1212	-0.5
Mof_O 	O 	0.7605	0.3393	0.1076	-0.501
Mof_O 	O 	0.7389	0.1623	0.2851	-0.511
Mof_O 	O 	0.6025	0.185	0.2721	-0.562
Mof_C 	C 	0.8132	0.3132	0.1281	0.295
Mof_C 	C 	0.6847	0.1887	0.2642	0.353
Mof_C 	C 	0.7181	0.2216	0.2296	-0.145
Mof_C 	C 	0.7812	0.2805	0.1632	-0.006
Mof_N 	N 	0.574	0.2672	0.2267	-0.267
Mof_H 	H 	0.5422	0.2902	0.2155	0.14
Mof_H 	H 	0.5529	0.2489	0.2467	0.142
Mof_C 	C 	0.8386	0.2439	0.1819	-0.001
Mof_H 	H 	0.8968	0.2397	0.1726	0.033
Mof_C 	C 	0.8033	0.2155	0.214	0.033
Mof_H 	H 	0.8385	0.1907	0.2259	0.023
Mof_C 	C 	0.6637	0.2593	0.2118	0.083
Mof_C 	C 	0.6974	0.2884	0.1798	-0.096
Mof_H 	H 	0.6631	0.3142	0.169	0.082
Mof_N 	N 	0.572	0.229	0.198	-0.285
Mof_H 	H 	0.5499	0.2108	0.2181	0.158
Mof_H 	H 	0.5392	0.2405	0.1783	0.144
Mof_C 	C 	0.66	0.239	0.1985	0.106
Mof_C 	C 	0.8078	0.2336	0.2275	-0.02
Mof_H 	H 	0.8466	0.222	0.2484	0.042
Mof_C 	C 	0.8393	0.2631	0.1943	-0.078
Mof_H 	H 	0.8993	0.2711	0.1929	0.062
Mof_C 	C 	0.6916	0.2685	0.1652	-0.047
Mof_H 	H 	0.6527	0.2801	0.1444	0.047
Mof_O 	O 	0.896	0.8159	0.6212	-0.5
Mof_O 	O 	0.7605	0.8393	0.6076	-0.501
Mof_O 	O 	0.7389	0.6623	0.7851	-0.511
Mof_O 	O 	0.6025	0.685	0.7721	-0.562
Mof_C 	C 	0.8132	0.8132	0.6281	0.295
Mof_C 	C 	0.6847	0.6887	0.7642	0.353
Mof_C 	C 	0.7181	0.7216	0.7296	-0.145
Mof_C 	C 	0.7812	0.7805	0.6632	-0.006
Mof_N 	N 	0.574	0.7672	0.7267	-0.267
Mof_H 	H 	0.5422	0.7902	0.7155	0.14
Mof_H 	H 	0.5529	0.7489	0.7467	0.142
Mof_C 	C 	0.8386	0.7439	0.6819	-0.001
Mof_H 	H 	0.8968	0.7397	0.6726	0.033
Mof_C 	C 	0.8033	0.7155	0.714	0.033
Mof_H 	H 	0.8385	0.6907	0.7259	0.023
Mof_C 	C 	0.6637	0.7593	0.7118	0.083
Mof_C 	C 	0.6974	0.7884	0.6798	-0.096
Mof_H 	H 	0.6631	0.8142	0.669	0.082
Mof_N 	N 	0.572	0.729	0.698	-0.285
Mof_H 	H 	0.5499	0.7108	0.7181	0.158
Mof_H 	H 	0.5392	0.7405	0.6783	0.144
Mof_C 	C 	0.66	0.739	0.6985	0.106
Mof_C 	C 	0.8078	0.7336	0.7275	-0.02
Mof_H 	H 	0.8466	0.722	0.7484	0.042
Mof_C 	C 	0.8393	0.7631	0.6943	-0.078
Mof_H 	H 	0.8993	0.7711	0.6929	0.062
Mof_C 	C 	0.6916	0.7685	0.6652	-0.047
Mof_H 	H 	0.6527	0.7801	0.6444	0.047
Mof_O 	O 	0.396	0.3159	0.6212	-0.5
Mof_O 	O 	0.2605	0.3393	0.6076	-0.501
Mof_O 	O 	0.2389	0.1623	0.7851	-0.511
Mof_O 	O 	0.1025	0.185	0.7721	-0.562
Mof_C 	C 	0.3132	0.3132	0.6281	0.295
Mof_C 	C 	0.1847	0.1887	0.7642	0.353
Mof_C 	C 	0.2181	0.2216	0.7296	-0.145
Mof_C 	C 	0.2812	0.2805	0.6632	-0.006
Mof_N 	N 	0.074	0.2672	0.7267	-0.267
Mof_H 	H 	0.0422	0.2902	0.7155	0.14
Mof_H 	H 	0.0529	0.2489	0.7467	0.142
Mof_C 	C 	0.3386	0.2439	0.6819	-0.001
Mof_H 	H 	0.3968	0.2397	0.6726	0.033
Mof_C 	C 	0.3033	0.2155	0.714	0.033
Mof_H 	H 	0.3385	0.1907	0.7259	0.024
Mof_C 	C 	0.1637	0.2593	0.7118	0.083
Mof_C 	C 	0.1974	0.2884	0.6798	-0.096
Mof_H 	H 	0.1631	0.3142	0.669	0.082
Mof_N 	N 	0.072	0.229	0.698	-0.285
Mof_H 	H 	0.0499	0.2108	0.7181	0.158
Mof_H 	H 	0.0392	0.2405	0.6783	0.144
Mof_C 	C 	0.16	0.239	0.6985	0.106
Mof_C 	C 	0.3078	0.2336	0.7275	-0.02
Mof_H 	H 	0.3466	0.222	0.7484	0.043
Mof_C 	C 	0.3393	0.2631	0.6943	-0.078
Mof_H 	H 	0.3993	0.2711	0.6929	0.062
Mof_C 	C 	0.1916	0.2685	0.6652	-0.047
Mof_H 	H 	0.1527	0.2801	0.6444	0.047
Mof_O 	O 	0.396	0.8159	0.1212	-0.5
Mof_O 	O 	0.2605	0.8393	0.1076	-0.501
Mof_O 	O 	0.2389	0.6623	0.2851	-0.511
Mof_O 	O 	0.1025	0.685	0.2721	-0.562
Mof_C 	C 	0.3132	0.8132	0.1281	0.295
Mof_C 	C 	0.1847	0.6887	0.2642	0.353
Mof_C 	C 	0.2181	0.7216	0.2296	-0.145
Mof_C 	C 	0.2812	0.7805	0.1632	-0.006
Mof_N 	N 	0.074	0.7672	0.2267	-0.267
Mof_H 	H 	0.0422	0.7902	0.2155	0.14
Mof_H 	H 	0.0529	0.7489	0.2467	0.142
Mof_C 	C 	0.3386	0.7439	0.1819	-0.001
Mof_H 	H 	0.3968	0.7397	0.1726	0.033
Mof_C 	C 	0.3033	0.7155	0.214	0.033
Mof_H 	H 	0.3385	0.6907	0.2259	0.024
Mof_C 	C 	0.1637	0.7593	0.2118	0.083
Mof_C 	C 	0.1974	0.7884	0.1798	-0.096
Mof_H 	H 	0.1631	0.8142	0.169	0.082
Mof_N 	N 	0.072	0.729	0.198	-0.285
Mof_H 	H 	0.0499	0.7108	0.2181	0.158
Mof_H 	H 	0.0392	0.7405	0.1783	0.144
Mof_C 	C 	0.16	0.739	0.1985	0.106
Mof_C 	C 	0.3078	0.7336	0.2275	-0.02
Mof_H 	H 	0.3466	0.722	0.2484	0.043
Mof_C 	C 	0.3393	0.7631	0.1943	-0.078
Mof_H 	H 	0.3993	0.7711	0.1929	0.062
Mof_C 	C 	0.1916	0.7685	0.1652	-0.047
Mof_H 	H 	0.1527	0.7801	0.1444	0.047
Mof_O 	O 	0.104	0.5659	0.3712	-0.5
Mof_O 	O 	0.2395	0.5893	0.3576	-0.501
Mof_O 	O 	0.2611	0.4123	0.5351	-0.511
Mof_O 	O 	0.3975	0.435	0.5221	-0.562
Mof_C 	C 	0.1868	0.5632	0.3781	0.295
Mof_C 	C 	0.3153	0.4387	0.5142	0.353
Mof_C 	C 	0.2819	0.4716	0.4796	-0.145
Mof_C 	C 	0.2188	0.5305	0.4132	-0.006
Mof_N 	N 	0.426	0.5172	0.4767	-0.267
Mof_H 	H 	0.4578	0.5402	0.4655	0.14
Mof_H 	H 	0.4471	0.4989	0.4967	0.142
Mof_C 	C 	0.1614	0.4939	0.4319	-0.001
Mof_H 	H 	0.1032	0.4897	0.4226	0.033
Mof_C 	C 	0.1967	0.4655	0.464	0.033
Mof_H 	H 	0.1615	0.4407	0.4759	0.023
Mof_C 	C 	0.3363	0.5093	0.4618	0.083
Mof_C 	C 	0.3026	0.5384	0.4298	-0.096
Mof_H 	H 	0.3369	0.5642	0.419	0.082
Mof_N 	N 	0.428	0.479	0.448	-0.285
Mof_H 	H 	0.4501	0.4608	0.4681	0.158
Mof_H 	H 	0.4608	0.4905	0.4283	0.144
Mof_C 	C 	0.34	0.489	0.4485	0.106
Mof_C 	C 	0.1922	0.4836	0.4775	-0.02
Mof_H 	H 	0.1534	0.472	0.4984	0.042
Mof_C 	C 	0.1607	0.5131	0.4443	-0.078
Mof_H 	H 	0.1007	0.5211	0.4429	0.062
Mof_C 	C 	0.3084	0.5185	0.4152	-0.047
Mof_H 	H 	0.3473	0.5301	0.3944	0.047
Mof_O 	O 	0.104	0.0659	0.8712	-0.5
Mof_O 	O 	0.2395	0.0893	0.8576	-0.501
Mof_O 	O 	0.2611	0.9123	0.0351	-0.511
Mof_O 	O 	0.3975	0.935	0.0221	-0.562
Mof_C 	C 	0.1868	0.0632	0.8781	0.295
Mof_C 	C 	0.3153	0.9387	0.0142	0.353
Mof_C 	C 	0.2819	0.9716	0.9796	-0.145
Mof_C 	C 	0.2188	0.0305	0.9132	-0.006
Mof_N 	N 	0.426	0.0172	0.9767	-0.267
Mof_H 	H 	0.4578	0.0402	0.9655	0.14
Mof_H 	H 	0.4471	0.9989	0.9967	0.141
Mof_C 	C 	0.1614	0.9939	0.9319	0
Mof_H 	H 	0.1032	0.9897	0.9226	0.032
Mof_C 	C 	0.1967	0.9655	0.964	0.034
Mof_H 	H 	0.1615	0.9407	0.9759	0.023
Mof_C 	C 	0.3363	0.0093	0.9618	0.085
Mof_C 	C 	0.3026	0.0384	0.9298	-0.093
Mof_H 	H 	0.3369	0.0642	0.919	0.081
Mof_N 	N 	0.428	0.979	0.948	-0.284
Mof_H 	H 	0.4501	0.9608	0.9681	0.158
Mof_H 	H 	0.4608	0.9905	0.9283	0.144
Mof_C 	C 	0.34	0.989	0.9485	0.104
Mof_C 	C 	0.1922	0.9836	0.9775	-0.021
Mof_H 	H 	0.1534	0.972	0.9984	0.042
Mof_C 	C 	0.1607	0.0131	0.9443	-0.079
Mof_H 	H 	0.1007	0.0211	0.9429	0.063
Mof_C 	C 	0.3084	0.0185	0.9152	-0.049
Mof_H 	H 	0.3473	0.0301	0.8944	0.047
Mof_O 	O 	0.604	0.5659	0.8712	-0.5
Mof_O 	O 	0.7395	0.5893	0.8576	-0.501
Mof_O 	O 	0.7611	0.4123	0.0351	-0.511
Mof_O 	O 	0.8975	0.435	0.0221	-0.562
Mof_C 	C 	0.6868	0.5632	0.8781	0.295
Mof_C 	C 	0.8153	0.4387	0.0142	0.353
Mof_C 	C 	0.7819	0.4716	0.9796	-0.145
Mof_C 	C 	0.7188	0.5305	0.9132	-0.006
Mof_N 	N 	0.926	0.5172	0.9767	-0.267
Mof_H 	H 	0.9578	0.5402	0.9655	0.14
Mof_H 	H 	0.9471	0.4989	0.9967	0.142
Mof_C 	C 	0.6614	0.4939	0.9319	-0.001
Mof_H 	H 	0.6032	0.4897	0.9226	0.033
Mof_C 	C 	0.6967	0.4655	0.964	0.033
Mof_H 	H 	0.6615	0.4407	0.9759	0.024
Mof_C 	C 	0.8363	0.5093	0.9618	0.083
Mof_C 	C 	0.8026	0.5384	0.9298	-0.096
Mof_H 	H 	0.8369	0.5642	0.919	0.082
Mof_N 	N 	0.928	0.479	0.948	-0.285
Mof_H 	H 	0.9501	0.4608	0.9681	0.158
Mof_H 	H 	0.9608	0.4905	0.9283	0.144
Mof_C 	C 	0.84	0.489	0.9485	0.106
Mof_C 	C 	0.6922	0.4836	0.9775	-0.02
Mof_H 	H 	0.6534	0.472	0.9984	0.043
Mof_C 	C 	0.6607	0.5131	0.9443	-0.078
Mof_H 	H 	0.6007	0.5211	0.9429	0.062
Mof_C 	C 	0.8084	0.5185	0.9152	-0.047
Mof_H 	H 	0.8473	0.5301	0.8944	0.047
Mof_O 	O 	0.604	0.0659	0.3712	-0.5
Mof_O 	O 	0.7395	0.0893	0.3576	-0.501
Mof_O 	O 	0.7611	0.9123	0.5351	-0.511
Mof_O 	O 	0.8975	0.935	0.5221	-0.562
Mof_C 	C 	0.6868	0.0632	0.3781	0.295
Mof_C 	C 	0.8153	0.9387	0.5142	0.353
Mof_C 	C 	0.7819	0.9716	0.4796	-0.145
Mof_C 	C 	0.7188	0.0305	0.4132	-0.006
Mof_N 	N 	0.926	0.0172	0.4767	-0.267
Mof_H 	H 	0.9578	0.0402	0.4655	0.14
Mof_H 	H 	0.9471	0.9989	0.4967	0.142
Mof_C 	C 	0.6614	0.9939	0.4319	-0.001
Mof_H 	H 	0.6032	0.9897	0.4226	0.033
Mof_C 	C 	0.6967	0.9655	0.464	0.033
Mof_H 	H 	0.6615	0.9407	0.4759	0.024
Mof_C 	C 	0.8363	0.0093	0.4618	0.083
Mof_C 	C 	0.8026	0.0384	0.4298	-0.097
Mof_H 	H 	0.8369	0.0642	0.419	0.082
Mof_N 	N 	0.928	0.979	0.448	-0.285
Mof_H 	H 	0.9501	0.9608	0.4681	0.158
Mof_H 	H 	0.9608	0.9905	0.4283	0.144
Mof_C 	C 	0.84	0.989	0.4485	0.107
Mof_C 	C 	0.6922	0.9836	0.4775	-0.02
Mof_H 	H 	0.6534	0.972	0.4984	0.043
Mof_C 	C 	0.6607	0.0131	0.4443	-0.078
Mof_H 	H 	0.6007	0.0211	0.4429	0.062
Mof_C 	C 	0.8084	0.0185	0.4152	-0.046
Mof_H 	H 	0.8473	0.0301	0.3944	0.046
Mof_O 	O 	0.146	0.6841	0.3712	-0.5
Mof_O 	O 	0.0105	0.6607	0.3576	-0.502
Mof_O 	O 	0.9889	0.8377	0.5351	-0.511
Mof_O 	O 	0.8525	0.815	0.5221	-0.562
Mof_C 	C 	0.0632	0.6868	0.3781	0.295
Mof_C 	C 	0.9347	0.8113	0.5142	0.353
Mof_C 	C 	0.9681	0.7784	0.4796	-0.145
Mof_C 	C 	0.0312	0.7195	0.4132	-0.007
Mof_N 	N 	0.824	0.7328	0.4767	-0.267
Mof_H 	H 	0.7922	0.7098	0.4655	0.14
Mof_H 	H 	0.8029	0.7511	0.4967	0.142
Mof_C 	C 	0.0886	0.7561	0.4319	-0
Mof_H 	H 	0.1468	0.7603	0.4226	0.033
Mof_C 	C 	0.0533	0.7845	0.464	0.033
Mof_H 	H 	0.0885	0.8093	0.4759	0.023
Mof_C 	C 	0.9137	0.7407	0.4618	0.083
Mof_C 	C 	0.9474	0.7116	0.4298	-0.096
Mof_H 	H 	0.9131	0.6858	0.419	0.082
Mof_N 	N 	0.822	0.771	0.448	-0.285
Mof_H 	H 	0.7999	0.7892	0.4681	0.158
Mof_H 	H 	0.7892	0.7595	0.4283	0.144
Mof_C 	C 	0.91	0.761	0.4485	0.106
Mof_C 	C 	0.0578	0.7664	0.4775	-0.021
Mof_H 	H 	0.0966	0.778	0.4984	0.043
Mof_C 	C 	0.0893	0.7369	0.4443	-0.078
Mof_H 	H 	0.1493	0.7289	0.4429	0.062
Mof_C 	C 	0.9416	0.7315	0.4152	-0.047
Mof_H 	H 	0.9027	0.7199	0.3944	0.047
Mof_O 	O 	0.146	0.1841	0.8712	-0.5
Mof_O 	O 	0.0105	0.1607	0.8576	-0.501
Mof_O 	O 	0.9889	0.3377	0.0351	-0.511
Mof_O 	O 	0.8525	0.315	0.0221	-0.562
Mof_C 	C 	0.0632	0.1868	0.8781	0.295
Mof_C 	C 	0.9347	0.3113	0.0142	0.353
Mof_C 	C 	0.9681	0.2784	0.9796	-0.145
Mof_C 	C 	0.0312	0.2195	0.9132	-0.006
Mof_N 	N 	0.824	0.2328	0.9767	-0.267
Mof_H 	H 	0.7922	0.2098	0.9655	0.14
Mof_H 	H 	0.8029	0.2511	0.9967	0.142
Mof_C 	C 	0.0886	0.2561	0.9319	-0.001
Mof_H 	H 	0.1468	0.2603	0.9226	0.033
Mof_C 	C 	0.0533	0.2845	0.964	0.034
Mof_H 	H 	0.0885	0.3093	0.9759	0.023
Mof_C 	C 	0.9137	0.2407	0.9618	0.083
Mof_C 	C 	0.9474	0.2116	0.9298	-0.096
Mof_H 	H 	0.9131	0.1858	0.919	0.082
Mof_N 	N 	0.822	0.271	0.948	-0.285
Mof_H 	H 	0.7999	0.2892	0.9681	0.158
Mof_H 	H 	0.7892	0.2595	0.9283	0.144
Mof_C 	C 	0.91	0.261	0.9485	0.106
Mof_C 	C 	0.0578	0.2664	0.9775	-0.02
Mof_H 	H 	0.0966	0.278	0.9984	0.043
Mof_C 	C 	0.0893	0.2369	0.9443	-0.078
Mof_H 	H 	0.1493	0.2289	0.9429	0.062
Mof_C 	C 	0.9416	0.2315	0.9152	-0.047
Mof_H 	H 	0.9027	0.2199	0.8944	0.047
Mof_O 	O 	0.646	0.6841	0.8712	-0.5
Mof_O 	O 	0.5105	0.6607	0.8576	-0.501
Mof_O 	O 	0.4889	0.8377	0.0351	-0.511
Mof_O 	O 	0.3525	0.815	0.0221	-0.562
Mof_C 	C 	0.5632	0.6868	0.8781	0.295
Mof_C 	C 	0.4347	0.8113	0.0142	0.353
Mof_C 	C 	0.4681	0.7784	0.9796	-0.145
Mof_C 	C 	0.5312	0.7195	0.9132	-0.006
Mof_N 	N 	0.324	0.7328	0.9767	-0.267
Mof_H 	H 	0.2922	0.7098	0.9655	0.14
Mof_H 	H 	0.3029	0.7511	0.9967	0.142
Mof_C 	C 	0.5886	0.7561	0.9319	-0.001
Mof_H 	H 	0.6468	0.7603	0.9226	0.033
Mof_C 	C 	0.5533	0.7845	0.964	0.033
Mof_H 	H 	0.5885	0.8093	0.9759	0.023
Mof_C 	C 	0.4137	0.7407	0.9618	0.083
Mof_C 	C 	0.4474	0.7116	0.9298	-0.096
Mof_H 	H 	0.4131	0.6858	0.919	0.082
Mof_N 	N 	0.322	0.771	0.948	-0.285
Mof_H 	H 	0.2999	0.7892	0.9681	0.158
Mof_H 	H 	0.2892	0.7595	0.9283	0.144
Mof_C 	C 	0.41	0.761	0.9485	0.106
Mof_C 	C 	0.5578	0.7664	0.9775	-0.02
Mof_H 	H 	0.5966	0.778	0.9984	0.042
Mof_C 	C 	0.5893	0.7369	0.9443	-0.078
Mof_H 	H 	0.6493	0.7289	0.9429	0.062
Mof_C 	C 	0.4416	0.7315	0.9152	-0.047
Mof_H 	H 	0.4027	0.7199	0.8944	0.047
Mof_O 	O 	0.646	0.1841	0.3712	-0.5
Mof_O 	O 	0.5105	0.1607	0.3576	-0.501
Mof_O 	O 	0.4889	0.3377	0.5351	-0.511
Mof_O 	O 	0.3525	0.315	0.5221	-0.562
Mof_C 	C 	0.5632	0.1868	0.3781	0.295
Mof_C 	C 	0.4347	0.3113	0.5142	0.353
Mof_C 	C 	0.4681	0.2784	0.4796	-0.145
Mof_C 	C 	0.5312	0.2195	0.4132	-0.006
Mof_N 	N 	0.324	0.2328	0.4767	-0.267
Mof_H 	H 	0.2922	0.2098	0.4655	0.14
Mof_H 	H 	0.3029	0.2511	0.4967	0.142
Mof_C 	C 	0.5886	0.2561	0.4319	-0.001
Mof_H 	H 	0.6468	0.2603	0.4226	0.033
Mof_C 	C 	0.5533	0.2845	0.464	0.033
Mof_H 	H 	0.5885	0.3093	0.4759	0.024
Mof_C 	C 	0.4137	0.2407	0.4618	0.083
Mof_C 	C 	0.4474	0.2116	0.4298	-0.096
Mof_H 	H 	0.4131	0.1858	0.419	0.082
Mof_N 	N 	0.322	0.271	0.448	-0.285
Mof_H 	H 	0.2999	0.2892	0.4681	0.158
Mof_H 	H 	0.2892	0.2595	0.4283	0.144
Mof_C 	C 	0.41	0.261	0.4485	0.106
Mof_C 	C 	0.5578	0.2664	0.4775	-0.02
Mof_H 	H 	0.5966	0.278	0.4984	0.043
Mof_C 	C 	0.5893	0.2369	0.4443	-0.078
Mof_H 	H 	0.6493	0.2289	0.4429	0.062
Mof_C 	C 	0.4416	0.2315	0.4152	-0.047
Mof_H 	H 	0.4027	0.2199	0.3944	0.047
Mof_In	In	0.875	0.375	0.0705	2.549
Mof_In	In	0.875	0.875	0.5705	2.549
Mof_In	In	0.375	0.375	0.5705	2.549
Mof_In	In	0.375	0.875	0.0705	2.549
Mof_In	In	0.125	0.625	0.3205	2.549
Mof_In	In	0.125	0.125	0.8205	2.549
Mof_In	In	0.625	0.625	0.8205	2.549
Mof_In	In	0.625	0.125	0.3205	2.549
Mof_O 	O 	0.896	0.4341	0.6288	-0.5
Mof_O 	O 	0.7605	0.4107	0.6424	-0.501
Mof_O 	O 	0.7389	0.5877	0.4649	-0.511
Mof_O 	O 	0.6025	0.565	0.4779	-0.562
Mof_C 	C 	0.8132	0.4368	0.6219	0.295
Mof_C 	C 	0.6847	0.5613	0.4858	0.353
Mof_C 	C 	0.7181	0.5284	0.5204	-0.145
Mof_C 	C 	0.7812	0.4695	0.5868	-0.006
Mof_N 	N 	0.574	0.4828	0.5233	-0.267
Mof_H 	H 	0.5422	0.4598	0.5345	0.14
Mof_H 	H 	0.5529	0.5011	0.5033	0.142
Mof_C 	C 	0.8386	0.5061	0.5681	-0.001
Mof_H 	H 	0.8968	0.5103	0.5774	0.033
Mof_C 	C 	0.8033	0.5345	0.536	0.033
Mof_H 	H 	0.8385	0.5593	0.5241	0.023
Mof_C 	C 	0.6637	0.4907	0.5382	0.083
Mof_C 	C 	0.6974	0.4616	0.5702	-0.096
Mof_H 	H 	0.6631	0.4358	0.581	0.082
Mof_N 	N 	0.572	0.521	0.552	-0.285
Mof_H 	H 	0.5499	0.5392	0.5319	0.158
Mof_H 	H 	0.5392	0.5095	0.5717	0.144
Mof_C 	C 	0.66	0.511	0.5515	0.106
Mof_C 	C 	0.8078	0.5164	0.5225	-0.02
Mof_H 	H 	0.8466	0.528	0.5016	0.042
Mof_C 	C 	0.8393	0.4869	0.5557	-0.078
Mof_H 	H 	0.8993	0.4789	0.5571	0.062
Mof_C 	C 	0.6916	0.4815	0.5848	-0.047
Mof_H 	H 	0.6527	0.4699	0.6056	0.047
Mof_O 	O 	0.896	0.9341	0.1288	-0.5
Mof_O 	O 	0.7605	0.9107	0.1424	-0.501
Mof_O 	O 	0.7389	0.0877	0.9649	-0.511
Mof_O 	O 	0.6025	0.065	0.9779	-0.562
Mof_C 	C 	0.8132	0.9368	0.1219	0.295
Mof_C 	C 	0.6847	0.0613	0.9858	0.353
Mof_C 	C 	0.7181	0.0284	0.0204	-0.145
Mof_C 	C 	0.7812	0.9695	0.0868	-0.006
Mof_N 	N 	0.574	0.9828	0.0233	-0.267
Mof_H 	H 	0.5422	0.9598	0.0345	0.14
Mof_H 	H 	0.5529	0.0011	0.0033	0.141
Mof_C 	C 	0.8386	0.0061	0.0681	0
Mof_H 	H 	0.8968	0.0103	0.0774	0.032
Mof_C 	C 	0.8033	0.0345	0.036	0.034
Mof_H 	H 	0.8385	0.0593	0.0241	0.023
Mof_C 	C 	0.6637	0.9907	0.0382	0.085
Mof_C 	C 	0.6974	0.9616	0.0702	-0.093
Mof_H 	H 	0.6631	0.9358	0.081	0.081
Mof_N 	N 	0.572	0.021	0.052	-0.284
Mof_H 	H 	0.5499	0.0392	0.0319	0.158
Mof_H 	H 	0.5392	0.0095	0.0717	0.144
Mof_C 	C 	0.66	0.011	0.0515	0.104
Mof_C 	C 	0.8078	0.0164	0.0225	-0.021
Mof_H 	H 	0.8466	0.028	0.0016	0.042
Mof_C 	C 	0.8393	0.9869	0.0557	-0.079
Mof_H 	H 	0.8993	0.9789	0.0571	0.063
Mof_C 	C 	0.6916	0.9815	0.0848	-0.049
Mof_H 	H 	0.6527	0.9699	0.1056	0.047
Mof_O 	O 	0.396	0.4341	0.1288	-0.5
Mof_O 	O 	0.2605	0.4107	0.1424	-0.501
Mof_O 	O 	0.2389	0.5877	0.9649	-0.511
Mof_O 	O 	0.1025	0.565	0.9779	-0.562
Mof_C 	C 	0.3132	0.4368	0.1219	0.295
Mof_C 	C 	0.1847	0.5613	0.9858	0.353
Mof_C 	C 	0.2181	0.5284	0.0204	-0.145
Mof_C 	C 	0.2812	0.4695	0.0868	-0.006
Mof_N 	N 	0.074	0.4828	0.0233	-0.267
Mof_H 	H 	0.0422	0.4598	0.0345	0.14
Mof_H 	H 	0.0529	0.5011	0.0033	0.142
Mof_C 	C 	0.3386	0.5061	0.0681	-0.001
Mof_H 	H 	0.3968	0.5103	0.0774	0.033
Mof_C 	C 	0.3033	0.5345	0.036	0.033
Mof_H 	H 	0.3385	0.5593	0.0241	0.024
Mof_C 	C 	0.1637	0.4907	0.0382	0.083
Mof_C 	C 	0.1974	0.4616	0.0702	-0.096
Mof_H 	H 	0.1631	0.4358	0.081	0.082
Mof_N 	N 	0.072	0.521	0.052	-0.285
Mof_H 	H 	0.0499	0.5392	0.0319	0.158
Mof_H 	H 	0.0392	0.5095	0.0717	0.144
Mof_C 	C 	0.16	0.511	0.0515	0.106
Mof_C 	C 	0.3078	0.5164	0.0225	-0.02
Mof_H 	H 	0.3466	0.528	0.0016	0.043
Mof_C 	C 	0.3393	0.4869	0.0557	-0.078
Mof_H 	H 	0.3993	0.4789	0.0571	0.062
Mof_C 	C 	0.1916	0.4815	0.0848	-0.047
Mof_H 	H 	0.1527	0.4699	0.1056	0.047
Mof_O 	O 	0.396	0.9341	0.6288	-0.5
Mof_O 	O 	0.2605	0.9107	0.6424	-0.501
Mof_O 	O 	0.2389	0.0877	0.4649	-0.511
Mof_O 	O 	0.1025	0.065	0.4779	-0.562
Mof_C 	C 	0.3132	0.9368	0.6219	0.295
Mof_C 	C 	0.1847	0.0613	0.4858	0.353
Mof_C 	C 	0.2181	0.0284	0.5204	-0.145
Mof_C 	C 	0.2812	0.9695	0.5868	-0.006
Mof_N 	N 	0.074	0.9828	0.5233	-0.267
Mof_H 	H 	0.0422	0.9598	0.5345	0.14
Mof_H 	H 	0.0529	0.0011	0.5033	0.142
Mof_C 	C 	0.3386	0.0061	0.5681	-0.001
Mof_H 	H 	0.3968	0.0103	0.5774	0.033
Mof_C 	C 	0.3033	0.0345	0.536	0.033
Mof_H 	H 	0.3385	0.0593	0.5241	0.024
Mof_C 	C 	0.1637	0.9907	0.5382	0.083
Mof_C 	C 	0.1974	0.9616	0.5702	-0.097
Mof_H 	H 	0.1631	0.9358	0.581	0.082
Mof_N 	N 	0.072	0.021	0.552	-0.285
Mof_H 	H 	0.0499	0.0392	0.5319	0.158
Mof_H 	H 	0.0392	0.0095	0.5717	0.144
Mof_C 	C 	0.16	0.011	0.5515	0.107
Mof_C 	C 	0.3078	0.0164	0.5225	-0.02
Mof_H 	H 	0.3466	0.028	0.5016	0.043
Mof_C 	C 	0.3393	0.9869	0.5557	-0.078
Mof_H 	H 	0.3993	0.9789	0.5571	0.062
Mof_C 	C 	0.1916	0.9815	0.5848	-0.046
Mof_H 	H 	0.1527	0.9699	0.6056	0.046
Mof_O 	O 	0.854	0.3159	0.6288	-0.5
Mof_O 	O 	0.9895	0.3393	0.6424	-0.502
Mof_O 	O 	0.0111	0.1623	0.4649	-0.511
Mof_O 	O 	0.1475	0.185	0.4779	-0.562
Mof_C 	C 	0.9368	0.3132	0.6219	0.295
Mof_C 	C 	0.0653	0.1887	0.4858	0.353
Mof_C 	C 	0.0319	0.2216	0.5204	-0.145
Mof_C 	C 	0.9688	0.2805	0.5868	-0.007
Mof_N 	N 	0.176	0.2672	0.5233	-0.267
Mof_H 	H 	0.2078	0.2902	0.5345	0.14
Mof_H 	H 	0.1971	0.2489	0.5033	0.142
Mof_C 	C 	0.9114	0.2439	0.5681	-0
Mof_H 	H 	0.8532	0.2397	0.5774	0.033
Mof_C 	C 	0.9467	0.2155	0.536	0.033
Mof_H 	H 	0.9115	0.1907	0.5241	0.023
Mof_C 	C 	0.0863	0.2593	0.5382	0.083
Mof_C 	C 	0.0526	0.2884	0.5702	-0.096
Mof_H 	H 	0.0869	0.3142	0.581	0.082
Mof_N 	N 	0.178	0.229	0.552	-0.285
Mof_H 	H 	0.2001	0.2108	0.5319	0.158
Mof_H 	H 	0.2108	0.2405	0.5717	0.144
Mof_C 	C 	0.09	0.239	0.5515	0.106
Mof_C 	C 	0.9422	0.2336	0.5225	-0.021
Mof_H 	H 	0.9034	0.222	0.5016	0.043
Mof_C 	C 	0.9107	0.2631	0.5557	-0.078
Mof_H 	H 	0.8507	0.2711	0.5571	0.062
Mof_C 	C 	0.0584	0.2685	0.5848	-0.047
Mof_H 	H 	0.0973	0.2801	0.6056	0.047
Mof_O 	O 	0.854	0.8159	0.1288	-0.5
Mof_O 	O 	0.9895	0.8393	0.1424	-0.501
Mof_O 	O 	0.0111	0.6623	0.9649	-0.511
Mof_O 	O 	0.1475	0.685	0.9779	-0.562
Mof_C 	C 	0.9368	0.8132	0.1219	0.295
Mof_C 	C 	0.0653	0.6887	0.9858	0.353
Mof_C 	C 	0.0319	0.7216	0.0204	-0.145
Mof_C 	C 	0.9688	0.7805	0.0868	-0.006
Mof_N 	N 	0.176	0.7672	0.0233	-0.267
Mof_H 	H 	0.2078	0.7902	0.0345	0.14
Mof_H 	H 	0.1971	0.7489	0.0033	0.142
Mof_C 	C 	0.9114	0.7439	0.0681	-0.001
Mof_H 	H 	0.8532	0.7397	0.0774	0.033
Mof_C 	C 	0.9467	0.7155	0.036	0.034
Mof_H 	H 	0.9115	0.6907	0.0241	0.023
Mof_C 	C 	0.0863	0.7593	0.0382	0.083
Mof_C 	C 	0.0526	0.7884	0.0702	-0.096
Mof_H 	H 	0.0869	0.8142	0.081	0.082
Mof_N 	N 	0.178	0.729	0.052	-0.285
Mof_H 	H 	0.2001	0.7108	0.0319	0.158
Mof_H 	H 	0.2108	0.7405	0.0717	0.144
Mof_C 	C 	0.09	0.739	0.0515	0.106
Mof_C 	C 	0.9422	0.7336	0.0225	-0.02
Mof_H 	H 	0.9034	0.722	0.0016	0.043
Mof_C 	C 	0.9107	0.7631	0.0557	-0.078
Mof_H 	H 	0.8507	0.7711	0.0571	0.062
Mof_C 	C 	0.0584	0.7685	0.0848	-0.047
Mof_H 	H 	0.0973	0.7801	0.1056	0.047
Mof_O 	O 	0.354	0.3159	0.1288	-0.5
Mof_O 	O 	0.4895	0.3393	0.1424	-0.501
Mof_O 	O 	0.5111	0.1623	0.9649	-0.511
Mof_O 	O 	0.6475	0.185	0.9779	-0.562
Mof_C 	C 	0.4368	0.3132	0.1219	0.295
Mof_C 	C 	0.5653	0.1887	0.9858	0.353
Mof_C 	C 	0.5319	0.2216	0.0204	-0.145
Mof_C 	C 	0.4688	0.2805	0.0868	-0.006
Mof_N 	N 	0.676	0.2672	0.0233	-0.267
Mof_H 	H 	0.7078	0.2902	0.0345	0.14
Mof_H 	H 	0.6971	0.2489	0.0033	0.142
Mof_C 	C 	0.4114	0.2439	0.0681	-0.001
Mof_H 	H 	0.3532	0.2397	0.0774	0.033
Mof_C 	C 	0.4467	0.2155	0.036	0.033
Mof_H 	H 	0.4115	0.1907	0.0241	0.023
Mof_C 	C 	0.5863	0.2593	0.0382	0.083
Mof_C 	C 	0.5526	0.2884	0.0702	-0.096
Mof_H 	H 	0.5869	0.3142	0.081	0.082
Mof_N 	N 	0.678	0.229	0.052	-0.285
Mof_H 	H 	0.7001	0.2108	0.0319	0.158
Mof_H 	H 	0.7108	0.2405	0.0717	0.144
Mof_C 	C 	0.59	0.239	0.0515	0.106
Mof_C 	C 	0.4422	0.2336	0.0225	-0.02
Mof_H 	H 	0.4034	0.222	0.0016	0.042
Mof_C 	C 	0.4107	0.2631	0.0557	-0.078
Mof_H 	H 	0.3507	0.2711	0.0571	0.062
Mof_C 	C 	0.5584	0.2685	0.0848	-0.047
Mof_H 	H 	0.5973	0.2801	0.1056	0.047
Mof_O 	O 	0.354	0.8159	0.6288	-0.5
Mof_O 	O 	0.4895	0.8393	0.6424	-0.501
Mof_O 	O 	0.5111	0.6623	0.4649	-0.511
Mof_O 	O 	0.6475	0.685	0.4779	-0.562
Mof_C 	C 	0.4368	0.8132	0.6219	0.295
Mof_C 	C 	0.5653	0.6887	0.4858	0.353
Mof_C 	C 	0.5319	0.7216	0.5204	-0.145
Mof_C 	C 	0.4688	0.7805	0.5868	-0.006
Mof_N 	N 	0.676	0.7672	0.5233	-0.267
Mof_H 	H 	0.7078	0.7902	0.5345	0.14
Mof_H 	H 	0.6971	0.7489	0.5033	0.142
Mof_C 	C 	0.4114	0.7439	0.5681	-0.001
Mof_H 	H 	0.3532	0.7397	0.5774	0.033
Mof_C 	C 	0.4467	0.7155	0.536	0.033
Mof_H 	H 	0.4115	0.6907	0.5241	0.024
Mof_C 	C 	0.5863	0.7593	0.5382	0.083
Mof_C 	C 	0.5526	0.7884	0.5702	-0.096
Mof_H 	H 	0.5869	0.8142	0.581	0.082
Mof_N 	N 	0.678	0.729	0.552	-0.285
Mof_H 	H 	0.7001	0.7108	0.5319	0.158
Mof_H 	H 	0.7108	0.7405	0.5717	0.144
Mof_C 	C 	0.59	0.739	0.5515	0.106
Mof_C 	C 	0.4422	0.7336	0.5225	-0.02
Mof_H 	H 	0.4034	0.722	0.5016	0.043
Mof_C 	C 	0.4107	0.7631	0.5557	-0.078
Mof_H 	H 	0.3507	0.7711	0.5571	0.062
Mof_C 	C 	0.5584	0.7685	0.5848	-0.047
Mof_H 	H 	0.5973	0.7801	0.6056	0.047
Mof_O 	O 	0.146	0.5659	0.8788	-0.5
Mof_O 	O 	0.0105	0.5893	0.8924	-0.501
Mof_O 	O 	0.9889	0.4123	0.7149	-0.511
Mof_O 	O 	0.8525	0.435	0.7279	-0.562
Mof_C 	C 	0.0632	0.5632	0.8719	0.295
Mof_C 	C 	0.9347	0.4387	0.7358	0.353
Mof_C 	C 	0.9681	0.4716	0.7704	-0.145
Mof_C 	C 	0.0312	0.5305	0.8368	-0.006
Mof_N 	N 	0.824	0.5172	0.7733	-0.267
Mof_H 	H 	0.7922	0.5402	0.7845	0.14
Mof_H 	H 	0.8029	0.4989	0.7533	0.142
Mof_C 	C 	0.0886	0.4939	0.8181	-0.001
Mof_H 	H 	0.1468	0.4897	0.8274	0.033
Mof_C 	C 	0.0533	0.4655	0.786	0.033
Mof_H 	H 	0.0885	0.4407	0.7741	0.023
Mof_C 	C 	0.9137	0.5093	0.7882	0.083
Mof_C 	C 	0.9474	0.5384	0.8202	-0.096
Mof_H 	H 	0.9131	0.5642	0.831	0.082
Mof_N 	N 	0.822	0.479	0.802	-0.285
Mof_H 	H 	0.7999	0.4608	0.7819	0.158
Mof_H 	H 	0.7892	0.4905	0.8217	0.144
Mof_C 	C 	0.91	0.489	0.8015	0.106
Mof_C 	C 	0.0578	0.4836	0.7725	-0.02
Mof_H 	H 	0.0966	0.472	0.7516	0.043
Mof_C 	C 	0.0893	0.5131	0.8057	-0.078
Mof_H 	H 	0.1493	0.5211	0.8071	0.062
Mof_C 	C 	0.9416	0.5185	0.8348	-0.047
Mof_H 	H 	0.9027	0.5301	0.8556	0.047
Mof_O 	O 	0.146	0.0659	0.3788	-0.5
Mof_O 	O 	0.0105	0.0893	0.3924	-0.501
Mof_O 	O 	0.9889	0.9123	0.2149	-0.511
Mof_O 	O 	0.8525	0.935	0.2279	-0.562
Mof_C 	C 	0.0632	0.0632	0.3719	0.295
Mof_C 	C 	0.9347	0.9387	0.2358	0.353
Mof_C 	C 	0.9681	0.9716	0.2704	-0.145
Mof_C 	C 	0.0312	0.0305	0.3368	-0.006
Mof_N 	N 	0.824	0.0172	0.2733	-0.267
Mof_H 	H 	0.7922	0.0402	0.2845	0.14
Mof_H 	H 	0.8029	0.9989	0.2533	0.142
Mof_C 	C 	0.0886	0.9939	0.3181	0
Mof_H 	H 	0.1468	0.9897	0.3274	0.033
Mof_C 	C 	0.0533	0.9655	0.286	0.034
Mof_H 	H 	0.0885	0.9407	0.2741	0.023
Mof_C 	C 	0.9137	0.0093	0.2882	0.082
Mof_C 	C 	0.9474	0.0384	0.3202	-0.097
Mof_H 	H 	0.9131	0.0642	0.331	0.082
Mof_N 	N 	0.822	0.979	0.302	-0.285
Mof_H 	H 	0.7999	0.9608	0.2819	0.158
Mof_H 	H 	0.7892	0.9905	0.3217	0.144
Mof_C 	C 	0.91	0.989	0.3015	0.107
Mof_C 	C 	0.0578	0.9836	0.2725	-0.021
Mof_H 	H 	0.0966	0.972	0.2516	0.043
Mof_C 	C 	0.0893	0.0131	0.3057	-0.078
Mof_H 	H 	0.1493	0.0211	0.3071	0.062
Mof_C 	C 	0.9416	0.0185	0.3348	-0.045
Mof_H 	H 	0.9027	0.0301	0.3556	0.046
Mof_O 	O 	0.646	0.5659	0.3788	-0.5
Mof_O 	O 	0.5105	0.5893	0.3924	-0.501
Mof_O 	O 	0.4889	0.4123	0.2149	-0.511
Mof_O 	O 	0.3525	0.435	0.2279	-0.562
Mof_C 	C 	0.5632	0.5632	0.3719	0.295
Mof_C 	C 	0.4347	0.4387	0.2358	0.353
Mof_C 	C 	0.4681	0.4716	0.2704	-0.145
Mof_C 	C 	0.5312	0.5305	0.3368	-0.006
Mof_N 	N 	0.324	0.5172	0.2733	-0.267
Mof_H 	H 	0.2922	0.5402	0.2845	0.14
Mof_H 	H 	0.3029	0.4989	0.2533	0.142
Mof_C 	C 	0.5886	0.4939	0.3181	-0.001
Mof_H 	H 	0.6468	0.4897	0.3274	0.033
Mof_C 	C 	0.5533	0.4655	0.286	0.033
Mof_H 	H 	0.5885	0.4407	0.2741	0.024
Mof_C 	C 	0.4137	0.5093	0.2882	0.083
Mof_C 	C 	0.4474	0.5384	0.3202	-0.096
Mof_H 	H 	0.4131	0.5642	0.331	0.082
Mof_N 	N 	0.322	0.479	0.302	-0.285
Mof_H 	H 	0.2999	0.4608	0.2819	0.158
Mof_H 	H 	0.2892	0.4905	0.3217	0.144
Mof_C 	C 	0.41	0.489	0.3015	0.106
Mof_C 	C 	0.5578	0.4836	0.2725	-0.02
Mof_H 	H 	0.5966	0.472	0.2516	0.043
Mof_C 	C 	0.5893	0.5131	0.3057	-0.078
Mof_H 	H 	0.6493	0.5211	0.3071	0.062
Mof_C 	C 	0.4416	0.5185	0.3348	-0.047
Mof_H 	H 	0.4027	0.5301	0.3556	0.047
Mof_O 	O 	0.646	0.0659	0.8788	-0.5
Mof_O 	O 	0.5105	0.0893	0.8924	-0.501
Mof_O 	O 	0.4889	0.9123	0.7149	-0.511
Mof_O 	O 	0.3525	0.935	0.7279	-0.562
Mof_C 	C 	0.5632	0.0632	0.8719	0.295
Mof_C 	C 	0.4347	0.9387	0.7358	0.353
Mof_C 	C 	0.4681	0.9716	0.7704	-0.145
Mof_C 	C 	0.5312	0.0305	0.8368	-0.006
Mof_N 	N 	0.324	0.0172	0.7733	-0.267
Mof_H 	H 	0.2922	0.0402	0.7845	0.14
Mof_H 	H 	0.3029	0.9989	0.7533	0.141
Mof_C 	C 	0.5886	0.9939	0.8181	-0
Mof_H 	H 	0.6468	0.9897	0.8274	0.033
Mof_C 	C 	0.5533	0.9655	0.786	0.033
Mof_H 	H 	0.5885	0.9407	0.7741	0.024
Mof_C 	C 	0.4137	0.0093	0.7882	0.084
Mof_C 	C 	0.4474	0.0384	0.8202	-0.094
Mof_H 	H 	0.4131	0.0642	0.831	0.081
Mof_N 	N 	0.322	0.979	0.802	-0.284
Mof_H 	H 	0.2999	0.9608	0.7819	0.158
Mof_H 	H 	0.2892	0.9905	0.8217	0.144
Mof_C 	C 	0.41	0.989	0.8015	0.105
Mof_C 	C 	0.5578	0.9836	0.7725	-0.021
Mof_H 	H 	0.5966	0.972	0.7516	0.043
Mof_C 	C 	0.5893	0.0131	0.8057	-0.078
Mof_H 	H 	0.6493	0.0211	0.8071	0.062
Mof_C 	C 	0.4416	0.0185	0.8348	-0.048
Mof_H 	H 	0.4027	0.0301	0.8556	0.047
Mof_O 	O 	0.104	0.6841	0.8788	-0.5
Mof_O 	O 	0.2395	0.6607	0.8924	-0.501
Mof_O 	O 	0.2611	0.8377	0.7149	-0.511
Mof_O 	O 	0.3975	0.815	0.7279	-0.562
Mof_C 	C 	0.1868	0.6868	0.8719	0.295
Mof_C 	C 	0.3153	0.8113	0.7358	0.353
Mof_C 	C 	0.2819	0.7784	0.7704	-0.145
Mof_C 	C 	0.2188	0.7195	0.8368	-0.006
Mof_N 	N 	0.426	0.7328	0.7733	-0.267
Mof_H 	H 	0.4578	0.7098	0.7845	0.14
Mof_H 	H 	0.4471	0.7511	0.7533	0.142
Mof_C 	C 	0.1614	0.7561	0.8181	-0.001
Mof_H 	H 	0.1032	0.7603	0.8274	0.033
Mof_C 	C 	0.1967	0.7845	0.786	0.033
Mof_H 	H 	0.1615	0.8093	0.7741	0.023
Mof_C 	C 	0.3363	0.7407	0.7882	0.083
Mof_C 	C 	0.3026	0.7116	0.8202	-0.096
Mof_H 	H 	0.3369	0.6858	0.831	0.082
Mof_N 	N 	0.428	0.771	0.802	-0.285
Mof_H 	H 	0.4501	0.7892	0.7819	0.158
Mof_H 	H 	0.4608	0.7595	0.8217	0.144
Mof_C 	C 	0.34	0.761	0.8015	0.106
Mof_C 	C 	0.1922	0.7664	0.7725	-0.02
Mof_H 	H 	0.1534	0.778	0.7516	0.042
Mof_C 	C 	0.1607	0.7369	0.8057	-0.078
Mof_H 	H 	0.1007	0.7289	0.8071	0.062
Mof_C 	C 	0.3084	0.7315	0.8348	-0.047
Mof_H 	H 	0.3473	0.7199	0.8556	0.047
Mof_O 	O 	0.104	0.1841	0.3788	-0.5
Mof_O 	O 	0.2395	0.1607	0.3924	-0.501
Mof_O 	O 	0.2611	0.3377	0.2149	-0.511
Mof_O 	O 	0.3975	0.315	0.2279	-0.562
Mof_C 	C 	0.1868	0.1868	0.3719	0.295
Mof_C 	C 	0.3153	0.3113	0.2358	0.353
Mof_C 	C 	0.2819	0.2784	0.2704	-0.145
Mof_C 	C 	0.2188	0.2195	0.3368	-0.006
Mof_N 	N 	0.426	0.2328	0.2733	-0.267
Mof_H 	H 	0.4578	0.2098	0.2845	0.14
Mof_H 	H 	0.4471	0.2511	0.2533	0.142
Mof_C 	C 	0.1614	0.2561	0.3181	-0.001
Mof_H 	H 	0.1032	0.2603	0.3274	0.033
Mof_C 	C 	0.1967	0.2845	0.286	0.033
Mof_H 	H 	0.1615	0.3093	0.2741	0.023
Mof_C 	C 	0.3363	0.2407	0.2882	0.083
Mof_C 	C 	0.3026	0.2116	0.3202	-0.096
Mof_H 	H 	0.3369	0.1858	0.331	0.082
Mof_N 	N 	0.428	0.271	0.302	-0.285
Mof_H 	H 	0.4501	0.2892	0.2819	0.158
Mof_H 	H 	0.4608	0.2595	0.3217	0.144
Mof_C 	C 	0.34	0.261	0.3015	0.106
Mof_C 	C 	0.1922	0.2664	0.2725	-0.02
Mof_H 	H 	0.1534	0.278	0.2516	0.042
Mof_C 	C 	0.1607	0.2369	0.3057	-0.078
Mof_H 	H 	0.1007	0.2289	0.3071	0.062
Mof_C 	C 	0.3084	0.2315	0.3348	-0.047
Mof_H 	H 	0.3473	0.2199	0.3556	0.047
Mof_O 	O 	0.604	0.6841	0.3788	-0.5
Mof_O 	O 	0.7395	0.6607	0.3924	-0.501
Mof_O 	O 	0.7611	0.8377	0.2149	-0.511
Mof_O 	O 	0.8975	0.815	0.2279	-0.562
Mof_C 	C 	0.6868	0.6868	0.3719	0.295
Mof_C 	C 	0.8153	0.8113	0.2358	0.353
Mof_C 	C 	0.7819	0.7784	0.2704	-0.145
Mof_C 	C 	0.7188	0.7195	0.3368	-0.006
Mof_N 	N 	0.926	0.7328	0.2733	-0.267
Mof_H 	H 	0.9578	0.7098	0.2845	0.14
Mof_H 	H 	0.9471	0.7511	0.2533	0.142
Mof_C 	C 	0.6614	0.7561	0.3181	-0.001
Mof_H 	H 	0.6032	0.7603	0.3274	0.033
Mof_C 	C 	0.6967	0.7845	0.286	0.033
Mof_H 	H 	0.6615	0.8093	0.2741	0.024
Mof_C 	C 	0.8363	0.7407	0.2882	0.083
Mof_C 	C 	0.8026	0.7116	0.3202	-0.096
Mof_H 	H 	0.8369	0.6858	0.331	0.082
Mof_N 	N 	0.928	0.771	0.302	-0.285
Mof_H 	H 	0.9501	0.7892	0.2819	0.158
Mof_H 	H 	0.9608	0.7595	0.3217	0.144
Mof_C 	C 	0.84	0.761	0.3015	0.106
Mof_C 	C 	0.6922	0.7664	0.2725	-0.02
Mof_H 	H 	0.6534	0.778	0.2516	0.043
Mof_C 	C 	0.6607	0.7369	0.3057	-0.078
Mof_H 	H 	0.6007	0.7289	0.3071	0.062
Mof_C 	C 	0.8084	0.7315	0.3348	-0.047
Mof_H 	H 	0.8473	0.7199	0.3556	0.047
Mof_O 	O 	0.604	0.1841	0.8788	-0.5
Mof_O 	O 	0.7395	0.1607	0.8924	-0.501
Mof_O 	O 	0.7611	0.3377	0.7149	-0.511
Mof_O 	O 	0.8975	0.315	0.7279	-0.562
Mof_C 	C 	0.6868	0.1868	0.8719	0.295
Mof_C 	C 	0.8153	0.3113	0.7358	0.353
Mof_C 	C 	0.7819	0.2784	0.7704	-0.145
Mof_C 	C 	0.7188	0.2195	0.8368	-0.006
Mof_N 	N 	0.926	0.2328	0.7733	-0.267
Mof_H 	H 	0.9578	0.2098	0.7845	0.14
Mof_H 	H 	0.9471	0.2511	0.7533	0.142
Mof_C 	C 	0.6614	0.2561	0.8181	-0.001
Mof_H 	H 	0.6032	0.2603	0.8274	0.033
Mof_C 	C 	0.6967	0.2845	0.786	0.033
Mof_H 	H 	0.6615	0.3093	0.7741	0.024
Mof_C 	C 	0.8363	0.2407	0.7882	0.083
Mof_C 	C 	0.8026	0.2116	0.8202	-0.096
Mof_H 	H 	0.8369	0.1858	0.831	0.082
Mof_N 	N 	0.928	0.271	0.802	-0.285
Mof_H 	H 	0.9501	0.2892	0.7819	0.158
Mof_H 	H 	0.9608	0.2595	0.8217	0.144
Mof_C 	C 	0.84	0.261	0.8015	0.106
Mof_C 	C 	0.6922	0.2664	0.7725	-0.02
Mof_H 	H 	0.6534	0.278	0.7516	0.043
Mof_C 	C 	0.6607	0.2369	0.8057	-0.078
Mof_H 	H 	0.6007	0.2289	0.8071	0.062
Mof_C 	C 	0.8084	0.2315	0.8348	-0.047
Mof_H 	H 	0.8473	0.2199	0.8556	0.047
Mof_In	In	0.875	0.375	0.6795	2.549
Mof_In	In	0.875	0.875	0.1795	2.549
Mof_In	In	0.375	0.375	0.1795	2.549
Mof_In	In	0.375	0.875	0.6795	2.549
Mof_In	In	0.125	0.625	0.9295	2.549
Mof_In	In	0.125	0.125	0.4295	2.549
Mof_In	In	0.625	0.625	0.4295	2.549
Mof_In	In	0.625	0.125	0.9295	2.549
_end
