# CIF file generated by openbabel 3.1.0, see https://openbabel.org
data_I
_chemical_name_common 'image0'
_cell_length_a 8.867
_cell_length_b 8.867
_cell_length_c 21.499
_cell_angle_alpha 90
_cell_angle_beta 90
_cell_angle_gamma 120
_space_group_name_H-M_alt 'P 1'
_space_group_name_Hall 'P 1'
loop_
    _symmetry_equiv_pos_as_xyz
    x,y,z
loop_
    _atom_site_label
    _atom_site_type_symbol
    _atom_site_fract_x
    _atom_site_fract_y
    _atom_site_fract_z
    _atom_site_occupancy
    Rb1      Rb       0.00000    0.00000    0.50000    1.000
    Rb2      Rb       0.66667    0.33333    0.83333    1.000
    Rb3      Rb       0.33333    0.66667    0.16667    1.000
    Fe1      Fe       0.33333    0.66667    0.66667    1.000
    Fe2      Fe       0.00000    0.00000    0.00000    1.000
    Fe3      Fe       0.66667    0.33333    0.33333    1.000
    C1       C        0.22930    0.77070    0.61500    1.000
    N1       N        0.17030    0.82970    0.58540    1.000
    C2       C        0.89597    0.10403    0.94833    1.000
    N2       N        0.83697    0.16303    0.91873    1.000
    C3       C        0.56263    0.43737    0.28167    1.000
    N3       N        0.50363    0.49637    0.25207    1.000
    C4       C        0.22930    0.45860    0.61500    1.000
    N4       N        0.17030    0.34060    0.58540    1.000
    C5       C        0.89597    0.79193    0.94833    1.000
    N5       N        0.83697    0.67393    0.91873    1.000
    C6       C        0.56263    0.12527    0.28167    1.000
    N6       N        0.50363    0.00727    0.25207    1.000
    C7       C        0.54140    0.77070    0.61500    1.000
    N7       N        0.65940    0.82970    0.58540    1.000
    C8       C        0.20807    0.10403    0.94833    1.000
    N8       N        0.32607    0.16303    0.91873    1.000
    C9       C        0.87473    0.43737    0.28167    1.000
    N9       N        0.99273    0.49637    0.25207    1.000
    C10      C        0.77070    0.22930    0.38500    1.000
    N10      N        0.82970    0.17030    0.41460    1.000
    C11      C        0.43737    0.56263    0.71833    1.000
    N11      N        0.49637    0.50363    0.74793    1.000
    C12      C        0.10403    0.89597    0.05167    1.000
    N12      N        0.16303    0.83697    0.08127    1.000
    C13      C        0.45860    0.22930    0.38500    1.000
    N13      N        0.34060    0.17030    0.41460    1.000
    C14      C        0.12527    0.56263    0.71833    1.000
    N14      N        0.00727    0.50363    0.74793    1.000
    C15      C        0.79193    0.89597    0.05167    1.000
    N15      N        0.67393    0.83697    0.08127    1.000
    C16      C        0.77070    0.54140    0.38500    1.000
    N16      N        0.82970    0.65940    0.41460    1.000
    C17      C        0.43737    0.87473    0.71833    1.000
    N17      N        0.49637    0.99273    0.74793    1.000
    C18      C        0.10403    0.20807    0.05167    1.000
    N18      N        0.16303    0.32607    0.08127    1.000
