# CIF file generated by openbabel 3.1.0, see https://openbabel.org
data_I
_chemical_name_common 'image0'
_cell_length_a 7.2172
_cell_length_b 25.613
_cell_length_c 30.66
_cell_angle_alpha 90
_cell_angle_beta 96.392
_cell_angle_gamma 90
_space_group_name_H-M_alt 'P 1'
_space_group_name_Hall 'P 1'
loop_
    _symmetry_equiv_pos_as_xyz
    x,y,z
loop_
    _atom_site_label
    _atom_site_type_symbol
    _atom_site_fract_x
    _atom_site_fract_y
    _atom_site_fract_z
    _atom_site_occupancy
    O1       O        0.31080    0.38310    0.27250    1.000
    O2       O        0.89500    0.34330    0.19450    1.000
    O3       O        0.35800    0.98740    0.20120    1.000
    O4       O        0.65100    0.95490    0.19530    1.000
    N1       N        0.86200    0.22020    0.05920    1.000
    N2       N        0.95440    0.29850    0.99930    1.000
    C1       C        0.79600    0.18070    0.08100    1.000
    C2       C        0.91600    0.17640    0.12390    1.000
    H1       H        0.89890    0.15360    0.14680    1.000
    C3       C        0.04600    0.21010    0.12300    1.000
    H2       H        0.14410    0.21360    0.14520    1.000
    C4       C        0.02400    0.24350    0.08270    1.000
    C5       C        0.14000    0.28060    0.07090    1.000
    C6       C        0.11000    0.30480    0.03180    1.000
    C7       C        0.22600    0.34490    0.02000    1.000
    H3       H        0.33660    0.35530    0.03610    1.000
    C8       C        0.14900    0.36710    0.97980    1.000
    H4       H        0.19420    0.39490    0.96460    1.000
    C9       C        0.98500    0.33650    0.96800    1.000
    C10      C        0.63700    0.15450    0.07090    1.000
    C11      C        0.29100    0.29880    0.10340    1.000
    C12      C        0.25500    0.32750    0.14090    1.000
    H5       H        0.13380    0.33760    0.14410    1.000
    C13      C        0.39200    0.34040    0.17140    1.000
    H6       H        0.36330    0.35620    0.19720    1.000
    C14      C        0.57400    0.33080    0.16590    1.000
    C15      C        0.62000    0.30300    0.12990    1.000
    H7       H        0.74300    0.29540    0.12600    1.000
    C16      C        0.47300    0.28710    0.10000    1.000
    H8       H        0.50030    0.26720    0.07610    1.000
    C17      C        0.73100    0.35470    0.19820    1.000
    C18      C        0.59700    0.11120    0.09970    1.000
    C19      C        0.44400    0.11190    0.12350    1.000
    H9       H        0.36080    0.13980    0.12070    1.000
    C20      C        0.41500    0.07080    0.15160    1.000
    H10      H        0.31230    0.07130    0.16760    1.000
    C21      C        0.53800    0.02910    0.15590    1.000
    C22      C        0.69100    0.02840    0.13200    1.000
    H11      H        0.77410    0.00050    0.13480    1.000
    C23      C        0.72000    0.06950    0.10390    1.000
    H12      H        0.82260    0.06900    0.08800    1.000
    C24      C        0.51000    0.98700    0.18930    1.000
    O5       O        0.68920    0.38310    0.22750    1.000
    O6       O        0.10500    0.34330    0.30550    1.000
    O7       O        0.64200    0.98740    0.29880    1.000
    O8       O        0.34900    0.95490    0.30470    1.000
    N3       N        0.13800    0.22020    0.44080    1.000
    N4       N        0.04560    0.29850    0.50070    1.000
    C25      C        0.20400    0.18070    0.41900    1.000
    C26      C        0.08400    0.17640    0.37610    1.000
    H13      H        0.10110    0.15360    0.35320    1.000
    C27      C        0.95400    0.21010    0.37700    1.000
    H14      H        0.85590    0.21360    0.35480    1.000
    C28      C        0.97600    0.24350    0.41730    1.000
    C29      C        0.86000    0.28060    0.42910    1.000
    C30      C        0.89000    0.30480    0.46820    1.000
    C31      C        0.77400    0.34490    0.48000    1.000
    H15      H        0.66340    0.35530    0.46390    1.000
    C32      C        0.85100    0.36710    0.52020    1.000
    H16      H        0.80580    0.39490    0.53540    1.000
    C33      C        0.01500    0.33650    0.53200    1.000
    C34      C        0.36300    0.15450    0.42910    1.000
    C35      C        0.70900    0.29880    0.39660    1.000
    C36      C        0.74500    0.32750    0.35910    1.000
    H17      H        0.86620    0.33760    0.35590    1.000
    C37      C        0.60800    0.34040    0.32860    1.000
    H18      H        0.63670    0.35620    0.30280    1.000
    C38      C        0.42600    0.33080    0.33410    1.000
    C39      C        0.38000    0.30300    0.37010    1.000
    H19      H        0.25700    0.29540    0.37400    1.000
    C40      C        0.52700    0.28710    0.40000    1.000
    H20      H        0.49970    0.26720    0.42390    1.000
    C41      C        0.26900    0.35470    0.30180    1.000
    C42      C        0.40300    0.11120    0.40030    1.000
    C43      C        0.55600    0.11190    0.37650    1.000
    H21      H        0.63920    0.13980    0.37930    1.000
    C44      C        0.58500    0.07080    0.34840    1.000
    H22      H        0.68770    0.07130    0.33240    1.000
    C45      C        0.46200    0.02910    0.34410    1.000
    C46      C        0.30900    0.02840    0.36800    1.000
    H23      H        0.22590    0.00050    0.36520    1.000
    C47      C        0.28000    0.06950    0.39610    1.000
    H24      H        0.17740    0.06900    0.41200    1.000
    C48      C        0.49000    0.98700    0.31070    1.000
    O9       O        0.18920    0.11690    0.72750    1.000
    O10      O        0.60500    0.15670    0.80550    1.000
    O11      O        0.14200    0.51260    0.79880    1.000
    O12      O        0.84900    0.54510    0.80470    1.000
    N5       N        0.63800    0.27980    0.94080    1.000
    N6       N        0.54560    0.20150    0.00070    1.000
    C49      C        0.70400    0.31930    0.91900    1.000
    C50      C        0.58400    0.32360    0.87610    1.000
    H25      H        0.60110    0.34640    0.85320    1.000
    C51      C        0.45400    0.28990    0.87700    1.000
    H26      H        0.35590    0.28640    0.85480    1.000
    C52      C        0.47600    0.25650    0.91730    1.000
    C53      C        0.36000    0.21940    0.92910    1.000
    C54      C        0.39000    0.19520    0.96820    1.000
    C55      C        0.27400    0.15510    0.98000    1.000
    H27      H        0.16340    0.14470    0.96390    1.000
    C56      C        0.35100    0.13290    0.02020    1.000
    H28      H        0.30580    0.10510    0.03540    1.000
    C57      C        0.51500    0.16350    0.03200    1.000
    C58      C        0.86300    0.34550    0.92910    1.000
    C59      C        0.20900    0.20120    0.89660    1.000
    C60      C        0.24500    0.17250    0.85910    1.000
    H29      H        0.36620    0.16240    0.85590    1.000
    C61      C        0.10800    0.15960    0.82860    1.000
    H30      H        0.13670    0.14380    0.80280    1.000
    C62      C        0.92600    0.16920    0.83410    1.000
    C63      C        0.88000    0.19700    0.87010    1.000
    H31      H        0.75700    0.20460    0.87400    1.000
    C64      C        0.02700    0.21290    0.90000    1.000
    H32      H        0.99970    0.23280    0.92390    1.000
    C65      C        0.76900    0.14530    0.80180    1.000
    C66      C        0.90300    0.38880    0.90030    1.000
    C67      C        0.05600    0.38810    0.87650    1.000
    H33      H        0.13920    0.36020    0.87930    1.000
    C68      C        0.08500    0.42920    0.84840    1.000
    H34      H        0.18770    0.42870    0.83240    1.000
    C69      C        0.96200    0.47090    0.84410    1.000
    C70      C        0.80900    0.47160    0.86800    1.000
    H35      H        0.72590    0.49950    0.86520    1.000
    C71      C        0.78000    0.43050    0.89610    1.000
    H36      H        0.67740    0.43100    0.91200    1.000
    C72      C        0.99000    0.51300    0.81070    1.000
    O13      O        0.81080    0.11690    0.77250    1.000
    O14      O        0.39500    0.15670    0.69450    1.000
    O15      O        0.85800    0.51260    0.70120    1.000
    O16      O        0.15100    0.54510    0.69530    1.000
    N7       N        0.36200    0.27980    0.55920    1.000
    N8       N        0.45440    0.20150    0.49930    1.000
    C73      C        0.29600    0.31930    0.58100    1.000
    C74      C        0.41600    0.32360    0.62390    1.000
    H37      H        0.39890    0.34640    0.64680    1.000
    C75      C        0.54600    0.28990    0.62300    1.000
    H38      H        0.64410    0.28640    0.64520    1.000
    C76      C        0.52400    0.25650    0.58270    1.000
    C77      C        0.64000    0.21940    0.57090    1.000
    C78      C        0.61000    0.19520    0.53180    1.000
    C79      C        0.72600    0.15510    0.52000    1.000
    H39      H        0.83660    0.14470    0.53610    1.000
    C80      C        0.64900    0.13290    0.47980    1.000
    H40      H        0.69420    0.10510    0.46460    1.000
    C81      C        0.48500    0.16350    0.46800    1.000
    C82      C        0.13700    0.34550    0.57090    1.000
    C83      C        0.79100    0.20120    0.60340    1.000
    C84      C        0.75500    0.17250    0.64090    1.000
    H41      H        0.63380    0.16240    0.64410    1.000
    C85      C        0.89200    0.15960    0.67140    1.000
    H42      H        0.86330    0.14380    0.69720    1.000
    C86      C        0.07400    0.16920    0.66590    1.000
    C87      C        0.12000    0.19700    0.62990    1.000
    H43      H        0.24300    0.20460    0.62600    1.000
    C88      C        0.97300    0.21290    0.60000    1.000
    H44      H        0.00030    0.23280    0.57610    1.000
    C89      C        0.23100    0.14530    0.69820    1.000
    C90      C        0.09700    0.38880    0.59970    1.000
    C91      C        0.94400    0.38810    0.62350    1.000
    H45      H        0.86080    0.36020    0.62070    1.000
    C92      C        0.91500    0.42920    0.65160    1.000
    H46      H        0.81230    0.42870    0.66760    1.000
    C93      C        0.03800    0.47090    0.65590    1.000
    C94      C        0.19100    0.47160    0.63200    1.000
    H47      H        0.27410    0.49950    0.63480    1.000
    C95      C        0.22000    0.43050    0.60390    1.000
    H48      H        0.32260    0.43100    0.58800    1.000
    C96      C        0.01000    0.51300    0.68930    1.000
    Cd1      Cd       0.00000    0.40505    0.25000    1.000
    Cd2      Cd       0.50000    0.09495    0.75000    1.000
    Pd1      Pd       0.75000    0.25000    0.00000    1.000
    Pd2      Pd       0.25000    0.25000    0.50000    1.000
    O17      O        0.81080    0.88310    0.27250    1.000
    O18      O        0.39500    0.84330    0.19450    1.000
    O19      O        0.85800    0.48740    0.20120    1.000
    O20      O        0.15100    0.45490    0.19530    1.000
    N9       N        0.36200    0.72020    0.05920    1.000
    N10      N        0.45440    0.79850    0.99930    1.000
    C97      C        0.29600    0.68070    0.08100    1.000
    C98      C        0.41600    0.67640    0.12390    1.000
    H49      H        0.39890    0.65360    0.14680    1.000
    C99      C        0.54600    0.71010    0.12300    1.000
    H50      H        0.64410    0.71360    0.14520    1.000
    C100     C        0.52400    0.74350    0.08270    1.000
    C101     C        0.64000    0.78060    0.07090    1.000
    C102     C        0.61000    0.80480    0.03180    1.000
    C103     C        0.72600    0.84490    0.02000    1.000
    H51      H        0.83660    0.85530    0.03610    1.000
    C104     C        0.64900    0.86710    0.97980    1.000
    H52      H        0.69420    0.89490    0.96460    1.000
    C105     C        0.48500    0.83650    0.96800    1.000
    C106     C        0.13700    0.65450    0.07090    1.000
    C107     C        0.79100    0.79880    0.10340    1.000
    C108     C        0.75500    0.82750    0.14090    1.000
    H53      H        0.63380    0.83760    0.14410    1.000
    C109     C        0.89200    0.84040    0.17140    1.000
    H54      H        0.86330    0.85620    0.19720    1.000
    C110     C        0.07400    0.83080    0.16590    1.000
    C111     C        0.12000    0.80300    0.12990    1.000
    H55      H        0.24300    0.79540    0.12600    1.000
    C112     C        0.97300    0.78710    0.10000    1.000
    H56      H        0.00030    0.76720    0.07610    1.000
    C113     C        0.23100    0.85470    0.19820    1.000
    C114     C        0.09700    0.61120    0.09970    1.000
    C115     C        0.94400    0.61190    0.12350    1.000
    H57      H        0.86080    0.63980    0.12070    1.000
    C116     C        0.91500    0.57080    0.15160    1.000
    H58      H        0.81230    0.57130    0.16760    1.000
    C117     C        0.03800    0.52910    0.15590    1.000
    C118     C        0.19100    0.52840    0.13200    1.000
    H59      H        0.27410    0.50050    0.13480    1.000
    C119     C        0.22000    0.56950    0.10390    1.000
    H60      H        0.32260    0.56900    0.08800    1.000
    C120     C        0.01000    0.48700    0.18930    1.000
    O21      O        0.18920    0.88310    0.22750    1.000
    O22      O        0.60500    0.84330    0.30550    1.000
    O23      O        0.14200    0.48740    0.29880    1.000
    O24      O        0.84900    0.45490    0.30470    1.000
    N11      N        0.63800    0.72020    0.44080    1.000
    N12      N        0.54560    0.79850    0.50070    1.000
    C121     C        0.70400    0.68070    0.41900    1.000
    C122     C        0.58400    0.67640    0.37610    1.000
    H61      H        0.60110    0.65360    0.35320    1.000
    C123     C        0.45400    0.71010    0.37700    1.000
    H62      H        0.35590    0.71360    0.35480    1.000
    C124     C        0.47600    0.74350    0.41730    1.000
    C125     C        0.36000    0.78060    0.42910    1.000
    C126     C        0.39000    0.80480    0.46820    1.000
    C127     C        0.27400    0.84490    0.48000    1.000
    H63      H        0.16340    0.85530    0.46390    1.000
    C128     C        0.35100    0.86710    0.52020    1.000
    H64      H        0.30580    0.89490    0.53540    1.000
    C129     C        0.51500    0.83650    0.53200    1.000
    C130     C        0.86300    0.65450    0.42910    1.000
    C131     C        0.20900    0.79880    0.39660    1.000
    C132     C        0.24500    0.82750    0.35910    1.000
    H65      H        0.36620    0.83760    0.35590    1.000
    C133     C        0.10800    0.84040    0.32860    1.000
    H66      H        0.13670    0.85620    0.30280    1.000
    C134     C        0.92600    0.83080    0.33410    1.000
    C135     C        0.88000    0.80300    0.37010    1.000
    H67      H        0.75700    0.79540    0.37400    1.000
    C136     C        0.02700    0.78710    0.40000    1.000
    H68      H        0.99970    0.76720    0.42390    1.000
    C137     C        0.76900    0.85470    0.30180    1.000
    C138     C        0.90300    0.61120    0.40030    1.000
    C139     C        0.05600    0.61190    0.37650    1.000
    H69      H        0.13920    0.63980    0.37930    1.000
    C140     C        0.08500    0.57080    0.34840    1.000
    H70      H        0.18770    0.57130    0.33240    1.000
    C141     C        0.96200    0.52910    0.34410    1.000
    C142     C        0.80900    0.52840    0.36800    1.000
    H71      H        0.72590    0.50050    0.36520    1.000
    C143     C        0.78000    0.56950    0.39610    1.000
    H72      H        0.67740    0.56900    0.41200    1.000
    C144     C        0.99000    0.48700    0.31070    1.000
    O25      O        0.68920    0.61690    0.72750    1.000
    O26      O        0.10500    0.65670    0.80550    1.000
    O27      O        0.64200    0.01260    0.79880    1.000
    O28      O        0.34900    0.04510    0.80470    1.000
    N13      N        0.13800    0.77980    0.94080    1.000
    N14      N        0.04560    0.70150    0.00070    1.000
    C145     C        0.20400    0.81930    0.91900    1.000
    C146     C        0.08400    0.82360    0.87610    1.000
    H73      H        0.10110    0.84640    0.85320    1.000
    C147     C        0.95400    0.78990    0.87700    1.000
    H74      H        0.85590    0.78640    0.85480    1.000
    C148     C        0.97600    0.75650    0.91730    1.000
    C149     C        0.86000    0.71940    0.92910    1.000
    C150     C        0.89000    0.69520    0.96820    1.000
    C151     C        0.77400    0.65510    0.98000    1.000
    H75      H        0.66340    0.64470    0.96390    1.000
    C152     C        0.85100    0.63290    0.02020    1.000
    H76      H        0.80580    0.60510    0.03540    1.000
    C153     C        0.01500    0.66350    0.03200    1.000
    C154     C        0.36300    0.84550    0.92910    1.000
    C155     C        0.70900    0.70120    0.89660    1.000
    C156     C        0.74500    0.67250    0.85910    1.000
    H77      H        0.86620    0.66240    0.85590    1.000
    C157     C        0.60800    0.65960    0.82860    1.000
    H78      H        0.63670    0.64380    0.80280    1.000
    C158     C        0.42600    0.66920    0.83410    1.000
    C159     C        0.38000    0.69700    0.87010    1.000
    H79      H        0.25700    0.70460    0.87400    1.000
    C160     C        0.52700    0.71290    0.90000    1.000
    H80      H        0.49970    0.73280    0.92390    1.000
    C161     C        0.26900    0.64530    0.80180    1.000
    C162     C        0.40300    0.88880    0.90030    1.000
    C163     C        0.55600    0.88810    0.87650    1.000
    H81      H        0.63920    0.86020    0.87930    1.000
    C164     C        0.58500    0.92920    0.84840    1.000
    H82      H        0.68770    0.92870    0.83240    1.000
    C165     C        0.46200    0.97090    0.84410    1.000
    C166     C        0.30900    0.97160    0.86800    1.000
    H83      H        0.22590    0.99950    0.86520    1.000
    C167     C        0.28000    0.93050    0.89610    1.000
    H84      H        0.17740    0.93100    0.91200    1.000
    C168     C        0.49000    0.01300    0.81070    1.000
    O29      O        0.31080    0.61690    0.77250    1.000
    O30      O        0.89500    0.65670    0.69450    1.000
    O31      O        0.35800    0.01260    0.70120    1.000
    O32      O        0.65100    0.04510    0.69530    1.000
    N15      N        0.86200    0.77980    0.55920    1.000
    N16      N        0.95440    0.70150    0.49930    1.000
    C169     C        0.79600    0.81930    0.58100    1.000
    C170     C        0.91600    0.82360    0.62390    1.000
    H85      H        0.89890    0.84640    0.64680    1.000
    C171     C        0.04600    0.78990    0.62300    1.000
    H86      H        0.14410    0.78640    0.64520    1.000
    C172     C        0.02400    0.75650    0.58270    1.000
    C173     C        0.14000    0.71940    0.57090    1.000
    C174     C        0.11000    0.69520    0.53180    1.000
    C175     C        0.22600    0.65510    0.52000    1.000
    H87      H        0.33660    0.64470    0.53610    1.000
    C176     C        0.14900    0.63290    0.47980    1.000
    H88      H        0.19420    0.60510    0.46460    1.000
    C177     C        0.98500    0.66350    0.46800    1.000
    C178     C        0.63700    0.84550    0.57090    1.000
    C179     C        0.29100    0.70120    0.60340    1.000
    C180     C        0.25500    0.67250    0.64090    1.000
    H89      H        0.13380    0.66240    0.64410    1.000
    C181     C        0.39200    0.65960    0.67140    1.000
    H90      H        0.36330    0.64380    0.69720    1.000
    C182     C        0.57400    0.66920    0.66590    1.000
    C183     C        0.62000    0.69700    0.62990    1.000
    H91      H        0.74300    0.70460    0.62600    1.000
    C184     C        0.47300    0.71290    0.60000    1.000
    H92      H        0.50030    0.73280    0.57610    1.000
    C185     C        0.73100    0.64530    0.69820    1.000
    C186     C        0.59700    0.88880    0.59970    1.000
    C187     C        0.44400    0.88810    0.62350    1.000
    H93      H        0.36080    0.86020    0.62070    1.000
    C188     C        0.41500    0.92920    0.65160    1.000
    H94      H        0.31230    0.92870    0.66760    1.000
    C189     C        0.53800    0.97090    0.65590    1.000
    C190     C        0.69100    0.97160    0.63200    1.000
    H95      H        0.77410    0.99950    0.63480    1.000
    C191     C        0.72000    0.93050    0.60390    1.000
    H96      H        0.82260    0.93100    0.58800    1.000
    C192     C        0.51000    0.01300    0.68930    1.000
    Cd3      Cd       0.50000    0.90505    0.25000    1.000
    Cd4      Cd       0.00000    0.59495    0.75000    1.000
    Pd3      Pd       0.25000    0.75000    0.00000    1.000
    Pd4      Pd       0.75000    0.75000    0.50000    1.000
