data_functionalizedCrystal
_audit_creation_method	'EQeq! by Chris Wilmer'
_symmetry_space_group_name_H-M	'P1'
_symmetry_Int_Tables_number	1
_symmetry_cell_setting	triclinic
loop_
_symmetry_equiv_pos_as_xyz
  x,y,z
_cell_length_a	33.5767
_cell_length_b	33.5767
_cell_length_c	33.5767
_cell_angle_alpha	109.471
_cell_angle_beta	109.471
_cell_angle_gamma	109.471
loop_
_atom_site_label
_atom_site_type_symbol
_atom_site_fract_x
_atom_site_fract_y
_atom_site_fract_z
_atom_site_charge
Mof_In	In	0.77764	0.9223	0.11518	2.657
Mof_In	In	0.30712	0.66246	0.38482	2.657
Mof_In	In	0.19288	0.5777	0.35534	2.657
Mof_In	In	0.72236	0.83754	0.14466	2.657
Mof_In	In	0.85534	0.19288	0.0777	2.657
Mof_In	In	0.64466	0.72236	0.33754	2.657
Mof_In	In	0.61518	0.77764	0.4223	2.657
Mof_In	In	0.88482	0.30712	0.16246	2.657
Mof_In	In	0.66246	0.88482	0.80712	2.657
Mof_In	In	0.9223	0.61518	0.27764	2.657
Mof_In	In	0.83754	0.64466	0.22236	2.657
Mof_In	In	0.5777	0.85534	0.69288	2.657
Mof_In	In	0.16246	0.80712	0.88482	2.657
Mof_In	In	0.4223	0.27764	0.61518	2.657
Mof_In	In	0.33754	0.22236	0.64466	2.657
Mof_In	In	0.0777	0.69288	0.85534	2.657
Mof_In	In	0.27764	0.11518	0.9223	2.657
Mof_In	In	0.80712	0.38482	0.66246	2.657
Mof_In	In	0.69288	0.35534	0.5777	2.657
Mof_In	In	0.22236	0.14466	0.83754	2.657
Mof_In	In	0.35534	0.0777	0.19288	2.657
Mof_In	In	0.14466	0.33754	0.72236	2.657
Mof_In	In	0.11518	0.4223	0.77764	2.657
Mof_In	In	0.38482	0.16246	0.30712	2.657
Mof_In	In	0.75	0.80002	0.05002	2.341
Mof_In	In	0.25	0.69998	0.44998	2.342
Mof_In	In	0.94998	0.25	0.19998	2.341
Mof_In	In	0.55002	0.75	0.30002	2.342
Mof_In	In	0.69998	0.94998	0.75	2.342
Mof_In	In	0.80002	0.55002	0.25	2.342
Mof_In	In	0.19998	0.75	0.94998	2.342
Mof_In	In	0.30002	0.25	0.55002	2.342
Mof_In	In	0.25	0.05002	0.80002	2.342
Mof_In	In	0.75	0.44998	0.69998	2.342
Mof_In	In	0.44998	0.19998	0.25	2.342
Mof_In	In	0.05002	0.30002	0.75	2.341
Mof_H 	H 	0.6941	0.919	0.9789	0.039
Mof_H 	H 	0.7187	0.8135	0.9144	0.03
Mof_H 	H 	0.6933	0.8203	0.8464	-0.013
Mof_H 	H 	0.6696	0.9235	0.9087	-0.005
Mof_H 	H 	0.1995	0.009	0.1437	-0.061
Mof_H 	H 	0.9264	0.9842	0.1476	-0.066
Mof_H 	H 	0.2309	0.1209	0.2626	-0.053
Mof_H 	H 	0.1186	0.9762	0.1192	0.156
Mof_H 	H 	0.1481	0.0883	0.2354	0.14
Mof_H 	H 	0.9026	0.8494	0.075	-0.074
Mof_H 	H 	0.0031	0.0144	0.1565	0.161
Mof_H 	H 	0.9799	0.8841	0.0874	0.157
Mof_H 	H 	0.4401	0.7152	0.5211	0.04
Mof_H 	H 	0.3991	0.8043	0.5856	0.031
Mof_H 	H 	0.4739	0.8469	0.6536	-0.013
Mof_H 	H 	0.5148	0.7609	0.5913	-0.005
Mof_H 	H 	0.3653	0.0558	0.3563	-0.061
Mof_H 	H 	0.3366	0.7788	0.3524	-0.065
Mof_H 	H 	0.3583	0.9683	0.2374	-0.053
Mof_H 	H 	0.357	0.9994	0.3808	0.156
Mof_H 	H 	0.3529	0.9127	0.2646	0.14
Mof_H 	H 	0.2744	0.8276	0.425	-0.073
Mof_H 	H 	0.3579	0.8466	0.3435	0.159
Mof_H 	H 	0.2967	0.8925	0.4126	0.156
Mof_H 	H 	0.0599	0.581	0.2751	0.04
Mof_H 	H 	0.1009	0.6865	0.4052	0.031
Mof_H 	H 	0.0261	0.6797	0.373	-0.013
Mof_H 	H 	0.9852	0.5765	0.2461	-0.006
Mof_H 	H 	0.1347	0.491	0.6905	-0.061
Mof_H 	H 	0.1634	0.5158	0.4422	-0.065
Mof_H 	H 	0.1417	0.3791	0.61	-0.053
Mof_H 	H 	0.143	0.5238	0.6424	0.156
Mof_H 	H 	0.1471	0.4117	0.5598	0.14
Mof_H 	H 	0.2256	0.6506	0.5532	-0.073
Mof_H 	H 	0.1421	0.4856	0.4887	0.159
Mof_H 	H 	0.2033	0.6159	0.5958	0.156
Mof_H 	H 	0.8059	0.7848	0.2249	0.04
Mof_H 	H 	0.7813	0.6957	0.0948	0.031
Mof_H 	H 	0.8067	0.6531	0.127	-0.013
Mof_H 	H 	0.8304	0.7391	0.2539	-0.005
Mof_H 	H 	0.3005	0.4442	0.8095	-0.061
Mof_H 	H 	0.5736	0.7212	0.0578	-0.065
Mof_H 	H 	0.2691	0.5317	0.89	-0.053
Mof_H 	H 	0.3814	0.5006	0.8576	0.156
Mof_H 	H 	0.3519	0.5873	0.9402	0.14
Mof_H 	H 	0.5974	0.6724	0.9468	-0.073
Mof_H 	H 	0.4969	0.6534	0.0113	0.159
Mof_H 	H 	0.5201	0.6075	0.9042	0.156
Mof_H 	H 	0.7751	0.0599	0.081	0.04
Mof_H 	H 	0.9052	0.1009	0.1865	0.031
Mof_H 	H 	0.873	0.0261	0.1797	-0.013
Mof_H 	H 	0.7461	0.9852	0.0765	-0.006
Mof_H 	H 	0.1905	0.1347	0.991	-0.062
Mof_H 	H 	0.9422	0.1634	0.0158	-0.065
Mof_H 	H 	0.11	0.1417	0.8791	-0.054
Mof_H 	H 	0.1424	0.143	0.0238	0.157
Mof_H 	H 	0.0598	0.1471	0.9117	0.14
Mof_H 	H 	0.0532	0.2256	0.1506	-0.073
Mof_H 	H 	0.9887	0.1421	0.9856	0.159
Mof_H 	H 	0.0958	0.2033	0.1159	0.156
Mof_H 	H 	0.7249	0.8059	0.2848	0.04
Mof_H 	H 	0.5948	0.7813	0.1957	0.031
Mof_H 	H 	0.627	0.8067	0.1531	-0.013
Mof_H 	H 	0.7539	0.8304	0.2391	-0.005
Mof_H 	H 	0.3095	0.3005	0.9442	-0.061
Mof_H 	H 	0.5578	0.5736	0.2212	-0.065
Mof_H 	H 	0.39	0.2691	0.0317	-0.053
Mof_H 	H 	0.3576	0.3814	0.0006	0.156
Mof_H 	H 	0.4402	0.3519	0.0873	0.14
Mof_H 	H 	0.4468	0.5974	0.1724	-0.073
Mof_H 	H 	0.5113	0.4969	0.1534	0.159
Mof_H 	H 	0.4042	0.5201	0.1075	0.156
Mof_H 	H 	0.4789	0.6941	0.419	0.04
Mof_H 	H 	0.4144	0.7187	0.3135	0.031
Mof_H 	H 	0.3464	0.6933	0.3203	-0.013
Mof_H 	H 	0.4087	0.6696	0.4235	-0.005
Mof_H 	H 	0.6437	0.1995	0.509	-0.061
Mof_H 	H 	0.6476	0.9264	0.4842	-0.065
Mof_H 	H 	0.7626	0.2309	0.6209	-0.053
Mof_H 	H 	0.6192	0.1186	0.4762	0.156
Mof_H 	H 	0.7354	0.1481	0.5883	0.14
Mof_H 	H 	0.575	0.9026	0.3494	-0.073
Mof_H 	H 	0.6565	0.0031	0.5144	0.159
Mof_H 	H 	0.5874	0.9799	0.3841	0.156
Mof_H 	H 	0.0211	0.4401	0.2152	0.04
Mof_H 	H 	0.0856	0.3991	0.3043	0.031
Mof_H 	H 	0.1536	0.4739	0.3469	-0.013
Mof_H 	H 	0.0913	0.5148	0.2609	-0.005
Mof_H 	H 	0.8563	0.3653	0.5558	-0.061
Mof_H 	H 	0.8524	0.3366	0.2788	-0.065
Mof_H 	H 	0.7374	0.3583	0.4683	-0.053
Mof_H 	H 	0.8808	0.357	0.4994	0.156
Mof_H 	H 	0.7646	0.3529	0.4127	0.14
Mof_H 	H 	0.925	0.2744	0.3276	-0.073
Mof_H 	H 	0.8435	0.3579	0.3466	0.159
Mof_H 	H 	0.9126	0.2967	0.3925	0.156
Mof_H 	H 	0.7152	0.0211	0.9401	0.04
Mof_H 	H 	0.8043	0.0856	0.8991	0.031
Mof_H 	H 	0.8469	0.1536	0.9739	-0.013
Mof_H 	H 	0.7609	0.0913	0.0148	-0.006
Mof_H 	H 	0.0558	0.8563	0.8653	-0.061
Mof_H 	H 	0.7788	0.8524	0.8366	-0.065
Mof_H 	H 	0.9683	0.7374	0.8583	-0.053
Mof_H 	H 	0.9994	0.8808	0.857	0.156
Mof_H 	H 	0.9127	0.7646	0.8529	0.14
Mof_H 	H 	0.8276	0.925	0.7744	-0.073
Mof_H 	H 	0.8466	0.8435	0.8579	0.159
Mof_H 	H 	0.8925	0.9126	0.7967	0.156
Mof_H 	H 	0.919	0.4789	0.1941	0.04
Mof_H 	H 	0.8135	0.4144	0.2187	0.031
Mof_H 	H 	0.8203	0.3464	0.1933	-0.013
Mof_H 	H 	0.9235	0.4087	0.1696	-0.005
Mof_H 	H 	0.009	0.6437	0.6995	-0.061
Mof_H 	H 	0.9842	0.6476	0.4264	-0.065
Mof_H 	H 	0.1209	0.7626	0.7309	-0.053
Mof_H 	H 	0.9762	0.6192	0.6186	0.157
Mof_H 	H 	0.0883	0.7354	0.6481	0.14
Mof_H 	H 	0.8494	0.575	0.4026	-0.073
Mof_H 	H 	0.0144	0.6565	0.5031	0.159
Mof_H 	H 	0.8841	0.5874	0.4799	0.156
Mof_H 	H 	0.7848	0.7249	0.3059	0.04
Mof_H 	H 	0.6957	0.5948	0.2813	0.031
Mof_H 	H 	0.6531	0.627	0.3067	-0.013
Mof_H 	H 	0.7391	0.7539	0.3304	-0.005
Mof_H 	H 	0.4442	0.3095	0.8005	-0.061
Mof_H 	H 	0.7212	0.5578	0.0736	-0.066
Mof_H 	H 	0.5317	0.39	0.7691	-0.053
Mof_H 	H 	0.5006	0.3576	0.8814	0.156
Mof_H 	H 	0.5873	0.4402	0.8519	0.14
Mof_H 	H 	0.6724	0.4468	0.0974	-0.073
Mof_H 	H 	0.6534	0.5113	0.9969	0.16
Mof_H 	H 	0.6075	0.4042	0.0201	0.156
Mof_H 	H 	0.581	0.7751	0.5599	0.04
Mof_H 	H 	0.6865	0.9052	0.6009	0.031
Mof_H 	H 	0.6797	0.873	0.5261	-0.013
Mof_H 	H 	0.5765	0.7461	0.4852	-0.005
Mof_H 	H 	0.491	0.1905	0.6347	-0.061
Mof_H 	H 	0.5158	0.9422	0.6634	-0.065
Mof_H 	H 	0.3791	0.11	0.6417	-0.053
Mof_H 	H 	0.5238	0.1424	0.643	0.156
Mof_H 	H 	0.4117	0.0598	0.6471	0.14
Mof_H 	H 	0.6506	0.0532	0.7256	-0.073
Mof_H 	H 	0.4856	0.9887	0.6421	0.159
Mof_H 	H 	0.6159	0.0958	0.7033	0.156
Mof_H 	H 	0.2152	0.9401	0.0211	0.04
Mof_H 	H 	0.3043	0.8991	0.0856	0.031
Mof_H 	H 	0.3469	0.9739	0.1536	-0.013
Mof_H 	H 	0.2609	0.0148	0.0913	-0.005
Mof_H 	H 	0.5558	0.8653	0.8563	-0.061
Mof_H 	H 	0.2788	0.8366	0.8524	-0.065
Mof_H 	H 	0.4683	0.8583	0.7374	-0.053
Mof_H 	H 	0.4994	0.857	0.8808	0.156
Mof_H 	H 	0.4127	0.8529	0.7646	0.14
Mof_H 	H 	0.3276	0.7744	0.925	-0.073
Mof_H 	H 	0.3466	0.8579	0.8435	0.159
Mof_H 	H 	0.3925	0.7967	0.9126	0.156
Mof_H 	H 	0.419	0.1941	0.4789	0.04
Mof_H 	H 	0.3135	0.2187	0.4144	0.031
Mof_H 	H 	0.3203	0.1933	0.3464	-0.013
Mof_H 	H 	0.4235	0.1696	0.4087	-0.005
Mof_H 	H 	0.509	0.6995	0.6437	-0.061
Mof_H 	H 	0.4842	0.4264	0.6476	-0.065
Mof_H 	H 	0.6209	0.7309	0.7626	-0.053
Mof_H 	H 	0.4762	0.6186	0.6192	0.156
Mof_H 	H 	0.5883	0.6481	0.7354	0.14
Mof_H 	H 	0.3494	0.4026	0.575	-0.073
Mof_H 	H 	0.5144	0.5031	0.6565	0.159
Mof_H 	H 	0.3841	0.4799	0.5874	0.156
Mof_H 	H 	0.2848	0.3059	0.7249	0.04
Mof_H 	H 	0.1957	0.2813	0.5948	0.031
Mof_H 	H 	0.1531	0.3067	0.627	-0.013
Mof_H 	H 	0.2391	0.3304	0.7539	-0.005
Mof_H 	H 	0.9442	0.8005	0.3095	-0.061
Mof_H 	H 	0.2212	0.0736	0.5578	-0.065
Mof_H 	H 	0.0317	0.7691	0.39	-0.053
Mof_H 	H 	0.0006	0.8814	0.3576	0.156
Mof_H 	H 	0.0873	0.8519	0.4402	0.14
Mof_H 	H 	0.1724	0.0974	0.4468	-0.073
Mof_H 	H 	0.1534	0.9969	0.5113	0.159
Mof_H 	H 	0.1075	0.0201	0.4042	0.156
Mof_H 	H 	0.081	0.5599	0.7751	0.04
Mof_H 	H 	0.1865	0.6009	0.9052	0.031
Mof_H 	H 	0.1797	0.5261	0.873	-0.013
Mof_H 	H 	0.0765	0.4852	0.7461	-0.005
Mof_H 	H 	0.991	0.6347	0.1905	-0.062
Mof_H 	H 	0.0158	0.6634	0.9422	-0.065
Mof_H 	H 	0.8791	0.6417	0.11	-0.054
Mof_H 	H 	0.0238	0.643	0.1424	0.157
Mof_H 	H 	0.9117	0.6471	0.0598	0.14
Mof_H 	H 	0.1506	0.7256	0.0532	-0.073
Mof_H 	H 	0.9856	0.6421	0.9887	0.159
Mof_H 	H 	0.1159	0.7033	0.0958	0.156
Mof_H 	H 	0.1941	0.9789	0.919	0.04
Mof_H 	H 	0.2187	0.9144	0.8135	0.031
Mof_H 	H 	0.1933	0.8464	0.8203	-0.013
Mof_H 	H 	0.1696	0.9087	0.9235	-0.005
Mof_H 	H 	0.6995	0.1437	0.009	-0.061
Mof_H 	H 	0.4264	0.1476	0.9842	-0.065
Mof_H 	H 	0.7309	0.2626	0.1209	-0.053
Mof_H 	H 	0.6186	0.1192	0.9762	0.157
Mof_H 	H 	0.6481	0.2354	0.0883	0.14
Mof_H 	H 	0.4026	0.075	0.8494	-0.073
Mof_H 	H 	0.5031	0.1565	0.0144	0.159
Mof_H 	H 	0.4799	0.0874	0.8841	0.156
Mof_H 	H 	0.9401	0.5211	0.7152	0.04
Mof_H 	H 	0.8991	0.5856	0.8043	0.031
Mof_H 	H 	0.9739	0.6536	0.8469	-0.013
Mof_H 	H 	0.0148	0.5913	0.7609	-0.006
Mof_H 	H 	0.8653	0.3563	0.0558	-0.061
Mof_H 	H 	0.8366	0.3524	0.7788	-0.065
Mof_H 	H 	0.8583	0.2374	0.9683	-0.053
Mof_H 	H 	0.857	0.3808	0.9994	0.156
Mof_H 	H 	0.8529	0.2646	0.9127	0.14
Mof_H 	H 	0.7744	0.425	0.8276	-0.073
Mof_H 	H 	0.8579	0.3435	0.8466	0.159
Mof_H 	H 	0.7967	0.4126	0.8925	0.156
Mof_H 	H 	0.5599	0.2751	0.581	0.04
Mof_H 	H 	0.6009	0.4052	0.6865	0.031
Mof_H 	H 	0.5261	0.373	0.6797	-0.013
Mof_H 	H 	0.4852	0.2461	0.5765	-0.005
Mof_H 	H 	0.6347	0.6905	0.491	-0.061
Mof_H 	H 	0.6634	0.4422	0.5158	-0.065
Mof_H 	H 	0.6417	0.61	0.3791	-0.053
Mof_H 	H 	0.643	0.6424	0.5238	0.156
Mof_H 	H 	0.6471	0.5598	0.4117	0.14
Mof_H 	H 	0.7256	0.5532	0.6506	-0.073
Mof_H 	H 	0.6421	0.4887	0.4856	0.159
Mof_H 	H 	0.7033	0.5958	0.6159	0.156
Mof_H 	H 	0.3059	0.2249	0.7848	0.04
Mof_H 	H 	0.2813	0.0948	0.6957	0.031
Mof_H 	H 	0.3067	0.127	0.6531	-0.013
Mof_H 	H 	0.3304	0.2539	0.7391	-0.005
Mof_H 	H 	0.8005	0.8095	0.4442	-0.061
Mof_H 	H 	0.0736	0.0578	0.7212	-0.065
Mof_H 	H 	0.7691	0.89	0.5317	-0.053
Mof_H 	H 	0.8814	0.8576	0.5006	0.156
Mof_H 	H 	0.8519	0.9402	0.5873	0.14
Mof_H 	H 	0.0974	0.9468	0.6724	-0.073
Mof_H 	H 	0.9969	0.0113	0.6534	0.16
Mof_H 	H 	0.0201	0.9042	0.6075	0.156
Mof_H 	H 	0.2751	0.081	0.0599	0.04
Mof_H 	H 	0.4052	0.1865	0.1009	0.031
Mof_H 	H 	0.373	0.1797	0.0261	-0.013
Mof_H 	H 	0.2461	0.0765	0.9852	-0.006
Mof_H 	H 	0.6905	0.991	0.1347	-0.061
Mof_H 	H 	0.4422	0.0158	0.1634	-0.065
Mof_H 	H 	0.61	0.8791	0.1417	-0.053
Mof_H 	H 	0.6424	0.0238	0.143	0.157
Mof_H 	H 	0.5598	0.9117	0.1471	0.14
Mof_H 	H 	0.5532	0.1506	0.2256	-0.073
Mof_H 	H 	0.4887	0.9856	0.1421	0.159
Mof_H 	H 	0.5958	0.1159	0.2033	0.156
Mof_H 	H 	0.2249	0.2848	0.8059	0.04
Mof_H 	H 	0.0948	0.1957	0.7813	0.031
Mof_H 	H 	0.127	0.1531	0.8067	-0.013
Mof_H 	H 	0.2539	0.2391	0.8304	-0.005
Mof_H 	H 	0.8095	0.9442	0.3005	-0.061
Mof_H 	H 	0.0578	0.2212	0.5736	-0.065
Mof_H 	H 	0.89	0.0317	0.2691	-0.053
Mof_H 	H 	0.8576	0.0006	0.3814	0.156
Mof_H 	H 	0.9402	0.0873	0.3519	0.14
Mof_H 	H 	0.9468	0.1724	0.5974	-0.073
Mof_H 	H 	0.0113	0.1534	0.4969	0.159
Mof_H 	H 	0.9042	0.1075	0.5201	0.156
Mof_H 	H 	0.9789	0.419	0.6941	0.04
Mof_H 	H 	0.9144	0.3135	0.7187	0.031
Mof_H 	H 	0.8464	0.3203	0.6933	-0.013
Mof_H 	H 	0.9087	0.4235	0.6696	-0.005
Mof_H 	H 	0.1437	0.509	0.1995	-0.061
Mof_H 	H 	0.1476	0.4842	0.9264	-0.066
Mof_H 	H 	0.2626	0.6209	0.2309	-0.053
Mof_H 	H 	0.1192	0.4762	0.1186	0.156
Mof_H 	H 	0.2354	0.5883	0.1481	0.14
Mof_H 	H 	0.075	0.3494	0.9026	-0.073
Mof_H 	H 	0.1565	0.5144	0.0031	0.16
Mof_H 	H 	0.0874	0.3841	0.9799	0.157
Mof_H 	H 	0.5211	0.2152	0.4401	0.04
Mof_H 	H 	0.5856	0.3043	0.3991	0.031
Mof_H 	H 	0.6536	0.3469	0.4739	-0.013
Mof_H 	H 	0.5913	0.2609	0.5148	-0.005
Mof_H 	H 	0.3563	0.5558	0.3653	-0.061
Mof_H 	H 	0.3524	0.2788	0.3366	-0.065
Mof_H 	H 	0.2374	0.4683	0.3583	-0.053
Mof_H 	H 	0.3808	0.4994	0.357	0.156
Mof_H 	H 	0.2646	0.4127	0.3529	0.14
Mof_H 	H 	0.425	0.3276	0.2744	-0.073
Mof_H 	H 	0.3435	0.3466	0.3579	0.159
Mof_H 	H 	0.4126	0.3925	0.2967	0.156
Mof_C 	C 	0.69431	0.89853	0.95234	-0.022
Mof_C 	C 	0.70871	0.83615	0.91402	-0.036
Mof_C 	C 	0.85297	0.89383	0.09634	0.633
Mof_C 	C 	0.90467	0.91396	0.10713	-0.357
Mof_C 	C 	0.70863	0.86549	0.9548	-0.131
Mof_C 	C 	0.27654	0.08948	0.22068	0.639
Mof_C 	C 	0.69403	0.84085	0.87362	0.062
Mof_C 	C 	0.72561	0.86238	0.00023	0.537
Mof_C 	C 	0.68003	0.90141	0.9102	0.043
Mof_C 	C 	0.22377	0.0685	0.20427	-0.355
Mof_C 	C 	0.0009	0.952	0.1279	0.313
Mof_C 	C 	0.1896	0.0256	0.163	0.281
Mof_C 	C 	0.1259	0.0286	0.1763	0.272
Mof_C 	C 	0.9364	0.963	0.1342	0.283
Mof_C 	C 	0.2083	0.0919	0.233	0.248
Mof_C 	C 	0.1411	0.0055	0.1482	-0.345
Mof_C 	C 	0.1587	0.0716	0.2171	-0.327
Mof_C 	C 	0.9222	0.8831	0.0913	0.278
Mof_C 	C 	0.9832	0.9809	0.1415	-0.366
Mof_C 	C 	0.9692	0.9044	0.1008	-0.369
Mof_C 	C 	0.44619	0.74197	0.54766	-0.021
Mof_C 	C 	0.42213	0.79469	0.58598	-0.036
Mof_C 	C 	0.29749	0.75663	0.40366	0.632
Mof_C 	C 	0.30683	0.79754	0.39287	-0.355
Mof_C 	C 	0.41069	0.75383	0.5452	-0.132
Mof_C 	C 	0.3688	0.05586	0.27932	0.639
Mof_C 	C 	0.46723	0.82041	0.62638	0.062
Mof_C 	C 	0.36215	0.72538	0.49977	0.538
Mof_C 	C 	0.49121	0.76983	0.5898	0.043
Mof_C 	C 	0.36423	0.0195	0.29573	-0.355
Mof_C 	C 	0.3241	0.873	0.3721	0.311
Mof_C 	C 	0.3626	0.0266	0.337	0.281
Mof_C 	C 	0.3523	0.9496	0.3237	0.272
Mof_C 	C 	0.3288	0.8022	0.3658	0.281
Mof_C 	C 	0.3589	0.9753	0.267	0.248
Mof_C 	C 	0.3573	0.9929	0.3518	-0.345
Mof_C 	C 	0.3545	0.9416	0.2829	-0.327
Mof_C 	C 	0.2918	0.8309	0.4087	0.276
Mof_C 	C 	0.3394	0.8417	0.3585	-0.363
Mof_C 	C 	0.3036	0.8684	0.3992	-0.367
Mof_C 	C 	0.05381	0.60147	0.29578	-0.022
Mof_C 	C 	0.07787	0.66385	0.37256	-0.036
Mof_C 	C 	0.20251	0.60617	0.45914	0.632
Mof_C 	C 	0.19317	0.58604	0.49071	-0.355
Mof_C 	C 	0.08931	0.63451	0.34314	-0.131
Mof_C 	C 	0.1312	0.41052	0.68706	0.639
Mof_C 	C 	0.03277	0.65915	0.35318	0.062
Mof_C 	C 	0.13785	0.63762	0.36323	0.538
Mof_C 	C 	0.00879	0.59859	0.27862	0.044
Mof_C 	C 	0.13577	0.4315	0.65527	-0.355
Mof_C 	C 	0.1759	0.548	0.5489	0.311
Mof_C 	C 	0.1374	0.4744	0.664	0.281
Mof_C 	C 	0.1477	0.4714	0.5973	0.272
Mof_C 	C 	0.1712	0.537	0.4734	0.281
Mof_C 	C 	0.1411	0.4081	0.6164	0.248
Mof_C 	C 	0.1427	0.4945	0.6356	-0.345
Mof_C 	C 	0.1455	0.4284	0.5871	-0.327
Mof_C 	C 	0.2082	0.6169	0.5391	0.276
Mof_C 	C 	0.1606	0.5191	0.5023	-0.363
Mof_C 	C 	0.1964	0.5956	0.5648	-0.367
Mof_C 	C 	0.80569	0.75803	0.20422	-0.021
Mof_C 	C 	0.79129	0.70531	0.12744	-0.036
Mof_C 	C 	0.64703	0.74337	0.04086	0.632
Mof_C 	C 	0.59533	0.70246	0.00929	-0.355
Mof_C 	C 	0.79137	0.74617	0.15686	-0.132
Mof_C 	C 	0.22346	0.44414	0.81294	0.639
Mof_C 	C 	0.80597	0.67959	0.14682	0.062
Mof_C 	C 	0.77439	0.77462	0.13677	0.538
Mof_C 	C 	0.81997	0.73017	0.22138	0.043
Mof_C 	C 	0.27623	0.4805	0.84473	-0.355
Mof_C 	C 	0.4991	0.627	0.9511	0.31
Mof_C 	C 	0.3104	0.4734	0.836	0.281
Mof_C 	C 	0.3741	0.5504	0.9027	0.272
Mof_C 	C 	0.5636	0.6978	0.0266	0.281
Mof_C 	C 	0.2917	0.5247	0.8836	0.248
Mof_C 	C 	0.3589	0.5071	0.8644	-0.345
Mof_C 	C 	0.3413	0.5584	0.9129	-0.327
Mof_C 	C 	0.5778	0.6691	0.9609	0.276
Mof_C 	C 	0.5168	0.6583	0.9977	-0.362
Mof_C 	C 	0.5308	0.6316	0.9352	-0.367
Mof_C 	C 	0.79578	0.05381	0.10147	-0.022
Mof_C 	C 	0.87256	0.07787	0.16385	-0.036
Mof_C 	C 	0.95914	0.20251	0.10617	0.632
Mof_C 	C 	0.99071	0.19317	0.08604	-0.356
Mof_C 	C 	0.84314	0.08931	0.13451	-0.131
Mof_C 	C 	0.18706	0.1312	0.91052	0.639
Mof_C 	C 	0.85318	0.03277	0.15915	0.062
Mof_C 	C 	0.86323	0.13785	0.13762	0.538
Mof_C 	C 	0.77862	0.00879	0.09859	0.044
Mof_C 	C 	0.15527	0.13577	0.9315	-0.356
Mof_C 	C 	0.0489	0.1759	0.048	0.311
Mof_C 	C 	0.164	0.1374	0.9744	0.282
Mof_C 	C 	0.0973	0.1477	0.9714	0.273
Mof_C 	C 	0.9734	0.1712	0.037	0.28
Mof_C 	C 	0.1164	0.1411	0.9081	0.249
Mof_C 	C 	0.1356	0.1427	0.9945	-0.347
Mof_C 	C 	0.0871	0.1455	0.9284	-0.328
Mof_C 	C 	0.0391	0.2082	0.1169	0.277
Mof_C 	C 	0.0023	0.1606	0.0191	-0.363
Mof_C 	C 	0.0648	0.1964	0.0956	-0.367
Mof_C 	C 	0.70422	0.80569	0.25803	-0.021
Mof_C 	C 	0.62744	0.79129	0.20531	-0.036
Mof_C 	C 	0.54086	0.64703	0.24337	0.632
Mof_C 	C 	0.50929	0.59533	0.20246	-0.355
Mof_C 	C 	0.65686	0.79137	0.24617	-0.132
Mof_C 	C 	0.31294	0.22346	0.94414	0.639
Mof_C 	C 	0.64682	0.80597	0.17959	0.062
Mof_C 	C 	0.63677	0.77439	0.27462	0.538
Mof_C 	C 	0.72138	0.81997	0.23017	0.043
Mof_C 	C 	0.34473	0.27623	0.9805	-0.355
Mof_C 	C 	0.4511	0.4991	0.127	0.311
Mof_C 	C 	0.336	0.3104	0.9734	0.281
Mof_C 	C 	0.4027	0.3741	0.0504	0.272
Mof_C 	C 	0.5266	0.5636	0.1978	0.281
Mof_C 	C 	0.3836	0.2917	0.0247	0.249
Mof_C 	C 	0.3644	0.3589	0.0071	-0.345
Mof_C 	C 	0.4129	0.3413	0.0584	-0.327
Mof_C 	C 	0.4609	0.5778	0.1691	0.276
Mof_C 	C 	0.4977	0.5168	0.1583	-0.363
Mof_C 	C 	0.4352	0.5308	0.1316	-0.367
Mof_C 	C 	0.45234	0.69431	0.39853	-0.021
Mof_C 	C 	0.41402	0.70871	0.33615	-0.036
Mof_C 	C 	0.59634	0.85297	0.39383	0.632
Mof_C 	C 	0.60713	0.90467	0.41396	-0.355
Mof_C 	C 	0.4548	0.70863	0.36549	-0.132
Mof_C 	C 	0.72068	0.27654	0.58948	0.639
Mof_C 	C 	0.37362	0.69403	0.34085	0.062
Mof_C 	C 	0.50023	0.72561	0.36238	0.538
Mof_C 	C 	0.4102	0.68003	0.40141	0.043
Mof_C 	C 	0.70427	0.22377	0.5685	-0.355
Mof_C 	C 	0.6279	0.0009	0.452	0.311
Mof_C 	C 	0.663	0.1896	0.5256	0.281
Mof_C 	C 	0.6763	0.1259	0.5286	0.272
Mof_C 	C 	0.6342	0.9364	0.463	0.281
Mof_C 	C 	0.733	0.2083	0.5919	0.248
Mof_C 	C 	0.6482	0.1411	0.5055	-0.345
Mof_C 	C 	0.7171	0.1587	0.5716	-0.327
Mof_C 	C 	0.5913	0.9222	0.3831	0.276
Mof_C 	C 	0.6415	0.9832	0.4809	-0.363
Mof_C 	C 	0.6008	0.9692	0.4044	-0.367
Mof_C 	C 	0.04766	0.44619	0.24197	-0.022
Mof_C 	C 	0.08598	0.42213	0.29469	-0.036
Mof_C 	C 	0.90366	0.29749	0.25663	0.632
Mof_C 	C 	0.89287	0.30683	0.29754	-0.355
Mof_C 	C 	0.0452	0.41069	0.25383	-0.131
Mof_C 	C 	0.77932	0.3688	0.55586	0.639
Mof_C 	C 	0.12638	0.46723	0.32041	0.062
Mof_C 	C 	0.99977	0.36215	0.22538	0.537
Mof_C 	C 	0.0898	0.49121	0.26983	0.043
Mof_C 	C 	0.79573	0.36423	0.5195	-0.355
Mof_C 	C 	0.8721	0.3241	0.373	0.311
Mof_C 	C 	0.837	0.3626	0.5266	0.281
Mof_C 	C 	0.8237	0.3523	0.4496	0.272
Mof_C 	C 	0.8658	0.3288	0.3022	0.281
Mof_C 	C 	0.767	0.3589	0.4753	0.248
Mof_C 	C 	0.8518	0.3573	0.4929	-0.345
Mof_C 	C 	0.7829	0.3545	0.4416	-0.327
Mof_C 	C 	0.9087	0.2918	0.3309	0.276
Mof_C 	C 	0.8585	0.3394	0.3417	-0.363
Mof_C 	C 	0.8992	0.3036	0.3684	-0.367
Mof_C 	C 	0.74197	0.04766	0.94619	-0.022
Mof_C 	C 	0.79469	0.08598	0.92213	-0.036
Mof_C 	C 	0.75663	0.90366	0.79749	0.632
Mof_C 	C 	0.79754	0.89287	0.80683	-0.355
Mof_C 	C 	0.75383	0.0452	0.91069	-0.131
Mof_C 	C 	0.05586	0.77932	0.8688	0.639
Mof_C 	C 	0.82041	0.12638	0.96723	0.062
Mof_C 	C 	0.72538	0.99977	0.86215	0.538
Mof_C 	C 	0.76983	0.0898	0.99121	0.044
Mof_C 	C 	0.0195	0.79573	0.86423	-0.355
Mof_C 	C 	0.873	0.8721	0.8241	0.311
Mof_C 	C 	0.0266	0.837	0.8626	0.281
Mof_C 	C 	0.9496	0.8237	0.8523	0.272
Mof_C 	C 	0.8022	0.8658	0.8288	0.281
Mof_C 	C 	0.9753	0.767	0.8589	0.249
Mof_C 	C 	0.9929	0.8518	0.8573	-0.345
Mof_C 	C 	0.9416	0.7829	0.8545	-0.327
Mof_C 	C 	0.8309	0.9087	0.7918	0.276
Mof_C 	C 	0.8417	0.8585	0.8394	-0.363
Mof_C 	C 	0.8684	0.8992	0.8036	-0.367
Mof_C 	C 	0.89853	0.45234	0.19431	-0.021
Mof_C 	C 	0.83615	0.41402	0.20871	-0.036
Mof_C 	C 	0.89383	0.59634	0.35297	0.632
Mof_C 	C 	0.91396	0.60713	0.40467	-0.355
Mof_C 	C 	0.86549	0.4548	0.20863	-0.132
Mof_C 	C 	0.08948	0.72068	0.77654	0.639
Mof_C 	C 	0.84085	0.37362	0.19403	0.062
Mof_C 	C 	0.86238	0.50023	0.22561	0.538
Mof_C 	C 	0.90141	0.4102	0.18003	0.043
Mof_C 	C 	0.0685	0.70427	0.72377	-0.355
Mof_C 	C 	0.952	0.6279	0.5009	0.311
Mof_C 	C 	0.0256	0.663	0.6896	0.282
Mof_C 	C 	0.0286	0.6763	0.6259	0.273
Mof_C 	C 	0.963	0.6342	0.4364	0.281
Mof_C 	C 	0.0919	0.733	0.7083	0.249
Mof_C 	C 	0.0055	0.6482	0.6411	-0.346
Mof_C 	C 	0.0716	0.7171	0.6587	-0.327
Mof_C 	C 	0.8831	0.5913	0.4222	0.276
Mof_C 	C 	0.9809	0.6415	0.4832	-0.363
Mof_C 	C 	0.9044	0.6008	0.4692	-0.367
Mof_C 	C 	0.75803	0.70422	0.30569	-0.021
Mof_C 	C 	0.70531	0.62744	0.29129	-0.036
Mof_C 	C 	0.74337	0.54086	0.14703	0.633
Mof_C 	C 	0.70246	0.50929	0.09533	-0.356
Mof_C 	C 	0.74617	0.65686	0.29137	-0.132
Mof_C 	C 	0.44414	0.31294	0.72346	0.639
Mof_C 	C 	0.67959	0.64682	0.30597	0.062
Mof_C 	C 	0.77462	0.63677	0.27439	0.538
Mof_C 	C 	0.73017	0.72138	0.31997	0.043
Mof_C 	C 	0.4805	0.34473	0.77623	-0.355
Mof_C 	C 	0.627	0.4511	0.9991	0.312
Mof_C 	C 	0.4734	0.336	0.8104	0.281
Mof_C 	C 	0.5504	0.4027	0.8741	0.272
Mof_C 	C 	0.6978	0.5266	0.0636	0.282
Mof_C 	C 	0.5247	0.3836	0.7917	0.248
Mof_C 	C 	0.5071	0.3644	0.8589	-0.345
Mof_C 	C 	0.5584	0.4129	0.8413	-0.327
Mof_C 	C 	0.6691	0.4609	0.0778	0.277
Mof_C 	C 	0.6583	0.4977	0.0168	-0.365
Mof_C 	C 	0.6316	0.4352	0.0308	-0.368
Mof_C 	C 	0.60147	0.79578	0.55381	-0.021
Mof_C 	C 	0.66385	0.87256	0.57787	-0.036
Mof_C 	C 	0.60617	0.95914	0.70251	0.632
Mof_C 	C 	0.58604	0.99071	0.69317	-0.355
Mof_C 	C 	0.63451	0.84314	0.58931	-0.132
Mof_C 	C 	0.41052	0.18706	0.6312	0.639
Mof_C 	C 	0.65915	0.85318	0.53277	0.062
Mof_C 	C 	0.63762	0.86323	0.63785	0.538
Mof_C 	C 	0.59859	0.77862	0.50879	0.043
Mof_C 	C 	0.4315	0.15527	0.63577	-0.355
Mof_C 	C 	0.548	0.0489	0.6759	0.311
Mof_C 	C 	0.4744	0.164	0.6374	0.281
Mof_C 	C 	0.4714	0.0973	0.6477	0.272
Mof_C 	C 	0.537	0.9734	0.6712	0.281
Mof_C 	C 	0.4081	0.1164	0.6411	0.248
Mof_C 	C 	0.4945	0.1356	0.6427	-0.345
Mof_C 	C 	0.4284	0.0871	0.6455	-0.327
Mof_C 	C 	0.6169	0.0391	0.7082	0.276
Mof_C 	C 	0.5191	0.0023	0.6606	-0.363
Mof_C 	C 	0.5956	0.0648	0.6964	-0.367
Mof_C 	C 	0.24197	0.94619	0.04766	-0.021
Mof_C 	C 	0.29469	0.92213	0.08598	-0.036
Mof_C 	C 	0.25663	0.79749	0.90366	0.632
Mof_C 	C 	0.29754	0.80683	0.89287	-0.355
Mof_C 	C 	0.25383	0.91069	0.0452	-0.132
Mof_C 	C 	0.55586	0.8688	0.77932	0.639
Mof_C 	C 	0.32041	0.96723	0.12638	0.062
Mof_C 	C 	0.22538	0.86215	0.99977	0.538
Mof_C 	C 	0.26983	0.99121	0.0898	0.043
Mof_C 	C 	0.5195	0.86423	0.79573	-0.355
Mof_C 	C 	0.373	0.8241	0.8721	0.311
Mof_C 	C 	0.5266	0.8626	0.837	0.281
Mof_C 	C 	0.4496	0.8523	0.8237	0.272
Mof_C 	C 	0.3022	0.8288	0.8658	0.281
Mof_C 	C 	0.4753	0.8589	0.767	0.248
Mof_C 	C 	0.4929	0.8573	0.8518	-0.345
Mof_C 	C 	0.4416	0.8545	0.7829	-0.327
Mof_C 	C 	0.3309	0.7918	0.9087	0.276
Mof_C 	C 	0.3417	0.8394	0.8585	-0.363
Mof_C 	C 	0.3684	0.8036	0.8992	-0.367
Mof_C 	C 	0.39853	0.19431	0.45234	-0.021
Mof_C 	C 	0.33615	0.20871	0.41402	-0.036
Mof_C 	C 	0.39383	0.35297	0.59634	0.632
Mof_C 	C 	0.41396	0.40467	0.60713	-0.355
Mof_C 	C 	0.36549	0.20863	0.4548	-0.132
Mof_C 	C 	0.58948	0.77654	0.72068	0.639
Mof_C 	C 	0.34085	0.19403	0.37362	0.062
Mof_C 	C 	0.36238	0.22561	0.50023	0.538
Mof_C 	C 	0.40141	0.18003	0.4102	0.043
Mof_C 	C 	0.5685	0.72377	0.70427	-0.355
Mof_C 	C 	0.452	0.5009	0.6279	0.311
Mof_C 	C 	0.5256	0.6896	0.663	0.281
Mof_C 	C 	0.5286	0.6259	0.6763	0.272
Mof_C 	C 	0.463	0.4364	0.6342	0.281
Mof_C 	C 	0.5919	0.7083	0.733	0.248
Mof_C 	C 	0.5055	0.6411	0.6482	-0.345
Mof_C 	C 	0.5716	0.6587	0.7171	-0.327
Mof_C 	C 	0.3831	0.4222	0.5913	0.276
Mof_C 	C 	0.4809	0.4832	0.6415	-0.363
Mof_C 	C 	0.4044	0.4692	0.6008	-0.367
Mof_C 	C 	0.25803	0.30569	0.70422	-0.021
Mof_C 	C 	0.20531	0.29129	0.62744	-0.036
Mof_C 	C 	0.24337	0.14703	0.54086	0.632
Mof_C 	C 	0.20246	0.09533	0.50929	-0.355
Mof_C 	C 	0.24617	0.29137	0.65686	-0.132
Mof_C 	C 	0.94414	0.72346	0.31294	0.639
Mof_C 	C 	0.17959	0.30597	0.64682	0.062
Mof_C 	C 	0.27462	0.27439	0.63677	0.538
Mof_C 	C 	0.23017	0.31997	0.72138	0.043
Mof_C 	C 	0.9805	0.77623	0.34473	-0.355
Mof_C 	C 	0.127	0.9991	0.4511	0.31
Mof_C 	C 	0.9734	0.8104	0.336	0.281
Mof_C 	C 	0.0504	0.8741	0.4027	0.272
Mof_C 	C 	0.1978	0.0636	0.5266	0.281
Mof_C 	C 	0.0247	0.7917	0.3836	0.249
Mof_C 	C 	0.0071	0.8589	0.3644	-0.345
Mof_C 	C 	0.0584	0.8413	0.4129	-0.327
Mof_C 	C 	0.1691	0.0778	0.4609	0.276
Mof_C 	C 	0.1583	0.0168	0.4977	-0.363
Mof_C 	C 	0.1316	0.0308	0.4352	-0.366
Mof_C 	C 	0.10147	0.55381	0.79578	-0.021
Mof_C 	C 	0.16385	0.57787	0.87256	-0.036
Mof_C 	C 	0.10617	0.70251	0.95914	0.632
Mof_C 	C 	0.08604	0.69317	0.99071	-0.356
Mof_C 	C 	0.13451	0.58931	0.84314	-0.132
Mof_C 	C 	0.91052	0.6312	0.18706	0.639
Mof_C 	C 	0.15915	0.53277	0.85318	0.062
Mof_C 	C 	0.13762	0.63785	0.86323	0.538
Mof_C 	C 	0.09859	0.50879	0.77862	0.043
Mof_C 	C 	0.9315	0.63577	0.15527	-0.356
Mof_C 	C 	0.048	0.6759	0.0489	0.311
Mof_C 	C 	0.9744	0.6374	0.164	0.282
Mof_C 	C 	0.9714	0.6477	0.0973	0.273
Mof_C 	C 	0.037	0.6712	0.9734	0.281
Mof_C 	C 	0.9081	0.6411	0.1164	0.249
Mof_C 	C 	0.9945	0.6427	0.1356	-0.347
Mof_C 	C 	0.9284	0.6455	0.0871	-0.327
Mof_C 	C 	0.1169	0.7082	0.0391	0.277
Mof_C 	C 	0.0191	0.6606	0.0023	-0.363
Mof_C 	C 	0.0956	0.6964	0.0648	-0.367
Mof_C 	C 	0.19431	0.95234	0.89853	-0.022
Mof_C 	C 	0.20871	0.91402	0.83615	-0.036
Mof_C 	C 	0.35297	0.09634	0.89383	0.632
Mof_C 	C 	0.40467	0.10713	0.91396	-0.355
Mof_C 	C 	0.20863	0.9548	0.86549	-0.131
Mof_C 	C 	0.77654	0.22068	0.08948	0.639
Mof_C 	C 	0.19403	0.87362	0.84085	0.062
Mof_C 	C 	0.22561	0.00023	0.86238	0.537
Mof_C 	C 	0.18003	0.9102	0.90141	0.043
Mof_C 	C 	0.72377	0.20427	0.0685	-0.355
Mof_C 	C 	0.5009	0.1279	0.952	0.311
Mof_C 	C 	0.6896	0.163	0.0256	0.281
Mof_C 	C 	0.6259	0.1763	0.0286	0.273
Mof_C 	C 	0.4364	0.1342	0.963	0.281
Mof_C 	C 	0.7083	0.233	0.0919	0.249
Mof_C 	C 	0.6411	0.1482	0.0055	-0.346
Mof_C 	C 	0.6587	0.2171	0.0716	-0.327
Mof_C 	C 	0.4222	0.0913	0.8831	0.276
Mof_C 	C 	0.4832	0.1415	0.9809	-0.363
Mof_C 	C 	0.4692	0.1008	0.9044	-0.367
Mof_C 	C 	0.94619	0.54766	0.74197	-0.022
Mof_C 	C 	0.92213	0.58598	0.79469	-0.036
Mof_C 	C 	0.79749	0.40366	0.75663	0.632
Mof_C 	C 	0.80683	0.39287	0.79754	-0.355
Mof_C 	C 	0.91069	0.5452	0.75383	-0.131
Mof_C 	C 	0.8688	0.27932	0.05586	0.639
Mof_C 	C 	0.96723	0.62638	0.82041	0.062
Mof_C 	C 	0.86215	0.49977	0.72538	0.538
Mof_C 	C 	0.99121	0.5898	0.76983	0.044
Mof_C 	C 	0.86423	0.29573	0.0195	-0.355
Mof_C 	C 	0.8241	0.3721	0.873	0.311
Mof_C 	C 	0.8626	0.337	0.0266	0.28
Mof_C 	C 	0.8523	0.3237	0.9496	0.272
Mof_C 	C 	0.8288	0.3658	0.8022	0.281
Mof_C 	C 	0.8589	0.267	0.9753	0.249
Mof_C 	C 	0.8573	0.3518	0.9929	-0.345
Mof_C 	C 	0.8545	0.2829	0.9416	-0.327
Mof_C 	C 	0.7918	0.4087	0.8309	0.276
Mof_C 	C 	0.8394	0.3585	0.8417	-0.363
Mof_C 	C 	0.8036	0.3992	0.8684	-0.367
Mof_C 	C 	0.55381	0.29578	0.60147	-0.021
Mof_C 	C 	0.57787	0.37256	0.66385	-0.036
Mof_C 	C 	0.70251	0.45914	0.60617	0.632
Mof_C 	C 	0.69317	0.49071	0.58604	-0.355
Mof_C 	C 	0.58931	0.34314	0.63451	-0.132
Mof_C 	C 	0.6312	0.68706	0.41052	0.639
Mof_C 	C 	0.53277	0.35318	0.65915	0.062
Mof_C 	C 	0.63785	0.36323	0.63762	0.538
Mof_C 	C 	0.50879	0.27862	0.59859	0.043
Mof_C 	C 	0.63577	0.65527	0.4315	-0.355
Mof_C 	C 	0.6759	0.5489	0.548	0.311
Mof_C 	C 	0.6374	0.664	0.4744	0.281
Mof_C 	C 	0.6477	0.5973	0.4714	0.272
Mof_C 	C 	0.6712	0.4734	0.537	0.281
Mof_C 	C 	0.6411	0.6164	0.4081	0.248
Mof_C 	C 	0.6427	0.6356	0.4945	-0.345
Mof_C 	C 	0.6455	0.5871	0.4284	-0.327
Mof_C 	C 	0.7082	0.5391	0.6169	0.276
Mof_C 	C 	0.6606	0.5023	0.5191	-0.363
Mof_C 	C 	0.6964	0.5648	0.5956	-0.367
Mof_C 	C 	0.30569	0.20422	0.75803	-0.021
Mof_C 	C 	0.29129	0.12744	0.70531	-0.036
Mof_C 	C 	0.14703	0.04086	0.74337	0.632
Mof_C 	C 	0.09533	0.00929	0.70246	-0.356
Mof_C 	C 	0.29137	0.15686	0.74617	-0.132
Mof_C 	C 	0.72346	0.81294	0.44414	0.639
Mof_C 	C 	0.30597	0.14682	0.67959	0.062
Mof_C 	C 	0.27439	0.13677	0.77462	0.538
Mof_C 	C 	0.31997	0.22138	0.73017	0.043
Mof_C 	C 	0.77623	0.84473	0.4805	-0.355
Mof_C 	C 	0.9991	0.9511	0.627	0.311
Mof_C 	C 	0.8104	0.836	0.4734	0.281
Mof_C 	C 	0.8741	0.9027	0.5504	0.272
Mof_C 	C 	0.0636	0.0266	0.6978	0.281
Mof_C 	C 	0.7917	0.8836	0.5247	0.248
Mof_C 	C 	0.8589	0.8644	0.5071	-0.345
Mof_C 	C 	0.8413	0.9129	0.5584	-0.327
Mof_C 	C 	0.0778	0.9609	0.6691	0.277
Mof_C 	C 	0.0168	0.9977	0.6583	-0.364
Mof_C 	C 	0.0308	0.9352	0.6316	-0.367
Mof_C 	C 	0.29578	0.10147	0.05381	-0.022
Mof_C 	C 	0.37256	0.16385	0.07787	-0.036
Mof_C 	C 	0.45914	0.10617	0.20251	0.632
Mof_C 	C 	0.49071	0.08604	0.19317	-0.355
Mof_C 	C 	0.34314	0.13451	0.08931	-0.131
Mof_C 	C 	0.68706	0.91052	0.1312	0.639
Mof_C 	C 	0.35318	0.15915	0.03277	0.062
Mof_C 	C 	0.36323	0.13762	0.13785	0.538
Mof_C 	C 	0.27862	0.09859	0.00879	0.044
Mof_C 	C 	0.65527	0.9315	0.13577	-0.355
Mof_C 	C 	0.5489	0.048	0.1759	0.31
Mof_C 	C 	0.664	0.9744	0.1374	0.282
Mof_C 	C 	0.5973	0.9714	0.1477	0.273
Mof_C 	C 	0.4734	0.037	0.1712	0.281
Mof_C 	C 	0.6164	0.9081	0.1411	0.249
Mof_C 	C 	0.6356	0.9945	0.1427	-0.346
Mof_C 	C 	0.5871	0.9284	0.1455	-0.327
Mof_C 	C 	0.5391	0.1169	0.2082	0.276
Mof_C 	C 	0.5023	0.0191	0.1606	-0.362
Mof_C 	C 	0.5648	0.0956	0.1964	-0.367
Mof_C 	C 	0.20422	0.25803	0.80569	-0.021
Mof_C 	C 	0.12744	0.20531	0.79129	-0.036
Mof_C 	C 	0.04086	0.24337	0.64703	0.632
Mof_C 	C 	0.00929	0.20246	0.59533	-0.355
Mof_C 	C 	0.15686	0.24617	0.79137	-0.132
Mof_C 	C 	0.81294	0.94414	0.22346	0.639
Mof_C 	C 	0.14682	0.17959	0.80597	0.062
Mof_C 	C 	0.13677	0.27462	0.77439	0.538
Mof_C 	C 	0.22138	0.23017	0.81997	0.043
Mof_C 	C 	0.84473	0.9805	0.27623	-0.355
Mof_C 	C 	0.9511	0.127	0.4991	0.311
Mof_C 	C 	0.836	0.9734	0.3104	0.281
Mof_C 	C 	0.9027	0.0504	0.3741	0.272
Mof_C 	C 	0.0266	0.1978	0.5636	0.281
Mof_C 	C 	0.8836	0.0247	0.2917	0.248
Mof_C 	C 	0.8644	0.0071	0.3589	-0.345
Mof_C 	C 	0.9129	0.0584	0.3413	-0.327
Mof_C 	C 	0.9609	0.1691	0.5778	0.276
Mof_C 	C 	0.9977	0.1583	0.5168	-0.363
Mof_C 	C 	0.9352	0.1316	0.5308	-0.367
Mof_C 	C 	0.95234	0.39853	0.69431	-0.022
Mof_C 	C 	0.91402	0.33615	0.70871	-0.036
Mof_C 	C 	0.09634	0.39383	0.85297	0.633
Mof_C 	C 	0.10713	0.41396	0.90467	-0.356
Mof_C 	C 	0.9548	0.36549	0.70863	-0.131
Mof_C 	C 	0.22068	0.58948	0.27654	0.639
Mof_C 	C 	0.87362	0.34085	0.69403	0.062
Mof_C 	C 	0.00023	0.36238	0.72561	0.537
Mof_C 	C 	0.9102	0.40141	0.68003	0.043
Mof_C 	C 	0.20427	0.5685	0.22377	-0.355
Mof_C 	C 	0.1279	0.452	0.0009	0.312
Mof_C 	C 	0.163	0.5256	0.1896	0.281
Mof_C 	C 	0.1763	0.5286	0.1259	0.272
Mof_C 	C 	0.1342	0.463	0.9364	0.282
Mof_C 	C 	0.233	0.5919	0.2083	0.248
Mof_C 	C 	0.1482	0.5055	0.1411	-0.345
Mof_C 	C 	0.2171	0.5716	0.1587	-0.327
Mof_C 	C 	0.0913	0.3831	0.9222	0.277
Mof_C 	C 	0.1415	0.4809	0.9832	-0.365
Mof_C 	C 	0.1008	0.4044	0.9692	-0.369
Mof_C 	C 	0.54766	0.24197	0.44619	-0.021
Mof_C 	C 	0.58598	0.29469	0.42213	-0.036
Mof_C 	C 	0.40366	0.25663	0.29749	0.632
Mof_C 	C 	0.39287	0.29754	0.30683	-0.355
Mof_C 	C 	0.5452	0.25383	0.41069	-0.132
Mof_C 	C 	0.27932	0.55586	0.3688	0.639
Mof_C 	C 	0.62638	0.32041	0.46723	0.062
Mof_C 	C 	0.49977	0.22538	0.36215	0.538
Mof_C 	C 	0.5898	0.26983	0.49121	0.043
Mof_C 	C 	0.29573	0.5195	0.36423	-0.355
Mof_C 	C 	0.3721	0.373	0.3241	0.311
Mof_C 	C 	0.337	0.5266	0.3626	0.281
Mof_C 	C 	0.3237	0.4496	0.3523	0.272
Mof_C 	C 	0.3658	0.3022	0.3288	0.281
Mof_C 	C 	0.267	0.4753	0.3589	0.248
Mof_C 	C 	0.3518	0.4929	0.3573	-0.345
Mof_C 	C 	0.2829	0.4416	0.3545	-0.327
Mof_C 	C 	0.4087	0.3309	0.2918	0.276
Mof_C 	C 	0.3585	0.3417	0.3394	-0.363
Mof_C 	C 	0.3992	0.3684	0.3036	-0.367
Mof_N 	N 	0.68071	0.87336	0.87131	-0.336
Mof_N 	N 	0.0767	0.0115	0.1686	-0.119
Mof_N 	N 	0.049	0.9678	0.1378	-0.131
Mof_N 	N 	0.50205	0.8094	0.62869	-0.336
Mof_N 	N 	0.3429	0.9081	0.3314	-0.119
Mof_N 	N 	0.33	0.9112	0.3622	-0.13
Mof_N 	N 	0.99795	0.62664	0.30735	-0.337
Mof_N 	N 	0.1571	0.4885	0.5652	-0.119
Mof_N 	N 	0.17	0.5322	0.5812	-0.13
Mof_N 	N 	0.81929	0.6906	0.19265	-0.336
Mof_N 	N 	0.4233	0.5919	0.9348	-0.119
Mof_N 	N 	0.451	0.5888	0.9188	-0.13
Mof_N 	N 	0.80735	0.99795	0.12664	-0.336
Mof_N 	N 	0.0652	0.1571	0.9885	-0.12
Mof_N 	N 	0.0812	0.17	0.0322	-0.13
Mof_N 	N 	0.69265	0.81929	0.1906	-0.336
Mof_N 	N 	0.4348	0.4233	0.0919	-0.119
Mof_N 	N 	0.4188	0.451	0.0888	-0.13
Mof_N 	N 	0.37131	0.68071	0.37336	-0.336
Mof_N 	N 	0.6686	0.0767	0.5115	-0.119
Mof_N 	N 	0.6378	0.049	0.4678	-0.13
Mof_N 	N 	0.12869	0.50205	0.3094	-0.336
Mof_N 	N 	0.8314	0.3429	0.4081	-0.119
Mof_N 	N 	0.8622	0.33	0.4112	-0.13
Mof_N 	N 	0.8094	0.12869	0.00205	-0.337
Mof_N 	N 	0.9081	0.8314	0.8429	-0.119
Mof_N 	N 	0.9112	0.8622	0.83	-0.13
Mof_N 	N 	0.87336	0.37131	0.18071	-0.336
Mof_N 	N 	0.0115	0.6686	0.5767	-0.119
Mof_N 	N 	0.9678	0.6378	0.549	-0.13
Mof_N 	N 	0.6906	0.69265	0.31929	-0.336
Mof_N 	N 	0.5919	0.4348	0.9233	-0.119
Mof_N 	N 	0.5888	0.4188	0.951	-0.131
Mof_N 	N 	0.62664	0.80735	0.49795	-0.336
Mof_N 	N 	0.4885	0.0652	0.6571	-0.119
Mof_N 	N 	0.5322	0.0812	0.67	-0.13
Mof_N 	N 	0.3094	0.00205	0.12869	-0.336
Mof_N 	N 	0.4081	0.8429	0.8314	-0.119
Mof_N 	N 	0.4112	0.83	0.8622	-0.13
Mof_N 	N 	0.37336	0.18071	0.37131	-0.336
Mof_N 	N 	0.5115	0.5767	0.6686	-0.119
Mof_N 	N 	0.4678	0.549	0.6378	-0.13
Mof_N 	N 	0.1906	0.31929	0.69265	-0.336
Mof_N 	N 	0.0919	0.9233	0.4348	-0.119
Mof_N 	N 	0.0888	0.951	0.4188	-0.13
Mof_N 	N 	0.12664	0.49795	0.80735	-0.336
Mof_N 	N 	0.9885	0.6571	0.0652	-0.12
Mof_N 	N 	0.0322	0.67	0.0812	-0.13
Mof_N 	N 	0.18071	0.87131	0.87336	-0.336
Mof_N 	N 	0.5767	0.1686	0.0115	-0.119
Mof_N 	N 	0.549	0.1378	0.9678	-0.13
Mof_N 	N 	0.00205	0.62869	0.8094	-0.337
Mof_N 	N 	0.8429	0.3314	0.9081	-0.119
Mof_N 	N 	0.83	0.3622	0.9112	-0.13
Mof_N 	N 	0.49795	0.30735	0.62664	-0.336
Mof_N 	N 	0.6571	0.5652	0.4885	-0.119
Mof_N 	N 	0.67	0.5812	0.5322	-0.13
Mof_N 	N 	0.31929	0.19265	0.6906	-0.336
Mof_N 	N 	0.9233	0.9348	0.5919	-0.119
Mof_N 	N 	0.951	0.9188	0.5888	-0.131
Mof_N 	N 	0.30735	0.12664	0.99795	-0.337
Mof_N 	N 	0.5652	0.9885	0.1571	-0.119
Mof_N 	N 	0.5812	0.0322	0.17	-0.13
Mof_N 	N 	0.19265	0.1906	0.81929	-0.336
Mof_N 	N 	0.9348	0.0919	0.4233	-0.119
Mof_N 	N 	0.9188	0.0888	0.451	-0.13
Mof_N 	N 	0.87131	0.37336	0.68071	-0.336
Mof_N 	N 	0.1686	0.5115	0.0767	-0.119
Mof_N 	N 	0.1378	0.4678	0.049	-0.131
Mof_N 	N 	0.62869	0.3094	0.50205	-0.336
Mof_N 	N 	0.3314	0.4081	0.3429	-0.119
Mof_N 	N 	0.3622	0.4112	0.33	-0.13
Mof_O 	O 	0.72848	0.82532	0.9978	-0.676
Mof_O 	O 	0.83994	0.92459	0.10901	-0.736
Mof_O 	O 	0.73679	0.89883	0.03784	-0.686
Mof_O 	O 	0.30598	0.1264	0.26198	-0.731
Mof_O 	O 	0.82628	0.84807	0.07475	-0.705
Mof_O 	O 	0.28744	0.06778	0.19084	-0.729
Mof_O 	O 	0.32752	0.73068	0.5022	-0.676
Mof_O 	O 	0.31558	0.73093	0.39099	-0.736
Mof_O 	O 	0.36099	0.69895	0.46216	-0.686
Mof_O 	O 	0.36442	0.044	0.23802	-0.731
Mof_O 	O 	0.27332	0.75153	0.42525	-0.705
Mof_O 	O 	0.37694	0.0966	0.30916	-0.729
Mof_O 	O 	0.17248	0.67468	0.40316	-0.676
Mof_O 	O 	0.18442	0.57541	0.41535	-0.736
Mof_O 	O 	0.13901	0.60117	0.33796	-0.686
Mof_O 	O 	0.13558	0.3736	0.67958	-0.731
Mof_O 	O 	0.22668	0.65193	0.47821	-0.705
Mof_O 	O 	0.12306	0.43222	0.71966	-0.729
Mof_O 	O 	0.77152	0.76932	0.09684	-0.676
Mof_O 	O 	0.66006	0.76907	0.08465	-0.736
Mof_O 	O 	0.76321	0.80105	0.16204	-0.686
Mof_O 	O 	0.19402	0.456	0.82042	-0.731
Mof_O 	O 	0.67372	0.74847	0.02179	-0.705
Mof_O 	O 	0.21256	0.4034	0.78034	-0.729
Mof_O 	O 	0.90316	0.17248	0.17468	-0.676
Mof_O 	O 	0.91535	0.18442	0.07541	-0.736
Mof_O 	O 	0.83796	0.13901	0.10117	-0.686
Mof_O 	O 	0.17958	0.13558	0.8736	-0.731
Mof_O 	O 	0.97821	0.22668	0.15193	-0.705
Mof_O 	O 	0.21966	0.12306	0.93222	-0.729
Mof_O 	O 	0.59684	0.77152	0.26932	-0.676
Mof_O 	O 	0.58465	0.66006	0.26907	-0.736
Mof_O 	O 	0.66204	0.76321	0.30105	-0.686
Mof_O 	O 	0.32042	0.19402	0.956	-0.731
Mof_O 	O 	0.52179	0.67372	0.24847	-0.705
Mof_O 	O 	0.28034	0.21256	0.9034	-0.729
Mof_O 	O 	0.4978	0.72848	0.32532	-0.676
Mof_O 	O 	0.60901	0.83994	0.42459	-0.736
Mof_O 	O 	0.53784	0.73679	0.39883	-0.686
Mof_O 	O 	0.76198	0.30598	0.6264	-0.731
Mof_O 	O 	0.57475	0.82628	0.34807	-0.705
Mof_O 	O 	0.69084	0.28744	0.56778	-0.729
Mof_O 	O 	0.0022	0.32752	0.23068	-0.676
Mof_O 	O 	0.89099	0.31558	0.23093	-0.736
Mof_O 	O 	0.96216	0.36099	0.19895	-0.686
Mof_O 	O 	0.73802	0.36442	0.544	-0.731
Mof_O 	O 	0.92525	0.27332	0.25153	-0.705
Mof_O 	O 	0.80916	0.37694	0.5966	-0.729
Mof_O 	O 	0.73068	0.0022	0.82752	-0.677
Mof_O 	O 	0.73093	0.89099	0.81558	-0.736
Mof_O 	O 	0.69895	0.96216	0.86099	-0.686
Mof_O 	O 	0.044	0.73802	0.86442	-0.731
Mof_O 	O 	0.75153	0.92525	0.77332	-0.705
Mof_O 	O 	0.0966	0.80916	0.87694	-0.729
Mof_O 	O 	0.82532	0.4978	0.22848	-0.676
Mof_O 	O 	0.92459	0.60901	0.33994	-0.736
Mof_O 	O 	0.89883	0.53784	0.23679	-0.686
Mof_O 	O 	0.1264	0.76198	0.80598	-0.731
Mof_O 	O 	0.84807	0.57475	0.32628	-0.705
Mof_O 	O 	0.06778	0.69084	0.78744	-0.729
Mof_O 	O 	0.76932	0.59684	0.27152	-0.676
Mof_O 	O 	0.76907	0.58465	0.16006	-0.736
Mof_O 	O 	0.80105	0.66204	0.26321	-0.686
Mof_O 	O 	0.456	0.32042	0.69402	-0.731
Mof_O 	O 	0.74847	0.52179	0.17372	-0.705
Mof_O 	O 	0.4034	0.28034	0.71256	-0.729
Mof_O 	O 	0.67468	0.90316	0.67248	-0.676
Mof_O 	O 	0.57541	0.91535	0.68442	-0.736
Mof_O 	O 	0.60117	0.83796	0.63901	-0.686
Mof_O 	O 	0.3736	0.17958	0.63558	-0.731
Mof_O 	O 	0.65193	0.97821	0.72668	-0.705
Mof_O 	O 	0.43222	0.21966	0.62306	-0.729
Mof_O 	O 	0.23068	0.82752	0.0022	-0.676
Mof_O 	O 	0.23093	0.81558	0.89099	-0.736
Mof_O 	O 	0.19895	0.86099	0.96216	-0.686
Mof_O 	O 	0.544	0.86442	0.73802	-0.731
Mof_O 	O 	0.25153	0.77332	0.92525	-0.705
Mof_O 	O 	0.5966	0.87694	0.80916	-0.729
Mof_O 	O 	0.32532	0.22848	0.4978	-0.676
Mof_O 	O 	0.42459	0.33994	0.60901	-0.736
Mof_O 	O 	0.39883	0.23679	0.53784	-0.686
Mof_O 	O 	0.6264	0.80598	0.76198	-0.731
Mof_O 	O 	0.34807	0.32628	0.57475	-0.705
Mof_O 	O 	0.56778	0.78744	0.69084	-0.729
Mof_O 	O 	0.26932	0.27152	0.59684	-0.676
Mof_O 	O 	0.26907	0.16006	0.58465	-0.736
Mof_O 	O 	0.30105	0.26321	0.66204	-0.686
Mof_O 	O 	0.956	0.69402	0.32042	-0.731
Mof_O 	O 	0.24847	0.17372	0.52179	-0.705
Mof_O 	O 	0.9034	0.71256	0.28034	-0.729
Mof_O 	O 	0.17468	0.67248	0.90316	-0.676
Mof_O 	O 	0.07541	0.68442	0.91535	-0.736
Mof_O 	O 	0.10117	0.63901	0.83796	-0.686
Mof_O 	O 	0.8736	0.63558	0.17958	-0.731
Mof_O 	O 	0.15193	0.72668	0.97821	-0.705
Mof_O 	O 	0.93222	0.62306	0.21966	-0.729
Mof_O 	O 	0.22848	0.9978	0.82532	-0.676
Mof_O 	O 	0.33994	0.10901	0.92459	-0.736
Mof_O 	O 	0.23679	0.03784	0.89883	-0.686
Mof_O 	O 	0.80598	0.26198	0.1264	-0.731
Mof_O 	O 	0.32628	0.07475	0.84807	-0.705
Mof_O 	O 	0.78744	0.19084	0.06778	-0.729
Mof_O 	O 	0.82752	0.5022	0.73068	-0.676
Mof_O 	O 	0.81558	0.39099	0.73093	-0.736
Mof_O 	O 	0.86099	0.46216	0.69895	-0.686
Mof_O 	O 	0.86442	0.23802	0.044	-0.731
Mof_O 	O 	0.77332	0.42525	0.75153	-0.705
Mof_O 	O 	0.87694	0.30916	0.0966	-0.729
Mof_O 	O 	0.67248	0.40316	0.67468	-0.676
Mof_O 	O 	0.68442	0.41535	0.57541	-0.736
Mof_O 	O 	0.63901	0.33796	0.60117	-0.686
Mof_O 	O 	0.63558	0.67958	0.3736	-0.731
Mof_O 	O 	0.72668	0.47821	0.65193	-0.705
Mof_O 	O 	0.62306	0.71966	0.43222	-0.729
Mof_O 	O 	0.27152	0.09684	0.76932	-0.676
Mof_O 	O 	0.16006	0.08465	0.76907	-0.736
Mof_O 	O 	0.26321	0.16204	0.80105	-0.686
Mof_O 	O 	0.69402	0.82042	0.456	-0.731
Mof_O 	O 	0.17372	0.02179	0.74847	-0.705
Mof_O 	O 	0.71256	0.78034	0.4034	-0.729
Mof_O 	O 	0.40316	0.17468	0.17248	-0.676
Mof_O 	O 	0.41535	0.07541	0.18442	-0.736
Mof_O 	O 	0.33796	0.10117	0.13901	-0.686
Mof_O 	O 	0.67958	0.8736	0.13558	-0.731
Mof_O 	O 	0.47821	0.15193	0.22668	-0.705
Mof_O 	O 	0.71966	0.93222	0.12306	-0.729
Mof_O 	O 	0.09684	0.26932	0.77152	-0.676
Mof_O 	O 	0.08465	0.26907	0.66006	-0.736
Mof_O 	O 	0.16204	0.30105	0.76321	-0.686
Mof_O 	O 	0.82042	0.956	0.19402	-0.731
Mof_O 	O 	0.02179	0.24847	0.67372	-0.705
Mof_O 	O 	0.78034	0.9034	0.21256	-0.729
Mof_O 	O 	0.9978	0.32532	0.72848	-0.676
Mof_O 	O 	0.10901	0.42459	0.83994	-0.736
Mof_O 	O 	0.03784	0.39883	0.73679	-0.686
Mof_O 	O 	0.26198	0.6264	0.30598	-0.731
Mof_O 	O 	0.07475	0.34807	0.82628	-0.705
Mof_O 	O 	0.19084	0.56778	0.28744	-0.729
Mof_O 	O 	0.5022	0.23068	0.32752	-0.676
Mof_O 	O 	0.39099	0.23093	0.31558	-0.736
Mof_O 	O 	0.46216	0.19895	0.36099	-0.686
Mof_O 	O 	0.23802	0.544	0.36442	-0.731
Mof_O 	O 	0.42525	0.25153	0.27332	-0.705
Mof_O 	O 	0.30916	0.5966	0.37694	-0.729
Mof_O 	O 	0.75	0.85274	0.10274	-1.347
Mof_O 	O 	0.25	0.64726	0.39726	-1.347
Mof_O 	O 	0.89726	0.25	0.14726	-1.347
Mof_O 	O 	0.60274	0.75	0.35274	-1.347
Mof_O 	O 	0.64726	0.89726	0.75	-1.347
Mof_O 	O 	0.85274	0.60274	0.25	-1.347
Mof_O 	O 	0.14726	0.75	0.89726	-1.347
Mof_O 	O 	0.35274	0.25	0.60274	-1.347
Mof_O 	O 	0.25	0.10274	0.85274	-1.347
Mof_O 	O 	0.75	0.39726	0.64726	-1.347
Mof_O 	O 	0.39726	0.14726	0.25	-1.347
Mof_O 	O 	0.10274	0.35274	0.75	-1.347
_end
