data_functionalizedCrystal
_audit_creation_method	'EQeq! by Chris Wilmer'
_symmetry_space_group_name_H-M	'P1'
_symmetry_Int_Tables_number	1
_symmetry_cell_setting	triclinic
loop_
_symmetry_equiv_pos_as_xyz
  x,y,z
_cell_length_a	12.563
_cell_length_b	27.172
_cell_length_c	33.7
_cell_angle_alpha	90
_cell_angle_beta	90
_cell_angle_gamma	90
loop_
_atom_site_label
_atom_site_type_symbol
_atom_site_fract_x
_atom_site_fract_y
_atom_site_fract_z
_atom_site_charge
Mof_Ga	Ga	0.9882	0.43365	0.3849	1.944
Mof_Ga	Ga	0.5118	0.93365	0.6151	1.948
Mof_Ga	Ga	0.4882	0.93365	0.1151	1.948
Mof_Ga	Ga	0.0118	0.43365	0.8849	1.943
Mof_Ag	Ag	0.73809	0.28031	0.63673	0.872
Mof_Ag	Ag	0.76191	0.78031	0.36327	0.872
Mof_Ag	Ag	0.23809	0.78031	0.86327	0.872
Mof_Ag	Ag	0.26191	0.28031	0.13673	0.872
Mof_H 	H 	0.1471	0.4926	0.4423	-0.009
Mof_H 	H 	0.1599	0.4832	0.5163	0.045
Mof_H 	H 	0.0299	0.419	0.5368	0.064
Mof_H 	H 	0.7685	0.2995	0.4545	0.077
Mof_H 	H 	0.7464	0.2836	0.3826	0.045
Mof_H 	H 	0.8455	0.35	0.346	-0.013
Mof_H 	H 	0.9445	0.2863	0.504	0.1
Mof_H 	H 	0.8785	0.2541	0.5625	0.06
Mof_H 	H 	0.7241	0.3765	0.5864	0.044
Mof_H 	H 	0.7939	0.4145	0.5304	0.095
Mof_H 	H 	0.1927	0.4686	0.8235	-0.004
Mof_H 	H 	0.1997	0.4508	0.7508	0.052
Mof_H 	H 	0.044	0.3987	0.7349	0.067
Mof_H 	H 	0.7364	0.3166	0.8233	0.069
Mof_H 	H 	0.6857	0.323	0.8952	0.052
Mof_H 	H 	0.8144	0.3814	0.9261	-0.01
Mof_H 	H 	0.7327	0.385	0.7643	0.098
Mof_H 	H 	0.6714	0.3473	0.7059	0.042
Mof_H 	H 	0.9345	0.2707	0.6962	0.037
Mof_H 	H 	0.0039	0.3052	0.7549	0.087
Mof_H 	H 	0.2772	0.9671	0.6426	-0.011
Mof_H 	H 	0.2217	0.0518	0.6637	0.084
Mof_H 	H 	0.3823	0.1061	0.6565	0.056
Mof_H 	H 	0.7777	0.0774	0.6014	0.152
Mof_H 	H 	0.8749	0.004	0.577	0.074
Mof_H 	H 	0.752	0.9321	0.582	-0.007
Mof_H 	H 	0.697	0.0995	0.6787	0.119
Mof_H 	H 	0.7402	0.182	0.6869	0.014
Mof_H 	H 	0.5458	0.2206	0.6016	0.027
Mof_H 	H 	0.4953	0.139	0.5908	0.095
Mof_H 	H 	0.3529	0.9926	0.5577	-0.009
Mof_H 	H 	0.3401	0.9832	0.4837	0.045
Mof_H 	H 	0.4701	0.919	0.4632	0.064
Mof_H 	H 	0.7315	0.7995	0.5455	0.077
Mof_H 	H 	0.7536	0.7836	0.6174	0.045
Mof_H 	H 	0.6545	0.85	0.654	-0.013
Mof_H 	H 	0.5555	0.7863	0.496	0.1
Mof_H 	H 	0.6215	0.7541	0.4375	0.06
Mof_H 	H 	0.7759	0.8765	0.4136	0.044
Mof_H 	H 	0.7061	0.9145	0.4696	0.095
Mof_H 	H 	0.3073	0.9686	0.1765	-0.004
Mof_H 	H 	0.3003	0.9508	0.2492	0.051
Mof_H 	H 	0.456	0.8987	0.2651	0.068
Mof_H 	H 	0.7636	0.8166	0.1767	0.069
Mof_H 	H 	0.8143	0.823	0.1048	0.052
Mof_H 	H 	0.6856	0.8814	0.0739	-0.01
Mof_H 	H 	0.7673	0.885	0.2357	0.098
Mof_H 	H 	0.8286	0.8473	0.2941	0.041
Mof_H 	H 	0.5655	0.7707	0.3038	0.036
Mof_H 	H 	0.4961	0.8052	0.2451	0.091
Mof_H 	H 	0.2228	0.4671	0.3574	-0.011
Mof_H 	H 	0.2783	0.5518	0.3363	0.084
Mof_H 	H 	0.1177	0.6061	0.3435	0.057
Mof_H 	H 	0.7223	0.5774	0.3986	0.152
Mof_H 	H 	0.6251	0.504	0.423	0.074
Mof_H 	H 	0.748	0.4321	0.418	-0.007
Mof_H 	H 	0.803	0.5995	0.3213	0.119
Mof_H 	H 	0.7598	0.682	0.3131	0.013
Mof_H 	H 	0.9542	0.7206	0.3984	0.026
Mof_H 	H 	0.0047	0.639	0.4092	0.097
Mof_H 	H 	0.6471	0.9926	0.0577	-0.009
Mof_H 	H 	0.6599	0.9832	0.9837	0.045
Mof_H 	H 	0.5299	0.919	0.9632	0.064
Mof_H 	H 	0.2685	0.7995	0.0455	0.077
Mof_H 	H 	0.2464	0.7836	0.1174	0.045
Mof_H 	H 	0.3455	0.85	0.154	-0.013
Mof_H 	H 	0.4445	0.7863	0.996	0.1
Mof_H 	H 	0.3785	0.7541	0.9375	0.06
Mof_H 	H 	0.2241	0.8765	0.9136	0.044
Mof_H 	H 	0.2939	0.9145	0.9696	0.095
Mof_H 	H 	0.6927	0.9686	0.6765	-0.004
Mof_H 	H 	0.6997	0.9508	0.7492	0.051
Mof_H 	H 	0.544	0.8987	0.7651	0.068
Mof_H 	H 	0.2364	0.8166	0.6767	0.069
Mof_H 	H 	0.1857	0.823	0.6048	0.052
Mof_H 	H 	0.3144	0.8814	0.5739	-0.01
Mof_H 	H 	0.2327	0.885	0.7357	0.098
Mof_H 	H 	0.1714	0.8473	0.7941	0.041
Mof_H 	H 	0.4345	0.7707	0.8038	0.036
Mof_H 	H 	0.5039	0.8052	0.7451	0.091
Mof_H 	H 	0.7772	0.4671	0.8574	-0.011
Mof_H 	H 	0.7217	0.5518	0.8363	0.084
Mof_H 	H 	0.8823	0.6061	0.8435	0.057
Mof_H 	H 	0.2777	0.5774	0.8986	0.152
Mof_H 	H 	0.3749	0.504	0.923	0.074
Mof_H 	H 	0.252	0.4321	0.918	-0.007
Mof_H 	H 	0.197	0.5995	0.8213	0.119
Mof_H 	H 	0.2402	0.682	0.8131	0.013
Mof_H 	H 	0.0458	0.7206	0.8984	0.026
Mof_H 	H 	0.9953	0.639	0.9092	0.097
Mof_H 	H 	0.8529	0.4926	0.9423	-0.009
Mof_H 	H 	0.8401	0.4832	0.0163	0.044
Mof_H 	H 	0.9701	0.419	0.0368	0.064
Mof_H 	H 	0.2315	0.2995	0.9545	0.077
Mof_H 	H 	0.2536	0.2836	0.8826	0.045
Mof_H 	H 	0.1545	0.35	0.846	-0.013
Mof_H 	H 	0.0555	0.2863	0.004	0.1
Mof_H 	H 	0.1215	0.2541	0.0625	0.06
Mof_H 	H 	0.2759	0.3765	0.0864	0.044
Mof_H 	H 	0.2061	0.4145	0.0304	0.095
Mof_H 	H 	0.8073	0.4686	0.3235	-0.004
Mof_H 	H 	0.8003	0.4508	0.2508	0.052
Mof_H 	H 	0.956	0.3987	0.2349	0.067
Mof_H 	H 	0.2636	0.3166	0.3233	0.069
Mof_H 	H 	0.3143	0.323	0.3952	0.052
Mof_H 	H 	0.1856	0.3814	0.4261	-0.01
Mof_H 	H 	0.2673	0.385	0.2643	0.098
Mof_H 	H 	0.3286	0.3473	0.2059	0.042
Mof_H 	H 	0.0655	0.2707	0.1962	0.037
Mof_H 	H 	0.9961	0.3052	0.2549	0.087
Mof_H 	H 	0.7228	0.9671	0.1426	-0.011
Mof_H 	H 	0.7783	0.0518	0.1637	0.084
Mof_H 	H 	0.6177	0.1061	0.1565	0.056
Mof_H 	H 	0.2223	0.0774	0.1014	0.152
Mof_H 	H 	0.1251	0.004	0.077	0.074
Mof_H 	H 	0.248	0.9321	0.082	-0.007
Mof_H 	H 	0.303	0.0995	0.1787	0.119
Mof_H 	H 	0.2598	0.182	0.1869	0.013
Mof_H 	H 	0.4542	0.2206	0.1016	0.027
Mof_H 	H 	0.5047	0.139	0.0908	0.095
Mof_C 	C 	0.1058	0.4705	0.45775	0.055
Mof_C 	C 	0.1135	0.46536	0.49925	-0.042
Mof_C 	C 	0.0423	0.4303	0.51057	-0.1
Mof_C 	C 	0.9903	0.41386	0.4757	0.125
Mof_C 	C 	0.9152	0.37588	0.47264	-0.171
Mof_C 	C 	0.8738	0.35583	0.43724	0.131
Mof_C 	C 	0.8016	0.317	0.4334	-0.107
Mof_C 	C 	0.7876	0.309	0.3943	-0.046
Mof_C 	C 	0.8455	0.3456	0.37397	0.061
Mof_C 	C 	0.8754	0.35477	0.5098	0.136
Mof_C 	C 	0.9003	0.30587	0.52058	-0.157
Mof_C 	C 	0.86	0.2868	0.55526	0.078
Mof_C 	C 	0.7707	0.3583	0.5697	0.107
Mof_C 	C 	0.8107	0.381	0.53581	-0.169
Mof_C 	C 	0.1425	0.4491	0.8095	0.058
Mof_C 	C 	0.1472	0.4394	0.76886	-0.048
Mof_C 	C 	0.0628	0.4108	0.76038	-0.107
Mof_C 	C 	0.0069	0.40206	0.7963	0.134
Mof_C 	C 	0.9155	0.3748	0.80171	-0.177
Mof_C 	C 	0.859	0.36697	0.8372	0.135
Mof_C 	C 	0.7705	0.3361	0.843	-0.106
Mof_C 	C 	0.7425	0.3395	0.8822	-0.054
Mof_C 	C 	0.8147	0.3722	0.89892	0.07
Mof_C 	C 	0.8735	0.3495	0.76527	0.14
Mof_C 	C 	0.7759	0.3617	0.7509	-0.175
Mof_C 	C 	0.74	0.339	0.7157	0.088
Mof_C 	C 	0.8934	0.2943	0.71022	0.08
Mof_C 	C 	0.9358	0.3147	0.74527	-0.163
Mof_C 	C 	0.3221	0.9953	0.64238	0.075
Mof_C 	C 	0.2902	0.0423	0.65449	-0.067
Mof_C 	C 	0.3784	0.072	0.65038	-0.085
Mof_C 	C 	0.4616	0.04271	0.63555	0.117
Mof_C 	C 	0.5669	0.05825	0.62643	-0.18
Mof_C 	C 	0.6485	0.02896	0.61087	0.141
Mof_C 	C 	0.7509	0.0448	0.59979	-0.118
Mof_C 	C 	0.8038	0.0048	0.58651	-0.021
Mof_C 	C 	0.7343	0.9648	0.58945	0.06
Mof_C 	C 	0.5924	0.1102	0.63345	0.162
Mof_C 	C 	0.6652	0.12366	0.66219	-0.178
Mof_C 	C 	0.6913	0.1732	0.66666	0.147
Mof_C 	C 	0.5781	0.1955	0.61711	0.117
Mof_C 	C 	0.5467	0.14673	0.6105	-0.185
Mof_C 	C 	0.3942	0.9705	0.54225	0.055
Mof_C 	C 	0.3865	0.96536	0.50075	-0.041
Mof_C 	C 	0.4577	0.9303	0.48943	-0.101
Mof_C 	C 	0.5097	0.91386	0.5243	0.126
Mof_C 	C 	0.5848	0.87588	0.52736	-0.171
Mof_C 	C 	0.6262	0.85583	0.56276	0.132
Mof_C 	C 	0.6984	0.817	0.5666	-0.107
Mof_C 	C 	0.7124	0.809	0.6057	-0.046
Mof_C 	C 	0.6545	0.8456	0.62603	0.062
Mof_C 	C 	0.6246	0.85477	0.4902	0.136
Mof_C 	C 	0.5997	0.80587	0.47942	-0.157
Mof_C 	C 	0.64	0.7868	0.44474	0.078
Mof_C 	C 	0.7293	0.8583	0.4303	0.107
Mof_C 	C 	0.6893	0.881	0.46419	-0.169
Mof_C 	C 	0.3575	0.9491	0.1905	0.057
Mof_C 	C 	0.3528	0.9394	0.23114	-0.046
Mof_C 	C 	0.4372	0.9108	0.23962	-0.109
Mof_C 	C 	0.4931	0.90206	0.2037	0.138
Mof_C 	C 	0.5845	0.8748	0.19829	-0.182
Mof_C 	C 	0.641	0.86697	0.1628	0.136
Mof_C 	C 	0.7295	0.8361	0.157	-0.107
Mof_C 	C 	0.7575	0.8395	0.1178	-0.054
Mof_C 	C 	0.6853	0.8722	0.10108	0.07
Mof_C 	C 	0.6265	0.8495	0.23473	0.143
Mof_C 	C 	0.7241	0.8617	0.2491	-0.178
Mof_C 	C 	0.76	0.839	0.2843	0.089
Mof_C 	C 	0.6066	0.7943	0.28978	0.082
Mof_C 	C 	0.5642	0.8147	0.25473	-0.17
Mof_C 	C 	0.1779	0.4953	0.35762	0.075
Mof_C 	C 	0.2098	0.5423	0.34551	-0.066
Mof_C 	C 	0.1216	0.572	0.34962	-0.086
Mof_C 	C 	0.0384	0.54271	0.36445	0.119
Mof_C 	C 	0.9331	0.55825	0.37357	-0.183
Mof_C 	C 	0.8515	0.52896	0.38913	0.142
Mof_C 	C 	0.7491	0.5448	0.40021	-0.118
Mof_C 	C 	0.6962	0.5048	0.41349	-0.021
Mof_C 	C 	0.7657	0.4648	0.41055	0.06
Mof_C 	C 	0.9076	0.6102	0.36655	0.164
Mof_C 	C 	0.8348	0.62366	0.33781	-0.179
Mof_C 	C 	0.8087	0.6732	0.33334	0.148
Mof_C 	C 	0.9219	0.6955	0.38289	0.118
Mof_C 	C 	0.9533	0.64673	0.3895	-0.189
Mof_C 	C 	0.6058	0.9705	0.04225	0.055
Mof_C 	C 	0.6135	0.96536	0.00075	-0.043
Mof_C 	C 	0.5423	0.9303	0.98943	-0.101
Mof_C 	C 	0.4903	0.91386	0.0243	0.125
Mof_C 	C 	0.4152	0.87588	0.02736	-0.171
Mof_C 	C 	0.3738	0.85583	0.06276	0.132
Mof_C 	C 	0.3016	0.817	0.0666	-0.107
Mof_C 	C 	0.2876	0.809	0.1057	-0.046
Mof_C 	C 	0.3455	0.8456	0.12603	0.062
Mof_C 	C 	0.3754	0.85477	0.9902	0.136
Mof_C 	C 	0.4003	0.80587	0.97942	-0.157
Mof_C 	C 	0.36	0.7868	0.94474	0.078
Mof_C 	C 	0.2707	0.8583	0.9303	0.107
Mof_C 	C 	0.3107	0.881	0.96419	-0.169
Mof_C 	C 	0.6425	0.9491	0.6905	0.057
Mof_C 	C 	0.6472	0.9394	0.73114	-0.046
Mof_C 	C 	0.5628	0.9108	0.73962	-0.109
Mof_C 	C 	0.5069	0.90206	0.7037	0.138
Mof_C 	C 	0.4155	0.8748	0.69829	-0.182
Mof_C 	C 	0.359	0.86697	0.6628	0.136
Mof_C 	C 	0.2705	0.8361	0.657	-0.107
Mof_C 	C 	0.2425	0.8395	0.6178	-0.054
Mof_C 	C 	0.3147	0.8722	0.60108	0.07
Mof_C 	C 	0.3735	0.8495	0.73473	0.143
Mof_C 	C 	0.2759	0.8617	0.7491	-0.178
Mof_C 	C 	0.24	0.839	0.7843	0.089
Mof_C 	C 	0.3934	0.7943	0.78978	0.082
Mof_C 	C 	0.4358	0.8147	0.75473	-0.17
Mof_C 	C 	0.8221	0.4953	0.85762	0.075
Mof_C 	C 	0.7902	0.5423	0.84551	-0.066
Mof_C 	C 	0.8784	0.572	0.84962	-0.086
Mof_C 	C 	0.9616	0.54271	0.86445	0.12
Mof_C 	C 	0.0669	0.55825	0.87357	-0.183
Mof_C 	C 	0.1485	0.52896	0.88913	0.142
Mof_C 	C 	0.2509	0.5448	0.90021	-0.118
Mof_C 	C 	0.3038	0.5048	0.91349	-0.021
Mof_C 	C 	0.2343	0.4648	0.91055	0.06
Mof_C 	C 	0.0924	0.6102	0.86655	0.165
Mof_C 	C 	0.1652	0.62366	0.83781	-0.18
Mof_C 	C 	0.1913	0.6732	0.83334	0.148
Mof_C 	C 	0.0781	0.6955	0.88289	0.118
Mof_C 	C 	0.0467	0.64673	0.8895	-0.19
Mof_C 	C 	0.8942	0.4705	0.95775	0.054
Mof_C 	C 	0.8865	0.46536	0.99925	-0.04
Mof_C 	C 	0.9577	0.4303	0.01057	-0.102
Mof_C 	C 	0.0097	0.41386	0.9757	0.125
Mof_C 	C 	0.0848	0.37588	0.97264	-0.171
Mof_C 	C 	0.1262	0.35583	0.93724	0.131
Mof_C 	C 	0.1984	0.317	0.9334	-0.107
Mof_C 	C 	0.2124	0.309	0.8943	-0.046
Mof_C 	C 	0.1545	0.3456	0.87397	0.061
Mof_C 	C 	0.1246	0.35477	0.0098	0.137
Mof_C 	C 	0.0997	0.30587	0.02058	-0.158
Mof_C 	C 	0.14	0.2868	0.05526	0.078
Mof_C 	C 	0.2293	0.3583	0.0697	0.107
Mof_C 	C 	0.1893	0.381	0.03581	-0.169
Mof_C 	C 	0.8575	0.4491	0.3095	0.058
Mof_C 	C 	0.8528	0.4394	0.26886	-0.048
Mof_C 	C 	0.9372	0.4108	0.26038	-0.108
Mof_C 	C 	0.9931	0.40206	0.2963	0.134
Mof_C 	C 	0.0845	0.3748	0.30171	-0.178
Mof_C 	C 	0.141	0.36697	0.3372	0.135
Mof_C 	C 	0.2295	0.3361	0.343	-0.106
Mof_C 	C 	0.2575	0.3395	0.3822	-0.054
Mof_C 	C 	0.1853	0.3722	0.39892	0.07
Mof_C 	C 	0.1265	0.3495	0.26527	0.14
Mof_C 	C 	0.2241	0.3617	0.2509	-0.175
Mof_C 	C 	0.26	0.339	0.2157	0.088
Mof_C 	C 	0.1066	0.2943	0.21022	0.08
Mof_C 	C 	0.0642	0.3147	0.24527	-0.163
Mof_C 	C 	0.6779	0.9953	0.14238	0.075
Mof_C 	C 	0.7098	0.0423	0.15449	-0.067
Mof_C 	C 	0.6216	0.072	0.15038	-0.085
Mof_C 	C 	0.5384	0.04271	0.13555	0.117
Mof_C 	C 	0.4331	0.05825	0.12643	-0.18
Mof_C 	C 	0.3515	0.02896	0.11087	0.141
Mof_C 	C 	0.2491	0.0448	0.09979	-0.118
Mof_C 	C 	0.1962	0.0048	0.08651	-0.021
Mof_C 	C 	0.2657	0.9648	0.08945	0.06
Mof_C 	C 	0.4076	0.1102	0.13345	0.163
Mof_C 	C 	0.3348	0.12366	0.16219	-0.178
Mof_C 	C 	0.3087	0.1732	0.16666	0.147
Mof_C 	C 	0.4219	0.1955	0.11711	0.117
Mof_C 	C 	0.4533	0.14673	0.1105	-0.185
Mof_N 	N 	0.032	0.43972	0.44318	-0.359
Mof_N 	N 	0.8996	0.37264	0.39931	-0.36
Mof_N 	N 	0.7946	0.31288	0.57959	-0.197
Mof_N 	N 	0.0582	0.42726	0.82622	-0.356
Mof_N 	N 	0.8838	0.38884	0.87276	-0.362
Mof_N 	N 	0.7977	0.3067	0.69578	-0.203
Mof_N 	N 	0.4233	0.99489	0.63045	-0.357
Mof_N 	N 	0.6411	0.97817	0.60393	-0.36
Mof_N 	N 	0.6509	0.20888	0.64393	-0.199
Mof_N 	N 	0.468	0.93972	0.55682	-0.36
Mof_N 	N 	0.6004	0.87264	0.60069	-0.36
Mof_N 	N 	0.7054	0.81288	0.42041	-0.197
Mof_N 	N 	0.4418	0.92726	0.17378	-0.356
Mof_N 	N 	0.6162	0.88884	0.12724	-0.363
Mof_N 	N 	0.7023	0.8067	0.30422	-0.204
Mof_N 	N 	0.0767	0.49489	0.36955	-0.356
Mof_N 	N 	0.8589	0.47817	0.39607	-0.359
Mof_N 	N 	0.8491	0.70888	0.35607	-0.2
Mof_N 	N 	0.532	0.93972	0.05682	-0.36
Mof_N 	N 	0.3996	0.87264	0.10069	-0.36
Mof_N 	N 	0.2946	0.81288	0.92041	-0.197
Mof_N 	N 	0.5582	0.92726	0.67378	-0.356
Mof_N 	N 	0.3838	0.88884	0.62724	-0.363
Mof_N 	N 	0.2977	0.8067	0.80422	-0.204
Mof_N 	N 	0.9233	0.49489	0.86955	-0.356
Mof_N 	N 	0.1411	0.47817	0.89607	-0.359
Mof_N 	N 	0.1509	0.70888	0.85607	-0.2
Mof_N 	N 	0.968	0.43972	0.94318	-0.359
Mof_N 	N 	0.1004	0.37264	0.89931	-0.36
Mof_N 	N 	0.2054	0.31288	0.07959	-0.197
Mof_N 	N 	0.9418	0.42726	0.32622	-0.356
Mof_N 	N 	0.1162	0.38884	0.37276	-0.362
Mof_N 	N 	0.2023	0.3067	0.19578	-0.203
Mof_N 	N 	0.5767	0.99489	0.13045	-0.357
Mof_N 	N 	0.3589	0.97817	0.10393	-0.36
Mof_N 	N 	0.3491	0.20888	0.14393	-0.199
Mof_Ga	Ga	0.5118	0.06635	0.8849	1.949
Mof_Ga	Ga	0.9882	0.56635	0.1151	1.944
Mof_Ga	Ga	0.0118	0.56635	0.6151	1.945
Mof_Ga	Ga	0.4882	0.06635	0.3849	1.949
Mof_Ag	Ag	0.76191	0.21969	0.13673	0.873
Mof_Ag	Ag	0.73809	0.71969	0.86327	0.873
Mof_Ag	Ag	0.26191	0.71969	0.36327	0.873
Mof_Ag	Ag	0.23809	0.21969	0.63673	0.873
Mof_H 	H 	0.3529	0.0074	0.9423	-0.009
Mof_H 	H 	0.3401	0.0168	0.0163	0.045
Mof_H 	H 	0.4701	0.081	0.0368	0.064
Mof_H 	H 	0.7315	0.2005	0.9545	0.077
Mof_H 	H 	0.7536	0.2164	0.8826	0.045
Mof_H 	H 	0.6545	0.15	0.846	-0.013
Mof_H 	H 	0.5555	0.2137	0.004	0.1
Mof_H 	H 	0.6215	0.2459	0.0625	0.06
Mof_H 	H 	0.7759	0.1235	0.0864	0.044
Mof_H 	H 	0.7061	0.0855	0.0304	0.095
Mof_H 	H 	0.3073	0.0314	0.3235	-0.004
Mof_H 	H 	0.3003	0.0492	0.2508	0.051
Mof_H 	H 	0.456	0.1013	0.2349	0.068
Mof_H 	H 	0.7636	0.1834	0.3233	0.069
Mof_H 	H 	0.8143	0.177	0.3952	0.052
Mof_H 	H 	0.6856	0.1186	0.4261	-0.01
Mof_H 	H 	0.7673	0.115	0.2643	0.098
Mof_H 	H 	0.8286	0.1527	0.2059	0.041
Mof_H 	H 	0.5655	0.2293	0.1962	0.036
Mof_H 	H 	0.4961	0.1948	0.2549	0.091
Mof_H 	H 	0.2228	0.5329	0.1426	-0.011
Mof_H 	H 	0.2783	0.4482	0.1637	0.084
Mof_H 	H 	0.1177	0.3939	0.1565	0.057
Mof_H 	H 	0.7223	0.4226	0.1014	0.152
Mof_H 	H 	0.6251	0.496	0.077	0.074
Mof_H 	H 	0.748	0.5679	0.082	-0.007
Mof_H 	H 	0.803	0.4005	0.1787	0.119
Mof_H 	H 	0.7598	0.318	0.1869	0.013
Mof_H 	H 	0.9542	0.2794	0.1016	0.026
Mof_H 	H 	0.0047	0.361	0.0908	0.097
Mof_H 	H 	0.1471	0.5074	0.0577	-0.009
Mof_H 	H 	0.1599	0.5168	0.9837	0.044
Mof_H 	H 	0.0299	0.581	0.9632	0.064
Mof_H 	H 	0.7685	0.7005	0.0455	0.077
Mof_H 	H 	0.7464	0.7164	0.1174	0.045
Mof_H 	H 	0.8455	0.65	0.154	-0.013
Mof_H 	H 	0.9445	0.7137	0.996	0.1
Mof_H 	H 	0.8785	0.7459	0.9375	0.06
Mof_H 	H 	0.7241	0.6235	0.9136	0.044
Mof_H 	H 	0.7939	0.5855	0.9696	0.095
Mof_H 	H 	0.1927	0.5314	0.6765	-0.004
Mof_H 	H 	0.1997	0.5492	0.7492	0.052
Mof_H 	H 	0.044	0.6013	0.7651	0.067
Mof_H 	H 	0.7364	0.6834	0.6767	0.069
Mof_H 	H 	0.6857	0.677	0.6048	0.052
Mof_H 	H 	0.8144	0.6186	0.5739	-0.01
Mof_H 	H 	0.7327	0.615	0.7357	0.098
Mof_H 	H 	0.6714	0.6527	0.7941	0.042
Mof_H 	H 	0.9345	0.7293	0.8038	0.037
Mof_H 	H 	0.0039	0.6948	0.7451	0.087
Mof_H 	H 	0.2772	0.0329	0.8574	-0.011
Mof_H 	H 	0.2217	0.9482	0.8363	0.084
Mof_H 	H 	0.3823	0.8939	0.8435	0.056
Mof_H 	H 	0.7777	0.9226	0.8986	0.152
Mof_H 	H 	0.8749	0.996	0.923	0.074
Mof_H 	H 	0.752	0.0679	0.918	-0.007
Mof_H 	H 	0.697	0.9005	0.8213	0.119
Mof_H 	H 	0.7402	0.818	0.8131	0.013
Mof_H 	H 	0.5458	0.7794	0.8984	0.027
Mof_H 	H 	0.4953	0.861	0.9092	0.095
Mof_H 	H 	0.8529	0.5074	0.5577	-0.009
Mof_H 	H 	0.8401	0.5168	0.4837	0.045
Mof_H 	H 	0.9701	0.581	0.4632	0.064
Mof_H 	H 	0.2315	0.7005	0.5455	0.077
Mof_H 	H 	0.2536	0.7164	0.6174	0.045
Mof_H 	H 	0.1545	0.65	0.654	-0.013
Mof_H 	H 	0.0555	0.7137	0.496	0.1
Mof_H 	H 	0.1215	0.7459	0.4375	0.06
Mof_H 	H 	0.2759	0.6235	0.4136	0.044
Mof_H 	H 	0.2061	0.5855	0.4696	0.095
Mof_H 	H 	0.8073	0.5314	0.1765	-0.004
Mof_H 	H 	0.8003	0.5492	0.2492	0.052
Mof_H 	H 	0.956	0.6013	0.2651	0.067
Mof_H 	H 	0.2636	0.6834	0.1767	0.069
Mof_H 	H 	0.3143	0.677	0.1048	0.052
Mof_H 	H 	0.1856	0.6186	0.0739	-0.01
Mof_H 	H 	0.2673	0.615	0.2357	0.098
Mof_H 	H 	0.3286	0.6527	0.2941	0.042
Mof_H 	H 	0.0655	0.7293	0.3038	0.037
Mof_H 	H 	0.9961	0.6948	0.2451	0.087
Mof_H 	H 	0.7228	0.0329	0.3574	-0.011
Mof_H 	H 	0.7783	0.9482	0.3363	0.084
Mof_H 	H 	0.6177	0.8939	0.3435	0.056
Mof_H 	H 	0.2223	0.9226	0.3986	0.152
Mof_H 	H 	0.1251	0.996	0.423	0.074
Mof_H 	H 	0.248	0.0679	0.418	-0.007
Mof_H 	H 	0.303	0.9005	0.3213	0.119
Mof_H 	H 	0.2598	0.818	0.3131	0.014
Mof_H 	H 	0.4542	0.7794	0.3984	0.027
Mof_H 	H 	0.5047	0.861	0.4092	0.095
Mof_H 	H 	0.6471	0.0074	0.4423	-0.009
Mof_H 	H 	0.6599	0.0168	0.5163	0.045
Mof_H 	H 	0.5299	0.081	0.5368	0.064
Mof_H 	H 	0.2685	0.2005	0.4545	0.077
Mof_H 	H 	0.2464	0.2164	0.3826	0.045
Mof_H 	H 	0.3455	0.15	0.346	-0.013
Mof_H 	H 	0.4445	0.2137	0.504	0.1
Mof_H 	H 	0.3785	0.2459	0.5625	0.06
Mof_H 	H 	0.2241	0.1235	0.5864	0.044
Mof_H 	H 	0.2939	0.0855	0.5304	0.095
Mof_H 	H 	0.6927	0.0314	0.8235	-0.004
Mof_H 	H 	0.6997	0.0492	0.7508	0.051
Mof_H 	H 	0.544	0.1013	0.7349	0.068
Mof_H 	H 	0.2364	0.1834	0.8233	0.069
Mof_H 	H 	0.1857	0.177	0.8952	0.052
Mof_H 	H 	0.3144	0.1186	0.9261	-0.01
Mof_H 	H 	0.2327	0.115	0.7643	0.098
Mof_H 	H 	0.1714	0.1527	0.7059	0.041
Mof_H 	H 	0.4345	0.2293	0.6962	0.036
Mof_H 	H 	0.5039	0.1948	0.7549	0.091
Mof_H 	H 	0.7772	0.5329	0.6426	-0.011
Mof_H 	H 	0.7217	0.4482	0.6637	0.084
Mof_H 	H 	0.8823	0.3939	0.6565	0.057
Mof_H 	H 	0.2777	0.4226	0.6014	0.152
Mof_H 	H 	0.3749	0.496	0.577	0.074
Mof_H 	H 	0.252	0.5679	0.582	-0.007
Mof_H 	H 	0.197	0.4005	0.6787	0.119
Mof_H 	H 	0.2402	0.318	0.6869	0.013
Mof_H 	H 	0.0458	0.2794	0.6016	0.026
Mof_H 	H 	0.9953	0.361	0.5908	0.097
Mof_C 	C 	0.3942	0.0295	0.95775	0.055
Mof_C 	C 	0.3865	0.03464	0.99925	-0.043
Mof_C 	C 	0.4577	0.0697	0.01057	-0.101
Mof_C 	C 	0.5097	0.08614	0.9757	0.125
Mof_C 	C 	0.5848	0.12412	0.97264	-0.171
Mof_C 	C 	0.6262	0.14417	0.93724	0.132
Mof_C 	C 	0.6984	0.183	0.9334	-0.107
Mof_C 	C 	0.7124	0.191	0.8943	-0.046
Mof_C 	C 	0.6545	0.1544	0.87397	0.062
Mof_C 	C 	0.6246	0.14523	0.0098	0.136
Mof_C 	C 	0.5997	0.19413	0.02058	-0.157
Mof_C 	C 	0.64	0.2132	0.05526	0.078
Mof_C 	C 	0.7293	0.1417	0.0697	0.107
Mof_C 	C 	0.6893	0.119	0.03581	-0.169
Mof_C 	C 	0.3575	0.0509	0.3095	0.057
Mof_C 	C 	0.3528	0.0606	0.26886	-0.046
Mof_C 	C 	0.4372	0.0892	0.26038	-0.109
Mof_C 	C 	0.4931	0.09794	0.2963	0.138
Mof_C 	C 	0.5845	0.1252	0.30171	-0.182
Mof_C 	C 	0.641	0.13303	0.3372	0.136
Mof_C 	C 	0.7295	0.1639	0.343	-0.107
Mof_C 	C 	0.7575	0.1605	0.3822	-0.054
Mof_C 	C 	0.6853	0.1278	0.39892	0.07
Mof_C 	C 	0.6265	0.1505	0.26527	0.143
Mof_C 	C 	0.7241	0.1383	0.2509	-0.178
Mof_C 	C 	0.76	0.161	0.2157	0.089
Mof_C 	C 	0.6066	0.2057	0.21022	0.082
Mof_C 	C 	0.5642	0.1853	0.24527	-0.17
Mof_C 	C 	0.1779	0.5047	0.14238	0.075
Mof_C 	C 	0.2098	0.4577	0.15449	-0.066
Mof_C 	C 	0.1216	0.428	0.15038	-0.086
Mof_C 	C 	0.0384	0.45729	0.13555	0.12
Mof_C 	C 	0.9331	0.44175	0.12643	-0.183
Mof_C 	C 	0.8515	0.47104	0.11087	0.142
Mof_C 	C 	0.7491	0.4552	0.09979	-0.118
Mof_C 	C 	0.6962	0.4952	0.08651	-0.021
Mof_C 	C 	0.7657	0.5352	0.08945	0.06
Mof_C 	C 	0.9076	0.3898	0.13345	0.165
Mof_C 	C 	0.8348	0.37634	0.16219	-0.18
Mof_C 	C 	0.8087	0.3268	0.16666	0.148
Mof_C 	C 	0.9219	0.3045	0.11711	0.118
Mof_C 	C 	0.9533	0.35327	0.1105	-0.19
Mof_C 	C 	0.1058	0.5295	0.04225	0.054
Mof_C 	C 	0.1135	0.53464	0.00075	-0.04
Mof_C 	C 	0.0423	0.5697	0.98943	-0.102
Mof_C 	C 	0.9903	0.58614	0.0243	0.125
Mof_C 	C 	0.9152	0.62412	0.02736	-0.171
Mof_C 	C 	0.8738	0.64417	0.06276	0.131
Mof_C 	C 	0.8016	0.683	0.0666	-0.107
Mof_C 	C 	0.7876	0.691	0.1057	-0.046
Mof_C 	C 	0.8455	0.6544	0.12603	0.061
Mof_C 	C 	0.8754	0.64523	0.9902	0.137
Mof_C 	C 	0.9003	0.69413	0.97942	-0.158
Mof_C 	C 	0.86	0.7132	0.94474	0.078
Mof_C 	C 	0.7707	0.6417	0.9303	0.107
Mof_C 	C 	0.8107	0.619	0.96419	-0.169
Mof_C 	C 	0.1425	0.5509	0.6905	0.058
Mof_C 	C 	0.1472	0.5606	0.73114	-0.048
Mof_C 	C 	0.0628	0.5892	0.73962	-0.108
Mof_C 	C 	0.0069	0.59794	0.7037	0.134
Mof_C 	C 	0.9155	0.6252	0.69829	-0.178
Mof_C 	C 	0.859	0.63303	0.6628	0.135
Mof_C 	C 	0.7705	0.6639	0.657	-0.106
Mof_C 	C 	0.7425	0.6605	0.6178	-0.054
Mof_C 	C 	0.8147	0.6278	0.60108	0.07
Mof_C 	C 	0.8735	0.6505	0.73473	0.14
Mof_C 	C 	0.7759	0.6383	0.7491	-0.175
Mof_C 	C 	0.74	0.661	0.7843	0.088
Mof_C 	C 	0.8934	0.7057	0.78978	0.08
Mof_C 	C 	0.9358	0.6853	0.75473	-0.163
Mof_C 	C 	0.3221	0.0047	0.85762	0.075
Mof_C 	C 	0.2902	0.9577	0.84551	-0.067
Mof_C 	C 	0.3784	0.928	0.84962	-0.085
Mof_C 	C 	0.4616	0.95729	0.86445	0.117
Mof_C 	C 	0.5669	0.94175	0.87357	-0.18
Mof_C 	C 	0.6485	0.97104	0.88913	0.141
Mof_C 	C 	0.7509	0.9552	0.90021	-0.118
Mof_C 	C 	0.8038	0.9952	0.91349	-0.021
Mof_C 	C 	0.7343	0.0352	0.91055	0.06
Mof_C 	C 	0.5924	0.8898	0.86655	0.163
Mof_C 	C 	0.6652	0.87634	0.83781	-0.178
Mof_C 	C 	0.6913	0.8268	0.83334	0.147
Mof_C 	C 	0.5781	0.8045	0.88289	0.117
Mof_C 	C 	0.5467	0.85327	0.8895	-0.185
Mof_C 	C 	0.8942	0.5295	0.54225	0.055
Mof_C 	C 	0.8865	0.53464	0.50075	-0.042
Mof_C 	C 	0.9577	0.5697	0.48943	-0.1
Mof_C 	C 	0.0097	0.58614	0.5243	0.125
Mof_C 	C 	0.0848	0.62412	0.52736	-0.171
Mof_C 	C 	0.1262	0.64417	0.56276	0.131
Mof_C 	C 	0.1984	0.683	0.5666	-0.107
Mof_C 	C 	0.2124	0.691	0.6057	-0.046
Mof_C 	C 	0.1545	0.6544	0.62603	0.061
Mof_C 	C 	0.1246	0.64523	0.4902	0.136
Mof_C 	C 	0.0997	0.69413	0.47942	-0.157
Mof_C 	C 	0.14	0.7132	0.44474	0.078
Mof_C 	C 	0.2293	0.6417	0.4303	0.107
Mof_C 	C 	0.1893	0.619	0.46419	-0.169
Mof_C 	C 	0.8575	0.5509	0.1905	0.058
Mof_C 	C 	0.8528	0.5606	0.23114	-0.048
Mof_C 	C 	0.9372	0.5892	0.23962	-0.107
Mof_C 	C 	0.9931	0.59794	0.2037	0.134
Mof_C 	C 	0.0845	0.6252	0.19829	-0.177
Mof_C 	C 	0.141	0.63303	0.1628	0.135
Mof_C 	C 	0.2295	0.6639	0.157	-0.106
Mof_C 	C 	0.2575	0.6605	0.1178	-0.054
Mof_C 	C 	0.1853	0.6278	0.10108	0.07
Mof_C 	C 	0.1265	0.6505	0.23473	0.14
Mof_C 	C 	0.2241	0.6383	0.2491	-0.175
Mof_C 	C 	0.26	0.661	0.2843	0.088
Mof_C 	C 	0.1066	0.7057	0.28978	0.08
Mof_C 	C 	0.0642	0.6853	0.25473	-0.163
Mof_C 	C 	0.6779	0.0047	0.35762	0.075
Mof_C 	C 	0.7098	0.9577	0.34551	-0.067
Mof_C 	C 	0.6216	0.928	0.34962	-0.085
Mof_C 	C 	0.5384	0.95729	0.36445	0.117
Mof_C 	C 	0.4331	0.94175	0.37357	-0.18
Mof_C 	C 	0.3515	0.97104	0.38913	0.141
Mof_C 	C 	0.2491	0.9552	0.40021	-0.118
Mof_C 	C 	0.1962	0.9952	0.41349	-0.021
Mof_C 	C 	0.2657	0.0352	0.41055	0.06
Mof_C 	C 	0.4076	0.8898	0.36655	0.162
Mof_C 	C 	0.3348	0.87634	0.33781	-0.178
Mof_C 	C 	0.3087	0.8268	0.33334	0.147
Mof_C 	C 	0.4219	0.8045	0.38289	0.117
Mof_C 	C 	0.4533	0.85327	0.3895	-0.185
Mof_C 	C 	0.6058	0.0295	0.45775	0.055
Mof_C 	C 	0.6135	0.03464	0.49925	-0.041
Mof_C 	C 	0.5423	0.0697	0.51057	-0.101
Mof_C 	C 	0.4903	0.08614	0.4757	0.126
Mof_C 	C 	0.4152	0.12412	0.47264	-0.171
Mof_C 	C 	0.3738	0.14417	0.43724	0.132
Mof_C 	C 	0.3016	0.183	0.4334	-0.107
Mof_C 	C 	0.2876	0.191	0.3943	-0.046
Mof_C 	C 	0.3455	0.1544	0.37397	0.062
Mof_C 	C 	0.3754	0.14523	0.5098	0.136
Mof_C 	C 	0.4003	0.19413	0.52058	-0.157
Mof_C 	C 	0.36	0.2132	0.55526	0.078
Mof_C 	C 	0.2707	0.1417	0.5697	0.107
Mof_C 	C 	0.3107	0.119	0.53581	-0.169
Mof_C 	C 	0.6425	0.0509	0.8095	0.057
Mof_C 	C 	0.6472	0.0606	0.76886	-0.046
Mof_C 	C 	0.5628	0.0892	0.76038	-0.109
Mof_C 	C 	0.5069	0.09794	0.7963	0.138
Mof_C 	C 	0.4155	0.1252	0.80171	-0.182
Mof_C 	C 	0.359	0.13303	0.8372	0.136
Mof_C 	C 	0.2705	0.1639	0.843	-0.107
Mof_C 	C 	0.2425	0.1605	0.8822	-0.054
Mof_C 	C 	0.3147	0.1278	0.89892	0.07
Mof_C 	C 	0.3735	0.1505	0.76527	0.143
Mof_C 	C 	0.2759	0.1383	0.7509	-0.178
Mof_C 	C 	0.24	0.161	0.7157	0.089
Mof_C 	C 	0.3934	0.2057	0.71022	0.082
Mof_C 	C 	0.4358	0.1853	0.74527	-0.17
Mof_C 	C 	0.8221	0.5047	0.64238	0.075
Mof_C 	C 	0.7902	0.4577	0.65449	-0.066
Mof_C 	C 	0.8784	0.428	0.65038	-0.086
Mof_C 	C 	0.9616	0.45729	0.63555	0.119
Mof_C 	C 	0.0669	0.44175	0.62643	-0.183
Mof_C 	C 	0.1485	0.47104	0.61087	0.142
Mof_C 	C 	0.2509	0.4552	0.59979	-0.118
Mof_C 	C 	0.3038	0.4952	0.58651	-0.021
Mof_C 	C 	0.2343	0.5352	0.58945	0.06
Mof_C 	C 	0.0924	0.3898	0.63345	0.164
Mof_C 	C 	0.1652	0.37634	0.66219	-0.179
Mof_C 	C 	0.1913	0.3268	0.66666	0.148
Mof_C 	C 	0.0781	0.3045	0.61711	0.118
Mof_C 	C 	0.0467	0.35327	0.6105	-0.189
Mof_N 	N 	0.468	0.06028	0.94318	-0.36
Mof_N 	N 	0.6004	0.12736	0.89931	-0.36
Mof_N 	N 	0.7054	0.18712	0.07959	-0.197
Mof_N 	N 	0.4418	0.07274	0.32622	-0.356
Mof_N 	N 	0.6162	0.11116	0.37276	-0.363
Mof_N 	N 	0.7023	0.1933	0.19578	-0.204
Mof_N 	N 	0.0767	0.50511	0.13045	-0.356
Mof_N 	N 	0.8589	0.52183	0.10393	-0.359
Mof_N 	N 	0.8491	0.29112	0.14393	-0.2
Mof_N 	N 	0.032	0.56028	0.05682	-0.359
Mof_N 	N 	0.8996	0.62736	0.10069	-0.36
Mof_N 	N 	0.7946	0.68712	0.92041	-0.197
Mof_N 	N 	0.0582	0.57274	0.67378	-0.356
Mof_N 	N 	0.8838	0.61116	0.62724	-0.362
Mof_N 	N 	0.7977	0.6933	0.80422	-0.203
Mof_N 	N 	0.4233	0.00511	0.86955	-0.357
Mof_N 	N 	0.6411	0.02183	0.89607	-0.36
Mof_N 	N 	0.6509	0.79112	0.85607	-0.199
Mof_N 	N 	0.968	0.56028	0.55682	-0.359
Mof_N 	N 	0.1004	0.62736	0.60069	-0.36
Mof_N 	N 	0.2054	0.68712	0.42041	-0.197
Mof_N 	N 	0.9418	0.57274	0.17378	-0.356
Mof_N 	N 	0.1162	0.61116	0.12724	-0.362
Mof_N 	N 	0.2023	0.6933	0.30422	-0.203
Mof_N 	N 	0.5767	0.00511	0.36955	-0.357
Mof_N 	N 	0.3589	0.02183	0.39607	-0.36
Mof_N 	N 	0.3491	0.79112	0.35607	-0.199
Mof_N 	N 	0.532	0.06028	0.44318	-0.36
Mof_N 	N 	0.3996	0.12736	0.39931	-0.36
Mof_N 	N 	0.2946	0.18712	0.57959	-0.197
Mof_N 	N 	0.5582	0.07274	0.82622	-0.356
Mof_N 	N 	0.3838	0.11116	0.87276	-0.363
Mof_N 	N 	0.2977	0.1933	0.69578	-0.204
Mof_N 	N 	0.9233	0.50511	0.63045	-0.356
Mof_N 	N 	0.1411	0.52183	0.60393	-0.359
Mof_N 	N 	0.1509	0.29112	0.64393	-0.2
Mof_P 	P 	0.4715	0.34358	0.6243	1.169
Mof_F 	F 	0.5824	0.3495	0.6387	-0.502
Mof_F 	F 	0.4554	0.2971	0.6504	-0.471
Mof_F 	F 	0.3657	0.3356	0.6018	-0.425
Mof_F 	F 	0.4908	0.3908	0.5955	-0.378
Mof_F 	F 	0.5047	0.3112	0.5826	-0.386
Mof_F 	F 	0.4224	0.3769	0.6555	-0.432
Mof_P 	P 	0.0285	0.15642	0.1243	1.17
Mof_F 	F 	0.9176	0.1505	0.1387	-0.503
Mof_F 	F 	0.0446	0.2029	0.1504	-0.47
Mof_F 	F 	0.1343	0.1644	0.1018	-0.425
Mof_F 	F 	0.0092	0.1092	0.0955	-0.377
Mof_F 	F 	0.9953	0.1888	0.0826	-0.387
Mof_F 	F 	0.0776	0.1231	0.1555	-0.432
Mof_P 	P 	0.4715	0.65642	0.8757	1.169
Mof_F 	F 	0.5824	0.6505	0.8613	-0.502
Mof_F 	F 	0.4554	0.7029	0.8496	-0.471
Mof_F 	F 	0.3657	0.6644	0.8982	-0.425
Mof_F 	F 	0.4908	0.6092	0.9045	-0.378
Mof_F 	F 	0.5047	0.6888	0.9174	-0.386
Mof_F 	F 	0.4224	0.6231	0.8445	-0.432
Mof_P 	P 	0.0285	0.84358	0.3757	1.17
Mof_F 	F 	0.9176	0.8495	0.3613	-0.503
Mof_F 	F 	0.0446	0.7971	0.3496	-0.47
Mof_F 	F 	0.1343	0.8356	0.3982	-0.425
Mof_F 	F 	0.0092	0.8908	0.4045	-0.377
Mof_F 	F 	0.9953	0.8112	0.4174	-0.387
Mof_F 	F 	0.0776	0.8769	0.3445	-0.432
Mof_P 	P 	0.5285	0.65642	0.3757	1.169
Mof_F 	F 	0.4176	0.6505	0.3613	-0.502
Mof_F 	F 	0.5446	0.7029	0.3496	-0.471
Mof_F 	F 	0.6343	0.6644	0.3982	-0.425
Mof_F 	F 	0.5092	0.6092	0.4045	-0.378
Mof_F 	F 	0.4953	0.6888	0.4174	-0.386
Mof_F 	F 	0.5776	0.6231	0.3445	-0.432
Mof_P 	P 	0.9715	0.84358	0.8757	1.17
Mof_F 	F 	0.0824	0.8495	0.8613	-0.503
Mof_F 	F 	0.9554	0.7971	0.8496	-0.47
Mof_F 	F 	0.8657	0.8356	0.8982	-0.425
Mof_F 	F 	0.9908	0.8908	0.9045	-0.377
Mof_F 	F 	0.0047	0.8112	0.9174	-0.387
Mof_F 	F 	0.9224	0.8769	0.8445	-0.432
Mof_P 	P 	0.5285	0.34358	0.1243	1.169
Mof_F 	F 	0.4176	0.3495	0.1387	-0.502
Mof_F 	F 	0.5446	0.2971	0.1504	-0.471
Mof_F 	F 	0.6343	0.3356	0.1018	-0.425
Mof_F 	F 	0.5092	0.3908	0.0955	-0.378
Mof_F 	F 	0.4953	0.3112	0.0826	-0.386
Mof_F 	F 	0.5776	0.3769	0.1555	-0.432
Mof_P 	P 	0.9715	0.15642	0.6243	1.17
Mof_F 	F 	0.0824	0.1505	0.6387	-0.503
Mof_F 	F 	0.9554	0.2029	0.6504	-0.47
Mof_F 	F 	0.8657	0.1644	0.6018	-0.425
Mof_F 	F 	0.9908	0.1092	0.5955	-0.377
Mof_F 	F 	0.0047	0.1888	0.5826	-0.387
Mof_F 	F 	0.9224	0.1231	0.6555	-0.432
_end
