# CIF file generated by openbabel 3.1.0, see https://openbabel.org
data_I
_chemical_name_common 'image0'
_cell_length_a 8.5974
_cell_length_b 10.6546
_cell_length_c 7.6815
_cell_angle_alpha 84.205
_cell_angle_beta 103.475
_cell_angle_gamma 84.9099
_space_group_name_H-M_alt 'P 1'
_space_group_name_Hall 'P 1'
loop_
    _symmetry_equiv_pos_as_xyz
    x,y,z
loop_
    _atom_site_label
    _atom_site_type_symbol
    _atom_site_fract_x
    _atom_site_fract_y
    _atom_site_fract_z
    _atom_site_occupancy
    O1       O        0.10176    0.17366    0.17245    1.000
    O2       O        0.63792    0.19367    0.10208    1.000
    O3       O        0.88051    0.00085    0.13888    1.000
    O4       O        0.85918    0.36648    0.13565    1.000
    O5       O        0.91036    0.97707    0.43627    1.000
    O6       O        0.66778    0.16988    0.39947    1.000
    O7       O        0.13162    0.14987    0.46984    1.000
    Zn1      Zn       0.90444    0.15610    0.48187    1.000
    Zn2      Zn       0.86510    0.18744    0.09005    1.000
    O8       O        0.88904    0.34269    0.43304    1.000
    C1       C        0.59346    0.18095    0.24176    1.000
    C2       C        0.41649    0.17849    0.21491    1.000
    C3       C        0.89387    0.94217    0.28733    1.000
    C4       C        0.88918    0.80276    0.28661    1.000
    C5       C        0.87071    0.75023    0.12418    1.000
    C6       C        0.86629    0.61924    0.12351    1.000
    C7       C        0.89883    0.59332    0.44774    1.000
    C8       C        0.90323    0.72431    0.44840    1.000
    C9       C        0.85665    0.82868    0.96239    1.000
    C10      C        0.83818    0.77615    0.79994    1.000
    C11      C        0.83376    0.64516    0.79928    1.000
    C12      C        0.84782    0.56670    0.96107    1.000
    C13      C        0.17608    0.16259    0.33015    1.000
    C14      C        0.35305    0.16506    0.35699    1.000
    C15      C        0.87567    0.40137    0.28458    1.000
    C16      C        0.88036    0.54078    0.28529    1.000
    N1       N        0.93130    0.13471    0.74928    1.000
    N2       N        0.83826    0.20882    0.82264    1.000
    H1       H        0.86025    0.93534    0.96291    1.000
    H2       H        0.43414    0.15545    0.49920    1.000
    H3       H        0.02630    0.05907    0.83890    1.000
    H4       H        0.33541    0.18808    0.07272    1.000
    C17      C        0.82272    0.86246    0.62198    1.000
    N3       N        0.81107    0.92746    0.48794    1.000
    H5       H        0.91028    0.52943    0.57946    1.000
    H6       H        0.81871    0.60240    0.66700    1.000
    H7       H        0.84420    0.46004    0.96051    1.000
    H8       H        0.91824    0.76709    0.58066    1.000
    H9       H        0.74328    0.28446    0.73304    1.000
