# CIF file generated by openbabel 3.1.0, see https://openbabel.org
data_I
_chemical_name_common 'image0'
_cell_length_a 22.457
_cell_length_b 22.457
_cell_length_c 22.457
_cell_angle_alpha 90
_cell_angle_beta 90
_cell_angle_gamma 90
_space_group_name_H-M_alt 'P 1'
_space_group_name_Hall 'P 1'
loop_
    _symmetry_equiv_pos_as_xyz
    x,y,z
loop_
    _atom_site_label
    _atom_site_type_symbol
    _atom_site_fract_x
    _atom_site_fract_y
    _atom_site_fract_z
    _atom_site_occupancy
    In1      In       0.67769    0.73929    0.80642    1.000
    C1       C        0.80510    0.72000    0.10150    1.000
    C2       C        0.79490    0.70530    0.87710    1.000
    C3       C        0.82850    0.70640    0.93460    1.000
    C4       C        0.89490    0.70570    0.03900    1.000
    H1       H        0.91780    0.70530    0.07460    1.000
    C5       C        0.80050    0.71430    0.98900    1.000
    H2       H        0.75870    0.72050    0.99070    1.000
    C6       C        0.83410    0.71310    0.04150    1.000
    C7       C        0.92270    0.69870    0.98430    1.000
    C8       C        0.88960    0.69860    0.93180    1.000
    H3       H        0.90870    0.69310    0.89440    1.000
    O1       O        0.60710    0.73880    0.87200    1.000
    N1       N        0.98620    0.69570    0.97710    1.000
    O2       O        0.74070    0.72050    0.87857    1.000
    O3       O        0.82450    0.69000    0.83225    1.000
    O4       O        0.83720    0.70610    0.14586    1.000
    O5       O        0.75246    0.73870    0.10330    1.000
    Cl1      Cl       0.60440    0.73720    0.88780    1.000
    In2      In       0.32231    0.26071    0.80642    1.000
    C9       C        0.19490    0.28000    0.10150    1.000
    C10      C        0.20510    0.29470    0.87710    1.000
    C11      C        0.17150    0.29360    0.93460    1.000
    C12      C        0.10510    0.29430    0.03900    1.000
    H4       H        0.08220    0.29470    0.07460    1.000
    C13      C        0.19950    0.28570    0.98900    1.000
    H5       H        0.24130    0.27950    0.99070    1.000
    C14      C        0.16590    0.28690    0.04150    1.000
    C15      C        0.07730    0.30130    0.98430    1.000
    C16      C        0.11040    0.30140    0.93180    1.000
    H6       H        0.09130    0.30690    0.89440    1.000
    O6       O        0.39290    0.26120    0.87200    1.000
    N2       N        0.01380    0.30430    0.97710    1.000
    O7       O        0.25930    0.27950    0.87857    1.000
    O8       O        0.17550    0.31000    0.83225    1.000
    O9       O        0.16280    0.29390    0.14586    1.000
    O10      O        0.24754    0.26130    0.10330    1.000
    Cl2      Cl       0.39560    0.26280    0.88780    1.000
    In3      In       0.32231    0.73929    0.19358    1.000
    C17      C        0.19490    0.72000    0.89850    1.000
    C18      C        0.20510    0.70530    0.12290    1.000
    C19      C        0.17150    0.70640    0.06540    1.000
    C20      C        0.10510    0.70570    0.96100    1.000
    H7       H        0.08220    0.70530    0.92540    1.000
    C21      C        0.19950    0.71430    0.01100    1.000
    H8       H        0.24130    0.72050    0.00930    1.000
    C22      C        0.16590    0.71310    0.95850    1.000
    C23      C        0.07730    0.69870    0.01570    1.000
    C24      C        0.11040    0.69860    0.06820    1.000
    H9       H        0.09130    0.69310    0.10560    1.000
    O11      O        0.39290    0.73880    0.12800    1.000
    N3       N        0.01380    0.69570    0.02290    1.000
    O12      O        0.25930    0.72050    0.12143    1.000
    O13      O        0.17550    0.69000    0.16775    1.000
    O14      O        0.16280    0.70610    0.85414    1.000
    O15      O        0.24754    0.73870    0.89670    1.000
    Cl3      Cl       0.39560    0.73720    0.11220    1.000
    In4      In       0.67769    0.26071    0.19358    1.000
    C25      C        0.80510    0.28000    0.89850    1.000
    C26      C        0.79490    0.29470    0.12290    1.000
    C27      C        0.82850    0.29360    0.06540    1.000
    C28      C        0.89490    0.29430    0.96100    1.000
    H10      H        0.91780    0.29470    0.92540    1.000
    C29      C        0.80050    0.28570    0.01100    1.000
    H11      H        0.75870    0.27950    0.00930    1.000
    C30      C        0.83410    0.28690    0.95850    1.000
    C31      C        0.92270    0.30130    0.01570    1.000
    C32      C        0.88960    0.30140    0.06820    1.000
    H12      H        0.90870    0.30690    0.10560    1.000
    O16      O        0.60710    0.26120    0.12800    1.000
    N4       N        0.98620    0.30430    0.02290    1.000
    O17      O        0.74070    0.27950    0.12143    1.000
    O18      O        0.82450    0.31000    0.16775    1.000
    O19      O        0.83720    0.29390    0.85414    1.000
    O20      O        0.75246    0.26130    0.89670    1.000
    Cl4      Cl       0.60440    0.26280    0.11220    1.000
    In5      In       0.80642    0.67769    0.73929    1.000
    C33      C        0.10150    0.80510    0.72000    1.000
    C34      C        0.87710    0.79490    0.70530    1.000
    C35      C        0.93460    0.82850    0.70640    1.000
    C36      C        0.03900    0.89490    0.70570    1.000
    H13      H        0.07460    0.91780    0.70530    1.000
    C37      C        0.98900    0.80050    0.71430    1.000
    H14      H        0.99070    0.75870    0.72050    1.000
    C38      C        0.04150    0.83410    0.71310    1.000
    C39      C        0.98430    0.92270    0.69870    1.000
    C40      C        0.93180    0.88960    0.69860    1.000
    H15      H        0.89440    0.90870    0.69310    1.000
    O21      O        0.87200    0.60710    0.73880    1.000
    N5       N        0.97710    0.98620    0.69570    1.000
    O22      O        0.87857    0.74070    0.72050    1.000
    O23      O        0.83225    0.82450    0.69000    1.000
    O24      O        0.14586    0.83720    0.70610    1.000
    O25      O        0.10330    0.75246    0.73870    1.000
    Cl5      Cl       0.88780    0.60440    0.73720    1.000
    In6      In       0.80642    0.32231    0.26071    1.000
    C41      C        0.10150    0.19490    0.28000    1.000
    C42      C        0.87710    0.20510    0.29470    1.000
    C43      C        0.93460    0.17150    0.29360    1.000
    C44      C        0.03900    0.10510    0.29430    1.000
    H16      H        0.07460    0.08220    0.29470    1.000
    C45      C        0.98900    0.19950    0.28570    1.000
    H17      H        0.99070    0.24130    0.27950    1.000
    C46      C        0.04150    0.16590    0.28690    1.000
    C47      C        0.98430    0.07730    0.30130    1.000
    C48      C        0.93180    0.11040    0.30140    1.000
    H18      H        0.89440    0.09130    0.30690    1.000
    O26      O        0.87200    0.39290    0.26120    1.000
    N6       N        0.97710    0.01380    0.30430    1.000
    O27      O        0.87857    0.25930    0.27950    1.000
    O28      O        0.83225    0.17550    0.31000    1.000
    O29      O        0.14586    0.16280    0.29390    1.000
    O30      O        0.10330    0.24754    0.26130    1.000
    Cl6      Cl       0.88780    0.39560    0.26280    1.000
    In7      In       0.19358    0.32231    0.73929    1.000
    C49      C        0.89850    0.19490    0.72000    1.000
    C50      C        0.12290    0.20510    0.70530    1.000
    C51      C        0.06540    0.17150    0.70640    1.000
    C52      C        0.96100    0.10510    0.70570    1.000
    H19      H        0.92540    0.08220    0.70530    1.000
    C53      C        0.01100    0.19950    0.71430    1.000
    H20      H        0.00930    0.24130    0.72050    1.000
    C54      C        0.95850    0.16590    0.71310    1.000
    C55      C        0.01570    0.07730    0.69870    1.000
    C56      C        0.06820    0.11040    0.69860    1.000
    H21      H        0.10560    0.09130    0.69310    1.000
    O31      O        0.12800    0.39290    0.73880    1.000
    N7       N        0.02290    0.01380    0.69570    1.000
    O32      O        0.12143    0.25930    0.72050    1.000
    O33      O        0.16775    0.17550    0.69000    1.000
    O34      O        0.85414    0.16280    0.70610    1.000
    O35      O        0.89670    0.24754    0.73870    1.000
    Cl7      Cl       0.11220    0.39560    0.73720    1.000
    In8      In       0.19358    0.67769    0.26071    1.000
    C57      C        0.89850    0.80510    0.28000    1.000
    C58      C        0.12290    0.79490    0.29470    1.000
    C59      C        0.06540    0.82850    0.29360    1.000
    C60      C        0.96100    0.89490    0.29430    1.000
    H22      H        0.92540    0.91780    0.29470    1.000
    C61      C        0.01100    0.80050    0.28570    1.000
    H23      H        0.00930    0.75870    0.27950    1.000
    C62      C        0.95850    0.83410    0.28690    1.000
    C63      C        0.01570    0.92270    0.30130    1.000
    C64      C        0.06820    0.88960    0.30140    1.000
    H24      H        0.10560    0.90870    0.30690    1.000
    O36      O        0.12800    0.60710    0.26120    1.000
    N8       N        0.02290    0.98620    0.30430    1.000
    O37      O        0.12143    0.74070    0.27950    1.000
    O38      O        0.16775    0.82450    0.31000    1.000
    O39      O        0.85414    0.83720    0.29390    1.000
    O40      O        0.89670    0.75246    0.26130    1.000
    Cl8      Cl       0.11220    0.60440    0.26280    1.000
    In9      In       0.73929    0.80642    0.67769    1.000
    C65      C        0.72000    0.10150    0.80510    1.000
    C66      C        0.70530    0.87710    0.79490    1.000
    C67      C        0.70640    0.93460    0.82850    1.000
    C68      C        0.70570    0.03900    0.89490    1.000
    H25      H        0.70530    0.07460    0.91780    1.000
    C69      C        0.71430    0.98900    0.80050    1.000
    H26      H        0.72050    0.99070    0.75870    1.000
    C70      C        0.71310    0.04150    0.83410    1.000
    C71      C        0.69870    0.98430    0.92270    1.000
    C72      C        0.69860    0.93180    0.88960    1.000
    H27      H        0.69310    0.89440    0.90870    1.000
    O41      O        0.73880    0.87200    0.60710    1.000
    N9       N        0.69570    0.97710    0.98620    1.000
    O42      O        0.72050    0.87857    0.74070    1.000
    O43      O        0.69000    0.83225    0.82450    1.000
    O44      O        0.70610    0.14586    0.83720    1.000
    O45      O        0.73870    0.10330    0.75246    1.000
    Cl9      Cl       0.73720    0.88780    0.60440    1.000
    In10     In       0.26071    0.80642    0.32231    1.000
    C73      C        0.28000    0.10150    0.19490    1.000
    C74      C        0.29470    0.87710    0.20510    1.000
    C75      C        0.29360    0.93460    0.17150    1.000
    C76      C        0.29430    0.03900    0.10510    1.000
    H28      H        0.29470    0.07460    0.08220    1.000
    C77      C        0.28570    0.98900    0.19950    1.000
    H29      H        0.27950    0.99070    0.24130    1.000
    C78      C        0.28690    0.04150    0.16590    1.000
    C79      C        0.30130    0.98430    0.07730    1.000
    C80      C        0.30140    0.93180    0.11040    1.000
    H30      H        0.30690    0.89440    0.09130    1.000
    O46      O        0.26120    0.87200    0.39290    1.000
    N10      N        0.30430    0.97710    0.01380    1.000
    O47      O        0.27950    0.87857    0.25930    1.000
    O48      O        0.31000    0.83225    0.17550    1.000
    O49      O        0.29390    0.14586    0.16280    1.000
    O50      O        0.26130    0.10330    0.24754    1.000
    Cl10     Cl       0.26280    0.88780    0.39560    1.000
    In11     In       0.73929    0.19358    0.32231    1.000
    C81      C        0.72000    0.89850    0.19490    1.000
    C82      C        0.70530    0.12290    0.20510    1.000
    C83      C        0.70640    0.06540    0.17150    1.000
    C84      C        0.70570    0.96100    0.10510    1.000
    H31      H        0.70530    0.92540    0.08220    1.000
    C85      C        0.71430    0.01100    0.19950    1.000
    H32      H        0.72050    0.00930    0.24130    1.000
    C86      C        0.71310    0.95850    0.16590    1.000
    C87      C        0.69870    0.01570    0.07730    1.000
    C88      C        0.69860    0.06820    0.11040    1.000
    H33      H        0.69310    0.10560    0.09130    1.000
    O51      O        0.73880    0.12800    0.39290    1.000
    N11      N        0.69570    0.02290    0.01380    1.000
    O52      O        0.72050    0.12143    0.25930    1.000
    O53      O        0.69000    0.16775    0.17550    1.000
    O54      O        0.70610    0.85414    0.16280    1.000
    O55      O        0.73870    0.89670    0.24754    1.000
    Cl11     Cl       0.73720    0.11220    0.39560    1.000
    In12     In       0.26071    0.19358    0.67769    1.000
    C89      C        0.28000    0.89850    0.80510    1.000
    C90      C        0.29470    0.12290    0.79490    1.000
    C91      C        0.29360    0.06540    0.82850    1.000
    C92      C        0.29430    0.96100    0.89490    1.000
    H34      H        0.29470    0.92540    0.91780    1.000
    C93      C        0.28570    0.01100    0.80050    1.000
    H35      H        0.27950    0.00930    0.75870    1.000
    C94      C        0.28690    0.95850    0.83410    1.000
    C95      C        0.30130    0.01570    0.92270    1.000
    C96      C        0.30140    0.06820    0.88960    1.000
    H36      H        0.30690    0.10560    0.90870    1.000
    O56      O        0.26120    0.12800    0.60710    1.000
    N12      N        0.30430    0.02290    0.98620    1.000
    O57      O        0.27950    0.12143    0.74070    1.000
    O58      O        0.31000    0.16775    0.82450    1.000
    O59      O        0.29390    0.85414    0.83720    1.000
    O60      O        0.26130    0.89670    0.75246    1.000
    Cl12     Cl       0.26280    0.11220    0.60440    1.000
    In13     In       0.23929    0.17769    0.30642    1.000
    C97      C        0.22000    0.30510    0.60150    1.000
    C98      C        0.20530    0.29490    0.37710    1.000
    C99      C        0.20640    0.32850    0.43460    1.000
    C100     C        0.20570    0.39490    0.53900    1.000
    H37      H        0.20530    0.41780    0.57460    1.000
    C101     C        0.21430    0.30050    0.48900    1.000
    H38      H        0.22050    0.25870    0.49070    1.000
    C102     C        0.21310    0.33410    0.54150    1.000
    C103     C        0.19870    0.42270    0.48430    1.000
    C104     C        0.19860    0.38960    0.43180    1.000
    H39      H        0.19310    0.40870    0.39440    1.000
    O61      O        0.23880    0.10710    0.37200    1.000
    N13      N        0.19570    0.48620    0.47710    1.000
    O62      O        0.22050    0.24070    0.37857    1.000
    O63      O        0.19000    0.32450    0.33225    1.000
    O64      O        0.20610    0.33720    0.64586    1.000
    O65      O        0.23870    0.25246    0.60330    1.000
    Cl13     Cl       0.23720    0.10440    0.38780    1.000
    In14     In       0.76071    0.82231    0.30642    1.000
    C105     C        0.78000    0.69490    0.60150    1.000
    C106     C        0.79470    0.70510    0.37710    1.000
    C107     C        0.79360    0.67150    0.43460    1.000
    C108     C        0.79430    0.60510    0.53900    1.000
    H40      H        0.79470    0.58220    0.57460    1.000
    C109     C        0.78570    0.69950    0.48900    1.000
    H41      H        0.77950    0.74130    0.49070    1.000
    C110     C        0.78690    0.66590    0.54150    1.000
    C111     C        0.80130    0.57730    0.48430    1.000
    C112     C        0.80140    0.61040    0.43180    1.000
    H42      H        0.80690    0.59130    0.39440    1.000
    O66      O        0.76120    0.89290    0.37200    1.000
    N14      N        0.80430    0.51380    0.47710    1.000
    O67      O        0.77950    0.75930    0.37857    1.000
    O68      O        0.81000    0.67550    0.33225    1.000
    O69      O        0.79390    0.66280    0.64586    1.000
    O70      O        0.76130    0.74754    0.60330    1.000
    Cl14     Cl       0.76280    0.89560    0.38780    1.000
    In15     In       0.23929    0.82231    0.69358    1.000
    C113     C        0.22000    0.69490    0.39850    1.000
    C114     C        0.20530    0.70510    0.62290    1.000
    C115     C        0.20640    0.67150    0.56540    1.000
    C116     C        0.20570    0.60510    0.46100    1.000
    H43      H        0.20530    0.58220    0.42540    1.000
    C117     C        0.21430    0.69950    0.51100    1.000
    H44      H        0.22050    0.74130    0.50930    1.000
    C118     C        0.21310    0.66590    0.45850    1.000
    C119     C        0.19870    0.57730    0.51570    1.000
    C120     C        0.19860    0.61040    0.56820    1.000
    H45      H        0.19310    0.59130    0.60560    1.000
    O71      O        0.23880    0.89290    0.62800    1.000
    N15      N        0.19570    0.51380    0.52290    1.000
    O72      O        0.22050    0.75930    0.62143    1.000
    O73      O        0.19000    0.67550    0.66775    1.000
    O74      O        0.20610    0.66280    0.35414    1.000
    O75      O        0.23870    0.74754    0.39670    1.000
    Cl15     Cl       0.23720    0.89560    0.61220    1.000
    In16     In       0.76071    0.17769    0.69358    1.000
    C121     C        0.78000    0.30510    0.39850    1.000
    C122     C        0.79470    0.29490    0.62290    1.000
    C123     C        0.79360    0.32850    0.56540    1.000
    C124     C        0.79430    0.39490    0.46100    1.000
    H46      H        0.79470    0.41780    0.42540    1.000
    C125     C        0.78570    0.30050    0.51100    1.000
    H47      H        0.77950    0.25870    0.50930    1.000
    C126     C        0.78690    0.33410    0.45850    1.000
    C127     C        0.80130    0.42270    0.51570    1.000
    C128     C        0.80140    0.38960    0.56820    1.000
    H48      H        0.80690    0.40870    0.60560    1.000
    O76      O        0.76120    0.10710    0.62800    1.000
    N16      N        0.80430    0.48620    0.52290    1.000
    O77      O        0.77950    0.24070    0.62143    1.000
    O78      O        0.81000    0.32450    0.66775    1.000
    O79      O        0.79390    0.33720    0.35414    1.000
    O80      O        0.76130    0.25246    0.39670    1.000
    Cl16     Cl       0.76280    0.10440    0.61220    1.000
    In17     In       0.17769    0.30642    0.23929    1.000
    C129     C        0.30510    0.60150    0.22000    1.000
    C130     C        0.29490    0.37710    0.20530    1.000
    C131     C        0.32850    0.43460    0.20640    1.000
    C132     C        0.39490    0.53900    0.20570    1.000
    H49      H        0.41780    0.57460    0.20530    1.000
    C133     C        0.30050    0.48900    0.21430    1.000
    H50      H        0.25870    0.49070    0.22050    1.000
    C134     C        0.33410    0.54150    0.21310    1.000
    C135     C        0.42270    0.48430    0.19870    1.000
    C136     C        0.38960    0.43180    0.19860    1.000
    H51      H        0.40870    0.39440    0.19310    1.000
    O81      O        0.10710    0.37200    0.23880    1.000
    N17      N        0.48620    0.47710    0.19570    1.000
    O82      O        0.24070    0.37857    0.22050    1.000
    O83      O        0.32450    0.33225    0.19000    1.000
    O84      O        0.33720    0.64586    0.20610    1.000
    O85      O        0.25246    0.60330    0.23870    1.000
    Cl17     Cl       0.10440    0.38780    0.23720    1.000
    In18     In       0.82231    0.30642    0.76071    1.000
    C137     C        0.69490    0.60150    0.78000    1.000
    C138     C        0.70510    0.37710    0.79470    1.000
    C139     C        0.67150    0.43460    0.79360    1.000
    C140     C        0.60510    0.53900    0.79430    1.000
    H52      H        0.58220    0.57460    0.79470    1.000
    C141     C        0.69950    0.48900    0.78570    1.000
    H53      H        0.74130    0.49070    0.77950    1.000
    C142     C        0.66590    0.54150    0.78690    1.000
    C143     C        0.57730    0.48430    0.80130    1.000
    C144     C        0.61040    0.43180    0.80140    1.000
    H54      H        0.59130    0.39440    0.80690    1.000
    O86      O        0.89290    0.37200    0.76120    1.000
    N18      N        0.51380    0.47710    0.80430    1.000
    O87      O        0.75930    0.37857    0.77950    1.000
    O88      O        0.67550    0.33225    0.81000    1.000
    O89      O        0.66280    0.64586    0.79390    1.000
    O90      O        0.74754    0.60330    0.76130    1.000
    Cl18     Cl       0.89560    0.38780    0.76280    1.000
    In19     In       0.82231    0.69358    0.23929    1.000
    C145     C        0.69490    0.39850    0.22000    1.000
    C146     C        0.70510    0.62290    0.20530    1.000
    C147     C        0.67150    0.56540    0.20640    1.000
    C148     C        0.60510    0.46100    0.20570    1.000
    H55      H        0.58220    0.42540    0.20530    1.000
    C149     C        0.69950    0.51100    0.21430    1.000
    H56      H        0.74130    0.50930    0.22050    1.000
    C150     C        0.66590    0.45850    0.21310    1.000
    C151     C        0.57730    0.51570    0.19870    1.000
    C152     C        0.61040    0.56820    0.19860    1.000
    H57      H        0.59130    0.60560    0.19310    1.000
    O91      O        0.89290    0.62800    0.23880    1.000
    N19      N        0.51380    0.52290    0.19570    1.000
    O92      O        0.75930    0.62143    0.22050    1.000
    O93      O        0.67550    0.66775    0.19000    1.000
    O94      O        0.66280    0.35414    0.20610    1.000
    O95      O        0.74754    0.39670    0.23870    1.000
    Cl19     Cl       0.89560    0.61220    0.23720    1.000
    In20     In       0.17769    0.69358    0.76071    1.000
    C153     C        0.30510    0.39850    0.78000    1.000
    C154     C        0.29490    0.62290    0.79470    1.000
    C155     C        0.32850    0.56540    0.79360    1.000
    C156     C        0.39490    0.46100    0.79430    1.000
    H58      H        0.41780    0.42540    0.79470    1.000
    C157     C        0.30050    0.51100    0.78570    1.000
    H59      H        0.25870    0.50930    0.77950    1.000
    C158     C        0.33410    0.45850    0.78690    1.000
    C159     C        0.42270    0.51570    0.80130    1.000
    C160     C        0.38960    0.56820    0.80140    1.000
    H60      H        0.40870    0.60560    0.80690    1.000
    O96      O        0.10710    0.62800    0.76120    1.000
    N20      N        0.48620    0.52290    0.80430    1.000
    O97      O        0.24070    0.62143    0.77950    1.000
    O98      O        0.32450    0.66775    0.81000    1.000
    O99      O        0.33720    0.35414    0.79390    1.000
    O100     O        0.25246    0.39670    0.76130    1.000
    Cl20     Cl       0.10440    0.61220    0.76280    1.000
    In21     In       0.30642    0.23929    0.17769    1.000
    C161     C        0.60150    0.22000    0.30510    1.000
    C162     C        0.37710    0.20530    0.29490    1.000
    C163     C        0.43460    0.20640    0.32850    1.000
    C164     C        0.53900    0.20570    0.39490    1.000
    H61      H        0.57460    0.20530    0.41780    1.000
    C165     C        0.48900    0.21430    0.30050    1.000
    H62      H        0.49070    0.22050    0.25870    1.000
    C166     C        0.54150    0.21310    0.33410    1.000
    C167     C        0.48430    0.19870    0.42270    1.000
    C168     C        0.43180    0.19860    0.38960    1.000
    H63      H        0.39440    0.19310    0.40870    1.000
    O101     O        0.37200    0.23880    0.10710    1.000
    N21      N        0.47710    0.19570    0.48620    1.000
    O102     O        0.37857    0.22050    0.24070    1.000
    O103     O        0.33225    0.19000    0.32450    1.000
    O104     O        0.64586    0.20610    0.33720    1.000
    O105     O        0.60330    0.23870    0.25246    1.000
    Cl21     Cl       0.38780    0.23720    0.10440    1.000
    In22     In       0.30642    0.76071    0.82231    1.000
    C169     C        0.60150    0.78000    0.69490    1.000
    C170     C        0.37710    0.79470    0.70510    1.000
    C171     C        0.43460    0.79360    0.67150    1.000
    C172     C        0.53900    0.79430    0.60510    1.000
    H64      H        0.57460    0.79470    0.58220    1.000
    C173     C        0.48900    0.78570    0.69950    1.000
    H65      H        0.49070    0.77950    0.74130    1.000
    C174     C        0.54150    0.78690    0.66590    1.000
    C175     C        0.48430    0.80130    0.57730    1.000
    C176     C        0.43180    0.80140    0.61040    1.000
    H66      H        0.39440    0.80690    0.59130    1.000
    O106     O        0.37200    0.76120    0.89290    1.000
    N22      N        0.47710    0.80430    0.51380    1.000
    O107     O        0.37857    0.77950    0.75930    1.000
    O108     O        0.33225    0.81000    0.67550    1.000
    O109     O        0.64586    0.79390    0.66280    1.000
    O110     O        0.60330    0.76130    0.74754    1.000
    Cl22     Cl       0.38780    0.76280    0.89560    1.000
    In23     In       0.69358    0.23929    0.82231    1.000
    C177     C        0.39850    0.22000    0.69490    1.000
    C178     C        0.62290    0.20530    0.70510    1.000
    C179     C        0.56540    0.20640    0.67150    1.000
    C180     C        0.46100    0.20570    0.60510    1.000
    H67      H        0.42540    0.20530    0.58220    1.000
    C181     C        0.51100    0.21430    0.69950    1.000
    H68      H        0.50930    0.22050    0.74130    1.000
    C182     C        0.45850    0.21310    0.66590    1.000
    C183     C        0.51570    0.19870    0.57730    1.000
    C184     C        0.56820    0.19860    0.61040    1.000
    H69      H        0.60560    0.19310    0.59130    1.000
    O111     O        0.62800    0.23880    0.89290    1.000
    N23      N        0.52290    0.19570    0.51380    1.000
    O112     O        0.62143    0.22050    0.75930    1.000
    O113     O        0.66775    0.19000    0.67550    1.000
    O114     O        0.35414    0.20610    0.66280    1.000
    O115     O        0.39670    0.23870    0.74754    1.000
    Cl23     Cl       0.61220    0.23720    0.89560    1.000
    In24     In       0.69358    0.76071    0.17769    1.000
    C185     C        0.39850    0.78000    0.30510    1.000
    C186     C        0.62290    0.79470    0.29490    1.000
    C187     C        0.56540    0.79360    0.32850    1.000
    C188     C        0.46100    0.79430    0.39490    1.000
    H70      H        0.42540    0.79470    0.41780    1.000
    C189     C        0.51100    0.78570    0.30050    1.000
    H71      H        0.50930    0.77950    0.25870    1.000
    C190     C        0.45850    0.78690    0.33410    1.000
    C191     C        0.51570    0.80130    0.42270    1.000
    C192     C        0.56820    0.80140    0.38960    1.000
    H72      H        0.60560    0.80690    0.40870    1.000
    O116     O        0.62800    0.76120    0.10710    1.000
    N24      N        0.52290    0.80430    0.48620    1.000
    O117     O        0.62143    0.77950    0.24070    1.000
    O118     O        0.66775    0.81000    0.32450    1.000
    O119     O        0.35414    0.79390    0.33720    1.000
    O120     O        0.39670    0.76130    0.25246    1.000
    Cl24     Cl       0.61220    0.76280    0.10440    1.000
    O121     O        0.74030    0.74030    0.74030    1.000
    O122     O        0.25970    0.25970    0.74030    1.000
    O123     O        0.25970    0.74030    0.25970    1.000
    O124     O        0.74030    0.25970    0.25970    1.000
    O125     O        0.24030    0.24030    0.24030    1.000
    O126     O        0.75970    0.75970    0.24030    1.000
    O127     O        0.24030    0.75970    0.75970    1.000
    O128     O        0.75970    0.24030    0.75970    1.000
