data_functionalizedCrystal
_audit_creation_method	'EQeq! by Chris Wilmer'
_symmetry_space_group_name_H-M	'P1'
_symmetry_Int_Tables_number	1
_symmetry_cell_setting	triclinic
loop_
_symmetry_equiv_pos_as_xyz
  x,y,z
_cell_length_a	8.497
_cell_length_b	9.49
_cell_length_c	14.135
_cell_angle_alpha	80.55
_cell_angle_beta	88.56
_cell_angle_gamma	73.51
loop_
_atom_site_label
_atom_site_type_symbol
_atom_site_fract_x
_atom_site_fract_y
_atom_site_fract_z
_atom_site_charge
Mof_Cu	Cu	0.55652	0.64415	0.14309	0.93
Mof_Cu	Cu	0.51539	0.79844	0.90222	0.935
Mof_Cu	Cu	0.44348	0.35585	0.85691	0.93
Mof_Cu	Cu	0.48461	0.20156	0.09778	0.935
Mof_H 	H 	0.0636	0.9002	0.174	0.057
Mof_H 	H 	0.966	0.3771	0.0102	0.039
Mof_H 	H 	0.5799	0.3722	0.2894	0.011
Mof_H 	H 	0.4572	0.3039	0.4285	0.097
Mof_H 	H 	0.2233	0.7339	0.4272	0.099
Mof_H 	H 	0.3507	0.7914	0.2882	0.003
Mof_H 	H 	0.9088	0.7782	0.6392	0.098
Mof_H 	H 	0.699	0.8841	0.7331	-0
Mof_H 	H 	0.7318	0.5007	0.893	-0.003
Mof_H 	H 	0.9349	0.383	0.7994	0.099
Mof_H 	H 	0.1408	0.2812	0.6958	0.148
Mof_H 	H 	0.9364	0.0998	0.826	0.057
Mof_H 	H 	0.034	0.6229	0.9898	0.039
Mof_H 	H 	0.4201	0.6278	0.7106	0.011
Mof_H 	H 	0.5428	0.6961	0.5715	0.097
Mof_H 	H 	0.7767	0.2661	0.5728	0.099
Mof_H 	H 	0.6493	0.2086	0.7118	0.003
Mof_H 	H 	0.0912	0.2218	0.3608	0.098
Mof_H 	H 	0.301	0.1159	0.2669	-0
Mof_H 	H 	0.2682	0.4993	0.107	-0.003
Mof_H 	H 	0.0651	0.617	0.2006	0.099
Mof_H 	H 	0.8592	0.7188	0.3042	0.148
Mof_C 	C 	0.3025	0.9101	0.0528	0.356
Mof_C 	C 	0.1544	0.0294	0.0725	-0.066
Mof_C 	C 	0.0409	0.9956	0.1387	-0
Mof_C 	C 	0.895	0.1004	0.1532	-0.049
Mof_C 	C 	0.8678	0.2458	0.1047	-0.069
Mof_C 	C 	0.9836	0.2794	0.0411	0.014
Mof_C 	C 	0.1243	0.1732	0.0219	-0.07
Mof_C 	C 	0.2348	0.2236	0.9471	0.335
Mof_C 	C 	0.7754	0.0505	0.2235	0.326
Mof_C 	C 	0.7219	0.375	0.1155	0.327
Mof_C 	C 	0.5054	0.4458	0.317	0.089
Mof_C 	C 	0.4325	0.4036	0.4006	-0.138
Mof_C 	C 	0.3222	0.5113	0.4426	0.075
Mof_C 	C 	0.2941	0.6582	0.3996	-0.141
Mof_C 	C 	0.3711	0.6919	0.3162	0.094
Mof_C 	C 	0.2342	0.4742	0.5297	0.093
Mof_C 	C 	0.0718	0.5005	0.6431	0.112
Mof_C 	C 	0.9446	0.5663	0.7082	0.072
Mof_C 	C 	0.8732	0.7194	0.6895	-0.134
Mof_C 	C 	0.7489	0.7821	0.7471	0.093
Mof_C 	C 	0.7668	0.5566	0.8407	0.087
Mof_C 	C 	0.8893	0.4856	0.7851	-0.134
Mof_C 	C 	0.6975	0.0899	0.9472	0.356
Mof_C 	C 	0.8456	0.9706	0.9275	-0.066
Mof_C 	C 	0.9591	0.0044	0.8613	-0
Mof_C 	C 	0.105	0.8996	0.8468	-0.049
Mof_C 	C 	0.1322	0.7542	0.8953	-0.069
Mof_C 	C 	0.0164	0.7206	0.9589	0.014
Mof_C 	C 	0.8757	0.8268	0.9781	-0.07
Mof_C 	C 	0.7652	0.7764	0.0529	0.335
Mof_C 	C 	0.2246	0.9495	0.7765	0.326
Mof_C 	C 	0.2781	0.625	0.8845	0.327
Mof_C 	C 	0.4946	0.5542	0.683	0.089
Mof_C 	C 	0.5675	0.5964	0.5994	-0.138
Mof_C 	C 	0.6778	0.4887	0.5574	0.075
Mof_C 	C 	0.7059	0.3418	0.6004	-0.141
Mof_C 	C 	0.6289	0.3081	0.6838	0.094
Mof_C 	C 	0.7658	0.5258	0.4703	0.093
Mof_C 	C 	0.9282	0.4995	0.3569	0.112
Mof_C 	C 	0.0554	0.4337	0.2918	0.072
Mof_C 	C 	0.1268	0.2806	0.3105	-0.134
Mof_C 	C 	0.2511	0.2179	0.2529	0.093
Mof_C 	C 	0.2332	0.4434	0.1593	0.087
Mof_C 	C 	0.1107	0.5144	0.2149	-0.134
Mof_N 	N 	0.4744	0.5879	0.273	-0.22
Mof_N 	N 	0.1211	0.5789	0.568	-0.128
Mof_N 	N 	0.2572	0.3371	0.5757	-0.077
Mof_N 	N 	0.1519	0.3556	0.649	-0.16
Mof_N 	N 	0.6965	0.7036	0.8219	-0.222
Mof_N 	N 	0.5256	0.4121	0.727	-0.22
Mof_N 	N 	0.8789	0.4211	0.432	-0.128
Mof_N 	N 	0.7428	0.6629	0.4243	-0.077
Mof_N 	N 	0.8481	0.6444	0.351	-0.16
Mof_N 	N 	0.3035	0.2964	0.1781	-0.222
Mof_O 	O 	0.3483	0.7959	0.1152	-0.417
Mof_O 	O 	0.3665	0.9347	0.9734	-0.403
Mof_O 	O 	0.3469	0.2762	0.9771	-0.47
Mof_O 	O 	0.2113	0.2295	0.8622	-0.305
Mof_O 	O 	0.6219	0.1146	0.2127	-0.37
Mof_O 	O 	0.8354	0.9484	0.2899	-0.243
Mof_O 	O 	0.7487	0.4713	0.1595	-0.372
Mof_O 	O 	0.587	0.3885	0.0774	-0.398
Mof_O 	O 	0.6517	0.2041	0.8848	-0.417
Mof_O 	O 	0.6335	0.0653	0.0266	-0.403
Mof_O 	O 	0.6531	0.7238	0.0229	-0.47
Mof_O 	O 	0.7887	0.7705	0.1378	-0.305
Mof_O 	O 	0.3781	0.8854	0.7873	-0.37
Mof_O 	O 	0.1646	0.0516	0.7101	-0.243
Mof_O 	O 	0.2513	0.5287	0.8405	-0.372
Mof_O 	O 	0.413	0.6115	0.9226	-0.398
_end
