data_functionalizedCrystal
_audit_creation_method	'EQeq! by Chris Wilmer'
_symmetry_space_group_name_H-M	'P1'
_symmetry_Int_Tables_number	1
_symmetry_cell_setting	triclinic
loop_
_symmetry_equiv_pos_as_xyz
  x,y,z
_cell_length_a	50.824
_cell_length_b	11.369
_cell_length_c	17.604
_cell_angle_alpha	90
_cell_angle_beta	90
_cell_angle_gamma	90
loop_
_atom_site_label
_atom_site_type_symbol
_atom_site_fract_x
_atom_site_fract_y
_atom_site_fract_z
_atom_site_charge
Mof_C 	C 	0.5094	0.5708	0.4228	0.545
Mof_C 	C 	0.4982	0.5309	0.3496	-0.181
Mof_C 	C 	0.474	0.5547	0.3226	0.027
Mof_H 	H 	0.4618	0.5998	0.3489	0.016
Mof_C 	C 	0.469	0.5046	0.2506	-0.013
Mof_H 	H 	0.4532	0.5111	0.2247	0.033
Mof_C 	C 	0.4902	0.4466	0.2246	-0.161
Mof_C 	C 	0.4922	0.3845	0.1513	0.478
Mof_C 	C 	0.5494	0.8205	0.4145	0.467
Mof_C 	C 	0.5454	0.9032	0.3498	-0.162
Mof_C 	C 	0.5252	0.9768	0.3364	0.017
Mof_H 	H 	0.5109	0.9854	0.3689	-0.007
Mof_C 	C 	0.5281	0.0396	0.268	-0.006
Mof_H 	H 	0.5161	0.0953	0.2507	0.033
Mof_C 	C 	0.5503	0.0095	0.2303	-0.162
Mof_C 	C 	0.5587	0.0565	0.1554	0.491
Mof_C 	C 	0.5471	0.8601	0.6404	0.538
Mof_C 	C 	0.556	0.9131	0.7117	-0.189
Mof_C 	C 	0.5794	0.8995	0.7459	0.051
Mof_H 	H 	0.5935	0.8593	0.7242	0.012
Mof_C 	C 	0.5805	0.9521	0.8174	-0.037
Mof_H 	H 	0.595	0.9471	0.8494	0.05
Mof_C 	C 	0.5582	0.0111	0.8356	-0.094
Mof_C 	C 	0.5517	0.0674	0.9097	0.413
Mof_C 	C 	0.6099	0.5309	0.4057	0.556
Mof_C 	C 	0.6045	0.4702	0.3317	-0.18
Mof_C 	C 	0.5828	0.4108	0.3119	0.032
Mof_H 	H 	0.5679	0.4075	0.3422	0.016
Mof_C 	C 	0.5847	0.3536	0.2411	-0.026
Mof_H 	H 	0.5714	0.3079	0.2197	0.039
Mof_C 	C 	0.60819	0.374	0.2085	-0.133
Mof_C 	C 	0.6193	0.3239	0.1366	0.421
Mof_C 	C 	0.6067	0.5198	0.6502	0.575
Mof_C 	C 	0.6144	0.4711	0.7248	-0.201
Mof_C 	C 	0.6374	0.4935	0.7599	0.057
Mof_H 	H 	0.65	0.5441	0.7401	0.01
Mof_C 	C 	0.6406	0.4337	0.8289	-0.028
Mof_H 	H 	0.6555	0.4406	0.8595	0.053
Mof_C 	C 	0.61977	0.3649	0.8459	-0.102
Mof_C 	C 	0.6168	0.2884	0.9114	0.391
Mof_C 	C 	0.6722	0.8698	0.4117	0.519
Mof_C 	C 	0.6622	0.9216	0.3394	-0.165
Mof_C 	C 	0.6383	0.9	0.3071	0.002
Mof_H 	H 	0.6253	0.8533	0.3288	0.026
Mof_C 	C 	0.6358	0.958	0.2358	-0.001
Mof_H 	H 	0.6207	0.9546	0.2058	0.012
Mof_C 	C 	0.6575	0.0184	0.2166	-0.156
Mof_C 	C 	0.6625	0.0875	0.1473	0.433
Mof_C 	C 	0.7128	0.5818	0.6333	0.523
Mof_C 	C 	0.7229	0.5347	0.7061	-0.171
Mof_C 	C 	0.7476	0.5462	0.7353	0.027
Mof_H 	H 	0.7612	0.5857	0.7112	0.023
Mof_C 	C 	0.7498	0.491	0.8067	-0.007
Mof_H 	H 	0.7653	0.4879	0.8345	0.049
Mof_C 	C 	0.7271	0.4433	0.8303	-0.118
Mof_C 	C 	0.7215	0.388	0.9059	0.454
Mof_C 	C 	0.7148	0.6253	0.4092	0.489
Mof_C 	C 	0.71142	0.5454	0.3444	-0.181
Mof_C 	C 	0.6903	0.4785	0.3281	0.033
Mof_H 	H 	0.6754	0.4739	0.3586	-0.016
Mof_C 	C 	0.6933	0.4168	0.2596	-0.019
Mof_H 	H 	0.6805	0.3675	0.2395	0.04
Mof_C 	C 	0.7168	0.436	0.2261	-0.152
Mof_C 	C 	0.7254	0.3895	0.1507	0.489
Mof_C 	C 	0.6591	0.0428	0.9085	0.434
Mof_C 	C 	0.6691	0.9958	0.8337	-0.115
Mof_C 	C 	0.6931	0.0156	0.8022	-0.014
Mof_H 	H 	0.706	0.0626	0.8238	0.056
Mof_C 	C 	0.6957	0.9565	0.7331	0.032
Mof_H 	H 	0.711	0.9588	0.7039	-0.002
Mof_C 	C 	0.6737	0.8947	0.7127	-0.183
Mof_C 	C 	0.6694	0.8244	0.6437	0.506
Mof_O 	O 	0.53284	0.5414	0.4381	-0.617
Mof_O 	O 	0.49457	0.6302	0.4631	-0.633
Mof_O 	O 	0.51274	0.3286	0.1388	-0.509
Mof_O 	O 	0.47329	0.3915	0.1055	-0.631
Mof_O 	O 	0.53138	0.8068	0.4616	-0.682
Mof_O 	O 	0.57068	0.7659	0.4179	-0.574
Mof_O 	O 	0.54218	0.1115	0.1183	-0.577
Mof_O 	O 	0.58155	0.0342	0.134	-0.54
Mof_O 	O 	0.52354	0.8727	0.6223	-0.587
Mof_O 	O 	0.56435	0.8043	0.6032	-0.644
Mof_O 	O 	0.5317	0.1322	0.9124	-0.394
Mof_O 	O 	0.56638	0.0426	0.9647	-0.386
Mof_O 	O 	0.59222	0.5219	0.4544	-0.668
Mof_O 	O 	0.63132	0.5818	0.4128	-0.605
Mof_O 	O 	0.60246	0.2675	0.0958	-0.53
Mof_O 	O 	0.64288	0.3366	0.1224	-0.504
Mof_O 	O 	0.58269	0.5268	0.6325	-0.605
Mof_O 	O 	0.62501	0.5494	0.6079	-0.672
Mof_O 	O 	0.60934	0.7481	0.5259	-1.071
Mof_O 	O 	0.6358	0.2712	0.9559	-0.399
Mof_O 	O 	0.6562	0.8156	0.4517	-0.607
Mof_O 	O 	0.696	0.8898	0.4271	-0.593
Mof_O 	O 	0.64502	0.0882	0.0957	-0.617
Mof_O 	O 	0.6835	0.1423	0.1401	-0.482
Mof_O 	O 	0.68878	0.5649	0.6185	-0.592
Mof_O 	O 	0.72883	0.6368	0.5929	-0.613
Mof_O 	O 	0.70066	0.3354	0.9156	-0.413
Mof_O 	O 	0.73933	0.4032	0.9547	-0.399
Mof_O 	O 	0.69594	0.6381	0.4555	-0.702
Mof_O 	O 	0.73614	0.6783	0.4178	-0.546
Mof_O 	O 	0.74865	0.3788	0.1356	-0.549
Mof_O 	O 	0.70641	0.3686	0.1061	-0.589
Mof_O 	O 	0.63584	0.0203	0.9257	-0.403
Mof_O 	O 	0.67583	0.0983	0.9475	-0.362
Mof_O 	O 	0.64751	0.7752	0.6361	-0.554
Mof_O 	O 	0.68751	0.8137	0.5967	-0.72
Mof_O 	O 	0.59496	0.2373	0.9215	-0.343
Mof_S 	S 	0.51559	0.4478	0.28661	0.075
Mof_S 	S 	0.56831	0.9091	0.27872	0.055
Mof_S 	S 	0.53591	0.9992	0.76496	0.066
Mof_S 	S 	0.62824	0.4606	0.2631	0.046
Mof_S 	S 	0.59562	0.3763	0.77784	0.087
Mof_S 	S 	0.68146	0.0097	0.28439	0.063
Mof_S 	S 	0.70256	0.4583	0.76526	0.078
Mof_S 	S 	0.73567	0.5305	0.27784	0.053
Mof_S 	S 	0.64969	0.9085	0.77923	0.091
Mof_Nd	Nd	0.4888	0.80697	0.53209	2.425
Mof_Nd	Nd	0.56276	0.6347	0.52607	2.809
Mof_Nd	Nd	0.65574	0.63834	0.52713	2.624
Mof_Nd	Nd	0.7269	0.81775	0.52384	2.515
Mof_Nd	Nd	0.6061	0.09001	0.02216	1.641
Mof_Nd	Nd	0.6766	0.26959	0.02743	1.627
Mof_H 	H 	0.6135	0.778	0.568	0.395
Mof_H 	H 	0.6063	0.802	0.494	0.413
Mof_C 	C 	0.4906	0.4292	0.9228	0.444
Mof_C 	C 	0.5018	0.4691	0.8496	-0.112
Mof_C 	C 	0.526	0.4453	0.8226	-0.018
Mof_H 	H 	0.5382	0.4002	0.8489	0.061
Mof_C 	C 	0.531	0.4954	0.7506	0.044
Mof_H 	H 	0.5468	0.4889	0.7247	0.019
Mof_C 	C 	0.5098	0.5534	0.7246	-0.191
Mof_C 	C 	0.5078	0.6155	0.6513	0.556
Mof_C 	C 	0.4506	0.1795	0.9145	0.394
Mof_C 	C 	0.4546	0.0968	0.8498	-0.101
Mof_C 	C 	0.4748	0.0232	0.8364	-0.014
Mof_H 	H 	0.4891	0.0146	0.8689	0.051
Mof_C 	C 	0.4719	0.9604	0.768	0.04
Mof_H 	H 	0.4839	0.9047	0.7507	0.018
Mof_C 	C 	0.4497	0.9905	0.7303	-0.205
Mof_C 	C 	0.4413	0.9435	0.6554	0.584
Mof_C 	C 	0.4529	0.1399	0.1404	0.459
Mof_C 	C 	0.444	0.0869	0.2117	-0.161
Mof_C 	C 	0.4206	0.1005	0.2459	-0.016
Mof_H 	H 	0.4065	0.1407	0.2242	0.025
Mof_C 	C 	0.4195	0.0479	0.3174	0.036
Mof_H 	H 	0.405	0.0529	0.3494	-0.011
Mof_C 	C 	0.4418	0.9889	0.3356	-0.188
Mof_C 	C 	0.4483	0.9326	0.4097	0.516
Mof_C 	C 	0.3901	0.4691	0.9057	0.462
Mof_C 	C 	0.3955	0.5298	0.8317	-0.118
Mof_C 	C 	0.4172	0.5892	0.8119	-0.008
Mof_H 	H 	0.4321	0.5925	0.8422	0.055
Mof_C 	C 	0.4153	0.6464	0.7411	0.024
Mof_H 	H 	0.4286	0.6921	0.7197	0.026
Mof_C 	C 	0.39181	0.626	0.7085	-0.156
Mof_C 	C 	0.3807	0.6761	0.6366	0.49
Mof_C 	C 	0.3933	0.4802	0.1502	0.491
Mof_C 	C 	0.3856	0.5289	0.2248	-0.166
Mof_C 	C 	0.3626	0.5065	0.2599	-0.007
Mof_H 	H 	0.35	0.4559	0.2401	0.031
Mof_C 	C 	0.3594	0.5663	0.3289	0.019
Mof_H 	H 	0.3445	0.5594	0.3595	-0.007
Mof_C 	C 	0.38023	0.6351	0.3459	-0.173
Mof_C 	C 	0.3832	0.7116	0.4114	0.467
Mof_C 	C 	0.3278	0.1302	0.9117	0.427
Mof_C 	C 	0.3378	0.0784	0.8394	-0.096
Mof_C 	C 	0.3617	0.1	0.8071	-0.041
Mof_H 	H 	0.3747	0.1467	0.8288	0.056
Mof_C 	C 	0.3642	0.042	0.7358	0.063
Mof_H 	H 	0.3793	0.0454	0.7058	-0.008
Mof_C 	C 	0.3425	0.9816	0.7166	-0.195
Mof_C 	C 	0.3375	0.9125	0.6473	0.501
Mof_C 	C 	0.2872	0.4182	0.1333	0.453
Mof_C 	C 	0.2771	0.4653	0.2061	-0.147
Mof_C 	C 	0.2524	0.4538	0.2353	-0.025
Mof_H 	H 	0.2388	0.4143	0.2112	0.034
Mof_C 	C 	0.2502	0.509	0.3067	0.037
Mof_H 	H 	0.2347	0.5121	0.3345	0.005
Mof_C 	C 	0.2729	0.5567	0.3303	-0.186
Mof_C 	C 	0.2785	0.612	0.4059	0.559
Mof_C 	C 	0.2852	0.3747	0.9092	0.41
Mof_C 	C 	0.28858	0.4546	0.8444	-0.108
Mof_C 	C 	0.3097	0.5215	0.8281	-0.017
Mof_H 	H 	0.3246	0.5261	0.8586	0.044
Mof_C 	C 	0.3067	0.5832	0.7596	0.047
Mof_H 	H 	0.3195	0.6325	0.7395	0.017
Mof_C 	C 	0.2832	0.564	0.7261	-0.19
Mof_C 	C 	0.2746	0.6105	0.6507	0.58
Mof_C 	C 	0.3409	0.9572	0.4085	0.509
Mof_C 	C 	0.3309	0.0042	0.3337	-0.141
Mof_C 	C 	0.3069	0.9844	0.3022	-0.023
Mof_H 	H 	0.294	0.9374	0.3238	0.034
Mof_C 	C 	0.3043	0.0435	0.2331	0.016
Mof_H 	H 	0.289	0.0412	0.2039	0.005
Mof_C 	C 	0.3263	0.1053	0.2127	-0.167
Mof_C 	C 	0.3306	0.1756	0.1437	0.445
Mof_O 	O 	0.46716	0.4586	0.9381	-0.405
Mof_O 	O 	0.50543	0.3698	0.9631	-0.375
Mof_O 	O 	0.48726	0.6714	0.6388	-0.574
Mof_O 	O 	0.52671	0.6085	0.6055	-0.706
Mof_O 	O 	0.46862	0.1932	0.9616	-0.408
Mof_O 	O 	0.42932	0.2341	0.9179	-0.406
Mof_O 	O 	0.45782	0.8885	0.6183	-0.658
Mof_O 	O 	0.41845	0.9658	0.634	-0.625
Mof_O 	O 	0.47646	0.1273	0.1223	-0.527
Mof_O 	O 	0.43565	0.1957	0.1032	-0.586
Mof_O 	O 	0.4683	0.8678	0.4124	-0.587
Mof_O 	O 	0.43362	0.9574	0.4647	-0.684
Mof_O 	O 	0.40778	0.4781	0.9544	-0.395
Mof_O 	O 	0.36868	0.4182	0.9128	-0.408
Mof_O 	O 	0.39754	0.7325	0.5958	-0.581
Mof_O 	O 	0.35712	0.6634	0.6224	-0.562
Mof_O 	O 	0.41731	0.4732	0.1325	-0.535
Mof_O 	O 	0.37499	0.4506	0.1079	-0.589
Mof_O 	O 	0.39066	0.2519	0.0259	-1.483
Mof_O 	O 	0.3642	0.7288	0.4559	-0.681
Mof_O 	O 	0.3438	0.1844	0.9517	-0.38
Mof_O 	O 	0.304	0.1102	0.9271	-0.383
Mof_O 	O 	0.35498	0.9118	0.5957	-0.706
Mof_O 	O 	0.3165	0.8577	0.6401	-0.546
Mof_O 	O 	0.31122	0.4351	0.1185	-0.538
Mof_O 	O 	0.27117	0.3632	0.0929	-0.562
Mof_O 	O 	0.29934	0.6646	0.4156	-0.62
Mof_O 	O 	0.26067	0.5968	0.4547	-0.679
Mof_O 	O 	0.30406	0.3619	0.9555	-0.425
Mof_O 	O 	0.26386	0.3217	0.9178	-0.358
Mof_O 	O 	0.25135	0.6212	0.6356	-0.634
Mof_O 	O 	0.29359	0.6314	0.6061	-0.662
Mof_O 	O 	0.36416	0.9797	0.4257	-0.623
Mof_O 	O 	0.32417	0.9017	0.4475	-0.6
Mof_O 	O 	0.35249	0.2248	0.1361	-0.507
Mof_O 	O 	0.31249	0.1863	0.0967	-0.638
Mof_O 	O 	0.40504	0.7627	0.4215	-0.53
Mof_S 	S 	0.48441	0.5522	0.78661	0.102
Mof_S 	S 	0.43169	0.0909	0.77872	0.088
Mof_S 	S 	0.46409	0.0008	0.26496	0.063
Mof_S 	S 	0.37176	0.5394	0.7631	0.068
Mof_S 	S 	0.40438	0.6237	0.27784	0.053
Mof_S 	S 	0.31854	0.9903	0.78439	0.083
Mof_S 	S 	0.29744	0.5417	0.26526	0.055
Mof_S 	S 	0.26433	0.4695	0.77784	0.086
Mof_S 	S 	0.35031	0.0915	0.27923	0.057
Mof_Nd	Nd	0.5112	0.19303	0.03209	1.603
Mof_Nd	Nd	0.43724	0.3653	0.02607	1.958
Mof_Nd	Nd	0.34426	0.36166	0.02713	1.862
Mof_Nd	Nd	0.2731	0.18225	0.02384	1.658
Mof_Nd	Nd	0.3939	0.90999	0.52216	2.521
Mof_Nd	Nd	0.3234	0.73041	0.52743	2.429
Mof_H 	H 	0.3865	0.222	0.068	0.519
Mof_H 	H 	0.3937	0.198	0.994	0.767
Mof_C 	C 	0.0094	0.9292	0.4228	0.545
Mof_C 	C 	0.9982	0.9691	0.3496	-0.186
Mof_C 	C 	0.974	0.9453	0.3226	0.029
Mof_H 	H 	0.9618	0.9002	0.3489	0.014
Mof_C 	C 	0.969	0.9954	0.2506	-0.017
Mof_H 	H 	0.9532	0.9889	0.2247	0.035
Mof_C 	C 	0.9902	0.0534	0.2246	-0.159
Mof_C 	C 	0.9922	0.1155	0.1513	0.478
Mof_C 	C 	0.0494	0.6795	0.4145	0.467
Mof_C 	C 	0.0454	0.5968	0.3498	-0.163
Mof_C 	C 	0.0252	0.5232	0.3364	0.021
Mof_H 	H 	0.0109	0.5146	0.3689	-0.008
Mof_C 	C 	0.0281	0.4604	0.268	-0.011
Mof_H 	H 	0.0161	0.4047	0.2507	0.034
Mof_C 	C 	0.0503	0.4905	0.2303	-0.162
Mof_C 	C 	0.0587	0.4435	0.1554	0.49
Mof_C 	C 	0.0471	0.6399	0.6404	0.538
Mof_C 	C 	0.056	0.5869	0.7117	-0.188
Mof_C 	C 	0.0794	0.6005	0.7459	0.045
Mof_H 	H 	0.0935	0.6407	0.7242	0.015
Mof_C 	C 	0.0805	0.5479	0.8174	-0.021
Mof_H 	H 	0.095	0.5529	0.8494	0.046
Mof_C 	C 	0.0582	0.4889	0.8356	-0.11
Mof_C 	C 	0.0517	0.4326	0.9097	0.418
Mof_C 	C 	0.1099	0.9691	0.4057	0.551
Mof_C 	C 	0.1045	0.0298	0.3317	-0.175
Mof_C 	C 	0.0828	0.0892	0.3119	0.029
Mof_H 	H 	0.0679	0.0925	0.3422	0.018
Mof_C 	C 	0.0847	0.1464	0.2411	-0.024
Mof_H 	H 	0.0714	0.1921	0.2197	0.039
Mof_C 	C 	0.10819	0.126	0.2085	-0.134
Mof_C 	C 	0.1193	0.1761	0.1366	0.421
Mof_C 	C 	0.1067	0.9802	0.6502	0.569
Mof_C 	C 	0.1144	0.0289	0.7248	-0.2
Mof_C 	C 	0.1374	0.0065	0.7599	0.074
Mof_H 	H 	0.15	0.9559	0.7401	-0.002
Mof_C 	C 	0.1406	0.0663	0.8289	-0.037
Mof_H 	H 	0.1555	0.0594	0.8595	0.057
Mof_C 	C 	0.11977	0.1351	0.8459	-0.099
Mof_C 	C 	0.1168	0.2116	0.9114	0.389
Mof_C 	C 	0.1722	0.6302	0.4117	0.519
Mof_C 	C 	0.1622	0.5784	0.3394	-0.163
Mof_C 	C 	0.1383	0.6	0.3071	0.001
Mof_H 	H 	0.1253	0.6467	0.3288	0.026
Mof_C 	C 	0.1358	0.542	0.2358	0
Mof_H 	H 	0.1207	0.5454	0.2058	0.011
Mof_C 	C 	0.1575	0.4816	0.2166	-0.157
Mof_C 	C 	0.1625	0.4125	0.1473	0.433
Mof_C 	C 	0.2128	0.9182	0.6333	0.523
Mof_C 	C 	0.2229	0.9653	0.7061	-0.175
Mof_C 	C 	0.2476	0.9538	0.7353	0.013
Mof_H 	H 	0.2612	0.9143	0.7112	0.027
Mof_C 	C 	0.2498	0.009	0.8067	0.01
Mof_H 	H 	0.2653	0.0121	0.8345	0.045
Mof_C 	C 	0.2271	0.0567	0.8303	-0.124
Mof_C 	C 	0.2215	0.112	0.9059	0.457
Mof_C 	C 	0.2148	0.8747	0.4092	0.491
Mof_C 	C 	0.21142	0.9546	0.3444	-0.188
Mof_C 	C 	0.1903	0.0215	0.3281	0.045
Mof_H 	H 	0.1754	0.0261	0.3586	-0.018
Mof_C 	C 	0.1933	0.0832	0.2596	-0.025
Mof_H 	H 	0.1805	0.1325	0.2395	0.042
Mof_C 	C 	0.2168	0.064	0.2261	-0.146
Mof_C 	C 	0.2254	0.1105	0.1507	0.487
Mof_C 	C 	0.1591	0.4572	0.9085	0.424
Mof_C 	C 	0.1691	0.5042	0.8337	-0.096
Mof_C 	C 	0.1931	0.4844	0.8022	-0.038
Mof_H 	H 	0.206	0.4374	0.8238	0.064
Mof_C 	C 	0.1957	0.5435	0.7331	0.05
Mof_H 	H 	0.211	0.5412	0.7039	-0.007
Mof_C 	C 	0.1737	0.6053	0.7127	-0.188
Mof_C 	C 	0.1694	0.6756	0.6437	0.508
Mof_O 	O 	0.03284	0.9586	0.4381	-0.619
Mof_O 	O 	0.99457	0.8698	0.4631	-0.634
Mof_O 	O 	0.01274	0.1714	0.1388	-0.508
Mof_O 	O 	0.97329	0.1085	0.1055	-0.631
Mof_O 	O 	0.03138	0.6932	0.4616	-0.682
Mof_O 	O 	0.07068	0.7341	0.4179	-0.574
Mof_O 	O 	0.04218	0.3885	0.1183	-0.577
Mof_O 	O 	0.08155	0.4658	0.134	-0.541
Mof_O 	O 	0.02354	0.6273	0.6223	-0.586
Mof_O 	O 	0.06435	0.6957	0.6032	-0.643
Mof_O 	O 	0.0317	0.3678	0.9124	-0.396
Mof_O 	O 	0.06638	0.4574	0.9647	-0.388
Mof_O 	O 	0.09222	0.9781	0.4544	-0.668
Mof_O 	O 	0.13132	0.9182	0.4128	-0.605
Mof_O 	O 	0.10246	0.2325	0.0958	-0.53
Mof_O 	O 	0.14288	0.1634	0.1224	-0.503
Mof_O 	O 	0.08269	0.9732	0.6325	-0.607
Mof_O 	O 	0.12501	0.9506	0.6079	-0.672
Mof_O 	O 	0.10934	0.7519	0.5259	-1.07
Mof_O 	O 	0.1358	0.2288	0.9559	-0.398
Mof_O 	O 	0.1562	0.6844	0.4517	-0.606
Mof_O 	O 	0.196	0.6102	0.4271	-0.592
Mof_O 	O 	0.14502	0.4118	0.0957	-0.617
Mof_O 	O 	0.1835	0.3577	0.1401	-0.482
Mof_O 	O 	0.18878	0.9351	0.6185	-0.594
Mof_O 	O 	0.22883	0.8632	0.5929	-0.614
Mof_O 	O 	0.20066	0.1646	0.9156	-0.414
Mof_O 	O 	0.23933	0.0968	0.9547	-0.399
Mof_O 	O 	0.19594	0.8619	0.4555	-0.703
Mof_O 	O 	0.23614	0.8217	0.4178	-0.547
Mof_O 	O 	0.24865	0.1212	0.1356	-0.548
Mof_O 	O 	0.20641	0.1314	0.1061	-0.588
Mof_O 	O 	0.13584	0.4797	0.9257	-0.402
Mof_O 	O 	0.17583	0.4017	0.9475	-0.36
Mof_O 	O 	0.14751	0.7248	0.6361	-0.554
Mof_O 	O 	0.18751	0.6863	0.5967	-0.72
Mof_O 	O 	0.09496	0.2627	0.9215	-0.343
Mof_S 	S 	0.01559	0.0522	0.28661	0.078
Mof_S 	S 	0.06831	0.5909	0.27872	0.056
Mof_S 	S 	0.03591	0.5008	0.76496	0.079
Mof_S 	S 	0.12824	0.0394	0.2631	0.048
Mof_S 	S 	0.09562	0.1237	0.77784	0.087
Mof_S 	S 	0.18146	0.4903	0.28439	0.062
Mof_S 	S 	0.20256	0.0417	0.76526	0.087
Mof_S 	S 	0.23567	0.9695	0.27784	0.049
Mof_S 	S 	0.14969	0.5915	0.77923	0.09
Mof_Nd	Nd	0.9888	0.69303	0.53209	2.427
Mof_Nd	Nd	0.06276	0.8653	0.52607	2.806
Mof_Nd	Nd	0.15574	0.86166	0.52713	2.62
Mof_Nd	Nd	0.2269	0.68225	0.52384	2.516
Mof_Nd	Nd	0.1061	0.40999	0.02216	1.639
Mof_Nd	Nd	0.1766	0.23041	0.02743	1.627
Mof_H 	H 	0.1135	0.722	0.568	0.396
Mof_H 	H 	0.1063	0.698	0.494	0.413
Mof_C 	C 	0.9906	0.0708	0.9228	0.441
Mof_C 	C 	0.0018	0.0309	0.8496	-0.104
Mof_C 	C 	0.026	0.0547	0.8226	-0.026
Mof_H 	H 	0.0382	0.0998	0.8489	0.065
Mof_C 	C 	0.031	0.0046	0.7506	0.057
Mof_H 	H 	0.0468	0.0111	0.7247	0.016
Mof_C 	C 	0.0098	0.9466	0.7246	-0.2
Mof_C 	C 	0.0078	0.8845	0.6513	0.558
Mof_C 	C 	0.9506	0.3205	0.9145	0.392
Mof_C 	C 	0.9546	0.4032	0.8498	-0.096
Mof_C 	C 	0.9748	0.4768	0.8364	-0.027
Mof_H 	H 	0.9891	0.4854	0.8689	0.054
Mof_C 	C 	0.9719	0.5396	0.768	0.053
Mof_H 	H 	0.9839	0.5953	0.7507	0.014
Mof_C 	C 	0.9497	0.5095	0.7303	-0.201
Mof_C 	C 	0.9413	0.5565	0.6554	0.584
Mof_C 	C 	0.9529	0.3601	0.1404	0.459
Mof_C 	C 	0.944	0.4131	0.2117	-0.162
Mof_C 	C 	0.9206	0.3995	0.2459	-0.012
Mof_H 	H 	0.9065	0.3593	0.2242	0.024
Mof_C 	C 	0.9195	0.4521	0.3174	0.027
Mof_H 	H 	0.905	0.4471	0.3494	-0.01
Mof_C 	C 	0.9418	0.5111	0.3356	-0.179
Mof_C 	C 	0.9483	0.5674	0.4097	0.514
Mof_C 	C 	0.8901	0.0309	0.9057	0.468
Mof_C 	C 	0.8955	0.9702	0.8317	-0.126
Mof_C 	C 	0.9172	0.9108	0.8119	-0.004
Mof_H 	H 	0.9321	0.9075	0.8422	0.052
Mof_C 	C 	0.9153	0.8536	0.7411	0.021
Mof_H 	H 	0.9286	0.8079	0.7197	0.027
Mof_C 	C 	0.89181	0.874	0.7085	-0.155
Mof_C 	C 	0.8807	0.8239	0.6366	0.489
Mof_C 	C 	0.8933	0.0198	0.1502	0.491
Mof_C 	C 	0.8856	0.9711	0.2248	-0.165
Mof_C 	C 	0.8626	0.9935	0.2599	-0.007
Mof_H 	H 	0.85	0.0441	0.2401	0.031
Mof_C 	C 	0.8594	0.9337	0.3289	0.02
Mof_H 	H 	0.8445	0.9406	0.3595	-0.007
Mof_C 	C 	0.88023	0.8649	0.3459	-0.174
Mof_C 	C 	0.8832	0.7884	0.4114	0.467
Mof_C 	C 	0.8278	0.3698	0.9117	0.43
Mof_C 	C 	0.8378	0.4216	0.8394	-0.107
Mof_C 	C 	0.8617	0.4	0.8071	-0.031
Mof_H 	H 	0.8747	0.3533	0.8288	0.052
Mof_C 	C 	0.8642	0.458	0.7358	0.046
Mof_H 	H 	0.8793	0.4546	0.7058	-0.004
Mof_C 	C 	0.8425	0.5184	0.7166	-0.184
Mof_C 	C 	0.8375	0.5875	0.6473	0.498
Mof_C 	C 	0.7872	0.0818	0.1333	0.453
Mof_C 	C 	0.7771	0.0347	0.2061	-0.147
Mof_C 	C 	0.7524	0.0462	0.2353	-0.024
Mof_H 	H 	0.7388	0.0857	0.2112	0.034
Mof_C 	C 	0.7502	0.991	0.3067	0.037
Mof_H 	H 	0.7347	0.9879	0.3345	0.005
Mof_C 	C 	0.7729	0.9433	0.3303	-0.187
Mof_C 	C 	0.7785	0.888	0.4059	0.559
Mof_C 	C 	0.7852	0.1253	0.9092	0.407
Mof_C 	C 	0.78858	0.0454	0.8444	-0.101
Mof_C 	C 	0.8097	0.9785	0.8281	-0.03
Mof_H 	H 	0.8246	0.9739	0.8586	0.046
Mof_C 	C 	0.8067	0.9168	0.7596	0.054
Mof_H 	H 	0.8195	0.8675	0.7395	0.015
Mof_C 	C 	0.7832	0.936	0.7261	-0.197
Mof_C 	C 	0.7746	0.8895	0.6507	0.582
Mof_C 	C 	0.8409	0.5428	0.4085	0.517
Mof_C 	C 	0.8309	0.4958	0.3337	-0.156
Mof_C 	C 	0.8069	0.5156	0.3022	-0.002
Mof_H 	H 	0.794	0.5626	0.3238	0.028
Mof_C 	C 	0.8043	0.4565	0.2331	-0
Mof_H 	H 	0.789	0.4588	0.2039	0.009
Mof_C 	C 	0.8263	0.3947	0.2127	-0.163
Mof_C 	C 	0.8306	0.3244	0.1437	0.443
Mof_O 	O 	0.96716	0.0414	0.9381	-0.402
Mof_O 	O 	0.00543	0.1302	0.9631	-0.373
Mof_O 	O 	0.98726	0.8286	0.6388	-0.576
Mof_O 	O 	0.02671	0.8915	0.6055	-0.707
Mof_O 	O 	0.96862	0.3068	0.9616	-0.407
Mof_O 	O 	0.92932	0.2659	0.9179	-0.406
Mof_O 	O 	0.95782	0.6115	0.6183	-0.658
Mof_O 	O 	0.91845	0.5342	0.634	-0.623
Mof_O 	O 	0.97646	0.3727	0.1223	-0.527
Mof_O 	O 	0.93565	0.3043	0.1032	-0.587
Mof_O 	O 	0.9683	0.6322	0.4124	-0.586
Mof_O 	O 	0.93362	0.5426	0.4647	-0.683
Mof_O 	O 	0.90778	0.0219	0.9544	-0.396
Mof_O 	O 	0.86868	0.0818	0.9128	-0.409
Mof_O 	O 	0.89754	0.7675	0.5958	-0.582
Mof_O 	O 	0.85712	0.8366	0.6224	-0.562
Mof_O 	O 	0.91731	0.0268	0.1325	-0.535
Mof_O 	O 	0.87499	0.0494	0.1079	-0.589
Mof_O 	O 	0.89066	0.2481	0.0259	-1.483
Mof_O 	O 	0.8642	0.7712	0.4559	-0.681
Mof_O 	O 	0.8438	0.3156	0.9517	-0.381
Mof_O 	O 	0.804	0.3898	0.9271	-0.386
Mof_O 	O 	0.85498	0.5882	0.5957	-0.704
Mof_O 	O 	0.8165	0.6423	0.6401	-0.544
Mof_O 	O 	0.81122	0.0649	0.1185	-0.538
Mof_O 	O 	0.77117	0.1368	0.0929	-0.562
Mof_O 	O 	0.79934	0.8354	0.4156	-0.62
Mof_O 	O 	0.76067	0.9032	0.4547	-0.679
Mof_O 	O 	0.80406	0.1381	0.9555	-0.424
Mof_O 	O 	0.76386	0.1783	0.9178	-0.357
Mof_O 	O 	0.75135	0.8788	0.6356	-0.635
Mof_O 	O 	0.79359	0.8686	0.6061	-0.664
Mof_O 	O 	0.86416	0.5203	0.4257	-0.623
Mof_O 	O 	0.82417	0.5983	0.4475	-0.601
Mof_O 	O 	0.85249	0.2752	0.1361	-0.507
Mof_O 	O 	0.81249	0.3137	0.0967	-0.637
Mof_O 	O 	0.90504	0.7373	0.4215	-0.53
Mof_S 	S 	0.98441	0.9478	0.78661	0.094
Mof_S 	S 	0.93169	0.4091	0.77872	0.081
Mof_S 	S 	0.96409	0.4992	0.26496	0.057
Mof_S 	S 	0.87176	0.9606	0.7631	0.066
Mof_S 	S 	0.90438	0.8763	0.27784	0.053
Mof_S 	S 	0.81854	0.5097	0.78439	0.095
Mof_S 	S 	0.79744	0.9583	0.26526	0.056
Mof_S 	S 	0.76433	0.0305	0.77784	0.089
Mof_S 	S 	0.85031	0.4085	0.27923	0.057
Mof_Nd	Nd	0.0112	0.30697	0.03209	1.602
Mof_Nd	Nd	0.93724	0.1347	0.02607	1.96
Mof_Nd	Nd	0.84426	0.13834	0.02713	1.864
Mof_Nd	Nd	0.7731	0.31775	0.02384	1.656
Mof_Nd	Nd	0.8939	0.59001	0.52216	2.526
Mof_Nd	Nd	0.8234	0.76959	0.52743	2.43
Mof_H 	H 	0.8865	0.278	0.068	0.518
Mof_H 	H 	0.8937	0.302	0.994	0.766
_end
