# CIF file generated by openbabel 3.1.0, see https://openbabel.org
data_I
_chemical_name_common 'XOTZIR_clean'
_cell_length_a 8.811
_cell_length_b 10.951
_cell_length_c 21.944
_cell_angle_alpha 77.152
_cell_angle_beta 87.703
_cell_angle_gamma 78.251
_space_group_name_H-M_alt 'P 1'
_space_group_name_Hall 'P 1'
loop_
    _symmetry_equiv_pos_as_xyz
    x,y,z
loop_
    _atom_site_label
    _atom_site_type_symbol
    _atom_site_fract_x
    _atom_site_fract_y
    _atom_site_fract_z
    _atom_site_occupancy
    Yb1      Yb       0.28680    0.46580    0.49518    1.000
    Yb2      Yb       0.71320    0.53420    0.50482    1.000
    H1       H        0.93770    0.18420    0.98490    1.000
    H2       H        0.93220    0.79120    0.92990    1.000
    H3       H        0.31300    0.11270    0.96040    1.000
    H4       H        0.69390    0.53840    0.33730    1.000
    H5       H        0.06230    0.81580    0.01510    1.000
    H6       H        0.89070    0.93460    0.93760    1.000
    H7       H        0.61280    0.89970    0.37380    1.000
    H8       H        0.26970    0.25730    0.96620    1.000
    H9       H        0.40420    0.70600    0.78980    1.000
    H10      H        0.70260    0.11280    0.78550    1.000
    H11      H        0.42960    0.01410    0.13850    1.000
    H12      H        0.35840    0.98690    0.72580    1.000
    H13      H        0.06780    0.20880    0.07010    1.000
    H14      H        0.27580    0.60060    0.87430    1.000
    H15      H        0.73030    0.74270    0.03380    1.000
    H16      H        0.88760    0.85410    0.21450    1.000
    H17      H        0.74060    0.21990    0.68460    1.000
    H18      H        0.57040    0.98590    0.86150    1.000
    H19      H        0.38720    0.10030    0.62620    1.000
    H20      H        0.86680    0.90250    0.87210    1.000
    H21      H        0.25940    0.78010    0.31540    1.000
    H22      H        0.93960    0.50650    0.15050    1.000
    H23      H        0.44170    0.13710    0.04630    1.000
    H24      H        0.30280    0.92460    0.82530    1.000
    H25      H        0.59580    0.29400    0.21020    1.000
    H26      H        0.83640    0.77870    0.31780    1.000
    H27      H        0.13320    0.09750    0.12790    1.000
    H28      H        0.52100    0.71670    0.69370    1.000
    H29      H        0.32790    0.70840    0.14050    1.000
    H30      H        0.29740    0.88720    0.21450    1.000
    H31      H        0.11240    0.14590    0.78550    1.000
    H32      H        0.79950    0.50920    0.67290    1.000
    H33      H        0.25160    0.22160    0.90110    1.000
    H34      H        0.80820    0.55620    0.24190    1.000
    H35      H        0.30610    0.46160    0.66270    1.000
    H36      H        0.97960    0.17910    0.88450    1.000
    H37      H        0.24630    0.56210    0.22090    1.000
    H38      H        0.47900    0.28330    0.30630    1.000
    H39      H        0.69720    0.07540    0.17470    1.000
    H40      H        0.64160    0.01310    0.27420    1.000
    H41      H        0.74840    0.77840    0.09890    1.000
    H42      H        0.10930    0.06540    0.06240    1.000
    H43      H        0.19180    0.44380    0.75810    1.000
    H44      H        0.75370    0.43790    0.77910    1.000
    H45      H        0.02040    0.82090    0.11550    1.000
    H46      H        0.55830    0.86290    0.95370    1.000
    H47      H        0.72420    0.39940    0.12570    1.000
    H48      H        0.20050    0.49080    0.32710    1.000
    H49      H        0.68700    0.88730    0.03960    1.000
    H50      H        0.06040    0.49350    0.84950    1.000
    H51      H        0.16360    0.22130    0.68220    1.000
    H52      H        0.67210    0.29160    0.85950    1.000
    C1       C        0.19320    0.86430    0.93970    1.000
    C2       C        0.38600    0.65160    0.76440    1.000
    C3       C        0.36300    0.46200    0.08840    1.000
    C4       C        0.95200    0.78010    0.23720    1.000
    C5       C        0.06850    0.12060    0.09070    1.000
    C6       C        0.45300    0.10330    0.65830    1.000
    C7       C        0.63700    0.53800    0.91160    1.000
    C8       C        0.27320    0.79570    0.04790    1.000
    C9       C        0.31330    0.20030    0.93900    1.000
    C10      C        0.61400    0.34840    0.23560    1.000
    C11      C        0.54700    0.89670    0.34170    1.000
    C12      C        0.98500    0.37100    0.66920    1.000
    C13      C        0.07620    0.71860    0.20750    1.000
    C14      C        0.45690    0.85400    0.96580    1.000
    C15      C        0.92380    0.28140    0.79250    1.000
    C16      C        0.41900    0.74100    0.42040    1.000
    C17      C        0.75690    0.24740    0.88550    1.000
    C18      C        0.06300    0.51720    0.94080    1.000
    C19      C        0.65900    0.17470    0.69260    1.000
    C20      C        0.93150    0.87940    0.90930    1.000
    C21      C        0.43500    0.03680    0.71810    1.000
    C22      C        0.45300    0.66000    0.70680    1.000
    C23      C        0.99200    0.57800    0.40250    1.000
    C24      C        0.34100    0.82530    0.30740    1.000
    C25      C        0.65540    0.11860    0.07880    1.000
    C26      C        0.52360    0.03990    0.76670    1.000
    C27      C        0.84190    0.50520    0.00920    1.000
    C28      C        0.29380    0.56700    0.78550    1.000
    C29      C        0.90400    0.52130    0.94850    1.000
    C30      C        0.01500    0.62900    0.33080    1.000
    C31      C        0.89500    0.22840    0.85950    1.000
    C32      C        0.80680    0.13570    0.06030    1.000
    C33      C        0.50380    0.01570    0.16780    1.000
    C34      C        0.24310    0.75260    0.11450    1.000
    C35      C        0.86300    0.43560    0.69630    1.000
    C36      C        0.58100    0.25900    0.57960    1.000
    C37      C        0.49620    0.98430    0.83220    1.000
    C38      C        0.47640    0.96010    0.23330    1.000
    C39      C        0.49700    0.58400    0.60300    1.000
    C40      C        0.04800    0.21990    0.76280    1.000
    C41      C        0.68670    0.79970    0.06100    1.000
    C42      C        0.09600    0.47870    0.05150    1.000
    C43      C        0.16500    0.60840    0.24080    1.000
    C44      C        0.12000    0.52530    0.87460    1.000
    C45      C        0.10500    0.77160    0.14050    1.000
    C46      C        0.26100    0.50000    0.74650    1.000
    C47      C        0.73900    0.50000    0.25350    1.000
    C48      C        0.88000    0.47470    0.12540    1.000
    C49      C        0.16400    0.82390    0.00300    1.000
    C50      C        0.63800    0.10920    0.75320    1.000
    C51      C        0.07900    0.26400    0.70180    1.000
    C52      C        0.83500    0.39160    0.75920    1.000
    C53      C        0.83600    0.17610    0.99700    1.000
    C54      C        0.54310    0.14600    0.03420    1.000
    C55      C        0.56800    0.17510    0.64550    1.000
    C56      C        0.50300    0.41600    0.39700    1.000
    C57      C        0.42300    0.58700    0.66840    1.000
    C58      C        0.72680    0.20430    0.95210    1.000
    C59      C        0.62570    0.06920    0.14550    1.000
    C60      C        0.15810    0.49480    0.99080    1.000
    C61      C        0.42470    0.81250    0.02980    1.000
    C62      C        0.36200    0.89080    0.24680    1.000
    C63      C        0.54700    0.34000    0.29320    1.000
    C64      C        0.00800    0.42200    0.59750    1.000
    C65      C        0.13700    0.56440    0.30370    1.000
    C66      C        0.56500    0.96320    0.28190    1.000
    C67      C        0.22300    0.56310    0.84930    1.000
    C68      C        0.33000    0.51200    0.68910    1.000
    C69      C        0.93700    0.48280    0.05920    1.000
    C70      C        0.92100    0.73600    0.29820    1.000
    C71      C        0.34460    0.88140    0.92120    1.000
    C72      C        0.67000    0.48800    0.31090    1.000
    C73      C        0.57700    0.41300    0.33160    1.000
    C74      C        0.43200    0.82490    0.35450    1.000
    C75      C        0.70620    0.43300    0.21450    1.000
    C76      C        0.77700    0.43690    0.15070    1.000
    C77      C        0.37430    0.93080    0.85450    1.000
    C78      C        0.57530    0.18750    0.97020    1.000
    O1       O        0.13500    0.37600    0.57650    1.000
    O2       O        0.53180    0.78590    0.07640    1.000
    O3       O        0.80000    0.53740    0.90050    1.000
    O4       O        0.46430    0.28210    0.54500    1.000
    O5       O        0.53570    0.71790    0.45500    1.000
    O6       O        0.30300    0.68900    0.42750    1.000
    O7       O        0.20000    0.46260    0.09950    1.000
    O8       O        0.57100    0.45940    0.43450    1.000
    O9       O        0.08800    0.49290    0.43200    1.000
    O10      O        0.69700    0.31100    0.57250    1.000
    O11      O        0.39800    0.36000    0.40700    1.000
    O12      O        0.42900    0.54060    0.56550    1.000
    O13      O        0.91200    0.50710    0.56800    1.000
    O14      O        0.60200    0.64000    0.59300    1.000
    O15      O        0.46820    0.21410    0.92360    1.000
    O16      O        0.08620    0.89390    0.89200    1.000
    O17      O        0.86500    0.62400    0.42350    1.000
    O18      O        0.91380    0.10610    0.10800    1.000
