data_functionalizedCrystal
_audit_creation_method	'EQeq! by Chris Wilmer'
_symmetry_space_group_name_H-M	'P1'
_symmetry_Int_Tables_number	1
_symmetry_cell_setting	triclinic
loop_
_symmetry_equiv_pos_as_xyz
  x,y,z
_cell_length_a	8.258
_cell_length_b	14.371
_cell_length_c	16.189
_cell_angle_alpha	90
_cell_angle_beta	90
_cell_angle_gamma	90
loop_
_atom_site_label
_atom_site_type_symbol
_atom_site_fract_x
_atom_site_fract_y
_atom_site_fract_z
_atom_site_charge
Mof_Ag	Ag	0.20658	0.08698	0.15224	0.504
Mof_S 	S 	0.2253	0.2429	0.2381	-0.055
Mof_S 	S 	0.4552	0.367	0.9344	-0.027
Mof_S 	S 	0.9705	0.4917	0.8952	-0.06
Mof_S 	S 	0.8318	0.4546	0.2345	-0.068
Mof_C 	C 	0.378	0.3091	0.1843	-0.302
Mof_C 	C 	0.358	0.3088	0.0902	0.291
Mof_C 	C 	0.489	0.3619	0.0456	-0.302
Mof_C 	C 	0.292	0.4523	0.9254	-0.097
Mof_C 	C 	0.128	0.4057	0.9135	-0.136
Mof_C 	C 	0.943	0.5434	0.9961	-0.287
Mof_C 	C 	0.898	0.4772	0.066	0.27
Mof_C 	C 	0.874	0.5282	0.1461	-0.278
Mof_C 	C 	0.026	0.3971	0.2547	-0.092
Mof_C 	C 	0.041	0.3042	0.2126	-0.125
Mof_O 	O 	0.265	0.261	0.0566	-0.287
Mof_O 	O 	0.367	0.1012	0.9446	-0.273
Mof_H 	H 	0.483	0.284	0.196	0.107
Mof_H 	H 	0.374	0.373	0.202	0.111
Mof_H 	H 	0.592	0.33	0.055	0.14
Mof_H 	H 	0.495	0.424	0.067	0.111
Mof_H 	H 	0.313	0.492	0.879	0.038
Mof_H 	H 	0.289	0.489	0.975	0.05
Mof_H 	H 	0.101	0.372	0.962	0.1
Mof_H 	H 	0.133	0.365	0.867	0.06
Mof_H 	H 	0.859	0.589	0.991	0.096
Mof_H 	H 	0.043	0.573	0.011	0.105
Mof_H 	H 	0.785	0.571	0.139	0.089
Mof_H 	H 	0.971	0.563	0.158	0.09
Mof_H 	H 	0.034	0.388	0.313	0.037
Mof_H 	H 	0.11	0.437	0.236	0.047
Mof_H 	H 	0.037	0.314	0.153	0.091
Mof_H 	H 	0.949	0.266	0.227	0.055
Mof_Ag	Ag	0.29342	0.91302	0.65224	0.502
Mof_S 	S 	0.2747	0.7571	0.7381	-0.055
Mof_S 	S 	0.0448	0.633	0.4344	-0.027
Mof_S 	S 	0.5295	0.5083	0.3952	-0.06
Mof_S 	S 	0.6682	0.5454	0.7345	-0.068
Mof_C 	C 	0.122	0.6909	0.6843	-0.302
Mof_C 	C 	0.142	0.6912	0.5902	0.291
Mof_C 	C 	0.011	0.6381	0.5456	-0.302
Mof_C 	C 	0.208	0.5477	0.4254	-0.098
Mof_C 	C 	0.372	0.5943	0.4135	-0.136
Mof_C 	C 	0.557	0.4566	0.4961	-0.287
Mof_C 	C 	0.602	0.5228	0.566	0.27
Mof_C 	C 	0.626	0.4718	0.6461	-0.278
Mof_C 	C 	0.474	0.6029	0.7547	-0.092
Mof_C 	C 	0.459	0.6958	0.7126	-0.126
Mof_O 	O 	0.235	0.739	0.5566	-0.287
Mof_O 	O 	0.133	0.8988	0.4446	-0.273
Mof_H 	H 	0.017	0.716	0.696	0.107
Mof_H 	H 	0.126	0.627	0.702	0.111
Mof_H 	H 	0.908	0.67	0.555	0.14
Mof_H 	H 	0.005	0.576	0.567	0.111
Mof_H 	H 	0.187	0.508	0.379	0.038
Mof_H 	H 	0.211	0.511	0.475	0.05
Mof_H 	H 	0.399	0.628	0.462	0.1
Mof_H 	H 	0.367	0.635	0.367	0.06
Mof_H 	H 	0.641	0.411	0.491	0.096
Mof_H 	H 	0.457	0.427	0.511	0.105
Mof_H 	H 	0.715	0.429	0.639	0.089
Mof_H 	H 	0.529	0.437	0.658	0.09
Mof_H 	H 	0.466	0.612	0.813	0.037
Mof_H 	H 	0.39	0.563	0.736	0.047
Mof_H 	H 	0.463	0.686	0.653	0.091
Mof_H 	H 	0.551	0.734	0.727	0.055
Mof_Ag	Ag	0.79342	0.58698	0.34776	0.503
Mof_S 	S 	0.7747	0.7429	0.2619	-0.055
Mof_S 	S 	0.5448	0.867	0.5656	-0.027
Mof_S 	S 	0.0295	0.9917	0.6048	-0.061
Mof_S 	S 	0.1682	0.9546	0.2655	-0.067
Mof_C 	C 	0.622	0.8091	0.3157	-0.302
Mof_C 	C 	0.642	0.8088	0.4098	0.291
Mof_C 	C 	0.511	0.8619	0.4544	-0.302
Mof_C 	C 	0.708	0.9523	0.5746	-0.098
Mof_C 	C 	0.872	0.9057	0.5865	-0.136
Mof_C 	C 	0.057	0.0434	0.5039	-0.285
Mof_C 	C 	0.102	0.9772	0.434	0.27
Mof_C 	C 	0.126	0.0282	0.3539	-0.278
Mof_C 	C 	0.974	0.8971	0.2453	-0.092
Mof_C 	C 	0.959	0.8042	0.2874	-0.127
Mof_O 	O 	0.735	0.761	0.4434	-0.287
Mof_O 	O 	0.633	0.6012	0.5554	-0.273
Mof_H 	H 	0.517	0.784	0.304	0.107
Mof_H 	H 	0.626	0.873	0.298	0.111
Mof_H 	H 	0.408	0.83	0.445	0.14
Mof_H 	H 	0.505	0.924	0.433	0.111
Mof_H 	H 	0.687	0.992	0.621	0.038
Mof_H 	H 	0.711	0.989	0.525	0.05
Mof_H 	H 	0.899	0.872	0.538	0.1
Mof_H 	H 	0.867	0.865	0.633	0.06
Mof_H 	H 	0.141	0.089	0.509	0.095
Mof_H 	H 	0.957	0.073	0.489	0.104
Mof_H 	H 	0.215	0.071	0.361	0.089
Mof_H 	H 	0.029	0.063	0.342	0.09
Mof_H 	H 	0.966	0.888	0.187	0.038
Mof_H 	H 	0.89	0.937	0.264	0.047
Mof_H 	H 	0.963	0.814	0.347	0.091
Mof_H 	H 	0.051	0.766	0.273	0.056
Mof_Ag	Ag	0.70658	0.41302	0.84776	0.503
Mof_S 	S 	0.7253	0.2571	0.7619	-0.055
Mof_S 	S 	0.9552	0.133	0.0656	-0.029
Mof_S 	S 	0.4705	0.0083	0.1048	-0.061
Mof_S 	S 	0.3318	0.0454	0.7655	-0.067
Mof_C 	C 	0.878	0.1909	0.8157	-0.302
Mof_C 	C 	0.858	0.1912	0.9098	0.291
Mof_C 	C 	0.989	0.1381	0.9544	-0.301
Mof_C 	C 	0.792	0.0477	0.0746	-0.097
Mof_C 	C 	0.628	0.0943	0.0865	-0.136
Mof_C 	C 	0.443	0.9566	0.0039	-0.284
Mof_C 	C 	0.398	0.0228	0.934	0.271
Mof_C 	C 	0.374	0.9718	0.8539	-0.28
Mof_C 	C 	0.526	0.1029	0.7453	-0.093
Mof_C 	C 	0.541	0.1958	0.7874	-0.126
Mof_O 	O 	0.765	0.239	0.9434	-0.287
Mof_O 	O 	0.867	0.3988	0.0554	-0.274
Mof_H 	H 	0.983	0.216	0.804	0.107
Mof_H 	H 	0.874	0.127	0.798	0.111
Mof_H 	H 	0.092	0.17	0.945	0.139
Mof_H 	H 	0.995	0.076	0.933	0.111
Mof_H 	H 	0.813	0.008	0.121	0.038
Mof_H 	H 	0.789	0.011	0.025	0.05
Mof_H 	H 	0.601	0.128	0.038	0.1
Mof_H 	H 	0.633	0.135	0.133	0.06
Mof_H 	H 	0.359	0.911	0.009	0.095
Mof_H 	H 	0.543	0.927	0.989	0.103
Mof_H 	H 	0.285	0.929	0.861	0.089
Mof_H 	H 	0.471	0.937	0.842	0.09
Mof_H 	H 	0.534	0.112	0.687	0.038
Mof_H 	H 	0.61	0.063	0.764	0.047
Mof_H 	H 	0.537	0.186	0.847	0.091
Mof_H 	H 	0.449	0.234	0.773	0.055
_end
