# CIF file generated by openbabel 3.1.0, see https://openbabel.org
data_I
_chemical_name_common 'image0'
_cell_length_a 9.003
_cell_length_b 12.118
_cell_length_c 12.865
_cell_angle_alpha 98.74
_cell_angle_beta 90.251
_cell_angle_gamma 93.325
_space_group_name_H-M_alt 'P 1'
_space_group_name_Hall 'P 1'
loop_
    _symmetry_equiv_pos_as_xyz
    x,y,z
loop_
    _atom_site_label
    _atom_site_type_symbol
    _atom_site_fract_x
    _atom_site_fract_y
    _atom_site_fract_z
    _atom_site_occupancy
    Zn1      Zn       0.40462    0.57505    0.12693    1.000
    O1       O        0.35060    0.73496    0.19922    1.000
    O2       O        0.20010    0.60145    0.24513    1.000
    C1       C        0.24230    0.70340    0.25090    1.000
    C2       C        0.16440    0.79050    0.32230    1.000
    C3       C        0.07610    0.76340    0.40240    1.000
    H1       H        0.05820    0.68710    0.41010    1.000
    C4       C        0.01260    0.84530    0.47240    1.000
    H2       H        0.95380    0.82430    0.52810    1.000
    C5       C        0.03310    0.95580    0.46230    1.000
    C6       C        0.08090    0.97750    0.36170    1.000
    H3       H        0.06440    0.04740    0.34000    1.000
    C7       C        0.15150    0.89630    0.29540    1.000
    H4       H        0.19140    0.91320    0.23100    1.000
    O3       O        0.35480    0.40917    0.09940    1.000
    O4       O        0.40770    0.35714    0.92975    1.000
    C8       C        0.34530    0.34350    0.01370    1.000
    C9       C        0.24380    0.24100    0.01150    1.000
    C10      C        0.19610    0.20270    0.09980    1.000
    H5       H        0.22820    0.24180    0.16650    1.000
    C11      C        0.10090    0.10740    0.09470    1.000
    H6       H        0.09010    0.06850    0.15330    1.000
    C12      C        0.01800    0.06880    0.99710    1.000
    C13      C        0.03710    0.12470    0.91150    1.000
    H7       H        0.97820    0.10150    0.84970    1.000
    C14      C        0.14160    0.21430    0.91500    1.000
    H8       H        0.14910    0.25740    0.85920    1.000
    N1       N        0.27010    0.60340    0.99360    1.000
    C15      C        0.29720    0.69680    0.95170    1.000
    H9       H        0.36970    0.75110    0.98470    1.000
    C16      C        0.22450    0.71780    0.86290    1.000
    H10      H        0.24760    0.78510    0.83520    1.000
    C17      C        0.11720    0.63960    0.81410    1.000
    C18      C        0.08650    0.54460    0.85870    1.000
    H11      H        0.01230    0.48990    0.82870    1.000
    C19      C        0.16530    0.52990    0.94790    1.000
    H12      H        0.14330    0.46400    0.97780    1.000
    C20      C        0.04270    0.66460    0.71590    1.000
    O5       O        0.07520    0.75080    0.68210    1.000
    N2       N        0.94090    0.58510    0.67000    1.000
    N3       N        0.87090    0.60170    0.57930    1.000
    C21      C        0.77750    0.52300    0.53890    1.000
    H13      H        0.76060    0.45820    0.57150    1.000
    C22      C        0.69650    0.53320    0.44180    1.000
    C23      C        0.69870    0.63250    0.40080    1.000
    H14      H        0.75510    0.69670    0.43460    1.000
    C24      C        0.61820    0.63690    0.31070    1.000
    H15      H        0.62240    0.70510    0.28260    1.000
    N4       N        0.53380    0.54990    0.26040    1.000
    C25      C        0.53110    0.45460    0.30080    1.000
    H16      H        0.47190    0.39210    0.26630    1.000
    C26      C        0.61080    0.44230    0.39070    1.000
    H17      H        0.60650    0.37280    0.41660    1.000
    H18      H        0.91000    0.52600    0.69800    1.000
    C27      C        0.15900    0.98610    0.39860    1.000
    H19      H        0.19850    0.06130    0.40590    1.000
    C28      C        0.22000    0.90410    0.32770    1.000
    H20      H        0.29800    0.92320    0.28310    1.000
    C29      C        0.08560    0.03220    0.00790    1.000
    C30      C        0.16330    0.05570    0.92000    1.000
    H21      H        0.15480    0.00450    0.85630    1.000
    C31      C        0.25260    0.15280    0.92460    1.000
    H22      H        0.32050    0.16110    0.86960    1.000
    Zn2      Zn       0.59538    0.42495    0.87307    1.000
    O6       O        0.64940    0.26504    0.80078    1.000
    O7       O        0.79990    0.39855    0.75487    1.000
    C32      C        0.75770    0.29660    0.74910    1.000
    C33      C        0.83560    0.20950    0.67770    1.000
    C34      C        0.92390    0.23660    0.59760    1.000
    H23      H        0.94180    0.31290    0.58990    1.000
    C35      C        0.98740    0.15470    0.52760    1.000
    H24      H        0.04620    0.17570    0.47190    1.000
    C36      C        0.96690    0.04420    0.53770    1.000
    C37      C        0.91910    0.02250    0.63830    1.000
    H25      H        0.93560    0.95260    0.66000    1.000
    C38      C        0.84850    0.10370    0.70460    1.000
    H26      H        0.80860    0.08680    0.76900    1.000
    O8       O        0.64520    0.59083    0.90060    1.000
    O9       O        0.59230    0.64286    0.07025    1.000
    C39      C        0.65470    0.65650    0.98630    1.000
    C40      C        0.75620    0.75900    0.98850    1.000
    C41      C        0.80390    0.79730    0.90020    1.000
    H27      H        0.77180    0.75820    0.83350    1.000
    C42      C        0.89910    0.89260    0.90530    1.000
    H28      H        0.90990    0.93150    0.84670    1.000
    C43      C        0.98200    0.93120    0.00290    1.000
    C44      C        0.96290    0.87530    0.08850    1.000
    H29      H        0.02180    0.89850    0.15030    1.000
    C45      C        0.85840    0.78570    0.08500    1.000
    H30      H        0.85090    0.74260    0.14080    1.000
    N5       N        0.72990    0.39660    0.00640    1.000
    C46      C        0.70280    0.30320    0.04830    1.000
    H31      H        0.63030    0.24890    0.01530    1.000
    C47      C        0.77550    0.28220    0.13710    1.000
    H32      H        0.75240    0.21490    0.16480    1.000
    C48      C        0.88280    0.36040    0.18590    1.000
    C49      C        0.91350    0.45540    0.14130    1.000
    H33      H        0.98770    0.51010    0.17130    1.000
    C50      C        0.83470    0.47010    0.05210    1.000
    H34      H        0.85670    0.53600    0.02220    1.000
    C51      C        0.95730    0.33540    0.28410    1.000
    O10      O        0.92480    0.24920    0.31790    1.000
    N6       N        0.05910    0.41490    0.33000    1.000
    N7       N        0.12910    0.39830    0.42070    1.000
    C52      C        0.22250    0.47700    0.46110    1.000
    H35      H        0.23940    0.54180    0.42850    1.000
    C53      C        0.30350    0.46680    0.55820    1.000
    C54      C        0.30130    0.36750    0.59920    1.000
    H36      H        0.24490    0.30330    0.56540    1.000
    C55      C        0.38180    0.36310    0.68930    1.000
    H37      H        0.37760    0.29490    0.71740    1.000
    N8       N        0.46620    0.45010    0.73960    1.000
    C56      C        0.46890    0.54540    0.69920    1.000
    H38      H        0.52810    0.60790    0.73370    1.000
    C57      C        0.38920    0.55770    0.60930    1.000
    H39      H        0.39350    0.62720    0.58340    1.000
    H40      H        0.09000    0.47400    0.30200    1.000
    C58      C        0.84100    0.01390    0.60140    1.000
    H41      H        0.80150    0.93870    0.59410    1.000
    C59      C        0.78000    0.09590    0.67230    1.000
    H42      H        0.70200    0.07680    0.71690    1.000
    C60      C        0.91440    0.96780    0.99210    1.000
    C61      C        0.83670    0.94430    0.08000    1.000
    H43      H        0.84520    0.99550    0.14370    1.000
    C62      C        0.74740    0.84720    0.07540    1.000
    H44      H        0.67950    0.83890    0.13040    1.000
