data_functionalizedCrystal
_audit_creation_method	'EQeq! by Chris Wilmer'
_symmetry_space_group_name_H-M	'P1'
_symmetry_Int_Tables_number	1
_symmetry_cell_setting	triclinic
loop_
_symmetry_equiv_pos_as_xyz
  x,y,z
_cell_length_a	6.7588
_cell_length_b	15.1941
_cell_length_c	15.1941
_cell_angle_alpha	62.1589
_cell_angle_beta	81.4729
_cell_angle_gamma	98.5271
loop_
_atom_site_label
_atom_site_type_symbol
_atom_site_fract_x
_atom_site_fract_y
_atom_site_fract_z
_atom_site_charge
Mof_Mg	Mg	0.38998	0.42024	0.31416	1.467
Mof_Mg	Mg	0.70414	0.31416	0.2656	1.466
Mof_Mg	Mg	0.96974	0.2656	0.42024	1.466
Mof_Mg	Mg	0.61002	0.57976	0.68584	1.466
Mof_Mg	Mg	0.29586	0.68584	0.7344	1.466
Mof_Mg	Mg	0.03026	0.7344	0.57976	1.466
Mof_C 	C 	0.76525	0.43803	0.38268	0.449
Mof_C 	C 	0.89068	0.46229	0.44885	-0.23
Mof_C 	C 	0.80888	0.53576	0.47642	-0.078
Mof_C 	C 	0.06425	0.43793	0.46778	0.216
Mof_C 	C 	0.14793	0.38268	0.17929	0.45
Mof_C 	C 	0.33953	0.44885	0.08886	-0.229
Mof_C 	C 	0.2853	0.47642	0.98782	-0.078
Mof_C 	C 	0.53203	0.46778	0.09429	0.215
Mof_C 	C 	0.32722	0.17929	0.43803	0.449
Mof_C 	C 	0.42839	0.08886	0.46229	-0.23
Mof_C 	C 	0.27312	0.98782	0.53576	-0.078
Mof_C 	C 	0.62632	0.09429	0.43793	0.218
Mof_C 	C 	0.23475	0.56197	0.61732	0.451
Mof_C 	C 	0.10932	0.53771	0.55115	-0.233
Mof_C 	C 	0.19112	0.46424	0.52358	-0.072
Mof_C 	C 	0.93575	0.56207	0.53222	0.22
Mof_C 	C 	0.85207	0.61732	0.82071	0.452
Mof_C 	C 	0.66047	0.55115	0.91114	-0.232
Mof_C 	C 	0.7147	0.52358	0.01218	-0.071
Mof_C 	C 	0.46797	0.53222	0.90571	0.22
Mof_C 	C 	0.67278	0.82071	0.56197	0.449
Mof_C 	C 	0.57161	0.91114	0.53771	-0.23
Mof_C 	C 	0.72688	0.01218	0.46424	-0.078
Mof_C 	C 	0.37368	0.90571	0.56207	0.218
Mof_O 	O 	0.60283	0.47502	0.36873	-0.536
Mof_O 	O 	0.8203	0.3806	0.3524	-0.704
Mof_O 	O 	0.13501	0.37149	0.43866	-0.644
Mof_O 	O 	0.97156	0.36873	0.15625	-0.537
Mof_O 	O 	0.1727	0.3524	0.267	-0.703
Mof_O 	O 	0.57367	0.43866	0.18985	-0.644
Mof_O 	O 	0.12781	0.15625	0.47502	-0.534
Mof_O 	O 	0.4397	0.267	0.3806	-0.703
Mof_O 	O 	0.76352	0.18985	0.37149	-0.645
Mof_O 	O 	0.39717	0.52498	0.63127	-0.534
Mof_O 	O 	0.1797	0.6194	0.6476	-0.704
Mof_O 	O 	0.86499	0.62851	0.56134	-0.644
Mof_O 	O 	0.02844	0.63127	0.84375	-0.535
Mof_O 	O 	0.8273	0.6476	0.733	-0.703
Mof_O 	O 	0.42633	0.56134	0.81015	-0.644
Mof_O 	O 	0.87219	0.84375	0.52498	-0.534
Mof_O 	O 	0.5603	0.733	0.6194	-0.703
Mof_O 	O 	0.23648	0.81015	0.62851	-0.645
Mof_H 	H 	0.66603	0.56129	0.45235	0.058
Mof_H 	H 	0.11838	0.45235	0.98636	0.058
Mof_H 	H 	0.10475	0.98636	0.56129	0.056
Mof_H 	H 	0.32957	0.43019	0.54037	0.051
Mof_H 	H 	0.86994	0.54037	0.02945	0.052
Mof_H 	H 	0.89525	0.01364	0.43871	0.056
_end
