# CIF file generated by openbabel 3.1.0, see https://openbabel.org
data_I
_chemical_name_common 'image0'
_cell_length_a 4.9755
_cell_length_b 11.9897
_cell_length_c 8.1805
_cell_angle_alpha 90
_cell_angle_beta 92.416
_cell_angle_gamma 90
_space_group_name_H-M_alt 'P 1'
_space_group_name_Hall 'P 1'
loop_
    _symmetry_equiv_pos_as_xyz
    x,y,z
loop_
    _atom_site_label
    _atom_site_type_symbol
    _atom_site_fract_x
    _atom_site_fract_y
    _atom_site_fract_z
    _atom_site_occupancy
    P1       P        0.00880    0.48500    0.23300    1.000
    O1       O        0.72060    0.52060    0.19130    1.000
    O2       O        0.04100    0.35660    0.23370    1.000
    O3       O        0.20650    0.54510    0.12220    1.000
    C1       C        0.08900    0.53320    0.44280    1.000
    F1       F        0.54600    0.85160    0.95130    1.000
    P2       P        0.99120    0.98500    0.76700    1.000
    O4       O        0.27940    0.02060    0.80870    1.000
    O5       O        0.95900    0.85660    0.76630    1.000
    O6       O        0.79350    0.04510    0.87780    1.000
    C2       C        0.91100    0.03320    0.55720    1.000
    F2       F        0.45400    0.35160    0.04870    1.000
    P3       P        0.99120    0.51500    0.76700    1.000
    O7       O        0.27940    0.47940    0.80870    1.000
    O8       O        0.95900    0.64340    0.76630    1.000
    O9       O        0.79350    0.45490    0.87780    1.000
    C3       C        0.91100    0.46680    0.55720    1.000
    F3       F        0.45400    0.14840    0.04870    1.000
    P4       P        0.00880    0.01500    0.23300    1.000
    O10      O        0.72060    0.97940    0.19130    1.000
    O11      O        0.04100    0.14340    0.23370    1.000
    O12      O        0.20650    0.95490    0.12220    1.000
    C4       C        0.08900    0.96680    0.44280    1.000
    F4       F        0.54600    0.64840    0.95130    1.000
    Al1      Al       0.75320    0.75000    0.85620    1.000
    Al2      Al       0.24680    0.25000    0.14380    1.000
    Al3      Al       0.50000    0.50000    0.00000    1.000
    Al4      Al       0.50000    0.00000    0.00000    1.000
