data_functionalizedCrystal
_audit_creation_method	'EQeq! by Chris Wilmer'
_symmetry_space_group_name_H-M	'P1'
_symmetry_Int_Tables_number	1
_symmetry_cell_setting	triclinic
loop_
_symmetry_equiv_pos_as_xyz
  x,y,z
_cell_length_a	12.4591
_cell_length_b	19.3631
_cell_length_c	25.259
_cell_angle_alpha	90
_cell_angle_beta	100.66
_cell_angle_gamma	90
loop_
_atom_site_label
_atom_site_type_symbol
_atom_site_fract_x
_atom_site_fract_y
_atom_site_fract_z
_atom_site_charge
Mof_U 	U 	0.80382	0.11577	0.3622	0.017
Mof_U 	U 	0.90338	0.0874	0.22769	0.009
Mof_U 	U 	0.60535	0.14415	0.2274	0.003
Mof_U 	U 	0.14969	0.09145	0.34846	0.008
Mof_U 	U 	0.24768	0.11497	0.21356	0.028
Mof_U 	U 	0.44584	0.14368	0.347	0.014
Mof_O 	O 	0.9337	0.0875	0.4398	-0.229
Mof_O 	O 	0.1063	0.0853	0.4341	-0.247
Mof_O 	O 	0.8561	0.1922	0.7436	-0.232
Mof_O 	O 	0.8599	0.0792	0.7562	-0.233
Mof_O 	O 	0.736	0.1214	0.1669	-0.175
Mof_O 	O 	0.72	0.1655	0.083	-0.238
Mof_O 	O 	0.5015	0.8492	0.8589	-0.227
Mof_O 	O 	0.6788	0.8541	0.863	-0.218
Mof_O 	O 	0.954	0.0832	0.1431	-0.216
Mof_O 	O 	0.1259	0.0658	0.139	-0.211
Mof_O 	O 	0.2368	0.3382	0.9377	-0.234
Mof_O 	O 	0.0604	0.3572	0.9317	-0.238
Mof_O 	O 	0.7689	0.1123	0.2718	-0.043
Mof_O 	O 	0.2766	0.1242	0.3024	-0.033
Mof_O 	O 	0.9572	0.0625	0.3265	-0.203
Mof_H 	H 	0.9626	0.0183	0.3305	0.176
Mof_O 	O 	0.0959	0.061	0.2511	-0.17
Mof_H 	H 	0.0828	0.0145	0.2561	0.185
Mof_O 	O 	0.6246	0.1659	0.3259	-0.177
Mof_H 	H 	0.6213	0.2113	0.3146	0.176
Mof_O 	O 	0.4286	0.1707	0.2498	-0.159
Mof_H 	H 	0.4244	0.2182	0.2364	0.178
Mof_C 	C 	0.0325	0.0902	0.4603	0.406
Mof_C 	C 	0.068	0.0981	0.5193	-0.41
Mof_H 	H 	0.1304	0.1306	0.5257	0.168
Mof_H 	H 	0.0954	0.0528	0.5342	0.165
Mof_C 	C 	0.9822	0.1238	0.5514	0.147
Mof_H 	H 	0.9588	0.171	0.5394	0.003
Mof_H 	H 	0.9173	0.0933	0.544	0.007
Mof_C 	C 	0.0267	0.1246	0.6117	-0.299
Mof_H 	H 	0.0554	0.0781	0.6228	0.124
Mof_H 	H 	0.0886	0.1574	0.619	0.133
Mof_C 	C 	0.9433	0.1445	0.6454	0.129
Mof_H 	H 	0.874	0.1198	0.632	0.008
Mof_H 	H 	0.9287	0.1947	0.6417	0.013
Mof_C 	C 	0.9831	0.127	0.7049	-0.371
Mof_H 	H 	0.0118	0.0792	0.7078	0.147
Mof_H 	H 	0.0438	0.1584	0.72	0.155
Mof_C 	C 	0.8938	0.1332	0.7378	0.381
Mof_C 	C 	0.7173	0.1166	0.1136	0.368
Mof_C 	C 	0.6918	0.0439	0.0928	-0.352
Mof_H 	H 	0.626	0.0275	0.1058	0.153
Mof_H 	H 	0.7532	0.0134	0.1087	0.152
Mof_C 	C 	0.6719	0.0359	0.0303	0.101
Mof_H 	H 	0.6059	0.0621	0.0138	0.008
Mof_H 	H 	0.735	0.0548	0.0162	0.01
Mof_C 	C 	0.6571	0.9597	0.0158	-0.274
Mof_H 	H 	0.7234	0.9344	0.0331	0.105
Mof_H 	H 	0.595	0.9415	0.0311	0.112
Mof_C 	C 	0.6366	0.9448	0.9568	0.126
Mof_H 	H 	0.7015	0.9587	0.9419	0.009
Mof_H 	H 	0.5739	0.9729	0.9388	0.002
Mof_C 	C 	0.6128	0.8695	0.9443	-0.383
Mof_H 	H 	0.6744	0.841	0.9627	0.14
Mof_H 	H 	0.5463	0.8556	0.9578	0.156
Mof_C 	C 	0.5962	0.8573	0.8848	0.377
Mof_C 	C 	0.0281	0.0709	0.1171	0.377
Mof_C 	C 	0.9927	0.0564	0.0585	-0.382
Mof_H 	H 	0.924	0.0294	0.0527	0.146
Mof_H 	H 	0.0492	0.0286	0.0455	0.144
Mof_C 	C 	0.975	0.1227	0.0273	0.142
Mof_H 	H 	0.9138	0.1477	0.0387	0.018
Mof_H 	H 	0.9519	0.1111	0.9886	-0.005
Mof_C 	C 	0.0733	0.1719	0.0328	-0.318
Mof_H 	H 	0.0842	0.1927	0.0692	0.147
Mof_H 	H 	0.139	0.1439	0.0309	0.125
Mof_C 	C 	0.0678	0.2274	0.9939	0.158
Mof_H 	H 	0.9962	0.2503	0.9923	0.024
Mof_H 	H 	0.0661	0.2056	0.9583	0.002
Mof_C 	C 	0.1523	0.2839	0.9993	-0.404
Mof_H 	H 	0.1454	0.3121	0.0312	0.156
Mof_H 	H 	0.2254	0.262	0.0068	0.154
Mof_C 	C 	0.1485	0.3313	0.9527	0.407
Mof_O 	O 	0.3231	0.1152	0.4136	-0.057
Mof_O 	O 	0.3051	0.1863	0.4787	0.233
Mof_O 	O 	0.6769	0.879	0.5897	-0.122
Mof_O 	O 	0.6576	0.8321	0.5093	-0.475
Mof_C 	C 	0.328	0.1276	0.4617	0.161
Mof_C 	C 	0.382	0.0767	0.5046	-0.265
Mof_H 	H 	0.4614	0.0857	0.5143	0.158
Mof_H 	H 	0.3498	0.0829	0.5373	0.103
Mof_C 	C 	0.3621	0.0042	0.4842	0.171
Mof_H 	H 	0.3367	0.9751	0.5117	-0.015
Mof_H 	H 	0.3053	0.0038	0.4511	-0.015
Mof_C 	C 	0.4688	0.9753	0.4719	-0.003
Mof_H 	H 	0.4861	0.9975	0.4392	-0.003
Mof_H 	H 	0.4631	0.9248	0.4658	-0.039
Mof_C 	C 	0.5576	0.9913	0.5205	-0.211
Mof_H 	H 	0.5355	0.9742	0.5539	0.129
Mof_H 	H 	0.5692	0.0418	0.5239	0.092
Mof_C 	C 	0.6609	0.9549	0.5133	-0.069
Mof_H 	H 	0.6632	0.9516	0.4744	0.068
Mof_H 	H 	0.7254	0.9814	0.5312	0.041
Mof_C 	C 	0.661	0.8834	0.5393	0.213
Mof_U 	U 	0.69618	0.61577	0.1378	0.016
Mof_U 	U 	0.59662	0.5874	0.27231	0.008
Mof_U 	U 	0.89465	0.64415	0.2726	0.001
Mof_U 	U 	0.35031	0.59145	0.15154	0.007
Mof_U 	U 	0.25232	0.61497	0.28644	0.028
Mof_U 	U 	0.05416	0.64368	0.153	0.013
Mof_O 	O 	0.5663	0.5875	0.0602	-0.232
Mof_O 	O 	0.3937	0.5853	0.0659	-0.248
Mof_O 	O 	0.6439	0.6922	0.7564	-0.234
Mof_O 	O 	0.6401	0.5792	0.7438	-0.236
Mof_O 	O 	0.764	0.6214	0.3331	-0.176
Mof_O 	O 	0.78	0.6655	0.417	-0.239
Mof_O 	O 	0.9985	0.3492	0.6411	-0.228
Mof_O 	O 	0.8212	0.3541	0.637	-0.219
Mof_O 	O 	0.546	0.5832	0.3569	-0.222
Mof_O 	O 	0.3741	0.5658	0.361	-0.214
Mof_O 	O 	0.2632	0.8382	0.5623	-0.234
Mof_O 	O 	0.4396	0.8572	0.5683	-0.239
Mof_O 	O 	0.7311	0.6123	0.2282	-0.044
Mof_O 	O 	0.2234	0.6242	0.1976	-0.033
Mof_O 	O 	0.5428	0.5625	0.1735	-0.203
Mof_H 	H 	0.5374	0.5183	0.1695	0.176
Mof_O 	O 	0.4041	0.561	0.2489	-0.169
Mof_H 	H 	0.4172	0.5145	0.2439	0.186
Mof_O 	O 	0.8754	0.6659	0.1741	-0.177
Mof_H 	H 	0.8787	0.7113	0.1854	0.175
Mof_O 	O 	0.0714	0.6707	0.2502	-0.159
Mof_H 	H 	0.0756	0.7182	0.2636	0.179
Mof_C 	C 	0.4675	0.5902	0.0397	0.408
Mof_C 	C 	0.432	0.5981	0.9807	-0.407
Mof_H 	H 	0.3696	0.6306	0.9743	0.168
Mof_H 	H 	0.4046	0.5528	0.9658	0.164
Mof_C 	C 	0.5178	0.6238	0.9486	0.141
Mof_H 	H 	0.5412	0.671	0.9606	0.004
Mof_H 	H 	0.5827	0.5933	0.956	0.008
Mof_C 	C 	0.4733	0.6246	0.8883	-0.294
Mof_H 	H 	0.4446	0.5781	0.8772	0.123
Mof_H 	H 	0.4114	0.6574	0.881	0.132
Mof_C 	C 	0.5567	0.6445	0.8546	0.128
Mof_H 	H 	0.626	0.6198	0.868	0.008
Mof_H 	H 	0.5713	0.6947	0.8583	0.013
Mof_C 	C 	0.5169	0.627	0.7951	-0.377
Mof_H 	H 	0.4882	0.5792	0.7922	0.15
Mof_H 	H 	0.4562	0.6584	0.78	0.157
Mof_C 	C 	0.6062	0.6332	0.7622	0.383
Mof_C 	C 	0.7827	0.6166	0.3864	0.368
Mof_C 	C 	0.8082	0.5439	0.4072	-0.352
Mof_H 	H 	0.874	0.5275	0.3942	0.154
Mof_H 	H 	0.7468	0.5134	0.3913	0.152
Mof_C 	C 	0.8281	0.5359	0.4697	0.102
Mof_H 	H 	0.8941	0.5621	0.4862	0.007
Mof_H 	H 	0.765	0.5548	0.4838	0.009
Mof_C 	C 	0.8429	0.4597	0.4842	-0.276
Mof_H 	H 	0.7766	0.4344	0.4669	0.106
Mof_H 	H 	0.905	0.4415	0.4689	0.112
Mof_C 	C 	0.8634	0.4448	0.5432	0.128
Mof_H 	H 	0.7985	0.4587	0.5581	0.009
Mof_H 	H 	0.9261	0.4729	0.5612	0.001
Mof_C 	C 	0.8872	0.3695	0.5557	-0.384
Mof_H 	H 	0.8256	0.341	0.5373	0.141
Mof_H 	H 	0.9537	0.3556	0.5422	0.157
Mof_C 	C 	0.9038	0.3573	0.6152	0.377
Mof_C 	C 	0.4719	0.5709	0.3829	0.387
Mof_C 	C 	0.5073	0.5564	0.4415	-0.396
Mof_H 	H 	0.576	0.5294	0.4473	0.149
Mof_H 	H 	0.4508	0.5286	0.4545	0.15
Mof_C 	C 	0.525	0.6227	0.4727	0.145
Mof_H 	H 	0.5862	0.6477	0.4613	0.017
Mof_H 	H 	0.5481	0.6111	0.5114	-0.007
Mof_C 	C 	0.4267	0.6719	0.4672	-0.317
Mof_H 	H 	0.4158	0.6927	0.4308	0.147
Mof_H 	H 	0.361	0.6439	0.4691	0.125
Mof_C 	C 	0.4322	0.7274	0.5061	0.159
Mof_H 	H 	0.5038	0.7503	0.5077	0.024
Mof_H 	H 	0.4339	0.7056	0.5417	0.002
Mof_C 	C 	0.3477	0.7839	0.5007	-0.408
Mof_H 	H 	0.3546	0.8121	0.4688	0.158
Mof_H 	H 	0.2746	0.762	0.4932	0.156
Mof_C 	C 	0.3515	0.8313	0.5473	0.409
Mof_O 	O 	0.1769	0.6152	0.0864	-0.057
Mof_O 	O 	0.1949	0.6863	0.0213	0.233
Mof_O 	O 	0.8231	0.379	0.9103	-0.122
Mof_O 	O 	0.8424	0.3321	0.9907	-0.476
Mof_C 	C 	0.172	0.6276	0.0383	0.161
Mof_C 	C 	0.118	0.5767	0.9954	-0.266
Mof_H 	H 	0.0386	0.5857	0.9857	0.159
Mof_H 	H 	0.1502	0.5829	0.9627	0.103
Mof_C 	C 	0.1379	0.5042	0.0158	0.17
Mof_H 	H 	0.1633	0.4751	0.9883	-0.015
Mof_H 	H 	0.1947	0.5038	0.0489	-0.014
Mof_C 	C 	0.0312	0.4753	0.0281	-0.003
Mof_H 	H 	0.0139	0.4975	0.0608	-0.004
Mof_H 	H 	0.0369	0.4248	0.0342	-0.04
Mof_C 	C 	0.9424	0.4913	0.9795	-0.211
Mof_H 	H 	0.9645	0.4742	0.9461	0.129
Mof_H 	H 	0.9308	0.5418	0.9761	0.091
Mof_C 	C 	0.8391	0.4549	0.9867	-0.068
Mof_H 	H 	0.8368	0.4516	0.0256	0.068
Mof_H 	H 	0.7746	0.4814	0.9688	0.041
Mof_C 	C 	0.839	0.3834	0.9607	0.213
Mof_U 	U 	0.19618	0.88423	0.6378	0.016
Mof_U 	U 	0.09662	0.9126	0.77231	0.008
Mof_U 	U 	0.39465	0.85585	0.7726	0.002
Mof_U 	U 	0.85031	0.90855	0.65154	0.007
Mof_U 	U 	0.75232	0.88503	0.78644	0.027
Mof_U 	U 	0.55416	0.85632	0.653	0.013
Mof_O 	O 	0.0663	0.9125	0.5602	-0.23
Mof_O 	O 	0.8937	0.9147	0.5659	-0.248
Mof_O 	O 	0.1439	0.8078	0.2564	-0.233
Mof_O 	O 	0.1401	0.9208	0.2438	-0.234
Mof_O 	O 	0.264	0.8786	0.8331	-0.176
Mof_O 	O 	0.28	0.8345	0.917	-0.239
Mof_O 	O 	0.4985	0.1508	0.1411	-0.228
Mof_O 	O 	0.3212	0.1459	0.137	-0.219
Mof_O 	O 	0.046	0.9168	0.8569	-0.217
Mof_O 	O 	0.8741	0.9342	0.861	-0.212
Mof_O 	O 	0.7632	0.6618	0.0623	-0.234
Mof_O 	O 	0.9396	0.6428	0.0683	-0.238
Mof_O 	O 	0.2311	0.8877	0.7282	-0.043
Mof_O 	O 	0.7234	0.8758	0.6976	-0.033
Mof_O 	O 	0.0428	0.9375	0.6735	-0.203
Mof_H 	H 	0.0374	0.9817	0.6695	0.176
Mof_O 	O 	0.9041	0.939	0.7489	-0.17
Mof_H 	H 	0.9172	0.9855	0.7439	0.185
Mof_O 	O 	0.3754	0.8341	0.6741	-0.177
Mof_H 	H 	0.3787	0.7887	0.6854	0.176
Mof_O 	O 	0.5714	0.8293	0.7502	-0.159
Mof_H 	H 	0.5756	0.7818	0.7636	0.178
Mof_C 	C 	0.9675	0.9098	0.5397	0.406
Mof_C 	C 	0.932	0.9019	0.4807	-0.41
Mof_H 	H 	0.8696	0.8694	0.4743	0.168
Mof_H 	H 	0.9046	0.9472	0.4658	0.165
Mof_C 	C 	0.0178	0.8762	0.4486	0.147
Mof_H 	H 	0.0412	0.829	0.4606	0.003
Mof_H 	H 	0.0827	0.9067	0.456	0.007
Mof_C 	C 	0.9733	0.8754	0.3883	-0.299
Mof_H 	H 	0.9446	0.9219	0.3772	0.124
Mof_H 	H 	0.9114	0.8426	0.381	0.133
Mof_C 	C 	0.0567	0.8555	0.3546	0.129
Mof_H 	H 	0.126	0.8802	0.368	0.008
Mof_H 	H 	0.0713	0.8053	0.3583	0.013
Mof_C 	C 	0.0169	0.873	0.2951	-0.371
Mof_H 	H 	0.9882	0.9208	0.2922	0.147
Mof_H 	H 	0.9562	0.8416	0.28	0.155
Mof_C 	C 	0.1062	0.8668	0.2622	0.381
Mof_C 	C 	0.2827	0.8834	0.8864	0.368
Mof_C 	C 	0.3082	0.9561	0.9072	-0.352
Mof_H 	H 	0.374	0.9725	0.8942	0.153
Mof_H 	H 	0.2468	0.9866	0.8913	0.152
Mof_C 	C 	0.3281	0.9641	0.9697	0.101
Mof_H 	H 	0.3941	0.9379	0.9862	0.008
Mof_H 	H 	0.265	0.9452	0.9838	0.01
Mof_C 	C 	0.3429	0.0403	0.9842	-0.274
Mof_H 	H 	0.2766	0.0656	0.9669	0.105
Mof_H 	H 	0.405	0.0585	0.9689	0.112
Mof_C 	C 	0.3634	0.0552	0.0432	0.126
Mof_H 	H 	0.2985	0.0413	0.0581	0.009
Mof_H 	H 	0.4261	0.0271	0.0612	0.002
Mof_C 	C 	0.3872	0.1305	0.0557	-0.383
Mof_H 	H 	0.3256	0.159	0.0373	0.14
Mof_H 	H 	0.4537	0.1444	0.0422	0.156
Mof_C 	C 	0.4038	0.1427	0.1152	0.377
Mof_C 	C 	0.9719	0.9291	0.8829	0.377
Mof_C 	C 	0.0073	0.9436	0.9415	-0.382
Mof_H 	H 	0.076	0.9706	0.9473	0.146
Mof_H 	H 	0.9508	0.9714	0.9545	0.144
Mof_C 	C 	0.025	0.8773	0.9727	0.142
Mof_H 	H 	0.0862	0.8523	0.9613	0.018
Mof_H 	H 	0.0481	0.8889	0.0114	-0.005
Mof_C 	C 	0.9267	0.8281	0.9672	-0.318
Mof_H 	H 	0.9158	0.8073	0.9308	0.147
Mof_H 	H 	0.861	0.8561	0.9691	0.125
Mof_C 	C 	0.9322	0.7726	0.0061	0.158
Mof_H 	H 	0.0038	0.7497	0.0077	0.024
Mof_H 	H 	0.9339	0.7944	0.0417	0.002
Mof_C 	C 	0.8477	0.7161	0.0007	-0.404
Mof_H 	H 	0.8546	0.6879	0.9688	0.156
Mof_H 	H 	0.7746	0.738	0.9932	0.154
Mof_C 	C 	0.8515	0.6687	0.0473	0.407
Mof_O 	O 	0.6769	0.8848	0.5864	-0.057
Mof_O 	O 	0.6949	0.8137	0.5213	0.233
Mof_O 	O 	0.3231	0.121	0.4103	-0.122
Mof_O 	O 	0.3424	0.1679	0.4907	-0.475
Mof_C 	C 	0.672	0.8724	0.5383	0.161
Mof_C 	C 	0.618	0.9233	0.4954	-0.265
Mof_H 	H 	0.5386	0.9143	0.4857	0.158
Mof_H 	H 	0.6502	0.9171	0.4627	0.103
Mof_C 	C 	0.6379	0.9958	0.5158	0.171
Mof_H 	H 	0.6633	0.0249	0.4883	-0.015
Mof_H 	H 	0.6947	0.9962	0.5489	-0.015
Mof_C 	C 	0.5312	0.0247	0.5281	-0.003
Mof_H 	H 	0.5139	0.0025	0.5608	-0.003
Mof_H 	H 	0.5369	0.0752	0.5342	-0.039
Mof_C 	C 	0.4424	0.0087	0.4795	-0.211
Mof_H 	H 	0.4645	0.0258	0.4461	0.129
Mof_H 	H 	0.4308	0.9582	0.4761	0.092
Mof_C 	C 	0.3391	0.0451	0.4867	-0.069
Mof_H 	H 	0.3368	0.0484	0.5256	0.068
Mof_H 	H 	0.2746	0.0186	0.4688	0.041
Mof_C 	C 	0.339	0.1166	0.4607	0.213
Mof_U 	U 	0.30382	0.38423	0.8622	0.016
Mof_U 	U 	0.40338	0.4126	0.72769	0.008
Mof_U 	U 	0.10535	0.35585	0.7274	0.001
Mof_U 	U 	0.64969	0.40855	0.84846	0.007
Mof_U 	U 	0.74768	0.38503	0.71356	0.028
Mof_U 	U 	0.94584	0.35632	0.847	0.013
Mof_O 	O 	0.4337	0.4125	0.9398	-0.232
Mof_O 	O 	0.6063	0.4147	0.9341	-0.248
Mof_O 	O 	0.3561	0.3078	0.2436	-0.234
Mof_O 	O 	0.3599	0.4208	0.2562	-0.236
Mof_O 	O 	0.236	0.3786	0.6669	-0.176
Mof_O 	O 	0.22	0.3345	0.583	-0.239
Mof_O 	O 	0.0015	0.6508	0.3589	-0.228
Mof_O 	O 	0.1788	0.6459	0.363	-0.219
Mof_O 	O 	0.454	0.4168	0.6431	-0.222
Mof_O 	O 	0.6259	0.4342	0.639	-0.214
Mof_O 	O 	0.7368	0.1618	0.4377	-0.234
Mof_O 	O 	0.5604	0.1428	0.4317	-0.239
Mof_O 	O 	0.2689	0.3877	0.7718	-0.044
Mof_O 	O 	0.7766	0.3758	0.8024	-0.033
Mof_O 	O 	0.4572	0.4375	0.8265	-0.203
Mof_H 	H 	0.4626	0.4817	0.8305	0.176
Mof_O 	O 	0.5959	0.439	0.7511	-0.169
Mof_H 	H 	0.5828	0.4855	0.7561	0.186
Mof_O 	O 	0.1246	0.3341	0.8259	-0.177
Mof_H 	H 	0.1213	0.2887	0.8146	0.175
Mof_O 	O 	0.9286	0.3293	0.7498	-0.159
Mof_H 	H 	0.9244	0.2818	0.7364	0.179
Mof_C 	C 	0.5325	0.4098	0.9603	0.408
Mof_C 	C 	0.568	0.4019	0.0193	-0.407
Mof_H 	H 	0.6304	0.3694	0.0257	0.168
Mof_H 	H 	0.5954	0.4472	0.0342	0.164
Mof_C 	C 	0.4822	0.3762	0.0514	0.141
Mof_H 	H 	0.4588	0.329	0.0394	0.004
Mof_H 	H 	0.4173	0.4067	0.044	0.008
Mof_C 	C 	0.5267	0.3754	0.1117	-0.294
Mof_H 	H 	0.5554	0.4219	0.1228	0.123
Mof_H 	H 	0.5886	0.3426	0.119	0.132
Mof_C 	C 	0.4433	0.3555	0.1454	0.128
Mof_H 	H 	0.374	0.3802	0.132	0.008
Mof_H 	H 	0.4287	0.3053	0.1417	0.013
Mof_C 	C 	0.4831	0.373	0.2049	-0.377
Mof_H 	H 	0.5118	0.4208	0.2078	0.15
Mof_H 	H 	0.5438	0.3416	0.22	0.157
Mof_C 	C 	0.3938	0.3668	0.2378	0.383
Mof_C 	C 	0.2173	0.3834	0.6136	0.368
Mof_C 	C 	0.1918	0.4561	0.5928	-0.352
Mof_H 	H 	0.126	0.4725	0.6058	0.154
Mof_H 	H 	0.2532	0.4866	0.6087	0.152
Mof_C 	C 	0.1719	0.4641	0.5303	0.102
Mof_H 	H 	0.1059	0.4379	0.5138	0.007
Mof_H 	H 	0.235	0.4452	0.5162	0.009
Mof_C 	C 	0.1571	0.5403	0.5158	-0.276
Mof_H 	H 	0.2234	0.5656	0.5331	0.106
Mof_H 	H 	0.095	0.5585	0.5311	0.112
Mof_C 	C 	0.1366	0.5552	0.4568	0.128
Mof_H 	H 	0.2015	0.5413	0.4419	0.009
Mof_H 	H 	0.0739	0.5271	0.4388	0.001
Mof_C 	C 	0.1128	0.6305	0.4443	-0.384
Mof_H 	H 	0.1744	0.659	0.4627	0.141
Mof_H 	H 	0.0463	0.6444	0.4578	0.157
Mof_C 	C 	0.0962	0.6427	0.3848	0.377
Mof_C 	C 	0.5281	0.4291	0.6171	0.387
Mof_C 	C 	0.4927	0.4436	0.5585	-0.396
Mof_H 	H 	0.424	0.4706	0.5527	0.149
Mof_H 	H 	0.5492	0.4714	0.5455	0.15
Mof_C 	C 	0.475	0.3773	0.5273	0.145
Mof_H 	H 	0.4138	0.3523	0.5387	0.017
Mof_H 	H 	0.4519	0.3889	0.4886	-0.007
Mof_C 	C 	0.5733	0.3281	0.5328	-0.317
Mof_H 	H 	0.5842	0.3073	0.5692	0.147
Mof_H 	H 	0.639	0.3561	0.5309	0.125
Mof_C 	C 	0.5678	0.2726	0.4939	0.159
Mof_H 	H 	0.4962	0.2497	0.4923	0.024
Mof_H 	H 	0.5661	0.2944	0.4583	0.002
Mof_C 	C 	0.6523	0.2161	0.4993	-0.408
Mof_H 	H 	0.6454	0.1879	0.5312	0.158
Mof_H 	H 	0.7254	0.238	0.5068	0.156
Mof_C 	C 	0.6485	0.1687	0.4527	0.409
Mof_O 	O 	0.8231	0.3848	0.9136	-0.057
Mof_O 	O 	0.8051	0.3137	0.9787	0.233
Mof_O 	O 	0.1769	0.621	0.0897	-0.122
Mof_O 	O 	0.1576	0.6679	0.0093	-0.476
Mof_C 	C 	0.828	0.3724	0.9617	0.161
Mof_C 	C 	0.882	0.4233	0.0046	-0.266
Mof_H 	H 	0.9614	0.4143	0.0143	0.159
Mof_H 	H 	0.8498	0.4171	0.0373	0.103
Mof_C 	C 	0.8621	0.4958	0.9842	0.17
Mof_H 	H 	0.8367	0.5249	0.0117	-0.015
Mof_H 	H 	0.8053	0.4962	0.9511	-0.014
Mof_C 	C 	0.9688	0.5247	0.9719	-0.003
Mof_H 	H 	0.9861	0.5025	0.9392	-0.004
Mof_H 	H 	0.9631	0.5752	0.9658	-0.04
Mof_C 	C 	0.0576	0.5087	0.0205	-0.211
Mof_H 	H 	0.0355	0.5258	0.0539	0.129
Mof_H 	H 	0.0692	0.4582	0.0239	0.091
Mof_C 	C 	0.1609	0.5451	0.0133	-0.068
Mof_H 	H 	0.1632	0.5484	0.9744	0.068
Mof_H 	H 	0.2254	0.5186	0.0312	0.041
Mof_C 	C 	0.161	0.6166	0.0393	0.213
_end
