# CIF file generated by openbabel 3.1.0, see https://openbabel.org
data_I
_chemical_name_common 'image0'
_cell_length_a 15.8585
_cell_length_b 13.419
_cell_length_c 6.6158
_cell_angle_alpha 90
_cell_angle_beta 97.925
_cell_angle_gamma 90
_space_group_name_H-M_alt 'P 1'
_space_group_name_Hall 'P 1'
loop_
    _symmetry_equiv_pos_as_xyz
    x,y,z
loop_
    _atom_site_label
    _atom_site_type_symbol
    _atom_site_fract_x
    _atom_site_fract_y
    _atom_site_fract_z
    _atom_site_occupancy
    Er1      Er       0.24882    0.56099    0.03600    1.000
    C1       C        0.14290    0.38850    0.98330    1.000
    C2       C        0.08680    0.29680    0.94610    1.000
    C3       C        0.12440    0.20320    0.95210    1.000
    C4       C        0.99550    0.12630    0.87970    1.000
    C5       C        0.95150    0.21610    0.87700    1.000
    C6       C        0.99970    0.30370    0.90740    1.000
    C7       C        0.85650    0.21690    0.83670    1.000
    C8       C        0.39950    0.55190    0.33330    1.000
    C9       C        0.47810    0.54860    0.49040    1.000
    N1       N        0.07988    0.11876    0.91700    1.000
    O1       O        0.11087    0.47319    0.94280    1.000
    O2       O        0.21950    0.37756    0.05610    1.000
    O3       O        0.81892    0.13690    0.78280    1.000
    O4       O        0.81898    0.29670    0.86550    1.000
    O5       O        0.38482    0.48790    0.19280    1.000
    O6       O        0.34680    0.62110    0.34600    1.000
    H1       H        0.18330    0.19900    0.98190    1.000
    H2       H        0.96400    0.06800    0.85390    1.000
    H3       H        0.97310    0.36550    0.90140    1.000
    H4       H        0.51780    0.59860    0.45570    1.000
    H5       H        0.46210    0.56630    0.62210    1.000
    Er2      Er       0.75118    0.06099    0.46400    1.000
    C10      C        0.85710    0.88850    0.51670    1.000
    C11      C        0.91320    0.79680    0.55390    1.000
    C12      C        0.87560    0.70320    0.54790    1.000
    C13      C        0.00450    0.62630    0.62030    1.000
    C14      C        0.04850    0.71610    0.62300    1.000
    C15      C        0.00030    0.80370    0.59260    1.000
    C16      C        0.14350    0.71690    0.66330    1.000
    C17      C        0.60050    0.05190    0.16670    1.000
    C18      C        0.52190    0.04860    0.00960    1.000
    N2       N        0.92012    0.61876    0.58300    1.000
    O7       O        0.88913    0.97319    0.55720    1.000
    O8       O        0.78050    0.87756    0.44390    1.000
    O9       O        0.18108    0.63690    0.71720    1.000
    O10      O        0.18102    0.79670    0.63450    1.000
    O11      O        0.61518    0.98790    0.30720    1.000
    O12      O        0.65320    0.12110    0.15400    1.000
    H6       H        0.81670    0.69900    0.51810    1.000
    H7       H        0.03600    0.56800    0.64610    1.000
    H8       H        0.02690    0.86550    0.59860    1.000
    H9       H        0.48220    0.09860    0.04430    1.000
    H10      H        0.53790    0.06630    0.87790    1.000
    Er3      Er       0.75118    0.43901    0.96400    1.000
    C19      C        0.85710    0.61150    0.01670    1.000
    C20      C        0.91320    0.70320    0.05390    1.000
    C21      C        0.87560    0.79680    0.04790    1.000
    C22      C        0.00450    0.87370    0.12030    1.000
    C23      C        0.04850    0.78390    0.12300    1.000
    C24      C        0.00030    0.69630    0.09260    1.000
    C25      C        0.14350    0.78310    0.16330    1.000
    C26      C        0.60050    0.44810    0.66670    1.000
    C27      C        0.52190    0.45140    0.50960    1.000
    N3       N        0.92012    0.88124    0.08300    1.000
    O13      O        0.88913    0.52681    0.05720    1.000
    O14      O        0.78050    0.62244    0.94390    1.000
    O15      O        0.18108    0.86310    0.21720    1.000
    O16      O        0.18102    0.70330    0.13450    1.000
    O17      O        0.61518    0.51210    0.80720    1.000
    O18      O        0.65320    0.37890    0.65400    1.000
    H11      H        0.81670    0.80100    0.01810    1.000
    H12      H        0.03600    0.93200    0.14610    1.000
    H13      H        0.02690    0.63450    0.09860    1.000
    H14      H        0.48220    0.40140    0.54430    1.000
    H15      H        0.53790    0.43370    0.37790    1.000
    Er4      Er       0.24882    0.93901    0.53600    1.000
    C28      C        0.14290    0.11150    0.48330    1.000
    C29      C        0.08680    0.20320    0.44610    1.000
    C30      C        0.12440    0.29680    0.45210    1.000
    C31      C        0.99550    0.37370    0.37970    1.000
    C32      C        0.95150    0.28390    0.37700    1.000
    C33      C        0.99970    0.19630    0.40740    1.000
    C34      C        0.85650    0.28310    0.33670    1.000
    C35      C        0.39950    0.94810    0.83330    1.000
    C36      C        0.47810    0.95140    0.99040    1.000
    N4       N        0.07988    0.38124    0.41700    1.000
    O19      O        0.11087    0.02681    0.44280    1.000
    O20      O        0.21950    0.12244    0.55610    1.000
    O21      O        0.81892    0.36310    0.28280    1.000
    O22      O        0.81898    0.20330    0.36550    1.000
    O23      O        0.38482    0.01210    0.69280    1.000
    O24      O        0.34680    0.87890    0.84600    1.000
    H16      H        0.18330    0.30100    0.48190    1.000
    H17      H        0.96400    0.43200    0.35390    1.000
    H18      H        0.97310    0.13450    0.40140    1.000
    H19      H        0.51780    0.90140    0.95570    1.000
    H20      H        0.46210    0.93370    0.12210    1.000
