# CIF file generated by openbabel 3.1.0, see https://openbabel.org
data_I
_chemical_name_common 'WORSUT_clean'
_cell_length_a 14.823
_cell_length_b 14.823
_cell_length_c 16.0286
_cell_angle_alpha 83.2547
_cell_angle_beta 83.2547
_cell_angle_gamma 86.8758
_space_group_name_H-M_alt 'P 1'
_space_group_name_Hall 'P 1'
loop_
    _symmetry_equiv_pos_as_xyz
    x,y,z
loop_
    _atom_site_label
    _atom_site_type_symbol
    _atom_site_fract_x
    _atom_site_fract_y
    _atom_site_fract_z
    _atom_site_occupancy
    Zn1      Zn       0.12328    0.89604    0.15597    1.000
    Zn2      Zn       0.10396    0.87672    0.34403    1.000
    B1       B        0.08090    0.40510    0.14190    1.000
    B2       B        0.59490    0.91910    0.35810    1.000
    H1       H        0.12660    0.62060    0.05720    1.000
    H2       H        0.13100    0.14600    0.41740    1.000
    H3       H        0.43220    0.96360    0.42930    1.000
    H4       H        0.45110    0.79770    0.08970    1.000
    H5       H        0.22410    0.69310    0.58350    1.000
    H6       H        0.20230    0.54890    0.41030    1.000
    H7       H        0.10600    0.77200    0.77000    1.000
    H8       H        0.20980    0.75180    0.44710    1.000
    H9       H        0.20630    0.09650    0.35990    1.000
    H10      H        0.28640    0.74280    0.70200    1.000
    H11      H        0.03640    0.56780    0.07070    1.000
    H12      H        0.90350    0.79370    0.14010    1.000
    H13      H        0.80900    0.77560    0.11180    1.000
    H14      H        0.22890    0.29570    0.62180    1.000
    H15      H        0.07190    0.97610    0.97630    1.000
    H16      H        0.03820    0.32100    0.46270    1.000
    H17      H        0.85400    0.86900    0.08260    1.000
    H18      H        0.12090    0.62110    0.41310    1.000
    H19      H        0.65570    0.66310    0.98850    1.000
    H20      H        0.32220    0.86160    0.76100    1.000
    H21      H        0.33690    0.34430    0.51150    1.000
    H22      H        0.61930    0.70390    0.12400    1.000
    H23      H        0.22800    0.89400    0.73000    1.000
    H24      H        0.37940    0.87340    0.44280    1.000
    H25      H        0.06860    0.16040    0.06830    1.000
    H26      H        0.99580    0.23940    0.08310    1.000
    H27      H        0.02390    0.92810    0.52370    1.000
    H28      H        0.10370    0.51830    0.44340    1.000
    H29      H        0.12030    0.95930    0.83730    1.000
    H30      H        0.25720    0.71360    0.79800    1.000
    H31      H        0.24820    0.79020    0.05290    1.000
    H32      H        0.09320    0.26140    0.03830    1.000
    H33      H        0.13840    0.67780    0.73900    1.000
    H34      H        0.29610    0.38070    0.37600    1.000
    H35      H        0.33460    0.96300    0.40100    1.000
    H36      H        0.22440    0.19100    0.38820    1.000
    H37      H        0.48170    0.89630    0.05660    1.000
    H38      H        0.67900    0.96180    0.03730    1.000
    H39      H        0.73860    0.90680    0.46170    1.000
    H40      H        0.76060    0.00420    0.41690    1.000
    H41      H        0.70430    0.77110    0.87820    1.000
    H42      H        0.70980    0.92140    0.90190    1.000
    H43      H        0.03700    0.66540    0.09900    1.000
    H44      H        0.37890    0.87910    0.08690    1.000
    H45      H        0.04070    0.87970    0.66270    1.000
    H46      H        0.07860    0.29020    0.59810    1.000
    H47      H        0.83960    0.93140    0.43170    1.000
    H48      H        0.30690    0.77590    0.91650    1.000
    C1       C        0.68860    0.78800    0.93230    1.000
    C2       C        0.77020    0.90900    0.33530    1.000
    C3       C        0.64710    0.83690    0.09480    1.000
    C4       C        0.53960    0.87940    0.21760    1.000
    C5       C        0.17360    0.77680    0.49070    1.000
    C6       C        0.13440    0.78040    0.63960    1.000
    C7       C        0.10860    0.61200    0.24970    1.000
    C8       C        0.79830    0.85830    0.20500    1.000
    C9       C        0.39070    0.92850    0.40610    1.000
    C10      C        0.12930    0.29670    0.27220    1.000
    C11      C        0.69340    0.87740    0.94670    1.000
    C12      C        0.17920    0.15460    0.37210    1.000
    C13      C        0.25770    0.81610    0.92720    1.000
    C14      C        0.84540    0.82080    0.12790    1.000
    C15      C        0.11212    0.71212    0.24960    1.000
    C16      C        0.38800    0.89140    0.25030    1.000
    C17      C        0.63900    0.74740    0.07980    1.000
    C18      C        0.44040    0.86100    0.09650    1.000
    C19      C        0.21200    0.31140    0.56770    1.000
    C20      C        0.11130    0.06090    0.22470    1.000
    C21      C        0.70330    0.87070    0.22780    1.000
    C22      C        0.07490    0.85130    0.62000    1.000
    C23      C        0.09820    0.32600    0.47240    1.000
    C24      C        0.06590    0.88070    0.53560    1.000
    C25      C        0.09100    0.22980    0.16470    1.000
    C26      C        0.14870    0.92510    0.88000    1.000
    C27      C        0.83950    0.88430    0.27270    1.000
    C28      C        0.18390    0.74230    0.57280    1.000
    C29      C        0.66030    0.72310    0.99860    1.000
    C30      C        0.12260    0.30660    0.55330    1.000
    C31      C        0.21960    0.86560    0.86040    1.000
    C32      C        0.14170    0.20170    0.29500    1.000
    C33      C        0.93910    0.88870    0.27530    1.000
    C34      C        0.07150    0.60930    0.09390    1.000
    C35      C        0.16310    0.35290    0.40520    1.000
    C36      C        0.14950    0.74230    0.73080    1.000
    C37      C        0.05940    0.22200    0.08120    1.000
    C38      C        0.27690    0.33970    0.50140    1.000
    C39      C        0.25260    0.36100    0.42020    1.000
    C40      C        0.11930    0.93410    0.96440    1.000
    C41      C        0.25770    0.85050    0.76920    1.000
    C42      C        0.77800    0.94060    0.41880    1.000
    C43      C        0.13740    0.37160    0.31780    1.000
    C44      C        0.67400    0.90180    0.02760    1.000
    C45      C        0.12360    0.54480    0.31590    1.000
    C46      C        0.24370    0.75630    0.75000    1.000
    C47      C        0.12060    0.46040    0.28240    1.000
    C48      C        0.11570    0.16050    0.22730    1.000
    C49      C        0.62840    0.86260    0.18220    1.000
    C50      C        0.09390    0.56910    0.17850    1.000
    C51      C        0.45520    0.87640    0.18410    1.000
    C52      C        0.28788    0.88788    0.25040    1.000
    C53      C        0.22320    0.82640    0.00930    1.000
    C54      C        0.13900    0.55960    0.40350    1.000
    C55      C        0.43090    0.90610    0.32150    1.000
    N1       N        0.15462    0.88652    0.02900    1.000
    N2       N        0.11348    0.84538    0.47100    1.000
    N3       N        0.68866    0.90110    0.30820    1.000
    N4       N        0.10021    0.47795    0.19930    1.000
    N5       N        0.09890    0.31134    0.19180    1.000
    N6       N        0.52205    0.89979    0.30070    1.000
    O1       O        0.09659    0.74469    0.31990    1.000
    O2       O        0.98870    0.89006    0.20570    1.000
    O3       O        0.10994    0.01130    0.29430    1.000
    O4       O        0.96734    0.89104    0.34690    1.000
    O5       O        0.13006    0.75828    0.17880    1.000
    O6       O        0.24172    0.86994    0.32120    1.000
    O7       O        0.10896    0.03266    0.15310    1.000
    O8       O        0.25531    0.90341    0.18010    1.000
    F1       F        0.99086    0.41354    0.12570    1.000
    F2       F        0.13815    0.41451    0.06700    1.000
    F3       F        0.58549    0.86185    0.43300    1.000
    F4       F        0.58646    0.00914    0.37430    1.000
    Zn3      Zn       0.87672    0.10396    0.84403    1.000
    Zn4      Zn       0.89604    0.12328    0.65597    1.000
    B3       B        0.91910    0.59490    0.85810    1.000
    B4       B        0.40510    0.08090    0.64190    1.000
    H49      H        0.23940    0.99580    0.58310    1.000
    H50      H        0.00420    0.76060    0.91690    1.000
    H51      H        0.66310    0.65570    0.48850    1.000
    H52      H        0.97610    0.07190    0.47630    1.000
    H53      H        0.89630    0.48170    0.55660    1.000
    H54      H        0.14600    0.13100    0.91740    1.000
    H55      H        0.38070    0.29610    0.87600    1.000
    H56      H        0.09650    0.20630    0.85990    1.000
    H57      H        0.51830    0.10370    0.94340    1.000
    H58      H        0.93140    0.83960    0.93170    1.000
    H59      H        0.96300    0.33460    0.90100    1.000
    H60      H        0.96180    0.67900    0.53730    1.000
    H61      H        0.75180    0.20980    0.94710    1.000
    H62      H        0.95930    0.12030    0.33730    1.000
    H63      H        0.79770    0.45110    0.58970    1.000
    H64      H        0.26140    0.09320    0.53830    1.000
    H65      H        0.77110    0.70430    0.37820    1.000
    H66      H        0.32100    0.03820    0.96270    1.000
    H67      H        0.77590    0.30690    0.41650    1.000
    H68      H        0.67780    0.13840    0.23900    1.000
    H69      H        0.70390    0.61930    0.62400    1.000
    H70      H        0.89400    0.22800    0.23000    1.000
    H71      H        0.66540    0.03700    0.59900    1.000
    H72      H        0.29020    0.07860    0.09810    1.000
    H73      H        0.62060    0.12660    0.55720    1.000
    H74      H        0.19100    0.22440    0.88820    1.000
    H75      H        0.92140    0.70980    0.40190    1.000
    H76      H        0.79370    0.90350    0.64010    1.000
    H77      H        0.29570    0.22890    0.12180    1.000
    H78      H        0.87340    0.37940    0.94280    1.000
    H79      H        0.56780    0.03640    0.57070    1.000
    H80      H        0.87970    0.04070    0.16270    1.000
    H81      H        0.16040    0.06860    0.56830    1.000
    H82      H        0.79020    0.24820    0.55290    1.000
    H83      H        0.77560    0.80900    0.61180    1.000
    H84      H        0.34430    0.33690    0.01150    1.000
    H85      H        0.74280    0.28640    0.20200    1.000
    H86      H        0.92810    0.02390    0.02370    1.000
    H87      H        0.90680    0.73860    0.96170    1.000
    H88      H        0.77200    0.10600    0.27000    1.000
    H89      H        0.69310    0.22410    0.08350    1.000
    H90      H        0.86900    0.85400    0.58260    1.000
    H91      H        0.71360    0.25720    0.29800    1.000
    H92      H        0.87910    0.37890    0.58690    1.000
    H93      H        0.62110    0.12090    0.91310    1.000
    H94      H        0.86160    0.32220    0.26100    1.000
    H95      H        0.96360    0.43220    0.92930    1.000
    H96      H        0.54890    0.20230    0.91030    1.000
    C56      C        0.06090    0.11130    0.72470    1.000
    C57      C        0.15460    0.17920    0.87210    1.000
    C58      C        0.90180    0.67400    0.52760    1.000
    C59      C        0.86100    0.44040    0.59650    1.000
    C60      C        0.71212    0.11212    0.74960    1.000
    C61      C        0.90610    0.43090    0.82150    1.000
    C62      C        0.77680    0.17360    0.99070    1.000
    C63      C        0.72310    0.66030    0.49860    1.000
    C64      C        0.86560    0.21960    0.36040    1.000
    C65      C        0.83690    0.64710    0.59480    1.000
    C66      C        0.87740    0.69340    0.44670    1.000
    C67      C        0.87070    0.70330    0.72780    1.000
    C68      C        0.94060    0.77800    0.91880    1.000
    C69      C        0.55960    0.13900    0.90350    1.000
    C70      C        0.31140    0.21200    0.06770    1.000
    C71      C        0.93410    0.11930    0.46440    1.000
    C72      C        0.88870    0.93910    0.77530    1.000
    C73      C        0.54480    0.12360    0.81590    1.000
    C74      C        0.88788    0.28788    0.75040    1.000
    C75      C        0.81610    0.25770    0.42720    1.000
    C76      C        0.74740    0.63900    0.57980    1.000
    C77      C        0.22980    0.09100    0.66470    1.000
    C78      C        0.74230    0.18390    0.07280    1.000
    C79      C        0.87640    0.45520    0.68410    1.000
    C80      C        0.78040    0.13440    0.13960    1.000
    C81      C        0.36100    0.25260    0.92020    1.000
    C82      C        0.86260    0.62840    0.68220    1.000
    C83      C        0.33970    0.27690    0.00140    1.000
    C84      C        0.88430    0.83950    0.77270    1.000
    C85      C        0.60930    0.07150    0.59390    1.000
    C86      C        0.82640    0.22320    0.50930    1.000
    C87      C        0.85830    0.79830    0.70500    1.000
    C88      C        0.20170    0.14170    0.79500    1.000
    C89      C        0.35290    0.16310    0.90520    1.000
    C90      C        0.46040    0.12060    0.78240    1.000
    C91      C        0.87940    0.53960    0.71760    1.000
    C92      C        0.85130    0.07490    0.12000    1.000
    C93      C        0.88070    0.06590    0.03560    1.000
    C94      C        0.78800    0.68860    0.43230    1.000
    C95      C        0.92510    0.14870    0.38000    1.000
    C96      C        0.90900    0.77020    0.83530    1.000
    C97      C        0.29670    0.12930    0.77220    1.000
    C98      C        0.30660    0.12260    0.05330    1.000
    C99      C        0.61200    0.10860    0.74970    1.000
    C100     C        0.22200    0.05940    0.58120    1.000
    C101     C        0.37160    0.13740    0.81780    1.000
    C102     C        0.74230    0.14950    0.23080    1.000
    C103     C        0.92850    0.39070    0.90610    1.000
    C104     C        0.32600    0.09820    0.97240    1.000
    C105     C        0.75630    0.24370    0.25000    1.000
    C106     C        0.82080    0.84540    0.62790    1.000
    C107     C        0.56910    0.09390    0.67850    1.000
    C108     C        0.89140    0.38800    0.75030    1.000
    C109     C        0.16050    0.11570    0.72730    1.000
    C110     C        0.85050    0.25770    0.26920    1.000
    N7       N        0.90110    0.68866    0.80820    1.000
    N8       N        0.31134    0.09890    0.69180    1.000
    N9       N        0.47795    0.10021    0.69930    1.000
    N10      N        0.88652    0.15462    0.52900    1.000
    N11      N        0.84538    0.11348    0.97100    1.000
    N12      N        0.89979    0.52205    0.80070    1.000
    O9       O        0.74469    0.09659    0.81990    1.000
    O10      O        0.03266    0.10896    0.65310    1.000
    O11      O        0.86994    0.24172    0.82120    1.000
    O12      O        0.75828    0.13006    0.67880    1.000
    O13      O        0.90341    0.25531    0.68010    1.000
    O14      O        0.01130    0.10994    0.79430    1.000
    O15      O        0.89104    0.96734    0.84690    1.000
    O16      O        0.89006    0.98870    0.70570    1.000
    F5       F        0.41354    0.99086    0.62570    1.000
    F6       F        0.00914    0.58646    0.87430    1.000
    F7       F        0.41451    0.13815    0.56700    1.000
    F8       F        0.86185    0.58549    0.93300    1.000
