# CIF file generated by openbabel 3.1.0, see https://openbabel.org
data_I
_chemical_name_common 'image0'
_cell_length_a 13.9411
_cell_length_b 17.0817
_cell_length_c 7.668
_cell_angle_alpha 90
_cell_angle_beta 91.974
_cell_angle_gamma 90
_space_group_name_H-M_alt 'P 1'
_space_group_name_Hall 'P 1'
loop_
    _symmetry_equiv_pos_as_xyz
    x,y,z
loop_
    _atom_site_label
    _atom_site_type_symbol
    _atom_site_fract_x
    _atom_site_fract_y
    _atom_site_fract_z
    _atom_site_occupancy
    Cd1      Cd       0.12674    0.52202    0.35893    1.000
    O1       O        0.08620    0.47160    0.62470    1.000
    O2       O        0.97690    0.38170    0.67320    1.000
    O3       O        0.07330    0.10240    0.75020    1.000
    O4       O        0.22370    0.07060    0.73140    1.000
    O5       O        0.75960    0.38200    0.71130    1.000
    O6       O        0.72620    0.44360    0.46670    1.000
    C1       C        0.06390    0.40230    0.65110    1.000
    C2       C        0.16010    0.12080    0.72050    1.000
    C3       C        0.13880    0.34020    0.65420    1.000
    C4       C        0.11390    0.26190    0.68050    1.000
    H1       H        0.05000    0.24840    0.69450    1.000
    C5       C        0.18460    0.20390    0.68580    1.000
    C6       C        0.27950    0.22520    0.66270    1.000
    H2       H        0.32660    0.18660    0.66360    1.000
    C7       C        0.30590    0.30320    0.63820    1.000
    C8       C        0.23380    0.35970    0.63420    1.000
    H3       H        0.25020    0.41180    0.61770    1.000
    C9       C        0.70140    0.40040    0.58710    1.000
    C10      C        0.60110    0.37070    0.59320    1.000
    C11      C        0.52950    0.40540    0.49130    1.000
    H4       H        0.54620    0.44460    0.41380    1.000
    C12      C        0.43360    0.38420    0.50000    1.000
    H5       H        0.38670    0.40850    0.42980    1.000
    C13      C        0.40930    0.32480    0.61810    1.000
    C14      C        0.48090    0.28730    0.71660    1.000
    H6       H        0.46510    0.24610    0.78950    1.000
    C15      C        0.57550    0.31080    0.70700    1.000
    H7       H        0.62250    0.28660    0.77690    1.000
    Cd2      Cd       0.87326    0.02202    0.14107    1.000
    O7       O        0.91380    0.97160    0.87530    1.000
    O8       O        0.02310    0.88170    0.82680    1.000
    O9       O        0.92670    0.60240    0.74980    1.000
    O10      O        0.77630    0.57060    0.76860    1.000
    O11      O        0.24040    0.88200    0.78870    1.000
    O12      O        0.27380    0.94360    0.03330    1.000
    C16      C        0.93610    0.90230    0.84890    1.000
    C17      C        0.83990    0.62080    0.77950    1.000
    C18      C        0.86120    0.84020    0.84580    1.000
    C19      C        0.88610    0.76190    0.81950    1.000
    H8       H        0.95000    0.74840    0.80550    1.000
    C20      C        0.81540    0.70390    0.81420    1.000
    C21      C        0.72050    0.72520    0.83730    1.000
    H9       H        0.67340    0.68660    0.83640    1.000
    C22      C        0.69410    0.80320    0.86180    1.000
    C23      C        0.76620    0.85970    0.86580    1.000
    H10      H        0.74980    0.91180    0.88230    1.000
    C24      C        0.29860    0.90040    0.91290    1.000
    C25      C        0.39890    0.87070    0.90680    1.000
    C26      C        0.47050    0.90540    0.00870    1.000
    H11      H        0.45380    0.94460    0.08620    1.000
    C27      C        0.56640    0.88420    0.00000    1.000
    H12      H        0.61330    0.90850    0.07020    1.000
    C28      C        0.59070    0.82480    0.88190    1.000
    C29      C        0.51910    0.78730    0.78340    1.000
    H13      H        0.53490    0.74610    0.71050    1.000
    C30      C        0.42450    0.81080    0.79300    1.000
    H14      H        0.37750    0.78660    0.72310    1.000
    Cd3      Cd       0.87326    0.47798    0.64107    1.000
    O13      O        0.91380    0.52840    0.37530    1.000
    O14      O        0.02310    0.61830    0.32680    1.000
    O15      O        0.92670    0.89760    0.24980    1.000
    O16      O        0.77630    0.92940    0.26860    1.000
    O17      O        0.24040    0.61800    0.28870    1.000
    O18      O        0.27380    0.55640    0.53330    1.000
    C31      C        0.93610    0.59770    0.34890    1.000
    C32      C        0.83990    0.87920    0.27950    1.000
    C33      C        0.86120    0.65980    0.34580    1.000
    C34      C        0.88610    0.73810    0.31950    1.000
    H15      H        0.95000    0.75160    0.30550    1.000
    C35      C        0.81540    0.79610    0.31420    1.000
    C36      C        0.72050    0.77480    0.33730    1.000
    H16      H        0.67340    0.81340    0.33640    1.000
    C37      C        0.69410    0.69680    0.36180    1.000
    C38      C        0.76620    0.64030    0.36580    1.000
    H17      H        0.74980    0.58820    0.38230    1.000
    C39      C        0.29860    0.59960    0.41290    1.000
    C40      C        0.39890    0.62930    0.40680    1.000
    C41      C        0.47050    0.59460    0.50870    1.000
    H18      H        0.45380    0.55540    0.58620    1.000
    C42      C        0.56640    0.61580    0.50000    1.000
    H19      H        0.61330    0.59150    0.57020    1.000
    C43      C        0.59070    0.67520    0.38190    1.000
    C44      C        0.51910    0.71270    0.28340    1.000
    H20      H        0.53490    0.75390    0.21050    1.000
    C45      C        0.42450    0.68920    0.29300    1.000
    H21      H        0.37750    0.71340    0.22310    1.000
    Cd4      Cd       0.12674    0.97798    0.85893    1.000
    O19      O        0.08620    0.02840    0.12470    1.000
    O20      O        0.97690    0.11830    0.17320    1.000
    O21      O        0.07330    0.39760    0.25020    1.000
    O22      O        0.22370    0.42940    0.23140    1.000
    O23      O        0.75960    0.11800    0.21130    1.000
    O24      O        0.72620    0.05640    0.96670    1.000
    C46      C        0.06390    0.09770    0.15110    1.000
    C47      C        0.16010    0.37920    0.22050    1.000
    C48      C        0.13880    0.15980    0.15420    1.000
    C49      C        0.11390    0.23810    0.18050    1.000
    H22      H        0.05000    0.25160    0.19450    1.000
    C50      C        0.18460    0.29610    0.18580    1.000
    C51      C        0.27950    0.27480    0.16270    1.000
    H23      H        0.32660    0.31340    0.16360    1.000
    C52      C        0.30590    0.19680    0.13820    1.000
    C53      C        0.23380    0.14030    0.13420    1.000
    H24      H        0.25020    0.08820    0.11770    1.000
    C54      C        0.70140    0.09960    0.08710    1.000
    C55      C        0.60110    0.12930    0.09320    1.000
    C56      C        0.52950    0.09460    0.99130    1.000
    H25      H        0.54620    0.05540    0.91380    1.000
    C57      C        0.43360    0.11580    0.00000    1.000
    H26      H        0.38670    0.09150    0.92980    1.000
    C58      C        0.40930    0.17520    0.11810    1.000
    C59      C        0.48090    0.21270    0.21660    1.000
    H27      H        0.46510    0.25390    0.28950    1.000
    C60      C        0.57550    0.18920    0.20700    1.000
    H28      H        0.62250    0.21340    0.27690    1.000
