# CIF file generated by openbabel 3.1.0, see https://openbabel.org
data_I
_chemical_name_common 'image0'
_cell_length_a 14.9773
_cell_length_b 12.5017
_cell_length_c 16.5629
_cell_angle_alpha 90
_cell_angle_beta 90
_cell_angle_gamma 90
_space_group_name_H-M_alt 'P 1'
_space_group_name_Hall 'P 1'
loop_
    _symmetry_equiv_pos_as_xyz
    x,y,z
loop_
    _atom_site_label
    _atom_site_type_symbol
    _atom_site_fract_x
    _atom_site_fract_y
    _atom_site_fract_z
    _atom_site_occupancy
    C1       C        0.76830    0.42140    0.00080    1.000
    O1       O        0.52810    0.11920    0.00679    1.000
    C2       C        0.63410    0.40400    0.72280    1.000
    O2       O        0.50080    0.08670    0.87730    1.000
    C3       C        0.59180    0.27210    0.83060    1.000
    H1       H        0.55600    0.23780    0.79270    1.000
    C4       C        0.53850    0.13890    0.93320    1.000
    Mn1      Mn       0.60384    0.48631    0.58239    1.000
    O3       O        0.59300    0.35360    0.67170    1.000
    C5       C        0.70260    0.36970    0.94280    1.000
    C6       C        0.65250    0.28060    0.96430    1.000
    H2       H        0.65690    0.25320    0.01640    1.000
    C7       C        0.64000    0.36150    0.80840    1.000
    C8       C        0.69390    0.41220    0.86500    1.000
    H3       H        0.72420    0.47450    0.85120    1.000
    C9       C        0.59640    0.23250    0.90940    1.000
    O4       O        0.80110    0.36550    0.05470    1.000
    O5       O        0.66950    0.49280    0.70800    1.000
    O6       O        0.79250    0.51360    0.98960    1.000
    C10      C        0.73170    0.57860    0.50080    1.000
    O7       O        0.97190    0.88080    0.50679    1.000
    C11      C        0.86590    0.59600    0.22280    1.000
    O8       O        0.99920    0.91330    0.37730    1.000
    C12      C        0.90820    0.72790    0.33060    1.000
    H4       H        0.94400    0.76220    0.29270    1.000
    C13      C        0.96150    0.86110    0.43320    1.000
    Mn2      Mn       0.89616    0.51369    0.08239    1.000
    O9       O        0.90700    0.64640    0.17170    1.000
    C14      C        0.79740    0.63030    0.44280    1.000
    C15      C        0.84750    0.71940    0.46430    1.000
    H5       H        0.84310    0.74680    0.51640    1.000
    C16      C        0.86000    0.63850    0.30840    1.000
    C17      C        0.80610    0.58780    0.36500    1.000
    H6       H        0.77580    0.52550    0.35120    1.000
    C18      C        0.90360    0.76750    0.40940    1.000
    O10      O        0.69890    0.63450    0.55470    1.000
    O11      O        0.83050    0.50720    0.20800    1.000
    O12      O        0.70750    0.48640    0.48960    1.000
    C19      C        0.23170    0.92140    0.49920    1.000
    O13      O        0.47190    0.61920    0.49321    1.000
    C20      C        0.36590    0.90400    0.77720    1.000
    O14      O        0.49920    0.58670    0.62270    1.000
    C21      C        0.40820    0.77210    0.66940    1.000
    H7       H        0.44400    0.73780    0.70730    1.000
    C22      C        0.46150    0.63890    0.56680    1.000
    Mn3      Mn       0.39616    0.98631    0.91761    1.000
    O15      O        0.40700    0.85360    0.82830    1.000
    C23      C        0.29740    0.86970    0.55720    1.000
    C24      C        0.34750    0.78060    0.53570    1.000
    H8       H        0.34310    0.75320    0.48360    1.000
    C25      C        0.36000    0.86150    0.69160    1.000
    C26      C        0.30610    0.91220    0.63500    1.000
    H9       H        0.27580    0.97450    0.64880    1.000
    C27      C        0.40360    0.73250    0.59060    1.000
    O16      O        0.19890    0.86550    0.44530    1.000
    O17      O        0.33050    0.99280    0.79200    1.000
    O18      O        0.20750    0.01360    0.51040    1.000
    C28      C        0.26830    0.07860    0.99920    1.000
    O19      O        0.02810    0.38080    0.99321    1.000
    C29      C        0.13410    0.09600    0.27720    1.000
    O20      O        0.00080    0.41330    0.12270    1.000
    C30      C        0.09180    0.22790    0.16940    1.000
    H10      H        0.05600    0.26220    0.20730    1.000
    C31      C        0.03850    0.36110    0.06680    1.000
    Mn4      Mn       0.10384    0.01369    0.41761    1.000
    O21      O        0.09300    0.14640    0.32830    1.000
    C32      C        0.20260    0.13030    0.05720    1.000
    C33      C        0.15250    0.21940    0.03570    1.000
    H11      H        0.15690    0.24680    0.98360    1.000
    C34      C        0.14000    0.13850    0.19160    1.000
    C35      C        0.19390    0.08780    0.13500    1.000
    H12      H        0.22420    0.02550    0.14880    1.000
    C36      C        0.09640    0.26750    0.09060    1.000
    O22      O        0.30110    0.13450    0.94530    1.000
    O23      O        0.16950    0.00720    0.29200    1.000
    O24      O        0.29250    0.98640    0.01040    1.000
    C37      C        0.23170    0.57860    0.99920    1.000
    O25      O        0.47190    0.88080    0.99321    1.000
    C38      C        0.36590    0.59600    0.27720    1.000
    O26      O        0.49920    0.91330    0.12270    1.000
    C39      C        0.40820    0.72790    0.16940    1.000
    H13      H        0.44400    0.76220    0.20730    1.000
    C40      C        0.46150    0.86110    0.06680    1.000
    Mn5      Mn       0.39616    0.51369    0.41761    1.000
    O27      O        0.40700    0.64640    0.32830    1.000
    C41      C        0.29740    0.63030    0.05720    1.000
    C42      C        0.34750    0.71940    0.03570    1.000
    H14      H        0.34310    0.74680    0.98360    1.000
    C43      C        0.36000    0.63850    0.19160    1.000
    C44      C        0.30610    0.58780    0.13500    1.000
    H15      H        0.27580    0.52550    0.14880    1.000
    C45      C        0.40360    0.76750    0.09060    1.000
    O28      O        0.19890    0.63450    0.94530    1.000
    O29      O        0.33050    0.50720    0.29200    1.000
    O30      O        0.20750    0.48640    0.01040    1.000
    C46      C        0.26830    0.42140    0.49920    1.000
    O31      O        0.02810    0.11920    0.49321    1.000
    C47      C        0.13410    0.40400    0.77720    1.000
    O32      O        0.00080    0.08670    0.62270    1.000
    C48      C        0.09180    0.27210    0.66940    1.000
    H16      H        0.05600    0.23780    0.70730    1.000
    C49      C        0.03850    0.13890    0.56680    1.000
    Mn6      Mn       0.10384    0.48631    0.91761    1.000
    O33      O        0.09300    0.35360    0.82830    1.000
    C50      C        0.20260    0.36970    0.55720    1.000
    C51      C        0.15250    0.28060    0.53570    1.000
    H17      H        0.15690    0.25320    0.48360    1.000
    C52      C        0.14000    0.36150    0.69160    1.000
    C53      C        0.19390    0.41220    0.63500    1.000
    H18      H        0.22420    0.47450    0.64880    1.000
    C54      C        0.09640    0.23250    0.59060    1.000
    O34      O        0.30110    0.36550    0.44530    1.000
    O35      O        0.16950    0.49280    0.79200    1.000
    O36      O        0.29250    0.51360    0.51040    1.000
    C55      C        0.76830    0.07860    0.50080    1.000
    O37      O        0.52810    0.38080    0.50679    1.000
    C56      C        0.63410    0.09600    0.22280    1.000
    O38      O        0.50080    0.41330    0.37730    1.000
    C57      C        0.59180    0.22790    0.33060    1.000
    H19      H        0.55600    0.26220    0.29270    1.000
    C58      C        0.53850    0.36110    0.43320    1.000
    Mn7      Mn       0.60384    0.01369    0.08239    1.000
    O39      O        0.59300    0.14640    0.17170    1.000
    C59      C        0.70260    0.13030    0.44280    1.000
    C60      C        0.65250    0.21940    0.46430    1.000
    H20      H        0.65690    0.24680    0.51640    1.000
    C61      C        0.64000    0.13850    0.30840    1.000
    C62      C        0.69390    0.08780    0.36500    1.000
    H21      H        0.72420    0.02550    0.35120    1.000
    C63      C        0.59640    0.26750    0.40940    1.000
    O40      O        0.80110    0.13450    0.55470    1.000
    O41      O        0.66950    0.00720    0.20800    1.000
    O42      O        0.79250    0.98640    0.48960    1.000
    C64      C        0.73170    0.92140    0.00080    1.000
    O43      O        0.97190    0.61920    0.00679    1.000
    C65      C        0.86590    0.90400    0.72280    1.000
    O44      O        0.99920    0.58670    0.87730    1.000
    C66      C        0.90820    0.77210    0.83060    1.000
    H22      H        0.94400    0.73780    0.79270    1.000
    C67      C        0.96150    0.63890    0.93320    1.000
    Mn8      Mn       0.89616    0.98631    0.58239    1.000
    O45      O        0.90700    0.85360    0.67170    1.000
    C68      C        0.79740    0.86970    0.94280    1.000
    C69      C        0.84750    0.78060    0.96430    1.000
    H23      H        0.84310    0.75320    0.01640    1.000
    C70      C        0.86000    0.86150    0.80840    1.000
    C71      C        0.80610    0.91220    0.86500    1.000
    H24      H        0.77580    0.97450    0.85120    1.000
    C72      C        0.90360    0.73250    0.90940    1.000
    O46      O        0.69890    0.86550    0.05470    1.000
    O47      O        0.83050    0.99280    0.70800    1.000
    O48      O        0.70750    0.01360    0.98960    1.000
