data_functionalizedCrystal
_audit_creation_method	'EQeq! by Chris Wilmer'
_symmetry_space_group_name_H-M	'P1'
_symmetry_Int_Tables_number	1
_symmetry_cell_setting	triclinic
loop_
_symmetry_equiv_pos_as_xyz
  x,y,z
_cell_length_a	13.9444
_cell_length_b	18.1187
_cell_length_c	12.0758
_cell_angle_alpha	90
_cell_angle_beta	112.894
_cell_angle_gamma	90
loop_
_atom_site_label
_atom_site_type_symbol
_atom_site_fract_x
_atom_site_fract_y
_atom_site_fract_z
_atom_site_charge
Mof_Mn	Mn	0.41865	0.51944	0.17075	0.781
Mof_O 	O 	0.37305	0.58003	0.42353	-0.369
Mof_O 	O 	0.33041	0.59542	0.22518	-0.394
Mof_O 	O 	0.65771	0.92445	0.29888	-0.357
Mof_O 	O 	0.6074	0.9119	0.09877	-0.354
Mof_O 	O 	0.5533	0.51625	0.35394	-0.418
Mof_O 	O 	0.56655	0.46024	0.19775	-0.366
Mof_C 	C 	0.31791	0.60565	0.32196	0.381
Mof_C 	C 	0.22611	0.65361	0.31178	-0.118
Mof_C 	C 	0.18474	0.65153	0.39991	0.036
Mof_H 	H 	0.2167	0.6229	0.4684	0.034
Mof_C 	C 	0.09587	0.692	0.38622	-0.106
Mof_H 	H 	0.0684	0.6893	0.445	0.066
Mof_C 	C 	0.04736	0.73672	0.28522	0.041
Mof_C 	C 	0.09204	0.74094	0.19966	-0.111
Mof_H 	H 	0.0629	0.7721	0.1338	0.058
Mof_C 	C 	0.17931	0.69923	0.21168	0.036
Mof_H 	H 	0.2067	0.7017	0.1528	0.021
Mof_C 	C 	0.6674	0.90005	0.20601	0.37
Mof_C 	C 	0.76239	0.85285	0.22736	-0.113
Mof_C 	C 	0.84056	0.84766	0.34254	0.033
Mof_H 	H 	0.8313	0.87	0.4069	0.032
Mof_C 	C 	0.9322	0.80936	0.36191	-0.105
Mof_H 	H 	0.983	0.8059	0.4393	0.065
Mof_C 	C 	0.94882	0.77598	0.26613	0.032
Mof_C 	C 	0.86903	0.78	0.15127	-0.106
Mof_H 	H 	0.8779	0.7573	0.0868	0.06
Mof_C 	C 	0.77669	0.81741	0.13229	0.029
Mof_H 	H 	0.7242	0.8188	0.0557	0.025
Mof_C 	C 	0.6077	0.4857	0.3021	0.338
Mof_C 	C 	0.72342	0.48583	0.36443	-0.114
Mof_C 	C 	0.77098	0.52897	0.4665	0.031
Mof_H 	H 	0.7305	0.5542	0.4997	0.034
Mof_C 	C 	0.87875	0.53453	0.5191	-0.102
Mof_H 	H 	0.9094	0.5642	0.5865	0.067
Mof_C 	C 	0.94229	0.49628	0.47256	0.033
Mof_C 	C 	0.8928	0.45071	0.37255	-0.105
Mof_H 	H 	0.9331	0.4229	0.3421	0.061
Mof_C 	C 	0.78493	0.44611	0.31794	0.029
Mof_H 	H 	0.7538	0.4166	0.2504	0.023
Mof_Mn	Mn	0.58135	0.01944	0.32925	0.752
Mof_O 	O 	0.62695	0.08003	0.07647	-0.377
Mof_O 	O 	0.66959	0.09542	0.27482	-0.391
Mof_O 	O 	0.34229	0.42445	0.20112	-0.381
Mof_O 	O 	0.3926	0.4119	0.40123	-0.369
Mof_O 	O 	0.4467	0.01625	0.14606	-0.436
Mof_O 	O 	0.43345	0.96024	0.30225	-0.347
Mof_C 	C 	0.68209	0.10565	0.17804	0.374
Mof_C 	C 	0.77389	0.15361	0.18822	-0.119
Mof_C 	C 	0.81526	0.15153	0.10009	0.028
Mof_H 	H 	0.7833	0.1229	0.0316	0.024
Mof_C 	C 	0.90413	0.192	0.11378	-0.103
Mof_H 	H 	0.9316	0.1893	0.055	0.054
Mof_C 	C 	0.95264	0.23672	0.21478	0.027
Mof_C 	C 	0.90796	0.24094	0.30034	-0.105
Mof_H 	H 	0.9371	0.2721	0.3662	0.06
Mof_C 	C 	0.82069	0.19923	0.28832	0.031
Mof_H 	H 	0.7933	0.2017	0.3472	0.027
Mof_C 	C 	0.3326	0.40005	0.29399	0.376
Mof_C 	C 	0.23761	0.35285	0.27264	-0.123
Mof_C 	C 	0.15944	0.34766	0.15746	0.038
Mof_H 	H 	0.1687	0.37	0.0931	0.019
Mof_C 	C 	0.0678	0.30936	0.13809	-0.117
Mof_H 	H 	0.017	0.3059	0.0607	0.061
Mof_C 	C 	0.05118	0.27598	0.23387	0.044
Mof_C 	C 	0.13097	0.28	0.34873	-0.115
Mof_H 	H 	0.1221	0.2573	0.4132	0.069
Mof_C 	C 	0.22331	0.31741	0.36771	0.038
Mof_H 	H 	0.2758	0.3188	0.4443	0.028
Mof_C 	C 	0.3923	0.9857	0.1979	0.343
Mof_C 	C 	0.27658	0.98583	0.13557	-0.027
Mof_C 	C 	0.22902	0.02897	0.0335	-0.117
Mof_H 	H 	0.2695	0.0542	0.0003	0.068
Mof_C 	C 	0.12125	0.03453	0.9809	0.004
Mof_H 	H 	0.0906	0.0642	0.9135	0.031
Mof_C 	C 	0.05771	0.99628	0.02744	-0.02
Mof_C 	C 	0.1072	0.95071	0.12745	-0.044
Mof_H 	H 	0.0669	0.9229	0.1579	0.043
Mof_C 	C 	0.21507	0.94611	0.18206	-0.035
Mof_H 	H 	0.2462	0.9166	0.2496	0.049
Mof_Mn	Mn	0.58135	0.48056	0.82925	0.804
Mof_O 	O 	0.62695	0.41997	0.57647	-0.37
Mof_O 	O 	0.66959	0.40458	0.77482	-0.388
Mof_O 	O 	0.34229	0.07555	0.70112	-0.392
Mof_O 	O 	0.3926	0.0881	0.90123	-0.353
Mof_O 	O 	0.4467	0.48375	0.64606	-0.418
Mof_O 	O 	0.43345	0.53976	0.80225	-0.356
Mof_C 	C 	0.68209	0.39435	0.67804	0.379
Mof_C 	C 	0.77389	0.34639	0.68822	-0.111
Mof_C 	C 	0.81526	0.34847	0.60009	0.029
Mof_H 	H 	0.7833	0.3771	0.5316	0.036
Mof_C 	C 	0.90413	0.308	0.61378	-0.096
Mof_H 	H 	0.9316	0.3107	0.555	0.062
Mof_C 	C 	0.95264	0.26328	0.71478	0.028
Mof_C 	C 	0.90796	0.25906	0.80034	-0.1
Mof_H 	H 	0.9371	0.2279	0.8662	0.064
Mof_C 	C 	0.82069	0.30077	0.78832	0.032
Mof_H 	H 	0.7933	0.2983	0.8472	0.034
Mof_C 	C 	0.3326	0.09995	0.79399	0.374
Mof_C 	C 	0.23761	0.14715	0.77264	-0.121
Mof_C 	C 	0.15944	0.15234	0.65746	0.041
Mof_H 	H 	0.1687	0.13	0.5931	0.02
Mof_C 	C 	0.0678	0.19064	0.63809	-0.118
Mof_H 	H 	0.017	0.1941	0.5607	0.069
Mof_C 	C 	0.05118	0.22402	0.73387	0.05
Mof_C 	C 	0.13097	0.22	0.84873	-0.114
Mof_H 	H 	0.1221	0.2427	0.9132	0.078
Mof_C 	C 	0.22331	0.18259	0.86771	0.041
Mof_H 	H 	0.2758	0.1812	0.9443	0.035
Mof_C 	C 	0.3923	0.5143	0.6979	0.338
Mof_C 	C 	0.27658	0.51417	0.63557	-0.112
Mof_C 	C 	0.22902	0.47103	0.5335	0.034
Mof_H 	H 	0.2695	0.4458	0.5003	0.034
Mof_C 	C 	0.12125	0.46547	0.4809	-0.106
Mof_H 	H 	0.0906	0.4358	0.4135	0.069
Mof_C 	C 	0.05771	0.50372	0.52744	0.043
Mof_C 	C 	0.1072	0.54929	0.62745	-0.107
Mof_H 	H 	0.0669	0.5771	0.6579	0.067
Mof_C 	C 	0.21507	0.55389	0.68206	0.031
Mof_H 	H 	0.2462	0.5834	0.7496	0.029
Mof_Mn	Mn	0.41865	0.98056	0.67075	0.832
Mof_O 	O 	0.37305	0.91997	0.92353	-0.338
Mof_O 	O 	0.33041	0.90458	0.72518	-0.385
Mof_O 	O 	0.65771	0.57555	0.79888	-0.375
Mof_O 	O 	0.6074	0.5881	0.59877	-0.368
Mof_O 	O 	0.5533	0.98375	0.85394	-0.374
Mof_O 	O 	0.56655	0.03976	0.69775	-0.37
Mof_C 	C 	0.31791	0.89435	0.82196	0.376
Mof_C 	C 	0.22611	0.84639	0.81178	-0.106
Mof_C 	C 	0.18474	0.84847	0.89991	0.033
Mof_H 	H 	0.2167	0.8771	0.9684	0.047
Mof_C 	C 	0.09587	0.808	0.88622	-0.097
Mof_H 	H 	0.0684	0.8107	0.945	0.073
Mof_C 	C 	0.04736	0.76328	0.78522	0.041
Mof_C 	C 	0.09204	0.75906	0.69966	-0.104
Mof_H 	H 	0.0629	0.7279	0.6338	0.062
Mof_C 	C 	0.17931	0.80077	0.71168	0.034
Mof_H 	H 	0.2067	0.7983	0.6528	0.03
Mof_C 	C 	0.6674	0.59995	0.70601	0.376
Mof_C 	C 	0.76239	0.64715	0.72736	-0.117
Mof_C 	C 	0.84056	0.65234	0.84254	0.039
Mof_H 	H 	0.8313	0.63	0.9069	0.031
Mof_C 	C 	0.9322	0.69064	0.86191	-0.108
Mof_H 	H 	0.983	0.6941	0.9393	0.072
Mof_C 	C 	0.94882	0.72402	0.76613	0.039
Mof_C 	C 	0.86903	0.72	0.65127	-0.108
Mof_H 	H 	0.8779	0.7427	0.5868	0.068
Mof_C 	C 	0.77669	0.68259	0.63229	0.036
Mof_H 	H 	0.7242	0.6812	0.5557	0.03
Mof_C 	C 	0.6077	0.0143	0.8021	0.324
Mof_C 	C 	0.72342	0.01417	0.86443	-0.181
Mof_C 	C 	0.77098	0.97103	0.9665	0.159
Mof_H 	H 	0.7305	0.9458	0.9997	0.009
Mof_C 	C 	0.87875	0.96547	0.0191	-0.191
Mof_H 	H 	0.9094	0.9358	0.0865	0.098
Mof_C 	C 	0.94229	0.00372	0.97256	0.088
Mof_C 	C 	0.8928	0.04929	0.87255	-0.158
Mof_H 	H 	0.9331	0.0771	0.8421	0.081
Mof_C 	C 	0.78493	0.05389	0.81794	0.083
Mof_H 	H 	0.7538	0.0834	0.7504	0.008
Mof_Mn	Mn	0.5	0.5	0.5	1
Mof_Mn	Mn	0.5	0	-0	0.912
_end
