data_functionalizedCrystal
_audit_creation_method	'EQeq! by Chris Wilmer'
_symmetry_space_group_name_H-M	'P1'
_symmetry_Int_Tables_number	1
_symmetry_cell_setting	triclinic
loop_
_symmetry_equiv_pos_as_xyz
  x,y,z
_cell_length_a	18.5773
_cell_length_b	18.5773
_cell_length_c	22.6933
_cell_angle_alpha	90
_cell_angle_beta	90
_cell_angle_gamma	120
loop_
_atom_site_label
_atom_site_type_symbol
_atom_site_fract_x
_atom_site_fract_y
_atom_site_fract_z
_atom_site_charge
Mof_Cu	Cu	0.04565	0.54367	0.5488	0.904
Mof_Cu	Cu	0.49802	0.95435	0.5488	0.904
Mof_Cu	Cu	0.45633	0.50198	0.5488	0.904
Mof_Cu	Cu	0.95435	0.45633	0.0488	0.904
Mof_Cu	Cu	0.50198	0.04565	0.0488	0.904
Mof_Cu	Cu	0.54367	0.49802	0.0488	0.904
Mof_Cu	Cu	0.50198	0.45633	0.4512	0.904
Mof_Cu	Cu	0.54367	0.04565	0.4512	0.904
Mof_Cu	Cu	0.95435	0.49802	0.4512	0.904
Mof_Cu	Cu	0.49802	0.54367	0.9512	0.904
Mof_Cu	Cu	0.45633	0.95435	0.9512	0.904
Mof_Cu	Cu	0.04565	0.50198	0.9512	0.904
Mof_H 	H 	0.6924	0.6428	0.6317	0.097
Mof_H 	H 	0.7503	0.5198	0.5099	0.069
Mof_H 	H 	0.926	0.6751	0.6276	0.089
Mof_H 	H 	0.9521	0.8087	0.6668	0.004
Mof_H 	H 	0.9346	0.7347	0.7119	0.02
Mof_H 	H 	0.8915	0.8613	0.7353	0.094
Mof_H 	H 	0.9504	0.3076	0.6317	0.098
Mof_H 	H 	0.7695	0.2497	0.5099	0.07
Mof_H 	H 	0.7491	0.074	0.6276	0.09
Mof_H 	H 	0.8566	0.0479	0.6668	0.005
Mof_H 	H 	0.8001	0.0654	0.7119	0.02
Mof_H 	H 	0.9698	0.1085	0.7353	0.095
Mof_H 	H 	0.3572	0.0496	0.6317	0.098
Mof_H 	H 	0.4802	0.2305	0.5099	0.07
Mof_H 	H 	0.3249	0.2509	0.6276	0.09
Mof_H 	H 	0.1913	0.1434	0.6668	0.005
Mof_H 	H 	0.2653	0.1999	0.7119	0.02
Mof_H 	H 	0.1387	0.0302	0.7353	0.094
Mof_H 	H 	0.3076	0.3572	0.1317	0.098
Mof_H 	H 	0.2497	0.4802	0.0099	0.07
Mof_H 	H 	0.074	0.3249	0.1276	0.09
Mof_H 	H 	0.0479	0.1913	0.1668	0.005
Mof_H 	H 	0.0654	0.2653	0.2119	0.02
Mof_H 	H 	0.1085	0.1387	0.2353	0.094
Mof_H 	H 	0.0496	0.6924	0.1317	0.098
Mof_H 	H 	0.2305	0.7503	0.0099	0.07
Mof_H 	H 	0.2509	0.926	0.1276	0.09
Mof_H 	H 	0.1434	0.9521	0.1668	0.006
Mof_H 	H 	0.1999	0.9346	0.2119	0.02
Mof_H 	H 	0.0302	0.8915	0.2353	0.095
Mof_H 	H 	0.6428	0.9504	0.1317	0.098
Mof_H 	H 	0.5198	0.7695	0.0099	0.07
Mof_H 	H 	0.6751	0.7491	0.1276	0.09
Mof_H 	H 	0.8087	0.8566	0.1668	0.005
Mof_H 	H 	0.7347	0.8001	0.2119	0.02
Mof_H 	H 	0.8613	0.9698	0.2353	0.094
Mof_H 	H 	0.0496	0.3572	0.3683	0.098
Mof_H 	H 	0.2305	0.4802	0.4901	0.07
Mof_H 	H 	0.2509	0.3249	0.3724	0.09
Mof_H 	H 	0.1434	0.1913	0.3332	0.005
Mof_H 	H 	0.1999	0.2653	0.2881	0.02
Mof_H 	H 	0.0302	0.1387	0.2647	0.094
Mof_H 	H 	0.6428	0.6924	0.3683	0.098
Mof_H 	H 	0.5198	0.7503	0.4901	0.07
Mof_H 	H 	0.6751	0.926	0.3724	0.09
Mof_H 	H 	0.8087	0.9521	0.3332	0.005
Mof_H 	H 	0.7347	0.9346	0.2881	0.02
Mof_H 	H 	0.8613	0.8915	0.2647	0.094
Mof_H 	H 	0.3076	0.9504	0.3683	0.098
Mof_H 	H 	0.2497	0.7695	0.4901	0.07
Mof_H 	H 	0.074	0.7491	0.3724	0.09
Mof_H 	H 	0.0479	0.8566	0.3332	0.005
Mof_H 	H 	0.0654	0.8001	0.2881	0.02
Mof_H 	H 	0.1085	0.9698	0.2647	0.095
Mof_H 	H 	0.9504	0.6428	0.8683	0.098
Mof_H 	H 	0.7695	0.5198	0.9901	0.07
Mof_H 	H 	0.7491	0.6751	0.8724	0.09
Mof_H 	H 	0.8566	0.8087	0.8332	0.005
Mof_H 	H 	0.8001	0.7347	0.7881	0.02
Mof_H 	H 	0.9698	0.8613	0.7647	0.094
Mof_H 	H 	0.3572	0.3076	0.8683	0.098
Mof_H 	H 	0.4802	0.2497	0.9901	0.07
Mof_H 	H 	0.3249	0.074	0.8724	0.09
Mof_H 	H 	0.1913	0.0479	0.8332	0.005
Mof_H 	H 	0.2653	0.0654	0.7881	0.02
Mof_H 	H 	0.1387	0.1085	0.7647	0.094
Mof_H 	H 	0.6924	0.0496	0.8683	0.098
Mof_H 	H 	0.7503	0.2305	0.9901	0.07
Mof_H 	H 	0.926	0.2509	0.8724	0.09
Mof_H 	H 	0.9521	0.1434	0.8332	0.006
Mof_H 	H 	0.9346	0.1999	0.7881	0.02
Mof_H 	H 	0.8915	0.0302	0.7647	0.095
Mof_C 	C 	0.62104	0.53465	0.54436	0.344
Mof_C 	C 	0.90449	0.56776	0.54023	0.327
Mof_C 	C 	0.73204	0.63133	0.6142	-0.115
Mof_C 	C 	0.70805	0.57491	0.56813	-0.026
Mof_C 	C 	0.76557	0.5564	0.54262	-0.027
Mof_C 	C 	0.84559	0.59255	0.56612	-0.021
Mof_C 	C 	0.8712	0.65053	0.6122	-0.119
Mof_C 	C 	0.81327	0.67145	0.63517	0.185
Mof_C 	C 	0.91516	0.77282	0.69859	0.104
Mof_C 	C 	0.91361	0.37896	0.54436	0.344
Mof_C 	C 	0.66327	0.09551	0.54023	0.327
Mof_C 	C 	0.89929	0.26796	0.6142	-0.115
Mof_C 	C 	0.86686	0.29195	0.56813	-0.026
Mof_C 	C 	0.79083	0.23443	0.54262	-0.027
Mof_C 	C 	0.74696	0.15441	0.56612	-0.021
Mof_C 	C 	0.77933	0.1288	0.6122	-0.119
Mof_C 	C 	0.85818	0.18673	0.63517	0.185
Mof_C 	C 	0.85766	0.08484	0.69859	0.104
Mof_C 	C 	0.46535	0.08639	0.54436	0.344
Mof_C 	C 	0.43224	0.33673	0.54023	0.327
Mof_C 	C 	0.36867	0.10071	0.6142	-0.115
Mof_C 	C 	0.42509	0.13314	0.56813	-0.026
Mof_C 	C 	0.4436	0.20917	0.54262	-0.027
Mof_C 	C 	0.40745	0.25304	0.56612	-0.021
Mof_C 	C 	0.34947	0.22067	0.6122	-0.119
Mof_C 	C 	0.32855	0.14182	0.63517	0.185
Mof_C 	C 	0.22718	0.14234	0.69859	0.104
Mof_C 	C 	0.37896	0.46535	0.04436	0.344
Mof_C 	C 	0.09551	0.43224	0.04023	0.327
Mof_C 	C 	0.26796	0.36867	0.1142	-0.115
Mof_C 	C 	0.29195	0.42509	0.06813	-0.026
Mof_C 	C 	0.23443	0.4436	0.04262	-0.027
Mof_C 	C 	0.15441	0.40745	0.06612	-0.021
Mof_C 	C 	0.1288	0.34947	0.1122	-0.119
Mof_C 	C 	0.18673	0.32855	0.13517	0.185
Mof_C 	C 	0.08484	0.22718	0.19859	0.104
Mof_C 	C 	0.08639	0.62104	0.04436	0.345
Mof_C 	C 	0.33673	0.90449	0.04023	0.327
Mof_C 	C 	0.10071	0.73204	0.1142	-0.115
Mof_C 	C 	0.13314	0.70805	0.06813	-0.026
Mof_C 	C 	0.20917	0.76557	0.04262	-0.027
Mof_C 	C 	0.25304	0.84559	0.06612	-0.021
Mof_C 	C 	0.22067	0.8712	0.1122	-0.119
Mof_C 	C 	0.14182	0.81327	0.13517	0.185
Mof_C 	C 	0.14234	0.91516	0.19859	0.104
Mof_C 	C 	0.53465	0.91361	0.04436	0.345
Mof_C 	C 	0.56776	0.66327	0.04023	0.327
Mof_C 	C 	0.63133	0.89929	0.1142	-0.115
Mof_C 	C 	0.57491	0.86686	0.06813	-0.026
Mof_C 	C 	0.5564	0.79083	0.04262	-0.027
Mof_C 	C 	0.59255	0.74696	0.06612	-0.021
Mof_C 	C 	0.65053	0.77933	0.1122	-0.119
Mof_C 	C 	0.67145	0.85818	0.13517	0.185
Mof_C 	C 	0.77282	0.85766	0.19859	0.104
Mof_C 	C 	0.08639	0.46535	0.45564	0.344
Mof_C 	C 	0.33673	0.43224	0.45977	0.327
Mof_C 	C 	0.10071	0.36867	0.3858	-0.115
Mof_C 	C 	0.13314	0.42509	0.43187	-0.026
Mof_C 	C 	0.20917	0.4436	0.45738	-0.027
Mof_C 	C 	0.25304	0.40745	0.43388	-0.021
Mof_C 	C 	0.22067	0.34947	0.3878	-0.119
Mof_C 	C 	0.14182	0.32855	0.36483	0.185
Mof_C 	C 	0.14234	0.22718	0.30141	0.104
Mof_C 	C 	0.53465	0.62104	0.45564	0.344
Mof_C 	C 	0.56776	0.90449	0.45977	0.327
Mof_C 	C 	0.63133	0.73204	0.3858	-0.115
Mof_C 	C 	0.57491	0.70805	0.43187	-0.026
Mof_C 	C 	0.5564	0.76557	0.45738	-0.027
Mof_C 	C 	0.59255	0.84559	0.43388	-0.021
Mof_C 	C 	0.65053	0.8712	0.3878	-0.119
Mof_C 	C 	0.67145	0.81327	0.36483	0.185
Mof_C 	C 	0.77282	0.91516	0.30141	0.104
Mof_C 	C 	0.37896	0.91361	0.45564	0.344
Mof_C 	C 	0.09551	0.66327	0.45977	0.327
Mof_C 	C 	0.26796	0.89929	0.3858	-0.115
Mof_C 	C 	0.29195	0.86686	0.43187	-0.026
Mof_C 	C 	0.23443	0.79083	0.45738	-0.027
Mof_C 	C 	0.15441	0.74696	0.43388	-0.021
Mof_C 	C 	0.1288	0.77933	0.3878	-0.119
Mof_C 	C 	0.18673	0.85818	0.36483	0.185
Mof_C 	C 	0.08484	0.85766	0.30141	0.104
Mof_C 	C 	0.91361	0.53465	0.95564	0.345
Mof_C 	C 	0.66327	0.56776	0.95977	0.327
Mof_C 	C 	0.89929	0.63133	0.8858	-0.115
Mof_C 	C 	0.86686	0.57491	0.93187	-0.026
Mof_C 	C 	0.79083	0.5564	0.95738	-0.027
Mof_C 	C 	0.74696	0.59255	0.93388	-0.021
Mof_C 	C 	0.77933	0.65053	0.8878	-0.119
Mof_C 	C 	0.85818	0.67145	0.86483	0.185
Mof_C 	C 	0.85766	0.77282	0.80141	0.104
Mof_C 	C 	0.46535	0.37896	0.95564	0.344
Mof_C 	C 	0.43224	0.09551	0.95977	0.327
Mof_C 	C 	0.36867	0.26796	0.8858	-0.115
Mof_C 	C 	0.42509	0.29195	0.93187	-0.026
Mof_C 	C 	0.4436	0.23443	0.95738	-0.027
Mof_C 	C 	0.40745	0.15441	0.93388	-0.021
Mof_C 	C 	0.34947	0.1288	0.8878	-0.119
Mof_C 	C 	0.32855	0.18673	0.86483	0.185
Mof_C 	C 	0.22718	0.08484	0.80141	0.104
Mof_C 	C 	0.62104	0.08639	0.95564	0.345
Mof_C 	C 	0.90449	0.33673	0.95977	0.327
Mof_C 	C 	0.73204	0.10071	0.8858	-0.115
Mof_C 	C 	0.70805	0.13314	0.93187	-0.026
Mof_C 	C 	0.76557	0.20917	0.95738	-0.027
Mof_C 	C 	0.84559	0.25304	0.93388	-0.021
Mof_C 	C 	0.8712	0.22067	0.8878	-0.119
Mof_C 	C 	0.81327	0.14182	0.86483	0.185
Mof_C 	C 	0.91516	0.14234	0.80141	0.104
Mof_C 	C 	0.91252	0.82504	0.75	-0.203
Mof_C 	C 	0.91252	0.08748	0.75	-0.203
Mof_C 	C 	0.17496	0.08748	0.75	-0.203
Mof_C 	C 	0.08748	0.17496	0.25	-0.203
Mof_C 	C 	0.08748	0.91252	0.25	-0.203
Mof_C 	C 	0.82504	0.91252	0.25	-0.203
Mof_O 	O 	0.96785	0.58364	0.57034	-0.392
Mof_O 	O 	0.88448	0.53196	0.4905	-0.4
Mof_O 	O 	0.56719	0.53557	0.5771	-0.405
Mof_O 	O 	0.60927	0.50512	0.49343	-0.4
Mof_O 	O 	0.83066	0.72752	0.67915	-0.234
Mof_O 	O 	0.61579	0.03215	0.57034	-0.392
Mof_O 	O 	0.64748	0.11552	0.4905	-0.4
Mof_O 	O 	0.96838	0.43281	0.5771	-0.405
Mof_O 	O 	0.89585	0.39073	0.49343	-0.4
Mof_O 	O 	0.89686	0.16934	0.67915	-0.234
Mof_O 	O 	0.41636	0.38421	0.57034	-0.392
Mof_O 	O 	0.46804	0.35252	0.4905	-0.4
Mof_O 	O 	0.46443	0.03162	0.5771	-0.405
Mof_O 	O 	0.49488	0.10415	0.49343	-0.4
Mof_O 	O 	0.27248	0.10314	0.67915	-0.234
Mof_O 	O 	0.03215	0.41636	0.07034	-0.392
Mof_O 	O 	0.11552	0.46804	0.9905	-0.401
Mof_O 	O 	0.43281	0.46443	0.0771	-0.405
Mof_O 	O 	0.39073	0.49488	0.99343	-0.401
Mof_O 	O 	0.16934	0.27248	0.17915	-0.234
Mof_O 	O 	0.38421	0.96785	0.07034	-0.392
Mof_O 	O 	0.35252	0.88448	0.9905	-0.401
Mof_O 	O 	0.03162	0.56719	0.0771	-0.405
Mof_O 	O 	0.10415	0.60927	0.99343	-0.401
Mof_O 	O 	0.10314	0.83066	0.17915	-0.234
Mof_O 	O 	0.58364	0.61579	0.07034	-0.392
Mof_O 	O 	0.53196	0.64748	0.9905	-0.401
Mof_O 	O 	0.53557	0.96838	0.0771	-0.405
Mof_O 	O 	0.50512	0.89585	0.99343	-0.401
Mof_O 	O 	0.72752	0.89686	0.17915	-0.234
Mof_O 	O 	0.38421	0.41636	0.42966	-0.392
Mof_O 	O 	0.35252	0.46804	0.5095	-0.4
Mof_O 	O 	0.03162	0.46443	0.4229	-0.405
Mof_O 	O 	0.10415	0.49488	0.50657	-0.4
Mof_O 	O 	0.10314	0.27248	0.32085	-0.234
Mof_O 	O 	0.58364	0.96785	0.42966	-0.392
Mof_O 	O 	0.53196	0.88448	0.5095	-0.4
Mof_O 	O 	0.53557	0.56719	0.4229	-0.405
Mof_O 	O 	0.50512	0.60927	0.50657	-0.4
Mof_O 	O 	0.72752	0.83066	0.32085	-0.234
Mof_O 	O 	0.03215	0.61579	0.42966	-0.392
Mof_O 	O 	0.11552	0.64748	0.5095	-0.4
Mof_O 	O 	0.43281	0.96838	0.4229	-0.405
Mof_O 	O 	0.39073	0.89585	0.50657	-0.4
Mof_O 	O 	0.16934	0.89686	0.32085	-0.234
Mof_O 	O 	0.61579	0.58364	0.92966	-0.392
Mof_O 	O 	0.64748	0.53196	0.0095	-0.401
Mof_O 	O 	0.96838	0.53557	0.9229	-0.405
Mof_O 	O 	0.89585	0.50512	0.00657	-0.401
Mof_O 	O 	0.89686	0.72752	0.82085	-0.234
Mof_O 	O 	0.41636	0.03215	0.92966	-0.392
Mof_O 	O 	0.46804	0.11552	0.0095	-0.401
Mof_O 	O 	0.46443	0.43281	0.9229	-0.405
Mof_O 	O 	0.49488	0.39073	0.00657	-0.401
Mof_O 	O 	0.27248	0.16934	0.82085	-0.234
Mof_O 	O 	0.96785	0.38421	0.92966	-0.392
Mof_O 	O 	0.88448	0.35252	0.0095	-0.401
Mof_O 	O 	0.56719	0.03162	0.9229	-0.405
Mof_O 	O 	0.60927	0.10415	0.00657	-0.401
Mof_O 	O 	0.83066	0.10314	0.82085	-0.234
_end
