# CIF file generated by openbabel 3.1.0, see https://openbabel.org
data_I
_chemical_name_common 'image0'
_cell_length_a 27.742
_cell_length_b 13.8719
_cell_length_c 44.522
_cell_angle_alpha 90
_cell_angle_beta 90
_cell_angle_gamma 90
_space_group_name_H-M_alt 'P 1'
_space_group_name_Hall 'P 1'
loop_
    _symmetry_equiv_pos_as_xyz
    x,y,z
loop_
    _atom_site_label
    _atom_site_type_symbol
    _atom_site_fract_x
    _atom_site_fract_y
    _atom_site_fract_z
    _atom_site_occupancy
    Zn1      Zn       0.52440    0.88176    0.58515    1.000
    Zn2      Zn       0.54604    0.64231    0.41230    1.000
    Zn3      Zn       0.26057    0.18140    0.81989    1.000
    I1       I        0.50673    0.80430    0.53406    1.000
    I2       I        0.57321    0.79744    0.62516    1.000
    I3       I        0.48084    0.55568    0.38298    1.000
    I4       I        0.55651    0.82418    0.41514    1.000
    I5       I        0.17167    0.17832    0.83433    1.000
    I6       I        0.30272    0.34292    0.81252    1.000
    C1       C        0.54949    0.05730    0.54983    1.000
    H1       H        0.53500    0.02170    0.53400    1.000
    C2       C        0.56437    0.15030    0.54406    1.000
    H2       H        0.56060    0.17780    0.52470    1.000
    C3       C        0.57504    0.06620    0.59874    1.000
    H3       H        0.57900    0.03660    0.61780    1.000
    C4       C        0.59063    0.15960    0.59508    1.000
    H4       H        0.60490    0.19360    0.61130    1.000
    C5       C        0.58512    0.20300    0.56741    1.000
    C6       C        0.59890    0.30570    0.56270    1.000
    C7       C        0.69950    0.50480    0.65009    1.000
    H5       H        0.71330    0.47240    0.66680    1.000
    C8       C        0.67720    0.45060    0.62825    1.000
    H6       H        0.67540    0.38240    0.63000    1.000
    C9       C        0.68320    0.64490    0.62542    1.000
    H7       H        0.68480    0.71320    0.62440    1.000
    C10      C        0.66040    0.59620    0.60231    1.000
    H8       H        0.64710    0.63040    0.58580    1.000
    C11      C        0.65754    0.49680    0.60376    1.000
    C12      C        0.63244    0.44230    0.57966    1.000
    C13      C        0.57100    0.63400    0.47768    1.000
    H9       H        0.57600    0.70130    0.47540    1.000
    C14      C        0.58430    0.59060    0.50453    1.000
    H10      H        0.59810    0.62780    0.52030    1.000
    C15      C        0.54244    0.48980    0.45889    1.000
    H11      H        0.52690    0.45510    0.44320    1.000
    C16      C        0.55489    0.44130    0.48485    1.000
    H12      H        0.54850    0.37440    0.48690    1.000
    C17      C        0.57704    0.49270    0.50808    1.000
    C18      C        0.59312    0.44140    0.53565    1.000
    C19      C        0.11239    0.93660    0.63372    1.000
    H13      H        0.08300    0.94610    0.64420    1.000
    C20      C        0.15513    0.95470    0.64838    1.000
    H14      H        0.15510    0.97500    0.66870    1.000
    C21      C        0.15249    0.89590    0.59018    1.000
    H15      H        0.15150    0.87530    0.56980    1.000
    C22      C        0.19698    0.91400    0.60311    1.000
    H16      H        0.22590    0.90710    0.59190    1.000
    C23      C        0.19809    0.94270    0.63309    1.000
    C24      C        0.24456    0.95770    0.64892    1.000
    C25      C        0.41766    0.90610    0.59070    1.000
    H17      H        0.41820    0.88810    0.57010    1.000
    C26      C        0.37313    0.92140    0.60446    1.000
    H18      H        0.34400    0.91400    0.59350    1.000
    C27      C        0.45825    0.94280    0.63419    1.000
    H19      H        0.48790    0.95080    0.64460    1.000
    C28      C        0.41572    0.95940    0.64960    1.000
    H20      H        0.41620    0.97860    0.67010    1.000
    C29      C        0.37222    0.94750    0.63457    1.000
    C30      C        0.32571    0.96010    0.65006    1.000
    C31      C        0.31320    0.10550    0.76672    1.000
    H21      H        0.34020    0.13190    0.77690    1.000
    C32      C        0.31948    0.06890    0.73839    1.000
    H22      H        0.35040    0.06910    0.72930    1.000
    C33      C        0.23269    0.06680    0.76665    1.000
    H23      H        0.20260    0.06430    0.77680    1.000
    C34      C        0.23582    0.02960    0.73758    1.000
    H24      H        0.20820    0.00360    0.72790    1.000
    C35      C        0.28007    0.03160    0.72324    1.000
    C36      C        0.28329    0.99810    0.69165    1.000
    N1       N        0.55450    0.01490    0.57657    1.000
    N2       N        0.70279    0.60160    0.64890    1.000
    N3       N        0.55151    0.58470    0.45488    1.000
    N4       N        0.62529    0.34820    0.58407    1.000
    N5       N        0.61780    0.49270    0.55574    1.000
    N6       N        0.58172    0.34840    0.53809    1.000
    N7       N        0.11071    0.90600    0.60502    1.000
    N8       N        0.45943    0.91590    0.60519    1.000
    N9       N        0.27037    0.10560    0.78072    1.000
    N10      N        0.28566    0.94500    0.63402    1.000
    N11      N        0.32709    0.98700    0.67923    1.000
    N12      N        0.24137    0.98370    0.67777    1.000
    Zn4      Zn       0.97560    0.11824    0.08515    1.000
    Zn5      Zn       0.95396    0.35769    0.91230    1.000
    Zn6      Zn       0.23943    0.81860    0.31989    1.000
    I7       I        0.99327    0.19570    0.03406    1.000
    I8       I        0.92679    0.20256    0.12516    1.000
    I9       I        0.01916    0.44432    0.88298    1.000
    I10      I        0.94349    0.17582    0.91514    1.000
    I11      I        0.32833    0.82168    0.33433    1.000
    I12      I        0.19728    0.65708    0.31252    1.000
    C37      C        0.95051    0.94270    0.04983    1.000
    H25      H        0.96500    0.97830    0.03400    1.000
    C38      C        0.93563    0.84970    0.04406    1.000
    H26      H        0.93940    0.82220    0.02470    1.000
    C39      C        0.92496    0.93380    0.09874    1.000
    H27      H        0.92100    0.96340    0.11780    1.000
    C40      C        0.90937    0.84040    0.09508    1.000
    H28      H        0.89510    0.80640    0.11130    1.000
    C41      C        0.91488    0.79700    0.06741    1.000
    C42      C        0.90110    0.69430    0.06270    1.000
    C43      C        0.80050    0.49520    0.15009    1.000
    H29      H        0.78670    0.52760    0.16680    1.000
    C44      C        0.82280    0.54940    0.12825    1.000
    H30      H        0.82460    0.61760    0.13000    1.000
    C45      C        0.81680    0.35510    0.12542    1.000
    H31      H        0.81520    0.28680    0.12440    1.000
    C46      C        0.83960    0.40380    0.10231    1.000
    H32      H        0.85290    0.36960    0.08580    1.000
    C47      C        0.84246    0.50320    0.10376    1.000
    C48      C        0.86756    0.55770    0.07966    1.000
    C49      C        0.92900    0.36600    0.97768    1.000
    H33      H        0.92400    0.29870    0.97540    1.000
    C50      C        0.91570    0.40940    0.00453    1.000
    H34      H        0.90190    0.37220    0.02030    1.000
    C51      C        0.95756    0.51020    0.95889    1.000
    H35      H        0.97310    0.54490    0.94320    1.000
    C52      C        0.94511    0.55870    0.98485    1.000
    H36      H        0.95150    0.62560    0.98690    1.000
    C53      C        0.92296    0.50730    0.00808    1.000
    C54      C        0.90688    0.55860    0.03565    1.000
    C55      C        0.38761    0.06340    0.13372    1.000
    H37      H        0.41700    0.05390    0.14420    1.000
    C56      C        0.34487    0.04530    0.14838    1.000
    H38      H        0.34490    0.02500    0.16870    1.000
    C57      C        0.34751    0.10410    0.09018    1.000
    H39      H        0.34850    0.12470    0.06980    1.000
    C58      C        0.30302    0.08600    0.10311    1.000
    H40      H        0.27410    0.09290    0.09190    1.000
    C59      C        0.30191    0.05730    0.13309    1.000
    C60      C        0.25544    0.04230    0.14892    1.000
    C61      C        0.08234    0.09390    0.09070    1.000
    H41      H        0.08180    0.11190    0.07010    1.000
    C62      C        0.12687    0.07860    0.10446    1.000
    H42      H        0.15600    0.08600    0.09350    1.000
    C63      C        0.04175    0.05720    0.13419    1.000
    H43      H        0.01210    0.04920    0.14460    1.000
    C64      C        0.08428    0.04060    0.14960    1.000
    H44      H        0.08380    0.02140    0.17010    1.000
    C65      C        0.12778    0.05250    0.13457    1.000
    C66      C        0.17429    0.03990    0.15006    1.000
    C67      C        0.18680    0.89450    0.26672    1.000
    H45      H        0.15980    0.86810    0.27690    1.000
    C68      C        0.18052    0.93110    0.23839    1.000
    H46      H        0.14960    0.93090    0.22930    1.000
    C69      C        0.26731    0.93320    0.26665    1.000
    H47      H        0.29740    0.93570    0.27680    1.000
    C70      C        0.26418    0.97040    0.23758    1.000
    H48      H        0.29180    0.99640    0.22790    1.000
    C71      C        0.21993    0.96840    0.22324    1.000
    C72      C        0.21671    0.00190    0.19165    1.000
    N13      N        0.94550    0.98510    0.07657    1.000
    N14      N        0.79721    0.39840    0.14890    1.000
    N15      N        0.94849    0.41530    0.95488    1.000
    N16      N        0.87471    0.65180    0.08407    1.000
    N17      N        0.88220    0.50730    0.05574    1.000
    N18      N        0.91828    0.65160    0.03809    1.000
    N19      N        0.38929    0.09400    0.10502    1.000
    N20      N        0.04057    0.08410    0.10519    1.000
    N21      N        0.22963    0.89440    0.28072    1.000
    N22      N        0.21434    0.05500    0.13402    1.000
    N23      N        0.17291    0.01300    0.17923    1.000
    N24      N        0.25863    0.01630    0.17777    1.000
    Zn7      Zn       0.47560    0.38176    0.91485    1.000
    Zn8      Zn       0.45396    0.14231    0.08770    1.000
    Zn9      Zn       0.73943    0.68140    0.68011    1.000
    I13      I        0.49327    0.30430    0.96594    1.000
    I14      I        0.42679    0.29744    0.87484    1.000
    I15      I        0.51916    0.05568    0.11702    1.000
    I16      I        0.44349    0.32418    0.08486    1.000
    I17      I        0.82833    0.67832    0.66567    1.000
    I18      I        0.69728    0.84292    0.68748    1.000
    C73      C        0.45051    0.55730    0.95017    1.000
    H49      H        0.46500    0.52170    0.96600    1.000
    C74      C        0.43563    0.65030    0.95594    1.000
    H50      H        0.43940    0.67780    0.97530    1.000
    C75      C        0.42496    0.56620    0.90126    1.000
    H51      H        0.42100    0.53660    0.88220    1.000
    C76      C        0.40937    0.65960    0.90492    1.000
    H52      H        0.39510    0.69360    0.88870    1.000
    C77      C        0.41488    0.70300    0.93259    1.000
    C78      C        0.40110    0.80570    0.93730    1.000
    C79      C        0.30050    0.00480    0.84991    1.000
    H53      H        0.28670    0.97240    0.83320    1.000
    C80      C        0.32280    0.95060    0.87175    1.000
    H54      H        0.32460    0.88240    0.87000    1.000
    C81      C        0.31680    0.14490    0.87458    1.000
    H55      H        0.31520    0.21320    0.87560    1.000
    C82      C        0.33960    0.09620    0.89769    1.000
    H56      H        0.35290    0.13040    0.91420    1.000
    C83      C        0.34246    0.99680    0.89624    1.000
    C84      C        0.36756    0.94230    0.92034    1.000
    C85      C        0.42900    0.13400    0.02232    1.000
    H57      H        0.42400    0.20130    0.02460    1.000
    C86      C        0.41570    0.09060    0.99547    1.000
    H58      H        0.40190    0.12780    0.97970    1.000
    C87      C        0.45756    0.98980    0.04111    1.000
    H59      H        0.47310    0.95510    0.05680    1.000
    C88      C        0.44511    0.94130    0.01515    1.000
    H60      H        0.45150    0.87440    0.01310    1.000
    C89      C        0.42296    0.99270    0.99192    1.000
    C90      C        0.40688    0.94140    0.96435    1.000
    C91      C        0.88761    0.43660    0.86628    1.000
    H61      H        0.91700    0.44610    0.85580    1.000
    C92      C        0.84487    0.45470    0.85162    1.000
    H62      H        0.84490    0.47500    0.83130    1.000
    C93      C        0.84751    0.39590    0.90982    1.000
    H63      H        0.84850    0.37530    0.93020    1.000
    C94      C        0.80302    0.41400    0.89689    1.000
    H64      H        0.77410    0.40710    0.90810    1.000
    C95      C        0.80191    0.44270    0.86691    1.000
    C96      C        0.75544    0.45770    0.85108    1.000
    C97      C        0.58234    0.40610    0.90930    1.000
    H65      H        0.58180    0.38810    0.92990    1.000
    C98      C        0.62687    0.42140    0.89554    1.000
    H66      H        0.65600    0.41400    0.90650    1.000
    C99      C        0.54175    0.44280    0.86581    1.000
    H67      H        0.51210    0.45080    0.85540    1.000
    C100     C        0.58428    0.45940    0.85040    1.000
    H68      H        0.58380    0.47860    0.82990    1.000
    C101     C        0.62778    0.44750    0.86543    1.000
    C102     C        0.67429    0.46010    0.84994    1.000
    C103     C        0.68680    0.60550    0.73328    1.000
    H69      H        0.65980    0.63190    0.72310    1.000
    C104     C        0.68052    0.56890    0.76161    1.000
    H70      H        0.64960    0.56910    0.77070    1.000
    C105     C        0.76731    0.56680    0.73335    1.000
    H71      H        0.79740    0.56430    0.72320    1.000
    C106     C        0.76418    0.52960    0.76242    1.000
    H72      H        0.79180    0.50360    0.77210    1.000
    C107     C        0.71993    0.53160    0.77676    1.000
    C108     C        0.71671    0.49810    0.80835    1.000
    N25      N        0.44550    0.51490    0.92343    1.000
    N26      N        0.29721    0.10160    0.85110    1.000
    N27      N        0.44849    0.08470    0.04512    1.000
    N28      N        0.37471    0.84820    0.91593    1.000
    N29      N        0.38220    0.99270    0.94426    1.000
    N30      N        0.41828    0.84840    0.96191    1.000
    N31      N        0.88929    0.40600    0.89498    1.000
    N32      N        0.54057    0.41590    0.89481    1.000
    N33      N        0.72963    0.60560    0.71928    1.000
    N34      N        0.71434    0.44500    0.86598    1.000
    N35      N        0.67291    0.48700    0.82077    1.000
    N36      N        0.75863    0.48370    0.82223    1.000
    Zn10     Zn       0.02440    0.61824    0.41485    1.000
    Zn11     Zn       0.04604    0.85769    0.58770    1.000
    Zn12     Zn       0.76057    0.31860    0.18011    1.000
    I19      I        0.00673    0.69570    0.46594    1.000
    I20      I        0.07321    0.70256    0.37484    1.000
    I21      I        0.98084    0.94432    0.61702    1.000
    I22      I        0.05651    0.67582    0.58486    1.000
    I23      I        0.67167    0.32168    0.16567    1.000
    I24      I        0.80272    0.15708    0.18748    1.000
    C109     C        0.04949    0.44270    0.45017    1.000
    H73      H        0.03500    0.47830    0.46600    1.000
    C110     C        0.06437    0.34970    0.45594    1.000
    H74      H        0.06060    0.32220    0.47530    1.000
    C111     C        0.07504    0.43380    0.40126    1.000
    H75      H        0.07900    0.46340    0.38220    1.000
    C112     C        0.09063    0.34040    0.40492    1.000
    H76      H        0.10490    0.30640    0.38870    1.000
    C113     C        0.08512    0.29700    0.43259    1.000
    C114     C        0.09890    0.19430    0.43730    1.000
    C115     C        0.19950    0.99520    0.34991    1.000
    H77      H        0.21330    0.02760    0.33320    1.000
    C116     C        0.17720    0.04940    0.37175    1.000
    H78      H        0.17540    0.11760    0.37000    1.000
    C117     C        0.18320    0.85510    0.37458    1.000
    H79      H        0.18480    0.78680    0.37560    1.000
    C118     C        0.16040    0.90380    0.39769    1.000
    H80      H        0.14710    0.86960    0.41420    1.000
    C119     C        0.15754    0.00320    0.39624    1.000
    C120     C        0.13244    0.05770    0.42034    1.000
    C121     C        0.07100    0.86600    0.52232    1.000
    H81      H        0.07600    0.79870    0.52460    1.000
    C122     C        0.08430    0.90940    0.49547    1.000
    H82      H        0.09810    0.87220    0.47970    1.000
    C123     C        0.04244    0.01020    0.54111    1.000
    H83      H        0.02690    0.04490    0.55680    1.000
    C124     C        0.05489    0.05870    0.51515    1.000
    H84      H        0.04850    0.12560    0.51310    1.000
    C125     C        0.07704    0.00730    0.49192    1.000
    C126     C        0.09312    0.05860    0.46435    1.000
    C127     C        0.61239    0.56340    0.36628    1.000
    H85      H        0.58300    0.55390    0.35580    1.000
    C128     C        0.65513    0.54530    0.35162    1.000
    H86      H        0.65510    0.52500    0.33130    1.000
    C129     C        0.65249    0.60410    0.40982    1.000
    H87      H        0.65150    0.62470    0.43020    1.000
    C130     C        0.69698    0.58600    0.39689    1.000
    H88      H        0.72590    0.59290    0.40810    1.000
    C131     C        0.69809    0.55730    0.36691    1.000
    C132     C        0.74456    0.54230    0.35108    1.000
    C133     C        0.91766    0.59390    0.40930    1.000
    H89      H        0.91820    0.61190    0.42990    1.000
    C134     C        0.87313    0.57860    0.39554    1.000
    H90      H        0.84400    0.58600    0.40650    1.000
    C135     C        0.95825    0.55720    0.36581    1.000
    H91      H        0.98790    0.54920    0.35540    1.000
    C136     C        0.91572    0.54060    0.35040    1.000
    H92      H        0.91620    0.52140    0.32990    1.000
    C137     C        0.87222    0.55250    0.36543    1.000
    C138     C        0.82571    0.53990    0.34994    1.000
    C139     C        0.81320    0.39450    0.23328    1.000
    H93      H        0.84020    0.36810    0.22310    1.000
    C140     C        0.81948    0.43110    0.26161    1.000
    H94      H        0.85040    0.43090    0.27070    1.000
    C141     C        0.73269    0.43320    0.23335    1.000
    H95      H        0.70260    0.43570    0.22320    1.000
    C142     C        0.73582    0.47040    0.26242    1.000
    H96      H        0.70820    0.49640    0.27210    1.000
    C143     C        0.78007    0.46840    0.27676    1.000
    C144     C        0.78329    0.50190    0.30835    1.000
    N37      N        0.05450    0.48510    0.42343    1.000
    N38      N        0.20279    0.89840    0.35110    1.000
    N39      N        0.05151    0.91530    0.54512    1.000
    N40      N        0.12529    0.15180    0.41593    1.000
    N41      N        0.11780    0.00730    0.44426    1.000
    N42      N        0.08172    0.15160    0.46191    1.000
    N43      N        0.61071    0.59400    0.39498    1.000
    N44      N        0.95943    0.58410    0.39481    1.000
    N45      N        0.77037    0.39440    0.21928    1.000
    N46      N        0.78566    0.55500    0.36598    1.000
    N47      N        0.82709    0.51300    0.32077    1.000
    N48      N        0.74137    0.51630    0.32223    1.000
    Zn13     Zn       0.47560    0.11824    0.41485    1.000
    Zn14     Zn       0.45396    0.35769    0.58770    1.000
    Zn15     Zn       0.73943    0.81860    0.18011    1.000
    I25      I        0.49327    0.19570    0.46594    1.000
    I26      I        0.42679    0.20256    0.37484    1.000
    I27      I        0.51916    0.44432    0.61702    1.000
    I28      I        0.44349    0.17582    0.58486    1.000
    I29      I        0.82833    0.82168    0.16567    1.000
    I30      I        0.69728    0.65708    0.18748    1.000
    C145     C        0.45051    0.94270    0.45017    1.000
    H97      H        0.46500    0.97830    0.46600    1.000
    C146     C        0.43563    0.84970    0.45594    1.000
    H98      H        0.43940    0.82220    0.47530    1.000
    C147     C        0.42496    0.93380    0.40126    1.000
    H99      H        0.42100    0.96340    0.38220    1.000
    C148     C        0.40937    0.84040    0.40492    1.000
    H100     H        0.39510    0.80640    0.38870    1.000
    C149     C        0.41488    0.79700    0.43259    1.000
    C150     C        0.40110    0.69430    0.43730    1.000
    C151     C        0.30050    0.49520    0.34991    1.000
    H101     H        0.28670    0.52760    0.33320    1.000
    C152     C        0.32280    0.54940    0.37175    1.000
    H102     H        0.32460    0.61760    0.37000    1.000
    C153     C        0.31680    0.35510    0.37458    1.000
    H103     H        0.31520    0.28680    0.37560    1.000
    C154     C        0.33960    0.40380    0.39769    1.000
    H104     H        0.35290    0.36960    0.41420    1.000
    C155     C        0.34246    0.50320    0.39624    1.000
    C156     C        0.36756    0.55770    0.42034    1.000
    C157     C        0.42900    0.36600    0.52232    1.000
    H105     H        0.42400    0.29870    0.52460    1.000
    C158     C        0.41570    0.40940    0.49547    1.000
    H106     H        0.40190    0.37220    0.47970    1.000
    C159     C        0.45756    0.51020    0.54111    1.000
    H107     H        0.47310    0.54490    0.55680    1.000
    C160     C        0.44511    0.55870    0.51515    1.000
    H108     H        0.45150    0.62560    0.51310    1.000
    C161     C        0.42296    0.50730    0.49192    1.000
    C162     C        0.40688    0.55860    0.46435    1.000
    C163     C        0.88761    0.06340    0.36628    1.000
    H109     H        0.91700    0.05390    0.35580    1.000
    C164     C        0.84487    0.04530    0.35162    1.000
    H110     H        0.84490    0.02500    0.33130    1.000
    C165     C        0.84751    0.10410    0.40982    1.000
    H111     H        0.84850    0.12470    0.43020    1.000
    C166     C        0.80302    0.08600    0.39689    1.000
    H112     H        0.77410    0.09290    0.40810    1.000
    C167     C        0.80191    0.05730    0.36691    1.000
    C168     C        0.75544    0.04230    0.35108    1.000
    C169     C        0.58234    0.09390    0.40930    1.000
    H113     H        0.58180    0.11190    0.42990    1.000
    C170     C        0.62687    0.07860    0.39554    1.000
    H114     H        0.65600    0.08600    0.40650    1.000
    C171     C        0.54175    0.05720    0.36581    1.000
    H115     H        0.51210    0.04920    0.35540    1.000
    C172     C        0.58428    0.04060    0.35040    1.000
    H116     H        0.58380    0.02140    0.32990    1.000
    C173     C        0.62778    0.05250    0.36543    1.000
    C174     C        0.67429    0.03990    0.34994    1.000
    C175     C        0.68680    0.89450    0.23328    1.000
    H117     H        0.65980    0.86810    0.22310    1.000
    C176     C        0.68052    0.93110    0.26161    1.000
    H118     H        0.64960    0.93090    0.27070    1.000
    C177     C        0.76731    0.93320    0.23335    1.000
    H119     H        0.79740    0.93570    0.22320    1.000
    C178     C        0.76418    0.97040    0.26242    1.000
    H120     H        0.79180    0.99640    0.27210    1.000
    C179     C        0.71993    0.96840    0.27676    1.000
    C180     C        0.71671    0.00190    0.30835    1.000
    N49      N        0.44550    0.98510    0.42343    1.000
    N50      N        0.29721    0.39840    0.35110    1.000
    N51      N        0.44849    0.41530    0.54512    1.000
    N52      N        0.37471    0.65180    0.41593    1.000
    N53      N        0.38220    0.50730    0.44426    1.000
    N54      N        0.41828    0.65160    0.46191    1.000
    N55      N        0.88929    0.09400    0.39498    1.000
    N56      N        0.54057    0.08410    0.39481    1.000
    N57      N        0.72963    0.89440    0.21928    1.000
    N58      N        0.71434    0.05500    0.36598    1.000
    N59      N        0.67291    0.01300    0.32077    1.000
    N60      N        0.75863    0.01630    0.32223    1.000
    Zn16     Zn       0.02440    0.88176    0.91485    1.000
    Zn17     Zn       0.04604    0.64231    0.08770    1.000
    Zn18     Zn       0.76057    0.18140    0.68011    1.000
    I31      I        0.00673    0.80430    0.96594    1.000
    I32      I        0.07321    0.79744    0.87484    1.000
    I33      I        0.98084    0.55568    0.11702    1.000
    I34      I        0.05651    0.82418    0.08486    1.000
    I35      I        0.67167    0.17832    0.66567    1.000
    I36      I        0.80272    0.34292    0.68748    1.000
    C181     C        0.04949    0.05730    0.95017    1.000
    H121     H        0.03500    0.02170    0.96600    1.000
    C182     C        0.06437    0.15030    0.95594    1.000
    H122     H        0.06060    0.17780    0.97530    1.000
    C183     C        0.07504    0.06620    0.90126    1.000
    H123     H        0.07900    0.03660    0.88220    1.000
    C184     C        0.09063    0.15960    0.90492    1.000
    H124     H        0.10490    0.19360    0.88870    1.000
    C185     C        0.08512    0.20300    0.93259    1.000
    C186     C        0.09890    0.30570    0.93730    1.000
    C187     C        0.19950    0.50480    0.84991    1.000
    H125     H        0.21330    0.47240    0.83320    1.000
    C188     C        0.17720    0.45060    0.87175    1.000
    H126     H        0.17540    0.38240    0.87000    1.000
    C189     C        0.18320    0.64490    0.87458    1.000
    H127     H        0.18480    0.71320    0.87560    1.000
    C190     C        0.16040    0.59620    0.89769    1.000
    H128     H        0.14710    0.63040    0.91420    1.000
    C191     C        0.15754    0.49680    0.89624    1.000
    C192     C        0.13244    0.44230    0.92034    1.000
    C193     C        0.07100    0.63400    0.02232    1.000
    H129     H        0.07600    0.70130    0.02460    1.000
    C194     C        0.08430    0.59060    0.99547    1.000
    H130     H        0.09810    0.62780    0.97970    1.000
    C195     C        0.04244    0.48980    0.04111    1.000
    H131     H        0.02690    0.45510    0.05680    1.000
    C196     C        0.05489    0.44130    0.01515    1.000
    H132     H        0.04850    0.37440    0.01310    1.000
    C197     C        0.07704    0.49270    0.99192    1.000
    C198     C        0.09312    0.44140    0.96435    1.000
    C199     C        0.61239    0.93660    0.86628    1.000
    H133     H        0.58300    0.94610    0.85580    1.000
    C200     C        0.65513    0.95470    0.85162    1.000
    H134     H        0.65510    0.97500    0.83130    1.000
    C201     C        0.65249    0.89590    0.90982    1.000
    H135     H        0.65150    0.87530    0.93020    1.000
    C202     C        0.69698    0.91400    0.89689    1.000
    H136     H        0.72590    0.90710    0.90810    1.000
    C203     C        0.69809    0.94270    0.86691    1.000
    C204     C        0.74456    0.95770    0.85108    1.000
    C205     C        0.91766    0.90610    0.90930    1.000
    H137     H        0.91820    0.88810    0.92990    1.000
    C206     C        0.87313    0.92140    0.89554    1.000
    H138     H        0.84400    0.91400    0.90650    1.000
    C207     C        0.95825    0.94280    0.86581    1.000
    H139     H        0.98790    0.95080    0.85540    1.000
    C208     C        0.91572    0.95940    0.85040    1.000
    H140     H        0.91620    0.97860    0.82990    1.000
    C209     C        0.87222    0.94750    0.86543    1.000
    C210     C        0.82571    0.96010    0.84994    1.000
    C211     C        0.81320    0.10550    0.73328    1.000
    H141     H        0.84020    0.13190    0.72310    1.000
    C212     C        0.81948    0.06890    0.76161    1.000
    H142     H        0.85040    0.06910    0.77070    1.000
    C213     C        0.73269    0.06680    0.73335    1.000
    H143     H        0.70260    0.06430    0.72320    1.000
    C214     C        0.73582    0.02960    0.76242    1.000
    H144     H        0.70820    0.00360    0.77210    1.000
    C215     C        0.78007    0.03160    0.77676    1.000
    C216     C        0.78329    0.99810    0.80835    1.000
    N61      N        0.05450    0.01490    0.92343    1.000
    N62      N        0.20279    0.60160    0.85110    1.000
    N63      N        0.05151    0.58470    0.04512    1.000
    N64      N        0.12529    0.34820    0.91593    1.000
    N65      N        0.11780    0.49270    0.94426    1.000
    N66      N        0.08172    0.34840    0.96191    1.000
    N67      N        0.61071    0.90600    0.89498    1.000
    N68      N        0.95943    0.91590    0.89481    1.000
    N69      N        0.77037    0.10560    0.71928    1.000
    N70      N        0.78566    0.94500    0.86598    1.000
    N71      N        0.82709    0.98700    0.82077    1.000
    N72      N        0.74137    0.98370    0.82223    1.000
    Zn19     Zn       0.52440    0.61824    0.08515    1.000
    Zn20     Zn       0.54604    0.85769    0.91230    1.000
    Zn21     Zn       0.26057    0.31860    0.31989    1.000
    I37      I        0.50673    0.69570    0.03406    1.000
    I38      I        0.57321    0.70256    0.12516    1.000
    I39      I        0.48084    0.94432    0.88298    1.000
    I40      I        0.55651    0.67582    0.91514    1.000
    I41      I        0.17167    0.32168    0.33433    1.000
    I42      I        0.30272    0.15708    0.31252    1.000
    C217     C        0.54949    0.44270    0.04983    1.000
    H145     H        0.53500    0.47830    0.03400    1.000
    C218     C        0.56437    0.34970    0.04406    1.000
    H146     H        0.56060    0.32220    0.02470    1.000
    C219     C        0.57504    0.43380    0.09874    1.000
    H147     H        0.57900    0.46340    0.11780    1.000
    C220     C        0.59063    0.34040    0.09508    1.000
    H148     H        0.60490    0.30640    0.11130    1.000
    C221     C        0.58512    0.29700    0.06741    1.000
    C222     C        0.59890    0.19430    0.06270    1.000
    C223     C        0.69950    0.99520    0.15009    1.000
    H149     H        0.71330    0.02760    0.16680    1.000
    C224     C        0.67720    0.04940    0.12825    1.000
    H150     H        0.67540    0.11760    0.13000    1.000
    C225     C        0.68320    0.85510    0.12542    1.000
    H151     H        0.68480    0.78680    0.12440    1.000
    C226     C        0.66040    0.90380    0.10231    1.000
    H152     H        0.64710    0.86960    0.08580    1.000
    C227     C        0.65754    0.00320    0.10376    1.000
    C228     C        0.63244    0.05770    0.07966    1.000
    C229     C        0.57100    0.86600    0.97768    1.000
    H153     H        0.57600    0.79870    0.97540    1.000
    C230     C        0.58430    0.90940    0.00453    1.000
    H154     H        0.59810    0.87220    0.02030    1.000
    C231     C        0.54244    0.01020    0.95889    1.000
    H155     H        0.52690    0.04490    0.94320    1.000
    C232     C        0.55489    0.05870    0.98485    1.000
    H156     H        0.54850    0.12560    0.98690    1.000
    C233     C        0.57704    0.00730    0.00808    1.000
    C234     C        0.59312    0.05860    0.03565    1.000
    C235     C        0.11239    0.56340    0.13372    1.000
    H157     H        0.08300    0.55390    0.14420    1.000
    C236     C        0.15513    0.54530    0.14838    1.000
    H158     H        0.15510    0.52500    0.16870    1.000
    C237     C        0.15249    0.60410    0.09018    1.000
    H159     H        0.15150    0.62470    0.06980    1.000
    C238     C        0.19698    0.58600    0.10311    1.000
    H160     H        0.22590    0.59290    0.09190    1.000
    C239     C        0.19809    0.55730    0.13309    1.000
    C240     C        0.24456    0.54230    0.14892    1.000
    C241     C        0.41766    0.59390    0.09070    1.000
    H161     H        0.41820    0.61190    0.07010    1.000
    C242     C        0.37313    0.57860    0.10446    1.000
    H162     H        0.34400    0.58600    0.09350    1.000
    C243     C        0.45825    0.55720    0.13419    1.000
    H163     H        0.48790    0.54920    0.14460    1.000
    C244     C        0.41572    0.54060    0.14960    1.000
    H164     H        0.41620    0.52140    0.17010    1.000
    C245     C        0.37222    0.55250    0.13457    1.000
    C246     C        0.32571    0.53990    0.15006    1.000
    C247     C        0.31320    0.39450    0.26672    1.000
    H165     H        0.34020    0.36810    0.27690    1.000
    C248     C        0.31948    0.43110    0.23839    1.000
    H166     H        0.35040    0.43090    0.22930    1.000
    C249     C        0.23269    0.43320    0.26665    1.000
    H167     H        0.20260    0.43570    0.27680    1.000
    C250     C        0.23582    0.47040    0.23758    1.000
    H168     H        0.20820    0.49640    0.22790    1.000
    C251     C        0.28007    0.46840    0.22324    1.000
    C252     C        0.28329    0.50190    0.19165    1.000
    N73      N        0.55450    0.48510    0.07657    1.000
    N74      N        0.70279    0.89840    0.14890    1.000
    N75      N        0.55151    0.91530    0.95488    1.000
    N76      N        0.62529    0.15180    0.08407    1.000
    N77      N        0.61780    0.00730    0.05574    1.000
    N78      N        0.58172    0.15160    0.03809    1.000
    N79      N        0.11071    0.59400    0.10502    1.000
    N80      N        0.45943    0.58410    0.10519    1.000
    N81      N        0.27037    0.39440    0.28072    1.000
    N82      N        0.28566    0.55500    0.13402    1.000
    N83      N        0.32709    0.51300    0.17923    1.000
    N84      N        0.24137    0.51630    0.17777    1.000
    Zn22     Zn       0.97560    0.38176    0.58515    1.000
    Zn23     Zn       0.95396    0.14231    0.41230    1.000
    Zn24     Zn       0.23943    0.68140    0.81989    1.000
    I43      I        0.99327    0.30430    0.53406    1.000
    I44      I        0.92679    0.29744    0.62516    1.000
    I45      I        0.01916    0.05568    0.38298    1.000
    I46      I        0.94349    0.32418    0.41514    1.000
    I47      I        0.32833    0.67832    0.83433    1.000
    I48      I        0.19728    0.84292    0.81252    1.000
    C253     C        0.95051    0.55730    0.54983    1.000
    H169     H        0.96500    0.52170    0.53400    1.000
    C254     C        0.93563    0.65030    0.54406    1.000
    H170     H        0.93940    0.67780    0.52470    1.000
    C255     C        0.92496    0.56620    0.59874    1.000
    H171     H        0.92100    0.53660    0.61780    1.000
    C256     C        0.90937    0.65960    0.59508    1.000
    H172     H        0.89510    0.69360    0.61130    1.000
    C257     C        0.91488    0.70300    0.56741    1.000
    C258     C        0.90110    0.80570    0.56270    1.000
    C259     C        0.80050    0.00480    0.65009    1.000
    H173     H        0.78670    0.97240    0.66680    1.000
    C260     C        0.82280    0.95060    0.62825    1.000
    H174     H        0.82460    0.88240    0.63000    1.000
    C261     C        0.81680    0.14490    0.62542    1.000
    H175     H        0.81520    0.21320    0.62440    1.000
    C262     C        0.83960    0.09620    0.60231    1.000
    H176     H        0.85290    0.13040    0.58580    1.000
    C263     C        0.84246    0.99680    0.60376    1.000
    C264     C        0.86756    0.94230    0.57966    1.000
    C265     C        0.92900    0.13400    0.47768    1.000
    H177     H        0.92400    0.20130    0.47540    1.000
    C266     C        0.91570    0.09060    0.50453    1.000
    H178     H        0.90190    0.12780    0.52030    1.000
    C267     C        0.95756    0.98980    0.45889    1.000
    H179     H        0.97310    0.95510    0.44320    1.000
    C268     C        0.94511    0.94130    0.48485    1.000
    H180     H        0.95150    0.87440    0.48690    1.000
    C269     C        0.92296    0.99270    0.50808    1.000
    C270     C        0.90688    0.94140    0.53565    1.000
    C271     C        0.38761    0.43660    0.63372    1.000
    H181     H        0.41700    0.44610    0.64420    1.000
    C272     C        0.34487    0.45470    0.64838    1.000
    H182     H        0.34490    0.47500    0.66870    1.000
    C273     C        0.34751    0.39590    0.59018    1.000
    H183     H        0.34850    0.37530    0.56980    1.000
    C274     C        0.30302    0.41400    0.60311    1.000
    H184     H        0.27410    0.40710    0.59190    1.000
    C275     C        0.30191    0.44270    0.63309    1.000
    C276     C        0.25544    0.45770    0.64892    1.000
    C277     C        0.08234    0.40610    0.59070    1.000
    H185     H        0.08180    0.38810    0.57010    1.000
    C278     C        0.12687    0.42140    0.60446    1.000
    H186     H        0.15600    0.41400    0.59350    1.000
    C279     C        0.04175    0.44280    0.63419    1.000
    H187     H        0.01210    0.45080    0.64460    1.000
    C280     C        0.08428    0.45940    0.64960    1.000
    H188     H        0.08380    0.47860    0.67010    1.000
    C281     C        0.12778    0.44750    0.63457    1.000
    C282     C        0.17429    0.46010    0.65006    1.000
    C283     C        0.18680    0.60550    0.76672    1.000
    H189     H        0.15980    0.63190    0.77690    1.000
    C284     C        0.18052    0.56890    0.73839    1.000
    H190     H        0.14960    0.56910    0.72930    1.000
    C285     C        0.26731    0.56680    0.76665    1.000
    H191     H        0.29740    0.56430    0.77680    1.000
    C286     C        0.26418    0.52960    0.73758    1.000
    H192     H        0.29180    0.50360    0.72790    1.000
    C287     C        0.21993    0.53160    0.72324    1.000
    C288     C        0.21671    0.49810    0.69165    1.000
    N85      N        0.94550    0.51490    0.57657    1.000
    N86      N        0.79721    0.10160    0.64890    1.000
    N87      N        0.94849    0.08470    0.45488    1.000
    N88      N        0.87471    0.84820    0.58407    1.000
    N89      N        0.88220    0.99270    0.55574    1.000
    N90      N        0.91828    0.84840    0.53809    1.000
    N91      N        0.38929    0.40600    0.60502    1.000
    N92      N        0.04057    0.41590    0.60519    1.000
    N93      N        0.22963    0.60560    0.78072    1.000
    N94      N        0.21434    0.44500    0.63402    1.000
    N95      N        0.17291    0.48700    0.67923    1.000
    N96      N        0.25863    0.48370    0.67777    1.000
