data_functionalizedCrystal
_audit_creation_method	'EQeq! by Chris Wilmer'
_symmetry_space_group_name_H-M	'P1'
_symmetry_Int_Tables_number	1
_symmetry_cell_setting	triclinic
loop_
_symmetry_equiv_pos_as_xyz
  x,y,z
_cell_length_a	26.669
_cell_length_b	26.669
_cell_length_c	26.669
_cell_angle_alpha	90
_cell_angle_beta	90
_cell_angle_gamma	90
loop_
_atom_site_label
_atom_site_type_symbol
_atom_site_fract_x
_atom_site_fract_y
_atom_site_fract_z
_atom_site_charge
Mof_O 	O 	0.1826	0.2573	0.0533	-0.36
Mof_O 	O 	0.1826	0.7573	0.5533	-0.357
Mof_O 	O 	0.6826	0.2573	0.5533	-0.356
Mof_O 	O 	0.6826	0.7573	0.0533	-0.356
Mof_O 	O 	0.8174	0.7427	0.0533	-0.352
Mof_O 	O 	0.8174	0.2427	0.5533	-0.353
Mof_O 	O 	0.3174	0.7427	0.5533	-0.355
Mof_O 	O 	0.3174	0.2427	0.0533	-0.357
Mof_O 	O 	0.8174	0.2573	0.9467	-0.319
Mof_O 	O 	0.8174	0.7573	0.4467	-0.351
Mof_O 	O 	0.3174	0.2573	0.4467	-0.356
Mof_O 	O 	0.3174	0.7573	0.9467	-0.32
Mof_O 	O 	0.1826	0.7427	0.9467	-0.323
Mof_O 	O 	0.1826	0.2427	0.4467	-0.359
Mof_O 	O 	0.6826	0.7427	0.4467	-0.355
Mof_O 	O 	0.6826	0.2427	0.9467	-0.322
Mof_O 	O 	0.0533	0.1826	0.2573	-0.36
Mof_O 	O 	0.0533	0.6826	0.7573	-0.356
Mof_O 	O 	0.5533	0.1826	0.7573	-0.357
Mof_O 	O 	0.5533	0.6826	0.2573	-0.356
Mof_O 	O 	0.0533	0.8174	0.7427	-0.352
Mof_O 	O 	0.0533	0.3174	0.2427	-0.357
Mof_O 	O 	0.5533	0.8174	0.2427	-0.353
Mof_O 	O 	0.5533	0.3174	0.7427	-0.355
Mof_O 	O 	0.9467	0.8174	0.2573	-0.319
Mof_O 	O 	0.9467	0.3174	0.7573	-0.32
Mof_O 	O 	0.4467	0.8174	0.7573	-0.351
Mof_O 	O 	0.4467	0.3174	0.2573	-0.357
Mof_O 	O 	0.9467	0.1826	0.7427	-0.324
Mof_O 	O 	0.9467	0.6826	0.2427	-0.323
Mof_O 	O 	0.4467	0.1826	0.2427	-0.36
Mof_O 	O 	0.4467	0.6826	0.7427	-0.356
Mof_O 	O 	0.2573	0.0533	0.1826	-0.361
Mof_O 	O 	0.2573	0.5533	0.6826	-0.357
Mof_O 	O 	0.7573	0.0533	0.6826	-0.357
Mof_O 	O 	0.7573	0.5533	0.1826	-0.358
Mof_O 	O 	0.7427	0.0533	0.8174	-0.353
Mof_O 	O 	0.7427	0.5533	0.3174	-0.356
Mof_O 	O 	0.2427	0.0533	0.3174	-0.358
Mof_O 	O 	0.2427	0.5533	0.8174	-0.354
Mof_O 	O 	0.2573	0.9467	0.8174	-0.32
Mof_O 	O 	0.2573	0.4467	0.3174	-0.357
Mof_O 	O 	0.7573	0.9467	0.3174	-0.321
Mof_O 	O 	0.7573	0.4467	0.8174	-0.352
Mof_O 	O 	0.7427	0.9467	0.1826	-0.324
Mof_O 	O 	0.7427	0.4467	0.6826	-0.356
Mof_O 	O 	0.2427	0.9467	0.6826	-0.323
Mof_O 	O 	0.2427	0.4467	0.1826	-0.36
Mof_O 	O 	0.2573	0.1826	0.9467	-0.326
Mof_O 	O 	0.2573	0.6826	0.4467	-0.357
Mof_O 	O 	0.7573	0.1826	0.4467	-0.358
Mof_O 	O 	0.7573	0.6826	0.9467	-0.322
Mof_O 	O 	0.7427	0.8174	0.9467	-0.318
Mof_O 	O 	0.7427	0.3174	0.4467	-0.356
Mof_O 	O 	0.2427	0.8174	0.4467	-0.354
Mof_O 	O 	0.2427	0.3174	0.9467	-0.323
Mof_O 	O 	0.2573	0.8174	0.0533	-0.355
Mof_O 	O 	0.2573	0.3174	0.5533	-0.357
Mof_O 	O 	0.7573	0.8174	0.5533	-0.352
Mof_O 	O 	0.7573	0.3174	0.0533	-0.357
Mof_O 	O 	0.7427	0.1826	0.0533	-0.359
Mof_O 	O 	0.7427	0.6826	0.5533	-0.356
Mof_O 	O 	0.2427	0.1826	0.5533	-0.36
Mof_O 	O 	0.2427	0.6826	0.0533	-0.358
Mof_O 	O 	0.1826	0.0533	0.7427	-0.359
Mof_O 	O 	0.1826	0.5533	0.2427	-0.36
Mof_O 	O 	0.6826	0.0533	0.2427	-0.358
Mof_O 	O 	0.6826	0.5533	0.7427	-0.356
Mof_O 	O 	0.8174	0.0533	0.2573	-0.355
Mof_O 	O 	0.8174	0.5533	0.7573	-0.352
Mof_O 	O 	0.3174	0.0533	0.7573	-0.357
Mof_O 	O 	0.3174	0.5533	0.2573	-0.357
Mof_O 	O 	0.8174	0.9467	0.7427	-0.318
Mof_O 	O 	0.8174	0.4467	0.2427	-0.354
Mof_O 	O 	0.3174	0.9467	0.2427	-0.323
Mof_O 	O 	0.3174	0.4467	0.7427	-0.356
Mof_O 	O 	0.1826	0.9467	0.2573	-0.326
Mof_O 	O 	0.1826	0.4467	0.7573	-0.358
Mof_O 	O 	0.6826	0.9467	0.7573	-0.322
Mof_O 	O 	0.6826	0.4467	0.2573	-0.357
Mof_O 	O 	0.0533	0.2573	0.8174	-0.355
Mof_O 	O 	0.0533	0.7573	0.3174	-0.357
Mof_O 	O 	0.5533	0.2573	0.3174	-0.357
Mof_O 	O 	0.5533	0.7573	0.8174	-0.352
Mof_O 	O 	0.0533	0.7427	0.1826	-0.359
Mof_O 	O 	0.0533	0.2427	0.6826	-0.358
Mof_O 	O 	0.5533	0.7427	0.6826	-0.356
Mof_O 	O 	0.5533	0.2427	0.1826	-0.36
Mof_O 	O 	0.9467	0.2573	0.1826	-0.326
Mof_O 	O 	0.9467	0.7573	0.6826	-0.322
Mof_O 	O 	0.4467	0.2573	0.6826	-0.357
Mof_O 	O 	0.4467	0.7573	0.1826	-0.358
Mof_O 	O 	0.9467	0.7427	0.8174	-0.318
Mof_O 	O 	0.9467	0.2427	0.3174	-0.323
Mof_O 	O 	0.4467	0.7427	0.3174	-0.356
Mof_O 	O 	0.4467	0.2427	0.8174	-0.354
Mof_O 	O 	0.8174	0.7427	0.9467	-0.318
Mof_O 	O 	0.8174	0.2427	0.4467	-0.354
Mof_O 	O 	0.3174	0.7427	0.4467	-0.356
Mof_O 	O 	0.3174	0.2427	0.9467	-0.323
Mof_O 	O 	0.1826	0.2573	0.9467	-0.326
Mof_O 	O 	0.1826	0.7573	0.4467	-0.358
Mof_O 	O 	0.6826	0.2573	0.4467	-0.357
Mof_O 	O 	0.6826	0.7573	0.9467	-0.322
Mof_O 	O 	0.1826	0.7427	0.0533	-0.359
Mof_O 	O 	0.1826	0.2427	0.5533	-0.36
Mof_O 	O 	0.6826	0.7427	0.5533	-0.356
Mof_O 	O 	0.6826	0.2427	0.0533	-0.358
Mof_O 	O 	0.8174	0.2573	0.0533	-0.355
Mof_O 	O 	0.8174	0.7573	0.5533	-0.352
Mof_O 	O 	0.3174	0.2573	0.5533	-0.357
Mof_O 	O 	0.3174	0.7573	0.0533	-0.357
Mof_O 	O 	0.9467	0.8174	0.7427	-0.318
Mof_O 	O 	0.9467	0.3174	0.2427	-0.323
Mof_O 	O 	0.4467	0.8174	0.2427	-0.354
Mof_O 	O 	0.4467	0.3174	0.7427	-0.356
Mof_O 	O 	0.9467	0.1826	0.2573	-0.326
Mof_O 	O 	0.9467	0.6826	0.7573	-0.322
Mof_O 	O 	0.4467	0.1826	0.7573	-0.358
Mof_O 	O 	0.4467	0.6826	0.2573	-0.357
Mof_O 	O 	0.0533	0.1826	0.7427	-0.359
Mof_O 	O 	0.0533	0.6826	0.2427	-0.358
Mof_O 	O 	0.5533	0.1826	0.2427	-0.36
Mof_O 	O 	0.5533	0.6826	0.7427	-0.356
Mof_O 	O 	0.0533	0.8174	0.2573	-0.355
Mof_O 	O 	0.0533	0.3174	0.7573	-0.357
Mof_O 	O 	0.5533	0.8174	0.7573	-0.352
Mof_O 	O 	0.5533	0.3174	0.2573	-0.357
Mof_O 	O 	0.7427	0.9467	0.8174	-0.318
Mof_O 	O 	0.7427	0.4467	0.3174	-0.356
Mof_O 	O 	0.2427	0.9467	0.3174	-0.323
Mof_O 	O 	0.2427	0.4467	0.8174	-0.354
Mof_O 	O 	0.2573	0.9467	0.1826	-0.326
Mof_O 	O 	0.2573	0.4467	0.6826	-0.357
Mof_O 	O 	0.7573	0.9467	0.6826	-0.322
Mof_O 	O 	0.7573	0.4467	0.1826	-0.358
Mof_O 	O 	0.7427	0.0533	0.1826	-0.359
Mof_O 	O 	0.7427	0.5533	0.6826	-0.356
Mof_O 	O 	0.2427	0.0533	0.6826	-0.358
Mof_O 	O 	0.2427	0.5533	0.1826	-0.36
Mof_O 	O 	0.2573	0.0533	0.8174	-0.355
Mof_O 	O 	0.2573	0.5533	0.3174	-0.357
Mof_O 	O 	0.7573	0.0533	0.3174	-0.357
Mof_O 	O 	0.7573	0.5533	0.8174	-0.352
Mof_O 	O 	0.7427	0.8174	0.0533	-0.353
Mof_O 	O 	0.7427	0.3174	0.5533	-0.356
Mof_O 	O 	0.2427	0.8174	0.5533	-0.354
Mof_O 	O 	0.2427	0.3174	0.0533	-0.358
Mof_O 	O 	0.2573	0.1826	0.0533	-0.361
Mof_O 	O 	0.2573	0.6826	0.5533	-0.357
Mof_O 	O 	0.7573	0.1826	0.5533	-0.358
Mof_O 	O 	0.7573	0.6826	0.0533	-0.357
Mof_O 	O 	0.7427	0.1826	0.9467	-0.324
Mof_O 	O 	0.7427	0.6826	0.4467	-0.356
Mof_O 	O 	0.2427	0.1826	0.4467	-0.36
Mof_O 	O 	0.2427	0.6826	0.9467	-0.323
Mof_O 	O 	0.2573	0.8174	0.9467	-0.32
Mof_O 	O 	0.2573	0.3174	0.4467	-0.357
Mof_O 	O 	0.7573	0.8174	0.4467	-0.352
Mof_O 	O 	0.7573	0.3174	0.9467	-0.321
Mof_O 	O 	0.8174	0.9467	0.2573	-0.32
Mof_O 	O 	0.8174	0.4467	0.7573	-0.352
Mof_O 	O 	0.3174	0.9467	0.7573	-0.321
Mof_O 	O 	0.3174	0.4467	0.2573	-0.357
Mof_O 	O 	0.1826	0.9467	0.7427	-0.324
Mof_O 	O 	0.1826	0.4467	0.2427	-0.36
Mof_O 	O 	0.6826	0.9467	0.2427	-0.323
Mof_O 	O 	0.6826	0.4467	0.7427	-0.356
Mof_O 	O 	0.1826	0.0533	0.2573	-0.361
Mof_O 	O 	0.1826	0.5533	0.7573	-0.358
Mof_O 	O 	0.6826	0.0533	0.7573	-0.357
Mof_O 	O 	0.6826	0.5533	0.2573	-0.357
Mof_O 	O 	0.8174	0.0533	0.7427	-0.353
Mof_O 	O 	0.8174	0.5533	0.2427	-0.354
Mof_O 	O 	0.3174	0.0533	0.2427	-0.358
Mof_O 	O 	0.3174	0.5533	0.7427	-0.356
Mof_O 	O 	0.9467	0.7427	0.1826	-0.324
Mof_O 	O 	0.9467	0.2427	0.6826	-0.323
Mof_O 	O 	0.4467	0.7427	0.6826	-0.356
Mof_O 	O 	0.4467	0.2427	0.1826	-0.36
Mof_O 	O 	0.9467	0.2573	0.8174	-0.32
Mof_O 	O 	0.9467	0.7573	0.3174	-0.321
Mof_O 	O 	0.4467	0.2573	0.3174	-0.357
Mof_O 	O 	0.4467	0.7573	0.8174	-0.352
Mof_O 	O 	0.0533	0.7427	0.8174	-0.353
Mof_O 	O 	0.0533	0.2427	0.3174	-0.358
Mof_O 	O 	0.5533	0.7427	0.3174	-0.356
Mof_O 	O 	0.5533	0.2427	0.8174	-0.354
Mof_O 	O 	0.0533	0.2573	0.1826	-0.361
Mof_O 	O 	0.0533	0.7573	0.6826	-0.357
Mof_O 	O 	0.5533	0.2573	0.6826	-0.357
Mof_O 	O 	0.5533	0.7573	0.1826	-0.358
Mof_C 	C 	0.2	0.3	0.0695	0.351
Mof_C 	C 	0.179	0.321	0.1138	-0.151
Mof_C 	C 	0.2	0.8	0.5695	0.357
Mof_C 	C 	0.179	0.821	0.6138	-0.143
Mof_C 	C 	0.8	0.7	0.0695	0.35
Mof_C 	C 	0.821	0.679	0.1138	-0.142
Mof_C 	C 	0.8	0.2	0.5695	0.357
Mof_C 	C 	0.821	0.179	0.6138	-0.143
Mof_C 	C 	0.3	0.2	0.0695	0.351
Mof_C 	C 	0.321	0.179	0.1138	-0.151
Mof_C 	C 	0.8	0.3	0.9305	0.35
Mof_C 	C 	0.821	0.321	0.8862	-0.13
Mof_C 	C 	0.8	0.8	0.4305	0.357
Mof_C 	C 	0.821	0.821	0.3862	-0.136
Mof_C 	C 	0.3	0.3	0.4305	0.359
Mof_C 	C 	0.321	0.321	0.3862	-0.149
Mof_C 	C 	0.2	0.7	0.9305	0.349
Mof_C 	C 	0.179	0.679	0.8862	-0.136
Mof_C 	C 	0.2	0.2	0.4305	0.357
Mof_C 	C 	0.179	0.179	0.3862	-0.151
Mof_C 	C 	0.0695	0.2	0.3	0.351
Mof_C 	C 	0.1138	0.179	0.321	-0.151
Mof_C 	C 	0.5695	0.2	0.8	0.357
Mof_C 	C 	0.6138	0.179	0.821	-0.143
Mof_C 	C 	0.0695	0.8	0.7	0.35
Mof_C 	C 	0.1138	0.821	0.679	-0.142
Mof_C 	C 	0.0695	0.3	0.2	0.351
Mof_C 	C 	0.1138	0.321	0.179	-0.151
Mof_C 	C 	0.5695	0.8	0.2	0.357
Mof_C 	C 	0.6138	0.821	0.179	-0.143
Mof_C 	C 	0.9305	0.8	0.3	0.35
Mof_C 	C 	0.8862	0.821	0.321	-0.13
Mof_C 	C 	0.4305	0.8	0.8	0.357
Mof_C 	C 	0.3862	0.821	0.821	-0.136
Mof_C 	C 	0.4305	0.3	0.3	0.359
Mof_C 	C 	0.3862	0.321	0.321	-0.149
Mof_C 	C 	0.9305	0.2	0.7	0.349
Mof_C 	C 	0.8862	0.179	0.679	-0.136
Mof_C 	C 	0.4305	0.2	0.2	0.357
Mof_C 	C 	0.3862	0.179	0.179	-0.151
Mof_C 	C 	0.3	0.0695	0.2	0.351
Mof_C 	C 	0.321	0.1138	0.179	-0.151
Mof_C 	C 	0.3	0.5695	0.7	0.358
Mof_C 	C 	0.321	0.6138	0.679	-0.146
Mof_C 	C 	0.7	0.0695	0.8	0.35
Mof_C 	C 	0.679	0.1138	0.821	-0.142
Mof_C 	C 	0.7	0.5695	0.3	0.358
Mof_C 	C 	0.679	0.6138	0.321	-0.146
Mof_C 	C 	0.2	0.0695	0.3	0.351
Mof_C 	C 	0.179	0.1138	0.321	-0.151
Mof_C 	C 	0.3	0.9305	0.8	0.35
Mof_C 	C 	0.321	0.8862	0.821	-0.13
Mof_C 	C 	0.3	0.4305	0.3	0.359
Mof_C 	C 	0.321	0.3862	0.321	-0.149
Mof_C 	C 	0.7	0.9305	0.2	0.349
Mof_C 	C 	0.679	0.8862	0.179	-0.136
Mof_C 	C 	0.7	0.4305	0.7	0.358
Mof_C 	C 	0.679	0.3862	0.679	-0.146
Mof_C 	C 	0.2	0.4305	0.2	0.357
Mof_C 	C 	0.179	0.3862	0.179	-0.151
Mof_C 	C 	0.3	0.2	0.9305	0.35
Mof_C 	C 	0.321	0.179	0.8862	-0.137
Mof_C 	C 	0.3	0.7	0.4305	0.359
Mof_C 	C 	0.321	0.679	0.3862	-0.147
Mof_C 	C 	0.7	0.8	0.9305	0.349
Mof_C 	C 	0.679	0.821	0.8862	-0.128
Mof_C 	C 	0.7	0.3	0.4305	0.359
Mof_C 	C 	0.679	0.321	0.3862	-0.147
Mof_C 	C 	0.2	0.3	0.9305	0.35
Mof_C 	C 	0.179	0.321	0.8862	-0.137
Mof_C 	C 	0.3	0.8	0.0695	0.351
Mof_C 	C 	0.321	0.821	0.1138	-0.143
Mof_C 	C 	0.3	0.3	0.5695	0.359
Mof_C 	C 	0.321	0.321	0.6138	-0.148
Mof_C 	C 	0.7	0.2	0.0695	0.35
Mof_C 	C 	0.679	0.179	0.1138	-0.15
Mof_C 	C 	0.7	0.7	0.5695	0.358
Mof_C 	C 	0.679	0.679	0.6138	-0.145
Mof_C 	C 	0.2	0.2	0.5695	0.357
Mof_C 	C 	0.179	0.179	0.6138	-0.15
Mof_C 	C 	0.2	0.0695	0.7	0.35
Mof_C 	C 	0.179	0.1138	0.679	-0.15
Mof_C 	C 	0.2	0.5695	0.2	0.357
Mof_C 	C 	0.179	0.6138	0.179	-0.15
Mof_C 	C 	0.8	0.0695	0.3	0.351
Mof_C 	C 	0.821	0.1138	0.321	-0.143
Mof_C 	C 	0.8	0.5695	0.8	0.357
Mof_C 	C 	0.821	0.6138	0.821	-0.135
Mof_C 	C 	0.3	0.5695	0.3	0.359
Mof_C 	C 	0.321	0.6138	0.321	-0.148
Mof_C 	C 	0.8	0.9305	0.7	0.349
Mof_C 	C 	0.821	0.8862	0.679	-0.128
Mof_C 	C 	0.8	0.4305	0.2	0.357
Mof_C 	C 	0.821	0.3862	0.179	-0.143
Mof_C 	C 	0.3	0.9305	0.2	0.35
Mof_C 	C 	0.321	0.8862	0.179	-0.137
Mof_C 	C 	0.2	0.9305	0.3	0.35
Mof_C 	C 	0.179	0.8862	0.321	-0.137
Mof_C 	C 	0.2	0.4305	0.8	0.357
Mof_C 	C 	0.179	0.3862	0.821	-0.143
Mof_C 	C 	0.0695	0.3	0.8	0.351
Mof_C 	C 	0.1138	0.321	0.821	-0.143
Mof_C 	C 	0.5695	0.3	0.3	0.359
Mof_C 	C 	0.6138	0.321	0.321	-0.148
Mof_C 	C 	0.0695	0.7	0.2	0.35
Mof_C 	C 	0.1138	0.679	0.179	-0.15
Mof_C 	C 	0.5695	0.7	0.7	0.358
Mof_C 	C 	0.6138	0.679	0.679	-0.145
Mof_C 	C 	0.5695	0.2	0.2	0.357
Mof_C 	C 	0.6138	0.179	0.179	-0.15
Mof_C 	C 	0.9305	0.3	0.2	0.35
Mof_C 	C 	0.8862	0.321	0.179	-0.137
Mof_C 	C 	0.4305	0.3	0.7	0.359
Mof_C 	C 	0.3862	0.321	0.679	-0.147
Mof_C 	C 	0.9305	0.7	0.8	0.349
Mof_C 	C 	0.8862	0.679	0.821	-0.128
Mof_C 	C 	0.9305	0.2	0.3	0.35
Mof_C 	C 	0.8862	0.179	0.321	-0.137
Mof_C 	C 	0.4305	0.7	0.3	0.359
Mof_C 	C 	0.3862	0.679	0.321	-0.147
Mof_C 	C 	0.8	0.7	0.9305	0.349
Mof_C 	C 	0.821	0.679	0.8862	-0.128
Mof_C 	C 	0.8	0.2	0.4305	0.357
Mof_C 	C 	0.821	0.179	0.3862	-0.143
Mof_C 	C 	0.2	0.8	0.4305	0.357
Mof_C 	C 	0.179	0.821	0.3862	-0.143
Mof_C 	C 	0.2	0.7	0.0695	0.35
Mof_C 	C 	0.179	0.679	0.1138	-0.15
Mof_C 	C 	0.8	0.3	0.0695	0.351
Mof_C 	C 	0.821	0.321	0.1138	-0.143
Mof_C 	C 	0.8	0.8	0.5695	0.357
Mof_C 	C 	0.821	0.821	0.6138	-0.135
Mof_C 	C 	0.9305	0.8	0.7	0.349
Mof_C 	C 	0.8862	0.821	0.679	-0.128
Mof_C 	C 	0.4305	0.8	0.2	0.357
Mof_C 	C 	0.3862	0.821	0.179	-0.143
Mof_C 	C 	0.4305	0.2	0.8	0.357
Mof_C 	C 	0.3862	0.179	0.821	-0.143
Mof_C 	C 	0.0695	0.2	0.7	0.35
Mof_C 	C 	0.1138	0.179	0.679	-0.15
Mof_C 	C 	0.0695	0.8	0.3	0.351
Mof_C 	C 	0.1138	0.821	0.321	-0.143
Mof_C 	C 	0.5695	0.8	0.8	0.357
Mof_C 	C 	0.6138	0.821	0.821	-0.135
Mof_C 	C 	0.7	0.9305	0.8	0.349
Mof_C 	C 	0.679	0.8862	0.821	-0.128
Mof_C 	C 	0.7	0.4305	0.3	0.359
Mof_C 	C 	0.679	0.3862	0.321	-0.147
Mof_C 	C 	0.3	0.4305	0.7	0.359
Mof_C 	C 	0.321	0.3862	0.679	-0.147
Mof_C 	C 	0.7	0.0695	0.2	0.35
Mof_C 	C 	0.679	0.1138	0.179	-0.15
Mof_C 	C 	0.7	0.5695	0.7	0.358
Mof_C 	C 	0.679	0.6138	0.679	-0.145
Mof_C 	C 	0.3	0.0695	0.8	0.351
Mof_C 	C 	0.321	0.1138	0.821	-0.143
Mof_C 	C 	0.7	0.8	0.0695	0.35
Mof_C 	C 	0.679	0.821	0.1138	-0.142
Mof_C 	C 	0.7	0.3	0.5695	0.358
Mof_C 	C 	0.679	0.321	0.6138	-0.146
Mof_C 	C 	0.3	0.7	0.5695	0.358
Mof_C 	C 	0.321	0.679	0.6138	-0.146
Mof_C 	C 	0.7	0.2	0.9305	0.349
Mof_C 	C 	0.679	0.179	0.8862	-0.136
Mof_C 	C 	0.7	0.7	0.4305	0.358
Mof_C 	C 	0.679	0.679	0.3862	-0.146
Mof_C 	C 	0.3	0.8	0.9305	0.35
Mof_C 	C 	0.321	0.821	0.8862	-0.13
Mof_C 	C 	0.8	0.9305	0.3	0.35
Mof_C 	C 	0.821	0.8862	0.321	-0.13
Mof_C 	C 	0.8	0.4305	0.8	0.357
Mof_C 	C 	0.821	0.3862	0.821	-0.136
Mof_C 	C 	0.2	0.9305	0.7	0.349
Mof_C 	C 	0.179	0.8862	0.679	-0.136
Mof_C 	C 	0.2	0.5695	0.8	0.357
Mof_C 	C 	0.179	0.6138	0.821	-0.143
Mof_C 	C 	0.8	0.0695	0.7	0.35
Mof_C 	C 	0.821	0.1138	0.679	-0.142
Mof_C 	C 	0.8	0.5695	0.2	0.357
Mof_C 	C 	0.821	0.6138	0.179	-0.143
Mof_C 	C 	0.9305	0.7	0.2	0.349
Mof_C 	C 	0.8862	0.679	0.179	-0.136
Mof_C 	C 	0.4305	0.7	0.7	0.358
Mof_C 	C 	0.3862	0.679	0.679	-0.146
Mof_C 	C 	0.9305	0.3	0.8	0.35
Mof_C 	C 	0.8862	0.321	0.821	-0.13
Mof_C 	C 	0.0695	0.7	0.8	0.35
Mof_C 	C 	0.1138	0.679	0.821	-0.142
Mof_C 	C 	0.5695	0.7	0.3	0.358
Mof_C 	C 	0.6138	0.679	0.321	-0.146
Mof_C 	C 	0.5695	0.3	0.7	0.358
Mof_C 	C 	0.6138	0.321	0.679	-0.146
Mof_Fe	Fe	0.21063	0.21063	-0	0.701
Mof_Fe	Fe	0.21063	0.71063	0.5	0.77
Mof_Fe	Fe	0.71063	0.21063	0.5	0.77
Mof_Fe	Fe	0.71063	0.71063	-0	0.708
Mof_Fe	Fe	0.78937	0.78937	-0	0.72
Mof_Fe	Fe	0.78937	0.28937	0.5	0.781
Mof_Fe	Fe	0.28937	0.78937	0.5	0.781
Mof_Fe	Fe	0.28937	0.28937	-0	0.708
Mof_Fe	Fe	0.78937	0.21063	-0	0.711
Mof_Fe	Fe	0.78937	0.71063	0.5	0.781
Mof_Fe	Fe	0.28937	0.21063	0.5	0.771
Mof_Fe	Fe	0.28937	0.71063	-0	0.708
Mof_Fe	Fe	0.21063	0.78937	-0	0.711
Mof_Fe	Fe	0.21063	0.28937	0.5	0.771
Mof_Fe	Fe	0.71063	0.78937	0.5	0.781
Mof_Fe	Fe	0.71063	0.28937	-0	0.708
Mof_Fe	Fe	7.89736e-34	0.21063	0.21063	0.701
Mof_Fe	Fe	1.33113e-32	0.71063	0.71063	0.708
Mof_Fe	Fe	0.5	0.21063	0.71063	0.77
Mof_Fe	Fe	0.5	0.71063	0.21063	0.77
Mof_Fe	Fe	2.42533e-32	0.78937	0.78937	0.72
Mof_Fe	Fe	1.08496e-33	0.28937	0.28937	0.708
Mof_Fe	Fe	0.5	0.78937	0.28937	0.781
Mof_Fe	Fe	0.5	0.28937	0.78937	0.781
Mof_Fe	Fe	1.14366e-32	0.78937	0.21063	0.711
Mof_Fe	Fe	7.98785e-33	0.28937	0.71063	0.708
Mof_Fe	Fe	0.5	0.78937	0.71063	0.781
Mof_Fe	Fe	0.5	0.28937	0.21063	0.771
Mof_Fe	Fe	1.36065e-32	0.21063	0.78937	0.711
Mof_Fe	Fe	6.40838e-33	0.71063	0.28937	0.708
Mof_Fe	Fe	0.5	0.21063	0.28937	0.771
Mof_Fe	Fe	0.5	0.71063	0.78937	0.781
Mof_Fe	Fe	0.21063	0	0.21063	0.701
Mof_Fe	Fe	0.21063	0.5	0.71063	0.77
Mof_Fe	Fe	0.71063	5.32341e-33	0.71063	0.708
Mof_Fe	Fe	0.71063	0.5	0.21063	0.77
Mof_Fe	Fe	0.78937	1.06468e-32	0.78937	0.72
Mof_Fe	Fe	0.78937	0.5	0.28937	0.781
Mof_Fe	Fe	0.28937	0	0.28937	0.708
Mof_Fe	Fe	0.28937	0.5	0.78937	0.781
Mof_Fe	Fe	0.21063	1.06468e-32	0.78937	0.711
Mof_Fe	Fe	0.21063	0.5	0.28937	0.771
Mof_Fe	Fe	0.71063	0	0.28937	0.708
Mof_Fe	Fe	0.71063	0.5	0.78937	0.781
Mof_Fe	Fe	0.78937	0	0.21063	0.711
Mof_Fe	Fe	0.78937	0.5	0.71063	0.781
Mof_Fe	Fe	0.28937	5.32341e-33	0.71063	0.708
Mof_Fe	Fe	0.28937	0.5	0.21063	0.771
Mof_C 	C 	0.1975	0.3658	0.1342	0.084
Mof_H 	H 	0.223	0.3825	0.1175	0.025
Mof_C 	C 	0.6975	0.3658	0.6342	0.084
Mof_H 	H 	0.723	0.3825	0.6175	0.031
Mof_C 	C 	0.8025	0.6342	0.1342	0.081
Mof_H 	H 	0.777	0.6175	0.1175	0.028
Mof_C 	C 	0.3025	0.6342	0.6342	0.085
Mof_H 	H 	0.277	0.6175	0.6175	0.029
Mof_C 	C 	0.3025	0.1342	0.1342	0.083
Mof_H 	H 	0.277	0.1175	0.1175	0.021
Mof_C 	C 	0.8025	0.3658	0.8658	0.077
Mof_H 	H 	0.777	0.3825	0.8825	0.039
Mof_C 	C 	0.3025	0.3658	0.3658	0.086
Mof_H 	H 	0.277	0.3825	0.3825	0.028
Mof_C 	C 	0.1975	0.6342	0.8658	0.079
Mof_H 	H 	0.223	0.6175	0.8825	0.037
Mof_C 	C 	0.1975	0.1342	0.3658	0.084
Mof_H 	H 	0.223	0.1175	0.3825	0.025
Mof_C 	C 	0.6975	0.6342	0.3658	0.084
Mof_H 	H 	0.723	0.6175	0.3825	0.031
Mof_C 	C 	0.1342	0.1975	0.3658	0.084
Mof_H 	H 	0.1175	0.223	0.3825	0.025
Mof_C 	C 	0.1342	0.6975	0.8658	0.078
Mof_H 	H 	0.1175	0.723	0.8825	0.035
Mof_C 	C 	0.1342	0.8025	0.6342	0.081
Mof_H 	H 	0.1175	0.777	0.6175	0.028
Mof_C 	C 	0.1342	0.3025	0.1342	0.083
Mof_H 	H 	0.1175	0.277	0.1175	0.021
Mof_C 	C 	0.8658	0.8025	0.3658	0.077
Mof_H 	H 	0.8825	0.777	0.3825	0.039
Mof_C 	C 	0.8658	0.3025	0.8658	0.075
Mof_H 	H 	0.8825	0.277	0.8825	0.044
Mof_C 	C 	0.3658	0.3025	0.3658	0.086
Mof_H 	H 	0.3825	0.277	0.3825	0.028
Mof_C 	C 	0.8658	0.1975	0.6342	0.079
Mof_H 	H 	0.8825	0.223	0.6175	0.037
Mof_C 	C 	0.8658	0.6975	0.1342	0.078
Mof_H 	H 	0.8825	0.723	0.1175	0.035
Mof_C 	C 	0.3658	0.1975	0.1342	0.084
Mof_H 	H 	0.3825	0.223	0.1175	0.025
Mof_C 	C 	0.3658	0.1342	0.1975	0.084
Mof_H 	H 	0.3825	0.1175	0.223	0.025
Mof_C 	C 	0.3658	0.6342	0.6975	0.084
Mof_H 	H 	0.3825	0.6175	0.723	0.031
Mof_C 	C 	0.6342	0.1342	0.8025	0.081
Mof_H 	H 	0.6175	0.1175	0.777	0.028
Mof_C 	C 	0.6342	0.6342	0.3025	0.085
Mof_H 	H 	0.6175	0.6175	0.277	0.029
Mof_C 	C 	0.1342	0.1342	0.3025	0.083
Mof_H 	H 	0.1175	0.1175	0.277	0.021
Mof_C 	C 	0.3658	0.8658	0.8025	0.077
Mof_H 	H 	0.3825	0.8825	0.777	0.039
Mof_C 	C 	0.3658	0.3658	0.3025	0.086
Mof_H 	H 	0.3825	0.3825	0.277	0.028
Mof_C 	C 	0.6342	0.8658	0.1975	0.079
Mof_H 	H 	0.6175	0.8825	0.223	0.037
Mof_C 	C 	0.6342	0.3658	0.6975	0.084
Mof_H 	H 	0.6175	0.3825	0.723	0.031
Mof_C 	C 	0.1342	0.3658	0.1975	0.084
Mof_H 	H 	0.1175	0.3825	0.223	0.025
Mof_C 	C 	0.3658	0.1975	0.8658	0.08
Mof_H 	H 	0.3825	0.223	0.8825	0.036
Mof_C 	C 	0.3658	0.6975	0.3658	0.085
Mof_H 	H 	0.3825	0.723	0.3825	0.031
Mof_C 	C 	0.6342	0.8025	0.8658	0.076
Mof_H 	H 	0.6175	0.777	0.8825	0.039
Mof_C 	C 	0.6342	0.3025	0.3658	0.085
Mof_H 	H 	0.6175	0.277	0.3825	0.028
Mof_C 	C 	0.1342	0.8025	0.3658	0.081
Mof_H 	H 	0.1175	0.777	0.3825	0.028
Mof_C 	C 	0.3658	0.8025	0.1342	0.081
Mof_H 	H 	0.3825	0.777	0.1175	0.028
Mof_C 	C 	0.3658	0.3025	0.6342	0.085
Mof_H 	H 	0.3825	0.277	0.6175	0.028
Mof_C 	C 	0.6342	0.1975	0.1342	0.083
Mof_H 	H 	0.6175	0.223	0.1175	0.025
Mof_C 	C 	0.6342	0.6975	0.6342	0.083
Mof_H 	H 	0.6175	0.723	0.6175	0.032
Mof_C 	C 	0.1342	0.6975	0.1342	0.082
Mof_H 	H 	0.1175	0.723	0.1175	0.024
Mof_C 	C 	0.1975	0.1342	0.6342	0.083
Mof_H 	H 	0.223	0.1175	0.6175	0.025
Mof_C 	C 	0.6975	0.1342	0.1342	0.082
Mof_H 	H 	0.723	0.1175	0.1175	0.024
Mof_C 	C 	0.8025	0.1342	0.3658	0.081
Mof_H 	H 	0.777	0.1175	0.3825	0.028
Mof_C 	C 	0.3025	0.1342	0.8658	0.079
Mof_H 	H 	0.277	0.1175	0.8825	0.032
Mof_C 	C 	0.8025	0.8658	0.6342	0.076
Mof_H 	H 	0.777	0.8825	0.6175	0.039
Mof_C 	C 	0.8025	0.3658	0.1342	0.081
Mof_H 	H 	0.777	0.3825	0.1175	0.028
Mof_C 	C 	0.3025	0.8658	0.1342	0.079
Mof_H 	H 	0.277	0.8825	0.1175	0.032
Mof_C 	C 	0.1975	0.8658	0.3658	0.08
Mof_H 	H 	0.223	0.8825	0.3825	0.036
Mof_C 	C 	0.6975	0.8658	0.8658	0.074
Mof_H 	H 	0.723	0.8825	0.8825	0.046
Mof_C 	C 	0.6975	0.3658	0.3658	0.085
Mof_H 	H 	0.723	0.3825	0.3825	0.031
Mof_C 	C 	0.1342	0.3658	0.8025	0.081
Mof_H 	H 	0.1175	0.3825	0.777	0.028
Mof_C 	C 	0.1342	0.8658	0.3025	0.079
Mof_H 	H 	0.1175	0.8825	0.277	0.032
Mof_C 	C 	0.1342	0.6342	0.1975	0.083
Mof_H 	H 	0.1175	0.6175	0.223	0.025
Mof_C 	C 	0.1342	0.1342	0.6975	0.082
Mof_H 	H 	0.1175	0.1175	0.723	0.024
Mof_C 	C 	0.8658	0.3658	0.1975	0.08
Mof_H 	H 	0.8825	0.3825	0.223	0.036
Mof_C 	C 	0.8658	0.8658	0.6975	0.074
Mof_H 	H 	0.8825	0.8825	0.723	0.046
Mof_C 	C 	0.3658	0.3658	0.6975	0.085
Mof_H 	H 	0.3825	0.3825	0.723	0.031
Mof_C 	C 	0.8658	0.6342	0.8025	0.076
Mof_H 	H 	0.8825	0.6175	0.777	0.039
Mof_C 	C 	0.8658	0.1342	0.3025	0.079
Mof_H 	H 	0.8825	0.1175	0.277	0.032
Mof_C 	C 	0.3658	0.1342	0.8025	0.081
Mof_H 	H 	0.3825	0.1175	0.777	0.028
Mof_C 	C 	0.8025	0.6342	0.8658	0.076
Mof_H 	H 	0.777	0.6175	0.8825	0.039
Mof_C 	C 	0.3025	0.6342	0.3658	0.085
Mof_H 	H 	0.277	0.6175	0.3825	0.028
Mof_C 	C 	0.1975	0.3658	0.8658	0.08
Mof_H 	H 	0.223	0.3825	0.8825	0.036
Mof_C 	C 	0.1975	0.6342	0.1342	0.083
Mof_H 	H 	0.223	0.6175	0.1175	0.025
Mof_C 	C 	0.6975	0.6342	0.6342	0.083
Mof_H 	H 	0.723	0.6175	0.6175	0.032
Mof_C 	C 	0.3025	0.3658	0.6342	0.085
Mof_H 	H 	0.277	0.3825	0.6175	0.028
Mof_C 	C 	0.8658	0.8025	0.6342	0.076
Mof_H 	H 	0.8825	0.777	0.6175	0.039
Mof_C 	C 	0.8658	0.3025	0.1342	0.079
Mof_H 	H 	0.8825	0.277	0.1175	0.032
Mof_C 	C 	0.8658	0.1975	0.3658	0.08
Mof_H 	H 	0.8825	0.223	0.3825	0.036
Mof_C 	C 	0.8658	0.6975	0.8658	0.074
Mof_H 	H 	0.8825	0.723	0.8825	0.046
Mof_C 	C 	0.1342	0.1975	0.6342	0.083
Mof_H 	H 	0.1175	0.223	0.6175	0.025
Mof_C 	C 	0.1342	0.3025	0.8658	0.079
Mof_H 	H 	0.1175	0.277	0.8825	0.032
Mof_C 	C 	0.6342	0.8658	0.8025	0.076
Mof_H 	H 	0.6175	0.8825	0.777	0.039
Mof_C 	C 	0.6342	0.3658	0.3025	0.085
Mof_H 	H 	0.6175	0.3825	0.277	0.028
Mof_C 	C 	0.3658	0.8658	0.1975	0.08
Mof_H 	H 	0.3825	0.8825	0.223	0.036
Mof_C 	C 	0.6342	0.1342	0.1975	0.083
Mof_H 	H 	0.6175	0.1175	0.223	0.025
Mof_C 	C 	0.6342	0.6342	0.6975	0.083
Mof_H 	H 	0.6175	0.6175	0.723	0.032
Mof_C 	C 	0.3658	0.6342	0.3025	0.085
Mof_H 	H 	0.3825	0.6175	0.277	0.028
Mof_C 	C 	0.6342	0.8025	0.1342	0.081
Mof_H 	H 	0.6175	0.777	0.1175	0.028
Mof_C 	C 	0.6342	0.3025	0.6342	0.085
Mof_H 	H 	0.6175	0.277	0.6175	0.029
Mof_C 	C 	0.3658	0.6975	0.6342	0.084
Mof_H 	H 	0.3825	0.723	0.6175	0.031
Mof_C 	C 	0.6342	0.1975	0.8658	0.079
Mof_H 	H 	0.6175	0.223	0.8825	0.037
Mof_C 	C 	0.6342	0.6975	0.3658	0.084
Mof_H 	H 	0.6175	0.723	0.3825	0.031
Mof_C 	C 	0.3658	0.8025	0.8658	0.077
Mof_H 	H 	0.3825	0.777	0.8825	0.039
Mof_C 	C 	0.8025	0.8658	0.3658	0.077
Mof_H 	H 	0.777	0.8825	0.3825	0.039
Mof_C 	C 	0.3025	0.8658	0.8658	0.075
Mof_H 	H 	0.277	0.8825	0.8825	0.044
Mof_C 	C 	0.1975	0.8658	0.6342	0.079
Mof_H 	H 	0.223	0.8825	0.6175	0.037
Mof_C 	C 	0.6975	0.8658	0.1342	0.078
Mof_H 	H 	0.723	0.8825	0.1175	0.035
Mof_C 	C 	0.6975	0.1342	0.8658	0.078
Mof_H 	H 	0.723	0.1175	0.8825	0.035
Mof_C 	C 	0.8025	0.1342	0.6342	0.081
Mof_H 	H 	0.777	0.1175	0.6175	0.028
Mof_C 	C 	0.8658	0.6342	0.1975	0.079
Mof_H 	H 	0.8825	0.6175	0.223	0.037
Mof_C 	C 	0.8658	0.1342	0.6975	0.078
Mof_H 	H 	0.8825	0.1175	0.723	0.035
Mof_C 	C 	0.8658	0.3658	0.8025	0.077
Mof_H 	H 	0.8825	0.3825	0.777	0.039
Mof_C 	C 	0.8658	0.8658	0.3025	0.075
Mof_H 	H 	0.8825	0.8825	0.277	0.044
Mof_C 	C 	0.1342	0.6342	0.8025	0.081
Mof_H 	H 	0.1175	0.6175	0.777	0.028
Mof_C 	C 	0.1342	0.8658	0.6975	0.078
Mof_H 	H 	0.1175	0.8825	0.723	0.035
_end
