# CIF file generated by openbabel 3.1.0, see https://openbabel.org
data_I
_chemical_name_common 'MINVUA01_SL'
_cell_length_a 6.812
_cell_length_b 16.7331
_cell_length_c 13.038
_cell_angle_alpha 90
_cell_angle_beta 90
_cell_angle_gamma 90
_space_group_name_H-M_alt 'P 1'
_space_group_name_Hall 'P 1'
loop_
    _symmetry_equiv_pos_as_xyz
    x,y,z
loop_
    _atom_site_label
    _atom_site_type_symbol
    _atom_site_fract_x
    _atom_site_fract_y
    _atom_site_fract_z
    _atom_site_occupancy
    C1       C        0.80400    0.96000    0.51800    1.000
    O2       O        0.84400    0.83400    0.65700    1.000
    H3       H        0.66038    0.92524    0.52287    1.000
    C4       C        0.30400    0.46000    0.01800    1.000
    O5       O        0.34400    0.33400    0.15700    1.000
    H6       H        0.16038    0.42524    0.02287    1.000
    C7       C        0.19600    0.54000    0.51800    1.000
    O8       O        0.15600    0.66600    0.65700    1.000
    H9       H        0.33962    0.57476    0.52287    1.000
    C10      C        0.69600    0.04000    0.01800    1.000
    O11      O        0.65600    0.16600    0.15700    1.000
    H12      H        0.83962    0.07476    0.02287    1.000
    C13      C        0.19600    0.46000    0.48200    1.000
    O14      O        0.15600    0.33400    0.34300    1.000
    H15      H        0.33962    0.42524    0.47713    1.000
    C16      C        0.69600    0.96000    0.98200    1.000
    O17      O        0.65600    0.83400    0.84300    1.000
    H18      H        0.83962    0.92524    0.97713    1.000
    C19      C        0.80400    0.04000    0.48200    1.000
    O20      O        0.84400    0.16600    0.34300    1.000
    H21      H        0.66038    0.07476    0.47713    1.000
    C22      C        0.30400    0.54000    0.98200    1.000
    O23      O        0.34400    0.66600    0.84300    1.000
    H24      H        0.16038    0.57476    0.97713    1.000
    C25      C        0.19600    0.04000    0.48200    1.000
    O26      O        0.15600    0.16600    0.34300    1.000
    H27      H        0.33962    0.07476    0.47713    1.000
    C28      C        0.69600    0.54000    0.98200    1.000
    O29      O        0.65600    0.66600    0.84300    1.000
    H30      H        0.83962    0.57476    0.97713    1.000
    C31      C        0.80400    0.46000    0.48200    1.000
    O32      O        0.84400    0.33400    0.34300    1.000
    H33      H        0.66038    0.42524    0.47713    1.000
    C34      C        0.30400    0.96000    0.98200    1.000
    O35      O        0.34400    0.83400    0.84300    1.000
    H36      H        0.16038    0.92524    0.97713    1.000
    C37      C        0.80400    0.54000    0.51800    1.000
    O38      O        0.84400    0.66600    0.65700    1.000
    H39      H        0.66038    0.57476    0.52287    1.000
    C40      C        0.30400    0.04000    0.01800    1.000
    O41      O        0.34400    0.16600    0.15700    1.000
    H42      H        0.16038    0.07476    0.02287    1.000
    C43      C        0.19600    0.96000    0.51800    1.000
    O44      O        0.15600    0.83400    0.65700    1.000
    H45      H        0.33962    0.92524    0.52287    1.000
    C46      C        0.69600    0.46000    0.01800    1.000
    O47      O        0.65600    0.33400    0.15700    1.000
    H48      H        0.83962    0.42524    0.02287    1.000
    H49      H        0.50000    0.25000    0.39070    1.000
    O50      O        0.50000    0.25000    0.31400    1.000
    H51      H        0.00000    0.75000    0.89070    1.000
    O52      O        0.00000    0.75000    0.81400    1.000
    H53      H        0.50000    0.75000    0.60930    1.000
    O54      O        0.50000    0.75000    0.68600    1.000
    H55      H        0.00000    0.25000    0.10930    1.000
    O56      O        0.00000    0.25000    0.18600    1.000
    Cr57     Cr       0.25000    0.75000    0.75000    1.000
    Cr58     Cr       0.75000    0.75000    0.75000    1.000
    Cr59     Cr       0.75000    0.25000    0.25000    1.000
    Cr60     Cr       0.25000    0.25000    0.25000    1.000
    C61      C        0.00000    0.94600    0.53900    1.000
    C62      C        0.00000    0.87500    0.61200    1.000
    C63      C        0.50000    0.44600    0.03900    1.000
    C64      C        0.50000    0.37500    0.11200    1.000
    C65      C        0.00000    0.55400    0.53900    1.000
    C66      C        0.00000    0.62500    0.61200    1.000
    C67      C        0.50000    0.05400    0.03900    1.000
    C68      C        0.50000    0.12500    0.11200    1.000
    C69      C        0.00000    0.44600    0.46100    1.000
    C70      C        0.00000    0.37500    0.38800    1.000
    C71      C        0.50000    0.94600    0.96100    1.000
    C72      C        0.50000    0.87500    0.88800    1.000
    C73      C        0.00000    0.05400    0.46100    1.000
    C74      C        0.00000    0.12500    0.38800    1.000
    C75      C        0.50000    0.55400    0.96100    1.000
    C76      C        0.50000    0.62500    0.88800    1.000
