data_functionalizedCrystal
_audit_creation_method	'EQeq! by Chris Wilmer'
_symmetry_space_group_name_H-M	'P1'
_symmetry_Int_Tables_number	1
_symmetry_cell_setting	triclinic
loop_
_symmetry_equiv_pos_as_xyz
  x,y,z
_cell_length_a	13.91
_cell_length_b	26.11
_cell_length_c	29.55
_cell_angle_alpha	94.27
_cell_angle_beta	90
_cell_angle_gamma	90
loop_
_atom_site_label
_atom_site_type_symbol
_atom_site_fract_x
_atom_site_fract_y
_atom_site_fract_z
_atom_site_charge
Mof_Ni	Ni	0.33493	0.25729	0.99108	1.075
Mof_Ni	Ni	0.88159	0.73683	0.78999	1.07
Mof_Ni	Ni	0.11841	0.26317	0.21001	1.071
Mof_Ni	Ni	0.37155	0.49891	0.2415	1.07
Mof_Ni	Ni	0.83493	0.24271	0.50892	1.076
Mof_Ni	Ni	0.83347	0.2319	0.77532	1.08
Mof_Ni	Ni	0.16507	0.75729	0.49108	1.076
Mof_Ni	Ni	0.12845	0.99891	0.7415	1.07
Mof_Ni	Ni	0.87155	0.00109	0.2585	1.07
Mof_Ni	Ni	0.66507	0.74271	0.00892	1.076
Mof_Ni	Ni	0.33347	0.2681	0.72468	1.08
Mof_Ni	Ni	0.38159	0.76317	0.71001	1.071
Mof_Ni	Ni	0.62845	0.50109	0.7585	1.07
Mof_Ni	Ni	0.66653	0.7319	0.27532	1.08
Mof_Ni	Ni	0.61841	0.23683	0.28999	1.071
Mof_Ni	Ni	0.16653	0.7681	0.22468	1.08
Mof_Mo	Mo	0.96196	0.18058	0.34463	1.001
Mof_Mo	Mo	0.34383	0.67568	0.34684	1.053
Mof_Mo	Mo	0.03804	0.81942	0.65537	1.001
Mof_Mo	Mo	0.65617	0.32432	0.65316	1.053
Mof_Mo	Mo	0.46196	0.31942	0.15537	1.002
Mof_Mo	Mo	0.53804	0.68058	0.84463	1.002
Mof_Mo	Mo	0.15617	0.17568	0.84684	1.053
Mof_Mo	Mo	0.84383	0.82432	0.15316	1.053
Mof_H 	H 	0.4101	0.2244	0.8171	-0.001
Mof_H 	H 	0.2087	0.2144	0.2975	0.079
Mof_H 	H 	0.9017	0.847	0.4402	0.198
Mof_H 	H 	0.3385	0.1815	0.6017	0.082
Mof_H 	H 	0.5786	0.2645	0.0159	0.036
Mof_H 	H 	0.8114	0.9131	0.837	0.214
Mof_H 	H 	0.7638	0.2482	0.9038	0.007
Mof_H 	H 	0.4897	0.7795	0.5033	0.23
Mof_H 	H 	0.5588	0.3852	0.396	0.041
Mof_H 	H 	0.1845	0.37	0.2473	0.039
Mof_H 	H 	0.1049	0.6514	0.2413	0.014
Mof_H 	H 	0.3501	0.1567	0.3498	0.24
Mof_H 	H 	0.4186	0.1453	0.6536	0.009
Mof_H 	H 	0.8453	0.5481	0.231	0.03
Mof_H 	H 	0.5979	0.1799	0.9893	0.074
Mof_H 	H 	0.5805	0.2863	0.4907	0.025
Mof_H 	H 	0.0159	0.3145	0.5462	0.064
Mof_H 	H 	0.0946	0.1328	0.5085	0.211
Mof_H 	H 	0.1393	0.985	0.2692	0.018
Mof_H 	H 	0.6751	0.4609	0.9044	0.231
Mof_H 	H 	0.468	0.8361	0.522	0.216
Mof_H 	H 	0.1315	0.4174	0.6923	0.03
Mof_H 	H 	0.6168	0.7353	0.5902	0.038
Mof_H 	H 	0.0243	0.6979	0.5462	0.03
Mof_H 	H 	0.2961	0.1843	0.0632	0.022
Mof_H 	H 	0.6165	0.2088	0.2083	0.096
Mof_H 	H 	0.6275	0.0972	0.5261	0.038
Mof_H 	H 	0.5479	0.8825	0.709	0.036
Mof_H 	H 	0.5269	0.5769	0.697	0.079
Mof_H 	H 	0.2638	0.2518	0.5962	0.007
Mof_H 	H 	0.6018	0.4821	0.3001	0.016
Mof_H 	H 	0.198	0.4608	0.3649	0.225
Mof_H 	H 	0.6841	0.8491	0.3235	0.005
Mof_H 	H 	0.3951	0.1514	0.7413	0.014
Mof_H 	H 	0.4021	0.8201	0.0107	0.074
Mof_H 	H 	0.9762	0.0246	0.81	0.013
Mof_H 	H 	0.2774	0.1133	0.1877	0.223
Mof_H 	H 	0.6886	0.4131	0.337	0.214
Mof_H 	H 	0.9622	0.97	0.3751	0.007
Mof_H 	H 	0.0253	0.0761	0.6614	0.002
Mof_H 	H 	0.3982	0.5179	0.6999	0.016
Mof_H 	H 	0.2039	0.6843	0.5632	0.022
Mof_H 	H 	0.0722	0.8451	0.3591	0.296
Mof_H 	H 	0.004	0.7618	0.3133	-0.007
Mof_H 	H 	0.1649	0.7039	0.7239	0.03
Mof_H 	H 	0.5292	0.1868	0.7822	0.118
Mof_H 	H 	0.935	0.3659	0.1231	0.23
Mof_H 	H 	0.9409	0.0575	0.7348	0.009
Mof_H 	H 	0.8832	0.2353	0.0902	0.037
Mof_H 	H 	0.8937	0.2734	0.8735	0.094
Mof_H 	H 	0.435	0.1341	0.3769	0.23
Mof_H 	H 	0.8725	0.5972	0.0261	0.038
Mof_H 	H 	0.9412	0.8852	0.896	0.04
Mof_H 	H 	0.9928	0.3511	0.7862	0.012
Mof_H 	H 	0.7167	0.8415	0.7542	0.023
Mof_H 	H 	0.3978	0.9748	0.8407	0.222
Mof_H 	H 	0.7989	0.7845	0.3759	0.001
Mof_H 	H 	0.7039	0.8157	0.9368	0.022
Mof_H 	H 	0.4762	0.4754	0.69	0.016
Mof_H 	H 	0.3009	0.2987	0.2629	0.037
Mof_H 	H 	0.698	0.0392	0.1351	0.225
Mof_H 	H 	0.9214	0.7645	0.5159	0.036
Mof_H 	H 	0.2854	0.0437	0.6059	0.228
Mof_H 	H 	0.0814	0.6453	0.1536	0.009
Mof_H 	H 	0.9979	0.3771	0.2833	0.048
Mof_H 	H 	0.493	0.9762	0.3019	0.029
Mof_H 	H 	0.993	0.5238	0.1981	0.028
Mof_H 	H 	0.1886	0.0869	0.163	0.214
Mof_H 	H 	0.2833	0.1585	0.2458	0.023
Mof_H 	H 	0.1275	0.4028	0.9739	0.038
Mof_H 	H 	0.0399	0.7188	0.1852	0.1
Mof_H 	H 	0.0651	0.8461	0.9294	0.025
Mof_H 	H 	0.532	0.1639	0.478	0.216
Mof_H 	H 	0.1513	0.9415	0.8553	0.028
Mof_H 	H 	0.1803	0.7204	0.8012	0.081
Mof_H 	H 	0.3786	0.8699	0.1431	0.225
Mof_H 	H 	0.1214	0.3699	0.6431	0.225
Mof_H 	H 	0.2317	0.8001	0.8138	0.041
Mof_H 	H 	0.9101	0.2756	0.6829	-0.001
Mof_H 	H 	0.3388	0.873	0.7994	0.045
Mof_H 	H 	0.7683	0.1999	0.1862	0.041
Mof_H 	H 	0.9757	0.3021	0.4538	0.03
Mof_H 	H 	0.6499	0.8433	0.6502	0.24
Mof_H 	H 	0.8982	0.9821	0.8001	0.013
Mof_H 	H 	0.7172	0.4096	0.8816	0.224
Mof_H 	H 	0.9768	0.357	0.4791	0.024
Mof_H 	H 	0.396	0.037	0.6482	0.025
Mof_H 	H 	0.7963	0.8415	0.0166	0.089
Mof_H 	H 	0.1177	0.6841	0.8963	0.232
Mof_H 	H 	0.3319	0.0185	0.8628	0.235
Mof_H 	H 	0.8951	0.3486	0.7587	0.014
Mof_H 	H 	0.6214	0.1301	0.8569	0.225
Mof_H 	H 	0.2037	0.1585	0.9834	0.089
Mof_H 	H 	0.0786	0.2355	0.4841	0.036
Mof_H 	H 	0.5232	0.857	0.9791	0.024
Mof_H 	H 	0.6018	0.1859	0.8782	0.226
Mof_H 	H 	0.2172	0.0904	0.6184	0.225
Mof_H 	H 	0.4731	0.4231	0.303	0.079
Mof_H 	H 	0.8197	0.2796	0.1988	0.081
Mof_H 	H 	0.4789	0.8228	0.4696	0.224
Mof_H 	H 	0.4409	0.4425	0.7652	0.01
Mof_H 	H 	0.6547	0.0481	0.731	0.03
Mof_H 	H 	0.0263	0.0433	0.2615	0.101
Mof_H 	H 	0.6845	0.13	0.2527	0.039
Mof_H 	H 	0.7418	0.0447	0.5447	0.017
Mof_H 	H 	0.9054	0.8672	0.4915	0.211
Mof_H 	H 	0.4834	0.5525	0.6518	0.079
Mof_H 	H 	0.5072	0.8511	0.2862	0.012
Mof_H 	H 	0.8155	0.63	0.7527	0.039
Mof_H 	H 	0.6038	0.2602	0.9642	0.02
Mof_H 	H 	0.9834	0.9475	0.8482	0.083
Mof_H 	H 	0.263	0.1172	0.1354	0.219
Mof_H 	H 	0.2418	0.4553	0.9553	0.017
Mof_H 	H 	0.1612	0.373	0.2994	0.045
Mof_H 	H 	0.8159	0.3491	0.8235	0.005
Mof_H 	H 	0.7961	0.3157	0.4368	0.022
Mof_H 	H 	0.3962	0.7398	0.0358	0.02
Mof_H 	H 	0.6911	0.1552	0.8939	0.228
Mof_H 	H 	0.1991	0.7987	0.7629	0.037
Mof_H 	H 	0.007	0.4762	0.8019	0.028
Mof_H 	H 	0.4214	0.7355	0.9841	0.036
Mof_H 	H 	0.1911	0.3448	0.6061	0.228
Mof_H 	H 	0.0442	0.0238	0.3303	0.102
Mof_H 	H 	0.2362	0.7518	0.0962	0.007
Mof_H 	H 	0.3982	0.8141	0.1218	0.226
Mof_H 	H 	0.4755	0.0049	0.7731	0.036
Mof_H 	H 	0.3916	0.4768	0.84	0.093
Mof_H 	H 	0.6612	0.127	0.2006	0.045
Mof_H 	H 	0.8607	0.015	0.7308	0.018
Mof_H 	H 	0.5442	0.4762	0.1697	0.1
Mof_H 	H 	0.9755	0.4951	0.7269	0.036
Mof_H 	H 	0.3089	0.8448	0.1061	0.228
Mof_H 	H 	0.1018	0.0179	0.1999	0.013
Mof_H 	H 	0.9578	0.8976	0.4549	0.199
Mof_H 	H 	0.3487	0.4415	0.3553	0.03
Mof_H 	H 	0.0479	0.6175	0.791	0.036
Mof_H 	H 	0.7833	0.3415	0.2542	0.023
Mof_H 	H 	0.8319	0.4815	0.6372	0.234
Mof_H 	H 	0.4979	0.1229	0.2167	0.049
Mof_H 	H 	0.237	0.6172	0.6354	0.219
Mof_H 	H 	0.182	0.855	0.3679	0.306
Mof_H 	H 	0.0983	0.153	0.5598	0.198
Mof_H 	H 	0.5245	0.9951	0.2269	0.036
Mof_H 	H 	0.7087	0.2856	0.2025	0.079
Mof_H 	H 	0.8916	0.0232	0.66	0.094
Mof_H 	H 	0.5238	0.5246	0.31	0.016
Mof_H 	H 	0.1617	0.1407	0.0286	0.089
Mof_H 	H 	0.465	0.7717	0.2525	0.109
Mof_H 	H 	0.5899	0.7756	0.1829	-0.001
Mof_H 	H 	0.4397	0.891	0.6967	0.038
Mof_H 	H 	0.3599	0.2994	0.8692	0.305
Mof_H 	H 	0.3114	0.5869	0.663	0.214
Mof_H 	H 	0.8629	0.3331	0.5235	0.089
Mof_H 	H 	0.507	0.0238	0.6981	0.029
Mof_H 	H 	0.0103	0.2795	0.0033	0.231
Mof_H 	H 	0.9731	0.0769	0.197	0.081
Mof_H 	H 	0.7037	0.3415	0.5166	0.09
Mof_H 	H 	0.8009	0.2013	0.2371	0.037
Mof_H 	H 	0.6177	0.8159	0.6037	0.233
Mof_H 	H 	0.0979	0.3201	0.5107	0.074
Mof_H 	H 	0.5021	0.8771	0.7833	0.049
Mof_H 	H 	0.737	0.8828	0.8646	0.219
Mof_H 	H 	0.8487	0.0585	0.1447	0.028
Mof_H 	H 	0.4054	0.6328	0.0085	0.211
Mof_H 	H 	0.496	0.2618	0.8133	-0.007
Mof_H 	H 	0.6346	0.2737	0.4447	0.028
Mof_H 	H 	0.3782	0.4998	0.3604	0.043
Mof_H 	H 	0.5422	0.3976	0.9549	0.199
Mof_H 	H 	0.3607	0.485	0.7692	0.019
Mof_H 	H 	0.5983	0.347	0.9402	0.199
Mof_H 	H 	0.7774	0.3867	0.3123	0.222
Mof_H 	H 	0.0292	0.3132	0.7178	0.117
Mof_H 	H 	0.5814	0.8547	0.3464	0.009
Mof_H 	H 	0.3159	0.1509	0.6765	0.005
Mof_H 	H 	0.6513	0.5585	0.6447	0.03
Mof_H 	H 	0.5159	0.1855	0.9538	0.065
Mof_H 	H 	0.0588	0.1148	0.104	0.04
Mof_H 	H 	0.0956	0.9309	0.4553	0.038
Mof_H 	H 	0.1038	0.2398	0.5358	0.02
Mof_H 	H 	0.896	0.463	0.8518	0.026
Mof_H 	H 	0.5263	0.4567	0.2385	0.1
Mof_H 	H 	0.0269	0.9231	0.803	0.081
Mof_H 	H 	0.996	0.2382	0.6867	-0.007
Mof_H 	H 	0.0238	0.9754	0.19	0.013
Mof_H 	H 	0.8982	0.6859	0.3782	0.226
Mof_H 	H 	0.9601	0.2812	0.8148	0.1
Mof_H 	H 	0.8385	0.3185	0.8983	0.082
Mof_H 	H 	0.9521	0.3825	0.209	0.036
Mof_H 	H 	0.9186	0.3547	0.8464	0.009
Mof_H 	H 	0.6063	0.7734	0.3735	0.094
Mof_H 	H 	0.2582	0.9553	0.4553	0.017
Mof_H 	H 	0.604	0.963	0.3518	0.025
Mof_H 	H 	0.1084	0.9768	0.34	0.094
Mof_H 	H 	0.0899	0.7244	0.3171	-0.001
Mof_H 	H 	0.1168	0.7647	0.9098	0.037
Mof_H 	H 	0.0245	0.5049	0.2731	0.036
Mof_H 	H 	0.4349	0.3461	0.4294	0.023
Mof_H 	H 	0.3937	0.2266	0.6265	0.094
Mof_H 	H 	0.2913	0.7144	0.7975	0.079
Mof_H 	H 	0.0072	0.6489	0.2138	0.012
Mof_H 	H 	0.4017	0.653	0.0598	0.199
Mof_H 	H 	0.3654	0.7263	0.5553	0.028
Mof_H 	H 	0.1751	0.0391	0.5956	0.231
Mof_H 	H 	0.6905	0.8706	0.9613	0.021
Mof_H 	H 	0.5166	0.4475	0.3482	0.079
Mof_H 	H 	0.4521	0.1175	0.291	0.036
Mof_H 	H 	0.104	0.537	0.1482	0.026
Mof_H 	H 	0.965	0.7283	0.2475	0.109
Mof_H 	H 	0.3095	0.1294	0.0387	0.021
Mof_H 	H 	0.5103	0.2205	0.4967	0.23
Mof_H 	H 	0.1346	0.2263	0.0553	0.029
Mof_H 	H 	0.3197	0.2204	0.3012	0.081
Mof_H 	H 	0.818	0.145	0.6321	0.306
Mof_H 	H 	0.5946	0.3672	0.9915	0.211
Mof_H 	H 	0.1841	0.6509	0.1765	0.005
Mof_H 	H 	0.0166	0.0525	0.1518	0.083
Mof_H 	H 	0.9021	0.6799	0.4893	0.074
Mof_H 	H 	0.3823	0.1841	0.3963	0.233
Mof_H 	H 	0.6649	0.7961	0.7761	0.031
Mof_H 	H 	0.3629	0.1669	0.9765	0.089
Mof_H 	H 	0.7146	0.9563	0.3941	0.228
Mof_H 	H 	0.765	0.586	0.1717	0.028
Mof_H 	H 	0.0603	0.391	0.1967	0.038
Mof_H 	H 	0.7226	0.8867	0.8123	0.223
Mof_H 	H 	0.8782	0.0002	0.1396	0.041
Mof_H 	H 	0.8089	0.6552	0.3939	0.228
Mof_H 	H 	0.5603	0.109	0.3033	0.038
Mof_H 	H 	0.5243	0.8021	0.9538	0.03
Mof_H 	H 	0.235	0.414	0.8283	0.028
Mof_H 	H 	0.802	0.5392	0.6351	0.225
Mof_H 	H 	0.3351	0.2039	0.2239	0.031
Mof_H 	H 	0.8501	0.3433	0.1502	0.24
Mof_H 	H 	0.302	0.9608	0.8649	0.225
Mof_H 	H 	0.968	0.6639	0.978	0.217
Mof_H 	H 	0.8351	0.2961	0.2761	0.03
Mof_H 	H 	0.3383	0.6407	0.5286	0.089
Mof_H 	H 	0.1615	0.6815	0.1017	0.082
Mof_H 	H 	0.265	0.914	0.3283	0.028
Mof_H 	H 	0.1547	0.4519	0.769	0.03
Mof_H 	H 	0.6315	0.0826	0.8077	0.03
Mof_H 	H 	0.8388	0.627	0.7006	0.045
Mof_H 	H 	0.7362	0.7482	0.4038	0.007
Mof_H 	H 	0.1218	0.9998	0.8604	0.041
Mof_H 	H 	0.2167	0.6585	0.7458	0.023
Mof_H 	H 	0.1401	0.7994	0.3692	0.304
Mof_H 	H 	0.0021	0.6229	0.7167	0.048
Mof_H 	H 	0.8249	0.9609	0.4044	0.231
Mof_H 	H 	0.1165	0.2912	0.2917	0.096
Mof_H 	H 	0.4278	0.3451	0.8591	0.296
Mof_H 	H 	0.9349	0.1539	0.0706	0.025
Mof_H 	H 	0.065	0.6341	0.8769	0.23
Mof_H 	H 	0.6803	0.7796	0.6988	0.081
Mof_H 	H 	0.4928	0.1489	0.7138	0.012
Mof_H 	H 	0.4601	0.2188	0.6852	0.1
Mof_H 	H 	0.4841	0.8145	0.0462	0.065
Mof_H 	H 	0.1499	0.6567	0.8498	0.24
Mof_H 	H 	0.4622	0.53	0.1249	0.007
Mof_H 	H 	0.763	0.3828	0.3646	0.219
Mof_H 	H 	0.4757	0.1979	0.0462	0.03
Mof_H 	H 	0.2963	0.6585	0.4834	0.09
Mof_H 	H 	0.0232	0.643	0.5209	0.024
Mof_H 	H 	0.7582	0.5447	0.0447	0.017
Mof_H 	H 	0.4737	0.5433	0.7615	0.1
Mof_H 	H 	0.7317	0.6999	0.6862	0.041
Mof_H 	H 	0.4044	0.4309	0.9553	0.038
Mof_H 	H 	0.5722	0.6549	0.1409	0.296
Mof_H 	H 	0.735	0.086	0.6717	0.028
Mof_H 	H 	0.6615	0.8185	0.3983	0.082
Mof_H 	H 	0.1371	0.6669	0.4765	0.089
Mof_H 	H 	0.1905	0.6294	0.5387	0.021
Mof_H 	H 	0.035	0.2717	0.7525	0.109
Mof_H 	H 	0.504	0.7382	0.1867	-0.007
Mof_H 	H 	0.6371	0.8331	0.0235	0.089
Mof_H 	H 	0.2146	0.5437	0.1059	0.228
Mof_H 	H 	0.0591	0.9425	0.2652	0.009
Mof_H 	H 	0.4558	0.5238	0.8303	0.1
Mof_H 	H 	0.3155	0.87	0.7473	0.039
Mof_H 	H 	0.5651	0.6539	0.5706	0.023
Mof_H 	H 	0.9044	0.0691	0.5447	0.038
Mof_H 	H 	0.9558	0.9762	0.6697	0.102
Mof_H 	H 	0.032	0.3361	0.022	0.217
Mof_H 	H 	0.1018	0.3141	0.6218	0.226
Mof_H 	H 	0.9897	0.7205	0.9967	0.231
Mof_H 	H 	0.9789	0.6772	0.0304	0.225
Mof_H 	H 	0.8095	0.3706	0.4613	0.021
Mof_H 	H 	0.8599	0.2006	0.6308	0.304
Mof_H 	H 	0.7011	0.2845	0.8759	0.001
Mof_H 	H 	0.3832	0.2647	0.4098	0.038
Mof_H 	H 	0.6049	0.8486	0.2587	0.014
Mof_H 	H 	0.9397	0.609	0.8033	0.038
Mof_H 	H 	0.6617	0.3593	0.4714	0.089
Mof_H 	H 	0.8962	0.7602	0.4642	0.02
Mof_H 	H 	0.2989	0.7155	0.1241	0.001
Mof_H 	H 	0.6022	0.0252	0.1593	0.222
Mof_H 	H 	0.2226	0.6133	0.6877	0.222
Mof_H 	H 	0.565	0.8659	0.6231	0.23
Mof_H 	H 	0.1681	0.5185	0.3628	0.234
Mof_H 	H 	0.2683	0.3001	0.3138	0.041
Mof_H 	H 	0.7913	0.7856	0.7025	0.079
Mof_H 	H 	0.7828	0.9096	0.3816	0.225
Mof_H 	H 	0.8835	0.7088	0.7083	0.096
Mof_H 	H 	0.0422	0.1024	0.5451	0.199
Mof_H 	H 	0.9708	0.6868	0.2822	0.117
Mof_H 	H 	0.3249	0.5391	0.0956	0.231
Mof_H 	H 	0.0378	0.03	0.6249	0.007
Mof_H 	H 	0.682	0.645	0.1321	0.306
Mof_H 	H 	0.4708	0.8132	0.2178	0.118
Mof_H 	H 	0.1022	0.4748	0.3407	0.222
Mof_H 	H 	0.535	0.2283	0.7475	0.109
Mof_H 	H 	0.9841	0.6855	0.4538	0.064
Mof_H 	H 	0.8978	0.5252	0.6593	0.222
Mof_H 	H 	0.2011	0.2155	0.6241	0.001
Mof_H 	H 	0.5399	0.7812	0.3148	0.1
Mof_H 	H 	0.5211	0.1772	0.5304	0.224
Mof_H 	H 	0.5378	0.47	0.8751	0.007
Mof_H 	H 	0.3685	0.9174	0.1923	0.03
Mof_H 	H 	0.8654	0.7737	0.9447	0.029
Mof_H 	H 	0.4747	0.5761	0.1614	0.003
Mof_H 	H 	0.0805	0.2137	0.0093	0.025
Mof_H 	H 	0.4195	0.7137	0.5093	0.025
Mof_H 	H 	0.6401	0.7006	0.1308	0.305
Mof_H 	H 	0.0211	0.3228	0.9696	0.225
Mof_H 	H 	0.1063	0.7266	0.1265	0.094
Mof_H 	H 	0.4412	0.6148	0.604	0.041
Mof_H 	H 	0.9195	0.7863	0.9907	0.025
Mof_H 	H 	0.318	0.355	0.8679	0.306
Mof_H 	H 	0.5253	0.4239	0.8386	0.003
Mof_H 	H 	0.4768	0.143	0.0209	0.024
Mof_H 	H 	0.6991	0.7013	0.7371	0.037
Mof_H 	H 	0.2828	0.5904	0.1184	0.224
Mof_H 	H 	0.4578	0.6024	0.0451	0.199
Mof_H 	H 	0.6218	0.5002	0.6396	0.043
Mof_H 	H 	0.9278	0.1549	0.6409	0.296
Mof_H 	H 	0.8823	0.3159	0.1037	0.232
Mof_H 	H 	0.5591	0.5575	0.2348	0.01
Mof_H 	H 	0.8685	0.5826	0.3077	0.03
Mof_H 	H 	0.8383	0.8593	0.9714	0.089
Mof_H 	H 	0.3453	0.9519	0.269	0.03
Mof_H 	H 	0.6393	0.515	0.2308	0.019
Mof_H 	H 	0.3835	0.7912	0.7917	0.096
Mof_H 	H 	0.6084	0.5232	0.16	0.093
Mof_H 	H 	0.9737	0.9567	0.7385	0.101
Mof_H 	H 	0.8786	0.6301	0.3569	0.225
Mof_H 	H 	0.9747	0.9239	0.3386	0.002
Mof_H 	H 	0.7854	0.4563	0.8941	0.228
Mof_H 	H 	0.6681	0.9815	0.1372	0.235
Mof_H 	H 	0.5956	0.5691	0.0447	0.038
Mof_H 	H 	0.3725	0.9028	0.4739	0.038
Mof_C 	C 	0.5411	0.7637	0.8512	-0.13
Mof_C 	C 	0.0424	0.3693	0.2603	-0.084
Mof_C 	C 	0.969	0.167	0.5303	0.163
Mof_C 	C 	0.1622	0.1131	0.8874	-0.153
Mof_C 	C 	0.3139	0.3029	0.1702	-0.112
Mof_C 	C 	0.5732	0.9919	0.248	-0.05
Mof_C 	C 	0.6356	0.6689	0.1452	-0.929
Mof_C 	C 	0.5548	0.3115	0.5994	-0.139
Mof_C 	C 	0.9901	0.2918	0.736	-0.301
Mof_C 	C 	0.2058	0.0345	0.6623	0.224
Mof_C 	C 	0.0343	0.6791	0.517	-0.008
Mof_C 	C 	0.5099	0.7918	0.236	-0.301
Mof_C 	C 	0.3462	0.3219	0.8081	0.319
Mof_C 	C 	0.5343	0.8209	0.983	-0.008
Mof_C 	C 	0.9446	0.2555	0.7039	0.082
Mof_C 	C 	0.052	0.9871	0.3236	-0.249
Mof_C 	C 	0.1301	0.6696	0.165	0.038
Mof_C 	C 	0.8754	0.0306	0.1606	-0.025
Mof_C 	C 	0.7969	0.7943	0.2139	-0.137
Mof_C 	C 	0.9683	0.1728	0.0934	-0.01
Mof_C 	C 	0.2327	0.3998	0.7985	-0.041
Mof_C 	C 	0.7692	0.8839	0.836	-0.658
Mof_C 	C 	0.3326	0.9852	0.8467	-0.68
Mof_C 	C 	0.6609	0.796	0.3706	-0.248
Mof_C 	C 	0.5259	0.6183	0.8878	-0.133
Mof_C 	C 	0.2488	0.7091	0.3972	-0.136
Mof_C 	C 	0.7814	0.1491	0.7199	-0.066
Mof_C 	C 	0.9656	0.9608	0.3428	0.033
Mof_C 	C 	0.6014	0.6149	0.8069	-0.115
Mof_C 	C 	0.4446	0.2445	0.7961	0.083
Mof_C 	C 	0.9268	0.4919	0.748	-0.051
Mof_C 	C 	0.572	0.5219	0.225	0.03
Mof_C 	C 	0.1356	0.8311	0.3548	-0.928
Mof_C 	C 	0.3177	0.92	0.2614	-0.025
Mof_C 	C 	0.4683	0.3272	0.4066	-0.006
Mof_C 	C 	0.9576	0.6307	0.7397	-0.084
Mof_C 	C 	0.8269	0.8356	0.8265	0.175
Mof_C 	C 	0.0371	0.3032	0.5159	-0.195
Mof_C 	C 	0.4189	0.6345	0.8159	-0.132
Mof_C 	C 	0.835	0.5988	0.2856	-0.061
Mof_C 	C 	0.7512	0.2909	0.6028	-0.136
Mof_C 	C 	0.4786	0.4549	0.3219	-0.209
Mof_C 	C 	0.912	0.7931	0.6181	-0.134
Mof_C 	C 	0.2127	0.3161	0.6692	0.229
Mof_C 	C 	0.8699	0.3304	0.835	0.038
Mof_C 	C 	0.7058	0.8351	0.966	-0.007
Mof_C 	C 	0.2031	0.2057	0.7861	-0.137
Mof_C 	C 	0.4408	0.636	0.0365	-0.63
Mof_C 	C 	0.5592	0.364	0.9635	-0.63
Mof_C 	C 	0.8491	0.6617	0.3686	-0.691
Mof_C 	C 	0.0592	0.136	0.5365	-0.629
Mof_C 	C 	0.2058	0.6649	0.534	-0.006
Mof_C 	C 	0.288	0.0236	0.6894	-0.034
Mof_C 	C 	0.4563	0.8105	0.4975	-0.682
Mof_C 	C 	0.2541	0.2854	0.2834	-0.04
Mof_C 	C 	0.3269	0.6644	0.6735	0.175
Mof_C 	C 	0.7408	0.7639	0.3751	0.038
Mof_C 	C 	0.1206	0.5284	0.1771	-0.046
Mof_C 	C 	0.665	0.0988	0.7856	-0.061
Mof_C 	C 	0.4589	0.2363	0.1488	-0.13
Mof_C 	C 	0.3754	0.4694	0.3394	-0.03
Mof_C 	C 	0.788	0.4764	0.8106	-0.033
Mof_C 	C 	0.8391	0.296	0.8706	-0.248
Mof_C 	C 	0.1443	0.9078	0.4608	-0.078
Mof_C 	C 	0.3491	0.8383	0.1314	-0.691
Mof_C 	C 	0.0317	0.8272	0.9066	-0.01
Mof_C 	C 	0.335	0.9012	0.2144	-0.061
Mof_C 	C 	0.7889	0.6476	0.2899	-0.022
Mof_C 	C 	0.2889	0.8524	0.2101	-0.022
Mof_C 	C 	0.5632	0.7217	0.6038	-0.068
Mof_C 	C 	0.5342	0.49	0.2966	0.007
Mof_C 	C 	0.0259	0.8817	0.6122	-0.134
Mof_C 	C 	0.4629	0.8032	0.0159	-0.196
Mof_C 	C 	0.1432	0.3566	0.2701	-0.062
Mof_C 	C 	0.8557	0.0922	0.5392	-0.078
Mof_C 	C 	0.8326	0.5148	0.6533	-0.679
Mof_C 	C 	0.4836	0.8688	0.7117	-0.047
Mof_C 	C 	0.1861	0.8029	0.6702	-0.111
Mof_C 	C 	0.4066	0.6811	0.6467	-0.012
Mof_C 	C 	0.6306	0.242	0.6452	-0.137
Mof_C 	C 	0.2353	0.7271	0.7823	-0.195
Mof_C 	C 	0.7213	0.0127	0.1978	0.198
Mof_C 	C 	0.3502	0.7999	0.494	0.201
Mof_C 	C 	0.6509	0.1617	0.8686	-0.691
Mof_C 	C 	0.7787	0.5127	0.6978	0.197
Mof_C 	C 	0.9041	0.3348	0.1309	-0.72
Mof_C 	C 	0.1609	0.704	0.1294	-0.248
Mof_C 	C 	0.9432	0.4792	0.7931	-0.021
Mof_C 	C 	0.8378	0.8869	0.1126	-0.153
Mof_C 	C 	0.6206	0.9716	0.3229	-0.044
Mof_C 	C 	0.3004	0.6673	0.5158	-0.218
Mof_C 	C 	0.469	0.333	0.9697	0.164
Mof_C 	C 	0.0437	0.3105	0.9975	-0.685
Mof_C 	C 	0.1755	0.5007	0.2617	-0.022
Mof_C 	C 	0.588	0.2931	0.1181	-0.135
Mof_C 	C 	0.9795	0.8171	0.1841	-0.129
Mof_C 	C 	0.6435	0.282	0.477	0.011
Mof_C 	C 	0.0554	0.7445	0.2961	0.082
Mof_C 	C 	0.1674	0.4852	0.3467	-0.679
Mof_C 	C 	0.1823	0.42	0.7614	-0.025
Mof_C 	C 	0.8794	0.4716	0.8229	-0.046
Mof_C 	C 	0.9453	0.3283	0.7715	0.059
Mof_C 	C 	0.7862	0.6593	0.0212	-0.012
Mof_C 	C 	0.5424	0.1307	0.2397	-0.086
Mof_C 	C 	0.5934	0.3189	0.3533	-0.012
Mof_C 	C 	0.6498	0.2001	0.506	0.201
Mof_C 	C 	0.2512	0.2091	0.8972	-0.136
Mof_C 	C 	0.7942	0.9655	0.3377	0.224
Mof_C 	C 	0.9908	0.2491	0.136	-0.025
Mof_C 	C 	0.7186	0.6491	0.2199	-0.066
Mof_C 	C 	0.9658	0.99	0.7966	0.016
Mof_C 	C 	0.412	0.7069	0.8819	-0.135
Mof_C 	C 	0.7776	0.9464	0.3836	-0.712
Mof_C 	C 	0.928	0.0219	0.725	0.031
Mof_C 	C 	0.4041	0.1652	0.3691	-0.721
Mof_C 	C 	0.3557	0.4078	0.9608	-0.078
Mof_C 	C 	0.0732	0.5081	0.252	-0.051
Mof_C 	C 	0.8462	0.1781	0.6919	0.319
Mof_C 	C 	0.3565	0.718	0.523	0.011
Mof_C 	C 	0.2814	0.3509	0.7801	-0.066
Mof_C 	C 	0.758	0.0779	0.5381	-0.008
Mof_C 	C 	0.712	0.9764	0.3106	-0.034
Mof_C 	C 	0.1246	0.9694	0.8394	-0.025
Mof_C 	C 	0.5542	0.2534	0.986	-0.012
Mof_C 	C 	0.5265	0.8031	0.6549	0.216
Mof_C 	C 	0.3644	0.3311	0.8548	-0.929
Mof_C 	C 	0.8986	0.1149	0.3069	-0.115
Mof_C 	C 	0.7647	0.2729	0.2177	-0.195
Mof_C 	C 	0.3245	0.0007	0.7617	-0.022
Mof_C 	C 	0.9786	0.0451	0.1781	-0.219
Mof_C 	C 	0.2592	0.2361	0.6249	0.038
Mof_C 	C 	0.2692	0.6161	0.664	-0.657
Mof_C 	C 	0.5437	0.1895	0.5025	-0.682
Mof_C 	C 	0.0342	0.01	0.2034	0.016
Mof_C 	C 	0.9735	0.3031	0.1549	0.215
Mof_C 	C 	0.2673	0.8998	0.2985	-0.041
Mof_C 	C 	0.7058	0.4655	0.8377	0.223
Mof_C 	C 	0.742	0.5779	0.0381	-0.008
Mof_C 	C 	0.9741	0.1183	0.3878	-0.134
Mof_C 	C 	0.0214	0.9549	0.8219	-0.219
Mof_C 	C 	0.8694	0.742	0.1452	-0.137
Mof_C 	C 	0.3568	0.8566	0.7701	-0.061
Mof_C 	C 	0.6256	0.6418	0.0318	-0.008
Mof_C 	C 	0.6674	0.0148	0.1533	-0.68
Mof_C 	C 	0.6861	0.6971	0.8298	-0.112
Mof_C 	C 	0.0811	0.1345	0.3159	-0.131
Mof_C 	C 	0.0421	0.1487	0.1122	-0.069
Mof_C 	C 	0.5092	0.7491	0.636	-0.023
Mof_C 	C 	0.6908	0.1086	0.5283	-0.07
Mof_C 	C 	0.1014	0.8851	0.6931	-0.115
Mof_C 	C 	0.9452	0.8115	0.0994	-0.139
Mof_C 	C 	0.1195	0.0737	0.7737	-0.109
Mof_C 	C 	0.1908	0.3914	0.9717	-0.069
Mof_C 	C 	0.0632	0.7783	0.8962	-0.066
Mof_C 	C 	0.5554	0.7555	0.2039	0.083
Mof_C 	C 	0.072	0.9781	0.275	0.031
Mof_C 	C 	0.8744	0.1418	0.5318	-0.008
Mof_C 	C 	0.3963	0.2965	0.0911	-0.1
Mof_C 	C 	0.3391	0.204	0.6294	-0.248
Mof_C 	C 	0.0099	0.7082	0.264	-0.301
Mof_C 	C 	0.4368	0.2783	0.3962	-0.068
Mof_C 	C 	0.6195	0.4263	0.7263	-0.11
Mof_C 	C 	0.7034	0.8586	0.1671	-0.127
Mof_C 	C 	0.7235	0.8059	0.7612	-0.001
Mof_C 	C 	0.2942	0.5345	0.1623	0.223
Mof_C 	C 	0.1498	0.2999	0.994	0.202
Mof_C 	C 	0.4452	0.6885	0.4006	-0.139
Mof_C 	C 	0.8139	0.1971	0.3298	-0.111
Mof_C 	C 	0.6246	0.5306	0.6606	-0.03
Mof_C 	C 	0.5344	0.4608	0.8428	0.031
Mof_C 	C 	0.8805	0.9263	0.2263	-0.109
Mof_C 	C 	0.0265	0.6969	0.8451	0.215
Mof_C 	C 	0.0568	0.5208	0.2069	-0.021
Mof_C 	C 	0.7111	0.1476	0.7899	-0.022
Mof_C 	C 	0.4658	0.51	0.7034	0.007
Mof_C 	C 	0.165	0.4012	0.7144	-0.061
Mof_C 	C 	0.2111	0.3524	0.7101	-0.022
Mof_C 	C 	0.6443	0.5922	0.0392	-0.078
Mof_C 	C 	0.9408	0.864	0.4635	-0.629
Mof_C 	C 	0.9066	0.8189	0.8533	-0.013
Mof_C 	C 	0.7308	0.3839	0.336	-0.657
Mof_C 	C 	0.9579	0.8513	0.8878	-0.069
Mof_C 	C 	0.4458	0.7466	0.014	-0.012
Mof_C 	C 	0.7966	0.3586	0.6671	-0.127
Mof_C 	C 	0.2862	0.8407	0.4788	-0.011
Mof_C 	C 	0.2408	0.7361	0.1249	0.038
Mof_C 	C 	0.0547	0.6717	0.2285	0.059
Mof_C 	C 	0.5568	0.9792	0.2931	-0.023
Mof_C 	C 	0.6731	0.3356	0.3265	0.175
Mof_C 	C 	0.9368	0.2217	0.1038	-0.066
Mof_C 	C 	0.3986	0.3851	0.1931	-0.115
Mof_C 	C 	0.5371	0.1968	0.9841	-0.196
Mof_C 	C 	0.4656	0.5392	0.1572	0.031
Mof_C 	C 	0.5421	0.3513	0.3878	-0.072
Mof_C 	C 	0.2787	0.9873	0.8022	0.198
Mof_C 	C 	0.9836	0.6312	0.7883	-0.046
Mof_C 	C 	0.6301	0.8304	0.335	0.038
Mof_C 	C 	0.2459	0.7854	0.7834	-0.04
Mof_C 	C 	0.5959	0.8348	0.6309	-0.721
Mof_C 	C 	0.8963	0.2035	0.4089	-0.1
Mof_C 	C 	0.2308	0.1161	0.164	-0.658
Mof_C 	C 	0.7873	0.6839	0.3308	0.229
Mof_C 	C 	0.2942	0.1649	0.034	-0.007
Mof_C 	C 	0.7765	0.3059	0.2612	-0.001
Mof_C 	C 	0.6823	0.08	0.7386	-0.025
Mof_C 	C 	0.7031	0.2943	0.7139	-0.137
Mof_C 	C 	0.9563	0.6895	0.0025	-0.685
Mof_C 	C 	0.2765	0.1941	0.2388	-0.001
Mof_C 	C 	0.0411	0.7363	0.6488	-0.13
Mof_C 	C 	0.7673	0.6002	0.2015	-0.041
Mof_C 	C 	0.2966	0.1414	0.8329	-0.127
Mof_C 	C 	0.5205	0.3171	0.6841	-0.129
Mof_C 	C 	0.1731	0.1644	0.1735	0.175
Mof_C 	C 	0.1996	0.1673	0.0158	-0.217
Mof_C 	C 	0.6622	0.3869	0.6126	-0.153
Mof_C 	C 	0.3794	0.0284	0.6771	-0.044
Mof_C 	C 	0.5096	0.7068	0.7792	-0.131
Mof_C 	C 	0.088	0.2069	0.3819	-0.134
Mof_C 	C 	0.8092	0.6086	0.0283	-0.069
Mof_C 	C 	0.448	0.4871	0.8236	-0.245
Mof_C 	C 	0.8245	0.4993	0.7383	-0.022
Mof_C 	C 	0.7224	0.4464	0.8836	-0.711
Mof_C 	C 	0.2213	0.4873	0.3022	0.197
Mof_C 	C 	0.2969	0.7057	0.2861	-0.137
Mof_C 	C 	0.1256	0.8582	0.4682	-0.008
Mof_C 	C 	0.7127	0.1839	0.8308	0.229
Mof_C 	C 	0.7138	0.1593	0.5212	-0.011
Mof_C 	C 	0.8568	0.6434	0.7299	-0.062
Mof_C 	C 	0.1037	0.7965	0.5911	-0.1
Mof_C 	C 	0.5317	0.6728	0.5934	-0.006
Mof_C 	C 	0.2873	0.8161	0.1692	0.229
Mof_C 	C 	0.948	0.0129	0.6764	-0.249
Mof_C 	C 	0.3378	0.6131	0.3874	-0.153
Mof_C 	C 	0.1435	0.218	0.023	0.011
Mof_C 	C 	0.4432	0.0208	0.7069	-0.023
Mof_C 	C 	0.8502	0.7001	0.006	0.202
Mof_C 	C 	0.3092	0.8914	0.4717	-0.07
Mof_C 	C 	0.0934	0.1811	0.1467	-0.013
Mof_C 	C 	0.8565	0.782	0.977	0.011
Mof_C 	C 	0.4453	0.1717	0.7285	0.059
Mof_C 	C 	0.0092	0.7509	0.864	-0.025
Mof_C 	C 	0.4901	0.2082	0.764	-0.301
Mof_C 	C 	0.2138	0.3407	0.9788	-0.012
Mof_C 	C 	0.4657	0.1791	0.017	-0.008
Mof_C 	C 	0.9657	0.3209	0.483	-0.008
Mof_C 	C 	0.242	0.9221	0.4619	-0.008
Mof_C 	C 	0.7541	0.2146	0.2166	-0.04
Mof_C 	C 	0.4904	0.2932	0.2208	-0.131
Mof_C 	C 	0.9904	0.2068	0.2792	-0.133
Mof_C 	C 	0.4576	0.8693	0.7603	-0.086
Mof_C 	C 	0.4268	0.0081	0.752	-0.05
Mof_C 	C 	0.1509	0.3383	0.6314	-0.691
Mof_C 	C 	0.552	0.5129	0.1764	-0.245
Mof_C 	C 	0.8004	0.8327	0.9842	-0.217
Mof_C 	C 	0.8177	0.58	0.2386	-0.025
Mof_C 	C 	0.531	0.667	0.0303	0.164
Mof_C 	C 	0.0164	0.3688	0.2117	-0.046
Mof_C 	C 	0.4795	0.6829	0.3159	-0.129
Mof_C 	C 	0.2776	0.5536	0.1164	-0.711
Mof_C 	C 	0.5214	0.5451	0.6781	-0.209
Mof_C 	C 	0.2224	0.0536	0.6164	-0.712
Mof_C 	C 	0.3744	0.3582	0.9682	-0.008
Mof_C 	C 	0.5164	0.1312	0.2883	-0.047
Mof_C 	C 	0.9189	0.8655	0.6841	-0.131
Mof_C 	C 	0.0205	0.1829	0.8159	-0.129
Mof_C 	C 	0.3805	0.5737	0.2737	-0.11
Mof_C 	C 	0.1538	0.8219	0.3081	0.319
Mof_C 	C 	0.0542	0.2466	0.514	-0.012
Mof_C 	C 	0.6755	0.9993	0.2383	-0.022
Mof_C 	C 	0.6037	0.7035	0.9089	-0.1
Mof_C 	C 	0.031	0.833	0.4697	0.163
Mof_C 	C 	0.4908	0.2509	0.364	-0.023
Mof_C 	C 	0.212	0.5236	0.1894	-0.033
Mof_C 	C 	0.7327	0.1002	0.7015	-0.041
Mof_C 	C 	0.7353	0.7729	0.7177	-0.195
Mof_C 	C 	0.428	0.4781	0.775	0.03
Mof_C 	C 	0.7459	0.7146	0.7166	-0.04
Mof_C 	C 	0.6538	0.6781	0.1919	0.319
Mof_C 	C 	0.0344	0.0392	0.6572	0.033
Mof_C 	C 	0.5811	0.3655	0.1841	-0.132
Mof_C 	C 	0.3699	0.1696	0.665	0.038
Mof_C 	C 	0.9589	0.2637	0.3512	-0.13
Mof_C 	C 	0.2647	0.2271	0.2823	-0.195
Mof_C 	C 	0.2034	0.6414	0.3329	-0.127
Mof_C 	C 	0.9458	0.7534	0.486	-0.012
Mof_C 	C 	0.7942	0.3351	0.466	-0.006
Mof_C 	C 	0.8644	0.1689	0.6452	-0.928
Mof_C 	C 	0.1306	0.258	0.8548	-0.137
Mof_C 	C 	0.2235	0.6941	0.7388	-0.001
Mof_C 	C 	0.6432	0.1434	0.2299	-0.061
Mof_C 	C 	0.258	0.4221	0.9619	-0.008
Mof_C 	C 	0.0096	0.7932	0.7208	-0.133
Mof_C 	C 	0.2186	0.8509	0.2801	-0.066
Mof_C 	C 	0.7488	0.7909	0.1028	-0.136
Mof_C 	C 	0.4579	0.6487	0.6122	-0.072
Mof_C 	C 	0.9629	0.6968	0.4841	-0.195
Mof_C 	C 	0.7592	0.2639	0.8751	0.038
Mof_C 	C 	0.4741	0.3817	0.1122	-0.133
Mof_C 	C 	0.0548	0.1885	0.9006	-0.139
Mof_C 	C 	0.6996	0.3327	0.4842	-0.218
Mof_C 	C 	0.5547	0.8283	0.2715	0.059
Mof_C 	C 	0.0959	0.6652	0.8691	-0.72
Mof_C 	C 	0.3694	0.758	0.3548	-0.137
Mof_C 	C 	0.4735	0.1969	0.3451	0.216
Mof_N 	N 	0.5298	0.7154	0.0231	-0.251
Mof_N 	N 	0.6406	0.3911	0.2014	-0.088
Mof_N 	N 	0.5009	0.6965	0.4294	-0.08
Mof_N 	N 	0.6314	0.5783	0.7885	-0.185
Mof_N 	N 	0.6878	0.5203	0.7009	-0.263
Mof_N 	N 	0.3021	0.2281	0.9249	-0.194
Mof_N 	N 	0.3035	0.3273	0.9773	-0.225
Mof_N 	N 	0.7512	0.221	0.8361	-0.278
Mof_N 	N 	0.2649	0.7948	0.6778	-0.189
Mof_N 	N 	0.0105	0.2253	0.2473	-0.176
Mof_N 	N 	0.8026	0.802	0.7918	-0.25
Mof_N 	N 	0.2287	0.2222	0.7534	-0.179
Mof_N 	N 	0.4348	0.7278	0.6552	-0.222
Mof_N 	N 	0.8021	0.2719	0.5751	-0.194
Mof_N 	N 	0.7352	0.9903	0.2704	-0.216
Mof_N 	N 	0.1314	0.9217	0.7115	-0.185
Mof_N 	N 	0.4474	0.3097	0.7005	-0.184
Mof_N 	N 	0.0924	0.7055	0.1985	-0.286
Mof_N 	N 	0.9867	0.9892	0.75	-0.288
Mof_N 	N 	0.1974	0.198	0.2082	-0.25
Mof_N 	N 	0.3426	0.802	0.7704	-0.258
Mof_N 	N 	0.0526	0.8097	0.2005	-0.184
Mof_N 	N 	0.3822	0.2823	0.7845	-0.316
Mof_N 	N 	0.1965	0.8273	0.4773	-0.225
Mof_N 	N 	0.7371	0.6715	0.2605	-0.224
Mof_N 	N 	0.6311	0.8144	0.9964	-0.276
Mof_N 	N 	0.1979	0.7281	0.4249	-0.194
Mof_N 	N 	0.617	0.1989	0.6418	-0.082
Mof_N 	N 	0.871	0.3776	0.6725	-0.084
Mof_N 	N 	0.8689	0.3144	0.4964	-0.277
Mof_N 	N 	0.8448	0.7795	0.598	-0.085
Mof_N 	N 	0.0009	0.8035	0.0706	-0.08
Mof_N 	N 	0.1311	0.6856	0.5036	-0.277
Mof_N 	N 	0.1552	0.2205	0.402	-0.085
Mof_N 	N 	0.9474	0.1903	0.7995	-0.184
Mof_N 	N 	0.6305	0.3912	0.701	-0.166
Mof_N 	N 	0.4702	0.2846	0.9769	-0.251
Mof_N 	N 	0.6979	0.7719	0.0751	-0.194
Mof_N 	N 	0.2488	0.779	0.1639	-0.278
Mof_N 	N 	0.9895	0.7747	0.7527	-0.176
Mof_N 	N 	0.371	0.1224	0.8275	-0.084
Mof_N 	N 	0.3026	0.698	0.7082	-0.25
Mof_N 	N 	0.8426	0.698	0.7296	-0.257
Mof_N 	N 	0.2371	0.8285	0.2395	-0.224
Mof_N 	N 	0.5652	0.2722	0.3448	-0.222
Mof_N 	N 	0.883	0.6989	0.1418	-0.083
Mof_N 	N 	0.629	0.8776	0.1725	-0.084
Mof_N 	N 	0.02	0.3176	0.189	-0.259
Mof_N 	N 	0.2352	0.5097	0.2296	-0.216
Mof_N 	N 	0.3689	0.1856	0.0036	-0.276
Mof_N 	N 	0.0298	0.7846	0.4769	-0.251
Mof_N 	N 	0.8594	0.8911	0.7014	-0.088
Mof_N 	N 	0.1406	0.1089	0.2986	-0.088
Mof_N 	N 	0.5412	0.8084	0.8556	-0.085
Mof_N 	N 	0.8822	0.2177	0.7155	-0.316
Mof_N 	N 	0.7713	0.7778	0.2466	-0.179
Mof_N 	N 	0.2351	0.2948	0.1778	-0.189
Mof_N 	N 	0.0652	0.2278	0.1552	-0.221
Mof_N 	N 	0.8035	0.1727	0.5227	-0.225
Mof_N 	N 	0.8085	0.7407	0.9959	-0.263
Mof_N 	N 	0.6915	0.2407	0.4959	-0.263
Mof_N 	N 	0.1684	0.079	0.9099	-0.077
Mof_N 	N 	0.3695	0.6088	0.299	-0.166
Mof_N 	N 	0.48	0.8176	0.689	-0.26
Mof_N 	N 	0.3122	0.4797	0.2991	-0.263
Mof_N 	N 	0.6178	0.7177	0.2155	-0.316
Mof_N 	N 	0.5195	0.5869	0.9107	-0.079
Mof_N 	N 	0.4867	0.5108	0.75	-0.287
Mof_N 	N 	0.4588	0.1916	0.1444	-0.085
Mof_N 	N 	0.0412	0.6916	0.6444	-0.085
Mof_N 	N 	0.4076	0.2055	0.6985	-0.286
Mof_N 	N 	0.2512	0.279	0.6639	-0.278
Mof_N 	N 	0.1178	0.7823	0.2845	-0.316
Mof_N 	N 	0.4991	0.3035	0.5706	-0.08
Mof_N 	N 	0.6258	0.474	0.822	-0.276
Mof_N 	N 	0.6552	0.2795	0.098	-0.085
Mof_N 	N 	0.7488	0.721	0.3361	-0.278
Mof_N 	N 	0.3742	0.526	0.178	-0.276
Mof_N 	N 	0.4895	0.7253	0.7473	-0.177
Mof_N 	N 	0.7649	0.7052	0.8222	-0.189
Mof_N 	N 	0.52	0.1824	0.311	-0.26
Mof_N 	N 	0.3686	0.4217	0.2115	-0.185
Mof_N 	N 	0.2629	0.3285	0.7395	-0.224
Mof_N 	N 	0.117	0.3011	0.8582	-0.083
Mof_N 	N 	0.383	0.8011	0.3582	-0.082
Mof_N 	N 	0.7629	0.1715	0.7605	-0.224
Mof_N 	N 	0.9805	0.0869	0.4107	-0.079
Mof_N 	N 	0.9588	0.3084	0.3556	-0.085
Mof_N 	N 	0.8316	0.921	0.0901	-0.077
Mof_N 	N 	0.129	0.6224	0.3275	-0.084
Mof_N 	N 	0.9702	0.2154	0.5231	-0.251
Mof_N 	N 	0.8742	0.974	0.322	-0.276
Mof_N 	N 	0.9348	0.7722	0.8448	-0.221
Mof_N 	N 	0.5105	0.2747	0.2527	-0.177
Mof_N 	N 	0.8695	0.8912	0.201	-0.166
Mof_N 	N 	0.98	0.6824	0.811	-0.259
Mof_N 	N 	0.6684	0.421	0.5901	-0.077
Mof_N 	N 	0.1305	0.1088	0.799	-0.166
Mof_N 	N 	0.1915	0.2593	0.0041	-0.263
Mof_N 	N 	0.6574	0.198	0.2296	-0.258
Mof_N 	N 	0.8686	0.0783	0.2885	-0.185
Mof_N 	N 	0.2713	0.7222	0.2534	-0.179
Mof_N 	N 	0.7351	0.2052	0.3222	-0.189
Mof_N 	N 	0.1258	0.026	0.678	-0.276
Mof_N 	N 	0.1574	0.302	0.2704	-0.257
Mof_N 	N 	0.6965	0.6727	0.0227	-0.225
Mof_N 	N 	0.3316	0.579	0.4099	-0.077
Mof_N 	N 	0.0195	0.9131	0.5893	-0.079
Mof_N 	N 	0.5133	0.4892	0.25	-0.287
Mof_N 	N 	0.8625	0.2169	0.4429	-0.189
Mof_N 	N 	0.3594	0.6089	0.7986	-0.088
Mof_N 	N 	0.6974	0.302	0.2918	-0.25
Mof_N 	N 	0.1878	0.9797	0.7991	-0.264
Mof_N 	N 	0.5924	0.7945	0.3015	-0.286
Mof_N 	N 	0.2648	0.0097	0.7296	-0.216
Mof_N 	N 	0.4805	0.4131	0.0893	-0.079
Mof_N 	N 	0.5526	0.6903	0.2995	-0.184
Mof_N 	N 	0.7648	0.4903	0.7704	-0.216
Mof_N 	N 	0.3085	0.7593	0.5041	-0.263
Mof_N 	N 	0.7287	0.2778	0.7466	-0.179
Mof_N 	N 	0.9076	0.2945	0.8015	-0.286
Mof_N 	N 	0.3625	0.2831	0.0571	-0.189
Mof_N 	N 	0.6375	0.7169	0.9429	-0.189
Mof_N 	N 	0.1375	0.7831	0.5571	-0.189
Mof_N 	N 	0.0133	0.0108	0.25	-0.288
Mof_N 	N 	0.8122	0.0203	0.2009	-0.264
Mof_N 	N 	0.3448	0.7205	0.902	-0.085
Mof_N 	N 	0.9991	0.1965	0.9294	-0.08
_end
