# CIF file generated by openbabel 3.1.0, see https://openbabel.org
data_I
_chemical_name_common 'image0'
_cell_length_a 22.2055
_cell_length_b 22.2055
_cell_length_c 33.1729
_cell_angle_alpha 90
_cell_angle_beta 90
_cell_angle_gamma 120
_space_group_name_H-M_alt 'P 1'
_space_group_name_Hall 'P 1'
loop_
    _symmetry_equiv_pos_as_xyz
    x,y,z
loop_
    _atom_site_label
    _atom_site_type_symbol
    _atom_site_fract_x
    _atom_site_fract_y
    _atom_site_fract_z
    _atom_site_occupancy
    O1       O        0.45310    0.77620    0.63026    1.000
    C1       C        0.57580    0.57820    0.35800    1.000
    H1       H        0.54450    0.53030    0.36300    1.000
    C2       C        0.63340    0.60040    0.33340    1.000
    C3       C        0.60040    0.74830    0.39080    1.000
    C4       C        0.61530    0.69910    0.36940    1.000
    C5       C        0.57260    0.73330    0.42960    1.000
    H2       H        0.56700    0.69310    0.44320    1.000
    C6       C        0.67910    0.66910    0.32450    1.000
    H3       H        0.71600    0.68090    0.30600    1.000
    C7       C        0.67120    0.72140    0.34260    1.000
    H4       H        0.70200    0.76920    0.33710    1.000
    C8       C        0.56640    0.62990    0.37480    1.000
    H5       H        0.52590    0.61760    0.39020    1.000
    C9       C        0.51490    0.70440    0.51060    1.000
    H6       H        0.52030    0.66990    0.49670    1.000
    C10      C        0.49280    0.69320    0.55000    1.000
    H7       H        0.48490    0.65210    0.56340    1.000
    O2       O        0.59140    0.48110    0.31860    1.000
    C11      C        0.63630    0.54130    0.31320    1.000
    O3       O        0.69000    0.55460    0.29550    1.000
    C12      C        0.52150    0.81290    0.55610    1.000
    H8       H        0.51160    0.84550    0.56860    1.000
    C13      C        0.55210    0.82840    0.51830    1.000
    H9       H        0.56360    0.87160    0.50620    1.000
    O4       O        0.64170    0.50800    0.30350    1.000
    C14      C        0.68650    0.56770    0.30820    1.000
    O5       O        0.74800    0.58840    0.29820    1.000
    C15      C        0.67620    0.61750    0.33380    1.000
    C16      C        0.62090    0.59130    0.35990    1.000
    H10      H        0.59250    0.54250    0.36350    1.000
    C17      C        0.60720    0.63650    0.38080    1.000
    H11      H        0.56770    0.61790    0.39800    1.000
    C18      C        0.70730    0.73350    0.35250    1.000
    H12      H        0.73840    0.78210    0.35010    1.000
    C19      C        0.71980    0.68810    0.33120    1.000
    H13      H        0.75950    0.70570    0.31420    1.000
    C20      C        0.64930    0.70920    0.37770    1.000
    C21      C        0.63480    0.76230    0.39770    1.000
    C22      C        0.60820    0.74930    0.43660    1.000
    H14      H        0.59890    0.70770    0.44990    1.000
    O6       O        0.22380    0.67690    0.63026    1.000
    C23      C        0.42180    0.99760    0.35800    1.000
    H15      H        0.46970    0.01420    0.36300    1.000
    C24      C        0.39960    0.03300    0.33340    1.000
    C25      C        0.25170    0.85210    0.39080    1.000
    C26      C        0.30090    0.91620    0.36940    1.000
    C27      C        0.26670    0.83930    0.42960    1.000
    H16      H        0.30690    0.87390    0.44320    1.000
    C28      C        0.33090    0.01000    0.32450    1.000
    H17      H        0.31910    0.03510    0.30600    1.000
    C29      C        0.27860    0.94980    0.34260    1.000
    H18      H        0.23080    0.93280    0.33710    1.000
    C30      C        0.37010    0.93650    0.37480    1.000
    H19      H        0.38240    0.90830    0.39020    1.000
    C31      C        0.29560    0.81050    0.51060    1.000
    H20      H        0.33010    0.85040    0.49670    1.000
    C32      C        0.30680    0.79960    0.55000    1.000
    H21      H        0.34790    0.83280    0.56340    1.000
    O7       O        0.51890    0.11030    0.31860    1.000
    C33      C        0.45870    0.09500    0.31320    1.000
    O8       O        0.44540    0.13540    0.29550    1.000
    C34      C        0.18710    0.70860    0.55610    1.000
    H22      H        0.15450    0.66610    0.56860    1.000
    C35      C        0.17160    0.72370    0.51830    1.000
    H23      H        0.12840    0.69200    0.50620    1.000
    O9       O        0.49200    0.13370    0.30350    1.000
    C36      C        0.43230    0.11880    0.30820    1.000
    O10      O        0.41160    0.15960    0.29820    1.000
    C37      C        0.38250    0.05870    0.33380    1.000
    C38      C        0.40870    0.02960    0.35990    1.000
    H24      H        0.45750    0.05000    0.36350    1.000
    C39      C        0.36350    0.97070    0.38080    1.000
    H25      H        0.38210    0.94980    0.39800    1.000
    C40      C        0.26650    0.97380    0.35250    1.000
    H26      H        0.21790    0.95630    0.35010    1.000
    C41      C        0.31190    0.03170    0.33120    1.000
    H27      H        0.29430    0.05380    0.31420    1.000
    C42      C        0.29080    0.94010    0.37770    1.000
    C43      C        0.23770    0.87250    0.39770    1.000
    C44      C        0.25070    0.85890    0.43660    1.000
    H28      H        0.29230    0.89120    0.44990    1.000
    O11      O        0.32310    0.54690    0.63026    1.000
    C45      C        0.00240    0.42420    0.35800    1.000
    H29      H        0.98580    0.45550    0.36300    1.000
    C46      C        0.96700    0.36660    0.33340    1.000
    C47      C        0.14790    0.39960    0.39080    1.000
    C48      C        0.08380    0.38470    0.36940    1.000
    C49      C        0.16070    0.42740    0.42960    1.000
    H30      H        0.12610    0.43300    0.44320    1.000
    C50      C        0.99000    0.32090    0.32450    1.000
    H31      H        0.96490    0.28400    0.30600    1.000
    C51      C        0.05020    0.32880    0.34260    1.000
    H32      H        0.06720    0.29800    0.33710    1.000
    C52      C        0.06350    0.43360    0.37480    1.000
    H33      H        0.09170    0.47410    0.39020    1.000
    C53      C        0.18950    0.48510    0.51060    1.000
    H34      H        0.14960    0.47970    0.49670    1.000
    C54      C        0.20040    0.50720    0.55000    1.000
    H35      H        0.16720    0.51510    0.56340    1.000
    O12      O        0.88970    0.40860    0.31860    1.000
    C55      C        0.90500    0.36370    0.31320    1.000
    O13      O        0.86460    0.31000    0.29550    1.000
    C56      C        0.29140    0.47850    0.55610    1.000
    H36      H        0.33390    0.48840    0.56860    1.000
    C57      C        0.27630    0.44790    0.51830    1.000
    H37      H        0.30800    0.43640    0.50620    1.000
    O14      O        0.86630    0.35830    0.30350    1.000
    C58      C        0.88120    0.31350    0.30820    1.000
    O15      O        0.84040    0.25200    0.29820    1.000
    C59      C        0.94130    0.32380    0.33380    1.000
    C60      C        0.97040    0.37910    0.35990    1.000
    H38      H        0.95000    0.40750    0.36350    1.000
    C61      C        0.02930    0.39280    0.38080    1.000
    H39      H        0.05020    0.43230    0.39800    1.000
    C62      C        0.02620    0.29270    0.35250    1.000
    H40      H        0.04370    0.26160    0.35010    1.000
    C63      C        0.96830    0.28020    0.33120    1.000
    H41      H        0.94620    0.24050    0.31420    1.000
    C64      C        0.05990    0.35070    0.37770    1.000
    C65      C        0.12750    0.36520    0.39770    1.000
    C66      C        0.14110    0.39180    0.43660    1.000
    H42      H        0.10880    0.40110    0.44990    1.000
    O16      O        0.54690    0.22380    0.13026    1.000
    C67      C        0.42420    0.42180    0.85800    1.000
    H43      H        0.45550    0.46970    0.86300    1.000
    C68      C        0.36660    0.39960    0.83340    1.000
    C69      C        0.39960    0.25170    0.89080    1.000
    C70      C        0.38470    0.30090    0.86940    1.000
    C71      C        0.42740    0.26670    0.92960    1.000
    H44      H        0.43300    0.30690    0.94320    1.000
    C72      C        0.32090    0.33090    0.82450    1.000
    H45      H        0.28400    0.31910    0.80600    1.000
    C73      C        0.32880    0.27860    0.84260    1.000
    H46      H        0.29800    0.23080    0.83710    1.000
    C74      C        0.43360    0.37010    0.87480    1.000
    H47      H        0.47410    0.38240    0.89020    1.000
    C75      C        0.48510    0.29560    0.01060    1.000
    H48      H        0.47970    0.33010    0.99670    1.000
    C76      C        0.50720    0.30680    0.05000    1.000
    H49      H        0.51510    0.34790    0.06340    1.000
    O17      O        0.40860    0.51890    0.81860    1.000
    C77      C        0.36370    0.45870    0.81320    1.000
    O18      O        0.31000    0.44540    0.79550    1.000
    C78      C        0.47850    0.18710    0.05610    1.000
    H50      H        0.48840    0.15450    0.06860    1.000
    C79      C        0.44790    0.17160    0.01830    1.000
    H51      H        0.43640    0.12840    0.00620    1.000
    O19      O        0.35830    0.49200    0.80350    1.000
    C80      C        0.31350    0.43230    0.80820    1.000
    O20      O        0.25200    0.41160    0.79820    1.000
    C81      C        0.32380    0.38250    0.83380    1.000
    C82      C        0.37910    0.40870    0.85990    1.000
    H52      H        0.40750    0.45750    0.86350    1.000
    C83      C        0.39280    0.36350    0.88080    1.000
    H53      H        0.43230    0.38210    0.89800    1.000
    C84      C        0.29270    0.26650    0.85250    1.000
    H54      H        0.26160    0.21790    0.85010    1.000
    C85      C        0.28020    0.31190    0.83120    1.000
    H55      H        0.24050    0.29430    0.81420    1.000
    C86      C        0.35070    0.29080    0.87770    1.000
    C87      C        0.36520    0.23770    0.89770    1.000
    C88      C        0.39180    0.25070    0.93660    1.000
    H56      H        0.40110    0.29230    0.94990    1.000
    O21      O        0.77620    0.32310    0.13026    1.000
    C89      C        0.57820    0.00240    0.85800    1.000
    H57      H        0.53030    0.98580    0.86300    1.000
    C90      C        0.60040    0.96700    0.83340    1.000
    C91      C        0.74830    0.14790    0.89080    1.000
    C92      C        0.69910    0.08380    0.86940    1.000
    C93      C        0.73330    0.16070    0.92960    1.000
    H58      H        0.69310    0.12610    0.94320    1.000
    C94      C        0.66910    0.99000    0.82450    1.000
    H59      H        0.68090    0.96490    0.80600    1.000
    C95      C        0.72140    0.05020    0.84260    1.000
    H60      H        0.76920    0.06720    0.83710    1.000
    C96      C        0.62990    0.06350    0.87480    1.000
    H61      H        0.61760    0.09170    0.89020    1.000
    C97      C        0.70440    0.18950    0.01060    1.000
    H62      H        0.66990    0.14960    0.99670    1.000
    C98      C        0.69320    0.20040    0.05000    1.000
    H63      H        0.65210    0.16720    0.06340    1.000
    O22      O        0.48110    0.88970    0.81860    1.000
    C99      C        0.54130    0.90500    0.81320    1.000
    O23      O        0.55460    0.86460    0.79550    1.000
    C100     C        0.81290    0.29140    0.05610    1.000
    H64      H        0.84550    0.33390    0.06860    1.000
    C101     C        0.82840    0.27630    0.01830    1.000
    H65      H        0.87160    0.30800    0.00620    1.000
    O24      O        0.50800    0.86630    0.80350    1.000
    C102     C        0.56770    0.88120    0.80820    1.000
    O25      O        0.58840    0.84040    0.79820    1.000
    C103     C        0.61750    0.94130    0.83380    1.000
    C104     C        0.59130    0.97040    0.85990    1.000
    H66      H        0.54250    0.95000    0.86350    1.000
    C105     C        0.63650    0.02930    0.88080    1.000
    H67      H        0.61790    0.05020    0.89800    1.000
    C106     C        0.73350    0.02620    0.85250    1.000
    H68      H        0.78210    0.04370    0.85010    1.000
    C107     C        0.68810    0.96830    0.83120    1.000
    H69      H        0.70570    0.94620    0.81420    1.000
    C108     C        0.70920    0.05990    0.87770    1.000
    C109     C        0.76230    0.12750    0.89770    1.000
    C110     C        0.74930    0.14110    0.93660    1.000
    H70      H        0.70770    0.10880    0.94990    1.000
    O26      O        0.67690    0.45310    0.13026    1.000
    C111     C        0.99760    0.57580    0.85800    1.000
    H71      H        0.01420    0.54450    0.86300    1.000
    C112     C        0.03300    0.63340    0.83340    1.000
    C113     C        0.85210    0.60040    0.89080    1.000
    C114     C        0.91620    0.61530    0.86940    1.000
    C115     C        0.83930    0.57260    0.92960    1.000
    H72      H        0.87390    0.56700    0.94320    1.000
    C116     C        0.01000    0.67910    0.82450    1.000
    H73      H        0.03510    0.71600    0.80600    1.000
    C117     C        0.94980    0.67120    0.84260    1.000
    H74      H        0.93280    0.70200    0.83710    1.000
    C118     C        0.93650    0.56640    0.87480    1.000
    H75      H        0.90830    0.52590    0.89020    1.000
    C119     C        0.81050    0.51490    0.01060    1.000
    H76      H        0.85040    0.52030    0.99670    1.000
    C120     C        0.79960    0.49280    0.05000    1.000
    H77      H        0.83280    0.48490    0.06340    1.000
    O27      O        0.11030    0.59140    0.81860    1.000
    C121     C        0.09500    0.63630    0.81320    1.000
    O28      O        0.13540    0.69000    0.79550    1.000
    C122     C        0.70860    0.52150    0.05610    1.000
    H78      H        0.66610    0.51160    0.06860    1.000
    C123     C        0.72370    0.55210    0.01830    1.000
    H79      H        0.69200    0.56360    0.00620    1.000
    O29      O        0.13370    0.64170    0.80350    1.000
    C124     C        0.11880    0.68650    0.80820    1.000
    O30      O        0.15960    0.74800    0.79820    1.000
    C125     C        0.05870    0.67620    0.83380    1.000
    C126     C        0.02960    0.62090    0.85990    1.000
    H80      H        0.05000    0.59250    0.86350    1.000
    C127     C        0.97070    0.60720    0.88080    1.000
    H81      H        0.94980    0.56770    0.89800    1.000
    C128     C        0.97380    0.70730    0.85250    1.000
    H82      H        0.95630    0.73840    0.85010    1.000
    C129     C        0.03170    0.71980    0.83120    1.000
    H83      H        0.05380    0.75950    0.81420    1.000
    C130     C        0.94010    0.64930    0.87770    1.000
    C131     C        0.87250    0.63480    0.89770    1.000
    C132     C        0.85890    0.60820    0.93660    1.000
    H84      H        0.89120    0.59890    0.94990    1.000
    O31      O        0.77620    0.45310    0.36974    1.000
    C133     C        0.57820    0.57580    0.64200    1.000
    H85      H        0.53030    0.54450    0.63700    1.000
    C134     C        0.60040    0.63340    0.66660    1.000
    C135     C        0.74830    0.60040    0.60920    1.000
    C136     C        0.69910    0.61530    0.63060    1.000
    C137     C        0.73330    0.57260    0.57040    1.000
    H86      H        0.69310    0.56700    0.55680    1.000
    C138     C        0.66910    0.67910    0.67550    1.000
    H87      H        0.68090    0.71600    0.69400    1.000
    C139     C        0.72140    0.67120    0.65740    1.000
    H88      H        0.76920    0.70200    0.66290    1.000
    C140     C        0.62990    0.56640    0.62520    1.000
    H89      H        0.61760    0.52590    0.60980    1.000
    C141     C        0.70440    0.51490    0.48940    1.000
    H90      H        0.66990    0.52030    0.50330    1.000
    C142     C        0.69320    0.49280    0.45000    1.000
    H91      H        0.65210    0.48490    0.43660    1.000
    O32      O        0.48110    0.59140    0.68140    1.000
    C143     C        0.54130    0.63630    0.68680    1.000
    O33      O        0.55460    0.69000    0.70450    1.000
    C144     C        0.81290    0.52150    0.44390    1.000
    H92      H        0.84550    0.51160    0.43140    1.000
    C145     C        0.82840    0.55210    0.48170    1.000
    H93      H        0.87160    0.56360    0.49380    1.000
    O34      O        0.50800    0.64170    0.69650    1.000
    C146     C        0.56770    0.68650    0.69180    1.000
    O35      O        0.58840    0.74800    0.70180    1.000
    C147     C        0.61750    0.67620    0.66620    1.000
    C148     C        0.59130    0.62090    0.64010    1.000
    H94      H        0.54250    0.59250    0.63650    1.000
    C149     C        0.63650    0.60720    0.61920    1.000
    H95      H        0.61790    0.56770    0.60200    1.000
    C150     C        0.73350    0.70730    0.64750    1.000
    H96      H        0.78210    0.73840    0.64990    1.000
    C151     C        0.68810    0.71980    0.66880    1.000
    H97      H        0.70570    0.75950    0.68580    1.000
    C152     C        0.70920    0.64930    0.62230    1.000
    C153     C        0.76230    0.63480    0.60230    1.000
    C154     C        0.74930    0.60820    0.56340    1.000
    H98      H        0.70770    0.59890    0.55010    1.000
    O36      O        0.67690    0.22380    0.36974    1.000
    C155     C        0.99760    0.42180    0.64200    1.000
    H99      H        0.01420    0.46970    0.63700    1.000
    C156     C        0.03300    0.39960    0.66660    1.000
    C157     C        0.85210    0.25170    0.60920    1.000
    C158     C        0.91620    0.30090    0.63060    1.000
    C159     C        0.83930    0.26670    0.57040    1.000
    H100     H        0.87390    0.30690    0.55680    1.000
    C160     C        0.01000    0.33090    0.67550    1.000
    H101     H        0.03510    0.31910    0.69400    1.000
    C161     C        0.94980    0.27860    0.65740    1.000
    H102     H        0.93280    0.23080    0.66290    1.000
    C162     C        0.93650    0.37010    0.62520    1.000
    H103     H        0.90830    0.38240    0.60980    1.000
    C163     C        0.81050    0.29560    0.48940    1.000
    H104     H        0.85040    0.33010    0.50330    1.000
    C164     C        0.79960    0.30680    0.45000    1.000
    H105     H        0.83280    0.34790    0.43660    1.000
    O37      O        0.11030    0.51890    0.68140    1.000
    C165     C        0.09500    0.45870    0.68680    1.000
    O38      O        0.13540    0.44540    0.70450    1.000
    C166     C        0.70860    0.18710    0.44390    1.000
    H106     H        0.66610    0.15450    0.43140    1.000
    C167     C        0.72370    0.17160    0.48170    1.000
    H107     H        0.69200    0.12840    0.49380    1.000
    O39      O        0.13370    0.49200    0.69650    1.000
    C168     C        0.11880    0.43230    0.69180    1.000
    O40      O        0.15960    0.41160    0.70180    1.000
    C169     C        0.05870    0.38250    0.66620    1.000
    C170     C        0.02960    0.40870    0.64010    1.000
    H108     H        0.05000    0.45750    0.63650    1.000
    C171     C        0.97070    0.36350    0.61920    1.000
    H109     H        0.94980    0.38210    0.60200    1.000
    C172     C        0.97380    0.26650    0.64750    1.000
    H110     H        0.95630    0.21790    0.64990    1.000
    C173     C        0.03170    0.31190    0.66880    1.000
    H111     H        0.05380    0.29430    0.68580    1.000
    C174     C        0.94010    0.29080    0.62230    1.000
    C175     C        0.87250    0.23770    0.60230    1.000
    C176     C        0.85890    0.25070    0.56340    1.000
    H112     H        0.89120    0.29230    0.55010    1.000
    O41      O        0.54690    0.32310    0.36974    1.000
    C177     C        0.42420    0.00240    0.64200    1.000
    H113     H        0.45550    0.98580    0.63700    1.000
    C178     C        0.36660    0.96700    0.66660    1.000
    C179     C        0.39960    0.14790    0.60920    1.000
    C180     C        0.38470    0.08380    0.63060    1.000
    C181     C        0.42740    0.16070    0.57040    1.000
    H114     H        0.43300    0.12610    0.55680    1.000
    C182     C        0.32090    0.99000    0.67550    1.000
    H115     H        0.28400    0.96490    0.69400    1.000
    C183     C        0.32880    0.05020    0.65740    1.000
    H116     H        0.29800    0.06720    0.66290    1.000
    C184     C        0.43360    0.06350    0.62520    1.000
    H117     H        0.47410    0.09170    0.60980    1.000
    C185     C        0.48510    0.18950    0.48940    1.000
    H118     H        0.47970    0.14960    0.50330    1.000
    C186     C        0.50720    0.20040    0.45000    1.000
    H119     H        0.51510    0.16720    0.43660    1.000
    O42      O        0.40860    0.88970    0.68140    1.000
    C187     C        0.36370    0.90500    0.68680    1.000
    O43      O        0.31000    0.86460    0.70450    1.000
    C188     C        0.47850    0.29140    0.44390    1.000
    H120     H        0.48840    0.33390    0.43140    1.000
    C189     C        0.44790    0.27630    0.48170    1.000
    H121     H        0.43640    0.30800    0.49380    1.000
    O44      O        0.35830    0.86630    0.69650    1.000
    C190     C        0.31350    0.88120    0.69180    1.000
    O45      O        0.25200    0.84040    0.70180    1.000
    C191     C        0.32380    0.94130    0.66620    1.000
    C192     C        0.37910    0.97040    0.64010    1.000
    H122     H        0.40750    0.95000    0.63650    1.000
    C193     C        0.39280    0.02930    0.61920    1.000
    H123     H        0.43230    0.05020    0.60200    1.000
    C194     C        0.29270    0.02620    0.64750    1.000
    H124     H        0.26160    0.04370    0.64990    1.000
    C195     C        0.28020    0.96830    0.66880    1.000
    H125     H        0.24050    0.94620    0.68580    1.000
    C196     C        0.35070    0.05990    0.62230    1.000
    C197     C        0.36520    0.12750    0.60230    1.000
    C198     C        0.39180    0.14110    0.56340    1.000
    H126     H        0.40110    0.10880    0.55010    1.000
    O46      O        0.22380    0.54690    0.86974    1.000
    C199     C        0.42180    0.42420    0.14200    1.000
    H127     H        0.46970    0.45550    0.13700    1.000
    C200     C        0.39960    0.36660    0.16660    1.000
    C201     C        0.25170    0.39960    0.10920    1.000
    C202     C        0.30090    0.38470    0.13060    1.000
    C203     C        0.26670    0.42740    0.07040    1.000
    H128     H        0.30690    0.43300    0.05680    1.000
    C204     C        0.33090    0.32090    0.17550    1.000
    H129     H        0.31910    0.28400    0.19400    1.000
    C205     C        0.27860    0.32880    0.15740    1.000
    H130     H        0.23080    0.29800    0.16290    1.000
    C206     C        0.37010    0.43360    0.12520    1.000
    H131     H        0.38240    0.47410    0.10980    1.000
    C207     C        0.29560    0.48510    0.98940    1.000
    H132     H        0.33010    0.47970    0.00330    1.000
    C208     C        0.30680    0.50720    0.95000    1.000
    H133     H        0.34790    0.51510    0.93660    1.000
    O47      O        0.51890    0.40860    0.18140    1.000
    C209     C        0.45870    0.36370    0.18680    1.000
    O48      O        0.44540    0.31000    0.20450    1.000
    C210     C        0.18710    0.47850    0.94390    1.000
    H134     H        0.15450    0.48840    0.93140    1.000
    C211     C        0.17160    0.44790    0.98170    1.000
    H135     H        0.12840    0.43640    0.99380    1.000
    O49      O        0.49200    0.35830    0.19650    1.000
    C212     C        0.43230    0.31350    0.19180    1.000
    O50      O        0.41160    0.25200    0.20180    1.000
    C213     C        0.38250    0.32380    0.16620    1.000
    C214     C        0.40870    0.37910    0.14010    1.000
    H136     H        0.45750    0.40750    0.13650    1.000
    C215     C        0.36350    0.39280    0.11920    1.000
    H137     H        0.38210    0.43230    0.10200    1.000
    C216     C        0.26650    0.29270    0.14750    1.000
    H138     H        0.21790    0.26160    0.14990    1.000
    C217     C        0.31190    0.28020    0.16880    1.000
    H139     H        0.29430    0.24050    0.18580    1.000
    C218     C        0.29080    0.35070    0.12230    1.000
    C219     C        0.23770    0.36520    0.10230    1.000
    C220     C        0.25070    0.39180    0.06340    1.000
    H140     H        0.29230    0.40110    0.05010    1.000
    O51      O        0.32310    0.77620    0.86974    1.000
    C221     C        0.00240    0.57820    0.14200    1.000
    H141     H        0.98580    0.53030    0.13700    1.000
    C222     C        0.96700    0.60040    0.16660    1.000
    C223     C        0.14790    0.74830    0.10920    1.000
    C224     C        0.08380    0.69910    0.13060    1.000
    C225     C        0.16070    0.73330    0.07040    1.000
    H142     H        0.12610    0.69310    0.05680    1.000
    C226     C        0.99000    0.66910    0.17550    1.000
    H143     H        0.96490    0.68090    0.19400    1.000
    C227     C        0.05020    0.72140    0.15740    1.000
    H144     H        0.06720    0.76920    0.16290    1.000
    C228     C        0.06350    0.62990    0.12520    1.000
    H145     H        0.09170    0.61760    0.10980    1.000
    C229     C        0.18950    0.70440    0.98940    1.000
    H146     H        0.14960    0.66990    0.00330    1.000
    C230     C        0.20040    0.69320    0.95000    1.000
    H147     H        0.16720    0.65210    0.93660    1.000
    O52      O        0.88970    0.48110    0.18140    1.000
    C231     C        0.90500    0.54130    0.18680    1.000
    O53      O        0.86460    0.55460    0.20450    1.000
    C232     C        0.29140    0.81290    0.94390    1.000
    H148     H        0.33390    0.84550    0.93140    1.000
    C233     C        0.27630    0.82840    0.98170    1.000
    H149     H        0.30800    0.87160    0.99380    1.000
    O54      O        0.86630    0.50800    0.19650    1.000
    C234     C        0.88120    0.56770    0.19180    1.000
    O55      O        0.84040    0.58840    0.20180    1.000
    C235     C        0.94130    0.61750    0.16620    1.000
    C236     C        0.97040    0.59130    0.14010    1.000
    H150     H        0.95000    0.54250    0.13650    1.000
    C237     C        0.02930    0.63650    0.11920    1.000
    H151     H        0.05020    0.61790    0.10200    1.000
    C238     C        0.02620    0.73350    0.14750    1.000
    H152     H        0.04370    0.78210    0.14990    1.000
    C239     C        0.96830    0.68810    0.16880    1.000
    H153     H        0.94620    0.70570    0.18580    1.000
    C240     C        0.05990    0.70920    0.12230    1.000
    C241     C        0.12750    0.76230    0.10230    1.000
    C242     C        0.14110    0.74930    0.06340    1.000
    H154     H        0.10880    0.70770    0.05010    1.000
    O56      O        0.45310    0.67690    0.86974    1.000
    C243     C        0.57580    0.99760    0.14200    1.000
    H155     H        0.54450    0.01420    0.13700    1.000
    C244     C        0.63340    0.03300    0.16660    1.000
    C245     C        0.60040    0.85210    0.10920    1.000
    C246     C        0.61530    0.91620    0.13060    1.000
    C247     C        0.57260    0.83930    0.07040    1.000
    H156     H        0.56700    0.87390    0.05680    1.000
    C248     C        0.67910    0.01000    0.17550    1.000
    H157     H        0.71600    0.03510    0.19400    1.000
    C249     C        0.67120    0.94980    0.15740    1.000
    H158     H        0.70200    0.93280    0.16290    1.000
    C250     C        0.56640    0.93650    0.12520    1.000
    H159     H        0.52590    0.90830    0.10980    1.000
    C251     C        0.51490    0.81050    0.98940    1.000
    H160     H        0.52030    0.85040    0.00330    1.000
    C252     C        0.49280    0.79960    0.95000    1.000
    H161     H        0.48490    0.83280    0.93660    1.000
    O57      O        0.59140    0.11030    0.18140    1.000
    C253     C        0.63630    0.09500    0.18680    1.000
    O58      O        0.69000    0.13540    0.20450    1.000
    C254     C        0.52150    0.70860    0.94390    1.000
    H162     H        0.51160    0.66610    0.93140    1.000
    C255     C        0.55210    0.72370    0.98170    1.000
    H163     H        0.56360    0.69200    0.99380    1.000
    O59      O        0.64170    0.13370    0.19650    1.000
    C256     C        0.68650    0.11880    0.19180    1.000
    O60      O        0.74800    0.15960    0.20180    1.000
    C257     C        0.67620    0.05870    0.16620    1.000
    C258     C        0.62090    0.02960    0.14010    1.000
    H164     H        0.59250    0.05000    0.13650    1.000
    C259     C        0.60720    0.97070    0.11920    1.000
    H165     H        0.56770    0.94980    0.10200    1.000
    C260     C        0.70730    0.97380    0.14750    1.000
    H166     H        0.73840    0.95630    0.14990    1.000
    C261     C        0.71980    0.03170    0.16880    1.000
    H167     H        0.75950    0.05380    0.18580    1.000
    C262     C        0.64930    0.94010    0.12230    1.000
    C263     C        0.63480    0.87250    0.10230    1.000
    C264     C        0.60820    0.85890    0.06340    1.000
    H168     H        0.59890    0.89120    0.05010    1.000
    O61      O        0.54690    0.22380    0.36974    1.000
    C265     C        0.42420    0.42180    0.64200    1.000
    H169     H        0.45550    0.46970    0.63700    1.000
    C266     C        0.36660    0.39960    0.66660    1.000
    C267     C        0.39960    0.25170    0.60920    1.000
    C268     C        0.38470    0.30090    0.63060    1.000
    C269     C        0.42740    0.26670    0.57040    1.000
    H170     H        0.43300    0.30690    0.55680    1.000
    C270     C        0.32090    0.33090    0.67550    1.000
    H171     H        0.28400    0.31910    0.69400    1.000
    C271     C        0.32880    0.27860    0.65740    1.000
    H172     H        0.29800    0.23080    0.66290    1.000
    C272     C        0.43360    0.37010    0.62520    1.000
    H173     H        0.47410    0.38240    0.60980    1.000
    C273     C        0.48510    0.29560    0.48940    1.000
    H174     H        0.47970    0.33010    0.50330    1.000
    C274     C        0.50720    0.30680    0.45000    1.000
    H175     H        0.51510    0.34790    0.43660    1.000
    O62      O        0.40860    0.51890    0.68140    1.000
    C275     C        0.36370    0.45870    0.68680    1.000
    O63      O        0.31000    0.44540    0.70450    1.000
    C276     C        0.47850    0.18710    0.44390    1.000
    H176     H        0.48840    0.15450    0.43140    1.000
    C277     C        0.44790    0.17160    0.48170    1.000
    H177     H        0.43640    0.12840    0.49380    1.000
    O64      O        0.35830    0.49200    0.69650    1.000
    C278     C        0.31350    0.43230    0.69180    1.000
    O65      O        0.25200    0.41160    0.70180    1.000
    C279     C        0.32380    0.38250    0.66620    1.000
    C280     C        0.37910    0.40870    0.64010    1.000
    H178     H        0.40750    0.45750    0.63650    1.000
    C281     C        0.39280    0.36350    0.61920    1.000
    H179     H        0.43230    0.38210    0.60200    1.000
    C282     C        0.29270    0.26650    0.64750    1.000
    H180     H        0.26160    0.21790    0.64990    1.000
    C283     C        0.28020    0.31190    0.66880    1.000
    H181     H        0.24050    0.29430    0.68580    1.000
    C284     C        0.35070    0.29080    0.62230    1.000
    C285     C        0.36520    0.23770    0.60230    1.000
    C286     C        0.39180    0.25070    0.56340    1.000
    H182     H        0.40110    0.29230    0.55010    1.000
    O66      O        0.77620    0.32310    0.36974    1.000
    C287     C        0.57820    0.00240    0.64200    1.000
    H183     H        0.53030    0.98580    0.63700    1.000
    C288     C        0.60040    0.96700    0.66660    1.000
    C289     C        0.74830    0.14790    0.60920    1.000
    C290     C        0.69910    0.08380    0.63060    1.000
    C291     C        0.73330    0.16070    0.57040    1.000
    H184     H        0.69310    0.12610    0.55680    1.000
    C292     C        0.66910    0.99000    0.67550    1.000
    H185     H        0.68090    0.96490    0.69400    1.000
    C293     C        0.72140    0.05020    0.65740    1.000
    H186     H        0.76920    0.06720    0.66290    1.000
    C294     C        0.62990    0.06350    0.62520    1.000
    H187     H        0.61760    0.09170    0.60980    1.000
    C295     C        0.70440    0.18950    0.48940    1.000
    H188     H        0.66990    0.14960    0.50330    1.000
    C296     C        0.69320    0.20040    0.45000    1.000
    H189     H        0.65210    0.16720    0.43660    1.000
    O67      O        0.48110    0.88970    0.68140    1.000
    C297     C        0.54130    0.90500    0.68680    1.000
    O68      O        0.55460    0.86460    0.70450    1.000
    C298     C        0.81290    0.29140    0.44390    1.000
    H190     H        0.84550    0.33390    0.43140    1.000
    C299     C        0.82840    0.27630    0.48170    1.000
    H191     H        0.87160    0.30800    0.49380    1.000
    O69      O        0.50800    0.86630    0.69650    1.000
    C300     C        0.56770    0.88120    0.69180    1.000
    O70      O        0.58840    0.84040    0.70180    1.000
    C301     C        0.61750    0.94130    0.66620    1.000
    C302     C        0.59130    0.97040    0.64010    1.000
    H192     H        0.54250    0.95000    0.63650    1.000
    C303     C        0.63650    0.02930    0.61920    1.000
    H193     H        0.61790    0.05020    0.60200    1.000
    C304     C        0.73350    0.02620    0.64750    1.000
    H194     H        0.78210    0.04370    0.64990    1.000
    C305     C        0.68810    0.96830    0.66880    1.000
    H195     H        0.70570    0.94620    0.68580    1.000
    C306     C        0.70920    0.05990    0.62230    1.000
    C307     C        0.76230    0.12750    0.60230    1.000
    C308     C        0.74930    0.14110    0.56340    1.000
    H196     H        0.70770    0.10880    0.55010    1.000
    O71      O        0.67690    0.45310    0.36974    1.000
    C309     C        0.99760    0.57580    0.64200    1.000
    H197     H        0.01420    0.54450    0.63700    1.000
    C310     C        0.03300    0.63340    0.66660    1.000
    C311     C        0.85210    0.60040    0.60920    1.000
    C312     C        0.91620    0.61530    0.63060    1.000
    C313     C        0.83930    0.57260    0.57040    1.000
    H198     H        0.87390    0.56700    0.55680    1.000
    C314     C        0.01000    0.67910    0.67550    1.000
    H199     H        0.03510    0.71600    0.69400    1.000
    C315     C        0.94980    0.67120    0.65740    1.000
    H200     H        0.93280    0.70200    0.66290    1.000
    C316     C        0.93650    0.56640    0.62520    1.000
    H201     H        0.90830    0.52590    0.60980    1.000
    C317     C        0.81050    0.51490    0.48940    1.000
    H202     H        0.85040    0.52030    0.50330    1.000
    C318     C        0.79960    0.49280    0.45000    1.000
    H203     H        0.83280    0.48490    0.43660    1.000
    O72      O        0.11030    0.59140    0.68140    1.000
    C319     C        0.09500    0.63630    0.68680    1.000
    O73      O        0.13540    0.69000    0.70450    1.000
    C320     C        0.70860    0.52150    0.44390    1.000
    H204     H        0.66610    0.51160    0.43140    1.000
    C321     C        0.72370    0.55210    0.48170    1.000
    H205     H        0.69200    0.56360    0.49380    1.000
    O74      O        0.13370    0.64170    0.69650    1.000
    C322     C        0.11880    0.68650    0.69180    1.000
    O75      O        0.15960    0.74800    0.70180    1.000
    C323     C        0.05870    0.67620    0.66620    1.000
    C324     C        0.02960    0.62090    0.64010    1.000
    H206     H        0.05000    0.59250    0.63650    1.000
    C325     C        0.97070    0.60720    0.61920    1.000
    H207     H        0.94980    0.56770    0.60200    1.000
    C326     C        0.97380    0.70730    0.64750    1.000
    H208     H        0.95630    0.73840    0.64990    1.000
    C327     C        0.03170    0.71980    0.66880    1.000
    H209     H        0.05380    0.75950    0.68580    1.000
    C328     C        0.94010    0.64930    0.62230    1.000
    C329     C        0.87250    0.63480    0.60230    1.000
    C330     C        0.85890    0.60820    0.56340    1.000
    H210     H        0.89120    0.59890    0.55010    1.000
    O76      O        0.45310    0.77620    0.86974    1.000
    C331     C        0.57580    0.57820    0.14200    1.000
    H211     H        0.54450    0.53030    0.13700    1.000
    C332     C        0.63340    0.60040    0.16660    1.000
    C333     C        0.60040    0.74830    0.10920    1.000
    C334     C        0.61530    0.69910    0.13060    1.000
    C335     C        0.57260    0.73330    0.07040    1.000
    H212     H        0.56700    0.69310    0.05680    1.000
    C336     C        0.67910    0.66910    0.17550    1.000
    H213     H        0.71600    0.68090    0.19400    1.000
    C337     C        0.67120    0.72140    0.15740    1.000
    H214     H        0.70200    0.76920    0.16290    1.000
    C338     C        0.56640    0.62990    0.12520    1.000
    H215     H        0.52590    0.61760    0.10980    1.000
    C339     C        0.51490    0.70440    0.98940    1.000
    H216     H        0.52030    0.66990    0.00330    1.000
    C340     C        0.49280    0.69320    0.95000    1.000
    H217     H        0.48490    0.65210    0.93660    1.000
    O77      O        0.59140    0.48110    0.18140    1.000
    C341     C        0.63630    0.54130    0.18680    1.000
    O78      O        0.69000    0.55460    0.20450    1.000
    C342     C        0.52150    0.81290    0.94390    1.000
    H218     H        0.51160    0.84550    0.93140    1.000
    C343     C        0.55210    0.82840    0.98170    1.000
    H219     H        0.56360    0.87160    0.99380    1.000
    O79      O        0.64170    0.50800    0.19650    1.000
    C344     C        0.68650    0.56770    0.19180    1.000
    O80      O        0.74800    0.58840    0.20180    1.000
    C345     C        0.67620    0.61750    0.16620    1.000
    C346     C        0.62090    0.59130    0.14010    1.000
    H220     H        0.59250    0.54250    0.13650    1.000
    C347     C        0.60720    0.63650    0.11920    1.000
    H221     H        0.56770    0.61790    0.10200    1.000
    C348     C        0.70730    0.73350    0.14750    1.000
    H222     H        0.73840    0.78210    0.14990    1.000
    C349     C        0.71980    0.68810    0.16880    1.000
    H223     H        0.75950    0.70570    0.18580    1.000
    C350     C        0.64930    0.70920    0.12230    1.000
    C351     C        0.63480    0.76230    0.10230    1.000
    C352     C        0.60820    0.74930    0.06340    1.000
    H224     H        0.59890    0.70770    0.05010    1.000
    O81      O        0.22380    0.67690    0.86974    1.000
    C353     C        0.42180    0.99760    0.14200    1.000
    H225     H        0.46970    0.01420    0.13700    1.000
    C354     C        0.39960    0.03300    0.16660    1.000
    C355     C        0.25170    0.85210    0.10920    1.000
    C356     C        0.30090    0.91620    0.13060    1.000
    C357     C        0.26670    0.83930    0.07040    1.000
    H226     H        0.30690    0.87390    0.05680    1.000
    C358     C        0.33090    0.01000    0.17550    1.000
    H227     H        0.31910    0.03510    0.19400    1.000
    C359     C        0.27860    0.94980    0.15740    1.000
    H228     H        0.23080    0.93280    0.16290    1.000
    C360     C        0.37010    0.93650    0.12520    1.000
    H229     H        0.38240    0.90830    0.10980    1.000
    C361     C        0.29560    0.81050    0.98940    1.000
    H230     H        0.33010    0.85040    0.00330    1.000
    C362     C        0.30680    0.79960    0.95000    1.000
    H231     H        0.34790    0.83280    0.93660    1.000
    O82      O        0.51890    0.11030    0.18140    1.000
    C363     C        0.45870    0.09500    0.18680    1.000
    O83      O        0.44540    0.13540    0.20450    1.000
    C364     C        0.18710    0.70860    0.94390    1.000
    H232     H        0.15450    0.66610    0.93140    1.000
    C365     C        0.17160    0.72370    0.98170    1.000
    H233     H        0.12840    0.69200    0.99380    1.000
    O84      O        0.49200    0.13370    0.19650    1.000
    C366     C        0.43230    0.11880    0.19180    1.000
    O85      O        0.41160    0.15960    0.20180    1.000
    C367     C        0.38250    0.05870    0.16620    1.000
    C368     C        0.40870    0.02960    0.14010    1.000
    H234     H        0.45750    0.05000    0.13650    1.000
    C369     C        0.36350    0.97070    0.11920    1.000
    H235     H        0.38210    0.94980    0.10200    1.000
    C370     C        0.26650    0.97380    0.14750    1.000
    H236     H        0.21790    0.95630    0.14990    1.000
    C371     C        0.31190    0.03170    0.16880    1.000
    H237     H        0.29430    0.05380    0.18580    1.000
    C372     C        0.29080    0.94010    0.12230    1.000
    C373     C        0.23770    0.87250    0.10230    1.000
    C374     C        0.25070    0.85890    0.06340    1.000
    H238     H        0.29230    0.89120    0.05010    1.000
    O86      O        0.32310    0.54690    0.86974    1.000
    C375     C        0.00240    0.42420    0.14200    1.000
    H239     H        0.98580    0.45550    0.13700    1.000
    C376     C        0.96700    0.36660    0.16660    1.000
    C377     C        0.14790    0.39960    0.10920    1.000
    C378     C        0.08380    0.38470    0.13060    1.000
    C379     C        0.16070    0.42740    0.07040    1.000
    H240     H        0.12610    0.43300    0.05680    1.000
    C380     C        0.99000    0.32090    0.17550    1.000
    H241     H        0.96490    0.28400    0.19400    1.000
    C381     C        0.05020    0.32880    0.15740    1.000
    H242     H        0.06720    0.29800    0.16290    1.000
    C382     C        0.06350    0.43360    0.12520    1.000
    H243     H        0.09170    0.47410    0.10980    1.000
    C383     C        0.18950    0.48510    0.98940    1.000
    H244     H        0.14960    0.47970    0.00330    1.000
    C384     C        0.20040    0.50720    0.95000    1.000
    H245     H        0.16720    0.51510    0.93660    1.000
    O87      O        0.88970    0.40860    0.18140    1.000
    C385     C        0.90500    0.36370    0.18680    1.000
    O88      O        0.86460    0.31000    0.20450    1.000
    C386     C        0.29140    0.47850    0.94390    1.000
    H246     H        0.33390    0.48840    0.93140    1.000
    C387     C        0.27630    0.44790    0.98170    1.000
    H247     H        0.30800    0.43640    0.99380    1.000
    O89      O        0.86630    0.35830    0.19650    1.000
    C388     C        0.88120    0.31350    0.19180    1.000
    O90      O        0.84040    0.25200    0.20180    1.000
    C389     C        0.94130    0.32380    0.16620    1.000
    C390     C        0.97040    0.37910    0.14010    1.000
    H248     H        0.95000    0.40750    0.13650    1.000
    C391     C        0.02930    0.39280    0.11920    1.000
    H249     H        0.05020    0.43230    0.10200    1.000
    C392     C        0.02620    0.29270    0.14750    1.000
    H250     H        0.04370    0.26160    0.14990    1.000
    C393     C        0.96830    0.28020    0.16880    1.000
    H251     H        0.94620    0.24050    0.18580    1.000
    C394     C        0.05990    0.35070    0.12230    1.000
    C395     C        0.12750    0.36520    0.10230    1.000
    C396     C        0.14110    0.39180    0.06340    1.000
    H252     H        0.10880    0.40110    0.05010    1.000
    O91      O        0.22380    0.54690    0.63026    1.000
    C397     C        0.42180    0.42420    0.35800    1.000
    H253     H        0.46970    0.45550    0.36300    1.000
    C398     C        0.39960    0.36660    0.33340    1.000
    C399     C        0.25170    0.39960    0.39080    1.000
    C400     C        0.30090    0.38470    0.36940    1.000
    C401     C        0.26670    0.42740    0.42960    1.000
    H254     H        0.30690    0.43300    0.44320    1.000
    C402     C        0.33090    0.32090    0.32450    1.000
    H255     H        0.31910    0.28400    0.30600    1.000
    C403     C        0.27860    0.32880    0.34260    1.000
    H256     H        0.23080    0.29800    0.33710    1.000
    C404     C        0.37010    0.43360    0.37480    1.000
    H257     H        0.38240    0.47410    0.39020    1.000
    C405     C        0.29560    0.48510    0.51060    1.000
    H258     H        0.33010    0.47970    0.49670    1.000
    C406     C        0.30680    0.50720    0.55000    1.000
    H259     H        0.34790    0.51510    0.56340    1.000
    O92      O        0.51890    0.40860    0.31860    1.000
    C407     C        0.45870    0.36370    0.31320    1.000
    O93      O        0.44540    0.31000    0.29550    1.000
    C408     C        0.18710    0.47850    0.55610    1.000
    H260     H        0.15450    0.48840    0.56860    1.000
    C409     C        0.17160    0.44790    0.51830    1.000
    H261     H        0.12840    0.43640    0.50620    1.000
    O94      O        0.49200    0.35830    0.30350    1.000
    C410     C        0.43230    0.31350    0.30820    1.000
    O95      O        0.41160    0.25200    0.29820    1.000
    C411     C        0.38250    0.32380    0.33380    1.000
    C412     C        0.40870    0.37910    0.35990    1.000
    H262     H        0.45750    0.40750    0.36350    1.000
    C413     C        0.36350    0.39280    0.38080    1.000
    H263     H        0.38210    0.43230    0.39800    1.000
    C414     C        0.26650    0.29270    0.35250    1.000
    H264     H        0.21790    0.26160    0.35010    1.000
    C415     C        0.31190    0.28020    0.33120    1.000
    H265     H        0.29430    0.24050    0.31420    1.000
    C416     C        0.29080    0.35070    0.37770    1.000
    C417     C        0.23770    0.36520    0.39770    1.000
    C418     C        0.25070    0.39180    0.43660    1.000
    H266     H        0.29230    0.40110    0.44990    1.000
    O96      O        0.32310    0.77620    0.63026    1.000
    C419     C        0.00240    0.57820    0.35800    1.000
    H267     H        0.98580    0.53030    0.36300    1.000
    C420     C        0.96700    0.60040    0.33340    1.000
    C421     C        0.14790    0.74830    0.39080    1.000
    C422     C        0.08380    0.69910    0.36940    1.000
    C423     C        0.16070    0.73330    0.42960    1.000
    H268     H        0.12610    0.69310    0.44320    1.000
    C424     C        0.99000    0.66910    0.32450    1.000
    H269     H        0.96490    0.68090    0.30600    1.000
    C425     C        0.05020    0.72140    0.34260    1.000
    H270     H        0.06720    0.76920    0.33710    1.000
    C426     C        0.06350    0.62990    0.37480    1.000
    H271     H        0.09170    0.61760    0.39020    1.000
    C427     C        0.18950    0.70440    0.51060    1.000
    H272     H        0.14960    0.66990    0.49670    1.000
    C428     C        0.20040    0.69320    0.55000    1.000
    H273     H        0.16720    0.65210    0.56340    1.000
    O97      O        0.88970    0.48110    0.31860    1.000
    C429     C        0.90500    0.54130    0.31320    1.000
    O98      O        0.86460    0.55460    0.29550    1.000
    C430     C        0.29140    0.81290    0.55610    1.000
    H274     H        0.33390    0.84550    0.56860    1.000
    C431     C        0.27630    0.82840    0.51830    1.000
    H275     H        0.30800    0.87160    0.50620    1.000
    O99      O        0.86630    0.50800    0.30350    1.000
    C432     C        0.88120    0.56770    0.30820    1.000
    O100     O        0.84040    0.58840    0.29820    1.000
    C433     C        0.94130    0.61750    0.33380    1.000
    C434     C        0.97040    0.59130    0.35990    1.000
    H276     H        0.95000    0.54250    0.36350    1.000
    C435     C        0.02930    0.63650    0.38080    1.000
    H277     H        0.05020    0.61790    0.39800    1.000
    C436     C        0.02620    0.73350    0.35250    1.000
    H278     H        0.04370    0.78210    0.35010    1.000
    C437     C        0.96830    0.68810    0.33120    1.000
    H279     H        0.94620    0.70570    0.31420    1.000
    C438     C        0.05990    0.70920    0.37770    1.000
    C439     C        0.12750    0.76230    0.39770    1.000
    C440     C        0.14110    0.74930    0.43660    1.000
    H280     H        0.10880    0.70770    0.44990    1.000
    O101     O        0.45310    0.67690    0.63026    1.000
    C441     C        0.57580    0.99760    0.35800    1.000
    H281     H        0.54450    0.01420    0.36300    1.000
    C442     C        0.63340    0.03300    0.33340    1.000
    C443     C        0.60040    0.85210    0.39080    1.000
    C444     C        0.61530    0.91620    0.36940    1.000
    C445     C        0.57260    0.83930    0.42960    1.000
    H282     H        0.56700    0.87390    0.44320    1.000
    C446     C        0.67910    0.01000    0.32450    1.000
    H283     H        0.71600    0.03510    0.30600    1.000
    C447     C        0.67120    0.94980    0.34260    1.000
    H284     H        0.70200    0.93280    0.33710    1.000
    C448     C        0.56640    0.93650    0.37480    1.000
    H285     H        0.52590    0.90830    0.39020    1.000
    C449     C        0.51490    0.81050    0.51060    1.000
    H286     H        0.52030    0.85040    0.49670    1.000
    C450     C        0.49280    0.79960    0.55000    1.000
    H287     H        0.48490    0.83280    0.56340    1.000
    O102     O        0.59140    0.11030    0.31860    1.000
    C451     C        0.63630    0.09500    0.31320    1.000
    O103     O        0.69000    0.13540    0.29550    1.000
    C452     C        0.52150    0.70860    0.55610    1.000
    H288     H        0.51160    0.66610    0.56860    1.000
    C453     C        0.55210    0.72370    0.51830    1.000
    H289     H        0.56360    0.69200    0.50620    1.000
    O104     O        0.64170    0.13370    0.30350    1.000
    C454     C        0.68650    0.11880    0.30820    1.000
    O105     O        0.74800    0.15960    0.29820    1.000
    C455     C        0.67620    0.05870    0.33380    1.000
    C456     C        0.62090    0.02960    0.35990    1.000
    H290     H        0.59250    0.05000    0.36350    1.000
    C457     C        0.60720    0.97070    0.38080    1.000
    H291     H        0.56770    0.94980    0.39800    1.000
    C458     C        0.70730    0.97380    0.35250    1.000
    H292     H        0.73840    0.95630    0.35010    1.000
    C459     C        0.71980    0.03170    0.33120    1.000
    H293     H        0.75950    0.05380    0.31420    1.000
    C460     C        0.64930    0.94010    0.37770    1.000
    C461     C        0.63480    0.87250    0.39770    1.000
    C462     C        0.60820    0.85890    0.43660    1.000
    H294     H        0.59890    0.89120    0.44990    1.000
    O106     O        0.77620    0.45310    0.13026    1.000
    C463     C        0.57820    0.57580    0.85800    1.000
    H295     H        0.53030    0.54450    0.86300    1.000
    C464     C        0.60040    0.63340    0.83340    1.000
    C465     C        0.74830    0.60040    0.89080    1.000
    C466     C        0.69910    0.61530    0.86940    1.000
    C467     C        0.73330    0.57260    0.92960    1.000
    H296     H        0.69310    0.56700    0.94320    1.000
    C468     C        0.66910    0.67910    0.82450    1.000
    H297     H        0.68090    0.71600    0.80600    1.000
    C469     C        0.72140    0.67120    0.84260    1.000
    H298     H        0.76920    0.70200    0.83710    1.000
    C470     C        0.62990    0.56640    0.87480    1.000
    H299     H        0.61760    0.52590    0.89020    1.000
    C471     C        0.70440    0.51490    0.01060    1.000
    H300     H        0.66990    0.52030    0.99670    1.000
    C472     C        0.69320    0.49280    0.05000    1.000
    H301     H        0.65210    0.48490    0.06340    1.000
    O107     O        0.48110    0.59140    0.81860    1.000
    C473     C        0.54130    0.63630    0.81320    1.000
    O108     O        0.55460    0.69000    0.79550    1.000
    C474     C        0.81290    0.52150    0.05610    1.000
    H302     H        0.84550    0.51160    0.06860    1.000
    C475     C        0.82840    0.55210    0.01830    1.000
    H303     H        0.87160    0.56360    0.00620    1.000
    O109     O        0.50800    0.64170    0.80350    1.000
    C476     C        0.56770    0.68650    0.80820    1.000
    O110     O        0.58840    0.74800    0.79820    1.000
    C477     C        0.61750    0.67620    0.83380    1.000
    C478     C        0.59130    0.62090    0.85990    1.000
    H304     H        0.54250    0.59250    0.86350    1.000
    C479     C        0.63650    0.60720    0.88080    1.000
    H305     H        0.61790    0.56770    0.89800    1.000
    C480     C        0.73350    0.70730    0.85250    1.000
    H306     H        0.78210    0.73840    0.85010    1.000
    C481     C        0.68810    0.71980    0.83120    1.000
    H307     H        0.70570    0.75950    0.81420    1.000
    C482     C        0.70920    0.64930    0.87770    1.000
    C483     C        0.76230    0.63480    0.89770    1.000
    C484     C        0.74930    0.60820    0.93660    1.000
    H308     H        0.70770    0.59890    0.94990    1.000
    O111     O        0.67690    0.22380    0.13026    1.000
    C485     C        0.99760    0.42180    0.85800    1.000
    H309     H        0.01420    0.46970    0.86300    1.000
    C486     C        0.03300    0.39960    0.83340    1.000
    C487     C        0.85210    0.25170    0.89080    1.000
    C488     C        0.91620    0.30090    0.86940    1.000
    C489     C        0.83930    0.26670    0.92960    1.000
    H310     H        0.87390    0.30690    0.94320    1.000
    C490     C        0.01000    0.33090    0.82450    1.000
    H311     H        0.03510    0.31910    0.80600    1.000
    C491     C        0.94980    0.27860    0.84260    1.000
    H312     H        0.93280    0.23080    0.83710    1.000
    C492     C        0.93650    0.37010    0.87480    1.000
    H313     H        0.90830    0.38240    0.89020    1.000
    C493     C        0.81050    0.29560    0.01060    1.000
    H314     H        0.85040    0.33010    0.99670    1.000
    C494     C        0.79960    0.30680    0.05000    1.000
    H315     H        0.83280    0.34790    0.06340    1.000
    O112     O        0.11030    0.51890    0.81860    1.000
    C495     C        0.09500    0.45870    0.81320    1.000
    O113     O        0.13540    0.44540    0.79550    1.000
    C496     C        0.70860    0.18710    0.05610    1.000
    H316     H        0.66610    0.15450    0.06860    1.000
    C497     C        0.72370    0.17160    0.01830    1.000
    H317     H        0.69200    0.12840    0.00620    1.000
    O114     O        0.13370    0.49200    0.80350    1.000
    C498     C        0.11880    0.43230    0.80820    1.000
    O115     O        0.15960    0.41160    0.79820    1.000
    C499     C        0.05870    0.38250    0.83380    1.000
    C500     C        0.02960    0.40870    0.85990    1.000
    H318     H        0.05000    0.45750    0.86350    1.000
    C501     C        0.97070    0.36350    0.88080    1.000
    H319     H        0.94980    0.38210    0.89800    1.000
    C502     C        0.97380    0.26650    0.85250    1.000
    H320     H        0.95630    0.21790    0.85010    1.000
    C503     C        0.03170    0.31190    0.83120    1.000
    H321     H        0.05380    0.29430    0.81420    1.000
    C504     C        0.94010    0.29080    0.87770    1.000
    C505     C        0.87250    0.23770    0.89770    1.000
    C506     C        0.85890    0.25070    0.93660    1.000
    H322     H        0.89120    0.29230    0.94990    1.000
    O116     O        0.54690    0.32310    0.13026    1.000
    C507     C        0.42420    0.00240    0.85800    1.000
    H323     H        0.45550    0.98580    0.86300    1.000
    C508     C        0.36660    0.96700    0.83340    1.000
    C509     C        0.39960    0.14790    0.89080    1.000
    C510     C        0.38470    0.08380    0.86940    1.000
    C511     C        0.42740    0.16070    0.92960    1.000
    H324     H        0.43300    0.12610    0.94320    1.000
    C512     C        0.32090    0.99000    0.82450    1.000
    H325     H        0.28400    0.96490    0.80600    1.000
    C513     C        0.32880    0.05020    0.84260    1.000
    H326     H        0.29800    0.06720    0.83710    1.000
    C514     C        0.43360    0.06350    0.87480    1.000
    H327     H        0.47410    0.09170    0.89020    1.000
    C515     C        0.48510    0.18950    0.01060    1.000
    H328     H        0.47970    0.14960    0.99670    1.000
    C516     C        0.50720    0.20040    0.05000    1.000
    H329     H        0.51510    0.16720    0.06340    1.000
    O117     O        0.40860    0.88970    0.81860    1.000
    C517     C        0.36370    0.90500    0.81320    1.000
    O118     O        0.31000    0.86460    0.79550    1.000
    C518     C        0.47850    0.29140    0.05610    1.000
    H330     H        0.48840    0.33390    0.06860    1.000
    C519     C        0.44790    0.27630    0.01830    1.000
    H331     H        0.43640    0.30800    0.00620    1.000
    O119     O        0.35830    0.86630    0.80350    1.000
    C520     C        0.31350    0.88120    0.80820    1.000
    O120     O        0.25200    0.84040    0.79820    1.000
    C521     C        0.32380    0.94130    0.83380    1.000
    C522     C        0.37910    0.97040    0.85990    1.000
    H332     H        0.40750    0.95000    0.86350    1.000
    C523     C        0.39280    0.02930    0.88080    1.000
    H333     H        0.43230    0.05020    0.89800    1.000
    C524     C        0.29270    0.02620    0.85250    1.000
    H334     H        0.26160    0.04370    0.85010    1.000
    C525     C        0.28020    0.96830    0.83120    1.000
    H335     H        0.24050    0.94620    0.81420    1.000
    C526     C        0.35070    0.05990    0.87770    1.000
    C527     C        0.36520    0.12750    0.89770    1.000
    C528     C        0.39180    0.14110    0.93660    1.000
    H336     H        0.40110    0.10880    0.94990    1.000
    Y1       Y        0.60919    0.39081    0.31539    1.000
    Y2       Y        0.60919    0.21838    0.31539    1.000
    Y3       Y        0.78162    0.39081    0.31539    1.000
    Y4       Y        0.39081    0.60919    0.81539    1.000
    Y5       Y        0.39081    0.78162    0.81539    1.000
    Y6       Y        0.21838    0.60919    0.81539    1.000
    Y7       Y        0.39081    0.60919    0.68461    1.000
    Y8       Y        0.21838    0.60919    0.68461    1.000
    Y9       Y        0.39081    0.78162    0.68461    1.000
    Y10      Y        0.60919    0.39081    0.18461    1.000
    Y11      Y        0.78162    0.39081    0.18461    1.000
    Y12      Y        0.60919    0.21838    0.18461    1.000
    O121     O        0.59994    0.40006    0.25000    1.000
    O122     O        0.59994    0.19988    0.25000    1.000
    O123     O        0.80012    0.40006    0.25000    1.000
    O124     O        0.40006    0.59994    0.75000    1.000
    O125     O        0.40006    0.80012    0.75000    1.000
    O126     O        0.19988    0.59994    0.75000    1.000
    O127     O        0.72255    0.44510    0.29076    1.000
    O128     O        0.55490    0.27745    0.29076    1.000
    O129     O        0.72255    0.27745    0.29076    1.000
    O130     O        0.27745    0.55490    0.79076    1.000
    O131     O        0.44510    0.72255    0.79076    1.000
    O132     O        0.27745    0.72255    0.79076    1.000
    O133     O        0.44510    0.72255    0.70924    1.000
    O134     O        0.27745    0.55490    0.70924    1.000
    O135     O        0.27745    0.72255    0.70924    1.000
    O136     O        0.55490    0.27745    0.20924    1.000
    O137     O        0.72255    0.44510    0.20924    1.000
    O138     O        0.72255    0.27745    0.20924    1.000
    C529     C        0.48210    0.74105    0.56990    1.000
    C530     C        0.45770    0.72885    0.61260    1.000
    C531     C        0.61910    0.80955    0.37090    1.000
    H337     H        0.64280    0.82140    0.34580    1.000
    C532     C        0.55320    0.77660    0.44860    1.000
    C533     C        0.52930    0.76465    0.49100    1.000
    C534     C        0.59500    0.79750    0.45610    1.000
    C535     C        0.56640    0.78320    0.49780    1.000
    C536     C        0.64930    0.82465    0.37920    1.000
    H338     H        0.66960    0.83480    0.35310    1.000
    C537     C        0.50460    0.75230    0.57640    1.000
    C538     C        0.47280    0.73640    0.61690    1.000
    C539     C        0.25895    0.74105    0.56990    1.000
    C540     C        0.27115    0.72885    0.61260    1.000
    C541     C        0.19045    0.80955    0.37090    1.000
    H339     H        0.17860    0.82140    0.34580    1.000
    C542     C        0.22340    0.77660    0.44860    1.000
    C543     C        0.23535    0.76465    0.49100    1.000
    C544     C        0.20250    0.79750    0.45610    1.000
    C545     C        0.21680    0.78320    0.49780    1.000
    C546     C        0.17535    0.82465    0.37920    1.000
    H340     H        0.16520    0.83480    0.35310    1.000
    C547     C        0.24770    0.75230    0.57640    1.000
    C548     C        0.26360    0.73640    0.61690    1.000
    C549     C        0.25895    0.51790    0.56990    1.000
    C550     C        0.27115    0.54230    0.61260    1.000
    C551     C        0.19045    0.38090    0.37090    1.000
    H341     H        0.17860    0.35720    0.34580    1.000
    C552     C        0.22340    0.44680    0.44860    1.000
    C553     C        0.23535    0.47070    0.49100    1.000
    C554     C        0.20250    0.40500    0.45610    1.000
    C555     C        0.21680    0.43360    0.49780    1.000
    C556     C        0.17535    0.35070    0.37920    1.000
    H342     H        0.16520    0.33040    0.35310    1.000
    C557     C        0.24770    0.49540    0.57640    1.000
    C558     C        0.26360    0.52720    0.61690    1.000
    C559     C        0.51790    0.25895    0.06990    1.000
    C560     C        0.54230    0.27115    0.11260    1.000
    C561     C        0.38090    0.19045    0.87090    1.000
    H343     H        0.35720    0.17860    0.84580    1.000
    C562     C        0.44680    0.22340    0.94860    1.000
    C563     C        0.47070    0.23535    0.99100    1.000
    C564     C        0.40500    0.20250    0.95610    1.000
    C565     C        0.43360    0.21680    0.99780    1.000
    C566     C        0.35070    0.17535    0.87920    1.000
    H344     H        0.33040    0.16520    0.85310    1.000
    C567     C        0.49540    0.24770    0.07640    1.000
    C568     C        0.52720    0.26360    0.11690    1.000
    C569     C        0.74105    0.25895    0.06990    1.000
    C570     C        0.72885    0.27115    0.11260    1.000
    C571     C        0.80955    0.19045    0.87090    1.000
    H345     H        0.82140    0.17860    0.84580    1.000
    C572     C        0.77660    0.22340    0.94860    1.000
    C573     C        0.76465    0.23535    0.99100    1.000
    C574     C        0.79750    0.20250    0.95610    1.000
    C575     C        0.78320    0.21680    0.99780    1.000
    C576     C        0.82465    0.17535    0.87920    1.000
    H346     H        0.83480    0.16520    0.85310    1.000
    C577     C        0.75230    0.24770    0.07640    1.000
    C578     C        0.73640    0.26360    0.11690    1.000
    C579     C        0.74105    0.48210    0.06990    1.000
    C580     C        0.72885    0.45770    0.11260    1.000
    C581     C        0.80955    0.61910    0.87090    1.000
    H347     H        0.82140    0.64280    0.84580    1.000
    C582     C        0.77660    0.55320    0.94860    1.000
    C583     C        0.76465    0.52930    0.99100    1.000
    C584     C        0.79750    0.59500    0.95610    1.000
    C585     C        0.78320    0.56640    0.99780    1.000
    C586     C        0.82465    0.64930    0.87920    1.000
    H348     H        0.83480    0.66960    0.85310    1.000
    C587     C        0.75230    0.50460    0.07640    1.000
    C588     C        0.73640    0.47280    0.11690    1.000
    C589     C        0.74105    0.48210    0.43010    1.000
    C590     C        0.72885    0.45770    0.38740    1.000
    C591     C        0.80955    0.61910    0.62910    1.000
    H349     H        0.82140    0.64280    0.65420    1.000
    C592     C        0.77660    0.55320    0.55140    1.000
    C593     C        0.76465    0.52930    0.50900    1.000
    C594     C        0.79750    0.59500    0.54390    1.000
    C595     C        0.78320    0.56640    0.50220    1.000
    C596     C        0.82465    0.64930    0.62080    1.000
    H350     H        0.83480    0.66960    0.64690    1.000
    C597     C        0.75230    0.50460    0.42360    1.000
    C598     C        0.73640    0.47280    0.38310    1.000
    C599     C        0.74105    0.25895    0.43010    1.000
    C600     C        0.72885    0.27115    0.38740    1.000
    C601     C        0.80955    0.19045    0.62910    1.000
    H351     H        0.82140    0.17860    0.65420    1.000
    C602     C        0.77660    0.22340    0.55140    1.000
    C603     C        0.76465    0.23535    0.50900    1.000
    C604     C        0.79750    0.20250    0.54390    1.000
    C605     C        0.78320    0.21680    0.50220    1.000
    C606     C        0.82465    0.17535    0.62080    1.000
    H352     H        0.83480    0.16520    0.64690    1.000
    C607     C        0.75230    0.24770    0.42360    1.000
    C608     C        0.73640    0.26360    0.38310    1.000
    C609     C        0.51790    0.25895    0.43010    1.000
    C610     C        0.54230    0.27115    0.38740    1.000
    C611     C        0.38090    0.19045    0.62910    1.000
    H353     H        0.35720    0.17860    0.65420    1.000
    C612     C        0.44680    0.22340    0.55140    1.000
    C613     C        0.47070    0.23535    0.50900    1.000
    C614     C        0.40500    0.20250    0.54390    1.000
    C615     C        0.43360    0.21680    0.50220    1.000
    C616     C        0.35070    0.17535    0.62080    1.000
    H354     H        0.33040    0.16520    0.64690    1.000
    C617     C        0.49540    0.24770    0.42360    1.000
    C618     C        0.52720    0.26360    0.38310    1.000
    C619     C        0.25895    0.51790    0.93010    1.000
    C620     C        0.27115    0.54230    0.88740    1.000
    C621     C        0.19045    0.38090    0.12910    1.000
    H355     H        0.17860    0.35720    0.15420    1.000
    C622     C        0.22340    0.44680    0.05140    1.000
    C623     C        0.23535    0.47070    0.00900    1.000
    C624     C        0.20250    0.40500    0.04390    1.000
    C625     C        0.21680    0.43360    0.00220    1.000
    C626     C        0.17535    0.35070    0.12080    1.000
    H356     H        0.16520    0.33040    0.14690    1.000
    C627     C        0.24770    0.49540    0.92360    1.000
    C628     C        0.26360    0.52720    0.88310    1.000
    C629     C        0.25895    0.74105    0.93010    1.000
    C630     C        0.27115    0.72885    0.88740    1.000
    C631     C        0.19045    0.80955    0.12910    1.000
    H357     H        0.17860    0.82140    0.15420    1.000
    C632     C        0.22340    0.77660    0.05140    1.000
    C633     C        0.23535    0.76465    0.00900    1.000
    C634     C        0.20250    0.79750    0.04390    1.000
    C635     C        0.21680    0.78320    0.00220    1.000
    C636     C        0.17535    0.82465    0.12080    1.000
    H358     H        0.16520    0.83480    0.14690    1.000
    C637     C        0.24770    0.75230    0.92360    1.000
    C638     C        0.26360    0.73640    0.88310    1.000
    C639     C        0.48210    0.74105    0.93010    1.000
    C640     C        0.45770    0.72885    0.88740    1.000
    C641     C        0.61910    0.80955    0.12910    1.000
    H359     H        0.64280    0.82140    0.15420    1.000
    C642     C        0.55320    0.77660    0.05140    1.000
    C643     C        0.52930    0.76465    0.00900    1.000
    C644     C        0.59500    0.79750    0.04390    1.000
    C645     C        0.56640    0.78320    0.00220    1.000
    C646     C        0.64930    0.82465    0.12080    1.000
    H360     H        0.66960    0.83480    0.14690    1.000
    C647     C        0.50460    0.75230    0.92360    1.000
    C648     C        0.47280    0.73640    0.88310    1.000
    O139     O        0.66667    0.33333    0.32940    1.000
    O140     O        0.33333    0.66667    0.82940    1.000
    O141     O        0.33333    0.66667    0.67060    1.000
    O142     O        0.66667    0.33333    0.17060    1.000
    Y13      Y        0.75910    0.53721    0.25000    1.000
    Y14      Y        0.46279    0.22189    0.25000    1.000
    Y15      Y        0.77811    0.24090    0.25000    1.000
    Y16      Y        0.24090    0.46279    0.75000    1.000
    Y17      Y        0.53721    0.77811    0.75000    1.000
    Y18      Y        0.22189    0.75910    0.75000    1.000
    Y19      Y        0.53721    0.75910    0.75000    1.000
    Y20      Y        0.22189    0.46279    0.75000    1.000
    Y21      Y        0.24090    0.77811    0.75000    1.000
    Y22      Y        0.46279    0.24090    0.25000    1.000
    Y23      Y        0.77811    0.53721    0.25000    1.000
    Y24      Y        0.75910    0.22189    0.25000    1.000
