data_functionalizedCrystal
_audit_creation_method	'EQeq! by Chris Wilmer'
_symmetry_space_group_name_H-M	'P1'
_symmetry_Int_Tables_number	1
_symmetry_cell_setting	triclinic
loop_
_symmetry_equiv_pos_as_xyz
  x,y,z
_cell_length_a	15.747
_cell_length_b	22.8979
_cell_length_c	22.8979
_cell_angle_alpha	83.2098
_cell_angle_beta	69.8882
_cell_angle_gamma	69.8882
loop_
_atom_site_label
_atom_site_type_symbol
_atom_site_fract_x
_atom_site_fract_y
_atom_site_fract_z
_atom_site_charge
Mof_Gd	Gd	0.58828	0.25325	0.20678	1.664
Mof_Gd	Gd	0.34075	0.25107	0.19375	1.836
Mof_Gd	Gd	0.04831	0.74675	0.79322	1.62
Mof_Gd	Gd	0.78557	0.74893	0.80625	1.845
Mof_Gd	Gd	0.04506	0.29322	0.75325	1.61
Mof_Gd	Gd	0.7845	0.30625	0.75107	1.84
Mof_Gd	Gd	0.09153	0.70678	0.24675	1.639
Mof_Gd	Gd	0.84182	0.69375	0.24893	1.846
Mof_Gd	Gd	0.54831	0.79322	0.74675	1.663
Mof_Gd	Gd	0.28557	0.80625	0.74893	1.836
Mof_Gd	Gd	0.08828	0.20678	0.25325	1.63
Mof_Gd	Gd	0.84075	0.19375	0.25107	1.855
Mof_Gd	Gd	0.59153	0.24675	0.70678	1.665
Mof_Gd	Gd	0.34182	0.24893	0.69375	1.837
Mof_Gd	Gd	0.54506	0.75325	0.29322	1.663
Mof_Gd	Gd	0.2845	0.75107	0.30625	1.837
Mof_H 	H 	0.5929	0.3222	0.9992	0.05
Mof_H 	H 	0.6106	0.3169	0.8943	0.032
Mof_H 	H 	0.5623	0.1309	0.8761	0.095
Mof_H 	H 	0.5283	0.0539	0.9439	0.031
Mof_H 	H 	0.5217	0.0569	0.0461	0.049
Mof_H 	H 	0.5402	0.1379	0.0823	0.059
Mof_H 	H 	0.264	0.2955	0.5077	0.055
Mof_H 	H 	0.2689	0.2946	0.406	0.027
Mof_H 	H 	0.513	0.1177	0.3209	0.057
Mof_H 	H 	0.6132	0.0377	0.3571	0.038
Mof_H 	H 	0.6035	0.0294	0.4606	0.043
Mof_H 	H 	0.4959	0.1093	0.5277	0.08
Mof_H 	H 	0.4534	0.4507	0.1753	0.03
Mof_H 	H 	0.4221	0.5534	0.1952	0.036
Mof_H 	H 	0.1785	0.5911	0.3823	0.048
Mof_H 	H 	0.0887	0.5365	0.4499	0.036
Mof_H 	H 	0.1138	0.4339	0.4257	0.03
Mof_H 	H 	0.2335	0.387	0.3372	0.082
Mof_H 	H 	0.9143	0.6778	0.0008	0.056
Mof_H 	H 	0.8218	0.6831	0.1057	0.033
Mof_H 	H 	0.5693	0.8691	0.1239	0.088
Mof_H 	H 	0.5261	0.9461	0.0561	0.039
Mof_H 	H 	0.6247	0.9431	0.9539	0.04
Mof_H 	H 	0.7604	0.8621	0.9177	0.066
Mof_H 	H 	0.0672	0.7045	0.4923	0.052
Mof_H 	H 	0.9695	0.7054	0.594	0.037
Mof_H 	H 	0.9516	0.8823	0.6791	-0.002
Mof_H 	H 	0.008	0.9623	0.6429	0.091
Mof_H 	H 	0.0935	0.9706	0.5394	-0.003
Mof_H 	H 	0.1329	0.8907	0.4723	0.111
Mof_H 	H 	0.0794	0.5493	0.8247	0.032
Mof_H 	H 	0.1707	0.4466	0.8048	0.025
Mof_H 	H 	0.1519	0.4089	0.6177	0.087
Mof_H 	H 	0.0751	0.4635	0.5501	-0.015
Mof_H 	H 	0.9734	0.5661	0.5743	0.125
Mof_H 	H 	0.9577	0.613	0.6628	0.022
Mof_H 	H 	0.8421	0.5008	0.8222	0.054
Mof_H 	H 	0.7549	0.6057	0.8169	0.032
Mof_H 	H 	0.6884	0.6239	0.6309	0.091
Mof_H 	H 	0.7222	0.5561	0.5539	0.036
Mof_H 	H 	0.8178	0.4539	0.5569	0.045
Mof_H 	H 	0.8725	0.4177	0.6379	0.065
Mof_H 	H 	0.0217	0.9923	0.7955	0.088
Mof_H 	H 	0.9249	0.094	0.7946	-0.016
Mof_H 	H 	0.0839	0.1791	0.6177	0.071
Mof_H 	H 	0.2203	0.1429	0.5377	0.02
Mof_H 	H 	0.3141	0.0394	0.5294	0.058
Mof_H 	H 	0.2736	0.9723	0.6093	0.063
Mof_H 	H 	0.8787	0.3247	0.9507	0.029
Mof_H 	H 	0.8673	0.3048	0.0534	0.044
Mof_H 	H 	0.8108	0.1177	0.0911	0.045
Mof_H 	H 	0.7886	0.0501	0.0365	0.05
Mof_H 	H 	0.7895	0.0743	0.9339	0.028
Mof_H 	H 	0.8207	0.1628	0.887	0.091
Mof_H 	H 	0.1651	0.4992	0.1778	0.03
Mof_H 	H 	0.1775	0.3943	0.1831	0.05
Mof_H 	H 	0.9432	0.3761	0.3691	0.061
Mof_H 	H 	0.8322	0.4439	0.4461	0.068
Mof_H 	H 	0.8286	0.5461	0.4431	0.013
Mof_H 	H 	0.9281	0.5823	0.3621	0.097
Mof_H 	H 	0.8095	0.0077	0.2045	0.062
Mof_H 	H 	0.8135	0.906	0.2054	0.027
Mof_H 	H 	0.8807	0.8209	0.3823	0.06
Mof_H 	H 	0.9009	0.8571	0.4623	0.043
Mof_H 	H 	0.8829	0.9606	0.4706	0.046
Mof_H 	H 	0.8552	0.0277	0.3907	0.083
Mof_H 	H 	0.1541	0.6753	0.0493	-0.01
Mof_H 	H 	0.2255	0.6952	0.9466	0.07
Mof_H 	H 	0.0196	0.8823	0.9089	-0.046
Mof_H 	H 	0.8752	0.9499	0.9635	0.106
Mof_H 	H 	0.7977	0.9257	0.0661	-0.017
Mof_H 	H 	0.8705	0.8372	0.113	0.134
Mof_H 	H 	0.4143	0.0008	0.6778	0.05
Mof_H 	H 	0.3218	0.1057	0.6831	0.032
Mof_H 	H 	0.0693	0.1239	0.8691	0.087
Mof_H 	H 	0.0261	0.0561	0.9461	0.029
Mof_H 	H 	0.1247	0.9539	0.9431	0.043
Mof_H 	H 	0.2604	0.9177	0.8621	0.061
Mof_H 	H 	0.5672	0.4923	0.7045	0.057
Mof_H 	H 	0.4695	0.594	0.7054	0.028
Mof_H 	H 	0.4516	0.6791	0.8823	0.057
Mof_H 	H 	0.508	0.6429	0.9623	0.039
Mof_H 	H 	0.5935	0.5394	0.9706	0.044
Mof_H 	H 	0.6329	0.4723	0.8907	0.08
Mof_H 	H 	0.5794	0.8247	0.5493	0.03
Mof_H 	H 	0.6707	0.8048	0.4466	0.036
Mof_H 	H 	0.6519	0.6177	0.4089	0.048
Mof_H 	H 	0.5751	0.5501	0.4635	0.042
Mof_H 	H 	0.4734	0.5743	0.5661	0.033
Mof_H 	H 	0.4577	0.6628	0.613	0.083
Mof_H 	H 	0.0929	0.9992	0.3222	0.046
Mof_H 	H 	0.1106	0.8943	0.3169	0.03
Mof_H 	H 	0.0623	0.8761	0.1309	0.088
Mof_H 	H 	0.0283	0.9439	0.0539	0.029
Mof_H 	H 	0.0217	0.0461	0.0569	0.038
Mof_H 	H 	0.0402	0.0823	0.1379	0.058
Mof_H 	H 	0.764	0.5077	0.2955	0.068
Mof_H 	H 	0.7689	0.406	0.2946	0.016
Mof_H 	H 	0.013	0.3209	0.1177	0.09
Mof_H 	H 	0.1132	0.3571	0.0377	-0.003
Mof_H 	H 	0.1035	0.4606	0.0294	0.082
Mof_H 	H 	0.9959	0.5277	0.1093	0.047
Mof_H 	H 	0.9534	0.1753	0.4507	0.037
Mof_H 	H 	0.9221	0.1952	0.5534	0.041
Mof_H 	H 	0.6785	0.3823	0.5911	0.049
Mof_H 	H 	0.5887	0.4499	0.5365	0.041
Mof_H 	H 	0.6138	0.4257	0.4339	0.033
Mof_H 	H 	0.7335	0.3372	0.387	0.083
Mof_H 	H 	0.6651	0.1778	0.4992	0.051
Mof_H 	H 	0.6775	0.1831	0.3943	0.032
Mof_H 	H 	0.4432	0.3691	0.3761	0.091
Mof_H 	H 	0.3322	0.4461	0.4439	0.035
Mof_H 	H 	0.3286	0.4431	0.5461	0.044
Mof_H 	H 	0.4281	0.3621	0.5823	0.062
Mof_H 	H 	0.3095	0.2045	0.0077	0.048
Mof_H 	H 	0.3135	0.2054	0.906	0.031
Mof_H 	H 	0.3807	0.3823	0.8209	0.057
Mof_H 	H 	0.4009	0.4623	0.8571	0.038
Mof_H 	H 	0.3829	0.4706	0.9606	0.043
Mof_H 	H 	0.3552	0.3907	0.0277	0.076
Mof_H 	H 	0.6541	0.0493	0.6753	0.03
Mof_H 	H 	0.7255	0.9466	0.6952	0.039
Mof_H 	H 	0.5196	0.9089	0.8823	0.048
Mof_H 	H 	0.3752	0.9635	0.9499	0.043
Mof_H 	H 	0.2977	0.0661	0.9257	0.032
Mof_H 	H 	0.3705	0.113	0.8372	0.083
Mof_H 	H 	0.3421	0.8222	0.5008	0.05
Mof_H 	H 	0.2549	0.8169	0.6057	0.032
Mof_H 	H 	0.1884	0.6309	0.6239	0.089
Mof_H 	H 	0.2222	0.5539	0.5561	0.034
Mof_H 	H 	0.3178	0.5569	0.4539	0.044
Mof_H 	H 	0.3725	0.6379	0.4177	0.062
Mof_H 	H 	0.5217	0.7955	0.9923	0.066
Mof_H 	H 	0.4249	0.7946	0.094	0.023
Mof_H 	H 	0.5839	0.6177	0.1791	0.059
Mof_H 	H 	0.7203	0.5377	0.1429	0.038
Mof_H 	H 	0.8141	0.5294	0.0394	0.044
Mof_H 	H 	0.7736	0.6093	0.9723	0.085
Mof_H 	H 	0.3787	0.9507	0.3247	0.03
Mof_H 	H 	0.3673	0.0534	0.3048	0.035
Mof_H 	H 	0.3108	0.0911	0.1177	0.05
Mof_H 	H 	0.2886	0.0365	0.0501	0.039
Mof_H 	H 	0.2895	0.9339	0.0743	0.033
Mof_H 	H 	0.3207	0.887	0.1628	0.082
Mof_C 	C 	0.5694	0.241	0.0234	-0.108
Mof_C 	C 	0.5877	0.2879	0.9843	-0.013
Mof_C 	C 	0.5986	0.2844	0.9206	0.018
Mof_C 	C 	0.5919	0.2353	0.8971	-0.126
Mof_C 	C 	0.571	0.1856	0.937	0.071
Mof_C 	C 	0.5576	0.1334	0.9174	-0.109
Mof_C 	C 	0.538	0.0869	0.9577	0.002
Mof_C 	C 	0.5329	0.0893	0.0193	-0.053
Mof_C 	C 	0.5439	0.1377	0.0409	-0.056
Mof_C 	C 	0.5612	0.1885	0.0017	0.027
Mof_C 	C 	0.5657	0.2472	0.0888	0.394
Mof_C 	C 	0.6045	0.2365	0.8297	0.384
Mof_C 	C 	0.3687	0.2139	0.5055	-0.073
Mof_C 	C 	0.3081	0.2625	0.4819	-0.044
Mof_C 	C 	0.3124	0.2626	0.4202	0.018
Mof_C 	C 	0.38	0.216	0.3796	-0.133
Mof_C 	C 	0.4414	0.1657	0.4015	0.058
Mof_C 	C 	0.5087	0.1171	0.3625	-0.093
Mof_C 	C 	0.5677	0.0689	0.3845	-0.021
Mof_C 	C 	0.5635	0.064	0.4464	-0.032
Mof_C 	C 	0.4983	0.1116	0.4864	-0.079
Mof_C 	C 	0.4354	0.1637	0.4663	0.031
Mof_C 	C 	0.3565	0.2207	0.5729	0.308
Mof_C 	C 	0.378	0.222	0.3138	0.409
Mof_C 	C 	0.3523	0.4341	0.2481	-0.15
Mof_C 	C 	0.404	0.469	0.2108	0.017
Mof_C 	C 	0.3867	0.5307	0.2229	-0.016
Mof_C 	C 	0.316	0.5581	0.2769	-0.117
Mof_C 	C 	0.2617	0.5228	0.3186	0.035
Mof_C 	C 	0.1895	0.5501	0.3733	-0.071
Mof_C 	C 	0.1354	0.5181	0.4135	-0.046
Mof_C 	C 	0.1513	0.4561	0.3991	-0.012
Mof_C 	C 	0.2226	0.4283	0.3455	-0.102
Mof_C 	C 	0.2789	0.4611	0.3033	0.073
Mof_C 	C 	0.3767	0.3686	0.2284	0.472
Mof_C 	C 	0.2999	0.6232	0.2898	0.409
Mof_C 	C 	0.8338	0.759	0.9766	-0.1
Mof_C 	C 	0.8599	0.7121	0.0157	-0.023
Mof_C 	C 	0.8036	0.7156	0.0794	0.021
Mof_C 	C 	0.7243	0.7647	0.1029	-0.123
Mof_C 	C 	0.6936	0.8144	0.063	0.056
Mof_C 	C 	0.6084	0.8666	0.0826	-0.091
Mof_C 	C 	0.5826	0.9131	0.0423	-0.027
Mof_C 	C 	0.6415	0.9107	0.9807	-0.024
Mof_C 	C 	0.7225	0.8623	0.9591	-0.074
Mof_C 	C 	0.7514	0.8115	0.9983	0.041
Mof_C 	C 	0.9017	0.7528	0.9112	0.391
Mof_C 	C 	0.6707	0.7635	0.1703	0.382
Mof_C 	C 	0.0881	0.7861	0.4945	-0.104
Mof_C 	C 	0.0525	0.7375	0.5181	-0.047
Mof_C 	C 	0.9952	0.7374	0.5798	0.011
Mof_C 	C 	0.9756	0.784	0.6204	-0.059
Mof_C 	C 	0.0086	0.8343	0.5985	-0.078
Mof_C 	C 	0.9883	0.8829	0.6375	0.099
Mof_C 	C 	0.0211	0.9311	0.6155	-0.192
Mof_C 	C 	0.0739	0.936	0.5536	0.089
Mof_C 	C 	0.0963	0.8884	0.5136	-0.175
Mof_C 	C 	0.0654	0.8363	0.5337	0.103
Mof_C 	C 	0.1501	0.7793	0.4271	0.316
Mof_C 	C 	0.9138	0.778	0.6862	0.384
Mof_C 	C 	0.0345	0.5659	0.7519	-0.138
Mof_C 	C 	0.0838	0.531	0.7892	-0.005
Mof_C 	C 	0.1403	0.4693	0.7771	0.009
Mof_C 	C 	0.151	0.4419	0.7231	-0.154
Mof_C 	C 	0.1031	0.4772	0.6814	0.11
Mof_C 	C 	0.1129	0.4499	0.6267	-0.182
Mof_C 	C 	0.067	0.4819	0.5865	0.099
Mof_C 	C 	0.0065	0.5439	0.6009	-0.224
Mof_C 	C 	0.9964	0.5717	0.6545	0.086
Mof_C 	C 	0.0433	0.5389	0.6967	-0.032
Mof_C 	C 	0.9737	0.6314	0.7716	0.512
Mof_C 	C 	0.2129	0.3768	0.7102	0.42
Mof_C 	C 	0.8428	0.4766	0.741	-0.101
Mof_C 	C 	0.822	0.5157	0.7879	-0.017
Mof_C 	C 	0.7692	0.5794	0.7844	0.02
Mof_C 	C 	0.739	0.6029	0.7353	-0.124
Mof_C 	C 	0.758	0.563	0.6856	0.064
Mof_C 	C 	0.725	0.5826	0.6334	-0.1
Mof_C 	C 	0.7457	0.5423	0.5869	-0.012
Mof_C 	C 	0.8022	0.4807	0.5893	-0.037
Mof_C 	C 	0.8348	0.4591	0.6377	-0.064
Mof_C 	C 	0.8129	0.4983	0.6885	0.036
Mof_C 	C 	0.9045	0.4112	0.7472	0.391
Mof_C 	C 	0.6842	0.6703	0.7365	0.383
Mof_C 	C 	0.1242	0.9945	0.7139	-0.021
Mof_C 	C 	0.04	0.0181	0.7625	-0.154
Mof_C 	C 	0.9826	0.0798	0.7626	0.163
Mof_C 	C 	0.0096	0.1204	0.716	-0.242
Mof_C 	C 	0.0929	0.0985	0.6657	0.12
Mof_C 	C 	0.1212	0.1375	0.6171	-0.147
Mof_C 	C 	0.2022	0.1155	0.5689	0.025
Mof_C 	C 	0.2599	0.0536	0.564	-0.075
Mof_C 	C 	0.2347	0.0136	0.6116	-0.035
Mof_C 	C 	0.1517	0.0337	0.6637	-0.021
Mof_C 	C 	0.1794	0.9271	0.7207	0.288
Mof_C 	C 	0.9418	0.1862	0.722	0.46
Mof_C 	C 	0.8504	0.2519	0.9341	-0.156
Mof_C 	C 	0.8648	0.2892	0.969	0.034
Mof_C 	C 	0.8596	0.2771	0.0307	-0.031
Mof_C 	C 	0.8429	0.2231	0.0581	-0.104
Mof_C 	C 	0.8303	0.1814	0.0228	0.02
Mof_C 	C 	0.8128	0.1267	0.0501	-0.049
Mof_C 	C 	0.7989	0.0865	0.0181	-0.065
Mof_C 	C 	0.8004	0.1009	0.9561	0.013
Mof_C 	C 	0.8181	0.1545	0.9283	-0.114
Mof_C 	C 	0.8322	0.1967	0.9611	0.092
Mof_C 	C 	0.8551	0.2716	0.8686	0.473
Mof_C 	C 	0.8397	0.2102	0.1232	0.404
Mof_C 	C 	0.0604	0.5234	0.259	-0.176
Mof_C 	C 	0.1256	0.4843	0.2121	0.037
Mof_C 	C 	0.133	0.4206	0.2156	-0.038
Mof_C 	C 	0.0772	0.3971	0.2647	-0.074
Mof_C 	C 	0.0066	0.437	0.3144	-0.049
Mof_C 	C 	0.941	0.4174	0.3666	0.011
Mof_C 	C 	0.8749	0.4577	0.4131	-0.103
Mof_C 	C 	0.8722	0.5193	0.4107	0.053
Mof_C 	C 	0.9316	0.5409	0.3623	-0.152
Mof_C 	C 	0.9997	0.5017	0.3115	0.146
Mof_C 	C 	0.0629	0.5888	0.2528	0.387
Mof_C 	C 	0.091	0.3297	0.2635	0.361
Mof_C 	C 	0.8326	0.0055	0.2861	-0.066
Mof_C 	C 	0.8206	0.9819	0.2375	-0.047
Mof_C 	C 	0.825	0.9202	0.2374	0.023
Mof_C 	C 	0.846	0.8796	0.284	-0.131
Mof_C 	C 	0.8571	0.9015	0.3343	0.061
Mof_C 	C 	0.8758	0.8625	0.3829	-0.09
Mof_C 	C 	0.8866	0.8845	0.4311	-0.019
Mof_C 	C 	0.8775	0.9464	0.436	-0.028
Mof_C 	C 	0.8599	0.9864	0.3884	-0.077
Mof_C 	C 	0.8491	0.9663	0.3363	0.032
Mof_C 	C 	0.8272	0.0729	0.2793	0.309
Mof_C 	C 	0.85	0.8138	0.278	0.407
Mof_C 	C 	0.0364	0.7481	0.0659	-0.294
Mof_C 	C 	0.123	0.7108	0.031	0.126
Mof_C 	C 	0.1674	0.7229	0.9693	-0.115
Mof_C 	C 	0.1241	0.7769	0.9419	-0.024
Mof_C 	C 	0.0345	0.8186	0.9772	-0.148
Mof_C 	C 	0.9896	0.8733	0.9499	0.161
Mof_C 	C 	0.9035	0.9135	0.9819	-0.212
Mof_C 	C 	0.8574	0.8991	0.0439	0.132
Mof_C 	C 	0.9009	0.8455	0.0717	-0.241
Mof_C 	C 	0.99	0.8033	0.0389	0.246
Mof_C 	C 	0.9953	0.7284	0.1314	0.567
Mof_C 	C 	0.1731	0.7898	0.8768	0.372
Mof_C 	C 	0.3338	0.9766	0.759	-0.106
Mof_C 	C 	0.3599	0.0157	0.7121	-0.016
Mof_C 	C 	0.3036	0.0794	0.7156	0.019
Mof_C 	C 	0.2243	0.1029	0.7647	-0.126
Mof_C 	C 	0.1936	0.063	0.8144	0.063
Mof_C 	C 	0.1084	0.0826	0.8666	-0.102
Mof_C 	C 	0.0826	0.0423	0.9131	-0.013
Mof_C 	C 	0.1415	0.9807	0.9107	-0.041
Mof_C 	C 	0.2225	0.9591	0.8623	-0.065
Mof_C 	C 	0.2514	0.9983	0.8115	0.034
Mof_C 	C 	0.4017	0.9112	0.7528	0.394
Mof_C 	C 	0.1707	0.1703	0.7635	0.383
Mof_C 	C 	0.5881	0.4945	0.7861	-0.073
Mof_C 	C 	0.5525	0.5181	0.7375	-0.044
Mof_C 	C 	0.4952	0.5798	0.7374	0.018
Mof_C 	C 	0.4756	0.6204	0.784	-0.133
Mof_C 	C 	0.5086	0.5985	0.8343	0.058
Mof_C 	C 	0.4883	0.6375	0.8829	-0.092
Mof_C 	C 	0.5211	0.6155	0.9311	-0.021
Mof_C 	C 	0.5739	0.5536	0.936	-0.031
Mof_C 	C 	0.5963	0.5136	0.8884	-0.079
Mof_C 	C 	0.5654	0.5337	0.8363	0.031
Mof_C 	C 	0.6501	0.4271	0.7793	0.307
Mof_C 	C 	0.4138	0.6862	0.778	0.409
Mof_C 	C 	0.5345	0.7519	0.5659	-0.15
Mof_C 	C 	0.5838	0.7892	0.531	0.017
Mof_C 	C 	0.6403	0.7771	0.4693	-0.016
Mof_C 	C 	0.651	0.7231	0.4419	-0.117
Mof_C 	C 	0.6031	0.6814	0.4772	0.034
Mof_C 	C 	0.6129	0.6267	0.4499	-0.068
Mof_C 	C 	0.567	0.5865	0.4819	-0.046
Mof_C 	C 	0.5065	0.6009	0.5439	-0.009
Mof_C 	C 	0.4964	0.6545	0.5717	-0.102
Mof_C 	C 	0.5433	0.6967	0.5389	0.074
Mof_C 	C 	0.4737	0.7716	0.6314	0.472
Mof_C 	C 	0.7129	0.7102	0.3768	0.409
Mof_C 	C 	0.0694	0.0234	0.241	-0.111
Mof_C 	C 	0.0877	0.9843	0.2879	-0.017
Mof_C 	C 	0.0986	0.9206	0.2844	0.014
Mof_C 	C 	0.0919	0.8971	0.2353	-0.126
Mof_C 	C 	0.071	0.937	0.1856	0.059
Mof_C 	C 	0.0576	0.9174	0.1334	-0.102
Mof_C 	C 	0.038	0.9577	0.0869	-0.017
Mof_C 	C 	0.0329	0.0193	0.0893	-0.04
Mof_C 	C 	0.0439	0.0409	0.1377	-0.07
Mof_C 	C 	0.0612	0.0017	0.1885	0.034
Mof_C 	C 	0.0657	0.0888	0.2472	0.394
Mof_C 	C 	0.1045	0.8297	0.2365	0.38
Mof_C 	C 	0.8687	0.5055	0.2139	-0.036
Mof_C 	C 	0.8081	0.4819	0.2625	-0.076
Mof_C 	C 	0.8124	0.4202	0.2626	0.053
Mof_C 	C 	0.88	0.3796	0.216	-0.169
Mof_C 	C 	0.9414	0.4015	0.1657	0.147
Mof_C 	C 	0.0087	0.3625	0.1171	-0.213
Mof_C 	C 	0.0677	0.3845	0.0689	0.088
Mof_C 	C 	0.0635	0.4464	0.064	-0.159
Mof_C 	C 	0.9983	0.4864	0.1116	0.035
Mof_C 	C 	0.9354	0.4663	0.1637	-0.033
Mof_C 	C 	0.8565	0.5729	0.2207	0.295
Mof_C 	C 	0.878	0.3138	0.222	0.423
Mof_C 	C 	0.8523	0.2481	0.4341	-0.145
Mof_C 	C 	0.904	0.2108	0.469	0.017
Mof_C 	C 	0.8867	0.2229	0.5307	-0.014
Mof_C 	C 	0.816	0.2769	0.5581	-0.116
Mof_C 	C 	0.7617	0.3186	0.5228	0.035
Mof_C 	C 	0.6895	0.3733	0.5501	-0.069
Mof_C 	C 	0.6354	0.4135	0.5181	-0.046
Mof_C 	C 	0.6513	0.3991	0.4561	-0.01
Mof_C 	C 	0.7226	0.3455	0.4283	-0.101
Mof_C 	C 	0.7789	0.3033	0.4611	0.073
Mof_C 	C 	0.8767	0.2284	0.3686	0.469
Mof_C 	C 	0.7999	0.2898	0.6232	0.409
Mof_C 	C 	0.5604	0.259	0.5234	-0.106
Mof_C 	C 	0.6256	0.2121	0.4843	-0.017
Mof_C 	C 	0.633	0.2156	0.4206	0.019
Mof_C 	C 	0.5772	0.2647	0.3971	-0.125
Mof_C 	C 	0.5066	0.3144	0.437	0.063
Mof_C 	C 	0.441	0.3666	0.4174	-0.1
Mof_C 	C 	0.3749	0.4131	0.4577	-0.012
Mof_C 	C 	0.3722	0.4107	0.5193	-0.04
Mof_C 	C 	0.4316	0.3623	0.5409	-0.065
Mof_C 	C 	0.4997	0.3115	0.5017	0.034
Mof_C 	C 	0.5629	0.2528	0.5888	0.393
Mof_C 	C 	0.591	0.2635	0.3297	0.383
Mof_C 	C 	0.3326	0.2861	0.0055	-0.085
Mof_C 	C 	0.3206	0.2375	0.9819	-0.027
Mof_C 	C 	0.325	0.2374	0.9202	0.008
Mof_C 	C 	0.346	0.284	0.8796	-0.128
Mof_C 	C 	0.3571	0.3343	0.9015	0.054
Mof_C 	C 	0.3758	0.3829	0.8625	-0.091
Mof_C 	C 	0.3866	0.4311	0.8845	-0.022
Mof_C 	C 	0.3775	0.436	0.9464	-0.033
Mof_C 	C 	0.3599	0.3884	0.9864	-0.076
Mof_C 	C 	0.3491	0.3363	0.9663	0.037
Mof_C 	C 	0.3272	0.2793	0.0729	0.311
Mof_C 	C 	0.35	0.278	0.8138	0.407
Mof_C 	C 	0.5364	0.0659	0.7481	-0.151
Mof_C 	C 	0.623	0.031	0.7108	0.02
Mof_C 	C 	0.6674	0.9693	0.7229	-0.019
Mof_C 	C 	0.6241	0.9419	0.7769	-0.114
Mof_C 	C 	0.5345	0.9772	0.8186	0.032
Mof_C 	C 	0.4896	0.9499	0.8733	-0.066
Mof_C 	C 	0.4035	0.9819	0.9135	-0.049
Mof_C 	C 	0.3574	0.0439	0.8991	-0.006
Mof_C 	C 	0.4009	0.0717	0.8455	-0.104
Mof_C 	C 	0.49	0.0389	0.8033	0.077
Mof_C 	C 	0.4953	0.1314	0.7284	0.473
Mof_C 	C 	0.6731	0.8768	0.7898	0.408
Mof_C 	C 	0.3428	0.741	0.4766	-0.106
Mof_C 	C 	0.322	0.7879	0.5157	-0.016
Mof_C 	C 	0.2692	0.7844	0.5794	0.018
Mof_C 	C 	0.239	0.7353	0.6029	-0.125
Mof_C 	C 	0.258	0.6856	0.563	0.062
Mof_C 	C 	0.225	0.6334	0.5826	-0.1
Mof_C 	C 	0.2457	0.5869	0.5423	-0.014
Mof_C 	C 	0.3022	0.5893	0.4807	-0.039
Mof_C 	C 	0.3348	0.6377	0.4591	-0.066
Mof_C 	C 	0.3129	0.6885	0.4983	0.035
Mof_C 	C 	0.4045	0.7472	0.4112	0.394
Mof_C 	C 	0.1842	0.7365	0.6703	0.381
Mof_C 	C 	0.6242	0.7139	0.9945	-0.058
Mof_C 	C 	0.54	0.7625	0.0181	-0.066
Mof_C 	C 	0.4826	0.7626	0.0798	0.03
Mof_C 	C 	0.5096	0.716	0.1204	-0.139
Mof_C 	C 	0.5929	0.6657	0.0985	0.063
Mof_C 	C 	0.6212	0.6171	0.1375	-0.096
Mof_C 	C 	0.7022	0.5689	0.1155	-0.019
Mof_C 	C 	0.7599	0.564	0.0536	-0.031
Mof_C 	C 	0.7347	0.6116	0.0136	-0.083
Mof_C 	C 	0.6517	0.6637	0.0337	0.023
Mof_C 	C 	0.6794	0.7207	0.9271	0.303
Mof_C 	C 	0.4418	0.722	0.1862	0.411
Mof_C 	C 	0.3504	0.9341	0.2519	-0.148
Mof_C 	C 	0.3648	0.969	0.2892	0.014
Mof_C 	C 	0.3596	0.0307	0.2771	-0.014
Mof_C 	C 	0.3429	0.0581	0.2231	-0.118
Mof_C 	C 	0.3303	0.0228	0.1814	0.037
Mof_C 	C 	0.3128	0.0501	0.1267	-0.072
Mof_C 	C 	0.2989	0.0181	0.0865	-0.042
Mof_C 	C 	0.3004	0.9561	0.1009	-0.013
Mof_C 	C 	0.3181	0.9283	0.1545	-0.099
Mof_C 	C 	0.3322	0.9611	0.1967	0.071
Mof_C 	C 	0.3551	0.8686	0.2716	0.471
Mof_C 	C 	0.3397	0.1232	0.2102	0.409
Mof_O 	O 	0.50684	0.2289	0.13522	-0.537
Mof_O 	O 	0.62094	0.26967	0.09765	-0.439
Mof_O 	O 	0.64356	0.27395	0.79353	-0.53
Mof_O 	O 	0.57843	0.20023	0.80811	-0.429
Mof_O 	O 	0.40717	0.18112	0.60114	-0.391
Mof_O 	O 	0.29449	0.26965	0.60237	-0.418
Mof_O 	O 	0.45163	0.22166	0.26788	-0.517
Mof_O 	O 	0.30075	0.22913	0.30577	-0.437
Mof_O 	O 	0.4636	0.3408	0.2006	-0.5
Mof_O 	O 	0.3145	0.3444	0.2386	-0.495
Mof_O 	O 	0.36014	0.63682	0.3039	-0.424
Mof_O 	O 	0.22829	0.66677	0.28285	-0.549
Mof_O 	O 	0.87096	0.7711	0.86478	-0.528
Mof_O 	O 	0.98826	0.73033	0.90235	-0.416
Mof_O 	O 	0.71104	0.72605	0.20647	-0.53
Mof_O 	O 	0.58677	0.79977	0.19189	-0.428
Mof_O 	O 	0.18943	0.81888	0.39886	-0.397
Mof_O 	O 	0.16651	0.73035	0.39763	-0.421
Mof_O 	O 	0.94117	0.77834	0.73212	-0.495
Mof_O 	O 	0.83565	0.77087	0.69423	-0.428
Mof_O 	O 	0.005	0.6592	0.7994	-0.527
Mof_O 	O 	0.8975	0.6556	0.7614	-0.5
Mof_O 	O 	0.30086	0.36318	0.6961	-0.427
Mof_O 	O 	0.17791	0.33323	0.71715	-0.552
Mof_O 	O 	0.89206	0.36478	0.7289	-0.528
Mof_O 	O 	0.96859	0.40235	0.76967	-0.418
Mof_O 	O 	0.68709	0.70647	0.77395	-0.53
Mof_O 	O 	0.63654	0.69189	0.70023	-0.429
Mof_O 	O 	0.25831	0.89886	0.68112	-0.386
Mof_O 	O 	0.14686	0.89763	0.76965	-0.413
Mof_O 	O 	0.96951	0.23212	0.72166	-0.513
Mof_O 	O 	0.85652	0.19423	0.72913	-0.446
Mof_O 	O 	0.9142	0.2994	0.8408	-0.486
Mof_O 	O 	0.8031	0.2614	0.8444	-0.495
Mof_O 	O 	0.91404	0.1961	0.13682	-0.415
Mof_O 	O 	0.76114	0.21715	0.16677	-0.55
Mof_O 	O 	0.98574	0.63522	0.2711	-0.518
Mof_O 	O 	0.14061	0.59765	0.23033	-0.435
Mof_O 	O 	0.16751	0.29353	0.22605	-0.524
Mof_O 	O 	0.02866	0.30811	0.29977	-0.432
Mof_O 	O 	0.83829	0.10114	0.31888	-0.388
Mof_O 	O 	0.81414	0.10237	0.23035	-0.414
Mof_O 	O 	0.92329	0.76788	0.27834	-0.506
Mof_O 	O 	0.77988	0.80577	0.27087	-0.436
Mof_O 	O 	0.0544	0.7006	0.1592	-0.538
Mof_O 	O 	0.9089	0.7386	0.1556	-0.521
Mof_O 	O 	0.24696	0.8039	0.86318	-0.414
Mof_O 	O 	0.14506	0.78285	0.83323	-0.539
Mof_O 	O 	0.37096	0.86478	0.7711	-0.537
Mof_O 	O 	0.48826	0.90235	0.73033	-0.438
Mof_O 	O 	0.21104	0.20647	0.72605	-0.528
Mof_O 	O 	0.08677	0.19189	0.79977	-0.432
Mof_O 	O 	0.68943	0.39886	0.81888	-0.392
Mof_O 	O 	0.66651	0.39763	0.73035	-0.417
Mof_O 	O 	0.44117	0.73212	0.77834	-0.517
Mof_O 	O 	0.33565	0.69423	0.77087	-0.436
Mof_O 	O 	0.505	0.7994	0.6592	-0.5
Mof_O 	O 	0.3975	0.7614	0.6556	-0.495
Mof_O 	O 	0.80086	0.6961	0.36318	-0.425
Mof_O 	O 	0.67791	0.71715	0.33323	-0.551
Mof_O 	O 	0.00684	0.13522	0.2289	-0.551
Mof_O 	O 	0.12094	0.09765	0.26967	-0.439
Mof_O 	O 	0.14356	0.79353	0.27395	-0.531
Mof_O 	O 	0.07843	0.80811	0.20023	-0.432
Mof_O 	O 	0.90717	0.60114	0.18112	-0.382
Mof_O 	O 	0.79449	0.60237	0.26965	-0.414
Mof_O 	O 	0.95163	0.26788	0.22166	-0.506
Mof_O 	O 	0.80075	0.30577	0.22913	-0.44
Mof_O 	O 	0.9636	0.2006	0.3408	-0.483
Mof_O 	O 	0.8145	0.2386	0.3444	-0.494
Mof_O 	O 	0.86014	0.3039	0.63682	-0.421
Mof_O 	O 	0.72829	0.28285	0.66677	-0.55
Mof_O 	O 	0.48574	0.2711	0.63522	-0.537
Mof_O 	O 	0.64061	0.23033	0.59765	-0.437
Mof_O 	O 	0.66751	0.22605	0.29353	-0.532
Mof_O 	O 	0.52866	0.29977	0.30811	-0.429
Mof_O 	O 	0.33829	0.31888	0.10114	-0.393
Mof_O 	O 	0.31414	0.23035	0.10237	-0.418
Mof_O 	O 	0.42329	0.27834	0.76788	-0.517
Mof_O 	O 	0.27988	0.27087	0.80577	-0.436
Mof_O 	O 	0.5544	0.1592	0.7006	-0.5
Mof_O 	O 	0.4089	0.1556	0.7386	-0.496
Mof_O 	O 	0.74696	0.86318	0.8039	-0.423
Mof_O 	O 	0.64506	0.83323	0.78285	-0.551
Mof_O 	O 	0.39206	0.7289	0.36478	-0.537
Mof_O 	O 	0.46859	0.76967	0.40235	-0.438
Mof_O 	O 	0.18709	0.77395	0.70647	-0.529
Mof_O 	O 	0.13654	0.70023	0.69189	-0.431
Mof_O 	O 	0.75831	0.68112	0.89886	-0.389
Mof_O 	O 	0.64686	0.76965	0.89763	-0.416
Mof_O 	O 	0.46951	0.72166	0.23212	-0.518
Mof_O 	O 	0.35652	0.72913	0.19423	-0.436
Mof_O 	O 	0.4142	0.8408	0.2994	-0.5
Mof_O 	O 	0.3031	0.8444	0.2614	-0.495
Mof_O 	O 	0.41404	0.13682	0.1961	-0.424
Mof_O 	O 	0.26114	0.16677	0.21715	-0.548
_end
