data_functionalizedCrystal
_audit_creation_method	'EQeq! by Chris Wilmer'
_symmetry_space_group_name_H-M	'P1'
_symmetry_Int_Tables_number	1
_symmetry_cell_setting	triclinic
loop_
_symmetry_equiv_pos_as_xyz
  x,y,z
_cell_length_a	10.725
_cell_length_b	13.331
_cell_length_c	15.2614
_cell_angle_alpha	65.641
_cell_angle_beta	86.004
_cell_angle_gamma	74.007
loop_
_atom_site_label
_atom_site_type_symbol
_atom_site_fract_x
_atom_site_fract_y
_atom_site_fract_z
_atom_site_charge
Mof_Co	Co	0.12862	0.0134	0.58857	1.171
Mof_Co	Co	0.87138	0.9866	0.41143	1.171
Mof_H 	H 	0.2117	0.7521	0.6978	-0.003
Mof_H 	H 	0.1415	0.5998	0.802	0.093
Mof_H 	H 	0.8021	0.8161	0.8018	0.093
Mof_H 	H 	0.8779	0.9664	0.696	0
Mof_H 	H 	0.9704	0.5177	0.9033	0.048
Mof_H 	H 	0.8494	0.3964	0.9258	0.071
Mof_H 	H 	0.7545	0.2507	0.0313	0.03
Mof_H 	H 	0.6135	0.2838	0.1413	0.076
Mof_H 	H 	0.4365	0.5877	0.223	0.073
Mof_H 	H 	0.5128	0.7355	0.111	0.028
Mof_H 	H 	0.6581	0.704	0.0046	0.064
Mof_H 	H 	0.3073	0.4703	0.2311	0.049
Mof_H 	H 	0.4605	0.169	0.3537	0.116
Mof_H 	H 	0.3737	0.0386	0.4755	-0
Mof_H 	H 	0.062	0.2769	0.4653	-0.002
Mof_H 	H 	0.1407	0.4135	0.3475	0.091
Mof_H 	H 	0.5096	0.9235	0.7816	0.029
Mof_H 	H 	0.6188	0.9233	0.906	0.063
Mof_H 	H 	0.2865	0.0819	0.9822	0.062
Mof_H 	H 	0.1781	0.0803	0.8541	0.037
Mof_H 	H 	0.4478	0.396	0.4333	0.075
Mof_H 	H 	0.6004	0.235	0.4412	0.024
Mof_H 	H 	0.8447	0.294	0.5855	0.023
Mof_H 	H 	0.6894	0.4573	0.5781	0.069
Mof_H 	H 	0.7883	0.2479	0.3022	-0.003
Mof_H 	H 	0.8585	0.4002	0.198	0.093
Mof_H 	H 	0.1979	0.1839	0.1982	0.093
Mof_H 	H 	0.1221	0.0336	0.304	0
Mof_H 	H 	0.0296	0.4823	0.0967	0.048
Mof_H 	H 	0.1506	0.6036	0.0742	0.071
Mof_H 	H 	0.2455	0.7493	0.9687	0.03
Mof_H 	H 	0.3865	0.7162	0.8587	0.076
Mof_H 	H 	0.5635	0.4123	0.777	0.073
Mof_H 	H 	0.4872	0.2645	0.889	0.028
Mof_H 	H 	0.3419	0.296	0.9954	0.064
Mof_H 	H 	0.6927	0.5297	0.7689	0.049
Mof_H 	H 	0.5395	0.831	0.6463	0.116
Mof_H 	H 	0.6263	0.9614	0.5245	-0
Mof_H 	H 	0.938	0.7231	0.5347	-0.002
Mof_H 	H 	0.8593	0.5865	0.6525	0.091
Mof_H 	H 	0.4904	0.0765	0.2184	0.029
Mof_H 	H 	0.3812	0.0767	0.094	0.063
Mof_H 	H 	0.7135	0.9181	0.0178	0.062
Mof_H 	H 	0.8219	0.9197	0.1459	0.037
Mof_H 	H 	0.5522	0.604	0.5667	0.075
Mof_H 	H 	0.3996	0.765	0.5588	0.024
Mof_H 	H 	0.1553	0.706	0.4145	0.023
Mof_H 	H 	0.3106	0.5427	0.4219	0.069
Mof_C 	C 	0.1278	0.7656	0.719	0.097
Mof_C 	C 	0.0862	0.6734	0.7816	-0.164
Mof_C 	C 	0.9621	0.6907	0.8138	0.109
Mof_C 	C 	0.8861	0.8013	0.7811	-0.155
Mof_C 	C 	0.9319	0.8921	0.7176	0.077
Mof_C 	C 	0.9157	0.5916	0.8819	-0.042
Mof_C 	C 	0.755	0.5167	0.9736	0.075
Mof_C 	C 	0.79	0.4104	0.9695	-0.111
Mof_C 	C 	0.7328	0.3217	0.0342	0.015
Mof_C 	C 	0.6478	0.342	0.0989	-0.081
Mof_C 	C 	0.6111	0.4479	0.103	0.007
Mof_C 	C 	0.5218	0.472	0.1707	0.072
Mof_C 	C 	0.4904	0.5755	0.1758	-0.113
Mof_C 	C 	0.5393	0.6633	0.1101	0.015
Mof_C 	C 	0.6239	0.6451	0.0458	-0.078
Mof_C 	C 	0.6623	0.5375	0.0395	-0.002
Mof_C 	C 	0.3619	0.3968	0.2617	-0.042
Mof_C 	C 	0.3102	0.3073	0.3376	0.121
Mof_C 	C 	0.3797	0.193	0.3759	-0.179
Mof_C 	C 	0.3256	0.1149	0.4483	0.105
Mof_C 	C 	0.1432	0.2549	0.4427	0.101
Mof_C 	C 	0.1899	0.3375	0.372	-0.178
Mof_C 	C 	0.3344	0.9969	0.8053	-0.106
Mof_C 	C 	0.4622	0.9547	0.8221	0.038
Mof_C 	C 	0.5293	0.9548	0.8976	-0.106
Mof_C 	C 	0.4656	0.0004	0.9591	0.039
Mof_C 	C 	0.333	0.0486	0.9427	-0.1
Mof_C 	C 	0.2672	0.0471	0.865	0.022
Mof_C 	C 	0.5496	0.4486	0.5024	0.049
Mof_C 	C 	0.5281	0.3771	0.464	-0.121
Mof_C 	C 	0.6194	0.2799	0.4689	0.066
Mof_C 	C 	0.7382	0.2485	0.5144	-0.147
Mof_C 	C 	0.7642	0.3145	0.5544	0.062
Mof_C 	C 	0.6704	0.4136	0.5493	-0.119
Mof_C 	C 	0.2646	0.9997	0.7234	0.334
Mof_C 	C 	0.8393	0.143	0.5178	0.413
Mof_C 	C 	0.8722	0.2344	0.281	0.097
Mof_C 	C 	0.9138	0.3266	0.2184	-0.164
Mof_C 	C 	0.0379	0.3093	0.1862	0.109
Mof_C 	C 	0.1139	0.1987	0.2189	-0.155
Mof_C 	C 	0.0681	0.1079	0.2824	0.077
Mof_C 	C 	0.0843	0.4084	0.1181	-0.042
Mof_C 	C 	0.245	0.4833	0.0264	0.075
Mof_C 	C 	0.21	0.5896	0.0305	-0.111
Mof_C 	C 	0.2672	0.6783	0.9658	0.015
Mof_C 	C 	0.3522	0.658	0.9011	-0.081
Mof_C 	C 	0.3889	0.5521	0.897	0.007
Mof_C 	C 	0.4782	0.528	0.8293	0.072
Mof_C 	C 	0.5096	0.4245	0.8242	-0.113
Mof_C 	C 	0.4607	0.3367	0.8899	0.015
Mof_C 	C 	0.3761	0.3549	0.9542	-0.078
Mof_C 	C 	0.3377	0.4625	0.9605	-0.002
Mof_C 	C 	0.6381	0.6032	0.7383	-0.042
Mof_C 	C 	0.6898	0.6927	0.6624	0.121
Mof_C 	C 	0.6203	0.807	0.6241	-0.179
Mof_C 	C 	0.6744	0.8851	0.5517	0.105
Mof_C 	C 	0.8568	0.7451	0.5573	0.101
Mof_C 	C 	0.8101	0.6625	0.628	-0.178
Mof_C 	C 	0.6656	0.0031	0.1947	-0.106
Mof_C 	C 	0.5378	0.0453	0.1779	0.038
Mof_C 	C 	0.4707	0.0452	0.1024	-0.106
Mof_C 	C 	0.5344	0.9996	0.0409	0.039
Mof_C 	C 	0.667	0.9514	0.0573	-0.1
Mof_C 	C 	0.7328	0.9529	0.135	0.022
Mof_C 	C 	0.4504	0.5514	0.4976	0.049
Mof_C 	C 	0.4719	0.6229	0.536	-0.121
Mof_C 	C 	0.3806	0.7201	0.5311	0.066
Mof_C 	C 	0.2618	0.7515	0.4856	-0.147
Mof_C 	C 	0.2358	0.6855	0.4456	0.062
Mof_C 	C 	0.3296	0.5864	0.4507	-0.119
Mof_C 	C 	0.7354	0.0003	0.2766	0.334
Mof_C 	C 	0.1607	0.857	0.4822	0.413
Mof_N 	N 	0.0536	0.8736	0.6871	-0.226
Mof_N 	N 	0.7994	0.6096	0.9104	-0.113
Mof_N 	N 	0.4781	0.3755	0.2378	-0.107
Mof_N 	N 	0.2088	0.1437	0.4808	-0.229
Mof_N 	N 	0.9464	0.1264	0.3129	-0.226
Mof_N 	N 	0.2006	0.3904	0.0896	-0.113
Mof_N 	N 	0.5219	0.6245	0.7622	-0.107
Mof_N 	N 	0.7912	0.8563	0.5192	-0.229
Mof_O 	O 	0.3154	0.9461	0.6768	-0.381
Mof_O 	O 	0.1465	0.0596	0.7041	-0.383
Mof_O 	O 	0.9514	0.1274	0.5491	-0.453
Mof_O 	O 	0.8049	0.0794	0.4882	-0.461
Mof_O 	O 	0.6846	0.0539	0.3232	-0.381
Mof_O 	O 	0.8535	0.9404	0.2959	-0.383
Mof_O 	O 	0.0486	0.8726	0.4509	-0.453
Mof_O 	O 	0.1951	0.9206	0.5118	-0.461
_end
