# CIF file generated by openbabel 3.1.0, see https://openbabel.org
data_I
_chemical_name_common 'image0'
_cell_length_a 17.519
_cell_length_b 10.08
_cell_length_c 22.931
_cell_angle_alpha 90
_cell_angle_beta 98.72
_cell_angle_gamma 90
_space_group_name_H-M_alt 'P 1'
_space_group_name_Hall 'P 1'
loop_
    _symmetry_equiv_pos_as_xyz
    x,y,z
loop_
    _atom_site_label
    _atom_site_type_symbol
    _atom_site_fract_x
    _atom_site_fract_y
    _atom_site_fract_z
    _atom_site_occupancy
    Co1      Co       0.65934    0.81017    0.66017    1.000
    N1       N        0.67720    0.81050    0.75090    1.000
    N2       N        0.72120    0.87150    0.84340    1.000
    N3       N        0.68120    0.75820    0.84330    1.000
    N4       N        0.54870    0.81430    0.61520    1.000
    N5       N        0.44550    0.88490    0.55440    1.000
    N6       N        0.42830    0.77410    0.58330    1.000
    N7       N        0.94970    0.15790    0.82470    1.000
    N8       N        0.90030    0.05650    0.81690    1.000
    N9       N        0.95470    0.06810    0.91210    1.000
    O1       O        0.63840    0.06050    0.67050    1.000
    O2       O        0.72490    0.95460    0.63076    1.000
    O3       O        0.63580    0.55790    0.67276    1.000
    O4       O        0.72249    0.66430    0.63094    1.000
    O5       O        0.90770    0.43020    0.53460    1.000
    O6       O        0.92610    0.21220    0.54431    1.000
    C1       C        0.69530    0.06200    0.64490    1.000
    C2       C        0.72940    0.19030    0.62950    1.000
    C3       C        0.69720    0.30950    0.64510    1.000
    H1       H        0.65530    0.30830    0.66560    1.000
    C4       C        0.72750    0.42890    0.63012    1.000
    C5       C        0.69310    0.55660    0.64640    1.000
    C6       C        0.78950    0.43010    0.59920    1.000
    H2       H        0.80940    0.51060    0.58860    1.000
    C7       C        0.82220    0.31220    0.58390    1.000
    C8       C        0.79200    0.19290    0.59960    1.000
    H3       H        0.81410    0.11370    0.58990    1.000
    C9       C        0.89110    0.31630    0.55140    1.000
    C10      C        0.71750    0.89970    0.78740    1.000
    H4       H        0.74050    0.97450    0.77390    1.000
    C11      C        0.65620    0.72380    0.78870    1.000
    H5       H        0.62730    0.64800    0.77790    1.000
    C12      C        0.66930    0.69620    0.89840    1.000
    H6       H        0.71870    0.68340    0.92320    1.000
    H7       H        0.64570    0.60980    0.89030    1.000
    C13      C        0.61750    0.78170    0.93090    1.000
    C14      C        0.54030    0.79000    0.91360    1.000
    H8       H        0.51740    0.73640    0.88280    1.000
    C15      C        0.49510    0.87420    0.93980    1.000
    H9       H        0.44250    0.87740    0.92590    1.000
    C16      C        0.52430    0.95410    0.98590    1.000
    C17      C        0.60250    0.94400    0.00310    1.000
    H10      H        0.62540    0.99660    0.03420    1.000
    C18      C        0.64870    0.85930    0.97660    1.000
    H11      H        0.70140    0.85550    0.99010    1.000
    C19      C        0.51760    0.90440    0.57460    1.000
    H12      H        0.54580    0.97450    0.56230    1.000
    C20      C        0.48920    0.73440    0.61830    1.000
    H13      H        0.49100    0.65980    0.64230    1.000
    C21      C        0.34980    0.71950    0.57360    1.000
    H14      H        0.35100    0.62970    0.58900    1.000
    H15      H        0.33150    0.71530    0.53160    1.000
    C22      C        0.23470    0.86740    0.56970    1.000
    H16      H        0.22940    0.86330    0.52880    1.000
    C23      C        0.18300    0.93960    0.59550    1.000
    H17      H        0.14250    0.98190    0.57180    1.000
    C24      C        0.18950    0.95120    0.65670    1.000
    C25      C        0.25070    0.88750    0.68870    1.000
    H18      H        0.25770    0.89360    0.72970    1.000
    C26      C        0.30210    0.81490    0.66240    1.000
    H19      H        0.34340    0.77410    0.68590    1.000
    C27      C        0.29430    0.80100    0.60280    1.000
    C28      C        0.13370    0.02940    0.68490    1.000
    C29      C        0.05720    0.05600    0.65390    1.000
    H20      H        0.04360    0.03080    0.61470    1.000
    C30      C        0.00420    0.12100    0.68350    1.000
    H21      H        0.95450    0.13810    0.66430    1.000
    C31      C        0.02590    0.16210    0.74350    1.000
    C32      C        0.09720    0.14000    0.76780    1.000
    H22      H        0.11360    0.16890    0.80620    1.000
    C33      C        0.14930    0.07400    0.73770    1.000
    H23      H        0.19920    0.06150    0.75740    1.000
    C34      C        0.96750    0.23590    0.77410    1.000
    C35      C        0.98170    0.16230    0.88100    1.000
    H24      H        0.01850    0.22430    0.89660    1.000
    C36      C        0.90390    0.00680    0.87070    1.000
    H25      H        0.87370    0.93550    0.87930    1.000
    C37      C        0.09600    0.12900    0.66330    1.000
    C38      C        0.03940    0.19300    0.69030    1.000
    C39      C        0.07960    0.06400    0.77680    1.000
    C40      C        0.13230    0.00100    0.74990    1.000
    H26      H        0.10570    0.16190    0.62740    1.000
    H27      H        0.01040    0.26000    0.66970    1.000
    H28      H        0.07660    0.04680    0.81630    1.000
    H29      H        0.16710    0.94150    0.77050    1.000
    Co2      Co       0.34066    0.31017    0.83983    1.000
    N10      N        0.32280    0.31050    0.74910    1.000
    N11      N        0.27880    0.37150    0.65660    1.000
    N12      N        0.31880    0.25820    0.65670    1.000
    N13      N        0.45130    0.31430    0.88480    1.000
    N14      N        0.55450    0.38490    0.94560    1.000
    N15      N        0.57170    0.27410    0.91670    1.000
    N16      N        0.05030    0.65790    0.67530    1.000
    N17      N        0.09970    0.55650    0.68310    1.000
    N18      N        0.04530    0.56810    0.58790    1.000
    O7       O        0.36160    0.56050    0.82950    1.000
    O8       O        0.27510    0.45460    0.86924    1.000
    O9       O        0.36420    0.05790    0.82724    1.000
    O10      O        0.27751    0.16430    0.86906    1.000
    O11      O        0.09230    0.93020    0.96540    1.000
    O12      O        0.07390    0.71220    0.95569    1.000
    C41      C        0.30470    0.56200    0.85510    1.000
    C42      C        0.27060    0.69030    0.87050    1.000
    C43      C        0.30280    0.80950    0.85490    1.000
    H30      H        0.34470    0.80830    0.83440    1.000
    C44      C        0.27250    0.92890    0.86988    1.000
    C45      C        0.30690    0.05660    0.85360    1.000
    C46      C        0.21050    0.93010    0.90080    1.000
    H31      H        0.19060    0.01060    0.91140    1.000
    C47      C        0.17780    0.81220    0.91610    1.000
    C48      C        0.20800    0.69290    0.90040    1.000
    H32      H        0.18590    0.61370    0.91010    1.000
    C49      C        0.10890    0.81630    0.94860    1.000
    C50      C        0.28250    0.39970    0.71260    1.000
    H33      H        0.25950    0.47450    0.72610    1.000
    C51      C        0.34380    0.22380    0.71130    1.000
    H34      H        0.37270    0.14800    0.72210    1.000
    C52      C        0.33070    0.19620    0.60160    1.000
    H35      H        0.28130    0.18340    0.57680    1.000
    H36      H        0.35430    0.10980    0.60970    1.000
    C53      C        0.38250    0.28170    0.56910    1.000
    C54      C        0.45970    0.29000    0.58640    1.000
    H37      H        0.48260    0.23640    0.61720    1.000
    C55      C        0.50490    0.37420    0.56020    1.000
    H38      H        0.55750    0.37740    0.57410    1.000
    C56      C        0.47570    0.45410    0.51410    1.000
    C57      C        0.39750    0.44400    0.49690    1.000
    H39      H        0.37460    0.49660    0.46580    1.000
    C58      C        0.35130    0.35930    0.52340    1.000
    H40      H        0.29860    0.35550    0.50990    1.000
    C59      C        0.48240    0.40440    0.92540    1.000
    H41      H        0.45420    0.47450    0.93770    1.000
    C60      C        0.51080    0.23440    0.88170    1.000
    H42      H        0.50900    0.15980    0.85770    1.000
    C61      C        0.65020    0.21950    0.92640    1.000
    H43      H        0.64900    0.12970    0.91100    1.000
    H44      H        0.66850    0.21530    0.96840    1.000
    C62      C        0.76530    0.36740    0.93030    1.000
    H45      H        0.77060    0.36330    0.97120    1.000
    C63      C        0.81700    0.43960    0.90450    1.000
    H46      H        0.85750    0.48190    0.92820    1.000
    C64      C        0.81050    0.45120    0.84330    1.000
    C65      C        0.74930    0.38750    0.81130    1.000
    H47      H        0.74230    0.39360    0.77030    1.000
    C66      C        0.69790    0.31490    0.83760    1.000
    H48      H        0.65660    0.27410    0.81410    1.000
    C67      C        0.70570    0.30100    0.89720    1.000
    C68      C        0.86630    0.52940    0.81510    1.000
    C69      C        0.94280    0.55600    0.84610    1.000
    H49      H        0.95640    0.53080    0.88530    1.000
    C70      C        0.99580    0.62100    0.81650    1.000
    H50      H        0.04550    0.63810    0.83570    1.000
    C71      C        0.97410    0.66210    0.75650    1.000
    C72      C        0.90280    0.64000    0.73220    1.000
    H51      H        0.88640    0.66890    0.69380    1.000
    C73      C        0.85070    0.57400    0.76230    1.000
    H52      H        0.80080    0.56150    0.74260    1.000
    C74      C        0.03250    0.73590    0.72590    1.000
    C75      C        0.01830    0.66230    0.61900    1.000
    H53      H        0.98150    0.72430    0.60340    1.000
    C76      C        0.09610    0.50680    0.62930    1.000
    H54      H        0.12630    0.43550    0.62070    1.000
    C77      C        0.90400    0.62900    0.83670    1.000
    C78      C        0.96060    0.69300    0.80970    1.000
    C79      C        0.92040    0.56400    0.72320    1.000
    C80      C        0.86770    0.50100    0.75010    1.000
    H55      H        0.89430    0.66190    0.87260    1.000
    H56      H        0.98960    0.76000    0.83030    1.000
    H57      H        0.92340    0.54680    0.68370    1.000
    H58      H        0.83290    0.44150    0.72950    1.000
    Co3      Co       0.34066    0.18983    0.33983    1.000
    N19      N        0.32280    0.18950    0.24910    1.000
    N20      N        0.27880    0.12850    0.15660    1.000
    N21      N        0.31880    0.24180    0.15670    1.000
    N22      N        0.45130    0.18570    0.38480    1.000
    N23      N        0.55450    0.11510    0.44560    1.000
    N24      N        0.57170    0.22590    0.41670    1.000
    N25      N        0.05030    0.84210    0.17530    1.000
    N26      N        0.09970    0.94350    0.18310    1.000
    N27      N        0.04530    0.93190    0.08790    1.000
    O13      O        0.36160    0.93950    0.32950    1.000
    O14      O        0.27510    0.04540    0.36924    1.000
    O15      O        0.36420    0.44210    0.32724    1.000
    O16      O        0.27751    0.33570    0.36906    1.000
    O17      O        0.09230    0.56980    0.46540    1.000
    O18      O        0.07390    0.78780    0.45569    1.000
    C81      C        0.30470    0.93800    0.35510    1.000
    C82      C        0.27060    0.80970    0.37050    1.000
    C83      C        0.30280    0.69050    0.35490    1.000
    H59      H        0.34470    0.69170    0.33440    1.000
    C84      C        0.27250    0.57110    0.36988    1.000
    C85      C        0.30690    0.44340    0.35360    1.000
    C86      C        0.21050    0.56990    0.40080    1.000
    H60      H        0.19060    0.48940    0.41140    1.000
    C87      C        0.17780    0.68780    0.41610    1.000
    C88      C        0.20800    0.80710    0.40040    1.000
    H61      H        0.18590    0.88630    0.41010    1.000
    C89      C        0.10890    0.68370    0.44860    1.000
    C90      C        0.28250    0.10030    0.21260    1.000
    H62      H        0.25950    0.02550    0.22610    1.000
    C91      C        0.34380    0.27620    0.21130    1.000
    H63      H        0.37270    0.35200    0.22210    1.000
    C92      C        0.33070    0.30380    0.10160    1.000
    H64      H        0.28130    0.31660    0.07680    1.000
    H65      H        0.35430    0.39020    0.10970    1.000
    C93      C        0.38250    0.21830    0.06910    1.000
    C94      C        0.45970    0.21000    0.08640    1.000
    H66      H        0.48260    0.26360    0.11720    1.000
    C95      C        0.50490    0.12580    0.06020    1.000
    H67      H        0.55750    0.12260    0.07410    1.000
    C96      C        0.47570    0.04590    0.01410    1.000
    C97      C        0.39750    0.05600    0.99690    1.000
    H68      H        0.37460    0.00340    0.96580    1.000
    C98      C        0.35130    0.14070    0.02340    1.000
    H69      H        0.29860    0.14450    0.00990    1.000
    C99      C        0.48240    0.09560    0.42540    1.000
    H70      H        0.45420    0.02550    0.43770    1.000
    C100     C        0.51080    0.26560    0.38170    1.000
    H71      H        0.50900    0.34020    0.35770    1.000
    C101     C        0.65020    0.28050    0.42640    1.000
    H72      H        0.64900    0.37030    0.41100    1.000
    H73      H        0.66850    0.28470    0.46840    1.000
    C102     C        0.76530    0.13260    0.43030    1.000
    H74      H        0.77060    0.13670    0.47120    1.000
    C103     C        0.81700    0.06040    0.40450    1.000
    H75      H        0.85750    0.01810    0.42820    1.000
    C104     C        0.81050    0.04880    0.34330    1.000
    C105     C        0.74930    0.11250    0.31130    1.000
    H76      H        0.74230    0.10640    0.27030    1.000
    C106     C        0.69790    0.18510    0.33760    1.000
    H77      H        0.65660    0.22590    0.31410    1.000
    C107     C        0.70570    0.19900    0.39720    1.000
    C108     C        0.86630    0.97060    0.31510    1.000
    C109     C        0.94280    0.94400    0.34610    1.000
    H78      H        0.95640    0.96920    0.38530    1.000
    C110     C        0.99580    0.87900    0.31650    1.000
    H79      H        0.04550    0.86190    0.33570    1.000
    C111     C        0.97410    0.83790    0.25650    1.000
    C112     C        0.90280    0.86000    0.23220    1.000
    H80      H        0.88640    0.83110    0.19380    1.000
    C113     C        0.85070    0.92600    0.26230    1.000
    H81      H        0.80080    0.93850    0.24260    1.000
    C114     C        0.03250    0.76410    0.22590    1.000
    C115     C        0.01830    0.83770    0.11900    1.000
    H82      H        0.98150    0.77570    0.10340    1.000
    C116     C        0.09610    0.99320    0.12930    1.000
    H83      H        0.12630    0.06450    0.12070    1.000
    C117     C        0.90400    0.87100    0.33670    1.000
    C118     C        0.96060    0.80700    0.30970    1.000
    C119     C        0.92040    0.93600    0.22320    1.000
    C120     C        0.86770    0.99900    0.25010    1.000
    H84      H        0.89430    0.83810    0.37260    1.000
    H85      H        0.98960    0.74000    0.33030    1.000
    H86      H        0.92340    0.95320    0.18370    1.000
    H87      H        0.83290    0.05850    0.22950    1.000
    Co4      Co       0.65934    0.68983    0.16017    1.000
    N28      N        0.67720    0.68950    0.25090    1.000
    N29      N        0.72120    0.62850    0.34340    1.000
    N30      N        0.68120    0.74180    0.34330    1.000
    N31      N        0.54870    0.68570    0.11520    1.000
    N32      N        0.44550    0.61510    0.05440    1.000
    N33      N        0.42830    0.72590    0.08330    1.000
    N34      N        0.94970    0.34210    0.32470    1.000
    N35      N        0.90030    0.44350    0.31690    1.000
    N36      N        0.95470    0.43190    0.41210    1.000
    O19      O        0.63840    0.43950    0.17050    1.000
    O20      O        0.72490    0.54540    0.13076    1.000
    O21      O        0.63580    0.94210    0.17276    1.000
    O22      O        0.72249    0.83570    0.13094    1.000
    O23      O        0.90770    0.06980    0.03460    1.000
    O24      O        0.92610    0.28780    0.04431    1.000
    C121     C        0.69530    0.43800    0.14490    1.000
    C122     C        0.72940    0.30970    0.12950    1.000
    C123     C        0.69720    0.19050    0.14510    1.000
    H88      H        0.65530    0.19170    0.16560    1.000
    C124     C        0.72750    0.07110    0.13012    1.000
    C125     C        0.69310    0.94340    0.14640    1.000
    C126     C        0.78950    0.06990    0.09920    1.000
    H89      H        0.80940    0.98940    0.08860    1.000
    C127     C        0.82220    0.18780    0.08390    1.000
    C128     C        0.79200    0.30710    0.09960    1.000
    H90      H        0.81410    0.38630    0.08990    1.000
    C129     C        0.89110    0.18370    0.05140    1.000
    C130     C        0.71750    0.60030    0.28740    1.000
    H91      H        0.74050    0.52550    0.27390    1.000
    C131     C        0.65620    0.77620    0.28870    1.000
    H92      H        0.62730    0.85200    0.27790    1.000
    C132     C        0.66930    0.80380    0.39840    1.000
    H93      H        0.71870    0.81660    0.42320    1.000
    H94      H        0.64570    0.89020    0.39030    1.000
    C133     C        0.61750    0.71830    0.43090    1.000
    C134     C        0.54030    0.71000    0.41360    1.000
    H95      H        0.51740    0.76360    0.38280    1.000
    C135     C        0.49510    0.62580    0.43980    1.000
    H96      H        0.44250    0.62260    0.42590    1.000
    C136     C        0.52430    0.54590    0.48590    1.000
    C137     C        0.60250    0.55600    0.50310    1.000
    H97      H        0.62540    0.50340    0.53420    1.000
    C138     C        0.64870    0.64070    0.47660    1.000
    H98      H        0.70140    0.64450    0.49010    1.000
    C139     C        0.51760    0.59560    0.07460    1.000
    H99      H        0.54580    0.52550    0.06230    1.000
    C140     C        0.48920    0.76560    0.11830    1.000
    H100     H        0.49100    0.84020    0.14230    1.000
    C141     C        0.34980    0.78050    0.07360    1.000
    H101     H        0.35100    0.87030    0.08900    1.000
    H102     H        0.33150    0.78470    0.03160    1.000
    C142     C        0.23470    0.63260    0.06970    1.000
    H103     H        0.22940    0.63670    0.02880    1.000
    C143     C        0.18300    0.56040    0.09550    1.000
    H104     H        0.14250    0.51810    0.07180    1.000
    C144     C        0.18950    0.54880    0.15670    1.000
    C145     C        0.25070    0.61250    0.18870    1.000
    H105     H        0.25770    0.60640    0.22970    1.000
    C146     C        0.30210    0.68510    0.16240    1.000
    H106     H        0.34340    0.72590    0.18590    1.000
    C147     C        0.29430    0.69900    0.10280    1.000
    C148     C        0.13370    0.47060    0.18490    1.000
    C149     C        0.05720    0.44400    0.15390    1.000
    H107     H        0.04360    0.46920    0.11470    1.000
    C150     C        0.00420    0.37900    0.18350    1.000
    H108     H        0.95450    0.36190    0.16430    1.000
    C151     C        0.02590    0.33790    0.24350    1.000
    C152     C        0.09720    0.36000    0.26780    1.000
    H109     H        0.11360    0.33110    0.30620    1.000
    C153     C        0.14930    0.42600    0.23770    1.000
    H110     H        0.19920    0.43850    0.25740    1.000
    C154     C        0.96750    0.26410    0.27410    1.000
    C155     C        0.98170    0.33770    0.38100    1.000
    H111     H        0.01850    0.27570    0.39660    1.000
    C156     C        0.90390    0.49320    0.37070    1.000
    H112     H        0.87370    0.56450    0.37930    1.000
    C157     C        0.09600    0.37100    0.16330    1.000
    C158     C        0.03940    0.30700    0.19030    1.000
    C159     C        0.07960    0.43600    0.27680    1.000
    C160     C        0.13230    0.49900    0.24990    1.000
    H113     H        0.10570    0.33810    0.12740    1.000
    H114     H        0.01040    0.24000    0.16970    1.000
    H115     H        0.07660    0.45320    0.31630    1.000
    H116     H        0.16710    0.55850    0.27050    1.000
    Co5      Co       0.00000    0.50000    0.50000    1.000
    Co6      Co       0.00000    0.00000    0.00000    1.000
