data_functionalizedCrystal
_audit_creation_method	'EQeq! by Chris Wilmer'
_symmetry_space_group_name_H-M	'P1'
_symmetry_Int_Tables_number	1
_symmetry_cell_setting	triclinic
loop_
_symmetry_equiv_pos_as_xyz
  x,y,z
_cell_length_a	18.3139
_cell_length_b	18.3139
_cell_length_c	21.6853
_cell_angle_alpha	110.383
_cell_angle_beta	110.383
_cell_angle_gamma	100.09
loop_
_atom_site_label
_atom_site_type_symbol
_atom_site_fract_x
_atom_site_fract_y
_atom_site_fract_z
_atom_site_charge
Mof_La	La	0.14669	0.39669	0.75	2.325
Mof_La	La	0.60331	0.85331	0.75	2.325
Mof_La	La	0.85331	0.60331	0.25	2.325
Mof_La	La	0.39669	0.14669	0.25	2.325
Mof_Co	Co	0.64138	0.35862	0.75	1.169
Mof_Co	Co	0.10862	0.89138	0.75	1.169
Mof_Co	Co	0.35862	0.64138	0.25	1.169
Mof_Co	Co	0.89138	0.10862	0.25	1.169
Mof_H 	H 	0.8209	0.4109	0.8626	0.007
Mof_H 	H 	0.9445	0.4107	0.857	0.077
Mof_H 	H 	0.827	0.325	0.638	0.073
Mof_H 	H 	0.7073	0.3017	0.545	0.061
Mof_H 	H 	0.4629	0.2639	0.4848	0.063
Mof_H 	H 	0.4887	0.3031	0.6064	0.014
Mof_H 	H 	0.0088	0.7594	0.7732	0.006
Mof_H 	H 	0.0182	0.635	0.7736	0.074
Mof_H 	H 	0.2292	0.6776	0.7504	0.079
Mof_H 	H 	0.0417	0.9517	0.8626	0.008
Mof_H 	H 	0.9125	0.9463	0.857	0.076
Mof_H 	H 	0.811	0.813	0.638	0.073
Mof_H 	H 	0.8377	0.7433	0.545	0.061
Mof_H 	H 	0.0219	0.7209	0.4848	0.063
Mof_H 	H 	0.1177	0.8033	0.6064	0.014
Mof_H 	H 	0.7644	0.5138	0.7732	0.006
Mof_H 	H 	0.7554	0.6386	0.7736	0.074
Mof_H 	H 	0.5212	0.5728	0.7504	0.079
Mof_H 	H 	0.5891	0.1791	0.6374	0.007
Mof_H 	H 	0.5893	0.0555	0.643	0.077
Mof_H 	H 	0.675	0.173	0.862	0.073
Mof_H 	H 	0.6983	0.2927	0.955	0.061
Mof_H 	H 	0.7361	0.5371	0.0152	0.063
Mof_H 	H 	0.6969	0.5113	0.8936	0.014
Mof_H 	H 	0.2406	0.9912	0.7268	0.006
Mof_H 	H 	0.365	0.9818	0.7264	0.074
Mof_H 	H 	0.3224	0.7708	0.7496	0.079
Mof_H 	H 	0.0483	0.9583	0.6374	0.008
Mof_H 	H 	0.0537	0.0875	0.643	0.076
Mof_H 	H 	0.187	0.189	0.862	0.073
Mof_H 	H 	0.2567	0.1623	0.955	0.061
Mof_H 	H 	0.2791	0.9781	0.0152	0.062
Mof_H 	H 	0.1967	0.8823	0.8936	0.015
Mof_H 	H 	0.4862	0.2356	0.7268	0.006
Mof_H 	H 	0.3614	0.2446	0.7264	0.074
Mof_H 	H 	0.4272	0.4788	0.7496	0.079
Mof_H 	H 	0.1791	0.5891	0.1374	0.007
Mof_H 	H 	0.0555	0.5893	0.143	0.077
Mof_H 	H 	0.173	0.675	0.362	0.073
Mof_H 	H 	0.2927	0.6983	0.455	0.061
Mof_H 	H 	0.5371	0.7361	0.5152	0.063
Mof_H 	H 	0.5113	0.6969	0.3936	0.014
Mof_H 	H 	0.9912	0.2406	0.2268	0.006
Mof_H 	H 	0.9818	0.365	0.2264	0.074
Mof_H 	H 	0.7708	0.3224	0.2496	0.079
Mof_H 	H 	0.9583	0.0483	0.1374	0.008
Mof_H 	H 	0.0875	0.0537	0.143	0.076
Mof_H 	H 	0.189	0.187	0.362	0.073
Mof_H 	H 	0.1623	0.2567	0.455	0.061
Mof_H 	H 	0.9781	0.2791	0.5152	0.063
Mof_H 	H 	0.8823	0.1967	0.3936	0.014
Mof_H 	H 	0.2356	0.4862	0.2268	0.006
Mof_H 	H 	0.2446	0.3614	0.2264	0.074
Mof_H 	H 	0.4788	0.4272	0.2496	0.079
Mof_H 	H 	0.4109	0.8209	0.3626	0.007
Mof_H 	H 	0.4107	0.9445	0.357	0.077
Mof_H 	H 	0.325	0.827	0.138	0.073
Mof_H 	H 	0.3017	0.7073	0.045	0.061
Mof_H 	H 	0.2639	0.4629	0.9848	0.063
Mof_H 	H 	0.3031	0.4887	0.1064	0.014
Mof_H 	H 	0.7594	0.0088	0.2732	0.006
Mof_H 	H 	0.635	0.0182	0.2736	0.074
Mof_H 	H 	0.6776	0.2292	0.2504	0.079
Mof_H 	H 	0.9517	0.0417	0.3626	0.008
Mof_H 	H 	0.9463	0.9125	0.357	0.076
Mof_H 	H 	0.813	0.811	0.138	0.073
Mof_H 	H 	0.7433	0.8377	0.045	0.061
Mof_H 	H 	0.7209	0.0219	0.9848	0.062
Mof_H 	H 	0.8033	0.1177	0.1064	0.015
Mof_H 	H 	0.5138	0.7644	0.2732	0.006
Mof_H 	H 	0.6386	0.7554	0.2736	0.074
Mof_H 	H 	0.5728	0.5212	0.2504	0.079
Mof_C 	C 	0.8218	0.3928	0.8162	0.058
Mof_C 	C 	0.8957	0.3929	0.8132	-0.081
Mof_C 	C 	0.8986	0.368	0.7488	-0.003
Mof_C 	C 	0.8262	0.3426	0.6844	-0.075
Mof_C 	C 	0.75284	0.34364	0.69028	0.049
Mof_C 	C 	0.6732	0.3208	0.6284	0.028
Mof_C 	C 	0.6618	0.3006	0.5566	-0.044
Mof_C 	C 	0.58192	0.27872	0.50204	-0.056
Mof_C 	C 	0.5176	0.2792	0.5212	-0.044
Mof_C 	C 	0.5332	0.3018	0.5936	0.041
Mof_C 	C 	0.97924	0.36644	0.74368	0.307
Mof_C 	C 	0.5689	0.2605	0.4248	0.386
Mof_C 	C 	0.053	0.7422	0.7672	0.058
Mof_C 	C 	0.0588	0.6684	0.7678	-0.079
Mof_C 	C 	0.1234	0.6422	0.7596	-0
Mof_C 	C 	0.1832	0.6926	0.7538	-0.067
Mof_C 	C 	0.1743	0.7667	0.7532	0.042
Mof_C 	C 	0.1292	0.5588	0.7568	0.304
Mof_C 	C 	0.9944	0.9234	0.8162	0.055
Mof_C 	C 	0.9175	0.9203	0.8132	-0.079
Mof_C 	C 	0.8502	0.8808	0.7488	-0.004
Mof_C 	C 	0.8582	0.8418	0.6844	-0.075
Mof_C 	C 	0.93744	0.84664	0.69028	0.049
Mof_C 	C 	0.9552	0.8076	0.6284	0.027
Mof_C 	C 	0.8948	0.756	0.5566	-0.043
Mof_C 	C 	0.92012	0.72332	0.50204	-0.057
Mof_C 	C 	0.0036	0.742	0.5212	-0.043
Mof_C 	C 	0.0604	0.7918	0.5936	0.04
Mof_C 	C 	0.76444	0.87724	0.74368	0.308
Mof_C 	C 	0.8559	0.6643	0.4248	0.387
Mof_C 	C 	0.7142	0.525	0.7672	0.058
Mof_C 	C 	0.709	0.5994	0.7678	-0.079
Mof_C 	C 	0.6362	0.6174	0.7596	-0
Mof_C 	C 	0.5706	0.5612	0.7538	-0.067
Mof_C 	C 	0.5789	0.4865	0.7532	0.042
Mof_C 	C 	0.6276	0.698	0.7568	0.304
Mof_C 	C 	0.6072	0.1782	0.6838	0.058
Mof_C 	C 	0.6071	0.1043	0.6868	-0.081
Mof_C 	C 	0.632	0.1014	0.7512	-0.003
Mof_C 	C 	0.6574	0.1738	0.8156	-0.075
Mof_C 	C 	0.65636	0.24716	0.80972	0.049
Mof_C 	C 	0.6792	0.3268	0.8716	0.028
Mof_C 	C 	0.6994	0.3382	0.9434	-0.043
Mof_C 	C 	0.72128	0.41808	0.99796	-0.057
Mof_C 	C 	0.7208	0.4824	0.9788	-0.044
Mof_C 	C 	0.6982	0.4668	0.9064	0.041
Mof_C 	C 	0.63356	0.02076	0.75632	0.308
Mof_C 	C 	0.7395	0.4311	0.0752	0.387
Mof_C 	C 	0.2578	0.947	0.7328	0.058
Mof_C 	C 	0.3316	0.9412	0.7322	-0.079
Mof_C 	C 	0.3578	0.8766	0.7404	-0
Mof_C 	C 	0.3074	0.8168	0.7462	-0.067
Mof_C 	C 	0.2333	0.8257	0.7468	0.042
Mof_C 	C 	0.4412	0.8708	0.7432	0.304
Mof_C 	C 	0.0766	0.0056	0.6838	0.055
Mof_C 	C 	0.0797	0.0825	0.6868	-0.079
Mof_C 	C 	0.1192	0.1498	0.7512	-0.004
Mof_C 	C 	0.1582	0.1418	0.8156	-0.075
Mof_C 	C 	0.15336	0.06256	0.80972	0.049
Mof_C 	C 	0.1924	0.0448	0.8716	0.027
Mof_C 	C 	0.244	0.1052	0.9434	-0.043
Mof_C 	C 	0.27668	0.07988	0.99796	-0.058
Mof_C 	C 	0.258	0.9964	0.9788	-0.042
Mof_C 	C 	0.2082	0.9396	0.9064	0.04
Mof_C 	C 	0.12276	0.23556	0.75632	0.308
Mof_C 	C 	0.3357	0.1441	0.0752	0.387
Mof_C 	C 	0.475	0.2858	0.7328	0.058
Mof_C 	C 	0.4006	0.291	0.7322	-0.079
Mof_C 	C 	0.3826	0.3638	0.7404	-0
Mof_C 	C 	0.4388	0.4294	0.7462	-0.067
Mof_C 	C 	0.5135	0.4211	0.7468	0.042
Mof_C 	C 	0.302	0.3724	0.7432	0.304
Mof_C 	C 	0.1782	0.6072	0.1838	0.058
Mof_C 	C 	0.1043	0.6071	0.1868	-0.081
Mof_C 	C 	0.1014	0.632	0.2512	-0.003
Mof_C 	C 	0.1738	0.6574	0.3156	-0.075
Mof_C 	C 	0.24716	0.65636	0.30972	0.049
Mof_C 	C 	0.3268	0.6792	0.3716	0.028
Mof_C 	C 	0.3382	0.6994	0.4434	-0.044
Mof_C 	C 	0.41808	0.72128	0.49796	-0.056
Mof_C 	C 	0.4824	0.7208	0.4788	-0.044
Mof_C 	C 	0.4668	0.6982	0.4064	0.041
Mof_C 	C 	0.02076	0.63356	0.25632	0.307
Mof_C 	C 	0.4311	0.7395	0.5752	0.386
Mof_C 	C 	0.947	0.2578	0.2328	0.058
Mof_C 	C 	0.9412	0.3316	0.2322	-0.079
Mof_C 	C 	0.8766	0.3578	0.2404	-0
Mof_C 	C 	0.8168	0.3074	0.2462	-0.067
Mof_C 	C 	0.8257	0.2333	0.2468	0.042
Mof_C 	C 	0.8708	0.4412	0.2432	0.304
Mof_C 	C 	0.0056	0.0766	0.1838	0.055
Mof_C 	C 	0.0825	0.0797	0.1868	-0.079
Mof_C 	C 	0.1498	0.1192	0.2512	-0.004
Mof_C 	C 	0.1418	0.1582	0.3156	-0.075
Mof_C 	C 	0.06256	0.15336	0.30972	0.049
Mof_C 	C 	0.0448	0.1924	0.3716	0.027
Mof_C 	C 	0.1052	0.244	0.4434	-0.043
Mof_C 	C 	0.07988	0.27668	0.49796	-0.057
Mof_C 	C 	0.9964	0.258	0.4788	-0.043
Mof_C 	C 	0.9396	0.2082	0.4064	0.04
Mof_C 	C 	0.23556	0.12276	0.25632	0.308
Mof_C 	C 	0.1441	0.3357	0.5752	0.387
Mof_C 	C 	0.2858	0.475	0.2328	0.058
Mof_C 	C 	0.291	0.4006	0.2322	-0.079
Mof_C 	C 	0.3638	0.3826	0.2404	-0
Mof_C 	C 	0.4294	0.4388	0.2462	-0.067
Mof_C 	C 	0.4211	0.5135	0.2468	0.042
Mof_C 	C 	0.3724	0.302	0.2432	0.304
Mof_C 	C 	0.3928	0.8218	0.3162	0.058
Mof_C 	C 	0.3929	0.8957	0.3132	-0.081
Mof_C 	C 	0.368	0.8986	0.2488	-0.003
Mof_C 	C 	0.3426	0.8262	0.1844	-0.075
Mof_C 	C 	0.34364	0.75284	0.19028	0.049
Mof_C 	C 	0.3208	0.6732	0.1284	0.028
Mof_C 	C 	0.3006	0.6618	0.0566	-0.043
Mof_C 	C 	0.27872	0.58192	0.00204	-0.057
Mof_C 	C 	0.2792	0.5176	0.0212	-0.044
Mof_C 	C 	0.3018	0.5332	0.0936	0.041
Mof_C 	C 	0.36644	0.97924	0.24368	0.308
Mof_C 	C 	0.2605	0.5689	0.9248	0.387
Mof_C 	C 	0.7422	0.053	0.2672	0.058
Mof_C 	C 	0.6684	0.0588	0.2678	-0.079
Mof_C 	C 	0.6422	0.1234	0.2596	-0
Mof_C 	C 	0.6926	0.1832	0.2538	-0.067
Mof_C 	C 	0.7667	0.1743	0.2532	0.042
Mof_C 	C 	0.5588	0.1292	0.2568	0.304
Mof_C 	C 	0.9234	0.9944	0.3162	0.055
Mof_C 	C 	0.9203	0.9175	0.3132	-0.079
Mof_C 	C 	0.8808	0.8502	0.2488	-0.004
Mof_C 	C 	0.8418	0.8582	0.1844	-0.075
Mof_C 	C 	0.84664	0.93744	0.19028	0.049
Mof_C 	C 	0.8076	0.9552	0.1284	0.027
Mof_C 	C 	0.756	0.8948	0.0566	-0.043
Mof_C 	C 	0.72332	0.92012	0.00204	-0.058
Mof_C 	C 	0.742	0.0036	0.0212	-0.042
Mof_C 	C 	0.7918	0.0604	0.0936	0.04
Mof_C 	C 	0.87724	0.76444	0.24368	0.308
Mof_C 	C 	0.6643	0.8559	0.9248	0.387
Mof_C 	C 	0.525	0.7142	0.2672	0.058
Mof_C 	C 	0.5994	0.709	0.2678	-0.079
Mof_C 	C 	0.6174	0.6362	0.2596	-0
Mof_C 	C 	0.5612	0.5706	0.2538	-0.067
Mof_C 	C 	0.4865	0.5789	0.2532	0.042
Mof_C 	C 	0.698	0.6276	0.2568	0.304
Mof_N 	N 	0.75113	0.36793	0.75546	-0.249
Mof_N 	N 	0.609	0.3218	0.6464	-0.244
Mof_N 	N 	0.10929	0.79029	0.75858	-0.25
Mof_N 	N 	0.00433	0.88753	0.75546	-0.248
Mof_N 	N 	0.0374	0.8246	0.6464	-0.243
Mof_N 	N 	0.64929	0.46829	0.75858	-0.25
Mof_N 	N 	0.63207	0.24887	0.74454	-0.249
Mof_N 	N 	0.6782	0.391	0.8536	-0.244
Mof_N 	N 	0.20971	0.89071	0.74142	-0.25
Mof_N 	N 	0.11247	0.99567	0.74454	-0.248
Mof_N 	N 	0.1754	0.9626	0.8536	-0.243
Mof_N 	N 	0.53171	0.35071	0.74142	-0.25
Mof_N 	N 	0.24887	0.63207	0.24454	-0.249
Mof_N 	N 	0.391	0.6782	0.3536	-0.244
Mof_N 	N 	0.89071	0.20971	0.24142	-0.25
Mof_N 	N 	0.99567	0.11247	0.24454	-0.248
Mof_N 	N 	0.9626	0.1754	0.3536	-0.243
Mof_N 	N 	0.35071	0.53171	0.24142	-0.25
Mof_N 	N 	0.36793	0.75113	0.25546	-0.249
Mof_N 	N 	0.3218	0.609	0.1464	-0.244
Mof_N 	N 	0.79029	0.10929	0.25858	-0.25
Mof_N 	N 	0.88753	0.00433	0.25546	-0.248
Mof_N 	N 	0.8246	0.0374	0.1464	-0.243
Mof_N 	N 	0.46829	0.64929	0.25858	-0.25
Mof_O 	O 	0.03789	0.37569	0.79878	-0.402
Mof_O 	O 	0.98383	0.35823	0.68486	-0.382
Mof_O 	O 	0.63172	0.27572	0.41304	-0.259
Mof_O 	O 	0.49519	0.23199	0.37778	-0.484
Mof_O 	O 	0.09	0.5254	0.784	-0.362
Mof_O 	O 	0.17251	0.53051	0.73082	-0.393
Mof_O 	O 	0.76089	0.92309	0.79878	-0.402
Mof_O 	O 	0.70103	0.82663	0.68486	-0.382
Mof_O 	O 	0.78132	0.63732	0.41304	-0.259
Mof_O 	O 	0.88259	0.64579	0.37778	-0.484
Mof_O 	O 	0.694	0.7586	0.784	-0.363
Mof_O 	O 	0.55831	0.70031	0.73082	-0.393
Mof_O 	O 	0.62431	0.96211	0.70122	-0.402
Mof_O 	O 	0.64177	0.01617	0.81514	-0.382
Mof_O 	O 	0.72428	0.36828	0.08696	-0.259
Mof_O 	O 	0.76801	0.50481	0.12222	-0.484
Mof_O 	O 	0.4746	0.91	0.716	-0.363
Mof_O 	O 	0.46949	0.82749	0.76918	-0.393
Mof_O 	O 	0.07691	0.23911	0.70122	-0.402
Mof_O 	O 	0.17337	0.29897	0.81514	-0.382
Mof_O 	O 	0.36268	0.21868	0.08696	-0.26
Mof_O 	O 	0.35421	0.11741	0.12222	-0.484
Mof_O 	O 	0.2414	0.306	0.716	-0.363
Mof_O 	O 	0.29969	0.44169	0.76918	-0.393
Mof_O 	O 	0.96211	0.62431	0.20122	-0.402
Mof_O 	O 	0.01617	0.64177	0.31514	-0.382
Mof_O 	O 	0.36828	0.72428	0.58696	-0.259
Mof_O 	O 	0.50481	0.76801	0.62222	-0.484
Mof_O 	O 	0.91	0.4746	0.216	-0.362
Mof_O 	O 	0.82749	0.46949	0.26918	-0.393
Mof_O 	O 	0.23911	0.07691	0.20122	-0.402
Mof_O 	O 	0.29897	0.17337	0.31514	-0.382
Mof_O 	O 	0.21868	0.36268	0.58696	-0.259
Mof_O 	O 	0.11741	0.35421	0.62222	-0.484
Mof_O 	O 	0.306	0.2414	0.216	-0.363
Mof_O 	O 	0.44169	0.29969	0.26918	-0.393
Mof_O 	O 	0.37569	0.03789	0.29878	-0.402
Mof_O 	O 	0.35823	0.98383	0.18486	-0.382
Mof_O 	O 	0.27572	0.63172	0.91304	-0.259
Mof_O 	O 	0.23199	0.49519	0.87778	-0.484
Mof_O 	O 	0.5254	0.09	0.284	-0.363
Mof_O 	O 	0.53051	0.17251	0.23082	-0.393
Mof_O 	O 	0.92309	0.76089	0.29878	-0.402
Mof_O 	O 	0.82663	0.70103	0.18486	-0.382
Mof_O 	O 	0.63732	0.78132	0.91304	-0.26
Mof_O 	O 	0.64579	0.88259	0.87778	-0.484
Mof_O 	O 	0.7586	0.694	0.284	-0.363
Mof_O 	O 	0.70031	0.55831	0.23082	-0.393
_end
