data_functionalizedCrystal
_audit_creation_method	'EQeq! by Chris Wilmer'
_symmetry_space_group_name_H-M	'P1'
_symmetry_Int_Tables_number	1
_symmetry_cell_setting	triclinic
loop_
_symmetry_equiv_pos_as_xyz
  x,y,z
_cell_length_a	14.0599
_cell_length_b	14.0599
_cell_length_c	14.35
_cell_angle_alpha	60.9754
_cell_angle_beta	60.9754
_cell_angle_gamma	83.8911
loop_
_atom_site_label
_atom_site_type_symbol
_atom_site_fract_x
_atom_site_fract_y
_atom_site_fract_z
_atom_site_charge
Mof_Zn	Zn	0.98025	0.98025	0.91571	1.209
Mof_Zn	Zn	0.01975	0.01975	0.08429	1.209
Mof_Zn	Zn	0.90049	0.09951	0.5	1.209
Mof_Zn	Zn	0.09951	0.90049	0.5	1.209
Mof_H 	H 	0.623	0.9352	0.1157	0.053
Mof_H 	H 	0.4333	0.9167	0.2392	0.016
Mof_H 	H 	0.4924	0.0362	0.4099	0.024
Mof_H 	H 	0.6795	0.0335	0.3025	0.051
Mof_H 	H 	0.7642	0.066	0.7905	0.317
Mof_H 	H 	0.8549	0.1721	0.6925	0.318
Mof_H 	H 	0.8373	0.1029	0.8259	0.321
Mof_H 	H 	0.2752	0.0686	0.4928	0.277
Mof_H 	H 	0.0648	0.377	0.8843	0.054
Mof_H 	H 	0.0833	0.5667	0.7608	0.017
Mof_H 	H 	0.9638	0.5076	0.5901	0.024
Mof_H 	H 	0.9665	0.3205	0.6975	0.051
Mof_H 	H 	0.934	0.2358	0.2095	0.317
Mof_H 	H 	0.8279	0.1451	0.3075	0.318
Mof_H 	H 	0.8971	0.1627	0.1741	0.321
Mof_H 	H 	0.9314	0.7248	0.5072	0.277
Mof_H 	H 	0.377	0.0648	0.8843	0.054
Mof_H 	H 	0.5667	0.0833	0.7608	0.017
Mof_H 	H 	0.5076	0.9638	0.5901	0.024
Mof_H 	H 	0.3205	0.9665	0.6975	0.051
Mof_H 	H 	0.2358	0.934	0.2095	0.317
Mof_H 	H 	0.1451	0.8279	0.3075	0.318
Mof_H 	H 	0.1627	0.8971	0.1741	0.321
Mof_H 	H 	0.7248	0.9314	0.5072	0.277
Mof_H 	H 	0.9352	0.623	0.1157	0.054
Mof_H 	H 	0.9167	0.4333	0.2392	0.017
Mof_H 	H 	0.0362	0.4924	0.4099	0.024
Mof_H 	H 	0.0335	0.6795	0.3025	0.051
Mof_H 	H 	0.066	0.7642	0.7905	0.317
Mof_H 	H 	0.1721	0.8549	0.6925	0.318
Mof_H 	H 	0.1029	0.8373	0.8259	0.321
Mof_H 	H 	0.0686	0.2752	0.4928	0.277
Mof_C 	C 	0.7908	0.987	0.1257	0.392
Mof_C 	C 	0.6694	0.9846	0.1987	-0.066
Mof_C 	C 	0.5966	0.9524	0.178	-0.053
Mof_C 	C 	0.4822	0.9448	0.2496	0.036
Mof_C 	C 	0.4434	0.9784	0.3334	-0.161
Mof_C 	C 	0.5179	0.0129	0.3525	0.026
Mof_C 	C 	0.6308	0.0134	0.2862	-0.052
Mof_C 	C 	0.3206	0.9714	0.4101	0.518
Mof_C 	C 	0.9185	0.0311	0.7228	0.363
Mof_C 	C 	0.8365	0.0991	0.7613	-0.987
Mof_C 	C 	0.013	0.2092	0.8743	0.392
Mof_C 	C 	0.0154	0.3306	0.8013	-0.066
Mof_C 	C 	0.0476	0.4034	0.822	-0.053
Mof_C 	C 	0.0552	0.5178	0.7504	0.036
Mof_C 	C 	0.0216	0.5566	0.6666	-0.161
Mof_C 	C 	0.9871	0.4821	0.6475	0.026
Mof_C 	C 	0.9866	0.3692	0.7138	-0.052
Mof_C 	C 	0.0286	0.6794	0.5899	0.518
Mof_C 	C 	0.9689	0.0815	0.2772	0.363
Mof_C 	C 	0.9009	0.1635	0.2387	-0.987
Mof_C 	C 	0.2092	0.013	0.8743	0.392
Mof_C 	C 	0.3306	0.0154	0.8013	-0.066
Mof_C 	C 	0.4034	0.0476	0.822	-0.053
Mof_C 	C 	0.5178	0.0552	0.7504	0.036
Mof_C 	C 	0.5566	0.0216	0.6666	-0.161
Mof_C 	C 	0.4821	0.9871	0.6475	0.026
Mof_C 	C 	0.3692	0.9866	0.7138	-0.052
Mof_C 	C 	0.6794	0.0286	0.5899	0.518
Mof_C 	C 	0.0815	0.9689	0.2772	0.363
Mof_C 	C 	0.1635	0.9009	0.2387	-0.987
Mof_C 	C 	0.987	0.7908	0.1257	0.392
Mof_C 	C 	0.9846	0.6694	0.1987	-0.066
Mof_C 	C 	0.9524	0.5966	0.178	-0.053
Mof_C 	C 	0.9448	0.4822	0.2496	0.036
Mof_C 	C 	0.9784	0.4434	0.3334	-0.161
Mof_C 	C 	0.0129	0.5179	0.3525	0.026
Mof_C 	C 	0.0134	0.6308	0.2862	-0.052
Mof_C 	C 	0.9714	0.3206	0.4101	0.518
Mof_C 	C 	0.0311	0.9185	0.7228	0.363
Mof_C 	C 	0.0991	0.8365	0.7613	-0.987
Mof_N 	N 	0.9486	0.0228	0.6253	-0.311
Mof_N 	N 	0.9772	0.0514	0.3747	-0.311
Mof_N 	N 	0.0514	0.9772	0.3747	-0.311
Mof_N 	N 	0.0228	0.9486	0.6253	-0.311
Mof_N 	N 	0.9698	0.9698	0.7842	-0.373
Mof_N 	N 	0.0302	0.0302	0.2158	-0.373
Mof_O 	O 	0.8214	0.9732	0.035	-0.471
Mof_O 	O 	0.8512	0.0026	0.158	-0.485
Mof_O 	O 	0.2579	0.9279	0.4015	-0.55
Mof_O 	O 	0.289	0.0166	0.4746	-0.6
Mof_O 	O 	0.0268	0.1786	0.965	-0.471
Mof_O 	O 	0.9974	0.1488	0.842	-0.485
Mof_O 	O 	0.0721	0.7421	0.5985	-0.55
Mof_O 	O 	0.9834	0.711	0.5254	-0.6
Mof_O 	O 	0.1786	0.0268	0.965	-0.471
Mof_O 	O 	0.1488	0.9974	0.842	-0.485
Mof_O 	O 	0.7421	0.0721	0.5985	-0.55
Mof_O 	O 	0.711	0.9834	0.5254	-0.6
Mof_O 	O 	0.9732	0.8214	0.035	-0.471
Mof_O 	O 	0.0026	0.8512	0.158	-0.485
Mof_O 	O 	0.9279	0.2579	0.4015	-0.55
Mof_O 	O 	0.0166	0.289	0.4746	-0.6
_end
