# CIF file generated by openbabel 3.1.0, see https://openbabel.org
data_I
_chemical_name_common 'image0'
_cell_length_a 13.9152
_cell_length_b 13.9152
_cell_length_c 13.9152
_cell_angle_alpha 90
_cell_angle_beta 90
_cell_angle_gamma 90
_space_group_name_H-M_alt 'P 1'
_space_group_name_Hall 'P 1'
loop_
    _symmetry_equiv_pos_as_xyz
    x,y,z
loop_
    _atom_site_label
    _atom_site_type_symbol
    _atom_site_fract_x
    _atom_site_fract_y
    _atom_site_fract_z
    _atom_site_occupancy
    C1       C        0.65430    0.28970    0.20820    1.000
    C2       C        0.15430    0.78970    0.70820    1.000
    C3       C        0.34570    0.71030    0.20820    1.000
    C4       C        0.84570    0.21030    0.70820    1.000
    C5       C        0.34570    0.28970    0.79180    1.000
    C6       C        0.84570    0.78970    0.29180    1.000
    C7       C        0.65430    0.71030    0.79180    1.000
    C8       C        0.15430    0.21030    0.29180    1.000
    C9       C        0.20820    0.65430    0.28970    1.000
    C10      C        0.70820    0.15430    0.78970    1.000
    C11      C        0.20820    0.34570    0.71030    1.000
    C12      C        0.70820    0.84570    0.21030    1.000
    C13      C        0.79180    0.34570    0.28970    1.000
    C14      C        0.29180    0.84570    0.78970    1.000
    C15      C        0.79180    0.65430    0.71030    1.000
    C16      C        0.29180    0.15430    0.21030    1.000
    C17      C        0.28970    0.20820    0.65430    1.000
    C18      C        0.78970    0.70820    0.15430    1.000
    C19      C        0.71030    0.20820    0.34570    1.000
    C20      C        0.21030    0.70820    0.84570    1.000
    C21      C        0.28970    0.79180    0.34570    1.000
    C22      C        0.78970    0.29180    0.84570    1.000
    C23      C        0.71030    0.79180    0.65430    1.000
    C24      C        0.21030    0.29180    0.15430    1.000
    C25      C        0.28970    0.65430    0.79180    1.000
    C26      C        0.78970    0.15430    0.29180    1.000
    C27      C        0.71030    0.34570    0.79180    1.000
    C28      C        0.21030    0.84570    0.29180    1.000
    C29      C        0.28970    0.34570    0.20820    1.000
    C30      C        0.78970    0.84570    0.70820    1.000
    C31      C        0.71030    0.65430    0.20820    1.000
    C32      C        0.21030    0.15430    0.70820    1.000
    C33      C        0.65430    0.20820    0.71030    1.000
    C34      C        0.15430    0.70820    0.21030    1.000
    C35      C        0.34570    0.20820    0.28970    1.000
    C36      C        0.84570    0.70820    0.78970    1.000
    C37      C        0.34570    0.79180    0.71030    1.000
    C38      C        0.84570    0.29180    0.21030    1.000
    C39      C        0.65430    0.79180    0.28970    1.000
    C40      C        0.15430    0.29180    0.78970    1.000
    C41      C        0.20820    0.28970    0.34570    1.000
    C42      C        0.70820    0.78970    0.84570    1.000
    C43      C        0.20820    0.71030    0.65430    1.000
    C44      C        0.70820    0.21030    0.15430    1.000
    C45      C        0.79180    0.28970    0.65430    1.000
    C46      C        0.29180    0.78970    0.15430    1.000
    C47      C        0.79180    0.71030    0.34570    1.000
    C48      C        0.29180    0.21030    0.84570    1.000
    C49      C        0.34570    0.71030    0.79180    1.000
    C50      C        0.84570    0.21030    0.29180    1.000
    C51      C        0.65430    0.28970    0.79180    1.000
    C52      C        0.15430    0.78970    0.29180    1.000
    C53      C        0.65430    0.71030    0.20820    1.000
    C54      C        0.15430    0.21030    0.70820    1.000
    C55      C        0.34570    0.28970    0.20820    1.000
    C56      C        0.84570    0.78970    0.70820    1.000
    C57      C        0.79180    0.34570    0.71030    1.000
    C58      C        0.29180    0.84570    0.21030    1.000
    C59      C        0.79180    0.65430    0.28970    1.000
    C60      C        0.29180    0.15430    0.78970    1.000
    C61      C        0.20820    0.65430    0.71030    1.000
    C62      C        0.70820    0.15430    0.21030    1.000
    C63      C        0.20820    0.34570    0.28970    1.000
    C64      C        0.70820    0.84570    0.78970    1.000
    C65      C        0.71030    0.79180    0.34570    1.000
    C66      C        0.21030    0.29180    0.84570    1.000
    C67      C        0.28970    0.79180    0.65430    1.000
    C68      C        0.78970    0.29180    0.15430    1.000
    C69      C        0.71030    0.20820    0.65430    1.000
    C70      C        0.21030    0.70820    0.15430    1.000
    C71      C        0.28970    0.20820    0.34570    1.000
    C72      C        0.78970    0.70820    0.84570    1.000
    C73      C        0.71030    0.34570    0.20820    1.000
    C74      C        0.21030    0.84570    0.70820    1.000
    C75      C        0.28970    0.65430    0.20820    1.000
    C76      C        0.78970    0.15430    0.70820    1.000
    C77      C        0.71030    0.65430    0.79180    1.000
    C78      C        0.21030    0.15430    0.29180    1.000
    C79      C        0.28970    0.34570    0.79180    1.000
    C80      C        0.78970    0.84570    0.29180    1.000
    C81      C        0.34570    0.79180    0.28970    1.000
    C82      C        0.84570    0.29180    0.78970    1.000
    C83      C        0.65430    0.79180    0.71030    1.000
    C84      C        0.15430    0.29180    0.21030    1.000
    C85      C        0.65430    0.20820    0.28970    1.000
    C86      C        0.15430    0.70820    0.78970    1.000
    C87      C        0.34570    0.20820    0.71030    1.000
    C88      C        0.84570    0.70820    0.21030    1.000
    C89      C        0.79180    0.71030    0.65430    1.000
    C90      C        0.29180    0.21030    0.15430    1.000
    C91      C        0.79180    0.28970    0.34570    1.000
    C92      C        0.29180    0.78970    0.84570    1.000
    C93      C        0.20820    0.71030    0.34570    1.000
    C94      C        0.70820    0.21030    0.84570    1.000
    C95      C        0.20820    0.28970    0.65430    1.000
    C96      C        0.70820    0.78970    0.15430    1.000
    I1       I        0.72216    0.50000    0.50000    1.000
    I2       I        0.22216    0.00000    0.00000    1.000
    I3       I        0.27784    0.50000    0.50000    1.000
    I4       I        0.77784    0.00000    0.00000    1.000
    I5       I        0.50000    0.72216    0.50000    1.000
    I6       I        0.00000    0.22216    0.00000    1.000
    I7       I        0.50000    0.27784    0.50000    1.000
    I8       I        0.00000    0.77784    0.00000    1.000
    I9       I        0.50000    0.50000    0.72216    1.000
    I10      I        0.00000    0.00000    0.22216    1.000
    I11      I        0.50000    0.50000    0.27784    1.000
    I12      I        0.00000    0.00000    0.77784    1.000
    Cu1      Cu       0.60844    0.39156    0.39156    1.000
    N1       N        0.69520    0.30480    0.30480    1.000
    Cu2      Cu       0.10844    0.89156    0.89156    1.000
    N2       N        0.19520    0.80480    0.80480    1.000
    Cu3      Cu       0.39156    0.60844    0.39156    1.000
    N3       N        0.30480    0.69520    0.30480    1.000
    Cu4      Cu       0.89156    0.10844    0.89156    1.000
    N4       N        0.80480    0.19520    0.80480    1.000
    Cu5      Cu       0.39156    0.39156    0.60844    1.000
    N5       N        0.30480    0.30480    0.69520    1.000
    Cu6      Cu       0.89156    0.89156    0.10844    1.000
    N6       N        0.80480    0.80480    0.19520    1.000
    Cu7      Cu       0.60844    0.60844    0.60844    1.000
    N7       N        0.69520    0.69520    0.69520    1.000
    Cu8      Cu       0.10844    0.10844    0.10844    1.000
    N8       N        0.19520    0.19520    0.19520    1.000
    Cu9      Cu       0.39156    0.60844    0.60844    1.000
    N9       N        0.30480    0.69520    0.69520    1.000
    Cu10     Cu       0.89156    0.10844    0.10844    1.000
    N10      N        0.80480    0.19520    0.19520    1.000
    Cu11     Cu       0.60844    0.39156    0.60844    1.000
    N11      N        0.69520    0.30480    0.69520    1.000
    Cu12     Cu       0.10844    0.89156    0.10844    1.000
    N12      N        0.19520    0.80480    0.19520    1.000
    Cu13     Cu       0.39156    0.39156    0.39156    1.000
    N13      N        0.30480    0.30480    0.30480    1.000
    Cu14     Cu       0.89156    0.89156    0.89156    1.000
    N14      N        0.80480    0.80480    0.80480    1.000
    Cu15     Cu       0.60844    0.60844    0.39156    1.000
    N15      N        0.69520    0.69520    0.30480    1.000
    Cu16     Cu       0.10844    0.10844    0.89156    1.000
    N16      N        0.19520    0.19520    0.80480    1.000
    C97      C        0.75300    0.24700    0.36800    1.000
    C98      C        0.25300    0.74700    0.86800    1.000
    C99      C        0.24700    0.75300    0.36800    1.000
    C100     C        0.74700    0.25300    0.86800    1.000
    C101     C        0.24700    0.24700    0.63200    1.000
    C102     C        0.74700    0.74700    0.13200    1.000
    C103     C        0.75300    0.75300    0.63200    1.000
    C104     C        0.25300    0.25300    0.13200    1.000
    C105     C        0.36800    0.75300    0.24700    1.000
    C106     C        0.86800    0.25300    0.74700    1.000
    C107     C        0.36800    0.24700    0.75300    1.000
    C108     C        0.86800    0.74700    0.25300    1.000
    C109     C        0.63200    0.24700    0.24700    1.000
    C110     C        0.13200    0.74700    0.74700    1.000
    C111     C        0.63200    0.75300    0.75300    1.000
    C112     C        0.13200    0.25300    0.25300    1.000
    C113     C        0.24700    0.36800    0.75300    1.000
    C114     C        0.74700    0.86800    0.25300    1.000
    C115     C        0.75300    0.36800    0.24700    1.000
    C116     C        0.25300    0.86800    0.74700    1.000
    C117     C        0.24700    0.63200    0.24700    1.000
    C118     C        0.74700    0.13200    0.74700    1.000
    C119     C        0.75300    0.63200    0.75300    1.000
    C120     C        0.25300    0.13200    0.25300    1.000
    C121     C        0.24700    0.75300    0.63200    1.000
    C122     C        0.74700    0.25300    0.13200    1.000
    C123     C        0.75300    0.24700    0.63200    1.000
    C124     C        0.25300    0.74700    0.13200    1.000
    C125     C        0.24700    0.24700    0.36800    1.000
    C126     C        0.74700    0.74700    0.86800    1.000
    C127     C        0.75300    0.75300    0.36800    1.000
    C128     C        0.25300    0.25300    0.86800    1.000
    C129     C        0.75300    0.36800    0.75300    1.000
    C130     C        0.25300    0.86800    0.25300    1.000
    C131     C        0.24700    0.36800    0.24700    1.000
    C132     C        0.74700    0.86800    0.74700    1.000
    C133     C        0.24700    0.63200    0.75300    1.000
    C134     C        0.74700    0.13200    0.25300    1.000
    C135     C        0.75300    0.63200    0.24700    1.000
    C136     C        0.25300    0.13200    0.74700    1.000
    C137     C        0.36800    0.24700    0.24700    1.000
    C138     C        0.86800    0.74700    0.74700    1.000
    C139     C        0.36800    0.75300    0.75300    1.000
    C140     C        0.86800    0.25300    0.25300    1.000
    C141     C        0.63200    0.24700    0.75300    1.000
    C142     C        0.13200    0.74700    0.25300    1.000
    C143     C        0.63200    0.75300    0.24700    1.000
    C144     C        0.13200    0.25300    0.74700    1.000
