# CIF file generated by openbabel 3.1.0, see https://openbabel.org
data_I
_chemical_name_common 'image0'
_cell_length_a 19.2108
_cell_length_b 19.2108
_cell_length_c 19.2108
_cell_angle_alpha 90
_cell_angle_beta 90
_cell_angle_gamma 90
_space_group_name_H-M_alt 'P 1'
_space_group_name_Hall 'P 1'
loop_
    _symmetry_equiv_pos_as_xyz
    x,y,z
loop_
    _atom_site_label
    _atom_site_type_symbol
    _atom_site_fract_x
    _atom_site_fract_y
    _atom_site_fract_z
    _atom_site_occupancy
    Fe1      Fe       0.85955    0.25738    0.10740    1.000
    C1       C        0.76810    0.44310    0.82690    1.000
    H1       H        0.74240    0.48090    0.81090    1.000
    C2       C        0.77060    0.42960    0.89720    1.000
    H2       H        0.74660    0.45770    0.92850    1.000
    C3       C        0.80970    0.37340    0.92100    1.000
    C4       C        0.84410    0.33080    0.87440    1.000
    H3       H        0.87000    0.29320    0.89050    1.000
    C5       C        0.83990    0.34410    0.80330    1.000
    C6       C        0.80310    0.40150    0.77980    1.000
    H4       H        0.80190    0.41190    0.73250    1.000
    C7       C        0.81170    0.35700    0.99710    1.000
    C8       C        0.87100    0.29380    0.75330    1.000
    O1       O        0.84928    0.30658    0.01617    1.000
    O2       O        0.77604    0.39451    0.03761    1.000
    O3       O        0.86700    0.30826    0.68933    1.000
    O4       O        0.89845    0.23927    0.77714    1.000
    Fe2      Fe       0.64045    0.74262    0.60740    1.000
    C9       C        0.73190    0.55690    0.32690    1.000
    H5       H        0.75760    0.51910    0.31090    1.000
    C10      C        0.72940    0.57040    0.39720    1.000
    H6       H        0.75340    0.54230    0.42850    1.000
    C11      C        0.69030    0.62660    0.42100    1.000
    C12      C        0.65590    0.66920    0.37440    1.000
    H7       H        0.63000    0.70680    0.39050    1.000
    C13      C        0.66010    0.65590    0.30330    1.000
    C14      C        0.69690    0.59850    0.27980    1.000
    H8       H        0.69810    0.58810    0.23250    1.000
    C15      C        0.68830    0.64300    0.49710    1.000
    C16      C        0.62900    0.70620    0.25330    1.000
    O5       O        0.65072    0.69342    0.51617    1.000
    O6       O        0.72396    0.60549    0.53761    1.000
    O7       O        0.63300    0.69174    0.18933    1.000
    O8       O        0.60155    0.76073    0.27714    1.000
    Fe3      Fe       0.14045    0.75738    0.39260    1.000
    C17      C        0.23190    0.94310    0.67310    1.000
    H9       H        0.25760    0.98090    0.68910    1.000
    C18      C        0.22940    0.92960    0.60280    1.000
    H10      H        0.25340    0.95770    0.57150    1.000
    C19      C        0.19030    0.87340    0.57900    1.000
    C20      C        0.15590    0.83080    0.62560    1.000
    H11      H        0.13000    0.79320    0.60950    1.000
    C21      C        0.16010    0.84410    0.69670    1.000
    C22      C        0.19690    0.90150    0.72020    1.000
    H12      H        0.19810    0.91190    0.76750    1.000
    C23      C        0.18830    0.85700    0.50290    1.000
    C24      C        0.12900    0.79380    0.74670    1.000
    O9       O        0.15072    0.80658    0.48383    1.000
    O10      O        0.22396    0.89451    0.46239    1.000
    O11      O        0.13300    0.80826    0.81067    1.000
    O12      O        0.10155    0.73927    0.72286    1.000
    Fe4      Fe       0.35955    0.24262    0.89260    1.000
    C25      C        0.26810    0.05690    0.17310    1.000
    H13      H        0.24240    0.01910    0.18910    1.000
    C26      C        0.27060    0.07040    0.10280    1.000
    H14      H        0.24660    0.04230    0.07150    1.000
    C27      C        0.30970    0.12660    0.07900    1.000
    C28      C        0.34410    0.16920    0.12560    1.000
    H15      H        0.37000    0.20680    0.10950    1.000
    C29      C        0.33990    0.15590    0.19670    1.000
    C30      C        0.30310    0.09850    0.22020    1.000
    H16      H        0.30190    0.08810    0.26750    1.000
    C31      C        0.31170    0.14300    0.00290    1.000
    C32      C        0.37100    0.20620    0.24670    1.000
    O13      O        0.34928    0.19342    0.98383    1.000
    O14      O        0.27604    0.10549    0.96239    1.000
    O15      O        0.36700    0.19174    0.31067    1.000
    O16      O        0.39845    0.26073    0.22286    1.000
    Fe5      Fe       0.10740    0.85955    0.25738    1.000
    C33      C        0.82690    0.76810    0.44310    1.000
    H17      H        0.81090    0.74240    0.48090    1.000
    C34      C        0.89720    0.77060    0.42960    1.000
    H18      H        0.92850    0.74660    0.45770    1.000
    C35      C        0.92100    0.80970    0.37340    1.000
    C36      C        0.87440    0.84410    0.33080    1.000
    H19      H        0.89050    0.87000    0.29320    1.000
    C37      C        0.80330    0.83990    0.34410    1.000
    C38      C        0.77980    0.80310    0.40150    1.000
    H20      H        0.73250    0.80190    0.41190    1.000
    C39      C        0.99710    0.81170    0.35700    1.000
    C40      C        0.75330    0.87100    0.29380    1.000
    O17      O        0.01617    0.84928    0.30658    1.000
    O18      O        0.03761    0.77604    0.39451    1.000
    O19      O        0.68933    0.86700    0.30826    1.000
    O20      O        0.77714    0.89845    0.23927    1.000
    Fe6      Fe       0.60740    0.64045    0.74262    1.000
    C41      C        0.32690    0.73190    0.55690    1.000
    H21      H        0.31090    0.75760    0.51910    1.000
    C42      C        0.39720    0.72940    0.57040    1.000
    H22      H        0.42850    0.75340    0.54230    1.000
    C43      C        0.42100    0.69030    0.62660    1.000
    C44      C        0.37440    0.65590    0.66920    1.000
    H23      H        0.39050    0.63000    0.70680    1.000
    C45      C        0.30330    0.66010    0.65590    1.000
    C46      C        0.27980    0.69690    0.59850    1.000
    H24      H        0.23250    0.69810    0.58810    1.000
    C47      C        0.49710    0.68830    0.64300    1.000
    C48      C        0.25330    0.62900    0.70620    1.000
    O21      O        0.51617    0.65072    0.69342    1.000
    O22      O        0.53761    0.72396    0.60549    1.000
    O23      O        0.18933    0.63300    0.69174    1.000
    O24      O        0.27714    0.60155    0.76073    1.000
    Fe7      Fe       0.39260    0.14045    0.75738    1.000
    C49      C        0.67310    0.23190    0.94310    1.000
    H25      H        0.68910    0.25760    0.98090    1.000
    C50      C        0.60280    0.22940    0.92960    1.000
    H26      H        0.57150    0.25340    0.95770    1.000
    C51      C        0.57900    0.19030    0.87340    1.000
    C52      C        0.62560    0.15590    0.83080    1.000
    H27      H        0.60950    0.13000    0.79320    1.000
    C53      C        0.69670    0.16010    0.84410    1.000
    C54      C        0.72020    0.19690    0.90150    1.000
    H28      H        0.76750    0.19810    0.91190    1.000
    C55      C        0.50290    0.18830    0.85700    1.000
    C56      C        0.74670    0.12900    0.79380    1.000
    O25      O        0.48383    0.15072    0.80658    1.000
    O26      O        0.46239    0.22396    0.89451    1.000
    O27      O        0.81067    0.13300    0.80826    1.000
    O28      O        0.72286    0.10155    0.73927    1.000
    Fe8      Fe       0.89260    0.35955    0.24262    1.000
    C57      C        0.17310    0.26810    0.05690    1.000
    H29      H        0.18910    0.24240    0.01910    1.000
    C58      C        0.10280    0.27060    0.07040    1.000
    H30      H        0.07150    0.24660    0.04230    1.000
    C59      C        0.07900    0.30970    0.12660    1.000
    C60      C        0.12560    0.34410    0.16920    1.000
    H31      H        0.10950    0.37000    0.20680    1.000
    C61      C        0.19670    0.33990    0.15590    1.000
    C62      C        0.22020    0.30310    0.09850    1.000
    H32      H        0.26750    0.30190    0.08810    1.000
    C63      C        0.00290    0.31170    0.14300    1.000
    C64      C        0.24670    0.37100    0.20620    1.000
    O29      O        0.98383    0.34928    0.19342    1.000
    O30      O        0.96239    0.27604    0.10549    1.000
    O31      O        0.31067    0.36700    0.19174    1.000
    O32      O        0.22286    0.39845    0.26073    1.000
    Fe9      Fe       0.25738    0.10740    0.85955    1.000
    C65      C        0.44310    0.82690    0.76810    1.000
    H33      H        0.48090    0.81090    0.74240    1.000
    C66      C        0.42960    0.89720    0.77060    1.000
    H34      H        0.45770    0.92850    0.74660    1.000
    C67      C        0.37340    0.92100    0.80970    1.000
    C68      C        0.33080    0.87440    0.84410    1.000
    H35      H        0.29320    0.89050    0.87000    1.000
    C69      C        0.34410    0.80330    0.83990    1.000
    C70      C        0.40150    0.77980    0.80310    1.000
    H36      H        0.41190    0.73250    0.80190    1.000
    C71      C        0.35700    0.99710    0.81170    1.000
    C72      C        0.29380    0.75330    0.87100    1.000
    O33      O        0.30658    0.01617    0.84928    1.000
    O34      O        0.39451    0.03761    0.77604    1.000
    O35      O        0.30826    0.68933    0.86700    1.000
    O36      O        0.23927    0.77714    0.89845    1.000
    Fe10     Fe       0.74262    0.60740    0.64045    1.000
    C73      C        0.55690    0.32690    0.73190    1.000
    H37      H        0.51910    0.31090    0.75760    1.000
    C74      C        0.57040    0.39720    0.72940    1.000
    H38      H        0.54230    0.42850    0.75340    1.000
    C75      C        0.62660    0.42100    0.69030    1.000
    C76      C        0.66920    0.37440    0.65590    1.000
    H39      H        0.70680    0.39050    0.63000    1.000
    C77      C        0.65590    0.30330    0.66010    1.000
    C78      C        0.59850    0.27980    0.69690    1.000
    H40      H        0.58810    0.23250    0.69810    1.000
    C79      C        0.64300    0.49710    0.68830    1.000
    C80      C        0.70620    0.25330    0.62900    1.000
    O37      O        0.69342    0.51617    0.65072    1.000
    O38      O        0.60549    0.53761    0.72396    1.000
    O39      O        0.69174    0.18933    0.63300    1.000
    O40      O        0.76073    0.27714    0.60155    1.000
    Fe11     Fe       0.75738    0.39260    0.14045    1.000
    C81      C        0.94310    0.67310    0.23190    1.000
    H41      H        0.98090    0.68910    0.25760    1.000
    C82      C        0.92960    0.60280    0.22940    1.000
    H42      H        0.95770    0.57150    0.25340    1.000
    C83      C        0.87340    0.57900    0.19030    1.000
    C84      C        0.83080    0.62560    0.15590    1.000
    H43      H        0.79320    0.60950    0.13000    1.000
    C85      C        0.84410    0.69670    0.16010    1.000
    C86      C        0.90150    0.72020    0.19690    1.000
    H44      H        0.91190    0.76750    0.19810    1.000
    C87      C        0.85700    0.50290    0.18830    1.000
    C88      C        0.79380    0.74670    0.12900    1.000
    O41      O        0.80658    0.48383    0.15072    1.000
    O42      O        0.89451    0.46239    0.22396    1.000
    O43      O        0.80826    0.81067    0.13300    1.000
    O44      O        0.73927    0.72286    0.10155    1.000
    Fe12     Fe       0.24262    0.89260    0.35955    1.000
    C89      C        0.05690    0.17310    0.26810    1.000
    H45      H        0.01910    0.18910    0.24240    1.000
    C90      C        0.07040    0.10280    0.27060    1.000
    H46      H        0.04230    0.07150    0.24660    1.000
    C91      C        0.12660    0.07900    0.30970    1.000
    C92      C        0.16920    0.12560    0.34410    1.000
    H47      H        0.20680    0.10950    0.37000    1.000
    C93      C        0.15590    0.19670    0.33990    1.000
    C94      C        0.09850    0.22020    0.30310    1.000
    H48      H        0.08810    0.26750    0.30190    1.000
    C95      C        0.14300    0.00290    0.31170    1.000
    C96      C        0.20620    0.24670    0.37100    1.000
    O45      O        0.19342    0.98383    0.34928    1.000
    O46      O        0.10549    0.96239    0.27604    1.000
    O47      O        0.19174    0.31067    0.36700    1.000
    O48      O        0.26073    0.22286    0.39845    1.000
    Fe13     Fe       0.14045    0.74262    0.89260    1.000
    C97      C        0.23190    0.55690    0.17310    1.000
    H49      H        0.25760    0.51910    0.18910    1.000
    C98      C        0.22940    0.57040    0.10280    1.000
    H50      H        0.25340    0.54230    0.07150    1.000
    C99      C        0.19030    0.62660    0.07900    1.000
    C100     C        0.15590    0.66920    0.12560    1.000
    H51      H        0.13000    0.70680    0.10950    1.000
    C101     C        0.16010    0.65590    0.19670    1.000
    C102     C        0.19690    0.59850    0.22020    1.000
    H52      H        0.19810    0.58810    0.26750    1.000
    C103     C        0.18830    0.64300    0.00290    1.000
    C104     C        0.12900    0.70620    0.24670    1.000
    O49      O        0.15072    0.69342    0.98383    1.000
    O50      O        0.22396    0.60549    0.96239    1.000
    O51      O        0.13300    0.69174    0.31067    1.000
    O52      O        0.10155    0.76073    0.22286    1.000
    Fe14     Fe       0.35955    0.25738    0.39260    1.000
    C105     C        0.26810    0.44310    0.67310    1.000
    H53      H        0.24240    0.48090    0.68910    1.000
    C106     C        0.27060    0.42960    0.60280    1.000
    H54      H        0.24660    0.45770    0.57150    1.000
    C107     C        0.30970    0.37340    0.57900    1.000
    C108     C        0.34410    0.33080    0.62560    1.000
    H55      H        0.37000    0.29320    0.60950    1.000
    C109     C        0.33990    0.34410    0.69670    1.000
    C110     C        0.30310    0.40150    0.72020    1.000
    H56      H        0.30190    0.41190    0.76750    1.000
    C111     C        0.31170    0.35700    0.50290    1.000
    C112     C        0.37100    0.29380    0.74670    1.000
    O53      O        0.34928    0.30658    0.48383    1.000
    O54      O        0.27604    0.39451    0.46239    1.000
    O55      O        0.36700    0.30826    0.81067    1.000
    O56      O        0.39845    0.23927    0.72286    1.000
    Fe15     Fe       0.85955    0.24262    0.60740    1.000
    C113     C        0.76810    0.05690    0.32690    1.000
    H57      H        0.74240    0.01910    0.31090    1.000
    C114     C        0.77060    0.07040    0.39720    1.000
    H58      H        0.74660    0.04230    0.42850    1.000
    C115     C        0.80970    0.12660    0.42100    1.000
    C116     C        0.84410    0.16920    0.37440    1.000
    H59      H        0.87000    0.20680    0.39050    1.000
    C117     C        0.83990    0.15590    0.30330    1.000
    C118     C        0.80310    0.09850    0.27980    1.000
    H60      H        0.80190    0.08810    0.23250    1.000
    C119     C        0.81170    0.14300    0.49710    1.000
    C120     C        0.87100    0.20620    0.25330    1.000
    O57      O        0.84928    0.19342    0.51617    1.000
    O58      O        0.77604    0.10549    0.53761    1.000
    O59      O        0.86700    0.19174    0.18933    1.000
    O60      O        0.89845    0.26073    0.27714    1.000
    Fe16     Fe       0.64045    0.75738    0.10740    1.000
    C121     C        0.73190    0.94310    0.82690    1.000
    H61      H        0.75760    0.98090    0.81090    1.000
    C122     C        0.72940    0.92960    0.89720    1.000
    H62      H        0.75340    0.95770    0.92850    1.000
    C123     C        0.69030    0.87340    0.92100    1.000
    C124     C        0.65590    0.83080    0.87440    1.000
    H63      H        0.63000    0.79320    0.89050    1.000
    C125     C        0.66010    0.84410    0.80330    1.000
    C126     C        0.69690    0.90150    0.77980    1.000
    H64      H        0.69810    0.91190    0.73250    1.000
    C127     C        0.68830    0.85700    0.99710    1.000
    C128     C        0.62900    0.79380    0.75330    1.000
    O61      O        0.65072    0.80658    0.01617    1.000
    O62      O        0.72396    0.89451    0.03761    1.000
    O63      O        0.63300    0.80826    0.68933    1.000
    O64      O        0.60155    0.73927    0.77714    1.000
    Fe17     Fe       0.89260    0.14045    0.74262    1.000
    C129     C        0.17310    0.23190    0.55690    1.000
    H65      H        0.18910    0.25760    0.51910    1.000
    C130     C        0.10280    0.22940    0.57040    1.000
    H66      H        0.07150    0.25340    0.54230    1.000
    C131     C        0.07900    0.19030    0.62660    1.000
    C132     C        0.12560    0.15590    0.66920    1.000
    H67      H        0.10950    0.13000    0.70680    1.000
    C133     C        0.19670    0.16010    0.65590    1.000
    C134     C        0.22020    0.19690    0.59850    1.000
    H68      H        0.26750    0.19810    0.58810    1.000
    C135     C        0.00290    0.18830    0.64300    1.000
    C136     C        0.24670    0.12900    0.70620    1.000
    O65      O        0.98383    0.15072    0.69342    1.000
    O66      O        0.96239    0.22396    0.60549    1.000
    O67      O        0.31067    0.13300    0.69174    1.000
    O68      O        0.22286    0.10155    0.76073    1.000
    Fe18     Fe       0.39260    0.35955    0.25738    1.000
    C137     C        0.67310    0.26810    0.44310    1.000
    H69      H        0.68910    0.24240    0.48090    1.000
    C138     C        0.60280    0.27060    0.42960    1.000
    H70      H        0.57150    0.24660    0.45770    1.000
    C139     C        0.57900    0.30970    0.37340    1.000
    C140     C        0.62560    0.34410    0.33080    1.000
    H71      H        0.60950    0.37000    0.29320    1.000
    C141     C        0.69670    0.33990    0.34410    1.000
    C142     C        0.72020    0.30310    0.40150    1.000
    H72      H        0.76750    0.30190    0.41190    1.000
    C143     C        0.50290    0.31170    0.35700    1.000
    C144     C        0.74670    0.37100    0.29380    1.000
    O69      O        0.48383    0.34928    0.30658    1.000
    O70      O        0.46239    0.27604    0.39451    1.000
    O71      O        0.81067    0.36700    0.30826    1.000
    O72      O        0.72286    0.39845    0.23927    1.000
    Fe19     Fe       0.60740    0.85955    0.24262    1.000
    C145     C        0.32690    0.76810    0.05690    1.000
    H73      H        0.31090    0.74240    0.01910    1.000
    C146     C        0.39720    0.77060    0.07040    1.000
    H74      H        0.42850    0.74660    0.04230    1.000
    C147     C        0.42100    0.80970    0.12660    1.000
    C148     C        0.37440    0.84410    0.16920    1.000
    H75      H        0.39050    0.87000    0.20680    1.000
    C149     C        0.30330    0.83990    0.15590    1.000
    C150     C        0.27980    0.80310    0.09850    1.000
    H76      H        0.23250    0.80190    0.08810    1.000
    C151     C        0.49710    0.81170    0.14300    1.000
    C152     C        0.25330    0.87100    0.20620    1.000
    O73      O        0.51617    0.84928    0.19342    1.000
    O74      O        0.53761    0.77604    0.10549    1.000
    O75      O        0.18933    0.86700    0.19174    1.000
    O76      O        0.27714    0.89845    0.26073    1.000
    Fe20     Fe       0.10740    0.64045    0.75738    1.000
    C153     C        0.82690    0.73190    0.94310    1.000
    H77      H        0.81090    0.75760    0.98090    1.000
    C154     C        0.89720    0.72940    0.92960    1.000
    H78      H        0.92850    0.75340    0.95770    1.000
    C155     C        0.92100    0.69030    0.87340    1.000
    C156     C        0.87440    0.65590    0.83080    1.000
    H79      H        0.89050    0.63000    0.79320    1.000
    C157     C        0.80330    0.66010    0.84410    1.000
    C158     C        0.77980    0.69690    0.90150    1.000
    H80      H        0.73250    0.69810    0.91190    1.000
    C159     C        0.99710    0.68830    0.85700    1.000
    C160     C        0.75330    0.62900    0.79380    1.000
    O77      O        0.01617    0.65072    0.80658    1.000
    O78      O        0.03761    0.72396    0.89451    1.000
    O79      O        0.68933    0.63300    0.80826    1.000
    O80      O        0.77714    0.60155    0.73927    1.000
    Fe21     Fe       0.74262    0.89260    0.14045    1.000
    C161     C        0.55690    0.17310    0.23190    1.000
    H81      H        0.51910    0.18910    0.25760    1.000
    C162     C        0.57040    0.10280    0.22940    1.000
    H82      H        0.54230    0.07150    0.25340    1.000
    C163     C        0.62660    0.07900    0.19030    1.000
    C164     C        0.66920    0.12560    0.15590    1.000
    H83      H        0.70680    0.10950    0.13000    1.000
    C165     C        0.65590    0.19670    0.16010    1.000
    C166     C        0.59850    0.22020    0.19690    1.000
    H84      H        0.58810    0.26750    0.19810    1.000
    C167     C        0.64300    0.00290    0.18830    1.000
    C168     C        0.70620    0.24670    0.12900    1.000
    O81      O        0.69342    0.98383    0.15072    1.000
    O82      O        0.60549    0.96239    0.22396    1.000
    O83      O        0.69174    0.31067    0.13300    1.000
    O84      O        0.76073    0.22286    0.10155    1.000
    Fe22     Fe       0.25738    0.39260    0.35955    1.000
    C169     C        0.44310    0.67310    0.26810    1.000
    H85      H        0.48090    0.68910    0.24240    1.000
    C170     C        0.42960    0.60280    0.27060    1.000
    H86      H        0.45770    0.57150    0.24660    1.000
    C171     C        0.37340    0.57900    0.30970    1.000
    C172     C        0.33080    0.62560    0.34410    1.000
    H87      H        0.29320    0.60950    0.37000    1.000
    C173     C        0.34410    0.69670    0.33990    1.000
    C174     C        0.40150    0.72020    0.30310    1.000
    H88      H        0.41190    0.76750    0.30190    1.000
    C175     C        0.35700    0.50290    0.31170    1.000
    C176     C        0.29380    0.74670    0.37100    1.000
    O85      O        0.30658    0.48383    0.34928    1.000
    O86      O        0.39451    0.46239    0.27604    1.000
    O87      O        0.30826    0.81067    0.36700    1.000
    O88      O        0.23927    0.72286    0.39845    1.000
    Fe23     Fe       0.24262    0.60740    0.85955    1.000
    C177     C        0.05690    0.32690    0.76810    1.000
    H89      H        0.01910    0.31090    0.74240    1.000
    C178     C        0.07040    0.39720    0.77060    1.000
    H90      H        0.04230    0.42850    0.74660    1.000
    C179     C        0.12660    0.42100    0.80970    1.000
    C180     C        0.16920    0.37440    0.84410    1.000
    H91      H        0.20680    0.39050    0.87000    1.000
    C181     C        0.15590    0.30330    0.83990    1.000
    C182     C        0.09850    0.27980    0.80310    1.000
    H92      H        0.08810    0.23250    0.80190    1.000
    C183     C        0.14300    0.49710    0.81170    1.000
    C184     C        0.20620    0.25330    0.87100    1.000
    O89      O        0.19342    0.51617    0.84928    1.000
    O90      O        0.10549    0.53761    0.77604    1.000
    O91      O        0.19174    0.18933    0.86700    1.000
    O92      O        0.26073    0.27714    0.89845    1.000
    Fe24     Fe       0.75738    0.10740    0.64045    1.000
    C185     C        0.94310    0.82690    0.73190    1.000
    H93      H        0.98090    0.81090    0.75760    1.000
    C186     C        0.92960    0.89720    0.72940    1.000
    H94      H        0.95770    0.92850    0.75340    1.000
    C187     C        0.87340    0.92100    0.69030    1.000
    C188     C        0.83080    0.87440    0.65590    1.000
    H95      H        0.79320    0.89050    0.63000    1.000
    C189     C        0.84410    0.80330    0.66010    1.000
    C190     C        0.90150    0.77980    0.69690    1.000
    H96      H        0.91190    0.73250    0.69810    1.000
    C191     C        0.85700    0.99710    0.68830    1.000
    C192     C        0.79380    0.75330    0.62900    1.000
    O93      O        0.80658    0.01617    0.65072    1.000
    O94      O        0.89451    0.03761    0.72396    1.000
    O95      O        0.80826    0.68933    0.63300    1.000
    O96      O        0.73927    0.77714    0.60155    1.000
    O97      O        0.83642    0.33642    0.16358    1.000
    O98      O        0.66358    0.66358    0.66358    1.000
    O99      O        0.16358    0.83642    0.33642    1.000
    O100     O        0.33642    0.16358    0.83642    1.000
    O101     O        0.16358    0.66358    0.83642    1.000
    O102     O        0.33642    0.33642    0.33642    1.000
    O103     O        0.83642    0.16358    0.66358    1.000
    O104     O        0.66358    0.83642    0.16358    1.000
