data_functionalizedCrystal
_audit_creation_method	'EQeq! by Chris Wilmer'
_symmetry_space_group_name_H-M	'P1'
_symmetry_Int_Tables_number	1
_symmetry_cell_setting	triclinic
loop_
_symmetry_equiv_pos_as_xyz
  x,y,z
_cell_length_a	28.18
_cell_length_b	18.404
_cell_length_c	32.044
_cell_angle_alpha	90
_cell_angle_beta	112.174
_cell_angle_gamma	90
loop_
_atom_site_label
_atom_site_type_symbol
_atom_site_fract_x
_atom_site_fract_y
_atom_site_fract_z
_atom_site_charge
Mof_C 	C 	0.4734	0.2509	0.25486	0.19
Mof_C 	C 	0.5247	0.2109	0.26944	0.191
Mof_C 	C 	0.60807	0.2039	0.32878	0.162
Mof_C 	C 	0.63446	0.2194	0.37454	-0.117
Mof_H 	H 	0.6191	0.2485	0.3896	0.095
Mof_C 	C 	0.68343	0.1918	0.39773	-0.021
Mof_C 	C 	0.706	0.1494	0.37608	-0.026
Mof_H 	H 	0.7387	0.1311	0.3918	0.072
Mof_C 	C 	0.68095	0.1328	0.33064	-0.024
Mof_C 	C 	0.63209	0.16	0.30677	-0.113
Mof_H 	H 	0.6154	0.1491	0.2764	0.118
Mof_C 	C 	0.70842	0.2066	0.44758	0.34
Mof_C 	C 	0.70481	0.0822	0.30767	0.347
Mof_C 	C 	0.39055	0.2586	0.19192	0.162
Mof_C 	C 	0.36575	0.2339	0.1479	-0.119
Mof_H 	H 	0.3815	0.2005	0.1354	0.093
Mof_C 	C 	0.31703	0.2602	0.12302	-0.019
Mof_C 	C 	0.29355	0.3109	0.1409	-0.034
Mof_H 	H 	0.2609	0.3281	0.1238	0.076
Mof_C 	C 	0.3195	0.336	0.18526	-0.016
Mof_C 	C 	0.36747	0.309	0.21063	-0.118
Mof_H 	H 	0.3844	0.3245	0.2402	0.118
Mof_C 	C 	0.29494	0.3948	0.20318	0.343
Mof_C 	C 	0.29093	0.2406	0.07478	0.325
Mof_C 	C 	0.0197	0.2131	0.7838	0.198
Mof_C 	C 	0.9689	0.2307	0.7447	0.147
Mof_C 	C 	0.1081	0.1841	0.7913	0.182
Mof_C 	C 	0.13124	0.1994	0.83608	-0.136
Mof_H 	H 	0.1128	0.2213	0.8514	0.127
Mof_C 	C 	0.18285	0.1818	0.85884	-0.012
Mof_C 	C 	0.20982	0.1465	0.83638	-0.037
Mof_H 	H 	0.244	0.1339	0.8518	0.077
Mof_C 	C 	0.18568	0.1299	0.7909	-0.013
Mof_C 	C 	0.1338	0.1465	0.76858	-0.133
Mof_H 	H 	0.1165	0.1325	0.7388	0.098
Mof_C 	C 	0.21272	0.0867	0.76646	0.343
Mof_C 	C 	0.2076	0.1962	0.90758	0.326
Mof_C 	C 	0.8838	0.2747	0.73174	0.15
Mof_C 	C 	0.85973	0.2497	0.68734	-0.103
Mof_H 	H 	0.8766	0.2171	0.6755	0.107
Mof_C 	C 	0.81115	0.2736	0.6612	-0.03
Mof_C 	C 	0.78596	0.3213	0.67933	-0.025
Mof_H 	H 	0.7531	0.3373	0.6619	0.073
Mof_C 	C 	0.80969	0.3453	0.72343	-0.02
Mof_C 	C 	0.85784	0.3202	0.74982	-0.116
Mof_H 	H 	0.8728	0.334	0.7799	0.094
Mof_C 	C 	0.78468	0.4032	0.74175	0.337
Mof_C 	C 	0.78749	0.2521	0.61332	0.346
Mof_C 	C 	0.4734	0.5086	0.9949	0.162
Mof_C 	C 	0.3864	0.4656	0.9709	0.157
Mof_C 	C 	0.36278	0.4022	0.9743	-0.119
Mof_H 	H 	0.3806	0.3586	0.9783	0.094
Mof_C 	C 	0.31266	0.402	0.97203	-0.022
Mof_C 	C 	0.28574	0.4677	0.96665	-0.029
Mof_H 	H 	0.2521	0.4682	0.9651	0.074
Mof_C 	C 	0.31044	0.5328	0.96357	-0.02
Mof_C 	C 	0.3602	0.5328	0.9661	-0.108
Mof_H 	H 	0.3764	0.5762	0.9647	0.107
Mof_C 	C 	0.28396	0.6042	0.96183	0.337
Mof_C 	C 	0.28836	0.3325	0.97827	0.344
Mof_C 	C 	0.0258	0.0123	0.9998	0.18
Mof_C 	C 	0.10571	0.9648	0.99878	0.15
Mof_C 	C 	0.13169	0.0308	0.00183	-0.105
Mof_H 	H 	0.1162	0.0738	0.0053	0.113
Mof_C 	C 	0.17915	0.0332	0.99983	-0.028
Mof_C 	C 	0.20326	0.9685	0.99388	-0.029
Mof_H 	H 	0.2356	0.9697	0.9923	0.075
Mof_C 	C 	0.17683	0.9023	0.99035	-0.017
Mof_C 	C 	0.1293	0.8999	0.99184	-0.11
Mof_H 	H 	0.1121	0.8558	0.9883	0.091
Mof_C 	C 	0.2023	0.8346	0.98152	0.333
Mof_C 	C 	0.20665	0.1023	0.00047	0.346
Mof_Cu	Cu	0.28968	0.18149	0.99279	0.908
Mof_Cu	Cu	0.71119	0.26117	0.52825	0.911
Mof_Cu	Cu	0.78634	0.99316	0.30746	0.908
Mof_Cu	Cu	0.79545	0.18672	0.53285	0.907
Mof_Cu	Cu	0.20714	0.25395	0.9899	0.907
Mof_Cu	Cu	0.70338	0.99902	0.23219	0.908
Mof_N 	N 	0.55939	0.2316	0.30685	-0.247
Mof_H 	H 	0.5512	0.2675	0.32	0.155
Mof_N 	N 	0.44038	0.2333	0.21518	-0.244
Mof_H 	H 	0.4508	0.2012	0.2011	0.156
Mof_N 	N 	0.0582	0.1989	0.7674	-0.245
Mof_H 	H 	0.049	0.1996	0.7386	0.153
Mof_N 	N 	0.93304	0.2498	0.75948	-0.233
Mof_H 	H 	0.9401	0.247	0.788	0.152
Mof_N 	N 	0.438	0.4623	0.9776	-0.24
Mof_H 	H 	0.4475	0.4228	0.9686	0.152
Mof_N 	N 	0.05713	0.9593	0.00022	-0.24
Mof_H 	H 	0.0463	0.9159	0.0015	0.152
Mof_O 	O 	0.68555	0.24702	0.46482	-0.408
Mof_O 	O 	0.75261	0.17913	0.46722	-0.393
Mof_O 	O 	0.74886	0.06022	0.33025	-0.406
Mof_O 	O 	0.67962	0.06735	0.26688	-0.394
Mof_O 	O 	0.3214	0.41896	0.24183	-0.394
Mof_O 	O 	0.2505	0.41247	0.17928	-0.406
Mof_O 	O 	0.24715	0.26856	0.05357	-0.395
Mof_O 	O 	0.31448	0.19903	0.05749	-0.391
Mof_O 	O 	0.18025	0.22715	0.92614	-0.387
Mof_O 	O 	0.2534	0.17619	0.92745	-0.394
Mof_O 	O 	0.25827	0.06969	0.79001	-0.399
Mof_O 	O 	0.18752	0.07211	0.72663	-0.407
Mof_O 	O 	0.80909	0.42468	0.78065	-0.4
Mof_O 	O 	0.73955	0.42191	0.71645	-0.395
Mof_O 	O 	0.74251	0.27298	0.5924	-0.406
Mof_O 	O 	0.81452	0.21554	0.59744	-0.392
Mof_O 	O 	0.24224	0.3367	0.9761	-0.395
Mof_O 	O 	0.31472	0.27733	0.98529	-0.407
Mof_O 	O 	0.23779	0.60045	0.95797	-0.401
Mof_O 	O 	0.31028	0.66017	0.96505	-0.394
Mof_O 	O 	0.18267	0.15986	0.00273	-0.388
Mof_O 	O 	0.24951	0.09863	0.99856	-0.41
Mof_O 	O 	0.17687	0.77643	0.97848	-0.397
Mof_O 	O 	0.24514	0.84091	0.97884	-0.397
Mof_O 	O 	0.5236	0.1469	0.2512	-0.118
Mof_O 	O 	0.4618	0.2798	0.2852	-0.124
Mof_O 	O 	0.0235	0.2059	0.8227	-0.134
Mof_O 	O 	0.9664	0.236	0.703	-0.193
Mof_O 	O 	0.4678	0.5645	0.0178	-0.197
Mof_O 	O 	0.0352	0.0765	0.00108	-0.216
Mof_O 	O 	0.5362	0.1821	0.2375	-0.132
Mof_O 	O 	0.473	0.3113	0.2741	-0.115
Mof_O 	O 	0.0331	0.2494	0.8192	-0.121
Mof_C 	C 	0.5266	0.7509	0.24514	0.191
Mof_C 	C 	0.4753	0.7109	0.23056	0.192
Mof_C 	C 	0.39193	0.7039	0.17122	0.162
Mof_C 	C 	0.36554	0.7194	0.12546	-0.117
Mof_H 	H 	0.3809	0.7485	0.1104	0.095
Mof_C 	C 	0.31657	0.6918	0.10227	-0.021
Mof_C 	C 	0.294	0.6494	0.12392	-0.026
Mof_H 	H 	0.2613	0.6311	0.1082	0.072
Mof_C 	C 	0.31905	0.6328	0.16936	-0.024
Mof_C 	C 	0.36791	0.66	0.19323	-0.113
Mof_H 	H 	0.3846	0.6491	0.2236	0.118
Mof_C 	C 	0.29158	0.7066	0.05242	0.34
Mof_C 	C 	0.29519	0.5822	0.19233	0.347
Mof_C 	C 	0.60945	0.7586	0.30808	0.161
Mof_C 	C 	0.63425	0.7339	0.3521	-0.118
Mof_H 	H 	0.6185	0.7005	0.3646	0.093
Mof_C 	C 	0.68297	0.7602	0.37698	-0.019
Mof_C 	C 	0.70645	0.8109	0.3591	-0.033
Mof_H 	H 	0.7391	0.8281	0.3762	0.076
Mof_C 	C 	0.6805	0.836	0.31474	-0.016
Mof_C 	C 	0.63253	0.809	0.28937	-0.118
Mof_H 	H 	0.6156	0.8245	0.2598	0.118
Mof_C 	C 	0.70506	0.8948	0.29682	0.343
Mof_C 	C 	0.70907	0.7406	0.42522	0.325
Mof_C 	C 	0.9803	0.7131	0.7162	0.2
Mof_C 	C 	0.0311	0.7307	0.7553	0.145
Mof_C 	C 	0.8919	0.6841	0.7087	0.183
Mof_C 	C 	0.86876	0.6994	0.66392	-0.136
Mof_H 	H 	0.8872	0.7213	0.6486	0.127
Mof_C 	C 	0.81715	0.6818	0.64116	-0.012
Mof_C 	C 	0.79018	0.6465	0.66362	-0.037
Mof_H 	H 	0.756	0.6339	0.6482	0.077
Mof_C 	C 	0.81432	0.6299	0.7091	-0.012
Mof_C 	C 	0.8662	0.6465	0.73142	-0.133
Mof_H 	H 	0.8835	0.6325	0.7612	0.099
Mof_C 	C 	0.78728	0.5867	0.73354	0.343
Mof_C 	C 	0.7924	0.6962	0.59242	0.326
Mof_C 	C 	0.1162	0.7747	0.76826	0.15
Mof_C 	C 	0.14027	0.7497	0.81266	-0.103
Mof_H 	H 	0.1234	0.7171	0.8245	0.106
Mof_C 	C 	0.18885	0.7736	0.8388	-0.03
Mof_C 	C 	0.21404	0.8213	0.82067	-0.025
Mof_H 	H 	0.2469	0.8373	0.8381	0.073
Mof_C 	C 	0.19031	0.8453	0.77657	-0.02
Mof_C 	C 	0.14216	0.8202	0.75018	-0.116
Mof_H 	H 	0.1272	0.834	0.7201	0.094
Mof_C 	C 	0.21532	0.9032	0.75825	0.337
Mof_C 	C 	0.21251	0.7521	0.88668	0.346
Mof_C 	C 	0.5266	0.0086	0.5051	0.162
Mof_C 	C 	0.6136	0.9656	0.5291	0.157
Mof_C 	C 	0.63722	0.9022	0.5257	-0.119
Mof_H 	H 	0.6194	0.8586	0.5217	0.094
Mof_C 	C 	0.68734	0.902	0.52797	-0.022
Mof_C 	C 	0.71426	0.9677	0.53335	-0.029
Mof_H 	H 	0.7479	0.9682	0.5349	0.074
Mof_C 	C 	0.68956	0.0328	0.53643	-0.02
Mof_C 	C 	0.6398	0.0328	0.5339	-0.108
Mof_H 	H 	0.6236	0.0762	0.5353	0.107
Mof_C 	C 	0.71604	0.1042	0.53817	0.337
Mof_C 	C 	0.71164	0.8325	0.52173	0.344
Mof_C 	C 	0.9742	0.5123	0.5002	0.183
Mof_C 	C 	0.89429	0.4648	0.50122	0.153
Mof_C 	C 	0.86831	0.5308	0.49817	-0.111
Mof_H 	H 	0.8838	0.5738	0.4947	0.115
Mof_C 	C 	0.82085	0.5332	0.50017	-0.021
Mof_C 	C 	0.79674	0.4685	0.50612	-0.034
Mof_H 	H 	0.7644	0.4697	0.5077	0.076
Mof_C 	C 	0.82317	0.4023	0.50965	-0.014
Mof_C 	C 	0.8707	0.3999	0.50816	-0.113
Mof_H 	H 	0.8879	0.3558	0.5117	0.092
Mof_C 	C 	0.7977	0.3346	0.51848	0.332
Mof_C 	C 	0.79335	0.6023	0.49953	0.341
Mof_Cu	Cu	0.71032	0.68149	0.50721	0.908
Mof_Cu	Cu	0.28881	0.76117	0.97175	0.911
Mof_Cu	Cu	0.21365	0.49316	0.19254	0.908
Mof_Cu	Cu	0.20455	0.68672	0.96715	0.907
Mof_Cu	Cu	0.79286	0.75395	0.5101	0.907
Mof_Cu	Cu	0.29662	0.49902	0.26781	0.908
Mof_N 	N 	0.44061	0.7316	0.19315	-0.247
Mof_H 	H 	0.4488	0.7675	0.18	0.155
Mof_N 	N 	0.55962	0.7333	0.28482	-0.244
Mof_H 	H 	0.5492	0.7012	0.2989	0.156
Mof_N 	N 	0.9418	0.6989	0.7326	-0.245
Mof_H 	H 	0.951	0.6996	0.7614	0.154
Mof_N 	N 	0.06696	0.7498	0.74052	-0.232
Mof_H 	H 	0.0599	0.747	0.712	0.152
Mof_N 	N 	0.562	0.9623	0.5224	-0.24
Mof_H 	H 	0.5525	0.9228	0.5314	0.152
Mof_N 	N 	0.94287	0.4593	0.49978	-0.241
Mof_H 	H 	0.9537	0.4159	0.4985	0.152
Mof_O 	O 	0.31445	0.74702	0.03518	-0.408
Mof_O 	O 	0.24739	0.67913	0.03278	-0.392
Mof_O 	O 	0.25114	0.56022	0.16975	-0.406
Mof_O 	O 	0.32038	0.56735	0.23312	-0.395
Mof_O 	O 	0.6786	0.91896	0.25817	-0.394
Mof_O 	O 	0.7495	0.91247	0.32072	-0.406
Mof_O 	O 	0.75285	0.76856	0.44643	-0.395
Mof_O 	O 	0.68552	0.69903	0.44251	-0.391
Mof_O 	O 	0.81975	0.72715	0.57386	-0.387
Mof_O 	O 	0.7466	0.67619	0.57255	-0.394
Mof_O 	O 	0.74173	0.56969	0.70999	-0.398
Mof_O 	O 	0.81248	0.57211	0.77337	-0.407
Mof_O 	O 	0.19091	0.92468	0.71935	-0.4
Mof_O 	O 	0.26045	0.92191	0.78355	-0.395
Mof_O 	O 	0.25749	0.77298	0.9076	-0.405
Mof_O 	O 	0.18548	0.71554	0.90256	-0.392
Mof_O 	O 	0.75776	0.8367	0.5239	-0.395
Mof_O 	O 	0.68528	0.77733	0.51471	-0.407
Mof_O 	O 	0.76221	0.10045	0.54203	-0.4
Mof_O 	O 	0.68972	0.16017	0.53495	-0.394
Mof_O 	O 	0.81733	0.65986	0.49727	-0.387
Mof_O 	O 	0.75049	0.59863	0.50144	-0.409
Mof_O 	O 	0.82313	0.27643	0.52152	-0.397
Mof_O 	O 	0.75486	0.34091	0.52116	-0.397
Mof_O 	O 	0.4764	0.6469	0.2488	-0.118
Mof_O 	O 	0.5382	0.7798	0.2148	-0.124
Mof_O 	O 	0.9765	0.7059	0.6773	-0.134
Mof_O 	O 	0.0336	0.736	0.797	-0.193
Mof_O 	O 	0.5322	0.0645	0.4822	-0.197
Mof_O 	O 	0.9648	0.5765	0.49892	-0.218
Mof_O 	O 	0.4638	0.6821	0.2625	-0.132
Mof_O 	O 	0.527	0.8113	0.2259	-0.115
Mof_O 	O 	0.9669	0.7494	0.6808	-0.121
Mof_C 	C 	0.5266	0.7491	0.74514	0.191
Mof_C 	C 	0.4753	0.7891	0.73056	0.192
Mof_C 	C 	0.39193	0.7961	0.67122	0.162
Mof_C 	C 	0.36554	0.7806	0.62546	-0.117
Mof_H 	H 	0.3809	0.7515	0.6104	0.095
Mof_C 	C 	0.31657	0.8082	0.60227	-0.021
Mof_C 	C 	0.294	0.8506	0.62392	-0.026
Mof_H 	H 	0.2613	0.8689	0.6082	0.072
Mof_C 	C 	0.31905	0.8672	0.66936	-0.024
Mof_C 	C 	0.36791	0.84	0.69323	-0.113
Mof_H 	H 	0.3846	0.8509	0.7236	0.118
Mof_C 	C 	0.29158	0.7934	0.55242	0.34
Mof_C 	C 	0.29519	0.9178	0.69233	0.347
Mof_C 	C 	0.60945	0.7414	0.80808	0.162
Mof_C 	C 	0.63425	0.7661	0.8521	-0.119
Mof_H 	H 	0.6185	0.7995	0.8646	0.093
Mof_C 	C 	0.68297	0.7398	0.87698	-0.019
Mof_C 	C 	0.70645	0.6891	0.8591	-0.034
Mof_H 	H 	0.7391	0.6719	0.8762	0.076
Mof_C 	C 	0.6805	0.664	0.81474	-0.016
Mof_C 	C 	0.63253	0.691	0.78937	-0.118
Mof_H 	H 	0.6156	0.6755	0.7598	0.118
Mof_C 	C 	0.70506	0.6052	0.79682	0.343
Mof_C 	C 	0.70907	0.7594	0.92522	0.325
Mof_C 	C 	0.9803	0.7869	0.2162	0.198
Mof_C 	C 	0.0311	0.7693	0.2553	0.147
Mof_C 	C 	0.8919	0.8159	0.2087	0.182
Mof_C 	C 	0.86876	0.8006	0.16392	-0.136
Mof_H 	H 	0.8872	0.7787	0.1486	0.127
Mof_C 	C 	0.81715	0.8182	0.14116	-0.012
Mof_C 	C 	0.79018	0.8535	0.16362	-0.037
Mof_H 	H 	0.756	0.8661	0.1482	0.077
Mof_C 	C 	0.81432	0.8701	0.2091	-0.013
Mof_C 	C 	0.8662	0.8535	0.23142	-0.133
Mof_H 	H 	0.8835	0.8675	0.2612	0.098
Mof_C 	C 	0.78728	0.9133	0.23354	0.343
Mof_C 	C 	0.7924	0.8038	0.09242	0.326
Mof_C 	C 	0.1162	0.7253	0.26826	0.15
Mof_C 	C 	0.14027	0.7503	0.31266	-0.103
Mof_H 	H 	0.1234	0.7829	0.3245	0.107
Mof_C 	C 	0.18885	0.7264	0.3388	-0.03
Mof_C 	C 	0.21404	0.6787	0.32067	-0.025
Mof_H 	H 	0.2469	0.6627	0.3381	0.073
Mof_C 	C 	0.19031	0.6547	0.27657	-0.02
Mof_C 	C 	0.14216	0.6798	0.25018	-0.116
Mof_H 	H 	0.1272	0.666	0.2201	0.094
Mof_C 	C 	0.21532	0.5968	0.25825	0.337
Mof_C 	C 	0.21251	0.7479	0.38668	0.346
Mof_C 	C 	0.5266	0.4914	0.0051	0.162
Mof_C 	C 	0.6136	0.5344	0.0291	0.157
Mof_C 	C 	0.63722	0.5978	0.0257	-0.119
Mof_H 	H 	0.6194	0.6414	0.0217	0.094
Mof_C 	C 	0.68734	0.598	0.02797	-0.022
Mof_C 	C 	0.71426	0.5323	0.03335	-0.029
Mof_H 	H 	0.7479	0.5318	0.0349	0.074
Mof_C 	C 	0.68956	0.4672	0.03643	-0.02
Mof_C 	C 	0.6398	0.4672	0.0339	-0.108
Mof_H 	H 	0.6236	0.4238	0.0353	0.107
Mof_C 	C 	0.71604	0.3958	0.03817	0.337
Mof_C 	C 	0.71164	0.6675	0.02173	0.344
Mof_C 	C 	0.9742	0.9877	0.0002	0.18
Mof_C 	C 	0.89429	0.0352	0.00122	0.15
Mof_C 	C 	0.86831	0.9692	0.99817	-0.105
Mof_H 	H 	0.8838	0.9262	0.9947	0.113
Mof_C 	C 	0.82085	0.9668	0.00017	-0.028
Mof_C 	C 	0.79674	0.0315	0.00612	-0.029
Mof_H 	H 	0.7644	0.0303	0.0077	0.075
Mof_C 	C 	0.82317	0.0977	0.00965	-0.017
Mof_C 	C 	0.8707	0.1001	0.00816	-0.11
Mof_H 	H 	0.8879	0.1442	0.0117	0.091
Mof_C 	C 	0.7977	0.1654	0.01848	0.333
Mof_C 	C 	0.79335	0.8977	0.99953	0.346
Mof_Cu	Cu	0.71032	0.81851	0.00721	0.908
Mof_Cu	Cu	0.28881	0.73883	0.47175	0.911
Mof_Cu	Cu	0.21365	0.00684	0.69254	0.908
Mof_Cu	Cu	0.20455	0.81328	0.46715	0.907
Mof_Cu	Cu	0.79286	0.74605	0.0101	0.907
Mof_Cu	Cu	0.29662	0.00098	0.76781	0.908
Mof_N 	N 	0.44061	0.7684	0.69315	-0.247
Mof_H 	H 	0.4488	0.7325	0.68	0.155
Mof_N 	N 	0.55962	0.7667	0.78482	-0.244
Mof_H 	H 	0.5492	0.7988	0.7989	0.156
Mof_N 	N 	0.9418	0.8011	0.2326	-0.245
Mof_H 	H 	0.951	0.8004	0.2614	0.153
Mof_N 	N 	0.06696	0.7502	0.24052	-0.233
Mof_H 	H 	0.0599	0.753	0.212	0.152
Mof_N 	N 	0.562	0.5377	0.0224	-0.24
Mof_H 	H 	0.5525	0.5772	0.0314	0.152
Mof_N 	N 	0.94287	0.0407	0.99978	-0.24
Mof_H 	H 	0.9537	0.0841	0.9985	0.152
Mof_O 	O 	0.31445	0.75298	0.53518	-0.408
Mof_O 	O 	0.24739	0.82087	0.53278	-0.393
Mof_O 	O 	0.25114	0.93978	0.66975	-0.406
Mof_O 	O 	0.32038	0.93265	0.73312	-0.394
Mof_O 	O 	0.6786	0.58104	0.75817	-0.394
Mof_O 	O 	0.7495	0.58753	0.82072	-0.406
Mof_O 	O 	0.75285	0.73144	0.94643	-0.395
Mof_O 	O 	0.68552	0.80097	0.94251	-0.391
Mof_O 	O 	0.81975	0.77285	0.07386	-0.387
Mof_O 	O 	0.7466	0.82381	0.07255	-0.394
Mof_O 	O 	0.74173	0.93031	0.20999	-0.399
Mof_O 	O 	0.81248	0.92789	0.27337	-0.407
Mof_O 	O 	0.19091	0.57532	0.21935	-0.4
Mof_O 	O 	0.26045	0.57809	0.28355	-0.395
Mof_O 	O 	0.25749	0.72702	0.4076	-0.406
Mof_O 	O 	0.18548	0.78446	0.40256	-0.392
Mof_O 	O 	0.75776	0.6633	0.0239	-0.395
Mof_O 	O 	0.68528	0.72267	0.01471	-0.407
Mof_O 	O 	0.76221	0.39955	0.04203	-0.401
Mof_O 	O 	0.68972	0.33983	0.03495	-0.394
Mof_O 	O 	0.81733	0.84014	0.99727	-0.388
Mof_O 	O 	0.75049	0.90137	0.00144	-0.41
Mof_O 	O 	0.82313	0.22357	0.02152	-0.397
Mof_O 	O 	0.75486	0.15909	0.02116	-0.397
Mof_O 	O 	0.4764	0.8531	0.7488	-0.118
Mof_O 	O 	0.5382	0.7202	0.7148	-0.124
Mof_O 	O 	0.9765	0.7941	0.1773	-0.134
Mof_O 	O 	0.0336	0.764	0.297	-0.193
Mof_O 	O 	0.5322	0.4355	0.9822	-0.197
Mof_O 	O 	0.9648	0.9235	0.99892	-0.216
Mof_O 	O 	0.4638	0.8179	0.7625	-0.132
Mof_O 	O 	0.527	0.6887	0.7259	-0.115
Mof_O 	O 	0.9669	0.7506	0.1808	-0.121
Mof_C 	C 	0.4734	0.2491	0.75486	0.191
Mof_C 	C 	0.5247	0.2891	0.76944	0.192
Mof_C 	C 	0.60807	0.2961	0.82878	0.162
Mof_C 	C 	0.63446	0.2806	0.87454	-0.117
Mof_H 	H 	0.6191	0.2515	0.8896	0.095
Mof_C 	C 	0.68343	0.3082	0.89773	-0.021
Mof_C 	C 	0.706	0.3506	0.87608	-0.026
Mof_H 	H 	0.7387	0.3689	0.8918	0.072
Mof_C 	C 	0.68095	0.3672	0.83064	-0.024
Mof_C 	C 	0.63209	0.34	0.80677	-0.113
Mof_H 	H 	0.6154	0.3509	0.7764	0.118
Mof_C 	C 	0.70842	0.2934	0.94758	0.34
Mof_C 	C 	0.70481	0.4178	0.80767	0.347
Mof_C 	C 	0.39055	0.2414	0.69192	0.161
Mof_C 	C 	0.36575	0.2661	0.6479	-0.118
Mof_H 	H 	0.3815	0.2995	0.6354	0.093
Mof_C 	C 	0.31703	0.2398	0.62302	-0.019
Mof_C 	C 	0.29355	0.1891	0.6409	-0.033
Mof_H 	H 	0.2609	0.1719	0.6238	0.076
Mof_C 	C 	0.3195	0.164	0.68526	-0.016
Mof_C 	C 	0.36747	0.191	0.71063	-0.118
Mof_H 	H 	0.3844	0.1755	0.7402	0.118
Mof_C 	C 	0.29494	0.1052	0.70318	0.343
Mof_C 	C 	0.29093	0.2594	0.57478	0.325
Mof_C 	C 	0.0197	0.2869	0.2838	0.2
Mof_C 	C 	0.9689	0.2693	0.2447	0.145
Mof_C 	C 	0.1081	0.3159	0.2913	0.183
Mof_C 	C 	0.13124	0.3006	0.33608	-0.136
Mof_H 	H 	0.1128	0.2787	0.3514	0.127
Mof_C 	C 	0.18285	0.3182	0.35884	-0.012
Mof_C 	C 	0.20982	0.3535	0.33638	-0.037
Mof_H 	H 	0.244	0.3661	0.3518	0.077
Mof_C 	C 	0.18568	0.3701	0.2909	-0.012
Mof_C 	C 	0.1338	0.3535	0.26858	-0.133
Mof_H 	H 	0.1165	0.3675	0.2388	0.099
Mof_C 	C 	0.21272	0.4133	0.26646	0.343
Mof_C 	C 	0.2076	0.3038	0.40758	0.326
Mof_C 	C 	0.8838	0.2253	0.23174	0.15
Mof_C 	C 	0.85973	0.2503	0.18734	-0.103
Mof_H 	H 	0.8766	0.2829	0.1755	0.106
Mof_C 	C 	0.81115	0.2264	0.1612	-0.03
Mof_C 	C 	0.78596	0.1787	0.17933	-0.025
Mof_H 	H 	0.7531	0.1627	0.1619	0.073
Mof_C 	C 	0.80969	0.1547	0.22343	-0.02
Mof_C 	C 	0.85784	0.1798	0.24982	-0.116
Mof_H 	H 	0.8728	0.166	0.2799	0.094
Mof_C 	C 	0.78468	0.0968	0.24175	0.337
Mof_C 	C 	0.78749	0.2479	0.11332	0.346
Mof_C 	C 	0.4734	0.9914	0.4949	0.162
Mof_C 	C 	0.3864	0.0344	0.4709	0.157
Mof_C 	C 	0.36278	0.0978	0.4743	-0.119
Mof_H 	H 	0.3806	0.1414	0.4783	0.094
Mof_C 	C 	0.31266	0.098	0.47203	-0.022
Mof_C 	C 	0.28574	0.0323	0.46665	-0.029
Mof_H 	H 	0.2521	0.0318	0.4651	0.074
Mof_C 	C 	0.31044	0.9672	0.46357	-0.02
Mof_C 	C 	0.3602	0.9672	0.4661	-0.108
Mof_H 	H 	0.3764	0.9238	0.4647	0.107
Mof_C 	C 	0.28396	0.8958	0.46183	0.337
Mof_C 	C 	0.28836	0.1675	0.47827	0.344
Mof_C 	C 	0.0258	0.4877	0.4998	0.183
Mof_C 	C 	0.10571	0.5352	0.49878	0.153
Mof_C 	C 	0.13169	0.4692	0.50183	-0.111
Mof_H 	H 	0.1162	0.4262	0.5053	0.115
Mof_C 	C 	0.17915	0.4668	0.49983	-0.021
Mof_C 	C 	0.20326	0.5315	0.49388	-0.034
Mof_H 	H 	0.2356	0.5303	0.4923	0.076
Mof_C 	C 	0.17683	0.5977	0.49035	-0.014
Mof_C 	C 	0.1293	0.6001	0.49184	-0.113
Mof_H 	H 	0.1121	0.6442	0.4883	0.092
Mof_C 	C 	0.2023	0.6654	0.48152	0.332
Mof_C 	C 	0.20665	0.3977	0.50047	0.341
Mof_Cu	Cu	0.28968	0.31851	0.49279	0.908
Mof_Cu	Cu	0.71119	0.23883	0.02825	0.911
Mof_Cu	Cu	0.78634	0.50684	0.80746	0.908
Mof_Cu	Cu	0.79545	0.31328	0.03285	0.907
Mof_Cu	Cu	0.20714	0.24605	0.4899	0.907
Mof_Cu	Cu	0.70338	0.50098	0.73219	0.908
Mof_N 	N 	0.55939	0.2684	0.80685	-0.247
Mof_H 	H 	0.5512	0.2325	0.82	0.155
Mof_N 	N 	0.44038	0.2667	0.71518	-0.244
Mof_H 	H 	0.4508	0.2988	0.7011	0.156
Mof_N 	N 	0.0582	0.3011	0.2674	-0.245
Mof_H 	H 	0.049	0.3004	0.2386	0.154
Mof_N 	N 	0.93304	0.2502	0.25948	-0.232
Mof_H 	H 	0.9401	0.253	0.288	0.152
Mof_N 	N 	0.438	0.0377	0.4776	-0.24
Mof_H 	H 	0.4475	0.0772	0.4686	0.152
Mof_N 	N 	0.05713	0.5407	0.50022	-0.241
Mof_H 	H 	0.0463	0.5841	0.5015	0.152
Mof_O 	O 	0.68555	0.25298	0.96482	-0.408
Mof_O 	O 	0.75261	0.32087	0.96722	-0.392
Mof_O 	O 	0.74886	0.43978	0.83025	-0.406
Mof_O 	O 	0.67962	0.43265	0.76688	-0.395
Mof_O 	O 	0.3214	0.08104	0.74183	-0.394
Mof_O 	O 	0.2505	0.08753	0.67928	-0.406
Mof_O 	O 	0.24715	0.23144	0.55357	-0.395
Mof_O 	O 	0.31448	0.30097	0.55749	-0.391
Mof_O 	O 	0.18025	0.27285	0.42614	-0.387
Mof_O 	O 	0.2534	0.32381	0.42745	-0.394
Mof_O 	O 	0.25827	0.43031	0.29001	-0.398
Mof_O 	O 	0.18752	0.42789	0.22663	-0.407
Mof_O 	O 	0.80909	0.07532	0.28065	-0.4
Mof_O 	O 	0.73955	0.07809	0.21645	-0.395
Mof_O 	O 	0.74251	0.22702	0.0924	-0.405
Mof_O 	O 	0.81452	0.28446	0.09744	-0.392
Mof_O 	O 	0.24224	0.1633	0.4761	-0.395
Mof_O 	O 	0.31472	0.22267	0.48529	-0.407
Mof_O 	O 	0.23779	0.89955	0.45797	-0.4
Mof_O 	O 	0.31028	0.83983	0.46505	-0.394
Mof_O 	O 	0.18267	0.34014	0.50273	-0.387
Mof_O 	O 	0.24951	0.40137	0.49856	-0.409
Mof_O 	O 	0.17687	0.72357	0.47848	-0.397
Mof_O 	O 	0.24514	0.65909	0.47884	-0.397
Mof_O 	O 	0.5236	0.3531	0.7512	-0.118
Mof_O 	O 	0.4618	0.2202	0.7852	-0.124
Mof_O 	O 	0.0235	0.2941	0.3227	-0.134
Mof_O 	O 	0.9664	0.264	0.203	-0.193
Mof_O 	O 	0.4678	0.9355	0.5178	-0.197
Mof_O 	O 	0.0352	0.4235	0.50108	-0.218
Mof_O 	O 	0.5362	0.3179	0.7375	-0.132
Mof_O 	O 	0.473	0.1887	0.7741	-0.115
Mof_O 	O 	0.0331	0.2506	0.3192	-0.121
_end
