# CIF file generated by openbabel 3.1.0, see https://openbabel.org
data_I
_chemical_name_common 'GUPBEZ02_clean'
_cell_length_a 44.0612
_cell_length_b 44.0612
_cell_length_c 44.0612
_cell_angle_alpha 60
_cell_angle_beta 60
_cell_angle_gamma 60
_space_group_name_H-M_alt 'P 1'
_space_group_name_Hall 'P 1'
loop_
    _symmetry_equiv_pos_as_xyz
    x,y,z
loop_
    _atom_site_label
    _atom_site_type_symbol
    _atom_site_fract_x
    _atom_site_fract_y
    _atom_site_fract_z
    _atom_site_occupancy
    Cu1      Cu       0.99474    0.85230    0.24016    1.000
    Cu2      Cu       0.35230    0.49474    0.91280    1.000
    Cu3      Cu       0.74016    0.91280    0.49474    1.000
    Cu4      Cu       0.41280    0.24016    0.85230    1.000
    Cu5      Cu       0.99474    0.24016    0.91280    1.000
    Cu6      Cu       0.35230    0.91280    0.24016    1.000
    Cu7      Cu       0.74016    0.49474    0.85230    1.000
    Cu8      Cu       0.41280    0.85230    0.49474    1.000
    Cu9      Cu       0.99474    0.91280    0.85230    1.000
    Cu10     Cu       0.35230    0.24016    0.49474    1.000
    Cu11     Cu       0.74016    0.85230    0.91280    1.000
    Cu12     Cu       0.41280    0.49474    0.24016    1.000
    Cu13     Cu       0.64770    0.50526    0.75984    1.000
    Cu14     Cu       0.00526    0.14770    0.08720    1.000
    Cu15     Cu       0.58720    0.75984    0.50526    1.000
    Cu16     Cu       0.25984    0.08720    0.14770    1.000
    Cu17     Cu       0.25984    0.50526    0.08720    1.000
    Cu18     Cu       0.58720    0.14770    0.75984    1.000
    Cu19     Cu       0.00526    0.75984    0.14770    1.000
    Cu20     Cu       0.64770    0.08720    0.50526    1.000
    Cu21     Cu       0.58720    0.50526    0.14770    1.000
    Cu22     Cu       0.25984    0.14770    0.50526    1.000
    Cu23     Cu       0.64770    0.75984    0.08720    1.000
    Cu24     Cu       0.00526    0.08720    0.75984    1.000
    Cu25     Cu       0.00526    0.14770    0.75984    1.000
    Cu26     Cu       0.64770    0.50526    0.08720    1.000
    Cu27     Cu       0.25984    0.08720    0.50526    1.000
    Cu28     Cu       0.58720    0.75984    0.14770    1.000
    Cu29     Cu       0.00526    0.75984    0.08720    1.000
    Cu30     Cu       0.64770    0.08720    0.75984    1.000
    Cu31     Cu       0.25984    0.50526    0.14770    1.000
    Cu32     Cu       0.58720    0.14770    0.50526    1.000
    Cu33     Cu       0.00526    0.08720    0.14770    1.000
    Cu34     Cu       0.64770    0.75984    0.50526    1.000
    Cu35     Cu       0.25984    0.14770    0.08720    1.000
    Cu36     Cu       0.58720    0.50526    0.75984    1.000
    Cu37     Cu       0.35230    0.49474    0.24016    1.000
    Cu38     Cu       0.99474    0.85230    0.91280    1.000
    Cu39     Cu       0.41280    0.24016    0.49474    1.000
    Cu40     Cu       0.74016    0.91280    0.85230    1.000
    Cu41     Cu       0.74016    0.49474    0.91280    1.000
    Cu42     Cu       0.41280    0.85230    0.24016    1.000
    Cu43     Cu       0.99474    0.24016    0.85230    1.000
    Cu44     Cu       0.35230    0.91280    0.49474    1.000
    Cu45     Cu       0.41280    0.49474    0.85230    1.000
    Cu46     Cu       0.74016    0.85230    0.49474    1.000
    Cu47     Cu       0.35230    0.24016    0.91280    1.000
    Cu48     Cu       0.99474    0.91280    0.24016    1.000
    Cu49     Cu       0.14011    0.64011    0.57967    1.000
    Cu50     Cu       0.20256    0.70256    0.39232    1.000
    Cu51     Cu       0.14011    0.64011    0.64011    1.000
    Cu52     Cu       0.20256    0.70256    0.70256    1.000
    Cu53     Cu       0.07967    0.64011    0.64011    1.000
    Cu54     Cu       0.89232    0.70256    0.70256    1.000
    Cu55     Cu       0.14011    0.57967    0.64011    1.000
    Cu56     Cu       0.20256    0.39232    0.70256    1.000
    Cu57     Cu       0.85989    0.35989    0.42033    1.000
    Cu58     Cu       0.79744    0.29744    0.60768    1.000
    Cu59     Cu       0.85989    0.35989    0.35989    1.000
    Cu60     Cu       0.79744    0.29744    0.29744    1.000
    Cu61     Cu       0.85989    0.42033    0.35989    1.000
    Cu62     Cu       0.79744    0.60768    0.29744    1.000
    Cu63     Cu       0.92033    0.35989    0.35989    1.000
    Cu64     Cu       0.10768    0.29744    0.29744    1.000
    Cu65     Cu       0.18281    0.74297    0.33125    1.000
    Cu66     Cu       0.03079    0.84599    0.27723    1.000
    Cu67     Cu       0.95569    0.87153    0.30125    1.000
    Cu68     Cu       0.24297    0.68281    0.74297    1.000
    Cu69     Cu       0.34599    0.53079    0.84599    1.000
    Cu70     Cu       0.37153    0.45569    0.87153    1.000
    Cu71     Cu       0.83125    0.74297    0.68281    1.000
    Cu72     Cu       0.77723    0.84599    0.53079    1.000
    Cu73     Cu       0.80125    0.87153    0.45569    1.000
    Cu74     Cu       0.24297    0.33125    0.74297    1.000
    Cu75     Cu       0.34599    0.27723    0.84599    1.000
    Cu76     Cu       0.37153    0.30125    0.87153    1.000
    Cu77     Cu       0.18281    0.33125    0.74297    1.000
    Cu78     Cu       0.03079    0.27723    0.84599    1.000
    Cu79     Cu       0.95569    0.30125    0.87153    1.000
    Cu80     Cu       0.24297    0.74297    0.33125    1.000
    Cu81     Cu       0.34599    0.84599    0.27723    1.000
    Cu82     Cu       0.37153    0.87153    0.30125    1.000
    Cu83     Cu       0.83125    0.68281    0.74297    1.000
    Cu84     Cu       0.77723    0.53079    0.84599    1.000
    Cu85     Cu       0.80125    0.45569    0.87153    1.000
    Cu86     Cu       0.24297    0.74297    0.68281    1.000
    Cu87     Cu       0.34599    0.84599    0.53079    1.000
    Cu88     Cu       0.37153    0.87153    0.45569    1.000
    Cu89     Cu       0.18281    0.74297    0.74297    1.000
    Cu90     Cu       0.03079    0.84599    0.84599    1.000
    Cu91     Cu       0.95569    0.87153    0.87153    1.000
    Cu92     Cu       0.24297    0.33125    0.68281    1.000
    Cu93     Cu       0.34599    0.27723    0.53079    1.000
    Cu94     Cu       0.37153    0.30125    0.45569    1.000
    Cu95     Cu       0.83125    0.74297    0.74297    1.000
    Cu96     Cu       0.77723    0.84599    0.84599    1.000
    Cu97     Cu       0.80125    0.87153    0.87153    1.000
    Cu98     Cu       0.24297    0.68281    0.33125    1.000
    Cu99     Cu       0.34599    0.53079    0.27723    1.000
    Cu100    Cu       0.37153    0.45569    0.30125    1.000
    Cu101    Cu       0.75703    0.31719    0.66875    1.000
    Cu102    Cu       0.65401    0.46921    0.72277    1.000
    Cu103    Cu       0.62847    0.54431    0.69875    1.000
    Cu104    Cu       0.81719    0.25703    0.25703    1.000
    Cu105    Cu       0.96921    0.15401    0.15401    1.000
    Cu106    Cu       0.04431    0.12847    0.12847    1.000
    Cu107    Cu       0.75703    0.66875    0.31719    1.000
    Cu108    Cu       0.65401    0.72277    0.46921    1.000
    Cu109    Cu       0.62847    0.69875    0.54431    1.000
    Cu110    Cu       0.16875    0.25703    0.25703    1.000
    Cu111    Cu       0.22277    0.15401    0.15401    1.000
    Cu112    Cu       0.19875    0.12847    0.12847    1.000
    Cu113    Cu       0.16875    0.31719    0.25703    1.000
    Cu114    Cu       0.22277    0.46921    0.15401    1.000
    Cu115    Cu       0.19875    0.54431    0.12847    1.000
    Cu116    Cu       0.75703    0.25703    0.66875    1.000
    Cu117    Cu       0.65401    0.15401    0.72277    1.000
    Cu118    Cu       0.62847    0.12847    0.69875    1.000
    Cu119    Cu       0.81719    0.66875    0.25703    1.000
    Cu120    Cu       0.96921    0.72277    0.15401    1.000
    Cu121    Cu       0.04431    0.69875    0.12847    1.000
    Cu122    Cu       0.75703    0.25703    0.31719    1.000
    Cu123    Cu       0.65401    0.15401    0.46921    1.000
    Cu124    Cu       0.62847    0.12847    0.54431    1.000
    Cu125    Cu       0.75703    0.31719    0.25703    1.000
    Cu126    Cu       0.65401    0.46921    0.15401    1.000
    Cu127    Cu       0.62847    0.54431    0.12847    1.000
    Cu128    Cu       0.16875    0.25703    0.31719    1.000
    Cu129    Cu       0.22277    0.15401    0.46921    1.000
    Cu130    Cu       0.19875    0.12847    0.54431    1.000
    Cu131    Cu       0.75703    0.66875    0.25703    1.000
    Cu132    Cu       0.65401    0.72277    0.15401    1.000
    Cu133    Cu       0.62847    0.69875    0.12847    1.000
    Cu134    Cu       0.81719    0.25703    0.66875    1.000
    Cu135    Cu       0.96921    0.15401    0.72277    1.000
    Cu136    Cu       0.04431    0.12847    0.69875    1.000
    H1       H        0.20420    0.67020    0.51200    1.000
    H2       H        0.18920    0.72460    0.45120    1.000
    H3       H        0.10080    0.78640    0.36140    1.000
    H4       H        0.13790    0.82750    0.30270    1.000
    H5       H        0.16100    0.81680    0.26620    1.000
    H6       H        0.05220    0.78620    0.34000    1.000
    H7       H        0.11200    0.84920    0.24860    1.000
    H8       H        0.08900    0.85980    0.28480    1.000
    H9       H        0.97850    0.87090    0.16970    1.000
    H10      H        0.02190    0.85530    0.15690    1.000
    H11      H        0.05530    0.80010    0.19530    1.000
    H12      H        0.03310    0.77570    0.23250    1.000
    H13      H        0.94310    0.83570    0.22630    1.000
    H14      H        0.96350    0.79850    0.25170    1.000
    H15      H        0.89660    0.92340    0.35000    1.000
    H16      H        0.87460    0.92820    0.32800    1.000
    H17      H        0.17020    0.70420    0.61360    1.000
    H18      H        0.22460    0.68920    0.63500    1.000
    H19      H        0.28640    0.60080    0.75140    1.000
    H20      H        0.32750    0.63790    0.73190    1.000
    H21      H        0.31680    0.66100    0.75600    1.000
    H22      H        0.28620    0.55220    0.82160    1.000
    H23      H        0.34920    0.61200    0.79020    1.000
    H24      H        0.35980    0.58900    0.76640    1.000
    H25      H        0.37090    0.47850    0.98090    1.000
    H26      H        0.35530    0.52190    0.96590    1.000
    H27      H        0.30010    0.55530    0.94930    1.000
    H28      H        0.27570    0.53310    0.95870    1.000
    H29      H        0.33570    0.44310    0.99490    1.000
    H30      H        0.29850    0.46350    0.98630    1.000
    H31      H        0.42340    0.39660    0.83000    1.000
    H32      H        0.42820    0.37460    0.86920    1.000
    H33      H        0.01200    0.61360    0.70420    1.000
    H34      H        0.95120    0.63500    0.68920    1.000
    H35      H        0.86140    0.75140    0.60080    1.000
    H36      H        0.80270    0.73190    0.63790    1.000
    H37      H        0.76620    0.75600    0.66100    1.000
    H38      H        0.84000    0.82160    0.55220    1.000
    H39      H        0.74860    0.79020    0.61200    1.000
    H40      H        0.78480    0.76640    0.58900    1.000
    H41      H        0.66970    0.98090    0.47850    1.000
    H42      H        0.65690    0.96590    0.52190    1.000
    H43      H        0.69530    0.94930    0.55530    1.000
    H44      H        0.73250    0.95870    0.53310    1.000
    H45      H        0.72630    0.99490    0.44310    1.000
    H46      H        0.75170    0.98630    0.46350    1.000
    H47      H        0.85000    0.83000    0.39660    1.000
    H48      H        0.82800    0.86920    0.37460    1.000
    H49      H        0.11360    0.51200    0.67020    1.000
    H50      H        0.13500    0.45120    0.72460    1.000
    H51      H        0.25140    0.36140    0.78640    1.000
    H52      H        0.23190    0.30270    0.82750    1.000
    H53      H        0.25600    0.26620    0.81680    1.000
    H54      H        0.32160    0.34000    0.78620    1.000
    H55      H        0.29020    0.24860    0.84920    1.000
    H56      H        0.26640    0.28480    0.85980    1.000
    H57      H        0.48090    0.16970    0.87090    1.000
    H58      H        0.46590    0.15690    0.85530    1.000
    H59      H        0.44930    0.19530    0.80010    1.000
    H60      H        0.45870    0.23250    0.77570    1.000
    H61      H        0.49490    0.22630    0.83570    1.000
    H62      H        0.48630    0.25170    0.79850    1.000
    H63      H        0.33000    0.35000    0.92340    1.000
    H64      H        0.36920    0.32800    0.92820    1.000
    H65      H        0.20420    0.51200    0.61360    1.000
    H66      H        0.18920    0.45120    0.63500    1.000
    H67      H        0.10080    0.36140    0.75140    1.000
    H68      H        0.13790    0.30270    0.73190    1.000
    H69      H        0.16100    0.26620    0.75600    1.000
    H70      H        0.05220    0.34000    0.82160    1.000
    H71      H        0.11200    0.24860    0.79020    1.000
    H72      H        0.08900    0.28480    0.76640    1.000
    H73      H        0.97850    0.16970    0.98090    1.000
    H74      H        0.02190    0.15690    0.96590    1.000
    H75      H        0.05530    0.19530    0.94930    1.000
    H76      H        0.03310    0.23250    0.95870    1.000
    H77      H        0.94310    0.22630    0.99490    1.000
    H78      H        0.96350    0.25170    0.98630    1.000
    H79      H        0.89660    0.35000    0.83000    1.000
    H80      H        0.87460    0.32800    0.86920    1.000
    H81      H        0.17020    0.61360    0.51200    1.000
    H82      H        0.22460    0.63500    0.45120    1.000
    H83      H        0.28640    0.75140    0.36140    1.000
    H84      H        0.32750    0.73190    0.30270    1.000
    H85      H        0.31680    0.75600    0.26620    1.000
    H86      H        0.28620    0.82160    0.34000    1.000
    H87      H        0.34920    0.79020    0.24860    1.000
    H88      H        0.35980    0.76640    0.28480    1.000
    H89      H        0.37090    0.98090    0.16970    1.000
    H90      H        0.35530    0.96590    0.15690    1.000
    H91      H        0.30010    0.94930    0.19530    1.000
    H92      H        0.27570    0.95870    0.23250    1.000
    H93      H        0.33570    0.99490    0.22630    1.000
    H94      H        0.29850    0.98630    0.25170    1.000
    H95      H        0.42340    0.83000    0.35000    1.000
    H96      H        0.42820    0.86920    0.32800    1.000
    H97      H        0.01200    0.70420    0.67020    1.000
    H98      H        0.95120    0.68920    0.72460    1.000
    H99      H        0.86140    0.60080    0.78640    1.000
    H100     H        0.80270    0.63790    0.82750    1.000
    H101     H        0.76620    0.66100    0.81680    1.000
    H102     H        0.84000    0.55220    0.78620    1.000
    H103     H        0.74860    0.61200    0.84920    1.000
    H104     H        0.78480    0.58900    0.85980    1.000
    H105     H        0.66970    0.47850    0.87090    1.000
    H106     H        0.65690    0.52190    0.85530    1.000
    H107     H        0.69530    0.55530    0.80010    1.000
    H108     H        0.73250    0.53310    0.77570    1.000
    H109     H        0.72630    0.44310    0.83570    1.000
    H110     H        0.75170    0.46350    0.79850    1.000
    H111     H        0.85000    0.39660    0.92340    1.000
    H112     H        0.82800    0.37460    0.92820    1.000
    H113     H        0.11360    0.67020    0.70420    1.000
    H114     H        0.13500    0.72460    0.68920    1.000
    H115     H        0.25140    0.78640    0.60080    1.000
    H116     H        0.23190    0.82750    0.63790    1.000
    H117     H        0.25600    0.81680    0.66100    1.000
    H118     H        0.32160    0.78620    0.55220    1.000
    H119     H        0.29020    0.84920    0.61200    1.000
    H120     H        0.26640    0.85980    0.58900    1.000
    H121     H        0.48090    0.87090    0.47850    1.000
    H122     H        0.46590    0.85530    0.52190    1.000
    H123     H        0.44930    0.80010    0.55530    1.000
    H124     H        0.45870    0.77570    0.53310    1.000
    H125     H        0.49490    0.83570    0.44310    1.000
    H126     H        0.48630    0.79850    0.46350    1.000
    H127     H        0.33000    0.92340    0.39660    1.000
    H128     H        0.36920    0.92820    0.37460    1.000
    H129     H        0.20420    0.61360    0.67020    1.000
    H130     H        0.18920    0.63500    0.72460    1.000
    H131     H        0.10080    0.75140    0.78640    1.000
    H132     H        0.13790    0.73190    0.82750    1.000
    H133     H        0.16100    0.75600    0.81680    1.000
    H134     H        0.05220    0.82160    0.78620    1.000
    H135     H        0.11200    0.79020    0.84920    1.000
    H136     H        0.08900    0.76640    0.85980    1.000
    H137     H        0.97850    0.98090    0.87090    1.000
    H138     H        0.02190    0.96590    0.85530    1.000
    H139     H        0.05530    0.94930    0.80010    1.000
    H140     H        0.03310    0.95870    0.77570    1.000
    H141     H        0.94310    0.99490    0.83570    1.000
    H142     H        0.96350    0.98630    0.79850    1.000
    H143     H        0.89660    0.83000    0.92340    1.000
    H144     H        0.87460    0.86920    0.92820    1.000
    H145     H        0.17020    0.51200    0.70420    1.000
    H146     H        0.22460    0.45120    0.68920    1.000
    H147     H        0.28640    0.36140    0.60080    1.000
    H148     H        0.32750    0.30270    0.63790    1.000
    H149     H        0.31680    0.26620    0.66100    1.000
    H150     H        0.28620    0.34000    0.55220    1.000
    H151     H        0.34920    0.24860    0.61200    1.000
    H152     H        0.35980    0.28480    0.58900    1.000
    H153     H        0.37090    0.16970    0.47850    1.000
    H154     H        0.35530    0.15690    0.52190    1.000
    H155     H        0.30010    0.19530    0.55530    1.000
    H156     H        0.27570    0.23250    0.53310    1.000
    H157     H        0.33570    0.22630    0.44310    1.000
    H158     H        0.29850    0.25170    0.46350    1.000
    H159     H        0.42340    0.35000    0.39660    1.000
    H160     H        0.42820    0.32800    0.37460    1.000
    H161     H        0.01200    0.67020    0.61360    1.000
    H162     H        0.95120    0.72460    0.63500    1.000
    H163     H        0.86140    0.78640    0.75140    1.000
    H164     H        0.80270    0.82750    0.73190    1.000
    H165     H        0.76620    0.81680    0.75600    1.000
    H166     H        0.84000    0.78620    0.82160    1.000
    H167     H        0.74860    0.84920    0.79020    1.000
    H168     H        0.78480    0.85980    0.76640    1.000
    H169     H        0.66970    0.87090    0.98090    1.000
    H170     H        0.65690    0.85530    0.96590    1.000
    H171     H        0.69530    0.80010    0.94930    1.000
    H172     H        0.73250    0.77570    0.95870    1.000
    H173     H        0.72630    0.83570    0.99490    1.000
    H174     H        0.75170    0.79850    0.98630    1.000
    H175     H        0.85000    0.92340    0.83000    1.000
    H176     H        0.82800    0.92820    0.86920    1.000
    H177     H        0.11360    0.70420    0.51200    1.000
    H178     H        0.13500    0.68920    0.45120    1.000
    H179     H        0.25140    0.60080    0.36140    1.000
    H180     H        0.23190    0.63790    0.30270    1.000
    H181     H        0.25600    0.66100    0.26620    1.000
    H182     H        0.32160    0.55220    0.34000    1.000
    H183     H        0.29020    0.61200    0.24860    1.000
    H184     H        0.26640    0.58900    0.28480    1.000
    H185     H        0.48090    0.47850    0.16970    1.000
    H186     H        0.46590    0.52190    0.15690    1.000
    H187     H        0.44930    0.55530    0.19530    1.000
    H188     H        0.45870    0.53310    0.23250    1.000
    H189     H        0.49490    0.44310    0.22630    1.000
    H190     H        0.48630    0.46350    0.25170    1.000
    H191     H        0.33000    0.39660    0.35000    1.000
    H192     H        0.36920    0.37460    0.32800    1.000
    H193     H        0.82980    0.29580    0.48800    1.000
    H194     H        0.77540    0.31080    0.54880    1.000
    H195     H        0.71360    0.39920    0.63860    1.000
    H196     H        0.67250    0.36210    0.69730    1.000
    H197     H        0.68320    0.33900    0.73380    1.000
    H198     H        0.71380    0.44780    0.66000    1.000
    H199     H        0.65080    0.38800    0.75140    1.000
    H200     H        0.64020    0.41100    0.71520    1.000
    H201     H        0.62910    0.52150    0.83030    1.000
    H202     H        0.64470    0.47810    0.84310    1.000
    H203     H        0.69990    0.44470    0.80470    1.000
    H204     H        0.72430    0.46690    0.76750    1.000
    H205     H        0.66430    0.55690    0.77370    1.000
    H206     H        0.70150    0.53650    0.74830    1.000
    H207     H        0.57660    0.60340    0.65000    1.000
    H208     H        0.57180    0.62540    0.67200    1.000
    H209     H        0.79580    0.32980    0.38640    1.000
    H210     H        0.81080    0.27540    0.36500    1.000
    H211     H        0.89920    0.21360    0.24860    1.000
    H212     H        0.86210    0.17250    0.26810    1.000
    H213     H        0.83900    0.18320    0.24400    1.000
    H214     H        0.94780    0.21380    0.17840    1.000
    H215     H        0.88800    0.15080    0.20980    1.000
    H216     H        0.91100    0.14020    0.23360    1.000
    H217     H        0.02150    0.12910    0.01910    1.000
    H218     H        0.97810    0.14470    0.03410    1.000
    H219     H        0.94470    0.19990    0.05070    1.000
    H220     H        0.96690    0.22430    0.04130    1.000
    H221     H        0.05690    0.16430    0.00510    1.000
    H222     H        0.03650    0.20150    0.01370    1.000
    H223     H        0.10340    0.07660    0.17000    1.000
    H224     H        0.12540    0.07180    0.13080    1.000
    H225     H        0.88640    0.48800    0.29580    1.000
    H226     H        0.86500    0.54880    0.31080    1.000
    H227     H        0.74860    0.63860    0.39920    1.000
    H228     H        0.76810    0.69730    0.36210    1.000
    H229     H        0.74400    0.73380    0.33900    1.000
    H230     H        0.67840    0.66000    0.44780    1.000
    H231     H        0.70980    0.75140    0.38800    1.000
    H232     H        0.73360    0.71520    0.41100    1.000
    H233     H        0.51910    0.83030    0.52150    1.000
    H234     H        0.53410    0.84310    0.47810    1.000
    H235     H        0.55070    0.80470    0.44470    1.000
    H236     H        0.54130    0.76750    0.46690    1.000
    H237     H        0.50510    0.77370    0.55690    1.000
    H238     H        0.51370    0.74830    0.53650    1.000
    H239     H        0.67000    0.65000    0.60340    1.000
    H240     H        0.63080    0.67200    0.62540    1.000
    H241     H        0.98800    0.38640    0.32980    1.000
    H242     H        0.04880    0.36500    0.27540    1.000
    H243     H        0.13860    0.24860    0.21360    1.000
    H244     H        0.19730    0.26810    0.17250    1.000
    H245     H        0.23380    0.24400    0.18320    1.000
    H246     H        0.16000    0.17840    0.21380    1.000
    H247     H        0.25140    0.20980    0.15080    1.000
    H248     H        0.21520    0.23360    0.14020    1.000
    H249     H        0.33030    0.01910    0.12910    1.000
    H250     H        0.34310    0.03410    0.14470    1.000
    H251     H        0.30470    0.05070    0.19990    1.000
    H252     H        0.26750    0.04130    0.22430    1.000
    H253     H        0.27370    0.00510    0.16430    1.000
    H254     H        0.24830    0.01370    0.20150    1.000
    H255     H        0.15000    0.17000    0.07660    1.000
    H256     H        0.17200    0.13080    0.07180    1.000
    H257     H        0.98800    0.29580    0.38640    1.000
    H258     H        0.04880    0.31080    0.36500    1.000
    H259     H        0.13860    0.39920    0.24860    1.000
    H260     H        0.19730    0.36210    0.26810    1.000
    H261     H        0.23380    0.33900    0.24400    1.000
    H262     H        0.16000    0.44780    0.17840    1.000
    H263     H        0.25140    0.38800    0.20980    1.000
    H264     H        0.21520    0.41100    0.23360    1.000
    H265     H        0.33030    0.52150    0.01910    1.000
    H266     H        0.34310    0.47810    0.03410    1.000
    H267     H        0.30470    0.44470    0.05070    1.000
    H268     H        0.26750    0.46690    0.04130    1.000
    H269     H        0.27370    0.55690    0.00510    1.000
    H270     H        0.24830    0.53650    0.01370    1.000
    H271     H        0.15000    0.60340    0.17000    1.000
    H272     H        0.17200    0.62540    0.13080    1.000
    H273     H        0.88640    0.32980    0.48800    1.000
    H274     H        0.86500    0.27540    0.54880    1.000
    H275     H        0.74860    0.21360    0.63860    1.000
    H276     H        0.76810    0.17250    0.69730    1.000
    H277     H        0.74400    0.18320    0.73380    1.000
    H278     H        0.67840    0.21380    0.66000    1.000
    H279     H        0.70980    0.15080    0.75140    1.000
    H280     H        0.73360    0.14020    0.71520    1.000
    H281     H        0.51910    0.12910    0.83030    1.000
    H282     H        0.53410    0.14470    0.84310    1.000
    H283     H        0.55070    0.19990    0.80470    1.000
    H284     H        0.54130    0.22430    0.76750    1.000
    H285     H        0.50510    0.16430    0.77370    1.000
    H286     H        0.51370    0.20150    0.74830    1.000
    H287     H        0.67000    0.07660    0.65000    1.000
    H288     H        0.63080    0.07180    0.67200    1.000
    H289     H        0.79580    0.48800    0.32980    1.000
    H290     H        0.81080    0.54880    0.27540    1.000
    H291     H        0.89920    0.63860    0.21360    1.000
    H292     H        0.86210    0.69730    0.17250    1.000
    H293     H        0.83900    0.73380    0.18320    1.000
    H294     H        0.94780    0.66000    0.21380    1.000
    H295     H        0.88800    0.75140    0.15080    1.000
    H296     H        0.91100    0.71520    0.14020    1.000
    H297     H        0.02150    0.83030    0.12910    1.000
    H298     H        0.97810    0.84310    0.14470    1.000
    H299     H        0.94470    0.80470    0.19990    1.000
    H300     H        0.96690    0.76750    0.22430    1.000
    H301     H        0.05690    0.77370    0.16430    1.000
    H302     H        0.03650    0.74830    0.20150    1.000
    H303     H        0.10340    0.65000    0.07660    1.000
    H304     H        0.12540    0.67200    0.07180    1.000
    H305     H        0.82980    0.38640    0.29580    1.000
    H306     H        0.77540    0.36500    0.31080    1.000
    H307     H        0.71360    0.24860    0.39920    1.000
    H308     H        0.67250    0.26810    0.36210    1.000
    H309     H        0.68320    0.24400    0.33900    1.000
    H310     H        0.71380    0.17840    0.44780    1.000
    H311     H        0.65080    0.20980    0.38800    1.000
    H312     H        0.64020    0.23360    0.41100    1.000
    H313     H        0.62910    0.01910    0.52150    1.000
    H314     H        0.64470    0.03410    0.47810    1.000
    H315     H        0.69990    0.05070    0.44470    1.000
    H316     H        0.72430    0.04130    0.46690    1.000
    H317     H        0.66430    0.00510    0.55690    1.000
    H318     H        0.70150    0.01370    0.53650    1.000
    H319     H        0.57660    0.17000    0.60340    1.000
    H320     H        0.57180    0.13080    0.62540    1.000
    H321     H        0.88640    0.29580    0.32980    1.000
    H322     H        0.86500    0.31080    0.27540    1.000
    H323     H        0.74860    0.39920    0.21360    1.000
    H324     H        0.76810    0.36210    0.17250    1.000
    H325     H        0.74400    0.33900    0.18320    1.000
    H326     H        0.67840    0.44780    0.21380    1.000
    H327     H        0.70980    0.38800    0.15080    1.000
    H328     H        0.73360    0.41100    0.14020    1.000
    H329     H        0.51910    0.52150    0.12910    1.000
    H330     H        0.53410    0.47810    0.14470    1.000
    H331     H        0.55070    0.44470    0.19990    1.000
    H332     H        0.54130    0.46690    0.22430    1.000
    H333     H        0.50510    0.55690    0.16430    1.000
    H334     H        0.51370    0.53650    0.20150    1.000
    H335     H        0.67000    0.60340    0.07660    1.000
    H336     H        0.63080    0.62540    0.07180    1.000
    H337     H        0.98800    0.32980    0.29580    1.000
    H338     H        0.04880    0.27540    0.31080    1.000
    H339     H        0.13860    0.21360    0.39920    1.000
    H340     H        0.19730    0.17250    0.36210    1.000
    H341     H        0.23380    0.18320    0.33900    1.000
    H342     H        0.16000    0.21380    0.44780    1.000
    H343     H        0.25140    0.15080    0.38800    1.000
    H344     H        0.21520    0.14020    0.41100    1.000
    H345     H        0.33030    0.12910    0.52150    1.000
    H346     H        0.34310    0.14470    0.47810    1.000
    H347     H        0.30470    0.19990    0.44470    1.000
    H348     H        0.26750    0.22430    0.46690    1.000
    H349     H        0.27370    0.16430    0.55690    1.000
    H350     H        0.24830    0.20150    0.53650    1.000
    H351     H        0.15000    0.07660    0.60340    1.000
    H352     H        0.17200    0.07180    0.62540    1.000
    H353     H        0.82980    0.48800    0.38640    1.000
    H354     H        0.77540    0.54880    0.36500    1.000
    H355     H        0.71360    0.63860    0.24860    1.000
    H356     H        0.67250    0.69730    0.26810    1.000
    H357     H        0.68320    0.73380    0.24400    1.000
    H358     H        0.71380    0.66000    0.17840    1.000
    H359     H        0.65080    0.75140    0.20980    1.000
    H360     H        0.64020    0.71520    0.23360    1.000
    H361     H        0.62910    0.83030    0.01910    1.000
    H362     H        0.64470    0.84310    0.03410    1.000
    H363     H        0.69990    0.80470    0.05070    1.000
    H364     H        0.72430    0.76750    0.04130    1.000
    H365     H        0.66430    0.77370    0.00510    1.000
    H366     H        0.70150    0.74830    0.01370    1.000
    H367     H        0.57660    0.65000    0.17000    1.000
    H368     H        0.57180    0.67200    0.13080    1.000
    H369     H        0.79580    0.38640    0.48800    1.000
    H370     H        0.81080    0.36500    0.54880    1.000
    H371     H        0.89920    0.24860    0.63860    1.000
    H372     H        0.86210    0.26810    0.69730    1.000
    H373     H        0.83900    0.24400    0.73380    1.000
    H374     H        0.94780    0.17840    0.66000    1.000
    H375     H        0.88800    0.20980    0.75140    1.000
    H376     H        0.91100    0.23360    0.71520    1.000
    H377     H        0.02150    0.01910    0.83030    1.000
    H378     H        0.97810    0.03410    0.84310    1.000
    H379     H        0.94470    0.05070    0.80470    1.000
    H380     H        0.96690    0.04130    0.76750    1.000
    H381     H        0.05690    0.00510    0.77370    1.000
    H382     H        0.03650    0.01370    0.74830    1.000
    H383     H        0.10340    0.17000    0.65000    1.000
    H384     H        0.12540    0.13080    0.67200    1.000
    H385     H        0.79580    0.32980    0.48800    1.000
    H386     H        0.81080    0.27540    0.54880    1.000
    H387     H        0.89920    0.21360    0.63860    1.000
    H388     H        0.86210    0.17250    0.69730    1.000
    H389     H        0.83900    0.18320    0.73380    1.000
    H390     H        0.94780    0.21380    0.66000    1.000
    H391     H        0.88800    0.15080    0.75140    1.000
    H392     H        0.91100    0.14020    0.71520    1.000
    H393     H        0.02150    0.12910    0.83030    1.000
    H394     H        0.97810    0.14470    0.84310    1.000
    H395     H        0.94470    0.19990    0.80470    1.000
    H396     H        0.96690    0.22430    0.76750    1.000
    H397     H        0.05690    0.16430    0.77370    1.000
    H398     H        0.03650    0.20150    0.74830    1.000
    H399     H        0.10340    0.07660    0.65000    1.000
    H400     H        0.12540    0.07180    0.67200    1.000
    H401     H        0.82980    0.29580    0.38640    1.000
    H402     H        0.77540    0.31080    0.36500    1.000
    H403     H        0.71360    0.39920    0.24860    1.000
    H404     H        0.67250    0.36210    0.26810    1.000
    H405     H        0.68320    0.33900    0.24400    1.000
    H406     H        0.71380    0.44780    0.17840    1.000
    H407     H        0.65080    0.38800    0.20980    1.000
    H408     H        0.64020    0.41100    0.23360    1.000
    H409     H        0.62910    0.52150    0.01910    1.000
    H410     H        0.64470    0.47810    0.03410    1.000
    H411     H        0.69990    0.44470    0.05070    1.000
    H412     H        0.72430    0.46690    0.04130    1.000
    H413     H        0.66430    0.55690    0.00510    1.000
    H414     H        0.70150    0.53650    0.01370    1.000
    H415     H        0.57660    0.60340    0.17000    1.000
    H416     H        0.57180    0.62540    0.13080    1.000
    H417     H        0.98800    0.38640    0.29580    1.000
    H418     H        0.04880    0.36500    0.31080    1.000
    H419     H        0.13860    0.24860    0.39920    1.000
    H420     H        0.19730    0.26810    0.36210    1.000
    H421     H        0.23380    0.24400    0.33900    1.000
    H422     H        0.16000    0.17840    0.44780    1.000
    H423     H        0.25140    0.20980    0.38800    1.000
    H424     H        0.21520    0.23360    0.41100    1.000
    H425     H        0.33030    0.01910    0.52150    1.000
    H426     H        0.34310    0.03410    0.47810    1.000
    H427     H        0.30470    0.05070    0.44470    1.000
    H428     H        0.26750    0.04130    0.46690    1.000
    H429     H        0.27370    0.00510    0.55690    1.000
    H430     H        0.24830    0.01370    0.53650    1.000
    H431     H        0.15000    0.17000    0.60340    1.000
    H432     H        0.17200    0.13080    0.62540    1.000
    H433     H        0.88640    0.48800    0.32980    1.000
    H434     H        0.86500    0.54880    0.27540    1.000
    H435     H        0.74860    0.63860    0.21360    1.000
    H436     H        0.76810    0.69730    0.17250    1.000
    H437     H        0.74400    0.73380    0.18320    1.000
    H438     H        0.67840    0.66000    0.21380    1.000
    H439     H        0.70980    0.75140    0.15080    1.000
    H440     H        0.73360    0.71520    0.14020    1.000
    H441     H        0.51910    0.83030    0.12910    1.000
    H442     H        0.53410    0.84310    0.14470    1.000
    H443     H        0.55070    0.80470    0.19990    1.000
    H444     H        0.54130    0.76750    0.22430    1.000
    H445     H        0.50510    0.77370    0.16430    1.000
    H446     H        0.51370    0.74830    0.20150    1.000
    H447     H        0.67000    0.65000    0.07660    1.000
    H448     H        0.63080    0.67200    0.07180    1.000
    H449     H        0.79580    0.48800    0.38640    1.000
    H450     H        0.81080    0.54880    0.36500    1.000
    H451     H        0.89920    0.63860    0.24860    1.000
    H452     H        0.86210    0.69730    0.26810    1.000
    H453     H        0.83900    0.73380    0.24400    1.000
    H454     H        0.94780    0.66000    0.17840    1.000
    H455     H        0.88800    0.75140    0.20980    1.000
    H456     H        0.91100    0.71520    0.23360    1.000
    H457     H        0.02150    0.83030    0.01910    1.000
    H458     H        0.97810    0.84310    0.03410    1.000
    H459     H        0.94470    0.80470    0.05070    1.000
    H460     H        0.96690    0.76750    0.04130    1.000
    H461     H        0.05690    0.77370    0.00510    1.000
    H462     H        0.03650    0.74830    0.01370    1.000
    H463     H        0.10340    0.65000    0.17000    1.000
    H464     H        0.12540    0.67200    0.13080    1.000
    H465     H        0.82980    0.38640    0.48800    1.000
    H466     H        0.77540    0.36500    0.54880    1.000
    H467     H        0.71360    0.24860    0.63860    1.000
    H468     H        0.67250    0.26810    0.69730    1.000
    H469     H        0.68320    0.24400    0.73380    1.000
    H470     H        0.71380    0.17840    0.66000    1.000
    H471     H        0.65080    0.20980    0.75140    1.000
    H472     H        0.64020    0.23360    0.71520    1.000
    H473     H        0.62910    0.01910    0.83030    1.000
    H474     H        0.64470    0.03410    0.84310    1.000
    H475     H        0.69990    0.05070    0.80470    1.000
    H476     H        0.72430    0.04130    0.76750    1.000
    H477     H        0.66430    0.00510    0.77370    1.000
    H478     H        0.70150    0.01370    0.74830    1.000
    H479     H        0.57660    0.17000    0.65000    1.000
    H480     H        0.57180    0.13080    0.67200    1.000
    H481     H        0.98800    0.29580    0.32980    1.000
    H482     H        0.04880    0.31080    0.27540    1.000
    H483     H        0.13860    0.39920    0.21360    1.000
    H484     H        0.19730    0.36210    0.17250    1.000
    H485     H        0.23380    0.33900    0.18320    1.000
    H486     H        0.16000    0.44780    0.21380    1.000
    H487     H        0.25140    0.38800    0.15080    1.000
    H488     H        0.21520    0.41100    0.14020    1.000
    H489     H        0.33030    0.52150    0.12910    1.000
    H490     H        0.34310    0.47810    0.14470    1.000
    H491     H        0.30470    0.44470    0.19990    1.000
    H492     H        0.26750    0.46690    0.22430    1.000
    H493     H        0.27370    0.55690    0.16430    1.000
    H494     H        0.24830    0.53650    0.20150    1.000
    H495     H        0.15000    0.60340    0.07660    1.000
    H496     H        0.17200    0.62540    0.07180    1.000
    H497     H        0.88640    0.32980    0.29580    1.000
    H498     H        0.86500    0.27540    0.31080    1.000
    H499     H        0.74860    0.21360    0.39920    1.000
    H500     H        0.76810    0.17250    0.36210    1.000
    H501     H        0.74400    0.18320    0.33900    1.000
    H502     H        0.67840    0.21380    0.44780    1.000
    H503     H        0.70980    0.15080    0.38800    1.000
    H504     H        0.73360    0.14020    0.41100    1.000
    H505     H        0.51910    0.12910    0.52150    1.000
    H506     H        0.53410    0.14470    0.47810    1.000
    H507     H        0.55070    0.19990    0.44470    1.000
    H508     H        0.54130    0.22430    0.46690    1.000
    H509     H        0.50510    0.16430    0.55690    1.000
    H510     H        0.51370    0.20150    0.53650    1.000
    H511     H        0.67000    0.07660    0.60340    1.000
    H512     H        0.63080    0.07180    0.62540    1.000
    H513     H        0.79580    0.38640    0.32980    1.000
    H514     H        0.81080    0.36500    0.27540    1.000
    H515     H        0.89920    0.24860    0.21360    1.000
    H516     H        0.86210    0.26810    0.17250    1.000
    H517     H        0.83900    0.24400    0.18320    1.000
    H518     H        0.94780    0.17840    0.21380    1.000
    H519     H        0.88800    0.20980    0.15080    1.000
    H520     H        0.91100    0.23360    0.14020    1.000
    H521     H        0.02150    0.01910    0.12910    1.000
    H522     H        0.97810    0.03410    0.14470    1.000
    H523     H        0.94470    0.05070    0.19990    1.000
    H524     H        0.96690    0.04130    0.22430    1.000
    H525     H        0.05690    0.00510    0.16430    1.000
    H526     H        0.03650    0.01370    0.20150    1.000
    H527     H        0.10340    0.17000    0.07660    1.000
    H528     H        0.12540    0.13080    0.07180    1.000
    H529     H        0.82980    0.48800    0.29580    1.000
    H530     H        0.77540    0.54880    0.31080    1.000
    H531     H        0.71360    0.63860    0.39920    1.000
    H532     H        0.67250    0.69730    0.36210    1.000
    H533     H        0.68320    0.73380    0.33900    1.000
    H534     H        0.71380    0.66000    0.44780    1.000
    H535     H        0.65080    0.75140    0.38800    1.000
    H536     H        0.64020    0.71520    0.41100    1.000
    H537     H        0.62910    0.83030    0.52150    1.000
    H538     H        0.64470    0.84310    0.47810    1.000
    H539     H        0.69990    0.80470    0.44470    1.000
    H540     H        0.72430    0.76750    0.46690    1.000
    H541     H        0.66430    0.77370    0.55690    1.000
    H542     H        0.70150    0.74830    0.53650    1.000
    H543     H        0.57660    0.65000    0.60340    1.000
    H544     H        0.57180    0.67200    0.62540    1.000
    H545     H        0.98800    0.32980    0.38640    1.000
    H546     H        0.04880    0.27540    0.36500    1.000
    H547     H        0.13860    0.21360    0.24860    1.000
    H548     H        0.19730    0.17250    0.26810    1.000
    H549     H        0.23380    0.18320    0.24400    1.000
    H550     H        0.16000    0.21380    0.17840    1.000
    H551     H        0.25140    0.15080    0.20980    1.000
    H552     H        0.21520    0.14020    0.23360    1.000
    H553     H        0.33030    0.12910    0.01910    1.000
    H554     H        0.34310    0.14470    0.03410    1.000
    H555     H        0.30470    0.19990    0.05070    1.000
    H556     H        0.26750    0.22430    0.04130    1.000
    H557     H        0.27370    0.16430    0.00510    1.000
    H558     H        0.24830    0.20150    0.01370    1.000
    H559     H        0.15000    0.07660    0.17000    1.000
    H560     H        0.17200    0.07180    0.13080    1.000
    H561     H        0.88640    0.29580    0.48800    1.000
    H562     H        0.86500    0.31080    0.54880    1.000
    H563     H        0.74860    0.39920    0.63860    1.000
    H564     H        0.76810    0.36210    0.69730    1.000
    H565     H        0.74400    0.33900    0.73380    1.000
    H566     H        0.67840    0.44780    0.66000    1.000
    H567     H        0.70980    0.38800    0.75140    1.000
    H568     H        0.73360    0.41100    0.71520    1.000
    H569     H        0.51910    0.52150    0.83030    1.000
    H570     H        0.53410    0.47810    0.84310    1.000
    H571     H        0.55070    0.44470    0.80470    1.000
    H572     H        0.54130    0.46690    0.76750    1.000
    H573     H        0.50510    0.55690    0.77370    1.000
    H574     H        0.51370    0.53650    0.74830    1.000
    H575     H        0.67000    0.60340    0.65000    1.000
    H576     H        0.63080    0.62540    0.67200    1.000
    H577     H        0.17020    0.70420    0.51200    1.000
    H578     H        0.22460    0.68920    0.45120    1.000
    H579     H        0.28640    0.60080    0.36140    1.000
    H580     H        0.32750    0.63790    0.30270    1.000
    H581     H        0.31680    0.66100    0.26620    1.000
    H582     H        0.28620    0.55220    0.34000    1.000
    H583     H        0.34920    0.61200    0.24860    1.000
    H584     H        0.35980    0.58900    0.28480    1.000
    H585     H        0.37090    0.47850    0.16970    1.000
    H586     H        0.35530    0.52190    0.15690    1.000
    H587     H        0.30010    0.55530    0.19530    1.000
    H588     H        0.27570    0.53310    0.23250    1.000
    H589     H        0.33570    0.44310    0.22630    1.000
    H590     H        0.29850    0.46350    0.25170    1.000
    H591     H        0.42340    0.39660    0.35000    1.000
    H592     H        0.42820    0.37460    0.32800    1.000
    H593     H        0.20420    0.67020    0.61360    1.000
    H594     H        0.18920    0.72460    0.63500    1.000
    H595     H        0.10080    0.78640    0.75140    1.000
    H596     H        0.13790    0.82750    0.73190    1.000
    H597     H        0.16100    0.81680    0.75600    1.000
    H598     H        0.05220    0.78620    0.82160    1.000
    H599     H        0.11200    0.84920    0.79020    1.000
    H600     H        0.08900    0.85980    0.76640    1.000
    H601     H        0.97850    0.87090    0.98090    1.000
    H602     H        0.02190    0.85530    0.96590    1.000
    H603     H        0.05530    0.80010    0.94930    1.000
    H604     H        0.03310    0.77570    0.95870    1.000
    H605     H        0.94310    0.83570    0.99490    1.000
    H606     H        0.96350    0.79850    0.98630    1.000
    H607     H        0.89660    0.92340    0.83000    1.000
    H608     H        0.87460    0.92820    0.86920    1.000
    H609     H        0.11360    0.51200    0.70420    1.000
    H610     H        0.13500    0.45120    0.68920    1.000
    H611     H        0.25140    0.36140    0.60080    1.000
    H612     H        0.23190    0.30270    0.63790    1.000
    H613     H        0.25600    0.26620    0.66100    1.000
    H614     H        0.32160    0.34000    0.55220    1.000
    H615     H        0.29020    0.24860    0.61200    1.000
    H616     H        0.26640    0.28480    0.58900    1.000
    H617     H        0.48090    0.16970    0.47850    1.000
    H618     H        0.46590    0.15690    0.52190    1.000
    H619     H        0.44930    0.19530    0.55530    1.000
    H620     H        0.45870    0.23250    0.53310    1.000
    H621     H        0.49490    0.22630    0.44310    1.000
    H622     H        0.48630    0.25170    0.46350    1.000
    H623     H        0.33000    0.35000    0.39660    1.000
    H624     H        0.36920    0.32800    0.37460    1.000
    H625     H        0.01200    0.61360    0.67020    1.000
    H626     H        0.95120    0.63500    0.72460    1.000
    H627     H        0.86140    0.75140    0.78640    1.000
    H628     H        0.80270    0.73190    0.82750    1.000
    H629     H        0.76620    0.75600    0.81680    1.000
    H630     H        0.84000    0.82160    0.78620    1.000
    H631     H        0.74860    0.79020    0.84920    1.000
    H632     H        0.78480    0.76640    0.85980    1.000
    H633     H        0.66970    0.98090    0.87090    1.000
    H634     H        0.65690    0.96590    0.85530    1.000
    H635     H        0.69530    0.94930    0.80010    1.000
    H636     H        0.73250    0.95870    0.77570    1.000
    H637     H        0.72630    0.99490    0.83570    1.000
    H638     H        0.75170    0.98630    0.79850    1.000
    H639     H        0.85000    0.83000    0.92340    1.000
    H640     H        0.82800    0.86920    0.92820    1.000
    H641     H        0.01200    0.70420    0.61360    1.000
    H642     H        0.95120    0.68920    0.63500    1.000
    H643     H        0.86140    0.60080    0.75140    1.000
    H644     H        0.80270    0.63790    0.73190    1.000
    H645     H        0.76620    0.66100    0.75600    1.000
    H646     H        0.84000    0.55220    0.82160    1.000
    H647     H        0.74860    0.61200    0.79020    1.000
    H648     H        0.78480    0.58900    0.76640    1.000
    H649     H        0.66970    0.47850    0.98090    1.000
    H650     H        0.65690    0.52190    0.96590    1.000
    H651     H        0.69530    0.55530    0.94930    1.000
    H652     H        0.73250    0.53310    0.95870    1.000
    H653     H        0.72630    0.44310    0.99490    1.000
    H654     H        0.75170    0.46350    0.98630    1.000
    H655     H        0.85000    0.39660    0.83000    1.000
    H656     H        0.82800    0.37460    0.86920    1.000
    H657     H        0.11360    0.67020    0.51200    1.000
    H658     H        0.13500    0.72460    0.45120    1.000
    H659     H        0.25140    0.78640    0.36140    1.000
    H660     H        0.23190    0.82750    0.30270    1.000
    H661     H        0.25600    0.81680    0.26620    1.000
    H662     H        0.32160    0.78620    0.34000    1.000
    H663     H        0.29020    0.84920    0.24860    1.000
    H664     H        0.26640    0.85980    0.28480    1.000
    H665     H        0.48090    0.87090    0.16970    1.000
    H666     H        0.46590    0.85530    0.15690    1.000
    H667     H        0.44930    0.80010    0.19530    1.000
    H668     H        0.45870    0.77570    0.23250    1.000
    H669     H        0.49490    0.83570    0.22630    1.000
    H670     H        0.48630    0.79850    0.25170    1.000
    H671     H        0.33000    0.92340    0.35000    1.000
    H672     H        0.36920    0.92820    0.32800    1.000
    H673     H        0.20420    0.51200    0.67020    1.000
    H674     H        0.18920    0.45120    0.72460    1.000
    H675     H        0.10080    0.36140    0.78640    1.000
    H676     H        0.13790    0.30270    0.82750    1.000
    H677     H        0.16100    0.26620    0.81680    1.000
    H678     H        0.05220    0.34000    0.78620    1.000
    H679     H        0.11200    0.24860    0.84920    1.000
    H680     H        0.08900    0.28480    0.85980    1.000
    H681     H        0.97850    0.16970    0.87090    1.000
    H682     H        0.02190    0.15690    0.85530    1.000
    H683     H        0.05530    0.19530    0.80010    1.000
    H684     H        0.03310    0.23250    0.77570    1.000
    H685     H        0.94310    0.22630    0.83570    1.000
    H686     H        0.96350    0.25170    0.79850    1.000
    H687     H        0.89660    0.35000    0.92340    1.000
    H688     H        0.87460    0.32800    0.92820    1.000
    H689     H        0.17020    0.61360    0.70420    1.000
    H690     H        0.22460    0.63500    0.68920    1.000
    H691     H        0.28640    0.75140    0.60080    1.000
    H692     H        0.32750    0.73190    0.63790    1.000
    H693     H        0.31680    0.75600    0.66100    1.000
    H694     H        0.28620    0.82160    0.55220    1.000
    H695     H        0.34920    0.79020    0.61200    1.000
    H696     H        0.35980    0.76640    0.58900    1.000
    H697     H        0.37090    0.98090    0.47850    1.000
    H698     H        0.35530    0.96590    0.52190    1.000
    H699     H        0.30010    0.94930    0.55530    1.000
    H700     H        0.27570    0.95870    0.53310    1.000
    H701     H        0.33570    0.99490    0.44310    1.000
    H702     H        0.29850    0.98630    0.46350    1.000
    H703     H        0.42340    0.83000    0.39660    1.000
    H704     H        0.42820    0.86920    0.37460    1.000
    H705     H        0.11360    0.70420    0.67020    1.000
    H706     H        0.13500    0.68920    0.72460    1.000
    H707     H        0.25140    0.60080    0.78640    1.000
    H708     H        0.23190    0.63790    0.82750    1.000
    H709     H        0.25600    0.66100    0.81680    1.000
    H710     H        0.32160    0.55220    0.78620    1.000
    H711     H        0.29020    0.61200    0.84920    1.000
    H712     H        0.26640    0.58900    0.85980    1.000
    H713     H        0.48090    0.47850    0.87090    1.000
    H714     H        0.46590    0.52190    0.85530    1.000
    H715     H        0.44930    0.55530    0.80010    1.000
    H716     H        0.45870    0.53310    0.77570    1.000
    H717     H        0.49490    0.44310    0.83570    1.000
    H718     H        0.48630    0.46350    0.79850    1.000
    H719     H        0.33000    0.39660    0.92340    1.000
    H720     H        0.36920    0.37460    0.92820    1.000
    H721     H        0.01200    0.67020    0.70420    1.000
    H722     H        0.95120    0.72460    0.68920    1.000
    H723     H        0.86140    0.78640    0.60080    1.000
    H724     H        0.80270    0.82750    0.63790    1.000
    H725     H        0.76620    0.81680    0.66100    1.000
    H726     H        0.84000    0.78620    0.55220    1.000
    H727     H        0.74860    0.84920    0.61200    1.000
    H728     H        0.78480    0.85980    0.58900    1.000
    H729     H        0.66970    0.87090    0.47850    1.000
    H730     H        0.65690    0.85530    0.52190    1.000
    H731     H        0.69530    0.80010    0.55530    1.000
    H732     H        0.73250    0.77570    0.53310    1.000
    H733     H        0.72630    0.83570    0.44310    1.000
    H734     H        0.75170    0.79850    0.46350    1.000
    H735     H        0.85000    0.92340    0.39660    1.000
    H736     H        0.82800    0.92820    0.37460    1.000
    H737     H        0.17020    0.51200    0.61360    1.000
    H738     H        0.22460    0.45120    0.63500    1.000
    H739     H        0.28640    0.36140    0.75140    1.000
    H740     H        0.32750    0.30270    0.73190    1.000
    H741     H        0.31680    0.26620    0.75600    1.000
    H742     H        0.28620    0.34000    0.82160    1.000
    H743     H        0.34920    0.24860    0.79020    1.000
    H744     H        0.35980    0.28480    0.76640    1.000
    H745     H        0.37090    0.16970    0.98090    1.000
    H746     H        0.35530    0.15690    0.96590    1.000
    H747     H        0.30010    0.19530    0.94930    1.000
    H748     H        0.27570    0.23250    0.95870    1.000
    H749     H        0.33570    0.22630    0.99490    1.000
    H750     H        0.29850    0.25170    0.98630    1.000
    H751     H        0.42340    0.35000    0.83000    1.000
    H752     H        0.42820    0.32800    0.86920    1.000
    H753     H        0.20420    0.61360    0.51200    1.000
    H754     H        0.18920    0.63500    0.45120    1.000
    H755     H        0.10080    0.75140    0.36140    1.000
    H756     H        0.13790    0.73190    0.30270    1.000
    H757     H        0.16100    0.75600    0.26620    1.000
    H758     H        0.05220    0.82160    0.34000    1.000
    H759     H        0.11200    0.79020    0.24860    1.000
    H760     H        0.08900    0.76640    0.28480    1.000
    H761     H        0.97850    0.98090    0.16970    1.000
    H762     H        0.02190    0.96590    0.15690    1.000
    H763     H        0.05530    0.94930    0.19530    1.000
    H764     H        0.03310    0.95870    0.23250    1.000
    H765     H        0.94310    0.99490    0.22630    1.000
    H766     H        0.96350    0.98630    0.25170    1.000
    H767     H        0.89660    0.83000    0.35000    1.000
    H768     H        0.87460    0.86920    0.32800    1.000
    C1       C        0.13850    0.81670    0.28770    1.000
    C2       C        0.10390    0.83910    0.27550    1.000
    C3       C        0.99980    0.84840    0.17000    1.000
    C4       C        0.03380    0.79240    0.20740    1.000
    C5       C        0.96530    0.81390    0.22610    1.000
    C6       C        0.88210    0.91270    0.34990    1.000
    C7       C        0.31670    0.63850    0.75710    1.000
    C8       C        0.33910    0.60390    0.78150    1.000
    C9       C        0.34840    0.49980    0.98180    1.000
    C10      C        0.29240    0.53380    0.96640    1.000
    C11      C        0.31390    0.46530    0.99470    1.000
    C12      C        0.41270    0.38210    0.85530    1.000
    C13      C        0.78770    0.75710    0.63850    1.000
    C14      C        0.77550    0.78150    0.60390    1.000
    C15      C        0.67000    0.98180    0.49980    1.000
    C16      C        0.70740    0.96640    0.53380    1.000
    C17      C        0.72610    0.99470    0.46530    1.000
    C18      C        0.84990    0.85530    0.38210    1.000
    C19      C        0.25710    0.28770    0.81670    1.000
    C20      C        0.28150    0.27550    0.83910    1.000
    C21      C        0.48180    0.17000    0.84840    1.000
    C22      C        0.46640    0.20740    0.79240    1.000
    C23      C        0.49470    0.22610    0.81390    1.000
    C24      C        0.35530    0.34990    0.91270    1.000
    C25      C        0.13850    0.28770    0.75710    1.000
    C26      C        0.10390    0.27550    0.78150    1.000
    C27      C        0.99980    0.17000    0.98180    1.000
    C28      C        0.03380    0.20740    0.96640    1.000
    C29      C        0.96530    0.22610    0.99470    1.000
    C30      C        0.88210    0.34990    0.85530    1.000
    C31      C        0.31670    0.75710    0.28770    1.000
    C32      C        0.33910    0.78150    0.27550    1.000
    C33      C        0.34840    0.98180    0.17000    1.000
    C34      C        0.29240    0.96640    0.20740    1.000
    C35      C        0.31390    0.99470    0.22610    1.000
    C36      C        0.41270    0.85530    0.34990    1.000
    C37      C        0.78770    0.63850    0.81670    1.000
    C38      C        0.77550    0.60390    0.83910    1.000
    C39      C        0.67000    0.49980    0.84840    1.000
    C40      C        0.70740    0.53380    0.79240    1.000
    C41      C        0.72610    0.46530    0.81390    1.000
    C42      C        0.84990    0.38210    0.91270    1.000
    C43      C        0.25710    0.81670    0.63850    1.000
    C44      C        0.28150    0.83910    0.60390    1.000
    C45      C        0.48180    0.84840    0.49980    1.000
    C46      C        0.46640    0.79240    0.53380    1.000
    C47      C        0.49470    0.81390    0.46530    1.000
    C48      C        0.35530    0.91270    0.38210    1.000
    C49      C        0.13850    0.75710    0.81670    1.000
    C50      C        0.10390    0.78150    0.83910    1.000
    C51      C        0.99980    0.98180    0.84840    1.000
    C52      C        0.03380    0.96640    0.79240    1.000
    C53      C        0.96530    0.99470    0.81390    1.000
    C54      C        0.88210    0.85530    0.91270    1.000
    C55      C        0.31670    0.28770    0.63850    1.000
    C56      C        0.33910    0.27550    0.60390    1.000
    C57      C        0.34840    0.17000    0.49980    1.000
    C58      C        0.29240    0.20740    0.53380    1.000
    C59      C        0.31390    0.22610    0.46530    1.000
    C60      C        0.41270    0.34990    0.38210    1.000
    C61      C        0.78770    0.81670    0.75710    1.000
    C62      C        0.77550    0.83910    0.78150    1.000
    C63      C        0.67000    0.84840    0.98180    1.000
    C64      C        0.70740    0.79240    0.96640    1.000
    C65      C        0.72610    0.81390    0.99470    1.000
    C66      C        0.84990    0.91270    0.85530    1.000
    C67      C        0.25710    0.63850    0.28770    1.000
    C68      C        0.28150    0.60390    0.27550    1.000
    C69      C        0.48180    0.49980    0.17000    1.000
    C70      C        0.46640    0.53380    0.20740    1.000
    C71      C        0.49470    0.46530    0.22610    1.000
    C72      C        0.35530    0.38210    0.34990    1.000
    C73      C        0.68330    0.36150    0.71230    1.000
    C74      C        0.66090    0.39610    0.72450    1.000
    C75      C        0.65160    0.50020    0.83000    1.000
    C76      C        0.70760    0.46620    0.79260    1.000
    C77      C        0.68610    0.53470    0.77390    1.000
    C78      C        0.58730    0.61790    0.65010    1.000
    C79      C        0.86150    0.18330    0.24290    1.000
    C80      C        0.89610    0.16090    0.21850    1.000
    C81      C        0.00020    0.15160    0.01820    1.000
    C82      C        0.96620    0.20760    0.03360    1.000
    C83      C        0.03470    0.18610    0.00530    1.000
    C84      C        0.11790    0.08730    0.14470    1.000
    C85      C        0.74290    0.71230    0.36150    1.000
    C86      C        0.71850    0.72450    0.39610    1.000
    C87      C        0.51820    0.83000    0.50020    1.000
    C88      C        0.53360    0.79260    0.46620    1.000
    C89      C        0.50530    0.77390    0.53470    1.000
    C90      C        0.64470    0.65010    0.61790    1.000
    C91      C        0.21230    0.24290    0.18330    1.000
    C92      C        0.22450    0.21850    0.16090    1.000
    C93      C        0.33000    0.01820    0.15160    1.000
    C94      C        0.29260    0.03360    0.20760    1.000
    C95      C        0.27390    0.00530    0.18610    1.000
    C96      C        0.15010    0.14470    0.08730    1.000
    C97      C        0.21230    0.36150    0.24290    1.000
    C98      C        0.22450    0.39610    0.21850    1.000
    C99      C        0.33000    0.50020    0.01820    1.000
    C100     C        0.29260    0.46620    0.03360    1.000
    C101     C        0.27390    0.53470    0.00530    1.000
    C102     C        0.15010    0.61790    0.14470    1.000
    C103     C        0.74290    0.18330    0.71230    1.000
    C104     C        0.71850    0.16090    0.72450    1.000
    C105     C        0.51820    0.15160    0.83000    1.000
    C106     C        0.53360    0.20760    0.79260    1.000
    C107     C        0.50530    0.18610    0.77390    1.000
    C108     C        0.64470    0.08730    0.65010    1.000
    C109     C        0.86150    0.71230    0.18330    1.000
    C110     C        0.89610    0.72450    0.16090    1.000
    C111     C        0.00020    0.83000    0.15160    1.000
    C112     C        0.96620    0.79260    0.20760    1.000
    C113     C        0.03470    0.77390    0.18610    1.000
    C114     C        0.11790    0.65010    0.08730    1.000
    C115     C        0.68330    0.24290    0.36150    1.000
    C116     C        0.66090    0.21850    0.39610    1.000
    C117     C        0.65160    0.01820    0.50020    1.000
    C118     C        0.70760    0.03360    0.46620    1.000
    C119     C        0.68610    0.00530    0.53470    1.000
    C120     C        0.58730    0.14470    0.61790    1.000
    C121     C        0.74290    0.36150    0.18330    1.000
    C122     C        0.71850    0.39610    0.16090    1.000
    C123     C        0.51820    0.50020    0.15160    1.000
    C124     C        0.53360    0.46620    0.20760    1.000
    C125     C        0.50530    0.53470    0.18610    1.000
    C126     C        0.64470    0.61790    0.08730    1.000
    C127     C        0.21230    0.18330    0.36150    1.000
    C128     C        0.22450    0.16090    0.39610    1.000
    C129     C        0.33000    0.15160    0.50020    1.000
    C130     C        0.29260    0.20760    0.46620    1.000
    C131     C        0.27390    0.18610    0.53470    1.000
    C132     C        0.15010    0.08730    0.61790    1.000
    C133     C        0.68330    0.71230    0.24290    1.000
    C134     C        0.66090    0.72450    0.21850    1.000
    C135     C        0.65160    0.83000    0.01820    1.000
    C136     C        0.70760    0.79260    0.03360    1.000
    C137     C        0.68610    0.77390    0.00530    1.000
    C138     C        0.58730    0.65010    0.14470    1.000
    C139     C        0.86150    0.24290    0.71230    1.000
    C140     C        0.89610    0.21850    0.72450    1.000
    C141     C        0.00020    0.01820    0.83000    1.000
    C142     C        0.96620    0.03360    0.79260    1.000
    C143     C        0.03470    0.00530    0.77390    1.000
    C144     C        0.11790    0.14470    0.65010    1.000
    C145     C        0.86150    0.18330    0.71230    1.000
    C146     C        0.89610    0.16090    0.72450    1.000
    C147     C        0.00020    0.15160    0.83000    1.000
    C148     C        0.96620    0.20760    0.79260    1.000
    C149     C        0.03470    0.18610    0.77390    1.000
    C150     C        0.11790    0.08730    0.65010    1.000
    C151     C        0.68330    0.36150    0.24290    1.000
    C152     C        0.66090    0.39610    0.21850    1.000
    C153     C        0.65160    0.50020    0.01820    1.000
    C154     C        0.70760    0.46620    0.03360    1.000
    C155     C        0.68610    0.53470    0.00530    1.000
    C156     C        0.58730    0.61790    0.14470    1.000
    C157     C        0.21230    0.24290    0.36150    1.000
    C158     C        0.22450    0.21850    0.39610    1.000
    C159     C        0.33000    0.01820    0.50020    1.000
    C160     C        0.29260    0.03360    0.46620    1.000
    C161     C        0.27390    0.00530    0.53470    1.000
    C162     C        0.15010    0.14470    0.61790    1.000
    C163     C        0.74290    0.71230    0.18330    1.000
    C164     C        0.71850    0.72450    0.16090    1.000
    C165     C        0.51820    0.83000    0.15160    1.000
    C166     C        0.53360    0.79260    0.20760    1.000
    C167     C        0.50530    0.77390    0.18610    1.000
    C168     C        0.64470    0.65010    0.08730    1.000
    C169     C        0.86150    0.71230    0.24290    1.000
    C170     C        0.89610    0.72450    0.21850    1.000
    C171     C        0.00020    0.83000    0.01820    1.000
    C172     C        0.96620    0.79260    0.03360    1.000
    C173     C        0.03470    0.77390    0.00530    1.000
    C174     C        0.11790    0.65010    0.14470    1.000
    C175     C        0.68330    0.24290    0.71230    1.000
    C176     C        0.66090    0.21850    0.72450    1.000
    C177     C        0.65160    0.01820    0.83000    1.000
    C178     C        0.70760    0.03360    0.79260    1.000
    C179     C        0.68610    0.00530    0.77390    1.000
    C180     C        0.58730    0.14470    0.65010    1.000
    C181     C        0.21230    0.36150    0.18330    1.000
    C182     C        0.22450    0.39610    0.16090    1.000
    C183     C        0.33000    0.50020    0.15160    1.000
    C184     C        0.29260    0.46620    0.20760    1.000
    C185     C        0.27390    0.53470    0.18610    1.000
    C186     C        0.15010    0.61790    0.08730    1.000
    C187     C        0.74290    0.18330    0.36150    1.000
    C188     C        0.71850    0.16090    0.39610    1.000
    C189     C        0.51820    0.15160    0.50020    1.000
    C190     C        0.53360    0.20760    0.46620    1.000
    C191     C        0.50530    0.18610    0.53470    1.000
    C192     C        0.64470    0.08730    0.61790    1.000
    C193     C        0.86150    0.24290    0.18330    1.000
    C194     C        0.89610    0.21850    0.16090    1.000
    C195     C        0.00020    0.01820    0.15160    1.000
    C196     C        0.96620    0.03360    0.20760    1.000
    C197     C        0.03470    0.00530    0.18610    1.000
    C198     C        0.11790    0.14470    0.08730    1.000
    C199     C        0.68330    0.71230    0.36150    1.000
    C200     C        0.66090    0.72450    0.39610    1.000
    C201     C        0.65160    0.83000    0.50020    1.000
    C202     C        0.70760    0.79260    0.46620    1.000
    C203     C        0.68610    0.77390    0.53470    1.000
    C204     C        0.58730    0.65010    0.61790    1.000
    C205     C        0.21230    0.18330    0.24290    1.000
    C206     C        0.22450    0.16090    0.21850    1.000
    C207     C        0.33000    0.15160    0.01820    1.000
    C208     C        0.29260    0.20760    0.03360    1.000
    C209     C        0.27390    0.18610    0.00530    1.000
    C210     C        0.15010    0.08730    0.14470    1.000
    C211     C        0.74290    0.36150    0.71230    1.000
    C212     C        0.71850    0.39610    0.72450    1.000
    C213     C        0.51820    0.50020    0.83000    1.000
    C214     C        0.53360    0.46620    0.79260    1.000
    C215     C        0.50530    0.53470    0.77390    1.000
    C216     C        0.64470    0.61790    0.65010    1.000
    C217     C        0.31670    0.63850    0.28770    1.000
    C218     C        0.33910    0.60390    0.27550    1.000
    C219     C        0.34840    0.49980    0.17000    1.000
    C220     C        0.29240    0.53380    0.20740    1.000
    C221     C        0.31390    0.46530    0.22610    1.000
    C222     C        0.41270    0.38210    0.34990    1.000
    C223     C        0.13850    0.81670    0.75710    1.000
    C224     C        0.10390    0.83910    0.78150    1.000
    C225     C        0.99980    0.84840    0.98180    1.000
    C226     C        0.03380    0.79240    0.96640    1.000
    C227     C        0.96530    0.81390    0.99470    1.000
    C228     C        0.88210    0.91270    0.85530    1.000
    C229     C        0.25710    0.28770    0.63850    1.000
    C230     C        0.28150    0.27550    0.60390    1.000
    C231     C        0.48180    0.17000    0.49980    1.000
    C232     C        0.46640    0.20740    0.53380    1.000
    C233     C        0.49470    0.22610    0.46530    1.000
    C234     C        0.35530    0.34990    0.38210    1.000
    C235     C        0.78770    0.75710    0.81670    1.000
    C236     C        0.77550    0.78150    0.83910    1.000
    C237     C        0.67000    0.98180    0.84840    1.000
    C238     C        0.70740    0.96640    0.79240    1.000
    C239     C        0.72610    0.99470    0.81390    1.000
    C240     C        0.84990    0.85530    0.91270    1.000
    C241     C        0.78770    0.63850    0.75710    1.000
    C242     C        0.77550    0.60390    0.78150    1.000
    C243     C        0.67000    0.49980    0.98180    1.000
    C244     C        0.70740    0.53380    0.96640    1.000
    C245     C        0.72610    0.46530    0.99470    1.000
    C246     C        0.84990    0.38210    0.85530    1.000
    C247     C        0.25710    0.81670    0.28770    1.000
    C248     C        0.28150    0.83910    0.27550    1.000
    C249     C        0.48180    0.84840    0.17000    1.000
    C250     C        0.46640    0.79240    0.20740    1.000
    C251     C        0.49470    0.81390    0.22610    1.000
    C252     C        0.35530    0.91270    0.34990    1.000
    C253     C        0.13850    0.28770    0.81670    1.000
    C254     C        0.10390    0.27550    0.83910    1.000
    C255     C        0.99980    0.17000    0.84840    1.000
    C256     C        0.03380    0.20740    0.79240    1.000
    C257     C        0.96530    0.22610    0.81390    1.000
    C258     C        0.88210    0.34990    0.91270    1.000
    C259     C        0.31670    0.75710    0.63850    1.000
    C260     C        0.33910    0.78150    0.60390    1.000
    C261     C        0.34840    0.98180    0.49980    1.000
    C262     C        0.29240    0.96640    0.53380    1.000
    C263     C        0.31390    0.99470    0.46530    1.000
    C264     C        0.41270    0.85530    0.38210    1.000
    C265     C        0.25710    0.63850    0.81670    1.000
    C266     C        0.28150    0.60390    0.83910    1.000
    C267     C        0.48180    0.49980    0.84840    1.000
    C268     C        0.46640    0.53380    0.79240    1.000
    C269     C        0.49470    0.46530    0.81390    1.000
    C270     C        0.35530    0.38210    0.91270    1.000
    C271     C        0.78770    0.81670    0.63850    1.000
    C272     C        0.77550    0.83910    0.60390    1.000
    C273     C        0.67000    0.84840    0.49980    1.000
    C274     C        0.70740    0.79240    0.53380    1.000
    C275     C        0.72610    0.81390    0.46530    1.000
    C276     C        0.84990    0.91270    0.38210    1.000
    C277     C        0.31670    0.28770    0.75710    1.000
    C278     C        0.33910    0.27550    0.78150    1.000
    C279     C        0.34840    0.17000    0.98180    1.000
    C280     C        0.29240    0.20740    0.96640    1.000
    C281     C        0.31390    0.22610    0.99470    1.000
    C282     C        0.41270    0.34990    0.85530    1.000
    C283     C        0.13850    0.75710    0.28770    1.000
    C284     C        0.10390    0.78150    0.27550    1.000
    C285     C        0.99980    0.98180    0.17000    1.000
    C286     C        0.03380    0.96640    0.20740    1.000
    C287     C        0.96530    0.99470    0.22610    1.000
    C288     C        0.88210    0.85530    0.34990    1.000
    C289     C        0.18370    0.68370    0.50410    1.000
    C290     C        0.19790    0.69790    0.46050    1.000
    C291     C        0.18370    0.68370    0.62850    1.000
    C292     C        0.19790    0.69790    0.64370    1.000
    C293     C        0.00410    0.62850    0.68370    1.000
    C294     C        0.96050    0.64370    0.69790    1.000
    C295     C        0.12850    0.50410    0.68370    1.000
    C296     C        0.14370    0.46050    0.69790    1.000
    C297     C        0.18370    0.50410    0.62850    1.000
    C298     C        0.19790    0.46050    0.64370    1.000
    C299     C        0.18370    0.62850    0.50410    1.000
    C300     C        0.19790    0.64370    0.46050    1.000
    C301     C        0.00410    0.68370    0.68370    1.000
    C302     C        0.96050    0.69790    0.69790    1.000
    C303     C        0.12850    0.68370    0.68370    1.000
    C304     C        0.14370    0.69790    0.69790    1.000
    C305     C        0.18370    0.62850    0.68370    1.000
    C306     C        0.19790    0.64370    0.69790    1.000
    C307     C        0.18370    0.50410    0.68370    1.000
    C308     C        0.19790    0.46050    0.69790    1.000
    C309     C        0.00410    0.68370    0.62850    1.000
    C310     C        0.96050    0.69790    0.64370    1.000
    C311     C        0.12850    0.68370    0.50410    1.000
    C312     C        0.14370    0.69790    0.46050    1.000
    C313     C        0.81630    0.31630    0.49590    1.000
    C314     C        0.80210    0.30210    0.53950    1.000
    C315     C        0.81630    0.31630    0.37150    1.000
    C316     C        0.80210    0.30210    0.35630    1.000
    C317     C        0.87150    0.49590    0.31630    1.000
    C318     C        0.85630    0.53950    0.30210    1.000
    C319     C        0.99590    0.37150    0.31630    1.000
    C320     C        0.03950    0.35630    0.30210    1.000
    C321     C        0.99590    0.31630    0.37150    1.000
    C322     C        0.03950    0.30210    0.35630    1.000
    C323     C        0.87150    0.31630    0.49590    1.000
    C324     C        0.85630    0.30210    0.53950    1.000
    C325     C        0.81630    0.49590    0.31630    1.000
    C326     C        0.80210    0.53950    0.30210    1.000
    C327     C        0.81630    0.37150    0.31630    1.000
    C328     C        0.80210    0.35630    0.30210    1.000
    C329     C        0.87150    0.31630    0.31630    1.000
    C330     C        0.85630    0.30210    0.30210    1.000
    C331     C        0.99590    0.31630    0.31630    1.000
    C332     C        0.03950    0.30210    0.30210    1.000
    C333     C        0.81630    0.49590    0.37150    1.000
    C334     C        0.80210    0.53950    0.35630    1.000
    C335     C        0.81630    0.37150    0.49590    1.000
    C336     C        0.80210    0.35630    0.53950    1.000
    C337     C        0.10190    0.77590    0.34630    1.000
    C338     C        0.06740    0.80100    0.33060    1.000
    C339     C        0.27590    0.60190    0.77590    1.000
    C340     C        0.30100    0.56740    0.80100    1.000
    C341     C        0.84630    0.77590    0.60190    1.000
    C342     C        0.83060    0.80100    0.56740    1.000
    C343     C        0.27590    0.34630    0.77590    1.000
    C344     C        0.30100    0.33060    0.80100    1.000
    C345     C        0.10190    0.34630    0.77590    1.000
    C346     C        0.06740    0.33060    0.80100    1.000
    C347     C        0.27590    0.77590    0.34630    1.000
    C348     C        0.30100    0.80100    0.33060    1.000
    C349     C        0.84630    0.60190    0.77590    1.000
    C350     C        0.83060    0.56740    0.80100    1.000
    C351     C        0.27590    0.77590    0.60190    1.000
    C352     C        0.30100    0.80100    0.56740    1.000
    C353     C        0.10190    0.77590    0.77590    1.000
    C354     C        0.06740    0.80100    0.80100    1.000
    C355     C        0.27590    0.34630    0.60190    1.000
    C356     C        0.30100    0.33060    0.56740    1.000
    C357     C        0.84630    0.77590    0.77590    1.000
    C358     C        0.83060    0.80100    0.80100    1.000
    C359     C        0.27590    0.60190    0.34630    1.000
    C360     C        0.30100    0.56740    0.33060    1.000
    C361     C        0.72410    0.39810    0.65370    1.000
    C362     C        0.69900    0.43260    0.66940    1.000
    C363     C        0.89810    0.22410    0.22410    1.000
    C364     C        0.93260    0.19900    0.19900    1.000
    C365     C        0.72410    0.65370    0.39810    1.000
    C366     C        0.69900    0.66940    0.43260    1.000
    C367     C        0.15370    0.22410    0.22410    1.000
    C368     C        0.16940    0.19900    0.19900    1.000
    C369     C        0.15370    0.39810    0.22410    1.000
    C370     C        0.16940    0.43260    0.19900    1.000
    C371     C        0.72410    0.22410    0.65370    1.000
    C372     C        0.69900    0.19900    0.66940    1.000
    C373     C        0.89810    0.65370    0.22410    1.000
    C374     C        0.93260    0.66940    0.19900    1.000
    C375     C        0.72410    0.22410    0.39810    1.000
    C376     C        0.69900    0.19900    0.43260    1.000
    C377     C        0.72410    0.39810    0.22410    1.000
    C378     C        0.69900    0.43260    0.19900    1.000
    C379     C        0.15370    0.22410    0.39810    1.000
    C380     C        0.16940    0.19900    0.43260    1.000
    C381     C        0.72410    0.65370    0.22410    1.000
    C382     C        0.69900    0.66940    0.19900    1.000
    C383     C        0.89810    0.22410    0.65370    1.000
    C384     C        0.93260    0.19900    0.66940    1.000
    I1       I        0.99306    0.79904    0.30794    1.000
    I2       I        0.29904    0.49306    0.89996    1.000
    I3       I        0.80794    0.89996    0.49306    1.000
    I4       I        0.39996    0.30794    0.79904    1.000
    I5       I        0.99306    0.30794    0.89996    1.000
    I6       I        0.29904    0.89996    0.30794    1.000
    I7       I        0.80794    0.49306    0.79904    1.000
    I8       I        0.39996    0.79904    0.49306    1.000
    I9       I        0.99306    0.89996    0.79904    1.000
    I10      I        0.29904    0.30794    0.49306    1.000
    I11      I        0.80794    0.79904    0.89996    1.000
    I12      I        0.39996    0.49306    0.30794    1.000
    I13      I        0.70096    0.50694    0.69206    1.000
    I14      I        0.00694    0.20096    0.10004    1.000
    I15      I        0.60004    0.69206    0.50694    1.000
    I16      I        0.19206    0.10004    0.20096    1.000
    I17      I        0.19206    0.50694    0.10004    1.000
    I18      I        0.60004    0.20096    0.69206    1.000
    I19      I        0.00694    0.69206    0.20096    1.000
    I20      I        0.70096    0.10004    0.50694    1.000
    I21      I        0.60004    0.50694    0.20096    1.000
    I22      I        0.19206    0.20096    0.50694    1.000
    I23      I        0.70096    0.69206    0.10004    1.000
    I24      I        0.00694    0.10004    0.69206    1.000
    I25      I        0.00694    0.20096    0.69206    1.000
    I26      I        0.70096    0.50694    0.10004    1.000
    I27      I        0.19206    0.10004    0.50694    1.000
    I28      I        0.60004    0.69206    0.20096    1.000
    I29      I        0.00694    0.69206    0.10004    1.000
    I30      I        0.70096    0.10004    0.69206    1.000
    I31      I        0.19206    0.50694    0.20096    1.000
    I32      I        0.60004    0.20096    0.50694    1.000
    I33      I        0.00694    0.10004    0.20096    1.000
    I34      I        0.70096    0.69206    0.50694    1.000
    I35      I        0.19206    0.20096    0.10004    1.000
    I36      I        0.60004    0.50694    0.69206    1.000
    I37      I        0.29904    0.49306    0.30794    1.000
    I38      I        0.99306    0.79904    0.89996    1.000
    I39      I        0.39996    0.30794    0.49306    1.000
    I40      I        0.80794    0.89996    0.79904    1.000
    I41      I        0.80794    0.49306    0.89996    1.000
    I42      I        0.39996    0.79904    0.30794    1.000
    I43      I        0.99306    0.30794    0.79904    1.000
    I44      I        0.29904    0.89996    0.49306    1.000
    I45      I        0.39996    0.49306    0.79904    1.000
    I46      I        0.80794    0.79904    0.49306    1.000
    I47      I        0.29904    0.30794    0.89996    1.000
    I48      I        0.99306    0.89996    0.30794    1.000
    I49      I        0.09931    0.70207    0.59931    1.000
    I50      I        0.20207    0.59931    0.59931    1.000
    I51      I        0.09931    0.59931    0.59931    1.000
    I52      I        0.09931    0.59931    0.70207    1.000
    I53      I        0.79793    0.40069    0.40069    1.000
    I54      I        0.90069    0.29793    0.40069    1.000
    I55      I        0.90069    0.40069    0.40069    1.000
    I56      I        0.90069    0.40069    0.29793    1.000
    I57      I        0.24339    0.74339    0.26983    1.000
    I58      I        0.24339    0.74339    0.74339    1.000
    I59      I        0.76983    0.74339    0.74339    1.000
    I60      I        0.24339    0.26983    0.74339    1.000
    I61      I        0.75661    0.25661    0.73017    1.000
    I62      I        0.75661    0.25661    0.25661    1.000
    I63      I        0.75661    0.73017    0.25661    1.000
    I64      I        0.23017    0.25661    0.25661    1.000
    I65      I        0.17479    0.77787    0.37255    1.000
    I66      I        0.27787    0.67479    0.67479    1.000
    I67      I        0.87255    0.67479    0.67479    1.000
    I68      I        0.17479    0.37255    0.77787    1.000
    I69      I        0.17479    0.37255    0.67479    1.000
    I70      I        0.27787    0.67479    0.37255    1.000
    I71      I        0.87255    0.67479    0.77787    1.000
    I72      I        0.17479    0.77787    0.67479    1.000
    I73      I        0.17479    0.67479    0.77787    1.000
    I74      I        0.27787    0.37255    0.67479    1.000
    I75      I        0.87255    0.77787    0.67479    1.000
    I76      I        0.17479    0.67479    0.37255    1.000
    I77      I        0.72213    0.32521    0.62745    1.000
    I78      I        0.82521    0.22213    0.32521    1.000
    I79      I        0.82521    0.62745    0.32521    1.000
    I80      I        0.12745    0.32521    0.22213    1.000
    I81      I        0.12745    0.32521    0.32521    1.000
    I82      I        0.82521    0.22213    0.62745    1.000
    I83      I        0.82521    0.62745    0.22213    1.000
    I84      I        0.72213    0.32521    0.32521    1.000
    I85      I        0.82521    0.32521    0.22213    1.000
    I86      I        0.12745    0.22213    0.32521    1.000
    I87      I        0.72213    0.62745    0.32521    1.000
    I88      I        0.82521    0.32521    0.62745    1.000
    I89      I        0.05820    0.86992    0.20196    1.000
    I90      I        0.93357    0.91263    0.24117    1.000
    I91      I        0.36992    0.55820    0.86992    1.000
    I92      I        0.41263    0.43357    0.91263    1.000
    I93      I        0.70196    0.86992    0.55820    1.000
    I94      I        0.74117    0.91263    0.43357    1.000
    I95      I        0.36992    0.20196    0.86992    1.000
    I96      I        0.41263    0.24117    0.91263    1.000
    I97      I        0.05820    0.20196    0.86992    1.000
    I98      I        0.93357    0.24117    0.91263    1.000
    I99      I        0.36992    0.86992    0.20196    1.000
    I100     I        0.41263    0.91263    0.24117    1.000
    I101     I        0.70196    0.55820    0.86992    1.000
    I102     I        0.74117    0.43357    0.91263    1.000
    I103     I        0.36992    0.86992    0.55820    1.000
    I104     I        0.41263    0.91263    0.43357    1.000
    I105     I        0.05820    0.86992    0.86992    1.000
    I106     I        0.93357    0.91263    0.91263    1.000
    I107     I        0.36992    0.20196    0.55820    1.000
    I108     I        0.41263    0.24117    0.43357    1.000
    I109     I        0.70196    0.86992    0.86992    1.000
    I110     I        0.74117    0.91263    0.91263    1.000
    I111     I        0.36992    0.55820    0.20196    1.000
    I112     I        0.41263    0.43357    0.24117    1.000
    I113     I        0.63008    0.44180    0.79804    1.000
    I114     I        0.58737    0.56643    0.75883    1.000
    I115     I        0.94180    0.13008    0.13008    1.000
    I116     I        0.06643    0.08737    0.08737    1.000
    I117     I        0.63008    0.79804    0.44180    1.000
    I118     I        0.58737    0.75883    0.56643    1.000
    I119     I        0.29804    0.13008    0.13008    1.000
    I120     I        0.25883    0.08737    0.08737    1.000
    I121     I        0.29804    0.44180    0.13008    1.000
    I122     I        0.25883    0.56643    0.08737    1.000
    I123     I        0.63008    0.13008    0.79804    1.000
    I124     I        0.58737    0.08737    0.75883    1.000
    I125     I        0.94180    0.79804    0.13008    1.000
    I126     I        0.06643    0.75883    0.08737    1.000
    I127     I        0.63008    0.13008    0.44180    1.000
    I128     I        0.58737    0.08737    0.56643    1.000
    I129     I        0.63008    0.44180    0.13008    1.000
    I130     I        0.58737    0.56643    0.08737    1.000
    I131     I        0.29804    0.13008    0.44180    1.000
    I132     I        0.25883    0.08737    0.56643    1.000
    I133     I        0.63008    0.79804    0.13008    1.000
    I134     I        0.58737    0.75883    0.08737    1.000
    I135     I        0.94180    0.13008    0.79804    1.000
    I136     I        0.06643    0.08737    0.75883    1.000
    N1       N        0.99830    0.82590    0.20790    1.000
    N2       N        0.32590    0.49830    0.96790    1.000
    N3       N        0.70790    0.96790    0.49830    1.000
    N4       N        0.46790    0.20790    0.82590    1.000
    N5       N        0.99830    0.20790    0.96790    1.000
    N6       N        0.32590    0.96790    0.20790    1.000
    N7       N        0.70790    0.49830    0.82590    1.000
    N8       N        0.46790    0.82590    0.49830    1.000
    N9       N        0.99830    0.96790    0.82590    1.000
    N10      N        0.32590    0.20790    0.49830    1.000
    N11      N        0.70790    0.82590    0.96790    1.000
    N12      N        0.46790    0.49830    0.20790    1.000
    N13      N        0.67410    0.50170    0.79210    1.000
    N14      N        0.00170    0.17410    0.03210    1.000
    N15      N        0.53210    0.79210    0.50170    1.000
    N16      N        0.29210    0.03210    0.17410    1.000
    N17      N        0.29210    0.50170    0.03210    1.000
    N18      N        0.53210    0.17410    0.79210    1.000
    N19      N        0.00170    0.79210    0.17410    1.000
    N20      N        0.67410    0.03210    0.50170    1.000
    N21      N        0.53210    0.50170    0.17410    1.000
    N22      N        0.29210    0.17410    0.50170    1.000
    N23      N        0.67410    0.79210    0.03210    1.000
    N24      N        0.00170    0.03210    0.79210    1.000
    N25      N        0.00170    0.17410    0.79210    1.000
    N26      N        0.67410    0.50170    0.03210    1.000
    N27      N        0.29210    0.03210    0.50170    1.000
    N28      N        0.53210    0.79210    0.17410    1.000
    N29      N        0.00170    0.79210    0.03210    1.000
    N30      N        0.67410    0.03210    0.79210    1.000
    N31      N        0.29210    0.50170    0.17410    1.000
    N32      N        0.53210    0.17410    0.50170    1.000
    N33      N        0.00170    0.03210    0.17410    1.000
    N34      N        0.67410    0.79210    0.50170    1.000
    N35      N        0.29210    0.17410    0.03210    1.000
    N36      N        0.53210    0.50170    0.79210    1.000
    N37      N        0.32590    0.49830    0.20790    1.000
    N38      N        0.99830    0.82590    0.96790    1.000
    N39      N        0.46790    0.20790    0.49830    1.000
    N40      N        0.70790    0.96790    0.82590    1.000
    N41      N        0.70790    0.49830    0.96790    1.000
    N42      N        0.46790    0.82590    0.20790    1.000
    N43      N        0.99830    0.20790    0.82590    1.000
    N44      N        0.32590    0.96790    0.49830    1.000
    N45      N        0.46790    0.49830    0.82590    1.000
    N46      N        0.70790    0.82590    0.49830    1.000
    N47      N        0.32590    0.20790    0.96790    1.000
    N48      N        0.99830    0.96790    0.20790    1.000
    N49      N        0.15940    0.65940    0.52180    1.000
    N50      N        0.18400    0.68400    0.44800    1.000
    N51      N        0.15940    0.65940    0.65940    1.000
    N52      N        0.18400    0.68400    0.68400    1.000
    N53      N        0.02180    0.65940    0.65940    1.000
    N54      N        0.94800    0.68400    0.68400    1.000
    N55      N        0.15940    0.52180    0.65940    1.000
    N56      N        0.18400    0.44800    0.68400    1.000
    N57      N        0.84060    0.34060    0.47820    1.000
    N58      N        0.81600    0.31600    0.55200    1.000
    N59      N        0.84060    0.34060    0.34060    1.000
    N60      N        0.81600    0.31600    0.31600    1.000
    N61      N        0.84060    0.47820    0.34060    1.000
    N62      N        0.81600    0.55200    0.31600    1.000
    N63      N        0.97820    0.34060    0.34060    1.000
    N64      N        0.05200    0.31600    0.31600    1.000
    N65      N        0.13730    0.77570    0.31130    1.000
    N66      N        0.07890    0.81590    0.28930    1.000
    N67      N        0.90740    0.87280    0.34700    1.000
    N68      N        0.27570    0.63730    0.77570    1.000
    N69      N        0.31590    0.57890    0.81590    1.000
    N70      N        0.37280    0.40740    0.87280    1.000
    N71      N        0.81130    0.77570    0.63730    1.000
    N72      N        0.78930    0.81590    0.57890    1.000
    N73      N        0.84700    0.87280    0.40740    1.000
    N74      N        0.27570    0.31130    0.77570    1.000
    N75      N        0.31590    0.28930    0.81590    1.000
    N76      N        0.37280    0.34700    0.87280    1.000
    N77      N        0.13730    0.31130    0.77570    1.000
    N78      N        0.07890    0.28930    0.81590    1.000
    N79      N        0.90740    0.34700    0.87280    1.000
    N80      N        0.27570    0.77570    0.31130    1.000
    N81      N        0.31590    0.81590    0.28930    1.000
    N82      N        0.37280    0.87280    0.34700    1.000
    N83      N        0.81130    0.63730    0.77570    1.000
    N84      N        0.78930    0.57890    0.81590    1.000
    N85      N        0.84700    0.40740    0.87280    1.000
    N86      N        0.27570    0.77570    0.63730    1.000
    N87      N        0.31590    0.81590    0.57890    1.000
    N88      N        0.37280    0.87280    0.40740    1.000
    N89      N        0.13730    0.77570    0.77570    1.000
    N90      N        0.07890    0.81590    0.81590    1.000
    N91      N        0.90740    0.87280    0.87280    1.000
    N92      N        0.27570    0.31130    0.63730    1.000
    N93      N        0.31590    0.28930    0.57890    1.000
    N94      N        0.37280    0.34700    0.40740    1.000
    N95      N        0.81130    0.77570    0.77570    1.000
    N96      N        0.78930    0.81590    0.81590    1.000
    N97      N        0.84700    0.87280    0.87280    1.000
    N98      N        0.27570    0.63730    0.31130    1.000
    N99      N        0.31590    0.57890    0.28930    1.000
    N100     N        0.37280    0.40740    0.34700    1.000
    N101     N        0.72430    0.36270    0.68870    1.000
    N102     N        0.68410    0.42110    0.71070    1.000
    N103     N        0.62720    0.59260    0.65300    1.000
    N104     N        0.86270    0.22430    0.22430    1.000
    N105     N        0.92110    0.18410    0.18410    1.000
    N106     N        0.09260    0.12720    0.12720    1.000
    N107     N        0.72430    0.68870    0.36270    1.000
    N108     N        0.68410    0.71070    0.42110    1.000
    N109     N        0.62720    0.65300    0.59260    1.000
    N110     N        0.18870    0.22430    0.22430    1.000
    N111     N        0.21070    0.18410    0.18410    1.000
    N112     N        0.15300    0.12720    0.12720    1.000
    N113     N        0.18870    0.36270    0.22430    1.000
    N114     N        0.21070    0.42110    0.18410    1.000
    N115     N        0.15300    0.59260    0.12720    1.000
    N116     N        0.72430    0.22430    0.68870    1.000
    N117     N        0.68410    0.18410    0.71070    1.000
    N118     N        0.62720    0.12720    0.65300    1.000
    N119     N        0.86270    0.68870    0.22430    1.000
    N120     N        0.92110    0.71070    0.18410    1.000
    N121     N        0.09260    0.65300    0.12720    1.000
    N122     N        0.72430    0.22430    0.36270    1.000
    N123     N        0.68410    0.18410    0.42110    1.000
    N124     N        0.62720    0.12720    0.59260    1.000
    N125     N        0.72430    0.36270    0.22430    1.000
    N126     N        0.68410    0.42110    0.18410    1.000
    N127     N        0.62720    0.59260    0.12720    1.000
    N128     N        0.18870    0.22430    0.36270    1.000
    N129     N        0.21070    0.18410    0.42110    1.000
    N130     N        0.15300    0.12720    0.59260    1.000
    N131     N        0.72430    0.68870    0.22430    1.000
    N132     N        0.68410    0.71070    0.18410    1.000
    N133     N        0.62720    0.65300    0.12720    1.000
    N134     N        0.86270    0.22430    0.68870    1.000
    N135     N        0.92110    0.18410    0.71070    1.000
    N136     N        0.09260    0.12720    0.65300    1.000
