# CIF file generated by openbabel 3.1.0, see https://openbabel.org
data_I
_chemical_name_common 'image0'
_cell_length_a 20.0414
_cell_length_b 16.259
_cell_length_c 23.996
_cell_angle_alpha 90
_cell_angle_beta 114.529
_cell_angle_gamma 90
_space_group_name_H-M_alt 'P 1'
_space_group_name_Hall 'P 1'
loop_
    _symmetry_equiv_pos_as_xyz
    x,y,z
loop_
    _atom_site_label
    _atom_site_type_symbol
    _atom_site_fract_x
    _atom_site_fract_y
    _atom_site_fract_z
    _atom_site_occupancy
    Fe1      Fe       0.36050    0.60368    0.74549    1.000
    Fe2      Fe       0.11507    0.39633    0.25451    1.000
    N1       N        0.74174    0.87542    0.98327    1.000
    O1       O        0.31239    0.33844    0.66273    1.000
    O2       O        0.14971    0.33856    0.33762    1.000
    O3       O        0.80710    0.66590    0.76302    1.000
    O4       O        0.45559    0.66610    0.76293    1.000
    O5       O        0.03871    0.70190    0.21956    1.000
    O6       O        0.68097    0.70170    0.21947    1.000
    O7       O        0.74881    0.59420    0.25657    1.000
    O8       O        0.40820    0.56930    0.83512    1.000
    O9       O        0.00776    0.59410    0.25641    1.000
    O10      O        0.07420    0.43080    0.16497    1.000
    C1       C        0.14309    0.06820    0.49997    1.000
    C2       C        0.05477    0.17520    0.49987    1.000
    C3       C        0.12097    0.14920    0.50023    1.000
    C4       C        0.17212    0.21640    0.49976    1.000
    C5       C        0.22093    0.25000    0.55500    1.000
    H1       H        0.22470    0.22750    0.59270    1.000
    C6       C        0.16607    0.24990    0.44513    1.000
    H2       H        0.13240    0.22710    0.40750    1.000
    C7       C        0.66200    0.78290    0.82458    1.000
    C8       C        0.67680    0.93170    0.85349    1.000
    C9       C        0.80750    0.93220    0.11460    1.000
    C10      C        0.26470    0.31750    0.55460    1.000
    C11      C        0.59230    0.75020    0.80467    1.000
    H3       H        0.55810    0.77220    0.81880    1.000
    C12      C        0.20930    0.31750    0.44464    1.000
    C13      C        0.79760    0.85060    0.09471    1.000
    C14      C        0.25930    0.34920    0.50010    1.000
    H4       H        0.29030    0.39350    0.50010    1.000
    C15      C        0.71660    0.82490    0.93358    1.000
    C16      C        0.76780    0.82420    0.03480    1.000
    C17      C        0.82200    0.78520    0.14394    1.000
    C18      C        0.21200    0.04200    0.49990    1.000
    H5       H        0.25010    0.07670    0.49980    1.000
    C19      C        0.68660    0.85110    0.87330    1.000
    C20      C        0.71240    0.75010    0.80485    1.000
    H6       H        0.76050    0.77220    0.81890    1.000
    C21      C        0.57260    0.68410    0.76344    1.000
    C22      C        0.69110    0.68360    0.76362    1.000
    C23      C        0.77420    0.75590    0.16600    1.000
    H7       H        0.72610    0.77810    0.15140    1.000
    C24      C        0.75770    0.73970    0.01590    1.000
    H8       H        0.76990    0.69280    0.04180    1.000
    C25      C        0.89230    0.75590    0.16610    1.000
    H9       H        0.92570    0.77830    0.15140    1.000
    C26      C        0.72710    0.73970    0.95350    1.000
    H10      H        0.71490    0.69250    0.92780    1.000
    C27      C        0.73880    0.66100    0.23020    1.000
    C28      C        0.62180    0.65090    0.74394    1.000
    H11      H        0.60820    0.60520    0.71680    1.000
    C29      C        0.91540    0.69410    0.20970    1.000
    C30      C        0.03340    0.25880    0.49950    1.000
    H12      H        0.06110    0.30580    0.49880    1.000
    C31      C        0.83930    0.95870    0.17892    1.000
    H13      H        0.85660    0.92400    0.21390    1.000
    C32      C        0.64470    0.95850    0.79000    1.000
    H14      H        0.62700    0.92390    0.75490    1.000
    C33      C        0.79510    0.69380    0.20980    1.000
    C34      C        0.74410    0.64130    0.74420    1.000
    C35      C        0.99120    0.66170    0.23030    1.000
    C36      C        0.31490    0.35850    0.61400    1.000
    C37      C        0.49950    0.64080    0.74380    1.000
    C38      C        0.20060    0.35830    0.38580    1.000
    C39      C        0.86590    0.66230    0.23040    1.000
    H15      H        0.88030    0.61840    0.25910    1.000
    O11      O        0.50150    0.56720    0.71850    1.000
    O12      O        0.37010    0.39860    0.61590    1.000
    O13      O        0.71660    0.56630    0.71790    1.000
    O14      O        0.25350    0.39840    0.38370    1.000
    O15      O        0.47680    0.60040    0.69400    1.000
    O16      O        0.71660    0.60180    0.69390    1.000
    O17      O        0.24040    0.42820    0.40010    1.000
    O18      O        0.33880    0.42890    0.59980    1.000
    Fe3      Fe       0.63950    0.60368    0.25451    1.000
    Fe4      Fe       0.88493    0.39633    0.74549    1.000
    N2       N        0.25826    0.87542    0.01673    1.000
    O19      O        0.68761    0.33844    0.33727    1.000
    O20      O        0.85029    0.33856    0.66238    1.000
    O21      O        0.19290    0.66590    0.23698    1.000
    O22      O        0.54441    0.66610    0.23707    1.000
    O23      O        0.96129    0.70190    0.78044    1.000
    O24      O        0.31903    0.70170    0.78053    1.000
    O25      O        0.25119    0.59420    0.74343    1.000
    O26      O        0.59180    0.56930    0.16488    1.000
    O27      O        0.99224    0.59410    0.74359    1.000
    O28      O        0.92580    0.43080    0.83503    1.000
    C40      C        0.85691    0.06820    0.50003    1.000
    C41      C        0.94523    0.17520    0.50013    1.000
    C42      C        0.87903    0.14920    0.49977    1.000
    C43      C        0.82788    0.21640    0.50024    1.000
    C44      C        0.77907    0.25000    0.44500    1.000
    H16      H        0.77530    0.22750    0.40730    1.000
    C45      C        0.83393    0.24990    0.55487    1.000
    H17      H        0.86760    0.22710    0.59250    1.000
    C46      C        0.33800    0.78290    0.17542    1.000
    C47      C        0.32320    0.93170    0.14651    1.000
    C48      C        0.19250    0.93220    0.88540    1.000
    C49      C        0.73530    0.31750    0.44540    1.000
    C50      C        0.40770    0.75020    0.19533    1.000
    H18      H        0.44190    0.77220    0.18120    1.000
    C51      C        0.79070    0.31750    0.55536    1.000
    C52      C        0.20240    0.85060    0.90529    1.000
    C53      C        0.74070    0.34920    0.49990    1.000
    H19      H        0.70970    0.39350    0.49990    1.000
    C54      C        0.28340    0.82490    0.06642    1.000
    C55      C        0.23220    0.82420    0.96520    1.000
    C56      C        0.17800    0.78520    0.85606    1.000
    C57      C        0.78800    0.04200    0.50010    1.000
    H20      H        0.74990    0.07670    0.50020    1.000
    C58      C        0.31340    0.85110    0.12670    1.000
    C59      C        0.28760    0.75010    0.19515    1.000
    H21      H        0.23950    0.77220    0.18110    1.000
    C60      C        0.42740    0.68410    0.23656    1.000
    C61      C        0.30890    0.68360    0.23638    1.000
    C62      C        0.22580    0.75590    0.83400    1.000
    H22      H        0.27390    0.77810    0.84860    1.000
    C63      C        0.24230    0.73970    0.98410    1.000
    H23      H        0.23010    0.69280    0.95820    1.000
    C64      C        0.10770    0.75590    0.83390    1.000
    H24      H        0.07430    0.77830    0.84860    1.000
    C65      C        0.27290    0.73970    0.04650    1.000
    H25      H        0.28510    0.69250    0.07220    1.000
    C66      C        0.26120    0.66100    0.76980    1.000
    C67      C        0.37820    0.65090    0.25606    1.000
    H26      H        0.39180    0.60520    0.28320    1.000
    C68      C        0.08460    0.69410    0.79030    1.000
    C69      C        0.96660    0.25880    0.50050    1.000
    H27      H        0.93890    0.30580    0.50120    1.000
    C70      C        0.16070    0.95870    0.82108    1.000
    H28      H        0.14340    0.92400    0.78610    1.000
    C71      C        0.35530    0.95850    0.21000    1.000
    H29      H        0.37300    0.92390    0.24510    1.000
    C72      C        0.20490    0.69380    0.79020    1.000
    C73      C        0.25590    0.64130    0.25580    1.000
    C74      C        0.00880    0.66170    0.76970    1.000
    C75      C        0.68510    0.35850    0.38600    1.000
    C76      C        0.50050    0.64080    0.25620    1.000
    C77      C        0.79940    0.35830    0.61420    1.000
    C78      C        0.13410    0.66230    0.76960    1.000
    H30      H        0.11970    0.61840    0.74090    1.000
    O29      O        0.49850    0.56720    0.28150    1.000
    O30      O        0.62990    0.39860    0.38410    1.000
    O31      O        0.28340    0.56630    0.28210    1.000
    O32      O        0.74650    0.39840    0.61630    1.000
    O33      O        0.52320    0.60040    0.30600    1.000
    O34      O        0.28340    0.60180    0.30610    1.000
    O35      O        0.75960    0.42820    0.59990    1.000
    O36      O        0.66120    0.42890    0.40020    1.000
    Fe5      Fe       0.63950    0.39632    0.25451    1.000
    Fe6      Fe       0.88493    0.60367    0.74549    1.000
    N3       N        0.25826    0.12458    0.01673    1.000
    O37      O        0.68761    0.66156    0.33727    1.000
    O38      O        0.85029    0.66144    0.66238    1.000
    O39      O        0.19290    0.33410    0.23698    1.000
    O40      O        0.54441    0.33390    0.23707    1.000
    O41      O        0.96129    0.29810    0.78044    1.000
    O42      O        0.31903    0.29830    0.78053    1.000
    O43      O        0.25119    0.40580    0.74343    1.000
    O44      O        0.59180    0.43070    0.16488    1.000
    O45      O        0.99224    0.40590    0.74359    1.000
    O46      O        0.92580    0.56920    0.83503    1.000
    C79      C        0.85691    0.93180    0.50003    1.000
    C80      C        0.94523    0.82480    0.50013    1.000
    C81      C        0.87903    0.85080    0.49977    1.000
    C82      C        0.82788    0.78360    0.50024    1.000
    C83      C        0.77907    0.75000    0.44500    1.000
    H31      H        0.77530    0.77250    0.40730    1.000
    C84      C        0.83393    0.75010    0.55487    1.000
    H32      H        0.86760    0.77290    0.59250    1.000
    C85      C        0.33800    0.21710    0.17542    1.000
    C86      C        0.32320    0.06830    0.14651    1.000
    C87      C        0.19250    0.06780    0.88540    1.000
    C88      C        0.73530    0.68250    0.44540    1.000
    C89      C        0.40770    0.24980    0.19533    1.000
    H33      H        0.44190    0.22780    0.18120    1.000
    C90      C        0.79070    0.68250    0.55536    1.000
    C91      C        0.20240    0.14940    0.90529    1.000
    C92      C        0.74070    0.65080    0.49990    1.000
    H34      H        0.70970    0.60650    0.49990    1.000
    C93      C        0.28340    0.17510    0.06642    1.000
    C94      C        0.23220    0.17580    0.96520    1.000
    C95      C        0.17800    0.21480    0.85606    1.000
    C96      C        0.78800    0.95800    0.50010    1.000
    H35      H        0.74990    0.92330    0.50020    1.000
    C97      C        0.31340    0.14890    0.12670    1.000
    C98      C        0.28760    0.24990    0.19515    1.000
    H36      H        0.23950    0.22780    0.18110    1.000
    C99      C        0.42740    0.31590    0.23656    1.000
    C100     C        0.30890    0.31640    0.23638    1.000
    C101     C        0.22580    0.24410    0.83400    1.000
    H37      H        0.27390    0.22190    0.84860    1.000
    C102     C        0.24230    0.26030    0.98410    1.000
    H38      H        0.23010    0.30720    0.95820    1.000
    C103     C        0.10770    0.24410    0.83390    1.000
    H39      H        0.07430    0.22170    0.84860    1.000
    C104     C        0.27290    0.26030    0.04650    1.000
    H40      H        0.28510    0.30750    0.07220    1.000
    C105     C        0.26120    0.33900    0.76980    1.000
    C106     C        0.37820    0.34910    0.25606    1.000
    H41      H        0.39180    0.39480    0.28320    1.000
    C107     C        0.08460    0.30590    0.79030    1.000
    C108     C        0.96660    0.74120    0.50050    1.000
    H42      H        0.93890    0.69420    0.50120    1.000
    C109     C        0.16070    0.04130    0.82108    1.000
    H43      H        0.14340    0.07600    0.78610    1.000
    C110     C        0.35530    0.04150    0.21000    1.000
    H44      H        0.37300    0.07610    0.24510    1.000
    C111     C        0.20490    0.30620    0.79020    1.000
    C112     C        0.25590    0.35870    0.25580    1.000
    C113     C        0.00880    0.33830    0.76970    1.000
    C114     C        0.68510    0.64150    0.38600    1.000
    C115     C        0.50050    0.35920    0.25620    1.000
    C116     C        0.79940    0.64170    0.61420    1.000
    C117     C        0.13410    0.33770    0.76960    1.000
    H45      H        0.11970    0.38160    0.74090    1.000
    O47      O        0.49850    0.43280    0.28150    1.000
    O48      O        0.62990    0.60140    0.38410    1.000
    O49      O        0.28340    0.43370    0.28210    1.000
    O50      O        0.74650    0.60160    0.61630    1.000
    O51      O        0.52320    0.39960    0.30600    1.000
    O52      O        0.28340    0.39820    0.30610    1.000
    O53      O        0.75960    0.57180    0.59990    1.000
    O54      O        0.66120    0.57110    0.40020    1.000
    Fe7      Fe       0.36050    0.39632    0.74549    1.000
    Fe8      Fe       0.11507    0.60367    0.25451    1.000
    N4       N        0.74174    0.12458    0.98327    1.000
    O55      O        0.31239    0.66156    0.66273    1.000
    O56      O        0.14971    0.66144    0.33762    1.000
    O57      O        0.80710    0.33410    0.76302    1.000
    O58      O        0.45559    0.33390    0.76293    1.000
    O59      O        0.03871    0.29810    0.21956    1.000
    O60      O        0.68097    0.29830    0.21947    1.000
    O61      O        0.74881    0.40580    0.25657    1.000
    O62      O        0.40820    0.43070    0.83512    1.000
    O63      O        0.00776    0.40590    0.25641    1.000
    O64      O        0.07420    0.56920    0.16497    1.000
    C118     C        0.14309    0.93180    0.49997    1.000
    C119     C        0.05477    0.82480    0.49987    1.000
    C120     C        0.12097    0.85080    0.50023    1.000
    C121     C        0.17212    0.78360    0.49976    1.000
    C122     C        0.22093    0.75000    0.55500    1.000
    H46      H        0.22470    0.77250    0.59270    1.000
    C123     C        0.16607    0.75010    0.44513    1.000
    H47      H        0.13240    0.77290    0.40750    1.000
    C124     C        0.66200    0.21710    0.82458    1.000
    C125     C        0.67680    0.06830    0.85349    1.000
    C126     C        0.80750    0.06780    0.11460    1.000
    C127     C        0.26470    0.68250    0.55460    1.000
    C128     C        0.59230    0.24980    0.80467    1.000
    H48      H        0.55810    0.22780    0.81880    1.000
    C129     C        0.20930    0.68250    0.44464    1.000
    C130     C        0.79760    0.14940    0.09471    1.000
    C131     C        0.25930    0.65080    0.50010    1.000
    H49      H        0.29030    0.60650    0.50010    1.000
    C132     C        0.71660    0.17510    0.93358    1.000
    C133     C        0.76780    0.17580    0.03480    1.000
    C134     C        0.82200    0.21480    0.14394    1.000
    C135     C        0.21200    0.95800    0.49990    1.000
    H50      H        0.25010    0.92330    0.49980    1.000
    C136     C        0.68660    0.14890    0.87330    1.000
    C137     C        0.71240    0.24990    0.80485    1.000
    H51      H        0.76050    0.22780    0.81890    1.000
    C138     C        0.57260    0.31590    0.76344    1.000
    C139     C        0.69110    0.31640    0.76362    1.000
    C140     C        0.77420    0.24410    0.16600    1.000
    H52      H        0.72610    0.22190    0.15140    1.000
    C141     C        0.75770    0.26030    0.01590    1.000
    H53      H        0.76990    0.30720    0.04180    1.000
    C142     C        0.89230    0.24410    0.16610    1.000
    H54      H        0.92570    0.22170    0.15140    1.000
    C143     C        0.72710    0.26030    0.95350    1.000
    H55      H        0.71490    0.30750    0.92780    1.000
    C144     C        0.73880    0.33900    0.23020    1.000
    C145     C        0.62180    0.34910    0.74394    1.000
    H56      H        0.60820    0.39480    0.71680    1.000
    C146     C        0.91540    0.30590    0.20970    1.000
    C147     C        0.03340    0.74120    0.49950    1.000
    H57      H        0.06110    0.69420    0.49880    1.000
    C148     C        0.83930    0.04130    0.17892    1.000
    H58      H        0.85660    0.07600    0.21390    1.000
    C149     C        0.64470    0.04150    0.79000    1.000
    H59      H        0.62700    0.07610    0.75490    1.000
    C150     C        0.79510    0.30620    0.20980    1.000
    C151     C        0.74410    0.35870    0.74420    1.000
    C152     C        0.99120    0.33830    0.23030    1.000
    C153     C        0.31490    0.64150    0.61400    1.000
    C154     C        0.49950    0.35920    0.74380    1.000
    C155     C        0.20060    0.64170    0.38580    1.000
    C156     C        0.86590    0.33770    0.23040    1.000
    H60      H        0.88030    0.38160    0.25910    1.000
    O65      O        0.50150    0.43280    0.71850    1.000
    O66      O        0.37010    0.60140    0.61590    1.000
    O67      O        0.71660    0.43370    0.71790    1.000
    O68      O        0.25350    0.60160    0.38370    1.000
    O69      O        0.47680    0.39960    0.69400    1.000
    O70      O        0.71660    0.39820    0.69390    1.000
    O71      O        0.24040    0.57180    0.40010    1.000
    O72      O        0.33880    0.57110    0.59980    1.000
    Zn1      Zn       0.99223    0.00000    0.48414    1.000
    N5       N        0.10230    0.00000    0.50030    1.000
    Zn2      Zn       0.00777    0.00000    0.51586    1.000
    N6       N        0.89770    0.00000    0.49970    1.000
    Zn3      Zn       0.72477    0.00000    0.98412    1.000
    N7       N        0.78830    0.00000    0.07720    1.000
    N8       N        0.69480    0.00000    0.89030    1.000
    Zn4      Zn       0.75941    0.00000    0.98397    1.000
    Zn5      Zn       0.27523    0.00000    0.01588    1.000
    N9       N        0.21170    0.00000    0.92280    1.000
    N10      N        0.30520    0.00000    0.10970    1.000
    Zn6      Zn       0.24059    0.00000    0.01603    1.000
    Fe9      Fe       0.41779    0.50000    0.66020    1.000
    Fe10     Fe       0.25770    0.50000    0.33989    1.000
    O73      O        0.15380    0.50000    0.28550    1.000
    O74      O        0.36810    0.50000    0.71425    1.000
    C157     C        0.42290    0.50000    0.86050    1.000
    H61      H        0.44810    0.50000    0.90380    1.000
    C158     C        0.06390    0.50000    0.13930    1.000
    H62      H        0.04660    0.50000    0.09600    1.000
    Fe11     Fe       0.58221    0.50000    0.33980    1.000
    Fe12     Fe       0.74230    0.50000    0.66011    1.000
    O75      O        0.84620    0.50000    0.71450    1.000
    O76      O        0.63190    0.50000    0.28575    1.000
    C159     C        0.57710    0.50000    0.13950    1.000
    H63      H        0.55190    0.50000    0.09620    1.000
    C160     C        0.93610    0.50000    0.86070    1.000
    H64      H        0.95340    0.50000    0.90400    1.000
    N11      N        0.00000    0.12580    0.50000    1.000
    N12      N        0.00000    0.87420    0.50000    1.000
