# CIF file generated by openbabel 3.1.0, see https://openbabel.org
data_I
_chemical_name_common 'image0'
_cell_length_a 10.035
_cell_length_b 21.204
_cell_length_c 11.115
_cell_angle_alpha 90
_cell_angle_beta 92.453
_cell_angle_gamma 90
_space_group_name_H-M_alt 'P 1'
_space_group_name_Hall 'P 1'
loop_
    _symmetry_equiv_pos_as_xyz
    x,y,z
loop_
    _atom_site_label
    _atom_site_type_symbol
    _atom_site_fract_x
    _atom_site_fract_y
    _atom_site_fract_z
    _atom_site_occupancy
    Nd1      Nd       0.56769    0.09546    0.94023    1.000
    Nd2      Nd       0.07836    0.10515    0.30640    1.000
    O1       O        0.40390    0.15374    0.05050    1.000
    O2       O        0.25430    0.15910    0.19260    1.000
    O3       O        0.39830    0.02598    0.06390    1.000
    O4       O        0.22790    0.03429    0.18810    1.000
    O5       O        0.81480    0.08851    0.96680    1.000
    O6       O        0.99260    0.09633    0.09310    1.000
    O7       O        0.65440    0.08652    0.15180    1.000
    O8       O        0.83230    0.09244    0.28040    1.000
    O9       O        0.66360    0.20315    0.98270    1.000
    O10      O        0.64910    0.30740    0.94890    1.000
    O11      O        0.49430    0.18258    0.79460    1.000
    O12      O        0.48160    0.28672    0.75990    1.000
    O13      O        0.03570    0.99111    0.34840    1.000
    O14      O        0.00410    0.91751    0.48860    1.000
    C1       C        0.32610    0.12950    0.12270    1.000
    C2       C        0.31510    0.05661    0.12500    1.000
    C3       C        0.86910    0.09162    0.06920    1.000
    C4       C        0.77720    0.09027    0.17680    1.000
    C5       C        0.61990    0.25057    0.92600    1.000
    C6       C        0.52350    0.23937    0.81640    1.000
    C7       C        0.01130    0.97338    0.45240    1.000
    Nd3      Nd       0.93231    0.59546    0.55977    1.000
    Nd4      Nd       0.42164    0.60515    0.19360    1.000
    O15      O        0.09610    0.65374    0.44950    1.000
    O16      O        0.24570    0.65910    0.30740    1.000
    O17      O        0.10170    0.52598    0.43610    1.000
    O18      O        0.27210    0.53429    0.31190    1.000
    O19      O        0.68520    0.58851    0.53320    1.000
    O20      O        0.50740    0.59633    0.40690    1.000
    O21      O        0.84560    0.58652    0.34820    1.000
    O22      O        0.66770    0.59244    0.21960    1.000
    O23      O        0.83640    0.70315    0.51730    1.000
    O24      O        0.85090    0.80740    0.55110    1.000
    O25      O        0.00570    0.68258    0.70540    1.000
    O26      O        0.01840    0.78672    0.74010    1.000
    O27      O        0.46430    0.49111    0.15160    1.000
    O28      O        0.49590    0.41751    0.01140    1.000
    C8       C        0.17390    0.62950    0.37730    1.000
    C9       C        0.18490    0.55661    0.37500    1.000
    C10      C        0.63090    0.59162    0.43080    1.000
    C11      C        0.72280    0.59027    0.32320    1.000
    C12      C        0.88010    0.75057    0.57400    1.000
    C13      C        0.97650    0.73937    0.68360    1.000
    C14      C        0.48870    0.47338    0.04760    1.000
    Nd5      Nd       0.43231    0.90454    0.05977    1.000
    Nd6      Nd       0.92164    0.89484    0.69360    1.000
    O29      O        0.59610    0.84626    0.94950    1.000
    O30      O        0.74570    0.84090    0.80740    1.000
    O31      O        0.60170    0.97402    0.93610    1.000
    O32      O        0.77210    0.96571    0.81190    1.000
    O33      O        0.18520    0.91149    0.03320    1.000
    O34      O        0.00740    0.90367    0.90690    1.000
    O35      O        0.34560    0.91348    0.84820    1.000
    O36      O        0.16770    0.90756    0.71960    1.000
    O37      O        0.33640    0.79685    0.01730    1.000
    O38      O        0.35090    0.69260    0.05110    1.000
    O39      O        0.50570    0.81742    0.20540    1.000
    O40      O        0.51840    0.71328    0.24010    1.000
    O41      O        0.96430    0.00889    0.65160    1.000
    O42      O        0.99590    0.08249    0.51140    1.000
    C15      C        0.67390    0.87050    0.87730    1.000
    C16      C        0.68490    0.94339    0.87500    1.000
    C17      C        0.13090    0.90838    0.93080    1.000
    C18      C        0.22280    0.90973    0.82320    1.000
    C19      C        0.38010    0.74943    0.07400    1.000
    C20      C        0.47650    0.76063    0.18360    1.000
    C21      C        0.98870    0.02662    0.54760    1.000
    Nd7      Nd       0.06769    0.40454    0.44023    1.000
    Nd8      Nd       0.57836    0.39485    0.80640    1.000
    O43      O        0.90390    0.34626    0.55050    1.000
    O44      O        0.75430    0.34090    0.69260    1.000
    O45      O        0.89830    0.47402    0.56390    1.000
    O46      O        0.72790    0.46571    0.68810    1.000
    O47      O        0.31480    0.41149    0.46680    1.000
    O48      O        0.49260    0.40367    0.59310    1.000
    O49      O        0.15440    0.41348    0.65180    1.000
    O50      O        0.33230    0.40756    0.78040    1.000
    O51      O        0.16360    0.29685    0.48270    1.000
    O52      O        0.14910    0.19260    0.44890    1.000
    O53      O        0.99430    0.31742    0.29460    1.000
    O54      O        0.98160    0.21328    0.25990    1.000
    O55      O        0.53570    0.50889    0.84840    1.000
    O56      O        0.50410    0.58249    0.98860    1.000
    C22      C        0.82610    0.37050    0.62270    1.000
    C23      C        0.81510    0.44339    0.62500    1.000
    C24      C        0.36910    0.40838    0.56920    1.000
    C25      C        0.27720    0.40973    0.67680    1.000
    C26      C        0.11990    0.24943    0.42600    1.000
    C27      C        0.02350    0.26063    0.31640    1.000
    C28      C        0.51130    0.52662    0.95240    1.000
