data_functionalizedCrystal
_audit_creation_method	'EQeq! by Chris Wilmer'
_symmetry_space_group_name_H-M	'P1'
_symmetry_Int_Tables_number	1
_symmetry_cell_setting	triclinic
loop_
_symmetry_equiv_pos_as_xyz
  x,y,z
_cell_length_a	13.3511
_cell_length_b	13.3511
_cell_length_c	13.3511
_cell_angle_alpha	90
_cell_angle_beta	90
_cell_angle_gamma	90
loop_
_atom_site_label
_atom_site_type_symbol
_atom_site_fract_x
_atom_site_fract_y
_atom_site_fract_z
_atom_site_charge
Mof_N 	N 	0.4386	0.1387	0.9651	-0.037
Mof_N 	N 	0.4386	0.6387	0.4651	-0.071
Mof_N 	N 	0.9386	0.1387	0.4651	-0.071
Mof_N 	N 	0.9386	0.6387	0.9651	0.14
Mof_N 	N 	0.5614	0.8613	0.9651	0.906
Mof_N 	N 	0.5614	0.3613	0.4651	-0.07
Mof_N 	N 	0.0614	0.8613	0.4651	0.526
Mof_N 	N 	0.0614	0.3613	0.9651	0.741
Mof_N 	N 	0.5614	0.1387	0.0349	-0.082
Mof_N 	N 	0.5614	0.6387	0.5349	-0.013
Mof_N 	N 	0.0614	0.1387	0.5349	-0.045
Mof_N 	N 	0.0614	0.6387	0.0349	-0.28
Mof_N 	N 	0.4386	0.8613	0.0349	-0.957
Mof_N 	N 	0.4386	0.3613	0.5349	-0.019
Mof_N 	N 	0.9386	0.8613	0.5349	-0.582
Mof_N 	N 	0.9386	0.3613	0.0349	-0.771
Mof_N 	N 	0.9651	0.4386	0.1387	-0.037
Mof_N 	N 	0.9651	0.9386	0.6387	0.14
Mof_N 	N 	0.4651	0.4386	0.6387	-0.071
Mof_N 	N 	0.4651	0.9386	0.1387	-0.07
Mof_N 	N 	0.9651	0.5614	0.8613	0.907
Mof_N 	N 	0.9651	0.0614	0.3613	0.742
Mof_N 	N 	0.4651	0.5614	0.3613	-0.069
Mof_N 	N 	0.4651	0.0614	0.8613	0.527
Mof_N 	N 	0.0349	0.5614	0.1387	-0.081
Mof_N 	N 	0.0349	0.0614	0.6387	-0.279
Mof_N 	N 	0.5349	0.5614	0.6387	-0.012
Mof_N 	N 	0.5349	0.0614	0.1387	-0.044
Mof_N 	N 	0.0349	0.4386	0.8613	-0.956
Mof_N 	N 	0.0349	0.9386	0.3613	-0.77
Mof_N 	N 	0.5349	0.4386	0.3613	-0.018
Mof_N 	N 	0.5349	0.9386	0.8613	-0.581
Mof_N 	N 	0.1387	0.9651	0.4386	-0.036
Mof_N 	N 	0.1387	0.4651	0.9386	-0.07
Mof_N 	N 	0.6387	0.9651	0.9386	0.141
Mof_N 	N 	0.6387	0.4651	0.4386	-0.07
Mof_N 	N 	0.8613	0.9651	0.5614	0.907
Mof_N 	N 	0.8613	0.4651	0.0614	0.527
Mof_N 	N 	0.3613	0.9651	0.0614	0.742
Mof_N 	N 	0.3613	0.4651	0.5614	-0.069
Mof_N 	N 	0.1387	0.0349	0.5614	-0.081
Mof_N 	N 	0.1387	0.5349	0.0614	-0.044
Mof_N 	N 	0.6387	0.0349	0.0614	-0.279
Mof_N 	N 	0.6387	0.5349	0.5614	-0.012
Mof_N 	N 	0.8613	0.0349	0.4386	-0.956
Mof_N 	N 	0.8613	0.5349	0.9386	-0.581
Mof_N 	N 	0.3613	0.0349	0.9386	-0.77
Mof_N 	N 	0.3613	0.5349	0.4386	-0.018
Mof_N 	N 	0.1387	0.4386	0.0349	-0.164
Mof_N 	N 	0.1387	0.9386	0.5349	-0.217
Mof_N 	N 	0.6387	0.4386	0.5349	0.096
Mof_N 	N 	0.6387	0.9386	0.0349	-1.126
Mof_N 	N 	0.8613	0.5614	0.0349	-1.115
Mof_N 	N 	0.8613	0.0614	0.5349	0.802
Mof_N 	N 	0.3613	0.5614	0.5349	-0.045
Mof_N 	N 	0.3613	0.0614	0.0349	-0.21
Mof_N 	N 	0.1387	0.5614	0.9651	0.036
Mof_N 	N 	0.1387	0.0614	0.4651	0.075
Mof_N 	N 	0.6387	0.5614	0.4651	-0.173
Mof_N 	N 	0.6387	0.0614	0.9651	1.103
Mof_N 	N 	0.8613	0.4386	0.9651	1.078
Mof_N 	N 	0.8613	0.9386	0.4651	-0.828
Mof_N 	N 	0.3613	0.4386	0.4651	-0.047
Mof_N 	N 	0.3613	0.9386	0.9651	0.067
Mof_N 	N 	0.4386	0.9651	0.8613	1.078
Mof_N 	N 	0.4386	0.4651	0.3613	-0.047
Mof_N 	N 	0.9386	0.9651	0.3613	0.067
Mof_N 	N 	0.9386	0.4651	0.8613	-0.828
Mof_N 	N 	0.5614	0.9651	0.1387	0.036
Mof_N 	N 	0.5614	0.4651	0.6387	-0.173
Mof_N 	N 	0.0614	0.9651	0.6387	1.103
Mof_N 	N 	0.0614	0.4651	0.1387	0.075
Mof_N 	N 	0.5614	0.0349	0.8613	-1.115
Mof_N 	N 	0.5614	0.5349	0.3613	-0.045
Mof_N 	N 	0.0614	0.0349	0.3613	-0.21
Mof_N 	N 	0.0614	0.5349	0.8613	0.802
Mof_N 	N 	0.4386	0.0349	0.1387	-0.164
Mof_N 	N 	0.4386	0.5349	0.6387	0.096
Mof_N 	N 	0.9386	0.0349	0.6387	-1.126
Mof_N 	N 	0.9386	0.5349	0.1387	-0.217
Mof_N 	N 	0.9651	0.1387	0.5614	0.036
Mof_N 	N 	0.9651	0.6387	0.0614	1.103
Mof_N 	N 	0.4651	0.1387	0.0614	0.075
Mof_N 	N 	0.4651	0.6387	0.5614	-0.173
Mof_N 	N 	0.9651	0.8613	0.4386	1.078
Mof_N 	N 	0.9651	0.3613	0.9386	0.067
Mof_N 	N 	0.4651	0.8613	0.9386	-0.828
Mof_N 	N 	0.4651	0.3613	0.4386	-0.047
Mof_N 	N 	0.0349	0.1387	0.4386	-0.164
Mof_N 	N 	0.0349	0.6387	0.9386	-1.126
Mof_N 	N 	0.5349	0.1387	0.9386	-0.217
Mof_N 	N 	0.5349	0.6387	0.4386	0.096
Mof_N 	N 	0.0349	0.8613	0.5614	-1.115
Mof_N 	N 	0.0349	0.3613	0.0614	-0.21
Mof_N 	N 	0.5349	0.8613	0.0614	0.802
Mof_N 	N 	0.5349	0.3613	0.5614	-0.045
Mof_N 	N 	0.5614	0.8613	0.0349	-1.115
Mof_N 	N 	0.5614	0.3613	0.5349	-0.045
Mof_N 	N 	0.0614	0.8613	0.5349	0.802
Mof_N 	N 	0.0614	0.3613	0.0349	-0.21
Mof_N 	N 	0.4386	0.1387	0.0349	-0.164
Mof_N 	N 	0.4386	0.6387	0.5349	0.096
Mof_N 	N 	0.9386	0.1387	0.5349	-0.217
Mof_N 	N 	0.9386	0.6387	0.0349	-1.126
Mof_N 	N 	0.4386	0.8613	0.9651	1.078
Mof_N 	N 	0.4386	0.3613	0.4651	-0.047
Mof_N 	N 	0.9386	0.8613	0.4651	-0.828
Mof_N 	N 	0.9386	0.3613	0.9651	0.067
Mof_N 	N 	0.5614	0.1387	0.9651	0.036
Mof_N 	N 	0.5614	0.6387	0.4651	-0.173
Mof_N 	N 	0.0614	0.1387	0.4651	0.075
Mof_N 	N 	0.0614	0.6387	0.9651	1.103
Mof_N 	N 	0.0349	0.5614	0.8613	-1.115
Mof_N 	N 	0.0349	0.0614	0.3613	-0.21
Mof_N 	N 	0.5349	0.5614	0.3613	-0.045
Mof_N 	N 	0.5349	0.0614	0.8613	0.802
Mof_N 	N 	0.0349	0.4386	0.1387	-0.164
Mof_N 	N 	0.0349	0.9386	0.6387	-1.126
Mof_N 	N 	0.5349	0.4386	0.6387	0.096
Mof_N 	N 	0.5349	0.9386	0.1387	-0.217
Mof_N 	N 	0.9651	0.4386	0.8613	1.078
Mof_N 	N 	0.9651	0.9386	0.3613	0.067
Mof_N 	N 	0.4651	0.4386	0.3613	-0.047
Mof_N 	N 	0.4651	0.9386	0.8613	-0.828
Mof_N 	N 	0.9651	0.5614	0.1387	0.036
Mof_N 	N 	0.9651	0.0614	0.6387	1.103
Mof_N 	N 	0.4651	0.5614	0.6387	-0.173
Mof_N 	N 	0.4651	0.0614	0.1387	0.075
Mof_N 	N 	0.8613	0.0349	0.5614	-1.115
Mof_N 	N 	0.8613	0.5349	0.0614	0.802
Mof_N 	N 	0.3613	0.0349	0.0614	-0.21
Mof_N 	N 	0.3613	0.5349	0.5614	-0.045
Mof_N 	N 	0.1387	0.0349	0.4386	-0.164
Mof_N 	N 	0.1387	0.5349	0.9386	-0.217
Mof_N 	N 	0.6387	0.0349	0.9386	-1.126
Mof_N 	N 	0.6387	0.5349	0.4386	0.096
Mof_N 	N 	0.8613	0.9651	0.4386	1.078
Mof_N 	N 	0.8613	0.4651	0.9386	-0.828
Mof_N 	N 	0.3613	0.9651	0.9386	0.067
Mof_N 	N 	0.3613	0.4651	0.4386	-0.047
Mof_N 	N 	0.1387	0.9651	0.5614	0.036
Mof_N 	N 	0.1387	0.4651	0.0614	0.075
Mof_N 	N 	0.6387	0.9651	0.0614	1.103
Mof_N 	N 	0.6387	0.4651	0.5614	-0.173
Mof_N 	N 	0.8613	0.5614	0.9651	0.907
Mof_N 	N 	0.8613	0.0614	0.4651	0.527
Mof_N 	N 	0.3613	0.5614	0.4651	-0.069
Mof_N 	N 	0.3613	0.0614	0.9651	0.742
Mof_N 	N 	0.1387	0.4386	0.9651	-0.036
Mof_N 	N 	0.1387	0.9386	0.4651	-0.07
Mof_N 	N 	0.6387	0.4386	0.4651	-0.07
Mof_N 	N 	0.6387	0.9386	0.9651	0.141
Mof_N 	N 	0.8613	0.4386	0.0349	-0.956
Mof_N 	N 	0.8613	0.9386	0.5349	-0.581
Mof_N 	N 	0.3613	0.4386	0.5349	-0.018
Mof_N 	N 	0.3613	0.9386	0.0349	-0.77
Mof_N 	N 	0.1387	0.5614	0.0349	-0.081
Mof_N 	N 	0.1387	0.0614	0.5349	-0.044
Mof_N 	N 	0.6387	0.5614	0.5349	-0.012
Mof_N 	N 	0.6387	0.0614	0.0349	-0.279
Mof_N 	N 	0.5614	0.0349	0.1387	-0.081
Mof_N 	N 	0.5614	0.5349	0.6387	-0.012
Mof_N 	N 	0.0614	0.0349	0.6387	-0.279
Mof_N 	N 	0.0614	0.5349	0.1387	-0.044
Mof_N 	N 	0.4386	0.0349	0.8613	-0.956
Mof_N 	N 	0.4386	0.5349	0.3613	-0.018
Mof_N 	N 	0.9386	0.0349	0.3613	-0.77
Mof_N 	N 	0.9386	0.5349	0.8613	-0.581
Mof_N 	N 	0.4386	0.9651	0.1387	-0.036
Mof_N 	N 	0.4386	0.4651	0.6387	-0.07
Mof_N 	N 	0.9386	0.9651	0.6387	0.141
Mof_N 	N 	0.9386	0.4651	0.1387	-0.07
Mof_N 	N 	0.5614	0.9651	0.8613	0.907
Mof_N 	N 	0.5614	0.4651	0.3613	-0.069
Mof_N 	N 	0.0614	0.9651	0.3613	0.742
Mof_N 	N 	0.0614	0.4651	0.8613	0.527
Mof_N 	N 	0.0349	0.8613	0.4386	-0.956
Mof_N 	N 	0.0349	0.3613	0.9386	-0.77
Mof_N 	N 	0.5349	0.8613	0.9386	-0.581
Mof_N 	N 	0.5349	0.3613	0.4386	-0.018
Mof_N 	N 	0.0349	0.1387	0.5614	-0.081
Mof_N 	N 	0.0349	0.6387	0.0614	-0.279
Mof_N 	N 	0.5349	0.1387	0.0614	-0.044
Mof_N 	N 	0.5349	0.6387	0.5614	-0.012
Mof_N 	N 	0.9651	0.8613	0.5614	0.907
Mof_N 	N 	0.9651	0.3613	0.0614	0.742
Mof_N 	N 	0.4651	0.8613	0.0614	0.527
Mof_N 	N 	0.4651	0.3613	0.5614	-0.069
Mof_N 	N 	0.9651	0.1387	0.4386	-0.036
Mof_N 	N 	0.9651	0.6387	0.9386	0.141
Mof_N 	N 	0.4651	0.1387	0.9386	-0.07
Mof_N 	N 	0.4651	0.6387	0.4386	-0.07
Mof_K 	K 	0.5	0.5	-0	3.037
Mof_K 	K 	1.8747e-33	0.5	0.5	3.037
Mof_K 	K 	0.5	0	0.5	3.037
Mof_K 	K 	-0	0	-0	2.915
Mof_N 	N 	0.479	0.2162	0.979	0.048
Mof_N 	N 	0.479	0.7162	0.479	-0
Mof_N 	N 	0.521	0.7838	0.979	0.115
Mof_N 	N 	0.521	0.2838	0.479	-0.001
Mof_N 	N 	0.021	0.7838	0.479	-0.125
Mof_N 	N 	0.521	0.2162	0.021	-0.045
Mof_N 	N 	0.521	0.7162	0.521	-0.004
Mof_N 	N 	0.021	0.7162	0.021	-0.01
Mof_N 	N 	0.479	0.7838	0.021	-0.125
Mof_N 	N 	0.479	0.2838	0.521	-0.001
Mof_N 	N 	0.979	0.479	0.2162	0.048
Mof_N 	N 	0.979	0.979	0.7162	0.065
Mof_N 	N 	0.479	0.479	0.7162	-0
Mof_N 	N 	0.979	0.521	0.7838	0.115
Mof_N 	N 	0.979	0.021	0.2838	-0.032
Mof_N 	N 	0.479	0.021	0.7838	-0.125
Mof_N 	N 	0.021	0.521	0.2162	-0.045
Mof_N 	N 	0.021	0.021	0.7162	-0.01
Mof_N 	N 	0.021	0.479	0.7838	-0.125
Mof_N 	N 	0.021	0.979	0.2838	-0.032
Mof_N 	N 	0.2162	0.979	0.479	0.048
Mof_N 	N 	0.7162	0.979	0.979	0.065
Mof_N 	N 	0.7162	0.479	0.479	-0
Mof_N 	N 	0.7838	0.979	0.521	0.115
Mof_N 	N 	0.7838	0.479	0.021	-0.125
Mof_N 	N 	0.2838	0.979	0.021	-0.032
Mof_N 	N 	0.2162	0.021	0.521	-0.045
Mof_N 	N 	0.7162	0.021	0.021	-0.01
Mof_N 	N 	0.7838	0.021	0.479	-0.125
Mof_N 	N 	0.2838	0.021	0.979	-0.032
Mof_N 	N 	0.2162	0.479	0.021	-0.036
Mof_N 	N 	0.7162	0.479	0.521	-0
Mof_N 	N 	0.7838	0.521	0.021	-0.118
Mof_N 	N 	0.2838	0.521	0.521	0.014
Mof_N 	N 	0.2838	0.021	0.021	0.119
Mof_N 	N 	0.2162	0.521	0.979	0.034
Mof_N 	N 	0.2162	0.021	0.479	-0.036
Mof_N 	N 	0.7162	0.521	0.479	-0
Mof_N 	N 	0.7838	0.479	0.979	0.113
Mof_N 	N 	0.2838	0.479	0.479	-0.02
Mof_N 	N 	0.479	0.979	0.7838	0.113
Mof_N 	N 	0.479	0.479	0.2838	-0.02
Mof_N 	N 	0.521	0.979	0.2162	0.034
Mof_N 	N 	0.521	0.479	0.7162	-0
Mof_N 	N 	0.021	0.479	0.2162	-0.036
Mof_N 	N 	0.521	0.021	0.7838	-0.118
Mof_N 	N 	0.521	0.521	0.2838	0.014
Mof_N 	N 	0.021	0.021	0.2838	0.119
Mof_N 	N 	0.479	0.021	0.2162	-0.036
Mof_N 	N 	0.479	0.521	0.7162	-0
Mof_N 	N 	0.979	0.2162	0.521	0.034
Mof_N 	N 	0.979	0.7162	0.021	-0.033
Mof_N 	N 	0.479	0.2162	0.021	-0.036
Mof_N 	N 	0.979	0.7838	0.479	0.113
Mof_N 	N 	0.979	0.2838	0.979	-0.06
Mof_N 	N 	0.479	0.2838	0.479	-0.02
Mof_N 	N 	0.021	0.2162	0.479	-0.036
Mof_N 	N 	0.021	0.7162	0.979	-0.033
Mof_N 	N 	0.021	0.7838	0.521	-0.118
Mof_N 	N 	0.021	0.2838	0.021	0.119
Mof_N 	N 	0.521	0.7838	0.021	-0.118
Mof_N 	N 	0.521	0.2838	0.521	0.014
Mof_N 	N 	0.479	0.7162	0.521	-0
Mof_N 	N 	0.479	0.7838	0.979	0.113
Mof_N 	N 	0.521	0.2162	0.979	0.034
Mof_N 	N 	0.521	0.7162	0.479	-0
Mof_N 	N 	0.021	0.521	0.7838	-0.118
Mof_N 	N 	0.021	0.979	0.7162	-0.033
Mof_N 	N 	0.979	0.479	0.7838	0.113
Mof_N 	N 	0.979	0.979	0.2838	-0.06
Mof_N 	N 	0.979	0.521	0.2162	0.034
Mof_N 	N 	0.979	0.021	0.7162	-0.033
Mof_N 	N 	0.7838	0.021	0.521	-0.118
Mof_N 	N 	0.7162	0.021	0.979	-0.033
Mof_N 	N 	0.7838	0.979	0.479	0.113
Mof_N 	N 	0.2838	0.979	0.979	-0.06
Mof_N 	N 	0.2162	0.979	0.521	0.034
Mof_N 	N 	0.7162	0.979	0.021	-0.033
Mof_N 	N 	0.7838	0.521	0.979	0.115
Mof_N 	N 	0.2838	0.521	0.479	-0.001
Mof_N 	N 	0.2162	0.479	0.979	0.048
Mof_N 	N 	0.2838	0.479	0.521	-0.001
Mof_N 	N 	0.2162	0.521	0.021	-0.045
Mof_N 	N 	0.7162	0.521	0.521	-0.004
Mof_N 	N 	0.521	0.021	0.2162	-0.045
Mof_N 	N 	0.521	0.521	0.7162	-0.004
Mof_N 	N 	0.479	0.521	0.2838	-0.001
Mof_N 	N 	0.479	0.979	0.2162	0.048
Mof_N 	N 	0.521	0.979	0.7838	0.115
Mof_N 	N 	0.521	0.479	0.2838	-0.001
Mof_N 	N 	0.021	0.2838	0.979	-0.032
Mof_N 	N 	0.021	0.2162	0.521	-0.045
Mof_N 	N 	0.979	0.7838	0.521	0.115
Mof_N 	N 	0.979	0.2838	0.021	-0.032
Mof_N 	N 	0.979	0.2162	0.479	0.048
Mof_N 	N 	0.979	0.7162	0.979	0.065
Mof_N 	N 	0.519	0.2926	-0	-0.067
Mof_N 	N 	0.519	0.7926	0.5	-0.052
Mof_N 	N 	0.019	0.2926	0.5	0.012
Mof_N 	N 	0.019	0.7926	-0	-0.098
Mof_N 	N 	0.481	0.7074	-0	-0.107
Mof_N 	N 	0.481	0.2074	0.5	-0.054
Mof_N 	N 	0.981	0.7074	0.5	-0.383
Mof_N 	N 	0.981	0.2074	-0	0.204
Mof_N 	N 	0.481	0.2926	-0	-0.098
Mof_N 	N 	0.481	0.7926	0.5	-0.109
Mof_N 	N 	0.981	0.2926	0.5	-0.183
Mof_N 	N 	0.981	0.7926	-0	-0.06
Mof_N 	N 	0.519	0.7074	-0	-0.075
Mof_N 	N 	0.519	0.2074	0.5	-0.115
Mof_N 	N 	0.019	0.7074	0.5	0.244
Mof_N 	N 	0.019	0.2074	-0	-0.362
Mof_N 	N 	-9.51009e-33	0.519	0.2926	-0.067
Mof_N 	N 	-7.63539e-33	0.019	0.7926	-0.098
Mof_N 	N 	0.5	0.519	0.7926	-0.052
Mof_N 	N 	0.5	0.019	0.2926	0.012
Mof_N 	N 	7.95591e-33	0.481	0.7074	-0.107
Mof_N 	N 	3.42942e-33	0.981	0.2074	0.204
Mof_N 	N 	0.5	0.481	0.2074	-0.054
Mof_N 	N 	0.5	0.981	0.7074	-0.383
Mof_N 	N 	-4.20651e-33	0.481	0.2926	-0.098
Mof_N 	N 	-7.63539e-33	0.981	0.7926	-0.06
Mof_N 	N 	0.5	0.481	0.7926	-0.109
Mof_N 	N 	0.5	0.981	0.2926	-0.183
Mof_N 	N 	-7.95484e-33	0.519	0.7074	-0.075
Mof_N 	N 	7.77625e-34	0.019	0.2074	-0.362
Mof_N 	N 	0.5	0.519	0.2074	-0.115
Mof_N 	N 	0.5	0.019	0.7074	0.244
Mof_N 	N 	0.2926	0	0.519	-0.067
Mof_N 	N 	0.2926	0.5	0.019	0.012
Mof_N 	N 	0.7926	-1.65737e-34	0.019	-0.098
Mof_N 	N 	0.7926	0.5	0.519	-0.052
Mof_N 	N 	0.7074	0	0.481	-0.107
Mof_N 	N 	0.7074	0.5	0.981	-0.383
Mof_N 	N 	0.2074	0	0.981	0.204
Mof_N 	N 	0.2074	0.5	0.481	-0.054
Mof_N 	N 	0.2926	0	0.481	-0.098
Mof_N 	N 	0.2926	0.5	0.981	-0.183
Mof_N 	N 	0.7926	0	0.981	-0.06
Mof_N 	N 	0.7926	0.5	0.481	-0.109
Mof_N 	N 	0.7074	0	0.519	-0.075
Mof_N 	N 	0.7074	0.5	0.019	0.244
Mof_N 	N 	0.2074	-1.65737e-34	0.019	-0.362
Mof_N 	N 	0.2074	0.5	0.519	-0.115
Mof_N 	N 	0.2926	0.519	-0	-0.067
Mof_N 	N 	0.2926	0.019	0.5	0.012
Mof_N 	N 	0.7926	0.519	0.5	-0.052
Mof_N 	N 	0.7926	0.019	-0	-0.098
Mof_N 	N 	0.7074	0.481	-0	-0.107
Mof_N 	N 	0.7074	0.981	0.5	-0.383
Mof_N 	N 	0.2074	0.481	0.5	-0.054
Mof_N 	N 	0.2074	0.981	-0	0.204
Mof_N 	N 	0.2926	0.481	-0	-0.098
Mof_N 	N 	0.2926	0.981	0.5	-0.183
Mof_N 	N 	0.7926	0.481	0.5	-0.109
Mof_N 	N 	0.7926	0.981	-0	-0.06
Mof_N 	N 	0.7074	0.519	-0	-0.075
Mof_N 	N 	0.7074	0.019	0.5	0.244
Mof_N 	N 	0.2074	0.519	0.5	-0.115
Mof_N 	N 	0.2074	0.019	-0	-0.362
Mof_N 	N 	0.519	0	0.7074	-0.075
Mof_N 	N 	0.519	0.5	0.2074	-0.115
Mof_N 	N 	0.019	2.65179e-33	0.2074	-0.362
Mof_N 	N 	0.019	0.5	0.7074	0.244
Mof_N 	N 	0.481	-2.65179e-33	0.2926	-0.098
Mof_N 	N 	0.481	0.5	0.7926	-0.109
Mof_N 	N 	0.981	0	0.7926	-0.06
Mof_N 	N 	0.981	0.5	0.2926	-0.183
Mof_N 	N 	0.481	0	0.7074	-0.107
Mof_N 	N 	0.481	0.5	0.2074	-0.054
Mof_N 	N 	0.981	2.65179e-33	0.2074	0.204
Mof_N 	N 	0.981	0.5	0.7074	-0.383
Mof_N 	N 	0.519	-2.65179e-33	0.2926	-0.067
Mof_N 	N 	0.519	0.5	0.7926	-0.052
Mof_N 	N 	0.019	0	0.7926	-0.098
Mof_N 	N 	0.019	0.5	0.2926	0.012
Mof_N 	N 	-3.50012e-33	0.2926	0.481	-0.098
Mof_N 	N 	-6.929e-33	0.7926	0.981	-0.06
Mof_N 	N 	0.5	0.2926	0.981	-0.183
Mof_N 	N 	0.5	0.7926	0.481	-0.109
Mof_N 	N 	-3.35764e-33	0.7074	0.519	-0.075
Mof_N 	N 	-9.44983e-35	0.2074	0.019	-0.362
Mof_N 	N 	0.5	0.7074	0.019	0.244
Mof_N 	N 	0.5	0.2074	0.519	-0.115
Mof_N 	N 	-8.66123e-33	0.2926	0.519	-0.067
Mof_N 	N 	-5.39808e-33	0.7926	0.019	-0.098
Mof_N 	N 	0.5	0.2926	0.019	0.012
Mof_N 	N 	0.5	0.7926	0.519	-0.052
Mof_N 	N 	7.10704e-33	0.7074	0.481	-0.107
Mof_N 	N 	3.67816e-33	0.2074	0.981	0.204
Mof_N 	N 	0.5	0.7074	0.981	-0.383
Mof_N 	N 	0.5	0.2074	0.481	-0.054
Mof_Fe	Fe	0.5	0	-0	0.998
Mof_Fe	Fe	0.5	0.5	0.5	1.007
Mof_Fe	Fe	1.8747e-33	0	0.5	0.998
Mof_Fe	Fe	-0	0.5	-0	0.998
_end
