data_functionalizedCrystal
_audit_creation_method	'EQeq! by Chris Wilmer'
_symmetry_space_group_name_H-M	'P1'
_symmetry_Int_Tables_number	1
_symmetry_cell_setting	triclinic
loop_
_symmetry_equiv_pos_as_xyz
  x,y,z
_cell_length_a	11.4957
_cell_length_b	13.6804
_cell_length_c	23.9693
_cell_angle_alpha	76.328
_cell_angle_beta	76.214
_cell_angle_gamma	66.917
loop_
_atom_site_label
_atom_site_type_symbol
_atom_site_fract_x
_atom_site_fract_y
_atom_site_fract_z
_atom_site_charge
Mof_Gd	Gd	0.64066	0.29881	0.4827	1.568
Mof_Gd	Gd	0.81596	0.5981	0.03827	1.637
Mof_C 	C 	0.8744	0.5006	0.923	0.478
Mof_C 	C 	0.8487	0.473	0.8713	-0.226
Mof_C 	C 	0.9299	0.3816	0.8495	0.12
Mof_H 	H 	0.0017	0.3377	0.8665	-0.008
Mof_C 	C 	0.9067	0.3535	0.8024	-0.175
Mof_H 	H 	0.9622	0.2908	0.7881	0.073
Mof_C 	C 	0.8003	0.4193	0.777	0.08
Mof_C 	C 	0.7542	0.4132	0.7263	0.072
Mof_C 	C 	0.8032	0.3383	0.6886	-0.166
Mof_H 	H 	0.8746	0.2767	0.6951	0.069
Mof_C 	C 	0.7437	0.3571	0.6412	0.11
Mof_H 	H 	0.7757	0.3073	0.6157	-0.007
Mof_C 	C 	0.6382	0.4479	0.6309	-0.216
Mof_C 	C 	0.5797	0.4709	0.578	0.455
Mof_C 	C 	0.5867	0.5219	0.6701	0.137
Mof_H 	H 	0.5135	0.5821	0.6644	-0.02
Mof_C 	C 	0.645	0.5047	0.717	-0.229
Mof_C 	C 	0.6111	0.5757	0.7626	0.529
Mof_C 	C 	0.4781	0.5882	0.7975	-1.02
Mof_H 	H 	0.4157	0.6254	0.7721	0.325
Mof_H 	H 	0.4614	0.629	0.8279	0.313
Mof_H 	H 	0.4732	0.5186	0.8143	0.327
Mof_C 	C 	0.6181	0.6881	0.7347	-0.979
Mof_H 	H 	0.6992	0.6798	0.7098	0.316
Mof_H 	H 	0.6093	0.7272	0.7648	0.295
Mof_H 	H 	0.5501	0.727	0.7123	0.313
Mof_C 	C 	0.7168	0.5128	0.7995	-0.239
Mof_C 	C 	0.7412	0.539	0.8461	0.151
Mof_H 	H 	0.6858	0.6011	0.861	-0.037
Mof_C 	C 	0.0262	0.6618	0.9258	0.465
Mof_C 	C 	0.0155	0.7247	0.8657	-0.222
Mof_C 	C 	0.1153	0.6941	0.8201	0.109
Mof_H 	H 	0.19	0.6363	0.8273	-0.018
Mof_C 	C 	0.1048	0.7489	0.7635	-0.192
Mof_H 	H 	0.1721	0.7283	0.7331	0.084
Mof_C 	C 	0.9937	0.8339	0.753	0.087
Mof_C 	C 	0.9538	0.9038	0.699	0.045
Mof_C 	C 	0.0164	0.9033	0.6425	-0.128
Mof_H 	H 	0.0971	0.852	0.6335	0.071
Mof_C 	C 	0.9578	0.9795	0.5996	0.049
Mof_H 	H 	0.0008	0.9813	0.5614	0.031
Mof_C 	C 	0.8331	0.0558	0.6121	-0.136
Mof_C 	C 	0.7679	0.1369	0.5659	0.341
Mof_C 	C 	0.7709	0.0548	0.669	0.084
Mof_H 	H 	0.6891	0.1044	0.6781	0.004
Mof_C 	C 	0.8314	0.9796	0.7119	-0.191
Mof_C 	C 	0.7794	0.9625	0.7779	0.501
Mof_C 	C 	0.6595	0.933	0.7885	-0.973
Mof_H 	H 	0.6748	0.8779	0.7663	0.301
Mof_H 	H 	0.5889	0.9956	0.7768	0.311
Mof_H 	H 	0.6395	0.9071	0.8291	0.298
Mof_C 	C 	0.7512	0.0629	0.8042	-0.975
Mof_H 	H 	0.7355	0.046	0.8459	0.3
Mof_H 	H 	0.6771	0.1197	0.7911	0.31
Mof_H 	H 	0.8236	0.0858	0.7922	0.304
Mof_C 	C 	0.8941	0.8667	0.799	-0.234
Mof_C 	C 	0.9045	0.8112	0.8553	0.142
Mof_H 	H 	0.8375	0.832	0.8857	-0.035
Mof_C 	C 	0.619	0.1615	0.4185	0.327
Mof_C 	C 	0.6167	0.0826	0.385	-0.142
Mof_C 	C 	0.5538	0.0101	0.4112	0.054
Mof_H 	H 	0.5104	0.0134	0.4491	0.029
Mof_C 	C 	0.5542	0.9338	0.3822	-0.132
Mof_H 	H 	0.513	0.8854	0.4004	0.082
Mof_C 	C 	0.6178	0.9316	0.3252	0.058
Mof_C 	C 	0.6366	0.8612	0.2834	0.069
Mof_C 	C 	0.5955	0.7769	0.288	-0.151
Mof_H 	H 	0.5471	0.7555	0.3223	0.081
Mof_C 	C 	0.6281	0.7246	0.2402	0.054
Mof_H 	H 	0.6009	0.6678	0.2427	0.012
Mof_C 	C 	0.7004	0.7552	0.1888	-0.146
Mof_C 	C 	0.7362	0.6982	0.137	0.325
Mof_C 	C 	0.7392	0.8398	0.1851	0.092
Mof_H 	H 	0.7861	0.8619	0.1505	-0.008
Mof_C 	C 	0.709	0.8929	0.2323	-0.221
Mof_C 	C 	0.7461	0.9851	0.2373	0.516
Mof_C 	C 	0.6963	0.0849	0.1922	-0.979
Mof_H 	H 	0.7285	0.0664	0.1538	0.303
Mof_H 	H 	0.7248	0.1399	0.1959	0.306
Mof_H 	H 	0.6043	0.111	0.1986	0.294
Mof_C 	C 	0.8915	0.9504	0.2332	-1
Mof_H 	H 	0.9233	0.8844	0.2592	0.32
Mof_H 	H 	0.9104	0.0057	0.2434	0.323
Mof_H 	H 	0.932	0.94	0.194	0.31
Mof_C 	C 	0.6807	0.005	0.2989	-0.209
Mof_C 	C 	0.6789	0.0796	0.3284	0.091
Mof_H 	H 	0.7197	0.1283	0.3103	-0.01
Mof_O 	O 	0.7794	0.5619	0.9528	-0.493
Mof_O 	O 	0.9849	0.4634	0.9346	-0.503
Mof_O 	O 	0.4689	0.5427	0.57593	-0.487
Mof_O 	O 	0.6432	0.419	0.53689	-0.493
Mof_O 	O 	0.9289	0.6878	0.9645	-0.479
Mof_O 	O 	0.1309	0.5864	0.9334	-0.492
Mof_O 	O 	0.6533	0.1954	0.57847	-0.418
Mof_O 	O 	0.8264	0.1476	0.5139	-0.404
Mof_O 	O 	0.5698	0.1592	0.47175	-0.403
Mof_O 	O 	0.6697	0.2307	0.3933	-0.415
Mof_O 	O 	0.7216	0.6109	0.142	-0.42
Mof_O 	O 	0.7841	0.7417	0.0888	-0.421
Mof_Gd	Gd	0.35934	0.70119	0.5173	1.569
Mof_Gd	Gd	0.18404	0.4019	0.96173	1.638
Mof_C 	C 	0.1256	0.4994	0.077	0.478
Mof_C 	C 	0.1513	0.527	0.1287	-0.226
Mof_C 	C 	0.0701	0.6184	0.1505	0.12
Mof_H 	H 	0.9983	0.6623	0.1335	-0.008
Mof_C 	C 	0.0933	0.6465	0.1976	-0.175
Mof_H 	H 	0.0378	0.7092	0.2119	0.073
Mof_C 	C 	0.1997	0.5807	0.223	0.08
Mof_C 	C 	0.2458	0.5868	0.2737	0.072
Mof_C 	C 	0.1968	0.6617	0.3114	-0.166
Mof_H 	H 	0.1254	0.7233	0.3049	0.069
Mof_C 	C 	0.2563	0.6429	0.3588	0.11
Mof_H 	H 	0.2243	0.6927	0.3843	-0.007
Mof_C 	C 	0.3618	0.5521	0.3691	-0.216
Mof_C 	C 	0.4203	0.5291	0.422	0.455
Mof_C 	C 	0.4133	0.4781	0.3299	0.137
Mof_H 	H 	0.4865	0.4179	0.3356	-0.02
Mof_C 	C 	0.355	0.4953	0.283	-0.229
Mof_C 	C 	0.3889	0.4243	0.2374	0.529
Mof_C 	C 	0.5219	0.4118	0.2025	-1.02
Mof_H 	H 	0.5843	0.3746	0.2279	0.325
Mof_H 	H 	0.5386	0.371	0.1721	0.313
Mof_H 	H 	0.5268	0.4814	0.1857	0.327
Mof_C 	C 	0.3819	0.3119	0.2653	-0.979
Mof_H 	H 	0.3008	0.3202	0.2902	0.316
Mof_H 	H 	0.3907	0.2728	0.2352	0.295
Mof_H 	H 	0.4499	0.273	0.2877	0.313
Mof_C 	C 	0.2832	0.4872	0.2005	-0.239
Mof_C 	C 	0.2588	0.461	0.1539	0.151
Mof_H 	H 	0.3142	0.3989	0.139	-0.037
Mof_C 	C 	0.9738	0.3382	0.0742	0.465
Mof_C 	C 	0.9845	0.2753	0.1343	-0.222
Mof_C 	C 	0.8847	0.3059	0.1799	0.109
Mof_H 	H 	0.81	0.3637	0.1727	-0.018
Mof_C 	C 	0.8952	0.2511	0.2365	-0.192
Mof_H 	H 	0.8279	0.2717	0.2669	0.084
Mof_C 	C 	0.0063	0.1661	0.247	0.087
Mof_C 	C 	0.0462	0.0962	0.301	0.045
Mof_C 	C 	0.9836	0.0967	0.3575	-0.128
Mof_H 	H 	0.9029	0.148	0.3665	0.071
Mof_C 	C 	0.0422	0.0205	0.4004	0.049
Mof_H 	H 	0.9992	0.0187	0.4386	0.031
Mof_C 	C 	0.1669	0.9442	0.3879	-0.136
Mof_C 	C 	0.2321	0.8631	0.4341	0.341
Mof_C 	C 	0.2291	0.9452	0.331	0.084
Mof_H 	H 	0.3109	0.8956	0.3219	0.004
Mof_C 	C 	0.1686	0.0204	0.2881	-0.191
Mof_C 	C 	0.2206	0.0375	0.2221	0.501
Mof_C 	C 	0.3405	0.067	0.2115	-0.973
Mof_H 	H 	0.3252	0.1221	0.2337	0.301
Mof_H 	H 	0.4111	0.0044	0.2232	0.311
Mof_H 	H 	0.3605	0.0929	0.1709	0.298
Mof_C 	C 	0.2488	0.9371	0.1958	-0.975
Mof_H 	H 	0.2645	0.954	0.1541	0.3
Mof_H 	H 	0.3229	0.8803	0.2089	0.31
Mof_H 	H 	0.1764	0.9142	0.2078	0.304
Mof_C 	C 	0.1059	0.1333	0.201	-0.234
Mof_C 	C 	0.0955	0.1888	0.1447	0.142
Mof_H 	H 	0.1625	0.168	0.1143	-0.035
Mof_C 	C 	0.381	0.8385	0.5815	0.327
Mof_C 	C 	0.3833	0.9174	0.615	-0.142
Mof_C 	C 	0.4462	0.9899	0.5888	0.054
Mof_H 	H 	0.4896	0.9866	0.5509	0.029
Mof_C 	C 	0.4458	0.0662	0.6178	-0.132
Mof_H 	H 	0.487	0.1146	0.5996	0.082
Mof_C 	C 	0.3822	0.0684	0.6748	0.058
Mof_C 	C 	0.3634	0.1388	0.7166	0.069
Mof_C 	C 	0.4045	0.2231	0.712	-0.151
Mof_H 	H 	0.4529	0.2445	0.6777	0.081
Mof_C 	C 	0.3719	0.2754	0.7598	0.054
Mof_H 	H 	0.3991	0.3322	0.7573	0.012
Mof_C 	C 	0.2996	0.2448	0.8112	-0.146
Mof_C 	C 	0.2638	0.3018	0.863	0.325
Mof_C 	C 	0.2608	0.1602	0.8149	0.092
Mof_H 	H 	0.2139	0.1381	0.8495	-0.008
Mof_C 	C 	0.291	0.1071	0.7677	-0.221
Mof_C 	C 	0.2539	0.0149	0.7627	0.516
Mof_C 	C 	0.3037	0.9151	0.8078	-0.979
Mof_H 	H 	0.2715	0.9336	0.8462	0.303
Mof_H 	H 	0.2752	0.8601	0.8041	0.306
Mof_H 	H 	0.3957	0.889	0.8014	0.294
Mof_C 	C 	0.1085	0.0496	0.7668	-1
Mof_H 	H 	0.0767	0.1156	0.7408	0.32
Mof_H 	H 	0.0896	0.9943	0.7566	0.323
Mof_H 	H 	0.068	0.06	0.806	0.31
Mof_C 	C 	0.3193	0.995	0.7011	-0.209
Mof_C 	C 	0.3211	0.9204	0.6716	0.091
Mof_H 	H 	0.2803	0.8717	0.6897	-0.01
Mof_O 	O 	0.2206	0.4381	0.0472	-0.493
Mof_O 	O 	0.0151	0.5366	0.0654	-0.503
Mof_O 	O 	0.5311	0.4573	0.42407	-0.487
Mof_O 	O 	0.3568	0.581	0.46311	-0.493
Mof_O 	O 	0.0711	0.3122	0.0355	-0.479
Mof_O 	O 	0.8691	0.4136	0.0666	-0.492
Mof_O 	O 	0.3467	0.8046	0.42153	-0.418
Mof_O 	O 	0.1736	0.8524	0.4861	-0.404
Mof_O 	O 	0.4302	0.8408	0.52825	-0.403
Mof_O 	O 	0.3303	0.7693	0.6067	-0.415
Mof_O 	O 	0.2784	0.3891	0.858	-0.42
Mof_O 	O 	0.2159	0.2583	0.9112	-0.421
_end
