# CIF file generated by openbabel 3.1.0, see https://openbabel.org
data_I
_chemical_name_common 'BUVWOF03_clean'
_cell_length_a 16.139
_cell_length_b 18.0992
_cell_length_c 18.0992
_cell_angle_alpha 68.4397
_cell_angle_beta 72.7086
_cell_angle_gamma 107.291
_space_group_name_H-M_alt 'P 1'
_space_group_name_Hall 'P 1'
loop_
    _symmetry_equiv_pos_as_xyz
    x,y,z
loop_
    _atom_site_label
    _atom_site_type_symbol
    _atom_site_fract_x
    _atom_site_fract_y
    _atom_site_fract_z
    _atom_site_occupancy
    Fe1      Fe       0.50000    0.00000    0.50000    1.000
    Fe2      Fe       0.00000    0.50000    0.50000    1.000
    Fe3      Fe       0.50000    0.50000    0.00000    1.000
    H1       H        0.29070    0.94320    0.79210    1.000
    H2       H        0.25520    0.06180    0.74720    1.000
    H3       H        0.31490    0.15550    0.59580    1.000
    H4       H        0.40790    0.12930    0.49580    1.000
    H5       H        0.66440    0.31570    0.08670    1.000
    H6       H        0.64040    0.42240    0.99630    1.000
    H7       H        0.42920    0.38420    0.19660    1.000
    H8       H        0.44930    0.27570    0.29240    1.000
    H9       H        0.08280    0.79210    0.26470    1.000
    H10      H        0.00240    0.74720    0.19100    1.000
    H11      H        0.91070    0.59580    0.24870    1.000
    H12      H        0.90370    0.49580    0.37490    1.000
    H13      H        0.75110    0.08670    0.59760    1.000
    H14      H        0.63670    0.99630    0.58130    1.000
    H15      H        0.62580    0.19660    0.41920    1.000
    H16      H        0.74170    0.29240    0.43190    1.000
    H17      H        0.34750    0.26470    0.94320    1.000
    H18      H        0.19340    0.19100    0.06180    1.000
    H19      H        0.15940    0.24870    0.15550    1.000
    H20      H        0.27860    0.37490    0.12930    1.000
    H21      H        0.34870    0.59760    0.31570    1.000
    H22      H        0.21800    0.58130    0.42240    1.000
    H23      H        0.04500    0.41920    0.38420    1.000
    H24      H        0.17360    0.43190    0.27570    1.000
    H25      H        0.70930    0.05680    0.20790    1.000
    H26      H        0.74480    0.93820    0.25280    1.000
    H27      H        0.68510    0.84450    0.40420    1.000
    H28      H        0.59210    0.87070    0.50420    1.000
    H29      H        0.33560    0.68430    0.91330    1.000
    H30      H        0.35960    0.57760    0.00370    1.000
    H31      H        0.57080    0.61580    0.80340    1.000
    H32      H        0.55070    0.72430    0.70760    1.000
    H33      H        0.91720    0.20790    0.73530    1.000
    H34      H        0.99760    0.25280    0.80900    1.000
    H35      H        0.08930    0.40420    0.75130    1.000
    H36      H        0.09630    0.50420    0.62510    1.000
    H37      H        0.24890    0.91330    0.40240    1.000
    H38      H        0.36330    0.00370    0.41870    1.000
    H39      H        0.37420    0.80340    0.58080    1.000
    H40      H        0.25830    0.70760    0.56810    1.000
    H41      H        0.65250    0.73530    0.05680    1.000
    H42      H        0.80660    0.80900    0.93820    1.000
    H43      H        0.84060    0.75130    0.84450    1.000
    H44      H        0.72140    0.62510    0.87070    1.000
    H45      H        0.65130    0.40240    0.68430    1.000
    H46      H        0.78200    0.41870    0.57760    1.000
    H47      H        0.95500    0.58080    0.61580    1.000
    H48      H        0.82640    0.56810    0.72430    1.000
    C1       C        0.59360    0.09650    0.31120    1.000
    C2       C        0.43920    0.79860    0.73900    1.000
    C3       C        0.62560    0.02890    0.32940    1.000
    C4       C        0.31600    0.98280    0.73150    1.000
    C5       C        0.29360    0.05250    0.70520    1.000
    C6       C        0.32910    0.10780    0.61590    1.000
    C7       C        0.38570    0.09240    0.55640    1.000
    C8       C        0.44450    0.72090    0.79960    1.000
    C9       C        0.38640    0.67290    0.88840    1.000
    C10      C        0.40090    0.60790    0.94250    1.000
    C11      C        0.47780    0.37020    0.17270    1.000
    C12      C        0.48870    0.30360    0.23120    1.000
    C13      C        0.90480    0.31120    0.59230    1.000
    C14      C        0.17820    0.73900    0.46240    1.000
    C15      C        0.95500    0.32940    0.64170    1.000
    C16      C        0.04750    0.73150    0.28570    1.000
    C17      C        0.99880    0.70520    0.24230    1.000
    C18      C        0.94500    0.61590    0.27630    1.000
    C19      C        0.94210    0.55640    0.35120    1.000
    C20      C        0.24410    0.79960    0.47950    1.000
    C21      C        0.27480    0.88840    0.43870    1.000
    C22      C        0.34340    0.94250    0.44960    1.000
    C23      C        0.65050    0.17270    0.45710    1.000
    C24      C        0.71990    0.23120    0.46520    1.000
    C25      C        0.49710    0.59230    0.09650    1.000
    C26      C        0.64060    0.46240    0.79860    1.000
    C27      C        0.59670    0.64170    0.02890    1.000
    C28      C        0.33320    0.28570    0.98280    1.000
    C29      C        0.24110    0.24230    0.05250    1.000
    C30      C        0.22130    0.27630    0.10780    1.000
    C31      C        0.29330    0.35120    0.09240    1.000
    C32      C        0.72360    0.47950    0.72090    1.000
    C33      C        0.71350    0.43870    0.67290    1.000
    C34      C        0.79300    0.44960    0.60790    1.000
    C35      C        0.10760    0.45710    0.37020    1.000
    C36      C        0.18510    0.46520    0.30360    1.000
    C37      C        0.40640    0.90350    0.68880    1.000
    C38      C        0.56080    0.20140    0.26100    1.000
    C39      C        0.37440    0.97110    0.67060    1.000
    C40      C        0.68400    0.01720    0.26850    1.000
    C41      C        0.70640    0.94750    0.29480    1.000
    C42      C        0.67090    0.89220    0.38410    1.000
    C43      C        0.61430    0.90760    0.44360    1.000
    C44      C        0.55550    0.27910    0.20040    1.000
    C45      C        0.61360    0.32710    0.11160    1.000
    C46      C        0.59910    0.39210    0.05750    1.000
    C47      C        0.52220    0.62980    0.82730    1.000
    C48      C        0.51130    0.69640    0.76880    1.000
    C49      C        0.09520    0.68880    0.40770    1.000
    C50      C        0.82180    0.26100    0.53760    1.000
    C51      C        0.04500    0.67060    0.35830    1.000
    C52      C        0.95250    0.26850    0.71430    1.000
    C53      C        0.00120    0.29480    0.75770    1.000
    C54      C        0.05500    0.38410    0.72370    1.000
    C55      C        0.05790    0.44360    0.64880    1.000
    C56      C        0.75590    0.20040    0.52050    1.000
    C57      C        0.72520    0.11160    0.56130    1.000
    C58      C        0.65660    0.05750    0.55040    1.000
    C59      C        0.34950    0.82730    0.54290    1.000
    C60      C        0.28010    0.76880    0.53480    1.000
    C61      C        0.50290    0.40770    0.90350    1.000
    C62      C        0.35940    0.53760    0.20140    1.000
    C63      C        0.40330    0.35830    0.97110    1.000
    C64      C        0.66680    0.71430    0.01720    1.000
    C65      C        0.75890    0.75770    0.94750    1.000
    C66      C        0.77870    0.72370    0.89220    1.000
    C67      C        0.70670    0.64880    0.90760    1.000
    C68      C        0.27640    0.52050    0.27910    1.000
    C69      C        0.28650    0.56130    0.32710    1.000
    C70      C        0.20700    0.55040    0.39210    1.000
    C71      C        0.89240    0.54290    0.62980    1.000
    C72      C        0.81490    0.53480    0.69640    1.000
    N1       N        0.46863    0.90563    0.61704    1.000
    N2       N        0.48871    0.83713    0.65150    1.000
    N3       N        0.61357    0.16324    0.23343    1.000
    N4       N        0.58930    0.97385    0.41835    1.000
    N5       N        0.46820    0.58467    0.91537    1.000
    N6       N        0.08567    0.61704    0.47733    1.000
    N7       N        0.14021    0.65150    0.51137    1.000
    N8       N        0.84700    0.23343    0.60333    1.000
    N9       N        0.00765    0.41835    0.60780    1.000
    N10      N        0.38357    0.91537    0.49996    1.000
    N11      N        0.56300    0.47733    0.90563    1.000
    N12      N        0.65158    0.51137    0.83713    1.000
    N13      N        0.45033    0.60333    0.16324    1.000
    N14      N        0.61545    0.60780    0.97385    1.000
    N15      N        0.88353    0.49996    0.58467    1.000
    N16      N        0.53137    0.09437    0.38296    1.000
    N17      N        0.51129    0.16287    0.34850    1.000
    N18      N        0.38643    0.83676    0.76657    1.000
    N19      N        0.41070    0.02615    0.58165    1.000
    N20      N        0.53180    0.41533    0.08463    1.000
    N21      N        0.91433    0.38296    0.52267    1.000
    N22      N        0.85979    0.34850    0.48863    1.000
    N23      N        0.15300    0.76657    0.39667    1.000
    N24      N        0.99235    0.58165    0.39220    1.000
    N25      N        0.61643    0.08463    0.50004    1.000
    N26      N        0.43700    0.52267    0.09437    1.000
    N27      N        0.34842    0.48863    0.16287    1.000
    N28      N        0.54967    0.39667    0.83676    1.000
    N29      N        0.38455    0.39220    0.02615    1.000
    N30      N        0.11647    0.50004    0.41533    1.000
    Fe4      Fe       0.50000    0.50000    0.50000    1.000
    Fe5      Fe       0.00000    0.00000    0.50000    1.000
    Fe6      Fe       0.00000    0.50000    0.00000    1.000
    H49      H        0.41720    0.26470    0.79210    1.000
    H50      H        0.49760    0.19100    0.74720    1.000
    H51      H        0.58930    0.24870    0.59580    1.000
    H52      H        0.59630    0.37490    0.49580    1.000
    H53      H        0.74890    0.59760    0.08670    1.000
    H54      H        0.86330    0.58130    0.99630    1.000
    H55      H        0.87420    0.41920    0.19660    1.000
    H56      H        0.75830    0.43190    0.29240    1.000
    H57      H        0.15250    0.94320    0.26470    1.000
    H58      H        0.30660    0.06180    0.19100    1.000
    H59      H        0.34060    0.15550    0.24870    1.000
    H60      H        0.22140    0.12930    0.37490    1.000
    H61      H        0.15130    0.31570    0.59760    1.000
    H62      H        0.28200    0.42240    0.58130    1.000
    H63      H        0.45500    0.38420    0.41920    1.000
    H64      H        0.32640    0.27570    0.43190    1.000
    H65      H        0.20930    0.79210    0.94320    1.000
    H66      H        0.24480    0.74720    0.06180    1.000
    H67      H        0.18510    0.59580    0.15550    1.000
    H68      H        0.09210    0.49580    0.12930    1.000
    H69      H        0.83560    0.08670    0.31570    1.000
    H70      H        0.85960    0.99630    0.42240    1.000
    H71      H        0.07080    0.19660    0.38420    1.000
    H72      H        0.05070    0.29240    0.27570    1.000
    H73      H        0.58280    0.73530    0.20790    1.000
    H74      H        0.50240    0.80900    0.25280    1.000
    H75      H        0.41070    0.75130    0.40420    1.000
    H76      H        0.40370    0.62510    0.50420    1.000
    H77      H        0.25110    0.40240    0.91330    1.000
    H78      H        0.13670    0.41870    0.00370    1.000
    H79      H        0.12580    0.58080    0.80340    1.000
    H80      H        0.24170    0.56810    0.70760    1.000
    H81      H        0.84750    0.05680    0.73530    1.000
    H82      H        0.69340    0.93820    0.80900    1.000
    H83      H        0.65940    0.84450    0.75130    1.000
    H84      H        0.77860    0.87070    0.62510    1.000
    H85      H        0.84870    0.68430    0.40240    1.000
    H86      H        0.71800    0.57760    0.41870    1.000
    H87      H        0.54500    0.61580    0.58080    1.000
    H88      H        0.67360    0.72430    0.56810    1.000
    H89      H        0.79070    0.20790    0.05680    1.000
    H90      H        0.75520    0.25280    0.93820    1.000
    H91      H        0.81490    0.40420    0.84450    1.000
    H92      H        0.90790    0.50420    0.87070    1.000
    H93      H        0.16440    0.91330    0.68430    1.000
    H94      H        0.14040    0.00370    0.57760    1.000
    H95      H        0.92920    0.80340    0.61580    1.000
    H96      H        0.94930    0.70760    0.72430    1.000
    C73      C        0.59520    0.59230    0.31120    1.000
    C74      C        0.32180    0.46240    0.73900    1.000
    C75      C        0.54500    0.64170    0.32940    1.000
    C76      C        0.45250    0.28570    0.73150    1.000
    C77      C        0.50120    0.24230    0.70520    1.000
    C78      C        0.55500    0.27630    0.61590    1.000
    C79      C        0.55790    0.35120    0.55640    1.000
    C80      C        0.25590    0.47950    0.79960    1.000
    C81      C        0.22520    0.43870    0.88840    1.000
    C82      C        0.15660    0.44960    0.94250    1.000
    C83      C        0.84950    0.45710    0.17270    1.000
    C84      C        0.78010    0.46520    0.23120    1.000
    C85      C        0.00290    0.09650    0.59230    1.000
    C86      C        0.85940    0.79860    0.46240    1.000
    C87      C        0.90330    0.02890    0.64170    1.000
    C88      C        0.16680    0.98280    0.28570    1.000
    C89      C        0.25890    0.05250    0.24230    1.000
    C90      C        0.27870    0.10780    0.27630    1.000
    C91      C        0.20670    0.09240    0.35120    1.000
    C92      C        0.77640    0.72090    0.47950    1.000
    C93      C        0.78650    0.67290    0.43870    1.000
    C94      C        0.70700    0.60790    0.44960    1.000
    C95      C        0.39240    0.37020    0.45710    1.000
    C96      C        0.31490    0.30360    0.46520    1.000
    C97      C        0.90640    0.31120    0.09650    1.000
    C98      C        0.06080    0.73900    0.79860    1.000
    C99      C        0.87440    0.32940    0.02890    1.000
    C100     C        0.18400    0.73150    0.98280    1.000
    C101     C        0.20640    0.70520    0.05250    1.000
    C102     C        0.17090    0.61590    0.10780    1.000
    C103     C        0.11430    0.55640    0.09240    1.000
    C104     C        0.05550    0.79960    0.72090    1.000
    C105     C        0.11360    0.88840    0.67290    1.000
    C106     C        0.09910    0.94250    0.60790    1.000
    C107     C        0.02220    0.17270    0.37020    1.000
    C108     C        0.01130    0.23120    0.30360    1.000
    C109     C        0.40480    0.40770    0.68880    1.000
    C110     C        0.67820    0.53760    0.26100    1.000
    C111     C        0.45500    0.35830    0.67060    1.000
    C112     C        0.54750    0.71430    0.26850    1.000
    C113     C        0.49880    0.75770    0.29480    1.000
    C114     C        0.44500    0.72370    0.38410    1.000
    C115     C        0.44210    0.64880    0.44360    1.000
    C116     C        0.74410    0.52050    0.20040    1.000
    C117     C        0.77480    0.56130    0.11160    1.000
    C118     C        0.84340    0.55040    0.05750    1.000
    C119     C        0.15050    0.54290    0.82730    1.000
    C120     C        0.21990    0.53480    0.76880    1.000
    C121     C        0.99710    0.90350    0.40770    1.000
    C122     C        0.14060    0.20140    0.53760    1.000
    C123     C        0.09670    0.97110    0.35830    1.000
    C124     C        0.83320    0.01720    0.71430    1.000
    C125     C        0.74110    0.94750    0.75770    1.000
    C126     C        0.72130    0.89220    0.72370    1.000
    C127     C        0.79330    0.90760    0.64880    1.000
    C128     C        0.22360    0.27910    0.52050    1.000
    C129     C        0.21350    0.32710    0.56130    1.000
    C130     C        0.29300    0.39210    0.55040    1.000
    C131     C        0.60760    0.62980    0.54290    1.000
    C132     C        0.68510    0.69640    0.53480    1.000
    C133     C        0.09360    0.68880    0.90350    1.000
    C134     C        0.93920    0.26100    0.20140    1.000
    C135     C        0.12560    0.67060    0.97110    1.000
    C136     C        0.81600    0.26850    0.01720    1.000
    C137     C        0.79360    0.29480    0.94750    1.000
    C138     C        0.82910    0.38410    0.89220    1.000
    C139     C        0.88570    0.44360    0.90760    1.000
    C140     C        0.94450    0.20040    0.27910    1.000
    C141     C        0.88640    0.11160    0.32710    1.000
    C142     C        0.90090    0.05750    0.39210    1.000
    C143     C        0.97780    0.82730    0.62980    1.000
    C144     C        0.98870    0.76880    0.69640    1.000
    N31      N        0.41433    0.47733    0.61704    1.000
    N32      N        0.35979    0.51137    0.65150    1.000
    N33      N        0.65300    0.60333    0.23343    1.000
    N34      N        0.49235    0.60780    0.41835    1.000
    N35      N        0.11643    0.49996    0.91537    1.000
    N36      N        0.93700    0.90563    0.47733    1.000
    N37      N        0.84842    0.83713    0.51137    1.000
    N38      N        0.04967    0.16324    0.60333    1.000
    N39      N        0.88455    0.97385    0.60780    1.000
    N40      N        0.61647    0.58467    0.49996    1.000
    N41      N        0.03137    0.61704    0.90563    1.000
    N42      N        0.01129    0.65150    0.83713    1.000
    N43      N        0.88643    0.23343    0.16324    1.000
    N44      N        0.91070    0.41835    0.97385    1.000
    N45      N        0.03180    0.91537    0.58467    1.000
    N46      N        0.58567    0.52267    0.38296    1.000
    N47      N        0.64021    0.48863    0.34850    1.000
    N48      N        0.34700    0.39667    0.76657    1.000
    N49      N        0.50765    0.39220    0.58165    1.000
    N50      N        0.88357    0.50004    0.08463    1.000
    N51      N        0.06300    0.09437    0.52267    1.000
    N52      N        0.15158    0.16287    0.48863    1.000
    N53      N        0.95033    0.83676    0.39667    1.000
    N54      N        0.11545    0.02615    0.39220    1.000
    N55      N        0.38353    0.41533    0.50004    1.000
    N56      N        0.96863    0.38296    0.09437    1.000
    N57      N        0.98871    0.34850    0.16287    1.000
    N58      N        0.11357    0.76657    0.83676    1.000
    N59      N        0.08930    0.58165    0.02615    1.000
    N60      N        0.96820    0.08463    0.41533    1.000
