data_functionalizedCrystal
_audit_creation_method	'EQeq! by Chris Wilmer'
_symmetry_space_group_name_H-M	'P1'
_symmetry_Int_Tables_number	1
_symmetry_cell_setting	triclinic
loop_
_symmetry_equiv_pos_as_xyz
  x,y,z
_cell_length_a	7.2459
_cell_length_b	19.2242
_cell_length_c	25.807
_cell_angle_alpha	90
_cell_angle_beta	90
_cell_angle_gamma	90
loop_
_atom_site_label
_atom_site_type_symbol
_atom_site_fract_x
_atom_site_fract_y
_atom_site_fract_z
_atom_site_charge
Mof_Ba	Ba	0.18198	0.3114	0.89257	1.803
Mof_O 	O 	0.6209	0.7712	0.4608	-0.519
Mof_O 	O 	0.5138	0.8755	0.4742	-0.387
Mof_O 	O 	0.1096	0.4516	0.8761	-0.424
Mof_O 	O 	0.9711	0.5038	0.9401	-0.268
Mof_O 	O 	0.0584	0.1771	0.8798	-0.614
Mof_O 	O 	0.3257	0.1859	0.8416	-0.565
Mof_C 	C 	0.1888	0.1542	0.8552	0.495
Mof_C 	C 	0.159	0.0807	0.8316	-0.268
Mof_C 	C 	0.2232	0.0632	0.7858	0.162
Mof_H 	H 	0.2969	0.0943	0.7676	-0.044
Mof_C 	C 	0.182	0.9979	0.7639	-0.222
Mof_H 	H 	0.2216	0.9868	0.7307	0.101
Mof_C 	C 	0.0824	0.9514	0.7923	0.127
Mof_C 	C 	0.0269	0.9666	0.842	-0.216
Mof_H 	H 	0.9689	0.9334	0.8625	0.108
Mof_C 	C 	0.0597	0.0327	0.8604	0.158
Mof_H 	H 	0.0143	0.0453	0.8927	-0.047
Mof_C 	C 	0.0279	0.8814	0.7704	-0.004
Mof_C 	C 	0.6054	0.8236	0.489	0.394
Mof_C 	C 	0.6832	0.8213	0.5426	-0.183
Mof_C 	C 	0.6687	0.878	0.5764	0.092
Mof_H 	H 	0.6091	0.9181	0.5652	0.009
Mof_C 	C 	0.738	0.8761	0.6242	-0.169
Mof_H 	H 	0.7242	0.9149	0.6454	0.081
Mof_C 	C 	0.7736	0.7626	0.5608	0.103
Mof_H 	H 	0.7883	0.7242	0.5393	-0.02
Mof_C 	C 	0.8414	0.761	0.6103	-0.164
Mof_H 	H 	0.8971	0.7206	0.6225	0.089
Mof_C 	C 	0.0365	0.5043	0.8951	0.39
Mof_C 	C 	0.0241	0.5699	0.8669	-0.182
Mof_C 	C 	0.0616	0.5722	0.8133	0.1
Mof_H 	H 	0.0976	0.5315	0.7966	-0.004
Mof_C 	C 	0.047	0.6316	0.7849	-0.169
Mof_H 	H 	0.0723	0.6308	0.7496	0.09
Mof_C 	C 	0.9954	0.6923	0.8082	0.096
Mof_C 	C 	0.961	0.6906	0.8612	-0.172
Mof_H 	H 	0.9292	0.7318	0.8779	0.087
Mof_C 	C 	0.9711	0.6313	0.8892	0.106
Mof_H 	H 	0.9417	0.6322	0.9243	0.003
Mof_C 	C 	0.976	0.7584	0.777	0.007
Mof_C 	C 	0.9139	0.7577	0.7257	-0.078
Mof_H 	H 	0.8774	0.7157	0.7111	0.058
Mof_C 	C 	0.9052	0.8168	0.6966	0.007
Mof_C 	C 	0.9677	0.8788	0.7175	-0.08
Mof_H 	H 	0.9705	0.9187	0.6973	0.051
Mof_C 	C 	0.0281	0.8213	0.7988	-0.07
Mof_H 	H 	0.0639	0.8227	0.8334	0.055
Mof_C 	C 	0.8283	0.8195	0.6434	0.083
Mof_Ba	Ba	0.81802	0.6886	0.39257	1.804
Mof_O 	O 	0.3791	0.2288	0.9608	-0.519
Mof_O 	O 	0.4862	0.1245	0.9742	-0.388
Mof_O 	O 	0.8904	0.5484	0.3761	-0.425
Mof_O 	O 	0.0289	0.4962	0.4401	-0.268
Mof_O 	O 	0.9416	0.8229	0.3798	-0.614
Mof_O 	O 	0.6743	0.8141	0.3416	-0.565
Mof_C 	C 	0.8112	0.8458	0.3552	0.495
Mof_C 	C 	0.841	0.9193	0.3316	-0.268
Mof_C 	C 	0.7768	0.9368	0.2858	0.163
Mof_H 	H 	0.7031	0.9057	0.2676	-0.044
Mof_C 	C 	0.818	0.0021	0.2639	-0.222
Mof_H 	H 	0.7784	0.0132	0.2307	0.101
Mof_C 	C 	0.9176	0.0486	0.2923	0.127
Mof_C 	C 	0.9731	0.0334	0.342	-0.216
Mof_H 	H 	0.0311	0.0666	0.3625	0.109
Mof_C 	C 	0.9403	0.9673	0.3604	0.158
Mof_H 	H 	0.9857	0.9547	0.3927	-0.046
Mof_C 	C 	0.9721	0.1186	0.2704	-0.003
Mof_C 	C 	0.3946	0.1764	0.989	0.386
Mof_C 	C 	0.3168	0.1787	0.0426	-0.173
Mof_C 	C 	0.3313	0.122	0.0764	0.085
Mof_H 	H 	0.3909	0.0819	0.0652	0.013
Mof_C 	C 	0.262	0.1239	0.1242	-0.163
Mof_H 	H 	0.2758	0.0851	0.1454	0.079
Mof_C 	C 	0.2264	0.2374	0.0608	0.096
Mof_H 	H 	0.2117	0.2758	0.0393	-0.015
Mof_C 	C 	0.1586	0.239	0.1103	-0.158
Mof_H 	H 	0.1029	0.2794	0.1225	0.087
Mof_C 	C 	0.9635	0.4957	0.3951	0.39
Mof_C 	C 	0.9759	0.4301	0.3669	-0.181
Mof_C 	C 	0.9384	0.4278	0.3133	0.1
Mof_H 	H 	0.9024	0.4685	0.2966	-0.004
Mof_C 	C 	0.953	0.3684	0.2849	-0.168
Mof_H 	H 	0.9277	0.3692	0.2496	0.09
Mof_C 	C 	0.0046	0.3077	0.3082	0.095
Mof_C 	C 	0.039	0.3094	0.3612	-0.171
Mof_H 	H 	0.0708	0.2682	0.3779	0.087
Mof_C 	C 	0.0289	0.3687	0.3892	0.106
Mof_H 	H 	0.0583	0.3678	0.4243	0.004
Mof_C 	C 	0.024	0.2416	0.277	0.008
Mof_C 	C 	0.0861	0.2423	0.2257	-0.079
Mof_H 	H 	0.1226	0.2843	0.2111	0.059
Mof_C 	C 	0.0948	0.1832	0.1966	0.01
Mof_C 	C 	0.0323	0.1212	0.2175	-0.081
Mof_H 	H 	0.0295	0.0813	0.1973	0.052
Mof_C 	C 	0.9719	0.1787	0.2988	-0.071
Mof_H 	H 	0.9361	0.1773	0.3334	0.056
Mof_C 	C 	0.1717	0.1805	0.1434	0.079
Mof_Ba	Ba	0.68198	0.1886	0.89257	1.809
Mof_O 	O 	0.1209	0.7288	0.4608	-0.518
Mof_O 	O 	0.0138	0.6245	0.4742	-0.386
Mof_O 	O 	0.6096	0.0484	0.8761	-0.425
Mof_O 	O 	0.4711	0.9962	0.9401	-0.271
Mof_O 	O 	0.5584	0.3229	0.8798	-0.613
Mof_O 	O 	0.8257	0.3141	0.8416	-0.564
Mof_C 	C 	0.6888	0.3458	0.8552	0.495
Mof_C 	C 	0.659	0.4193	0.8316	-0.269
Mof_C 	C 	0.7232	0.4368	0.7858	0.164
Mof_H 	H 	0.7969	0.4057	0.7676	-0.045
Mof_C 	C 	0.682	0.5021	0.7639	-0.224
Mof_H 	H 	0.7216	0.5132	0.7307	0.101
Mof_C 	C 	0.5824	0.5486	0.7923	0.128
Mof_C 	C 	0.5269	0.5334	0.842	-0.217
Mof_H 	H 	0.4689	0.5666	0.8625	0.109
Mof_C 	C 	0.5597	0.4673	0.8604	0.16
Mof_H 	H 	0.5143	0.4547	0.8927	-0.047
Mof_C 	C 	0.5279	0.6186	0.7704	-0.005
Mof_C 	C 	0.1054	0.6764	0.489	0.394
Mof_C 	C 	0.1832	0.6787	0.5426	-0.183
Mof_C 	C 	0.1687	0.622	0.5764	0.092
Mof_H 	H 	0.1091	0.5819	0.5652	0.01
Mof_C 	C 	0.238	0.6239	0.6242	-0.168
Mof_H 	H 	0.2242	0.5851	0.6454	0.081
Mof_C 	C 	0.2736	0.7374	0.5608	0.103
Mof_H 	H 	0.2883	0.7758	0.5393	-0.019
Mof_C 	C 	0.3414	0.739	0.6103	-0.163
Mof_H 	H 	0.3971	0.7794	0.6225	0.09
Mof_C 	C 	0.5365	0.9957	0.8951	0.393
Mof_C 	C 	0.5241	0.9301	0.8669	-0.179
Mof_C 	C 	0.5616	0.9278	0.8133	0.098
Mof_H 	H 	0.5976	0.9685	0.7966	-0.003
Mof_C 	C 	0.547	0.8684	0.7849	-0.166
Mof_H 	H 	0.5723	0.8692	0.7496	0.089
Mof_C 	C 	0.4954	0.8077	0.8082	0.093
Mof_C 	C 	0.461	0.8094	0.8612	-0.169
Mof_H 	H 	0.4292	0.7682	0.8779	0.086
Mof_C 	C 	0.4711	0.8687	0.8892	0.101
Mof_H 	H 	0.4417	0.8678	0.9243	0.004
Mof_C 	C 	0.476	0.7416	0.777	0.009
Mof_C 	C 	0.4139	0.7423	0.7257	-0.078
Mof_H 	H 	0.3774	0.7843	0.7111	0.059
Mof_C 	C 	0.4052	0.6832	0.6966	0.008
Mof_C 	C 	0.4677	0.6212	0.7175	-0.079
Mof_H 	H 	0.4705	0.5813	0.6973	0.051
Mof_C 	C 	0.5281	0.6787	0.7988	-0.071
Mof_H 	H 	0.5639	0.6773	0.8334	0.056
Mof_C 	C 	0.3283	0.6805	0.6434	0.083
Mof_Ba	Ba	0.31802	0.8114	0.39257	1.811
Mof_O 	O 	0.8791	0.2712	0.9608	-0.518
Mof_O 	O 	0.9862	0.3755	0.9742	-0.386
Mof_O 	O 	0.3904	0.9516	0.3761	-0.424
Mof_O 	O 	0.5289	0.0038	0.4401	-0.27
Mof_O 	O 	0.4416	0.6771	0.3798	-0.613
Mof_O 	O 	0.1743	0.6859	0.3416	-0.564
Mof_C 	C 	0.3112	0.6542	0.3552	0.495
Mof_C 	C 	0.341	0.5807	0.3316	-0.268
Mof_C 	C 	0.2768	0.5632	0.2858	0.164
Mof_H 	H 	0.2031	0.5943	0.2676	-0.044
Mof_C 	C 	0.318	0.4979	0.2639	-0.223
Mof_H 	H 	0.2784	0.4868	0.2307	0.101
Mof_C 	C 	0.4176	0.4514	0.2923	0.128
Mof_C 	C 	0.4731	0.4666	0.342	-0.217
Mof_H 	H 	0.5311	0.4334	0.3625	0.109
Mof_C 	C 	0.4403	0.5327	0.3604	0.159
Mof_H 	H 	0.4857	0.5453	0.3927	-0.046
Mof_C 	C 	0.4721	0.3814	0.2704	-0.004
Mof_C 	C 	0.8946	0.3236	0.989	0.386
Mof_C 	C 	0.8168	0.3213	0.0426	-0.173
Mof_C 	C 	0.8313	0.378	0.0764	0.085
Mof_H 	H 	0.8909	0.4181	0.0652	0.014
Mof_C 	C 	0.762	0.3761	0.1242	-0.162
Mof_H 	H 	0.7758	0.4149	0.1454	0.08
Mof_C 	C 	0.7264	0.2626	0.0608	0.096
Mof_H 	H 	0.7117	0.2242	0.0393	-0.015
Mof_C 	C 	0.6586	0.261	0.1103	-0.158
Mof_H 	H 	0.6029	0.2206	0.1225	0.088
Mof_C 	C 	0.4635	0.0043	0.3951	0.392
Mof_C 	C 	0.4759	0.0699	0.3669	-0.178
Mof_C 	C 	0.4384	0.0722	0.3133	0.097
Mof_H 	H 	0.4024	0.0315	0.2966	-0.003
Mof_C 	C 	0.453	0.1316	0.2849	-0.165
Mof_H 	H 	0.4277	0.1308	0.2496	0.088
Mof_C 	C 	0.5046	0.1923	0.3082	0.092
Mof_C 	C 	0.539	0.1906	0.3612	-0.168
Mof_H 	H 	0.5708	0.2318	0.3779	0.086
Mof_C 	C 	0.5289	0.1313	0.3892	0.101
Mof_H 	H 	0.5583	0.1322	0.4243	0.005
Mof_C 	C 	0.524	0.2584	0.277	0.01
Mof_C 	C 	0.5861	0.2577	0.2257	-0.08
Mof_H 	H 	0.6226	0.2157	0.2111	0.06
Mof_C 	C 	0.5948	0.3168	0.1966	0.01
Mof_C 	C 	0.5323	0.3788	0.2175	-0.08
Mof_H 	H 	0.5295	0.4187	0.1973	0.052
Mof_C 	C 	0.4719	0.3213	0.2988	-0.072
Mof_H 	H 	0.4361	0.3227	0.3334	0.056
Mof_C 	C 	0.6717	0.3195	0.1434	0.079
_end
