# CIF file generated by openbabel 3.1.0, see https://openbabel.org
data_I
_chemical_name_common 'image0'
_cell_length_a 15.1085
_cell_length_b 8.8403
_cell_length_c 17.2628
_cell_angle_alpha 90
_cell_angle_beta 114.537
_cell_angle_gamma 90
_space_group_name_H-M_alt 'P 1'
_space_group_name_Hall 'P 1'
loop_
    _symmetry_equiv_pos_as_xyz
    x,y,z
loop_
    _atom_site_label
    _atom_site_type_symbol
    _atom_site_fract_x
    _atom_site_fract_y
    _atom_site_fract_z
    _atom_site_occupancy
    Zn1      Zn       0.19028    0.11151    0.54451    1.000
    Zn2      Zn       0.01457    0.91976    0.77667    1.000
    Zn3      Zn       0.28325    0.15857    0.81074    1.000
    P1       P        0.28723    0.38070    0.66538    1.000
    P2       P        0.01660    0.31890    0.41565    1.000
    P3       P        0.15288    0.86670    0.41213    1.000
    P4       P        0.17099    0.88630    0.69112    1.000
    O1       O        0.28850    0.25240    0.60610    1.000
    O2       O        0.06250    0.21300    0.49020    1.000
    O3       O        0.21360    0.00440    0.45490    1.000
    O4       O        0.16100    0.94270    0.60380    1.000
    O5       O        0.07910    0.93520    0.70100    1.000
    O6       O        0.04810    0.90840    0.35430    1.000
    O7       O        0.38170    0.46660    0.69960    1.000
    O8       O        0.02570    0.27150    0.33490    1.000
    O9       O        0.26060    0.95910    0.76240    1.000
    O10      O        0.91200    0.34960    0.40050    1.000
    O11      O        0.25880    0.32710    0.73470    1.000
    O12      O        0.19770    0.77420    0.36290    1.000
    O13      O        0.20670    0.49570    0.60720    1.000
    H1       H        0.20440    0.56830    0.63590    1.000
    O14      O        0.07370    0.47410    0.43880    1.000
    H2       H        0.04960    0.53310    0.39880    1.000
    O15      O        0.14850    0.75980    0.48390    1.000
    H3       H        0.11590    0.68470    0.46190    1.000
    O16      O        0.18420    0.71670    0.69590    1.000
    Zn4      Zn       0.69028    0.61151    0.54451    1.000
    Zn5      Zn       0.51457    0.41976    0.77667    1.000
    Zn6      Zn       0.78325    0.65857    0.81074    1.000
    P5       P        0.78723    0.88070    0.66538    1.000
    P6       P        0.51660    0.81890    0.41565    1.000
    P7       P        0.65288    0.36670    0.41213    1.000
    P8       P        0.67099    0.38630    0.69112    1.000
    O17      O        0.78850    0.75240    0.60610    1.000
    O18      O        0.56250    0.71300    0.49020    1.000
    O19      O        0.71360    0.50440    0.45490    1.000
    O20      O        0.66100    0.44270    0.60380    1.000
    O21      O        0.57910    0.43520    0.70100    1.000
    O22      O        0.54810    0.40840    0.35430    1.000
    O23      O        0.88170    0.96660    0.69960    1.000
    O24      O        0.52570    0.77150    0.33490    1.000
    O25      O        0.76060    0.45910    0.76240    1.000
    O26      O        0.41200    0.84960    0.40050    1.000
    O27      O        0.75880    0.82710    0.73470    1.000
    O28      O        0.69770    0.27420    0.36290    1.000
    O29      O        0.70670    0.99570    0.60720    1.000
    H4       H        0.70440    0.06830    0.63590    1.000
    O30      O        0.57370    0.97410    0.43880    1.000
    H5       H        0.54960    0.03310    0.39880    1.000
    O31      O        0.64850    0.25980    0.48390    1.000
    H6       H        0.61590    0.18470    0.46190    1.000
    O32      O        0.68420    0.21670    0.69590    1.000
    Zn7      Zn       0.19028    0.88849    0.04451    1.000
    Zn8      Zn       0.01457    0.08024    0.27667    1.000
    Zn9      Zn       0.28325    0.84143    0.31074    1.000
    P9       P        0.28723    0.61930    0.16538    1.000
    P10      P        0.01660    0.68110    0.91565    1.000
    P11      P        0.15288    0.13330    0.91213    1.000
    P12      P        0.17099    0.11370    0.19112    1.000
    O33      O        0.28850    0.74760    0.10610    1.000
    O34      O        0.06250    0.78700    0.99020    1.000
    O35      O        0.21360    0.99560    0.95490    1.000
    O36      O        0.16100    0.05730    0.10380    1.000
    O37      O        0.07910    0.06480    0.20100    1.000
    O38      O        0.04810    0.09160    0.85430    1.000
    O39      O        0.38170    0.53340    0.19960    1.000
    O40      O        0.02570    0.72850    0.83490    1.000
    O41      O        0.26060    0.04090    0.26240    1.000
    O42      O        0.91200    0.65040    0.90050    1.000
    O43      O        0.25880    0.67290    0.23470    1.000
    O44      O        0.19770    0.22580    0.86290    1.000
    O45      O        0.20670    0.50430    0.10720    1.000
    H7       H        0.20440    0.43170    0.13590    1.000
    O46      O        0.07370    0.52590    0.93880    1.000
    H8       H        0.04960    0.46690    0.89880    1.000
    O47      O        0.14850    0.24020    0.98390    1.000
    H9       H        0.11590    0.31530    0.96190    1.000
    O48      O        0.18420    0.28330    0.19590    1.000
    Zn10     Zn       0.69028    0.38849    0.04451    1.000
    Zn11     Zn       0.51457    0.58024    0.27667    1.000
    Zn12     Zn       0.78325    0.34143    0.31074    1.000
    P13      P        0.78723    0.11930    0.16538    1.000
    P14      P        0.51660    0.18110    0.91565    1.000
    P15      P        0.65288    0.63330    0.91213    1.000
    P16      P        0.67099    0.61370    0.19112    1.000
    O49      O        0.78850    0.24760    0.10610    1.000
    O50      O        0.56250    0.28700    0.99020    1.000
    O51      O        0.71360    0.49560    0.95490    1.000
    O52      O        0.66100    0.55730    0.10380    1.000
    O53      O        0.57910    0.56480    0.20100    1.000
    O54      O        0.54810    0.59160    0.85430    1.000
    O55      O        0.88170    0.03340    0.19960    1.000
    O56      O        0.52570    0.22850    0.83490    1.000
    O57      O        0.76060    0.54090    0.26240    1.000
    O58      O        0.41200    0.15040    0.90050    1.000
    O59      O        0.75880    0.17290    0.23470    1.000
    O60      O        0.69770    0.72580    0.86290    1.000
    O61      O        0.70670    0.00430    0.10720    1.000
    H10      H        0.70440    0.93170    0.13590    1.000
    O62      O        0.57370    0.02590    0.93880    1.000
    H11      H        0.54960    0.96690    0.89880    1.000
    O63      O        0.64850    0.74020    0.98390    1.000
    H12      H        0.61590    0.81530    0.96190    1.000
    O64      O        0.68420    0.78330    0.19590    1.000
