data_functionalizedCrystal
_audit_creation_method	'EQeq! by Chris Wilmer'
_symmetry_space_group_name_H-M	'P1'
_symmetry_Int_Tables_number	1
_symmetry_cell_setting	triclinic
loop_
_symmetry_equiv_pos_as_xyz
  x,y,z
_cell_length_a	13.959
_cell_length_b	23.4531
_cell_length_c	25.5819
_cell_angle_alpha	64.3706
_cell_angle_beta	74.1673
_cell_angle_gamma	72.6868
loop_
_atom_site_label
_atom_site_type_symbol
_atom_site_fract_x
_atom_site_fract_y
_atom_site_fract_z
_atom_site_charge
Mof_Co	Co	0.62296	0.49518	0.75854	1.2
Mof_Co	Co	0.54977	0.59911	0.83473	1.169
Mof_Co	Co	0.68439	0.3986	0.69048	1.163
Mof_Co	Co	0.12332	0.99518	0.25854	1.2
Mof_Co	Co	0.01639	0.09911	0.33473	1.168
Mof_Co	Co	0.22653	0.8986	0.19048	1.163
Mof_H 	H 	0.8563	0.465	0.7856	0.018
Mof_H 	H 	0.03	0.4289	0.7763	0.079
Mof_H 	H 	0.0561	0.585	0.7908	0.075
Mof_H 	H 	0.8821	0.6207	0.8003	0.016
Mof_H 	H 	0.2132	0.5672	0.7462	0.06
Mof_H 	H 	0.3893	0.5292	0.7294	0.036
Mof_H 	H 	0.3498	0.3487	0.7911	0.033
Mof_H 	H 	0.1746	0.3882	0.8022	0.062
Mof_H 	H 	0.4262	0.7622	0.6938	0.017
Mof_H 	H 	0.3523	0.8405	0.6141	0.084
Mof_H 	H 	0.3808	0.7097	0.5509	0.081
Mof_H 	H 	0.4605	0.6307	0.6275	0.02
Mof_H 	H 	0.22	0.892	0.565	0.073
Mof_H 	H 	0.1396	0.9688	0.4864	0.018
Mof_H 	H 	0.3115	0.8743	0.3835	0.027
Mof_H 	H 	0.3898	0.7954	0.4626	0.071
Mof_H 	H 	0.519	0.7338	0.8492	-0.014
Mof_H 	H 	0.392	0.7378	0.0238	0.146
Mof_H 	H 	0.2866	0.9113	0.0567	-0.009
Mof_H 	H 	0.3911	0.7672	0.1928	0.041
Mof_H 	H 	0.4591	0.7357	0.1079	0.033
Mof_H 	H 	0.3856	0.9271	0.9633	0.123
Mof_H 	H 	0.4182	0.929	0.8664	-0.026
Mof_H 	H 	0.4174	0.8412	0.8512	0.127
Mof_H 	H 	0.3287	0.6683	0.9963	0.026
Mof_H 	H 	0.3844	0.5895	0.9519	0.032
Mof_H 	H 	0.841	0.2295	0.8179	0.028
Mof_H 	H 	0.9034	0.1485	0.8989	0.069
Mof_H 	H 	0.8589	0.2759	0.9719	0.066
Mof_H 	H 	0.7877	0.3589	0.8911	0.03
Mof_H 	H 	0.027	0.0983	0.9535	0.083
Mof_H 	H 	0.8486	0.1883	0.0573	0.082
Mof_H 	H 	0.0933	0.0165	0.0341	0.012
Mof_H 	H 	0.9365	0.1137	0.1327	0.017
Mof_H 	H 	0.8931	0.965	0.2856	0.017
Mof_H 	H 	0.7648	0.9289	0.2763	0.082
Mof_H 	H 	0.5681	0.085	0.2908	0.078
Mof_H 	H 	0.6969	0.1207	0.3003	0.016
Mof_H 	H 	0.4734	0.0672	0.2462	0.06
Mof_H 	H 	0.3521	0.0292	0.2294	0.038
Mof_H 	H 	0.5104	0.8487	0.2911	0.034
Mof_H 	H 	0.635	0.8882	0.3022	0.062
Mof_H 	H 	0.1178	0.2622	0.1938	0.016
Mof_H 	H 	0.1931	0.3405	0.1141	0.084
Mof_H 	H 	0.3586	0.2097	0.0509	0.081
Mof_H 	H 	0.2813	0.1307	0.1275	0.02
Mof_H 	H 	0.323	0.392	0.065	0.073
Mof_H 	H 	0.4052	0.4688	0.9864	0.018
Mof_H 	H 	0.4307	0.3743	0.8835	0.027
Mof_H 	H 	0.3522	0.2954	0.9626	0.071
Mof_H 	H 	0.898	0.2338	0.3492	-0.014
Mof_H 	H 	0.8464	0.2378	0.5238	0.15
Mof_H 	H 	0.7454	0.4113	0.5567	-0.009
Mof_H 	H 	0.6489	0.2672	0.6928	0.041
Mof_H 	H 	0.6973	0.2357	0.6079	0.032
Mof_H 	H 	0.724	0.4271	0.4633	0.124
Mof_H 	H 	0.7864	0.429	0.3664	-0.028
Mof_H 	H 	0.8902	0.3412	0.3512	0.129
Mof_H 	H 	0.0067	0.1683	0.4963	0.024
Mof_H 	H 	0.0742	0.0895	0.4519	0.033
Mof_H 	H 	0.1116	0.7295	0.3179	0.029
Mof_H 	H 	0.0492	0.6485	0.3989	0.068
Mof_H 	H 	0.8933	0.7759	0.4719	0.066
Mof_H 	H 	0.9623	0.8589	0.3911	0.031
Mof_H 	H 	0.9212	0.5983	0.4535	0.084
Mof_H 	H 	0.9058	0.6883	0.5573	0.083
Mof_H 	H 	0.8561	0.5165	0.5341	0.011
Mof_H 	H 	0.8171	0.6137	0.6327	0.017
Mof_C 	C 	0.73757	0.56346	0.807	0.372
Mof_C 	C 	0.85062	0.54316	0.7962	-0.149
Mof_C 	C 	0.896	0.4895	0.7875	0.078
Mof_C 	C 	0.0006	0.4677	0.7811	-0.138
Mof_C 	C 	0.0615	0.5053	0.7817	0.07
Mof_C 	C 	0.0163	0.5602	0.7896	-0.139
Mof_C 	C 	0.91178	0.58154	0.7961	0.065
Mof_C 	C 	0.17442	0.48036	0.7746	0.029
Mof_C 	C 	0.2397	0.5235	0.7537	-0.094
Mof_C 	C 	0.3464	0.5001	0.7443	0.03
Mof_C 	C 	0.38749	0.43642	0.7564	-0.114
Mof_C 	C 	0.49772	0.41406	0.7419	0.341
Mof_C 	C 	0.3236	0.3928	0.7802	0.03
Mof_C 	C 	0.2173	0.4175	0.7875	-0.096
Mof_C 	C 	0.4999	0.6365	0.7195	0.415
Mof_C 	C 	0.45116	0.68908	0.6684	-0.15
Mof_C 	C 	0.4187	0.751	0.6646	0.075
Mof_C 	C 	0.3739	0.7981	0.6165	-0.138
Mof_C 	C 	0.3611	0.7834	0.573	0.069
Mof_C 	C 	0.3915	0.7211	0.5791	-0.137
Mof_C 	C 	0.4383	0.673	0.6256	0.07
Mof_C 	C 	0.3109	0.8356	0.5224	0.044
Mof_C 	C 	0.2377	0.8877	0.5289	-0.118
Mof_C 	C 	0.1899	0.9341	0.4817	0.056
Mof_C 	C 	0.21829	0.92802	0.4276	-0.142
Mof_C 	C 	0.16579	0.97702	0.3768	0.428
Mof_C 	C 	0.2923	0.8775	0.4201	0.054
Mof_C 	C 	0.3399	0.83	0.4676	-0.114
Mof_C 	C 	0.47886	0.70748	0.8804	0.108
Mof_C 	C 	0.41293	0.77924	0.9363	0.235
Mof_C 	C 	0.39823	0.77664	0.9921	-0.303
Mof_C 	C 	0.3929	0.829	0.0016	0.225
Mof_C 	C 	0.32058	0.87174	0.0805	0.101
Mof_C 	C 	0.3782	0.7928	0.1548	0.001
Mof_C 	C 	0.4161	0.7746	0.1082	0.012
Mof_C 	C 	0.3943	0.8901	0.9563	-0.252
Mof_C 	C 	0.4102	0.8908	0.8986	0.172
Mof_C 	C 	0.414	0.8383	0.8891	-0.271
Mof_C 	C 	0.374	0.672	0.9614	0.015
Mof_C 	C 	0.4049	0.6287	0.9367	-0.008
Mof_C 	C 	0.75646	0.35458	0.7953	0.397
Mof_C 	C 	0.80539	0.30052	0.8465	-0.119
Mof_C 	C 	0.8423	0.2391	0.8493	0.05
Mof_C 	C 	0.8816	0.1907	0.8971	-0.113
Mof_C 	C 	0.8885	0.2057	0.9431	0.039
Mof_C 	C 	0.8542	0.2666	0.941	-0.105
Mof_C 	C 	0.81122	0.31686	0.8925	0.03
Mof_C 	C 	0.9327	0.1518	0.9954	0.071
Mof_C 	C 	0.005	0.1015	0.9901	-0.149
Mof_C 	C 	0.9019	0.1556	0.051	-0.139
Mof_C 	C 	0.0772	0.0101	0.1415	0.438
Mof_C 	C 	0.0265	0.0587	0.0905	-0.174
Mof_C 	C 	0.0483	0.0533	0.0383	0.091
Mof_C 	C 	0.9534	0.1094	0.0966	0.088
Mof_C 	C 	0.89197	0.06346	0.307	0.373
Mof_C 	C 	0.81002	0.04316	0.2962	-0.151
Mof_C 	C 	0.827	0.9895	0.2875	0.081
Mof_C 	C 	0.7506	0.9677	0.2811	-0.144
Mof_C 	C 	0.6515	0.0053	0.2817	0.076
Mof_C 	C 	0.6339	0.0602	0.2896	-0.145
Mof_C 	C 	0.71058	0.08154	0.2961	0.069
Mof_C 	C 	0.57062	0.98036	0.2746	0.024
Mof_C 	C 	0.4831	0.0235	0.2537	-0.09
Mof_C 	C 	0.4092	0.0001	0.2443	0.029
Mof_C 	C 	0.41969	0.93642	0.2564	-0.113
Mof_C 	C 	0.34632	0.91406	0.2419	0.341
Mof_C 	C 	0.5034	0.8928	0.2802	0.028
Mof_C 	C 	0.5777	0.9175	0.2875	-0.093
Mof_C 	C 	0.1441	0.1365	0.2195	0.414
Mof_C 	C 	0.19136	0.18908	0.1684	-0.15
Mof_C 	C 	0.1657	0.251	0.1646	0.075
Mof_C 	C 	0.2115	0.2981	0.1165	-0.138
Mof_C 	C 	0.2825	0.2834	0.073	0.069
Mof_C 	C 	0.3083	0.2211	0.0791	-0.137
Mof_C 	C 	0.2631	0.173	0.1256	0.07
Mof_C 	C 	0.3311	0.3356	0.0224	0.044
Mof_C 	C 	0.3457	0.3877	0.0289	-0.118
Mof_C 	C 	0.3943	0.4341	0.9817	0.056
Mof_C 	C 	0.42609	0.42802	0.9276	-0.142
Mof_C 	C 	0.48039	0.47702	0.8768	0.428
Mof_C 	C 	0.4101	0.3775	0.9201	0.054
Mof_C 	C 	0.3625	0.33	0.9676	-0.115
Mof_C 	C 	0.93326	0.20748	0.3804	0.108
Mof_C 	C 	0.87153	0.27924	0.4363	0.24
Mof_C 	C 	0.83303	0.27664	0.4921	-0.311
Mof_C 	C 	0.7765	0.329	0.5016	0.232
Mof_C 	C 	0.72718	0.37174	0.5805	0.101
Mof_C 	C 	0.6742	0.2928	0.6548	0.001
Mof_C 	C 	0.7011	0.2746	0.6082	0.013
Mof_C 	C 	0.7593	0.3901	0.4563	-0.258
Mof_C 	C 	0.8004	0.3908	0.3986	0.177
Mof_C 	C 	0.8586	0.3383	0.3891	-0.276
Mof_C 	C 	0.9926	0.172	0.4614	0.017
Mof_C 	C 	0.0297	0.1287	0.4367	-0.01
Mof_C 	C 	0.09366	0.85458	0.2953	0.397
Mof_C 	C 	0.04759	0.80052	0.3465	-0.119
Mof_C 	C 	0.0693	0.7391	0.3493	0.049
Mof_C 	C 	0.0306	0.6907	0.3971	-0.111
Mof_C 	C 	0.9627	0.7057	0.4431	0.038
Mof_C 	C 	0.9382	0.7666	0.441	-0.104
Mof_C 	C 	0.97942	0.81686	0.3925	0.029
Mof_C 	C 	0.9201	0.6518	0.4954	0.075
Mof_C 	C 	0.9034	0.6015	0.4901	-0.152
Mof_C 	C 	0.8915	0.6556	0.551	-0.144
Mof_C 	C 	0.7712	0.5101	0.6415	0.437
Mof_C 	C 	0.8243	0.5587	0.5905	-0.173
Mof_C 	C 	0.8601	0.5533	0.5383	0.093
Mof_C 	C 	0.8406	0.6094	0.5966	0.088
Mof_N 	N 	0.47177	0.65066	0.885	-0.241
Mof_N 	N 	0.42083	0.72344	0.9263	-0.164
Mof_N 	N 	0.37713	0.82614	0.0612	-0.159
Mof_N 	N 	0.3179	0.8544	0.1386	-0.246
Mof_N 	N 	0.99257	0.15066	0.385	-0.24
Mof_N 	N 	0.92943	0.22344	0.4263	-0.166
Mof_N 	N 	0.73553	0.32614	0.5612	-0.16
Mof_N 	N 	0.6891	0.3544	0.6386	-0.246
Mof_O 	O 	0.68204	0.53492	0.7996	-0.498
Mof_O 	O 	0.69691	0.60708	0.8273	-0.424
Mof_O 	O 	0.55831	0.45405	0.71673	-0.525
Mof_O 	O 	0.53331	0.35608	0.7515	-0.352
Mof_O 	O 	0.50416	0.65376	0.75912	-0.472
Mof_O 	O 	0.5306	0.5819	0.7187	-0.446
Mof_O 	O 	0.18728	0.96774	0.3307	-0.45
Mof_O 	O 	0.10332	0.02394	0.38542	-0.481
Mof_O 	O 	0.71539	0.40681	0.79741	-0.459
Mof_O 	O 	0.76382	0.33753	0.75283	-0.454
Mof_O 	O 	0.05966	0.02118	0.1857	-0.463
Mof_O 	O 	0.14112	0.96366	0.1319	-0.478
Mof_O 	O 	0.98344	0.03492	0.2996	-0.497
Mof_O 	O 	0.86871	0.10708	0.3273	-0.424
Mof_O 	O 	0.27091	0.95405	0.21673	-0.525
Mof_O 	O 	0.35911	0.85608	0.2515	-0.352
Mof_O 	O 	0.08296	0.15376	0.25912	-0.472
Mof_O 	O 	0.1688	0.0819	0.2187	-0.446
Mof_O 	O 	0.51428	0.46774	0.8307	-0.45
Mof_O 	O 	0.48732	0.52394	0.88542	-0.481
Mof_O 	O 	0.08039	0.90681	0.29741	-0.459
Mof_O 	O 	0.14582	0.83753	0.25283	-0.454
Mof_O 	O 	0.73346	0.52118	0.6857	-0.462
Mof_O 	O 	0.76332	0.46366	0.6319	-0.477
Mof_Co	Co	0.87668	0.00482	0.74146	1.201
Mof_Co	Co	0.98361	0.90089	0.66527	1.169
Mof_Co	Co	0.77347	0.1014	0.80952	1.164
Mof_Co	Co	0.37704	0.50482	0.24146	1.201
Mof_Co	Co	0.45023	0.40089	0.16527	1.17
Mof_Co	Co	0.31561	0.6014	0.30952	1.164
Mof_H 	H 	0.1069	0.035	0.7144	0.017
Mof_H 	H 	0.2352	0.0711	0.7237	0.082
Mof_H 	H 	0.4319	0.915	0.7092	0.078
Mof_H 	H 	0.3031	0.8793	0.6997	0.016
Mof_H 	H 	0.5266	0.9328	0.7538	0.06
Mof_H 	H 	0.6479	0.9708	0.7706	0.038
Mof_H 	H 	0.4896	0.1513	0.7089	0.034
Mof_H 	H 	0.365	0.1118	0.6978	0.062
Mof_H 	H 	0.8822	0.7378	0.8062	0.016
Mof_H 	H 	0.8069	0.6595	0.8859	0.084
Mof_H 	H 	0.6414	0.7903	0.9491	0.081
Mof_H 	H 	0.7187	0.8693	0.8725	0.02
Mof_H 	H 	0.677	0.608	0.935	0.073
Mof_H 	H 	0.5948	0.5312	0.0136	0.018
Mof_H 	H 	0.5693	0.6257	0.1165	0.027
Mof_H 	H 	0.6478	0.7046	0.0374	0.071
Mof_H 	H 	0.102	0.7662	0.6508	-0.014
Mof_H 	H 	0.1536	0.7622	0.4762	0.15
Mof_H 	H 	0.2546	0.5887	0.4433	-0.009
Mof_H 	H 	0.3511	0.7328	0.3072	0.041
Mof_H 	H 	0.3027	0.7643	0.3921	0.032
Mof_H 	H 	0.276	0.5729	0.5367	0.124
Mof_H 	H 	0.2136	0.571	0.6336	-0.028
Mof_H 	H 	0.1098	0.6588	0.6488	0.129
Mof_H 	H 	0.9933	0.8317	0.5037	0.024
Mof_H 	H 	0.9258	0.9105	0.5481	0.033
Mof_H 	H 	0.8884	0.2705	0.6821	0.029
Mof_H 	H 	0.9508	0.3515	0.6011	0.068
Mof_H 	H 	0.1067	0.2241	0.5281	0.066
Mof_H 	H 	0.0377	0.1411	0.6089	0.031
Mof_H 	H 	0.0788	0.4017	0.5465	0.084
Mof_H 	H 	0.0942	0.3117	0.4427	0.083
Mof_H 	H 	0.1439	0.4835	0.4659	0.011
Mof_H 	H 	0.1829	0.3863	0.3673	0.017
Mof_H 	H 	0.1437	0.535	0.2144	0.019
Mof_H 	H 	0.97	0.5711	0.2237	0.08
Mof_H 	H 	0.9439	0.415	0.2092	0.076
Mof_H 	H 	0.1179	0.3793	0.1997	0.017
Mof_H 	H 	0.7868	0.4328	0.2538	0.061
Mof_H 	H 	0.6107	0.4708	0.2706	0.037
Mof_H 	H 	0.6502	0.6513	0.2089	0.034
Mof_H 	H 	0.8254	0.6118	0.1978	0.063
Mof_H 	H 	0.5738	0.2378	0.3062	0.017
Mof_H 	H 	0.6477	0.1595	0.3859	0.084
Mof_H 	H 	0.6192	0.2903	0.4491	0.081
Mof_H 	H 	0.5395	0.3693	0.3725	0.02
Mof_H 	H 	0.78	0.108	0.435	0.073
Mof_H 	H 	0.8604	0.0312	0.5136	0.018
Mof_H 	H 	0.6885	0.1257	0.6165	0.027
Mof_H 	H 	0.6102	0.2046	0.5374	0.071
Mof_H 	H 	0.481	0.2662	0.1508	-0.014
Mof_H 	H 	0.608	0.2622	0.9762	0.146
Mof_H 	H 	0.7134	0.0887	0.9433	-0.009
Mof_H 	H 	0.6089	0.2328	0.8072	0.041
Mof_H 	H 	0.5409	0.2643	0.8921	0.033
Mof_H 	H 	0.6144	0.0729	0.0367	0.123
Mof_H 	H 	0.5818	0.071	0.1336	-0.026
Mof_H 	H 	0.5826	0.1588	0.1488	0.127
Mof_H 	H 	0.6713	0.3317	0.0037	0.026
Mof_H 	H 	0.6156	0.4105	0.0481	0.032
Mof_H 	H 	0.159	0.7705	0.1821	0.028
Mof_H 	H 	0.0966	0.8515	0.1011	0.069
Mof_H 	H 	0.1411	0.7241	0.0281	0.066
Mof_H 	H 	0.2123	0.6411	0.1089	0.03
Mof_H 	H 	0.973	0.9017	0.0465	0.083
Mof_H 	H 	0.1514	0.8117	0.9427	0.082
Mof_H 	H 	0.9067	0.9835	0.9659	0.012
Mof_H 	H 	0.0635	0.8863	0.8673	0.017
Mof_C 	C 	0.10803	0.93654	0.693	0.373
Mof_C 	C 	0.18998	0.95684	0.7038	-0.151
Mof_C 	C 	0.173	0.0105	0.7125	0.081
Mof_C 	C 	0.2494	0.0323	0.7189	-0.144
Mof_C 	C 	0.3485	0.9947	0.7183	0.076
Mof_C 	C 	0.3661	0.9398	0.7104	-0.145
Mof_C 	C 	0.28942	0.91846	0.7039	0.069
Mof_C 	C 	0.42938	0.01964	0.7254	0.024
Mof_C 	C 	0.5169	0.9765	0.7463	-0.09
Mof_C 	C 	0.5908	0.9999	0.7557	0.029
Mof_C 	C 	0.58031	0.06358	0.7436	-0.113
Mof_C 	C 	0.65368	0.08594	0.7581	0.341
Mof_C 	C 	0.4966	0.1072	0.7198	0.028
Mof_C 	C 	0.4223	0.0825	0.7125	-0.093
Mof_C 	C 	0.8559	0.8635	0.7805	0.414
Mof_C 	C 	0.80864	0.81092	0.8316	-0.15
Mof_C 	C 	0.8343	0.749	0.8354	0.075
Mof_C 	C 	0.7885	0.7019	0.8835	-0.138
Mof_C 	C 	0.7175	0.7166	0.927	0.069
Mof_C 	C 	0.6917	0.7789	0.9209	-0.137
Mof_C 	C 	0.7369	0.827	0.8744	0.07
Mof_C 	C 	0.6689	0.6644	0.9776	0.044
Mof_C 	C 	0.6543	0.6123	0.9711	-0.118
Mof_C 	C 	0.6057	0.5659	0.0183	0.056
Mof_C 	C 	0.57391	0.57198	0.0724	-0.142
Mof_C 	C 	0.51961	0.52298	0.1232	0.428
Mof_C 	C 	0.5899	0.6225	0.0799	0.054
Mof_C 	C 	0.6375	0.67	0.0324	-0.115
Mof_C 	C 	0.06674	0.79252	0.6196	0.108
Mof_C 	C 	0.12847	0.72076	0.5637	0.24
Mof_C 	C 	0.16697	0.72336	0.5079	-0.311
Mof_C 	C 	0.2235	0.671	0.4984	0.232
Mof_C 	C 	0.27282	0.62826	0.4195	0.101
Mof_C 	C 	0.3258	0.7072	0.3452	0.001
Mof_C 	C 	0.2989	0.7254	0.3918	0.013
Mof_C 	C 	0.2407	0.6099	0.5437	-0.258
Mof_C 	C 	0.1996	0.6092	0.6014	0.177
Mof_C 	C 	0.1414	0.6617	0.6109	-0.276
Mof_C 	C 	0.0074	0.828	0.5386	0.017
Mof_C 	C 	0.9703	0.8713	0.5633	-0.01
Mof_C 	C 	0.90634	0.14542	0.7047	0.397
Mof_C 	C 	0.95241	0.19948	0.6535	-0.119
Mof_C 	C 	0.9307	0.2609	0.6507	0.049
Mof_C 	C 	0.9694	0.3093	0.6029	-0.111
Mof_C 	C 	0.0373	0.2943	0.5569	0.038
Mof_C 	C 	0.0618	0.2334	0.559	-0.104
Mof_C 	C 	0.02058	0.18314	0.6075	0.029
Mof_C 	C 	0.0799	0.3482	0.5046	0.075
Mof_C 	C 	0.0966	0.3985	0.5099	-0.152
Mof_C 	C 	0.1085	0.3444	0.449	-0.144
Mof_C 	C 	0.2288	0.4899	0.3585	0.437
Mof_C 	C 	0.1757	0.4413	0.4095	-0.173
Mof_C 	C 	0.1399	0.4467	0.4617	0.093
Mof_C 	C 	0.1594	0.3906	0.4034	0.088
Mof_C 	C 	0.26243	0.43654	0.193	0.372
Mof_C 	C 	0.14938	0.45684	0.2038	-0.149
Mof_C 	C 	0.104	0.5105	0.2125	0.078
Mof_C 	C 	0.9994	0.5323	0.2189	-0.138
Mof_C 	C 	0.9385	0.4947	0.2183	0.07
Mof_C 	C 	0.9837	0.4398	0.2104	-0.139
Mof_C 	C 	0.08822	0.41846	0.2039	0.065
Mof_C 	C 	0.82558	0.51964	0.2254	0.029
Mof_C 	C 	0.7603	0.4765	0.2463	-0.094
Mof_C 	C 	0.6536	0.4999	0.2557	0.03
Mof_C 	C 	0.61251	0.56358	0.2436	-0.114
Mof_C 	C 	0.50228	0.58594	0.2581	0.341
Mof_C 	C 	0.6764	0.6072	0.2198	0.03
Mof_C 	C 	0.7827	0.5825	0.2125	-0.096
Mof_C 	C 	0.5001	0.3635	0.2805	0.415
Mof_C 	C 	0.54884	0.31092	0.3316	-0.15
Mof_C 	C 	0.5813	0.249	0.3354	0.075
Mof_C 	C 	0.6261	0.2019	0.3835	-0.138
Mof_C 	C 	0.6389	0.2166	0.427	0.069
Mof_C 	C 	0.6085	0.2789	0.4209	-0.137
Mof_C 	C 	0.5617	0.327	0.3744	0.07
Mof_C 	C 	0.6891	0.1644	0.4776	0.044
Mof_C 	C 	0.7623	0.1123	0.4711	-0.118
Mof_C 	C 	0.8101	0.0659	0.5183	0.056
Mof_C 	C 	0.78171	0.07198	0.5724	-0.142
Mof_C 	C 	0.83421	0.02298	0.6232	0.428
Mof_C 	C 	0.7077	0.1225	0.5799	0.054
Mof_C 	C 	0.6601	0.17	0.5324	-0.114
Mof_C 	C 	0.52114	0.29252	0.1196	0.108
Mof_C 	C 	0.58707	0.22076	0.0637	0.235
Mof_C 	C 	0.60177	0.22336	0.0079	-0.303
Mof_C 	C 	0.6071	0.171	0.9984	0.225
Mof_C 	C 	0.67942	0.12826	0.9195	0.101
Mof_C 	C 	0.6218	0.2072	0.8452	0.001
Mof_C 	C 	0.5839	0.2254	0.8918	0.012
Mof_C 	C 	0.6057	0.1099	0.0437	-0.252
Mof_C 	C 	0.5898	0.1092	0.1014	0.172
Mof_C 	C 	0.586	0.1617	0.1109	-0.271
Mof_C 	C 	0.626	0.328	0.0386	0.015
Mof_C 	C 	0.5951	0.3713	0.0633	-0.008
Mof_C 	C 	0.24354	0.64542	0.2047	0.397
Mof_C 	C 	0.19461	0.69948	0.1535	-0.119
Mof_C 	C 	0.1577	0.7609	0.1507	0.05
Mof_C 	C 	0.1184	0.8093	0.1029	-0.113
Mof_C 	C 	0.1115	0.7943	0.0569	0.039
Mof_C 	C 	0.1458	0.7334	0.059	-0.105
Mof_C 	C 	0.18878	0.68314	0.1075	0.03
Mof_C 	C 	0.0673	0.8482	0.0046	0.071
Mof_C 	C 	0.995	0.8985	0.0099	-0.149
Mof_C 	C 	0.0981	0.8444	0.949	-0.139
Mof_C 	C 	0.9228	0.9899	0.8585	0.438
Mof_C 	C 	0.9735	0.9413	0.9095	-0.174
Mof_C 	C 	0.9517	0.9467	0.9617	0.091
Mof_C 	C 	0.0466	0.8906	0.9034	0.088
Mof_N 	N 	0.00743	0.84934	0.615	-0.24
Mof_N 	N 	0.07057	0.77656	0.5737	-0.166
Mof_N 	N 	0.26447	0.67386	0.4388	-0.16
Mof_N 	N 	0.3109	0.6456	0.3614	-0.246
Mof_N 	N 	0.52823	0.34934	0.115	-0.241
Mof_N 	N 	0.57917	0.27656	0.0737	-0.164
Mof_N 	N 	0.62287	0.17386	0.9388	-0.159
Mof_N 	N 	0.6821	0.1456	0.8614	-0.246
Mof_O 	O 	0.01656	0.96508	0.7004	-0.497
Mof_O 	O 	0.13129	0.89292	0.6727	-0.424
Mof_O 	O 	0.72909	0.04595	0.78327	-0.525
Mof_O 	O 	0.64089	0.14392	0.7485	-0.352
Mof_O 	O 	0.91704	0.84624	0.74088	-0.472
Mof_O 	O 	0.8312	0.9181	0.7813	-0.446
Mof_O 	O 	0.48572	0.53226	0.1693	-0.45
Mof_O 	O 	0.51268	0.47606	0.11458	-0.481
Mof_O 	O 	0.91961	0.09319	0.70259	-0.459
Mof_O 	O 	0.85418	0.16247	0.74717	-0.454
Mof_O 	O 	0.26654	0.47882	0.3143	-0.462
Mof_O 	O 	0.23668	0.53634	0.3681	-0.477
Mof_O 	O 	0.31796	0.46508	0.2004	-0.498
Mof_O 	O 	0.30309	0.39292	0.1727	-0.424
Mof_O 	O 	0.44169	0.54595	0.28327	-0.525
Mof_O 	O 	0.46669	0.64392	0.2485	-0.352
Mof_O 	O 	0.49584	0.34624	0.24088	-0.472
Mof_O 	O 	0.4694	0.4181	0.2813	-0.446
Mof_O 	O 	0.81272	0.03226	0.6693	-0.45
Mof_O 	O 	0.89668	0.97606	0.61458	-0.481
Mof_O 	O 	0.28461	0.59319	0.20259	-0.459
Mof_O 	O 	0.23618	0.66247	0.24717	-0.454
Mof_O 	O 	0.94034	0.97882	0.8143	-0.463
Mof_O 	O 	0.85888	0.03634	0.8681	-0.478
_end
