data_functionalizedCrystal
_audit_creation_method	'EQeq! by Chris Wilmer'
_symmetry_space_group_name_H-M	'P1'
_symmetry_Int_Tables_number	1
_symmetry_cell_setting	triclinic
loop_
_symmetry_equiv_pos_as_xyz
  x,y,z
_cell_length_a	29.3304
_cell_length_b	29.3304
_cell_length_c	29.3304
_cell_angle_alpha	60
_cell_angle_beta	60
_cell_angle_gamma	60
loop_
_atom_site_label
_atom_site_type_symbol
_atom_site_fract_x
_atom_site_fract_y
_atom_site_fract_z
_atom_site_charge
Mof_Cu	Cu	0.36049	0.00127	0.63951	0.916
Mof_Cu	Cu	0.27052	0.00052	0.72948	0.909
Mof_Cu	Cu	0.00127	0.36049	0.99873	0.916
Mof_Cu	Cu	0.00052	0.27052	0.99948	0.909
Mof_Cu	Cu	0.63951	0.99873	0.36049	0.916
Mof_Cu	Cu	0.72948	0.99948	0.27052	0.909
Mof_Cu	Cu	0.99873	0.63951	0.00127	0.916
Mof_Cu	Cu	0.99948	0.72948	0.00052	0.909
Mof_Cu	Cu	0.36049	0.63951	0.99873	0.916
Mof_Cu	Cu	0.27052	0.72948	0.99948	0.909
Mof_Cu	Cu	0.00127	0.99873	0.63951	0.916
Mof_Cu	Cu	0.00052	0.99948	0.72948	0.909
Mof_Cu	Cu	0.63951	0.36049	0.00127	0.916
Mof_Cu	Cu	0.72948	0.27052	0.00052	0.909
Mof_Cu	Cu	0.99873	0.00127	0.36049	0.916
Mof_Cu	Cu	0.99948	0.00052	0.27052	0.909
Mof_Cu	Cu	0.36049	0.99873	0.00127	0.916
Mof_Cu	Cu	0.27052	0.99948	0.00052	0.909
Mof_Cu	Cu	0.00127	0.63951	0.36049	0.916
Mof_Cu	Cu	0.00052	0.72948	0.27052	0.909
Mof_Cu	Cu	0.63951	0.00127	0.99873	0.916
Mof_Cu	Cu	0.72948	0.00052	0.99948	0.909
Mof_Cu	Cu	0.99873	0.36049	0.63951	0.916
Mof_Cu	Cu	0.99948	0.27052	0.72948	0.909
Mof_H 	H 	0.3248	0.8332	0.8288	0.067
Mof_H 	H 	0.4577	0.6913	0.8217	0.083
Mof_H 	H 	0.4473	0.8265	0.6793	0.093
Mof_H 	H 	0.5195	0.6535	0.7407	0.047
Mof_H 	H 	0.5448	0.6688	0.767	0.045
Mof_H 	H 	0.6222	0.5852	0.74	0.103
Mof_H 	H 	0.8332	0.3248	0.0132	0.068
Mof_H 	H 	0.6913	0.4577	0.0293	0.084
Mof_H 	H 	0.8265	0.4473	0.0469	0.094
Mof_H 	H 	0.6535	0.5195	0.0863	0.048
Mof_H 	H 	0.6688	0.5448	0.0194	0.047
Mof_H 	H 	0.5852	0.6222	0.0526	0.105
Mof_H 	H 	0.8288	0.0132	0.3248	0.068
Mof_H 	H 	0.8217	0.0293	0.4577	0.084
Mof_H 	H 	0.6793	0.0469	0.4473	0.094
Mof_H 	H 	0.7407	0.0863	0.5195	0.048
Mof_H 	H 	0.767	0.0194	0.5448	0.047
Mof_H 	H 	0.74	0.0526	0.6222	0.105
Mof_H 	H 	0.0132	0.8288	0.8332	0.068
Mof_H 	H 	0.0293	0.8217	0.6913	0.084
Mof_H 	H 	0.0469	0.6793	0.8265	0.094
Mof_H 	H 	0.0863	0.7407	0.6535	0.048
Mof_H 	H 	0.0194	0.767	0.6688	0.047
Mof_H 	H 	0.0526	0.74	0.5852	0.105
Mof_H 	H 	0.3248	0.8288	0.0132	0.068
Mof_H 	H 	0.4577	0.8217	0.0293	0.084
Mof_H 	H 	0.4473	0.6793	0.0469	0.094
Mof_H 	H 	0.5195	0.7407	0.0863	0.048
Mof_H 	H 	0.5448	0.767	0.0194	0.047
Mof_H 	H 	0.6222	0.74	0.0526	0.105
Mof_H 	H 	0.8332	0.0132	0.8288	0.068
Mof_H 	H 	0.6913	0.0293	0.8217	0.084
Mof_H 	H 	0.8265	0.0469	0.6793	0.094
Mof_H 	H 	0.6535	0.0863	0.7407	0.048
Mof_H 	H 	0.6688	0.0194	0.767	0.047
Mof_H 	H 	0.5852	0.0526	0.74	0.105
Mof_H 	H 	0.8288	0.3248	0.8332	0.068
Mof_H 	H 	0.8217	0.4577	0.6913	0.084
Mof_H 	H 	0.6793	0.4473	0.8265	0.094
Mof_H 	H 	0.7407	0.5195	0.6535	0.048
Mof_H 	H 	0.767	0.5448	0.6688	0.046
Mof_H 	H 	0.74	0.6222	0.5852	0.104
Mof_H 	H 	0.0132	0.8332	0.3248	0.068
Mof_H 	H 	0.0293	0.6913	0.4577	0.084
Mof_H 	H 	0.0469	0.8265	0.4473	0.094
Mof_H 	H 	0.0863	0.6535	0.5195	0.048
Mof_H 	H 	0.0194	0.6688	0.5448	0.047
Mof_H 	H 	0.0526	0.5852	0.6222	0.105
Mof_H 	H 	0.3248	0.0132	0.8332	0.068
Mof_H 	H 	0.4577	0.0293	0.6913	0.084
Mof_H 	H 	0.4473	0.0469	0.8265	0.094
Mof_H 	H 	0.5195	0.0863	0.6535	0.048
Mof_H 	H 	0.5448	0.0194	0.6688	0.047
Mof_H 	H 	0.6222	0.0526	0.5852	0.105
Mof_H 	H 	0.8332	0.8288	0.3248	0.068
Mof_H 	H 	0.6913	0.8217	0.4577	0.084
Mof_H 	H 	0.8265	0.6793	0.4473	0.094
Mof_H 	H 	0.6535	0.7407	0.5195	0.048
Mof_H 	H 	0.6688	0.767	0.5448	0.046
Mof_H 	H 	0.5852	0.74	0.6222	0.104
Mof_H 	H 	0.8288	0.8332	0.0132	0.068
Mof_H 	H 	0.8217	0.6913	0.0293	0.084
Mof_H 	H 	0.6793	0.8265	0.0469	0.094
Mof_H 	H 	0.7407	0.6535	0.0863	0.048
Mof_H 	H 	0.767	0.6688	0.0194	0.047
Mof_H 	H 	0.74	0.5852	0.0526	0.105
Mof_H 	H 	0.0132	0.3248	0.8288	0.068
Mof_H 	H 	0.0293	0.4577	0.8217	0.084
Mof_H 	H 	0.0469	0.4473	0.6793	0.094
Mof_H 	H 	0.0863	0.5195	0.7407	0.048
Mof_H 	H 	0.0194	0.5448	0.767	0.047
Mof_H 	H 	0.0526	0.6222	0.74	0.105
Mof_H 	H 	0.6752	0.1668	0.1712	0.068
Mof_H 	H 	0.5423	0.3087	0.1783	0.084
Mof_H 	H 	0.5527	0.1735	0.3207	0.094
Mof_H 	H 	0.4805	0.3465	0.2593	0.048
Mof_H 	H 	0.4552	0.3312	0.233	0.046
Mof_H 	H 	0.3778	0.4148	0.26	0.104
Mof_H 	H 	0.1668	0.6752	0.9868	0.068
Mof_H 	H 	0.3087	0.5423	0.9707	0.084
Mof_H 	H 	0.1735	0.5527	0.9531	0.094
Mof_H 	H 	0.3465	0.4805	0.9137	0.048
Mof_H 	H 	0.3312	0.4552	0.9806	0.047
Mof_H 	H 	0.4148	0.3778	0.9474	0.105
Mof_H 	H 	0.1712	0.9868	0.6752	0.068
Mof_H 	H 	0.1783	0.9707	0.5423	0.084
Mof_H 	H 	0.3207	0.9531	0.5527	0.094
Mof_H 	H 	0.2593	0.9137	0.4805	0.048
Mof_H 	H 	0.233	0.9806	0.4552	0.047
Mof_H 	H 	0.26	0.9474	0.3778	0.105
Mof_H 	H 	0.9868	0.1712	0.1668	0.068
Mof_H 	H 	0.9707	0.1783	0.3087	0.084
Mof_H 	H 	0.9531	0.3207	0.1735	0.094
Mof_H 	H 	0.9137	0.2593	0.3465	0.048
Mof_H 	H 	0.9806	0.233	0.3312	0.047
Mof_H 	H 	0.9474	0.26	0.4148	0.105
Mof_H 	H 	0.6752	0.1712	0.9868	0.068
Mof_H 	H 	0.5423	0.1783	0.9707	0.084
Mof_H 	H 	0.5527	0.3207	0.9531	0.094
Mof_H 	H 	0.4805	0.2593	0.9137	0.048
Mof_H 	H 	0.4552	0.233	0.9806	0.047
Mof_H 	H 	0.3778	0.26	0.9474	0.105
Mof_H 	H 	0.1668	0.9868	0.1712	0.068
Mof_H 	H 	0.3087	0.9707	0.1783	0.084
Mof_H 	H 	0.1735	0.9531	0.3207	0.094
Mof_H 	H 	0.3465	0.9137	0.2593	0.048
Mof_H 	H 	0.3312	0.9806	0.233	0.047
Mof_H 	H 	0.4148	0.9474	0.26	0.105
Mof_H 	H 	0.1712	0.6752	0.1668	0.068
Mof_H 	H 	0.1783	0.5423	0.3087	0.084
Mof_H 	H 	0.3207	0.5527	0.1735	0.094
Mof_H 	H 	0.2593	0.4805	0.3465	0.048
Mof_H 	H 	0.233	0.4552	0.3312	0.046
Mof_H 	H 	0.26	0.3778	0.4148	0.104
Mof_H 	H 	0.9868	0.1668	0.6752	0.068
Mof_H 	H 	0.9707	0.3087	0.5423	0.084
Mof_H 	H 	0.9531	0.1735	0.5527	0.094
Mof_H 	H 	0.9137	0.3465	0.4805	0.048
Mof_H 	H 	0.9806	0.3312	0.4552	0.047
Mof_H 	H 	0.9474	0.4148	0.3778	0.105
Mof_H 	H 	0.6752	0.9868	0.1668	0.068
Mof_H 	H 	0.5423	0.9707	0.3087	0.084
Mof_H 	H 	0.5527	0.9531	0.1735	0.094
Mof_H 	H 	0.4805	0.9137	0.3465	0.048
Mof_H 	H 	0.4552	0.9806	0.3312	0.047
Mof_H 	H 	0.3778	0.9474	0.4148	0.105
Mof_H 	H 	0.1668	0.1712	0.6752	0.068
Mof_H 	H 	0.3087	0.1783	0.5423	0.084
Mof_H 	H 	0.1735	0.3207	0.5527	0.094
Mof_H 	H 	0.3465	0.2593	0.4805	0.048
Mof_H 	H 	0.3312	0.233	0.4552	0.046
Mof_H 	H 	0.4148	0.26	0.3778	0.104
Mof_H 	H 	0.1712	0.1668	0.9868	0.068
Mof_H 	H 	0.1783	0.3087	0.9707	0.084
Mof_H 	H 	0.3207	0.1735	0.9531	0.094
Mof_H 	H 	0.2593	0.3465	0.9137	0.048
Mof_H 	H 	0.233	0.3312	0.9806	0.047
Mof_H 	H 	0.26	0.4148	0.9474	0.105
Mof_H 	H 	0.9868	0.6752	0.1712	0.068
Mof_H 	H 	0.9707	0.5423	0.1783	0.084
Mof_H 	H 	0.9531	0.5527	0.3207	0.094
Mof_H 	H 	0.9137	0.4805	0.2593	0.048
Mof_H 	H 	0.9806	0.4552	0.233	0.047
Mof_H 	H 	0.9474	0.3778	0.26	0.105
Mof_C 	C 	0.3845	0.8367	0.7527	-0.025
Mof_C 	C 	0.3595	0.81224	0.80854	-0.021
Mof_C 	C 	0.3852	0.7568	0.8352	-0.034
Mof_C 	C 	0.4378	0.7284	0.804	-0.107
Mof_C 	C 	0.4607	0.7547	0.7471	0.158
Mof_C 	C 	0.4335	0.8095	0.7185	-0.108
Mof_C 	C 	0.3579	0.7319	0.8973	0.348
Mof_C 	C 	0.359	0.8966	0.7212	0.315
Mof_C 	C 	0.5401	0.6767	0.7323	-0.029
Mof_C 	C 	0.5974	0.6648	0.6862	0.12
Mof_C 	C 	0.6331	0.6111	0.7037	-0.17
Mof_C 	C 	0.8367	0.3845	0.0261	-0.025
Mof_C 	C 	0.81224	0.3595	0.01972	-0.021
Mof_C 	C 	0.7568	0.3852	0.0228	-0.034
Mof_C 	C 	0.7284	0.4378	0.0298	-0.107
Mof_C 	C 	0.7547	0.4607	0.0375	0.159
Mof_C 	C 	0.8095	0.4335	0.0385	-0.108
Mof_C 	C 	0.7319	0.3579	0.0129	0.348
Mof_C 	C 	0.8966	0.359	0.0232	0.315
Mof_C 	C 	0.6767	0.5401	0.0509	-0.029
Mof_C 	C 	0.6648	0.5974	0.0516	0.12
Mof_C 	C 	0.6111	0.6331	0.0521	-0.17
Mof_C 	C 	0.7527	0.0261	0.3845	-0.025
Mof_C 	C 	0.80854	0.01972	0.3595	-0.021
Mof_C 	C 	0.8352	0.0228	0.3852	-0.034
Mof_C 	C 	0.804	0.0298	0.4378	-0.107
Mof_C 	C 	0.7471	0.0375	0.4607	0.159
Mof_C 	C 	0.7185	0.0385	0.4335	-0.108
Mof_C 	C 	0.8973	0.0129	0.3579	0.348
Mof_C 	C 	0.7212	0.0232	0.359	0.315
Mof_C 	C 	0.7323	0.0509	0.5401	-0.029
Mof_C 	C 	0.6862	0.0516	0.5974	0.12
Mof_C 	C 	0.7037	0.0521	0.6331	-0.17
Mof_C 	C 	0.0261	0.7527	0.8367	-0.025
Mof_C 	C 	0.01972	0.80854	0.81224	-0.021
Mof_C 	C 	0.0228	0.8352	0.7568	-0.034
Mof_C 	C 	0.0298	0.804	0.7284	-0.107
Mof_C 	C 	0.0375	0.7471	0.7547	0.159
Mof_C 	C 	0.0385	0.7185	0.8095	-0.108
Mof_C 	C 	0.0129	0.8973	0.7319	0.348
Mof_C 	C 	0.0232	0.7212	0.8966	0.315
Mof_C 	C 	0.0509	0.7323	0.6767	-0.029
Mof_C 	C 	0.0516	0.6862	0.6648	0.12
Mof_C 	C 	0.0521	0.7037	0.6111	-0.17
Mof_C 	C 	0.3845	0.7527	0.0261	-0.025
Mof_C 	C 	0.3595	0.80854	0.01972	-0.021
Mof_C 	C 	0.3852	0.8352	0.0228	-0.034
Mof_C 	C 	0.4378	0.804	0.0298	-0.107
Mof_C 	C 	0.4607	0.7471	0.0375	0.159
Mof_C 	C 	0.4335	0.7185	0.0385	-0.108
Mof_C 	C 	0.3579	0.8973	0.0129	0.348
Mof_C 	C 	0.359	0.7212	0.0232	0.315
Mof_C 	C 	0.5401	0.7323	0.0509	-0.029
Mof_C 	C 	0.5974	0.6862	0.0516	0.12
Mof_C 	C 	0.6331	0.7037	0.0521	-0.17
Mof_C 	C 	0.8367	0.0261	0.7527	-0.025
Mof_C 	C 	0.81224	0.01972	0.80854	-0.021
Mof_C 	C 	0.7568	0.0228	0.8352	-0.034
Mof_C 	C 	0.7284	0.0298	0.804	-0.107
Mof_C 	C 	0.7547	0.0375	0.7471	0.159
Mof_C 	C 	0.8095	0.0385	0.7185	-0.108
Mof_C 	C 	0.7319	0.0129	0.8973	0.348
Mof_C 	C 	0.8966	0.0232	0.7212	0.315
Mof_C 	C 	0.6767	0.0509	0.7323	-0.029
Mof_C 	C 	0.6648	0.0516	0.6862	0.12
Mof_C 	C 	0.6111	0.0521	0.7037	-0.17
Mof_C 	C 	0.7527	0.3845	0.8367	-0.025
Mof_C 	C 	0.80854	0.3595	0.81224	-0.021
Mof_C 	C 	0.8352	0.3852	0.7568	-0.034
Mof_C 	C 	0.804	0.4378	0.7284	-0.107
Mof_C 	C 	0.7471	0.4607	0.7547	0.158
Mof_C 	C 	0.7185	0.4335	0.8095	-0.108
Mof_C 	C 	0.8973	0.3579	0.7319	0.348
Mof_C 	C 	0.7212	0.359	0.8966	0.315
Mof_C 	C 	0.7323	0.5401	0.6767	-0.029
Mof_C 	C 	0.6862	0.5974	0.6648	0.12
Mof_C 	C 	0.7037	0.6331	0.6111	-0.17
Mof_C 	C 	0.0261	0.8367	0.3845	-0.025
Mof_C 	C 	0.01972	0.81224	0.3595	-0.021
Mof_C 	C 	0.0228	0.7568	0.3852	-0.034
Mof_C 	C 	0.0298	0.7284	0.4378	-0.107
Mof_C 	C 	0.0375	0.7547	0.4607	0.159
Mof_C 	C 	0.0385	0.8095	0.4335	-0.108
Mof_C 	C 	0.0129	0.7319	0.3579	0.348
Mof_C 	C 	0.0232	0.8966	0.359	0.315
Mof_C 	C 	0.0509	0.6767	0.5401	-0.029
Mof_C 	C 	0.0516	0.6648	0.5974	0.12
Mof_C 	C 	0.0521	0.6111	0.6331	-0.17
Mof_C 	C 	0.3845	0.0261	0.8367	-0.025
Mof_C 	C 	0.3595	0.01972	0.81224	-0.021
Mof_C 	C 	0.3852	0.0228	0.7568	-0.034
Mof_C 	C 	0.4378	0.0298	0.7284	-0.107
Mof_C 	C 	0.4607	0.0375	0.7547	0.159
Mof_C 	C 	0.4335	0.0385	0.8095	-0.108
Mof_C 	C 	0.3579	0.0129	0.7319	0.348
Mof_C 	C 	0.359	0.0232	0.8966	0.315
Mof_C 	C 	0.5401	0.0509	0.6767	-0.029
Mof_C 	C 	0.5974	0.0516	0.6648	0.12
Mof_C 	C 	0.6331	0.0521	0.6111	-0.17
Mof_C 	C 	0.8367	0.7527	0.3845	-0.025
Mof_C 	C 	0.81224	0.80854	0.3595	-0.021
Mof_C 	C 	0.7568	0.8352	0.3852	-0.034
Mof_C 	C 	0.7284	0.804	0.4378	-0.107
Mof_C 	C 	0.7547	0.7471	0.4607	0.158
Mof_C 	C 	0.8095	0.7185	0.4335	-0.108
Mof_C 	C 	0.7319	0.8973	0.3579	0.348
Mof_C 	C 	0.8966	0.7212	0.359	0.315
Mof_C 	C 	0.6767	0.7323	0.5401	-0.029
Mof_C 	C 	0.6648	0.6862	0.5974	0.12
Mof_C 	C 	0.6111	0.7037	0.6331	-0.17
Mof_C 	C 	0.7527	0.8367	0.0261	-0.025
Mof_C 	C 	0.80854	0.81224	0.01972	-0.021
Mof_C 	C 	0.8352	0.7568	0.0228	-0.034
Mof_C 	C 	0.804	0.7284	0.0298	-0.107
Mof_C 	C 	0.7471	0.7547	0.0375	0.159
Mof_C 	C 	0.7185	0.8095	0.0385	-0.108
Mof_C 	C 	0.8973	0.7319	0.0129	0.348
Mof_C 	C 	0.7212	0.8966	0.0232	0.315
Mof_C 	C 	0.7323	0.6767	0.0509	-0.029
Mof_C 	C 	0.6862	0.6648	0.0516	0.12
Mof_C 	C 	0.7037	0.6111	0.0521	-0.17
Mof_C 	C 	0.0261	0.3845	0.7527	-0.025
Mof_C 	C 	0.01972	0.3595	0.80854	-0.021
Mof_C 	C 	0.0228	0.3852	0.8352	-0.034
Mof_C 	C 	0.0298	0.4378	0.804	-0.107
Mof_C 	C 	0.0375	0.4607	0.7471	0.159
Mof_C 	C 	0.0385	0.4335	0.7185	-0.108
Mof_C 	C 	0.0129	0.3579	0.8973	0.348
Mof_C 	C 	0.0232	0.359	0.7212	0.315
Mof_C 	C 	0.0509	0.5401	0.7323	-0.029
Mof_C 	C 	0.0516	0.5974	0.6862	0.12
Mof_C 	C 	0.0521	0.6331	0.7037	-0.17
Mof_C 	C 	0.6155	0.1633	0.2473	-0.025
Mof_C 	C 	0.6405	0.18776	0.19146	-0.021
Mof_C 	C 	0.6148	0.2432	0.1648	-0.034
Mof_C 	C 	0.5622	0.2716	0.196	-0.107
Mof_C 	C 	0.5393	0.2453	0.2529	0.158
Mof_C 	C 	0.5665	0.1905	0.2815	-0.108
Mof_C 	C 	0.6421	0.2681	0.1027	0.348
Mof_C 	C 	0.641	0.1034	0.2788	0.315
Mof_C 	C 	0.4599	0.3233	0.2677	-0.029
Mof_C 	C 	0.4026	0.3352	0.3138	0.12
Mof_C 	C 	0.3669	0.3889	0.2963	-0.17
Mof_C 	C 	0.1633	0.6155	0.9739	-0.025
Mof_C 	C 	0.18776	0.6405	0.98028	-0.021
Mof_C 	C 	0.2432	0.6148	0.9772	-0.034
Mof_C 	C 	0.2716	0.5622	0.9702	-0.107
Mof_C 	C 	0.2453	0.5393	0.9625	0.159
Mof_C 	C 	0.1905	0.5665	0.9615	-0.108
Mof_C 	C 	0.2681	0.6421	0.9871	0.348
Mof_C 	C 	0.1034	0.641	0.9768	0.315
Mof_C 	C 	0.3233	0.4599	0.9491	-0.029
Mof_C 	C 	0.3352	0.4026	0.9484	0.12
Mof_C 	C 	0.3889	0.3669	0.9479	-0.17
Mof_C 	C 	0.2473	0.9739	0.6155	-0.025
Mof_C 	C 	0.19146	0.98028	0.6405	-0.021
Mof_C 	C 	0.1648	0.9772	0.6148	-0.034
Mof_C 	C 	0.196	0.9702	0.5622	-0.107
Mof_C 	C 	0.2529	0.9625	0.5393	0.159
Mof_C 	C 	0.2815	0.9615	0.5665	-0.108
Mof_C 	C 	0.1027	0.9871	0.6421	0.348
Mof_C 	C 	0.2788	0.9768	0.641	0.315
Mof_C 	C 	0.2677	0.9491	0.4599	-0.029
Mof_C 	C 	0.3138	0.9484	0.4026	0.12
Mof_C 	C 	0.2963	0.9479	0.3669	-0.17
Mof_C 	C 	0.9739	0.2473	0.1633	-0.025
Mof_C 	C 	0.98028	0.19146	0.18776	-0.021
Mof_C 	C 	0.9772	0.1648	0.2432	-0.034
Mof_C 	C 	0.9702	0.196	0.2716	-0.107
Mof_C 	C 	0.9625	0.2529	0.2453	0.159
Mof_C 	C 	0.9615	0.2815	0.1905	-0.108
Mof_C 	C 	0.9871	0.1027	0.2681	0.348
Mof_C 	C 	0.9768	0.2788	0.1034	0.315
Mof_C 	C 	0.9491	0.2677	0.3233	-0.029
Mof_C 	C 	0.9484	0.3138	0.3352	0.12
Mof_C 	C 	0.9479	0.2963	0.3889	-0.17
Mof_C 	C 	0.6155	0.2473	0.9739	-0.025
Mof_C 	C 	0.6405	0.19146	0.98028	-0.021
Mof_C 	C 	0.6148	0.1648	0.9772	-0.034
Mof_C 	C 	0.5622	0.196	0.9702	-0.107
Mof_C 	C 	0.5393	0.2529	0.9625	0.159
Mof_C 	C 	0.5665	0.2815	0.9615	-0.108
Mof_C 	C 	0.6421	0.1027	0.9871	0.348
Mof_C 	C 	0.641	0.2788	0.9768	0.315
Mof_C 	C 	0.4599	0.2677	0.9491	-0.029
Mof_C 	C 	0.4026	0.3138	0.9484	0.12
Mof_C 	C 	0.3669	0.2963	0.9479	-0.17
Mof_C 	C 	0.1633	0.9739	0.2473	-0.025
Mof_C 	C 	0.18776	0.98028	0.19146	-0.021
Mof_C 	C 	0.2432	0.9772	0.1648	-0.034
Mof_C 	C 	0.2716	0.9702	0.196	-0.107
Mof_C 	C 	0.2453	0.9625	0.2529	0.159
Mof_C 	C 	0.1905	0.9615	0.2815	-0.108
Mof_C 	C 	0.2681	0.9871	0.1027	0.348
Mof_C 	C 	0.1034	0.9768	0.2788	0.315
Mof_C 	C 	0.3233	0.9491	0.2677	-0.029
Mof_C 	C 	0.3352	0.9484	0.3138	0.12
Mof_C 	C 	0.3889	0.9479	0.2963	-0.17
Mof_C 	C 	0.2473	0.6155	0.1633	-0.025
Mof_C 	C 	0.19146	0.6405	0.18776	-0.021
Mof_C 	C 	0.1648	0.6148	0.2432	-0.034
Mof_C 	C 	0.196	0.5622	0.2716	-0.107
Mof_C 	C 	0.2529	0.5393	0.2453	0.158
Mof_C 	C 	0.2815	0.5665	0.1905	-0.108
Mof_C 	C 	0.1027	0.6421	0.2681	0.348
Mof_C 	C 	0.2788	0.641	0.1034	0.315
Mof_C 	C 	0.2677	0.4599	0.3233	-0.029
Mof_C 	C 	0.3138	0.4026	0.3352	0.12
Mof_C 	C 	0.2963	0.3669	0.3889	-0.17
Mof_C 	C 	0.9739	0.1633	0.6155	-0.025
Mof_C 	C 	0.98028	0.18776	0.6405	-0.021
Mof_C 	C 	0.9772	0.2432	0.6148	-0.034
Mof_C 	C 	0.9702	0.2716	0.5622	-0.107
Mof_C 	C 	0.9625	0.2453	0.5393	0.159
Mof_C 	C 	0.9615	0.1905	0.5665	-0.108
Mof_C 	C 	0.9871	0.2681	0.6421	0.348
Mof_C 	C 	0.9768	0.1034	0.641	0.315
Mof_C 	C 	0.9491	0.3233	0.4599	-0.029
Mof_C 	C 	0.9484	0.3352	0.4026	0.12
Mof_C 	C 	0.9479	0.3889	0.3669	-0.17
Mof_C 	C 	0.6155	0.9739	0.1633	-0.025
Mof_C 	C 	0.6405	0.98028	0.18776	-0.021
Mof_C 	C 	0.6148	0.9772	0.2432	-0.034
Mof_C 	C 	0.5622	0.9702	0.2716	-0.107
Mof_C 	C 	0.5393	0.9625	0.2453	0.159
Mof_C 	C 	0.5665	0.9615	0.1905	-0.108
Mof_C 	C 	0.6421	0.9871	0.2681	0.348
Mof_C 	C 	0.641	0.9768	0.1034	0.315
Mof_C 	C 	0.4599	0.9491	0.3233	-0.029
Mof_C 	C 	0.4026	0.9484	0.3352	0.12
Mof_C 	C 	0.3669	0.9479	0.3889	-0.17
Mof_C 	C 	0.1633	0.2473	0.6155	-0.025
Mof_C 	C 	0.18776	0.19146	0.6405	-0.021
Mof_C 	C 	0.2432	0.1648	0.6148	-0.034
Mof_C 	C 	0.2716	0.196	0.5622	-0.107
Mof_C 	C 	0.2453	0.2529	0.5393	0.158
Mof_C 	C 	0.1905	0.2815	0.5665	-0.108
Mof_C 	C 	0.2681	0.1027	0.6421	0.348
Mof_C 	C 	0.1034	0.2788	0.641	0.315
Mof_C 	C 	0.3233	0.2677	0.4599	-0.029
Mof_C 	C 	0.3352	0.3138	0.4026	0.12
Mof_C 	C 	0.3889	0.2963	0.3669	-0.17
Mof_C 	C 	0.2473	0.1633	0.9739	-0.025
Mof_C 	C 	0.19146	0.18776	0.98028	-0.021
Mof_C 	C 	0.1648	0.2432	0.9772	-0.034
Mof_C 	C 	0.196	0.2716	0.9702	-0.107
Mof_C 	C 	0.2529	0.2453	0.9625	0.159
Mof_C 	C 	0.2815	0.1905	0.9615	-0.108
Mof_C 	C 	0.1027	0.2681	0.9871	0.348
Mof_C 	C 	0.2788	0.1034	0.9768	0.315
Mof_C 	C 	0.2677	0.3233	0.9491	-0.029
Mof_C 	C 	0.3138	0.3352	0.9484	0.12
Mof_C 	C 	0.2963	0.3889	0.9479	-0.17
Mof_C 	C 	0.9739	0.6155	0.2473	-0.025
Mof_C 	C 	0.98028	0.6405	0.19146	-0.021
Mof_C 	C 	0.9772	0.6148	0.1648	-0.034
Mof_C 	C 	0.9702	0.5622	0.196	-0.107
Mof_C 	C 	0.9625	0.5393	0.2529	0.159
Mof_C 	C 	0.9615	0.5665	0.2815	-0.108
Mof_C 	C 	0.9871	0.6421	0.1027	0.348
Mof_C 	C 	0.9768	0.641	0.2788	0.315
Mof_C 	C 	0.9491	0.4599	0.2677	-0.029
Mof_C 	C 	0.9484	0.4026	0.3138	0.12
Mof_C 	C 	0.9479	0.3669	0.2963	-0.17
Mof_O 	O 	0.3107	0.9215	0.7557	-0.379
Mof_O 	O 	0.38471	0.92291	0.67569	-0.408
Mof_O 	O 	0.31172	0.75448	0.92048	-0.426
Mof_O 	O 	0.3878	0.6784	0.9204	-0.387
Mof_O 	O 	0.5133	0.7311	0.7109	-0.206
Mof_O 	O 	0.9215	0.3107	0.0121	-0.379
Mof_O 	O 	0.92291	0.38471	0.01669	-0.408
Mof_O 	O 	0.75448	0.31172	0.01332	-0.426
Mof_O 	O 	0.6784	0.3878	0.0134	-0.387
Mof_O 	O 	0.7311	0.5133	0.0447	-0.206
Mof_O 	O 	0.7557	0.0121	0.3107	-0.379
Mof_O 	O 	0.67569	0.01669	0.38471	-0.408
Mof_O 	O 	0.92048	0.01332	0.31172	-0.425
Mof_O 	O 	0.9204	0.0134	0.3878	-0.387
Mof_O 	O 	0.7109	0.0447	0.5133	-0.206
Mof_O 	O 	0.0121	0.7557	0.9215	-0.379
Mof_O 	O 	0.01669	0.67569	0.92291	-0.408
Mof_O 	O 	0.01332	0.92048	0.75448	-0.425
Mof_O 	O 	0.0134	0.9204	0.6784	-0.387
Mof_O 	O 	0.0447	0.7109	0.7311	-0.206
Mof_O 	O 	0.3107	0.7557	0.0121	-0.379
Mof_O 	O 	0.38471	0.67569	0.01669	-0.408
Mof_O 	O 	0.31172	0.92048	0.01332	-0.425
Mof_O 	O 	0.3878	0.9204	0.0134	-0.387
Mof_O 	O 	0.5133	0.7109	0.0447	-0.206
Mof_O 	O 	0.9215	0.0121	0.7557	-0.379
Mof_O 	O 	0.92291	0.01669	0.67569	-0.408
Mof_O 	O 	0.75448	0.01332	0.92048	-0.425
Mof_O 	O 	0.6784	0.0134	0.9204	-0.387
Mof_O 	O 	0.7311	0.0447	0.7109	-0.206
Mof_O 	O 	0.7557	0.3107	0.9215	-0.379
Mof_O 	O 	0.67569	0.38471	0.92291	-0.408
Mof_O 	O 	0.92048	0.31172	0.75448	-0.426
Mof_O 	O 	0.9204	0.3878	0.6784	-0.387
Mof_O 	O 	0.7109	0.5133	0.7311	-0.206
Mof_O 	O 	0.0121	0.9215	0.3107	-0.379
Mof_O 	O 	0.01669	0.92291	0.38471	-0.408
Mof_O 	O 	0.01332	0.75448	0.31172	-0.426
Mof_O 	O 	0.0134	0.6784	0.3878	-0.387
Mof_O 	O 	0.0447	0.7311	0.5133	-0.206
Mof_O 	O 	0.3107	0.0121	0.9215	-0.379
Mof_O 	O 	0.38471	0.01669	0.92291	-0.408
Mof_O 	O 	0.31172	0.01332	0.75448	-0.426
Mof_O 	O 	0.3878	0.0134	0.6784	-0.387
Mof_O 	O 	0.5133	0.0447	0.7311	-0.206
Mof_O 	O 	0.9215	0.7557	0.3107	-0.379
Mof_O 	O 	0.92291	0.67569	0.38471	-0.408
Mof_O 	O 	0.75448	0.92048	0.31172	-0.426
Mof_O 	O 	0.6784	0.9204	0.3878	-0.387
Mof_O 	O 	0.7311	0.7109	0.5133	-0.206
Mof_O 	O 	0.7557	0.9215	0.0121	-0.379
Mof_O 	O 	0.67569	0.92291	0.01669	-0.408
Mof_O 	O 	0.92048	0.75448	0.01332	-0.425
Mof_O 	O 	0.9204	0.6784	0.0134	-0.387
Mof_O 	O 	0.7109	0.7311	0.0447	-0.206
Mof_O 	O 	0.0121	0.3107	0.7557	-0.379
Mof_O 	O 	0.01669	0.38471	0.67569	-0.408
Mof_O 	O 	0.01332	0.31172	0.92048	-0.425
Mof_O 	O 	0.0134	0.3878	0.9204	-0.387
Mof_O 	O 	0.0447	0.5133	0.7109	-0.206
Mof_O 	O 	0.6893	0.0785	0.2443	-0.379
Mof_O 	O 	0.61529	0.07709	0.32431	-0.408
Mof_O 	O 	0.68828	0.24552	0.07952	-0.426
Mof_O 	O 	0.6122	0.3216	0.0796	-0.387
Mof_O 	O 	0.4867	0.2689	0.2891	-0.206
Mof_O 	O 	0.0785	0.6893	0.9879	-0.379
Mof_O 	O 	0.07709	0.61529	0.98331	-0.408
Mof_O 	O 	0.24552	0.68828	0.98668	-0.426
Mof_O 	O 	0.3216	0.6122	0.9866	-0.387
Mof_O 	O 	0.2689	0.4867	0.9553	-0.206
Mof_O 	O 	0.2443	0.9879	0.6893	-0.379
Mof_O 	O 	0.32431	0.98331	0.61529	-0.408
Mof_O 	O 	0.07952	0.98668	0.68828	-0.425
Mof_O 	O 	0.0796	0.9866	0.6122	-0.387
Mof_O 	O 	0.2891	0.9553	0.4867	-0.206
Mof_O 	O 	0.9879	0.2443	0.0785	-0.379
Mof_O 	O 	0.98331	0.32431	0.07709	-0.408
Mof_O 	O 	0.98668	0.07952	0.24552	-0.425
Mof_O 	O 	0.9866	0.0796	0.3216	-0.387
Mof_O 	O 	0.9553	0.2891	0.2689	-0.206
Mof_O 	O 	0.6893	0.2443	0.9879	-0.379
Mof_O 	O 	0.61529	0.32431	0.98331	-0.408
Mof_O 	O 	0.68828	0.07952	0.98668	-0.425
Mof_O 	O 	0.6122	0.0796	0.9866	-0.387
Mof_O 	O 	0.4867	0.2891	0.9553	-0.206
Mof_O 	O 	0.0785	0.9879	0.2443	-0.379
Mof_O 	O 	0.07709	0.98331	0.32431	-0.408
Mof_O 	O 	0.24552	0.98668	0.07952	-0.425
Mof_O 	O 	0.3216	0.9866	0.0796	-0.387
Mof_O 	O 	0.2689	0.9553	0.2891	-0.206
Mof_O 	O 	0.2443	0.6893	0.0785	-0.379
Mof_O 	O 	0.32431	0.61529	0.07709	-0.408
Mof_O 	O 	0.07952	0.68828	0.24552	-0.426
Mof_O 	O 	0.0796	0.6122	0.3216	-0.387
Mof_O 	O 	0.2891	0.4867	0.2689	-0.206
Mof_O 	O 	0.9879	0.0785	0.6893	-0.379
Mof_O 	O 	0.98331	0.07709	0.61529	-0.408
Mof_O 	O 	0.98668	0.24552	0.68828	-0.426
Mof_O 	O 	0.9866	0.3216	0.6122	-0.387
Mof_O 	O 	0.9553	0.2689	0.4867	-0.206
Mof_O 	O 	0.6893	0.9879	0.0785	-0.379
Mof_O 	O 	0.61529	0.98331	0.07709	-0.408
Mof_O 	O 	0.68828	0.98668	0.24552	-0.426
Mof_O 	O 	0.6122	0.9866	0.3216	-0.387
Mof_O 	O 	0.4867	0.9553	0.2689	-0.206
Mof_O 	O 	0.0785	0.2443	0.6893	-0.379
Mof_O 	O 	0.07709	0.32431	0.61529	-0.408
Mof_O 	O 	0.24552	0.07952	0.68828	-0.426
Mof_O 	O 	0.3216	0.0796	0.6122	-0.387
Mof_O 	O 	0.2689	0.2891	0.4867	-0.206
Mof_O 	O 	0.2443	0.0785	0.9879	-0.379
Mof_O 	O 	0.32431	0.07709	0.98331	-0.408
Mof_O 	O 	0.07952	0.24552	0.98668	-0.425
Mof_O 	O 	0.0796	0.3216	0.9866	-0.387
Mof_O 	O 	0.2891	0.2689	0.9553	-0.206
Mof_O 	O 	0.9879	0.6893	0.2443	-0.379
Mof_O 	O 	0.98331	0.61529	0.32431	-0.408
Mof_O 	O 	0.98668	0.68828	0.07952	-0.425
Mof_O 	O 	0.9866	0.6122	0.0796	-0.387
Mof_O 	O 	0.9553	0.4867	0.2891	-0.206
_end
