data_functionalizedCrystal
_audit_creation_method	'EQeq! by Chris Wilmer'
_symmetry_space_group_name_H-M	'P1'
_symmetry_Int_Tables_number	1
_symmetry_cell_setting	triclinic
loop_
_symmetry_equiv_pos_as_xyz
  x,y,z
_cell_length_a	32.68
_cell_length_b	34.95
_cell_length_c	25.12
_cell_angle_alpha	90
_cell_angle_beta	90
_cell_angle_gamma	90
loop_
_atom_site_label
_atom_site_type_symbol
_atom_site_fract_x
_atom_site_fract_y
_atom_site_fract_z
_atom_site_charge
Mof_Cd	Cd	0.49786	0.14656	0.88496	0.489
Mof_Cd	Cd	0.56981	0.24939	0.66463	0.497
Mof_Cd	Cd	0.53199	0.1961	0.77117	0.519
Mof_C 	C 	0.6454	0.1628	0.7849	-0.049
Mof_H 	H 	0.6269	0.1772	0.8046	0.073
Mof_C 	C 	0.6468	0.1681	0.7355	-0.032
Mof_C 	C 	0.6753	0.1431	0.6991	-0.012
Mof_H 	H 	0.6774	0.1469	0.6613	0.056
Mof_C 	C 	0.6983	0.1141	0.7308	-0.097
Mof_H 	H 	0.714	0.0964	0.7121	0.07
Mof_C 	C 	0.6983	0.1118	0.7793	0.057
Mof_C 	C 	0.6717	0.1347	0.8138	0.017
Mof_C 	C 	0.6712	0.1289	0.869	-0.059
Mof_H 	H 	0.6499	0.1407	0.8896	0.064
Mof_C 	C 	0.6975	0.1045	0.8918	-0.019
Mof_H 	H 	0.6972	0.1015	0.9286	0.061
Mof_C 	C 	0.7253	0.0835	0.8618	-0.027
Mof_C 	C 	0.7266	0.0861	0.8078	-0.077
Mof_H 	H 	0.7454	0.0716	0.7887	0.078
Mof_C 	C 	0.6191	0.1936	0.6999	0.298
Mof_C 	C 	0.7589	0.0562	0.885	0.306
Mof_O 	O 	0.6263	0.1987	0.6548	-0.267
Mof_O 	O 	0.594	0.2115	0.7329	-0.287
Mof_O 	O 	0.7541	0.0567	0.9376	-0.268
Mof_O 	O 	0.7778	0.0339	0.861	-0.286
Mof_C 	C 	0.6582	0.3251	0.9845	-0.023
Mof_H 	H 	0.6702	0.3415	0.9599	0.06
Mof_C 	C 	0.6653	0.3292	0.0344	-0.072
Mof_C 	C 	0.6515	0.3	0.0724	0.021
Mof_H 	H 	0.658	0.3022	0.1095	0.045
Mof_C 	C 	0.6268	0.2721	0.0522	-0.1
Mof_H 	H 	0.6153	0.2546	0.0758	0.072
Mof_C 	C 	0.618	0.2682	0.9997	0.054
Mof_C 	C 	0.6315	0.2949	0.9669	0.008
Mof_C 	C 	0.6249	0.2939	0.9088	-0.059
Mof_H 	H 	0.6375	0.3115	0.8864	0.063
Mof_C 	C 	0.5976	0.264	0.8875	-0.021
Mof_H 	H 	0.5887	0.2636	0.8511	0.065
Mof_C 	C 	0.5838	0.2353	0.9267	-0.036
Mof_C 	C 	0.5925	0.2382	0.9788	-0.066
Mof_H 	H 	0.5817	0.2202	0.0021	0.078
Mof_C 	C 	0.6941	0.3609	0.0537	0.37
Mof_C 	C 	0.5578	0.2029	0.904	0.323
Mof_O 	O 	0.7038	0.3562	0.1	-0.3
Mof_O 	O 	0.7047	0.384	0.0214	-0.315
Mof_O 	O 	0.5573	0.2012	0.8542	-0.293
Mof_O 	O 	0.5382	0.1846	0.9357	-0.277
Mof_C 	C 	0.3936	0.0455	0.9458	-0.067
Mof_H 	H 	0.3908	0.04	0.9098	0.069
Mof_C 	C 	0.4186	0.0718	0.9715	-0.023
Mof_C 	C 	0.4206	0.0753	0.0261	-0.023
Mof_H 	H 	0.4378	0.0941	0.0396	0.067
Mof_C 	C 	0.3994	0.0537	0.0626	-0.07
Mof_H 	H 	0.4015	0.0587	0.0989	0.066
Mof_C 	C 	0.3755	0.0251	0.0447	0.027
Mof_C 	C 	0.3735	0.0296	0.9904	0.049
Mof_C 	C 	0.3502	0.0017	0.9683	-0.087
Mof_H 	H 	0.3474	0.9972	0.932	0.069
Mof_C 	C 	0.331	0.9805	0.0087	-0.004
Mof_H 	H 	0.3137	0.962	0.9945	0.059
Mof_C 	C 	0.3306	0.9797	0.0646	-0.046
Mof_C 	C 	0.3575	0.0057	0.0873	-0.042
Mof_H 	H 	0.3618	0.0087	0.1249	0.063
Mof_C 	C 	0.4506	0.0985	0.9393	0.312
Mof_C 	C 	0.3032	0.9492	0.0903	0.3
Mof_O 	O 	0.4476	0.0988	0.8911	-0.268
Mof_O 	O 	0.4697	0.1208	0.9666	-0.26
Mof_O 	O 	0.3068	0.947	0.1408	-0.24
Mof_O 	O 	0.2798	0.931	0.0619	-0.299
Mof_C 	C 	0.7281	0.4277	0.5702	-0.023
Mof_H 	H 	0.7415	0.4437	0.5961	0.054
Mof_C 	C 	0.7356	0.4335	0.5164	-0.076
Mof_C 	C 	0.714	0.4121	0.4788	0.019
Mof_H 	H 	0.7156	0.4185	0.4429	0.049
Mof_C 	C 	0.69	0.3812	0.4949	-0.094
Mof_H 	H 	0.6824	0.3614	0.4702	0.075
Mof_C 	C 	0.6814	0.3767	0.547	0.059
Mof_C 	C 	0.7006	0.3993	0.5866	0.006
Mof_C 	C 	0.6931	0.3906	0.6393	-0.053
Mof_H 	H 	0.7061	0.4045	0.6676	0.055
Mof_C 	C 	0.6675	0.3606	0.6535	-0.022
Mof_H 	H 	0.6577	0.3543	0.6884	0.062
Mof_C 	C 	0.6486	0.3389	0.6139	-0.023
Mof_C 	C 	0.6558	0.3463	0.561	-0.075
Mof_H 	H 	0.6414	0.3303	0.5361	0.078
Mof_C 	C 	0.7627	0.465	0.4965	0.343
Mof_C 	C 	0.6181	0.3055	0.6234	0.282
Mof_O 	O 	0.7704	0.4931	0.5239	-0.301
Mof_O 	O 	0.7725	0.4619	0.4489	-0.284
Mof_O 	O 	0.5969	0.2859	0.5951	-0.251
Mof_O 	O 	0.6201	0.2976	0.6737	-0.244
Mof_Cd	Cd	0.49786	0.64656	0.38496	0.49
Mof_Cd	Cd	0.56981	0.74939	0.16463	0.498
Mof_Cd	Cd	0.53199	0.6961	0.27117	0.52
Mof_C 	C 	0.6454	0.6628	0.2849	-0.048
Mof_H 	H 	0.6269	0.6772	0.3046	0.074
Mof_C 	C 	0.6468	0.6681	0.2355	-0.031
Mof_C 	C 	0.6753	0.6431	0.1991	-0.011
Mof_H 	H 	0.6774	0.6469	0.1613	0.057
Mof_C 	C 	0.6983	0.6141	0.2308	-0.096
Mof_H 	H 	0.714	0.5964	0.2121	0.071
Mof_C 	C 	0.6983	0.6118	0.2793	0.058
Mof_C 	C 	0.6717	0.6347	0.3138	0.018
Mof_C 	C 	0.6712	0.6289	0.369	-0.059
Mof_H 	H 	0.6499	0.6407	0.3896	0.064
Mof_C 	C 	0.6975	0.6045	0.3918	-0.019
Mof_H 	H 	0.6972	0.6015	0.4286	0.061
Mof_C 	C 	0.7253	0.5835	0.3618	-0.027
Mof_C 	C 	0.7266	0.5861	0.3078	-0.077
Mof_H 	H 	0.7454	0.5716	0.2887	0.078
Mof_C 	C 	0.6191	0.6936	0.1999	0.298
Mof_C 	C 	0.7589	0.5562	0.385	0.306
Mof_O 	O 	0.6263	0.6987	0.1548	-0.267
Mof_O 	O 	0.594	0.7115	0.2329	-0.287
Mof_O 	O 	0.7541	0.5567	0.4376	-0.268
Mof_O 	O 	0.7778	0.5339	0.361	-0.286
Mof_C 	C 	0.6582	0.8251	0.4845	-0.024
Mof_H 	H 	0.6702	0.8415	0.4599	0.06
Mof_C 	C 	0.6653	0.8292	0.5344	-0.071
Mof_C 	C 	0.6515	0.8	0.5724	0.021
Mof_H 	H 	0.658	0.8022	0.6095	0.045
Mof_C 	C 	0.6268	0.7721	0.5522	-0.099
Mof_H 	H 	0.6153	0.7546	0.5758	0.072
Mof_C 	C 	0.618	0.7682	0.4997	0.053
Mof_C 	C 	0.6315	0.7949	0.4669	0.008
Mof_C 	C 	0.6249	0.7939	0.4088	-0.059
Mof_H 	H 	0.6375	0.8115	0.3864	0.063
Mof_C 	C 	0.5976	0.764	0.3875	-0.021
Mof_H 	H 	0.5887	0.7636	0.3511	0.065
Mof_C 	C 	0.5838	0.7353	0.4267	-0.036
Mof_C 	C 	0.5925	0.7382	0.4788	-0.066
Mof_H 	H 	0.5817	0.7202	0.5021	0.078
Mof_C 	C 	0.6941	0.8609	0.5537	0.37
Mof_C 	C 	0.5578	0.7029	0.404	0.323
Mof_O 	O 	0.7038	0.8562	0.6	-0.3
Mof_O 	O 	0.7047	0.884	0.5214	-0.315
Mof_O 	O 	0.5573	0.7012	0.3542	-0.293
Mof_O 	O 	0.5382	0.6846	0.4357	-0.277
Mof_C 	C 	0.3936	0.5455	0.4458	-0.067
Mof_H 	H 	0.3908	0.54	0.4098	0.069
Mof_C 	C 	0.4186	0.5718	0.4715	-0.023
Mof_C 	C 	0.4206	0.5753	0.5261	-0.023
Mof_H 	H 	0.4378	0.5941	0.5396	0.067
Mof_C 	C 	0.3994	0.5537	0.5626	-0.071
Mof_H 	H 	0.4015	0.5587	0.5989	0.066
Mof_C 	C 	0.3755	0.5251	0.5447	0.027
Mof_C 	C 	0.3735	0.5296	0.4904	0.049
Mof_C 	C 	0.3502	0.5017	0.4683	-0.088
Mof_H 	H 	0.3474	0.4972	0.432	0.069
Mof_C 	C 	0.331	0.4805	0.5087	-0.004
Mof_H 	H 	0.3137	0.462	0.4945	0.059
Mof_C 	C 	0.3306	0.4797	0.5646	-0.046
Mof_C 	C 	0.3575	0.5057	0.5873	-0.042
Mof_H 	H 	0.3618	0.5087	0.6249	0.063
Mof_C 	C 	0.4506	0.5985	0.4393	0.312
Mof_C 	C 	0.3032	0.4492	0.5903	0.3
Mof_O 	O 	0.4476	0.5988	0.3911	-0.268
Mof_O 	O 	0.4697	0.6208	0.4666	-0.26
Mof_O 	O 	0.3068	0.447	0.6408	-0.24
Mof_O 	O 	0.2798	0.431	0.5619	-0.299
Mof_C 	C 	0.7281	0.9277	0.0702	-0.023
Mof_H 	H 	0.7415	0.9437	0.0961	0.054
Mof_C 	C 	0.7356	0.9335	0.0164	-0.076
Mof_C 	C 	0.714	0.9121	0.9788	0.019
Mof_H 	H 	0.7156	0.9185	0.9429	0.049
Mof_C 	C 	0.69	0.8812	0.9949	-0.094
Mof_H 	H 	0.6824	0.8614	0.9702	0.075
Mof_C 	C 	0.6814	0.8767	0.047	0.059
Mof_C 	C 	0.7006	0.8993	0.0866	0.006
Mof_C 	C 	0.6931	0.8906	0.1393	-0.053
Mof_H 	H 	0.7061	0.9045	0.1676	0.055
Mof_C 	C 	0.6675	0.8606	0.1535	-0.022
Mof_H 	H 	0.6577	0.8543	0.1884	0.062
Mof_C 	C 	0.6486	0.8389	0.1139	-0.023
Mof_C 	C 	0.6558	0.8463	0.061	-0.075
Mof_H 	H 	0.6414	0.8303	0.0361	0.078
Mof_C 	C 	0.7627	0.965	0.9965	0.343
Mof_C 	C 	0.6181	0.8055	0.1234	0.282
Mof_O 	O 	0.7704	0.9931	0.0239	-0.301
Mof_O 	O 	0.7725	0.9619	0.9489	-0.284
Mof_O 	O 	0.5969	0.7859	0.0951	-0.251
Mof_O 	O 	0.6201	0.7976	0.1737	-0.244
Mof_Cd	Cd	0.99786	0.14656	0.38496	0.49
Mof_Cd	Cd	0.06981	0.24939	0.16463	0.498
Mof_Cd	Cd	0.03199	0.1961	0.27117	0.52
Mof_C 	C 	0.1454	0.1628	0.2849	-0.048
Mof_H 	H 	0.1269	0.1772	0.3046	0.074
Mof_C 	C 	0.1468	0.1681	0.2355	-0.031
Mof_C 	C 	0.1753	0.1431	0.1991	-0.011
Mof_H 	H 	0.1774	0.1469	0.1613	0.057
Mof_C 	C 	0.1983	0.1141	0.2308	-0.096
Mof_H 	H 	0.214	0.0964	0.2121	0.071
Mof_C 	C 	0.1983	0.1118	0.2793	0.058
Mof_C 	C 	0.1717	0.1347	0.3138	0.018
Mof_C 	C 	0.1712	0.1289	0.369	-0.059
Mof_H 	H 	0.1499	0.1407	0.3896	0.064
Mof_C 	C 	0.1975	0.1045	0.3918	-0.019
Mof_H 	H 	0.1972	0.1015	0.4286	0.061
Mof_C 	C 	0.2253	0.0835	0.3618	-0.027
Mof_C 	C 	0.2266	0.0861	0.3078	-0.077
Mof_H 	H 	0.2454	0.0716	0.2887	0.078
Mof_C 	C 	0.1191	0.1936	0.1999	0.298
Mof_C 	C 	0.2589	0.0562	0.385	0.306
Mof_O 	O 	0.1263	0.1987	0.1548	-0.267
Mof_O 	O 	0.094	0.2115	0.2329	-0.287
Mof_O 	O 	0.2541	0.0567	0.4376	-0.268
Mof_O 	O 	0.2778	0.0339	0.361	-0.286
Mof_C 	C 	0.1582	0.3251	0.4845	-0.024
Mof_H 	H 	0.1702	0.3415	0.4599	0.06
Mof_C 	C 	0.1653	0.3292	0.5344	-0.071
Mof_C 	C 	0.1515	0.3	0.5724	0.021
Mof_H 	H 	0.158	0.3022	0.6095	0.045
Mof_C 	C 	0.1268	0.2721	0.5522	-0.099
Mof_H 	H 	0.1153	0.2546	0.5758	0.072
Mof_C 	C 	0.118	0.2682	0.4997	0.053
Mof_C 	C 	0.1315	0.2949	0.4669	0.008
Mof_C 	C 	0.1249	0.2939	0.4088	-0.059
Mof_H 	H 	0.1375	0.3115	0.3864	0.063
Mof_C 	C 	0.0976	0.264	0.3875	-0.021
Mof_H 	H 	0.0887	0.2636	0.3511	0.065
Mof_C 	C 	0.0838	0.2353	0.4267	-0.036
Mof_C 	C 	0.0925	0.2382	0.4788	-0.066
Mof_H 	H 	0.0817	0.2202	0.5021	0.078
Mof_C 	C 	0.1941	0.3609	0.5537	0.37
Mof_C 	C 	0.0578	0.2029	0.404	0.323
Mof_O 	O 	0.2038	0.3562	0.6	-0.3
Mof_O 	O 	0.2047	0.384	0.5214	-0.315
Mof_O 	O 	0.0573	0.2012	0.3542	-0.293
Mof_O 	O 	0.0382	0.1846	0.4357	-0.277
Mof_C 	C 	0.8936	0.0455	0.4458	-0.067
Mof_H 	H 	0.8908	0.04	0.4098	0.069
Mof_C 	C 	0.9186	0.0718	0.4715	-0.023
Mof_C 	C 	0.9206	0.0753	0.5261	-0.023
Mof_H 	H 	0.9378	0.0941	0.5396	0.067
Mof_C 	C 	0.8994	0.0537	0.5626	-0.071
Mof_H 	H 	0.9015	0.0587	0.5989	0.066
Mof_C 	C 	0.8755	0.0251	0.5447	0.027
Mof_C 	C 	0.8735	0.0296	0.4904	0.049
Mof_C 	C 	0.8502	0.0017	0.4683	-0.088
Mof_H 	H 	0.8474	0.9972	0.432	0.069
Mof_C 	C 	0.831	0.9805	0.5087	-0.003
Mof_H 	H 	0.8137	0.962	0.4945	0.059
Mof_C 	C 	0.8306	0.9797	0.5646	-0.046
Mof_C 	C 	0.8575	0.0057	0.5873	-0.042
Mof_H 	H 	0.8618	0.0087	0.6249	0.063
Mof_C 	C 	0.9506	0.0985	0.4393	0.312
Mof_C 	C 	0.8032	0.9492	0.5903	0.3
Mof_O 	O 	0.9476	0.0988	0.3911	-0.268
Mof_O 	O 	0.9697	0.1208	0.4666	-0.26
Mof_O 	O 	0.8068	0.947	0.6408	-0.24
Mof_O 	O 	0.7798	0.931	0.5619	-0.299
Mof_C 	C 	0.2281	0.4277	0.0702	-0.023
Mof_H 	H 	0.2415	0.4437	0.0961	0.054
Mof_C 	C 	0.2356	0.4335	0.0164	-0.076
Mof_C 	C 	0.214	0.4121	0.9788	0.019
Mof_H 	H 	0.2156	0.4185	0.9429	0.049
Mof_C 	C 	0.19	0.3812	0.9949	-0.094
Mof_H 	H 	0.1824	0.3614	0.9702	0.075
Mof_C 	C 	0.1814	0.3767	0.047	0.059
Mof_C 	C 	0.2006	0.3993	0.0866	0.006
Mof_C 	C 	0.1931	0.3906	0.1393	-0.053
Mof_H 	H 	0.2061	0.4045	0.1676	0.055
Mof_C 	C 	0.1675	0.3606	0.1535	-0.022
Mof_H 	H 	0.1577	0.3543	0.1884	0.062
Mof_C 	C 	0.1486	0.3389	0.1139	-0.023
Mof_C 	C 	0.1558	0.3463	0.061	-0.075
Mof_H 	H 	0.1414	0.3303	0.0361	0.078
Mof_C 	C 	0.2627	0.465	0.9965	0.343
Mof_C 	C 	0.1181	0.3055	0.1234	0.282
Mof_O 	O 	0.2704	0.4931	0.0239	-0.301
Mof_O 	O 	0.2725	0.4619	0.9489	-0.284
Mof_O 	O 	0.0969	0.2859	0.0951	-0.251
Mof_O 	O 	0.1201	0.2976	0.1737	-0.244
Mof_Cd	Cd	0.99786	0.64656	0.88496	0.49
Mof_Cd	Cd	0.06981	0.74939	0.66463	0.498
Mof_Cd	Cd	0.03199	0.6961	0.77117	0.52
Mof_C 	C 	0.1454	0.6628	0.7849	-0.048
Mof_H 	H 	0.1269	0.6772	0.8046	0.074
Mof_C 	C 	0.1468	0.6681	0.7355	-0.031
Mof_C 	C 	0.1753	0.6431	0.6991	-0.011
Mof_H 	H 	0.1774	0.6469	0.6613	0.057
Mof_C 	C 	0.1983	0.6141	0.7308	-0.096
Mof_H 	H 	0.214	0.5964	0.7121	0.071
Mof_C 	C 	0.1983	0.6118	0.7793	0.058
Mof_C 	C 	0.1717	0.6347	0.8138	0.018
Mof_C 	C 	0.1712	0.6289	0.869	-0.059
Mof_H 	H 	0.1499	0.6407	0.8896	0.064
Mof_C 	C 	0.1975	0.6045	0.8918	-0.019
Mof_H 	H 	0.1972	0.6015	0.9286	0.061
Mof_C 	C 	0.2253	0.5835	0.8618	-0.027
Mof_C 	C 	0.2266	0.5861	0.8078	-0.077
Mof_H 	H 	0.2454	0.5716	0.7887	0.078
Mof_C 	C 	0.1191	0.6936	0.6999	0.298
Mof_C 	C 	0.2589	0.5562	0.885	0.306
Mof_O 	O 	0.1263	0.6987	0.6548	-0.267
Mof_O 	O 	0.094	0.7115	0.7329	-0.287
Mof_O 	O 	0.2541	0.5567	0.9376	-0.268
Mof_O 	O 	0.2778	0.5339	0.861	-0.286
Mof_C 	C 	0.1582	0.8251	0.9845	-0.023
Mof_H 	H 	0.1702	0.8415	0.9599	0.06
Mof_C 	C 	0.1653	0.8292	0.0344	-0.072
Mof_C 	C 	0.1515	0.8	0.0724	0.021
Mof_H 	H 	0.158	0.8022	0.1095	0.045
Mof_C 	C 	0.1268	0.7721	0.0522	-0.1
Mof_H 	H 	0.1153	0.7546	0.0758	0.072
Mof_C 	C 	0.118	0.7682	0.9997	0.054
Mof_C 	C 	0.1315	0.7949	0.9669	0.008
Mof_C 	C 	0.1249	0.7939	0.9088	-0.059
Mof_H 	H 	0.1375	0.8115	0.8864	0.063
Mof_C 	C 	0.0976	0.764	0.8875	-0.021
Mof_H 	H 	0.0887	0.7636	0.8511	0.065
Mof_C 	C 	0.0838	0.7353	0.9267	-0.036
Mof_C 	C 	0.0925	0.7382	0.9788	-0.066
Mof_H 	H 	0.0817	0.7202	0.0021	0.078
Mof_C 	C 	0.1941	0.8609	0.0537	0.37
Mof_C 	C 	0.0578	0.7029	0.904	0.323
Mof_O 	O 	0.2038	0.8562	0.1	-0.3
Mof_O 	O 	0.2047	0.884	0.0214	-0.315
Mof_O 	O 	0.0573	0.7012	0.8542	-0.293
Mof_O 	O 	0.0382	0.6846	0.9357	-0.277
Mof_C 	C 	0.8936	0.5455	0.9458	-0.067
Mof_H 	H 	0.8908	0.54	0.9098	0.069
Mof_C 	C 	0.9186	0.5718	0.9715	-0.023
Mof_C 	C 	0.9206	0.5753	0.0261	-0.023
Mof_H 	H 	0.9378	0.5941	0.0396	0.067
Mof_C 	C 	0.8994	0.5537	0.0626	-0.07
Mof_H 	H 	0.9015	0.5587	0.0989	0.066
Mof_C 	C 	0.8755	0.5251	0.0447	0.027
Mof_C 	C 	0.8735	0.5296	0.9904	0.049
Mof_C 	C 	0.8502	0.5017	0.9683	-0.088
Mof_H 	H 	0.8474	0.4972	0.932	0.069
Mof_C 	C 	0.831	0.4805	0.0087	-0.004
Mof_H 	H 	0.8137	0.462	0.9945	0.059
Mof_C 	C 	0.8306	0.4797	0.0646	-0.046
Mof_C 	C 	0.8575	0.5057	0.0873	-0.042
Mof_H 	H 	0.8618	0.5087	0.1249	0.063
Mof_C 	C 	0.9506	0.5985	0.9393	0.312
Mof_C 	C 	0.8032	0.4492	0.0903	0.3
Mof_O 	O 	0.9476	0.5988	0.8911	-0.268
Mof_O 	O 	0.9697	0.6208	0.9666	-0.26
Mof_O 	O 	0.8068	0.447	0.1408	-0.24
Mof_O 	O 	0.7798	0.431	0.0619	-0.299
Mof_C 	C 	0.2281	0.9277	0.5702	-0.023
Mof_H 	H 	0.2415	0.9437	0.5961	0.054
Mof_C 	C 	0.2356	0.9335	0.5164	-0.076
Mof_C 	C 	0.214	0.9121	0.4788	0.019
Mof_H 	H 	0.2156	0.9185	0.4429	0.049
Mof_C 	C 	0.19	0.8812	0.4949	-0.094
Mof_H 	H 	0.1824	0.8614	0.4702	0.075
Mof_C 	C 	0.1814	0.8767	0.547	0.059
Mof_C 	C 	0.2006	0.8993	0.5866	0.006
Mof_C 	C 	0.1931	0.8906	0.6393	-0.053
Mof_H 	H 	0.2061	0.9045	0.6676	0.055
Mof_C 	C 	0.1675	0.8606	0.6535	-0.022
Mof_H 	H 	0.1577	0.8543	0.6884	0.062
Mof_C 	C 	0.1486	0.8389	0.6139	-0.023
Mof_C 	C 	0.1558	0.8463	0.561	-0.075
Mof_H 	H 	0.1414	0.8303	0.5361	0.078
Mof_C 	C 	0.2627	0.965	0.4965	0.343
Mof_C 	C 	0.1181	0.8055	0.6234	0.282
Mof_O 	O 	0.2704	0.9931	0.5239	-0.301
Mof_O 	O 	0.2725	0.9619	0.4489	-0.284
Mof_O 	O 	0.0969	0.7859	0.5951	-0.251
Mof_O 	O 	0.1201	0.7976	0.6737	-0.244
Mof_Cd	Cd	0.50214	0.85344	0.88496	0.49
Mof_Cd	Cd	0.43019	0.75061	0.66463	0.498
Mof_Cd	Cd	0.46801	0.8039	0.77117	0.52
Mof_C 	C 	0.3546	0.8372	0.7849	-0.048
Mof_H 	H 	0.3731	0.8228	0.8046	0.074
Mof_C 	C 	0.3532	0.8319	0.7355	-0.031
Mof_C 	C 	0.3247	0.8569	0.6991	-0.011
Mof_H 	H 	0.3226	0.8531	0.6613	0.057
Mof_C 	C 	0.3017	0.8859	0.7308	-0.096
Mof_H 	H 	0.286	0.9036	0.7121	0.071
Mof_C 	C 	0.3017	0.8882	0.7793	0.058
Mof_C 	C 	0.3283	0.8653	0.8138	0.018
Mof_C 	C 	0.3288	0.8711	0.869	-0.059
Mof_H 	H 	0.3501	0.8593	0.8896	0.064
Mof_C 	C 	0.3025	0.8955	0.8918	-0.019
Mof_H 	H 	0.3028	0.8985	0.9286	0.061
Mof_C 	C 	0.2747	0.9165	0.8618	-0.027
Mof_C 	C 	0.2734	0.9139	0.8078	-0.077
Mof_H 	H 	0.2546	0.9284	0.7887	0.078
Mof_C 	C 	0.3809	0.8064	0.6999	0.298
Mof_C 	C 	0.2411	0.9438	0.885	0.306
Mof_O 	O 	0.3737	0.8013	0.6548	-0.267
Mof_O 	O 	0.406	0.7885	0.7329	-0.287
Mof_O 	O 	0.2459	0.9433	0.9376	-0.268
Mof_O 	O 	0.2222	0.9661	0.861	-0.286
Mof_C 	C 	0.3418	0.6749	0.9845	-0.023
Mof_H 	H 	0.3298	0.6585	0.9599	0.06
Mof_C 	C 	0.3347	0.6708	0.0344	-0.072
Mof_C 	C 	0.3485	0.7	0.0724	0.021
Mof_H 	H 	0.342	0.6978	0.1095	0.045
Mof_C 	C 	0.3732	0.7279	0.0522	-0.1
Mof_H 	H 	0.3847	0.7454	0.0758	0.072
Mof_C 	C 	0.382	0.7318	0.9997	0.054
Mof_C 	C 	0.3685	0.7051	0.9669	0.008
Mof_C 	C 	0.3751	0.7061	0.9088	-0.059
Mof_H 	H 	0.3625	0.6885	0.8864	0.063
Mof_C 	C 	0.4024	0.736	0.8875	-0.021
Mof_H 	H 	0.4113	0.7364	0.8511	0.065
Mof_C 	C 	0.4162	0.7647	0.9267	-0.036
Mof_C 	C 	0.4075	0.7618	0.9788	-0.066
Mof_H 	H 	0.4183	0.7798	0.0021	0.078
Mof_C 	C 	0.3059	0.6391	0.0537	0.37
Mof_C 	C 	0.4422	0.7971	0.904	0.323
Mof_O 	O 	0.2962	0.6438	0.1	-0.3
Mof_O 	O 	0.2953	0.616	0.0214	-0.315
Mof_O 	O 	0.4427	0.7988	0.8542	-0.293
Mof_O 	O 	0.4618	0.8154	0.9357	-0.277
Mof_C 	C 	0.6064	0.9545	0.9458	-0.067
Mof_H 	H 	0.6092	0.96	0.9098	0.069
Mof_C 	C 	0.5814	0.9282	0.9715	-0.023
Mof_C 	C 	0.5794	0.9247	0.0261	-0.023
Mof_H 	H 	0.5622	0.9059	0.0396	0.067
Mof_C 	C 	0.6006	0.9463	0.0626	-0.07
Mof_H 	H 	0.5985	0.9413	0.0989	0.066
Mof_C 	C 	0.6245	0.9749	0.0447	0.027
Mof_C 	C 	0.6265	0.9704	0.9904	0.049
Mof_C 	C 	0.6498	0.9983	0.9683	-0.087
Mof_H 	H 	0.6526	0.0028	0.932	0.069
Mof_C 	C 	0.669	0.0195	0.0087	-0.004
Mof_H 	H 	0.6863	0.038	0.9945	0.059
Mof_C 	C 	0.6694	0.0203	0.0646	-0.046
Mof_C 	C 	0.6425	0.9943	0.0873	-0.042
Mof_H 	H 	0.6382	0.9913	0.1249	0.063
Mof_C 	C 	0.5494	0.9015	0.9393	0.312
Mof_C 	C 	0.6968	0.0508	0.0903	0.3
Mof_O 	O 	0.5524	0.9012	0.8911	-0.268
Mof_O 	O 	0.5303	0.8792	0.9666	-0.26
Mof_O 	O 	0.6932	0.053	0.1408	-0.24
Mof_O 	O 	0.7202	0.069	0.0619	-0.299
Mof_C 	C 	0.2719	0.5723	0.5702	-0.023
Mof_H 	H 	0.2585	0.5563	0.5961	0.054
Mof_C 	C 	0.2644	0.5665	0.5164	-0.076
Mof_C 	C 	0.286	0.5879	0.4788	0.019
Mof_H 	H 	0.2844	0.5815	0.4429	0.049
Mof_C 	C 	0.31	0.6188	0.4949	-0.094
Mof_H 	H 	0.3176	0.6386	0.4702	0.075
Mof_C 	C 	0.3186	0.6233	0.547	0.059
Mof_C 	C 	0.2994	0.6007	0.5866	0.006
Mof_C 	C 	0.3069	0.6094	0.6393	-0.053
Mof_H 	H 	0.2939	0.5955	0.6676	0.055
Mof_C 	C 	0.3325	0.6394	0.6535	-0.022
Mof_H 	H 	0.3423	0.6457	0.6884	0.062
Mof_C 	C 	0.3514	0.6611	0.6139	-0.023
Mof_C 	C 	0.3442	0.6537	0.561	-0.075
Mof_H 	H 	0.3586	0.6697	0.5361	0.078
Mof_C 	C 	0.2373	0.535	0.4965	0.343
Mof_C 	C 	0.3819	0.6945	0.6234	0.282
Mof_O 	O 	0.2296	0.5069	0.5239	-0.301
Mof_O 	O 	0.2275	0.5381	0.4489	-0.284
Mof_O 	O 	0.4031	0.7141	0.5951	-0.251
Mof_O 	O 	0.3799	0.7024	0.6737	-0.244
Mof_Cd	Cd	0.50214	0.35344	0.38496	0.49
Mof_Cd	Cd	0.43019	0.25061	0.16463	0.498
Mof_Cd	Cd	0.46801	0.3039	0.27117	0.52
Mof_C 	C 	0.3546	0.3372	0.2849	-0.048
Mof_H 	H 	0.3731	0.3228	0.3046	0.074
Mof_C 	C 	0.3532	0.3319	0.2355	-0.031
Mof_C 	C 	0.3247	0.3569	0.1991	-0.011
Mof_H 	H 	0.3226	0.3531	0.1613	0.057
Mof_C 	C 	0.3017	0.3859	0.2308	-0.096
Mof_H 	H 	0.286	0.4036	0.2121	0.071
Mof_C 	C 	0.3017	0.3882	0.2793	0.058
Mof_C 	C 	0.3283	0.3653	0.3138	0.018
Mof_C 	C 	0.3288	0.3711	0.369	-0.059
Mof_H 	H 	0.3501	0.3593	0.3896	0.064
Mof_C 	C 	0.3025	0.3955	0.3918	-0.019
Mof_H 	H 	0.3028	0.3985	0.4286	0.061
Mof_C 	C 	0.2747	0.4165	0.3618	-0.027
Mof_C 	C 	0.2734	0.4139	0.3078	-0.077
Mof_H 	H 	0.2546	0.4284	0.2887	0.078
Mof_C 	C 	0.3809	0.3064	0.1999	0.298
Mof_C 	C 	0.2411	0.4438	0.385	0.306
Mof_O 	O 	0.3737	0.3013	0.1548	-0.267
Mof_O 	O 	0.406	0.2885	0.2329	-0.287
Mof_O 	O 	0.2459	0.4433	0.4376	-0.268
Mof_O 	O 	0.2222	0.4661	0.361	-0.286
Mof_C 	C 	0.3418	0.1749	0.4845	-0.024
Mof_H 	H 	0.3298	0.1585	0.4599	0.06
Mof_C 	C 	0.3347	0.1708	0.5344	-0.071
Mof_C 	C 	0.3485	0.2	0.5724	0.021
Mof_H 	H 	0.342	0.1978	0.6095	0.045
Mof_C 	C 	0.3732	0.2279	0.5522	-0.099
Mof_H 	H 	0.3847	0.2454	0.5758	0.072
Mof_C 	C 	0.382	0.2318	0.4997	0.053
Mof_C 	C 	0.3685	0.2051	0.4669	0.008
Mof_C 	C 	0.3751	0.2061	0.4088	-0.059
Mof_H 	H 	0.3625	0.1885	0.3864	0.063
Mof_C 	C 	0.4024	0.236	0.3875	-0.021
Mof_H 	H 	0.4113	0.2364	0.3511	0.065
Mof_C 	C 	0.4162	0.2647	0.4267	-0.036
Mof_C 	C 	0.4075	0.2618	0.4788	-0.066
Mof_H 	H 	0.4183	0.2798	0.5021	0.078
Mof_C 	C 	0.3059	0.1391	0.5537	0.37
Mof_C 	C 	0.4422	0.2971	0.404	0.323
Mof_O 	O 	0.2962	0.1438	0.6	-0.3
Mof_O 	O 	0.2953	0.116	0.5214	-0.315
Mof_O 	O 	0.4427	0.2988	0.3542	-0.293
Mof_O 	O 	0.4618	0.3154	0.4357	-0.277
Mof_C 	C 	0.6064	0.4545	0.4458	-0.067
Mof_H 	H 	0.6092	0.46	0.4098	0.069
Mof_C 	C 	0.5814	0.4282	0.4715	-0.023
Mof_C 	C 	0.5794	0.4247	0.5261	-0.023
Mof_H 	H 	0.5622	0.4059	0.5396	0.067
Mof_C 	C 	0.6006	0.4463	0.5626	-0.071
Mof_H 	H 	0.5985	0.4413	0.5989	0.066
Mof_C 	C 	0.6245	0.4749	0.5447	0.027
Mof_C 	C 	0.6265	0.4704	0.4904	0.049
Mof_C 	C 	0.6498	0.4983	0.4683	-0.088
Mof_H 	H 	0.6526	0.5028	0.432	0.069
Mof_C 	C 	0.669	0.5195	0.5087	-0.004
Mof_H 	H 	0.6863	0.538	0.4945	0.059
Mof_C 	C 	0.6694	0.5203	0.5646	-0.046
Mof_C 	C 	0.6425	0.4943	0.5873	-0.042
Mof_H 	H 	0.6382	0.4913	0.6249	0.063
Mof_C 	C 	0.5494	0.4015	0.4393	0.312
Mof_C 	C 	0.6968	0.5508	0.5903	0.3
Mof_O 	O 	0.5524	0.4012	0.3911	-0.268
Mof_O 	O 	0.5303	0.3792	0.4666	-0.26
Mof_O 	O 	0.6932	0.553	0.6408	-0.24
Mof_O 	O 	0.7202	0.569	0.5619	-0.299
Mof_C 	C 	0.2719	0.0723	0.0702	-0.023
Mof_H 	H 	0.2585	0.0563	0.0961	0.054
Mof_C 	C 	0.2644	0.0665	0.0164	-0.076
Mof_C 	C 	0.286	0.0879	0.9788	0.019
Mof_H 	H 	0.2844	0.0815	0.9429	0.049
Mof_C 	C 	0.31	0.1188	0.9949	-0.094
Mof_H 	H 	0.3176	0.1386	0.9702	0.075
Mof_C 	C 	0.3186	0.1233	0.047	0.059
Mof_C 	C 	0.2994	0.1007	0.0866	0.006
Mof_C 	C 	0.3069	0.1094	0.1393	-0.053
Mof_H 	H 	0.2939	0.0955	0.1676	0.055
Mof_C 	C 	0.3325	0.1394	0.1535	-0.022
Mof_H 	H 	0.3423	0.1457	0.1884	0.062
Mof_C 	C 	0.3514	0.1611	0.1139	-0.023
Mof_C 	C 	0.3442	0.1537	0.061	-0.075
Mof_H 	H 	0.3586	0.1697	0.0361	0.078
Mof_C 	C 	0.2373	0.035	0.9965	0.343
Mof_C 	C 	0.3819	0.1945	0.1234	0.282
Mof_O 	O 	0.2296	0.0069	0.0239	-0.301
Mof_O 	O 	0.2275	0.0381	0.9489	-0.284
Mof_O 	O 	0.4031	0.2141	0.0951	-0.251
Mof_O 	O 	0.3799	0.2024	0.1737	-0.244
Mof_Cd	Cd	0.00214	0.85344	0.38496	0.49
Mof_Cd	Cd	0.93019	0.75061	0.16463	0.498
Mof_Cd	Cd	0.96801	0.8039	0.27117	0.52
Mof_C 	C 	0.8546	0.8372	0.2849	-0.048
Mof_H 	H 	0.8731	0.8228	0.3046	0.074
Mof_C 	C 	0.8532	0.8319	0.2355	-0.031
Mof_C 	C 	0.8247	0.8569	0.1991	-0.011
Mof_H 	H 	0.8226	0.8531	0.1613	0.057
Mof_C 	C 	0.8017	0.8859	0.2308	-0.096
Mof_H 	H 	0.786	0.9036	0.2121	0.071
Mof_C 	C 	0.8017	0.8882	0.2793	0.058
Mof_C 	C 	0.8283	0.8653	0.3138	0.018
Mof_C 	C 	0.8288	0.8711	0.369	-0.059
Mof_H 	H 	0.8501	0.8593	0.3896	0.064
Mof_C 	C 	0.8025	0.8955	0.3918	-0.019
Mof_H 	H 	0.8028	0.8985	0.4286	0.061
Mof_C 	C 	0.7747	0.9165	0.3618	-0.027
Mof_C 	C 	0.7734	0.9139	0.3078	-0.077
Mof_H 	H 	0.7546	0.9284	0.2887	0.078
Mof_C 	C 	0.8809	0.8064	0.1999	0.298
Mof_C 	C 	0.7411	0.9438	0.385	0.306
Mof_O 	O 	0.8737	0.8013	0.1548	-0.267
Mof_O 	O 	0.906	0.7885	0.2329	-0.287
Mof_O 	O 	0.7459	0.9433	0.4376	-0.268
Mof_O 	O 	0.7222	0.9661	0.361	-0.286
Mof_C 	C 	0.8418	0.6749	0.4845	-0.024
Mof_H 	H 	0.8298	0.6585	0.4599	0.06
Mof_C 	C 	0.8347	0.6708	0.5344	-0.071
Mof_C 	C 	0.8485	0.7	0.5724	0.021
Mof_H 	H 	0.842	0.6978	0.6095	0.045
Mof_C 	C 	0.8732	0.7279	0.5522	-0.099
Mof_H 	H 	0.8847	0.7454	0.5758	0.072
Mof_C 	C 	0.882	0.7318	0.4997	0.053
Mof_C 	C 	0.8685	0.7051	0.4669	0.008
Mof_C 	C 	0.8751	0.7061	0.4088	-0.059
Mof_H 	H 	0.8625	0.6885	0.3864	0.063
Mof_C 	C 	0.9024	0.736	0.3875	-0.021
Mof_H 	H 	0.9113	0.7364	0.3511	0.065
Mof_C 	C 	0.9162	0.7647	0.4267	-0.036
Mof_C 	C 	0.9075	0.7618	0.4788	-0.066
Mof_H 	H 	0.9183	0.7798	0.5021	0.078
Mof_C 	C 	0.8059	0.6391	0.5537	0.37
Mof_C 	C 	0.9422	0.7971	0.404	0.323
Mof_O 	O 	0.7962	0.6438	0.6	-0.3
Mof_O 	O 	0.7953	0.616	0.5214	-0.315
Mof_O 	O 	0.9427	0.7988	0.3542	-0.293
Mof_O 	O 	0.9618	0.8154	0.4357	-0.277
Mof_C 	C 	0.1064	0.9545	0.4458	-0.067
Mof_H 	H 	0.1092	0.96	0.4098	0.069
Mof_C 	C 	0.0814	0.9282	0.4715	-0.023
Mof_C 	C 	0.0794	0.9247	0.5261	-0.023
Mof_H 	H 	0.0622	0.9059	0.5396	0.067
Mof_C 	C 	0.1006	0.9463	0.5626	-0.071
Mof_H 	H 	0.0985	0.9413	0.5989	0.066
Mof_C 	C 	0.1245	0.9749	0.5447	0.027
Mof_C 	C 	0.1265	0.9704	0.4904	0.049
Mof_C 	C 	0.1498	0.9983	0.4683	-0.088
Mof_H 	H 	0.1526	0.0028	0.432	0.069
Mof_C 	C 	0.169	0.0195	0.5087	-0.003
Mof_H 	H 	0.1863	0.038	0.4945	0.059
Mof_C 	C 	0.1694	0.0203	0.5646	-0.046
Mof_C 	C 	0.1425	0.9943	0.5873	-0.042
Mof_H 	H 	0.1382	0.9913	0.6249	0.063
Mof_C 	C 	0.0494	0.9015	0.4393	0.312
Mof_C 	C 	0.1968	0.0508	0.5903	0.3
Mof_O 	O 	0.0524	0.9012	0.3911	-0.268
Mof_O 	O 	0.0303	0.8792	0.4666	-0.26
Mof_O 	O 	0.1932	0.053	0.6408	-0.24
Mof_O 	O 	0.2202	0.069	0.5619	-0.299
Mof_C 	C 	0.7719	0.5723	0.0702	-0.023
Mof_H 	H 	0.7585	0.5563	0.0961	0.054
Mof_C 	C 	0.7644	0.5665	0.0164	-0.076
Mof_C 	C 	0.786	0.5879	0.9788	0.019
Mof_H 	H 	0.7844	0.5815	0.9429	0.049
Mof_C 	C 	0.81	0.6188	0.9949	-0.094
Mof_H 	H 	0.8176	0.6386	0.9702	0.075
Mof_C 	C 	0.8186	0.6233	0.047	0.059
Mof_C 	C 	0.7994	0.6007	0.0866	0.006
Mof_C 	C 	0.8069	0.6094	0.1393	-0.053
Mof_H 	H 	0.7939	0.5955	0.1676	0.055
Mof_C 	C 	0.8325	0.6394	0.1535	-0.022
Mof_H 	H 	0.8423	0.6457	0.1884	0.062
Mof_C 	C 	0.8514	0.6611	0.1139	-0.023
Mof_C 	C 	0.8442	0.6537	0.061	-0.075
Mof_H 	H 	0.8586	0.6697	0.0361	0.078
Mof_C 	C 	0.7373	0.535	0.9965	0.343
Mof_C 	C 	0.8819	0.6945	0.1234	0.282
Mof_O 	O 	0.7296	0.5069	0.0239	-0.301
Mof_O 	O 	0.7275	0.5381	0.9489	-0.284
Mof_O 	O 	0.9031	0.7141	0.0951	-0.251
Mof_O 	O 	0.8799	0.7024	0.1737	-0.244
Mof_Cd	Cd	0.00214	0.35344	0.88496	0.49
Mof_Cd	Cd	0.93019	0.25061	0.66463	0.498
Mof_Cd	Cd	0.96801	0.3039	0.77117	0.52
Mof_C 	C 	0.8546	0.3372	0.7849	-0.048
Mof_H 	H 	0.8731	0.3228	0.8046	0.074
Mof_C 	C 	0.8532	0.3319	0.7355	-0.031
Mof_C 	C 	0.8247	0.3569	0.6991	-0.011
Mof_H 	H 	0.8226	0.3531	0.6613	0.057
Mof_C 	C 	0.8017	0.3859	0.7308	-0.096
Mof_H 	H 	0.786	0.4036	0.7121	0.071
Mof_C 	C 	0.8017	0.3882	0.7793	0.058
Mof_C 	C 	0.8283	0.3653	0.8138	0.018
Mof_C 	C 	0.8288	0.3711	0.869	-0.059
Mof_H 	H 	0.8501	0.3593	0.8896	0.064
Mof_C 	C 	0.8025	0.3955	0.8918	-0.019
Mof_H 	H 	0.8028	0.3985	0.9286	0.061
Mof_C 	C 	0.7747	0.4165	0.8618	-0.027
Mof_C 	C 	0.7734	0.4139	0.8078	-0.077
Mof_H 	H 	0.7546	0.4284	0.7887	0.078
Mof_C 	C 	0.8809	0.3064	0.6999	0.298
Mof_C 	C 	0.7411	0.4438	0.885	0.306
Mof_O 	O 	0.8737	0.3013	0.6548	-0.267
Mof_O 	O 	0.906	0.2885	0.7329	-0.287
Mof_O 	O 	0.7459	0.4433	0.9376	-0.268
Mof_O 	O 	0.7222	0.4661	0.861	-0.286
Mof_C 	C 	0.8418	0.1749	0.9845	-0.023
Mof_H 	H 	0.8298	0.1585	0.9599	0.06
Mof_C 	C 	0.8347	0.1708	0.0344	-0.072
Mof_C 	C 	0.8485	0.2	0.0724	0.021
Mof_H 	H 	0.842	0.1978	0.1095	0.045
Mof_C 	C 	0.8732	0.2279	0.0522	-0.1
Mof_H 	H 	0.8847	0.2454	0.0758	0.072
Mof_C 	C 	0.882	0.2318	0.9997	0.054
Mof_C 	C 	0.8685	0.2051	0.9669	0.008
Mof_C 	C 	0.8751	0.2061	0.9088	-0.059
Mof_H 	H 	0.8625	0.1885	0.8864	0.063
Mof_C 	C 	0.9024	0.236	0.8875	-0.021
Mof_H 	H 	0.9113	0.2364	0.8511	0.065
Mof_C 	C 	0.9162	0.2647	0.9267	-0.036
Mof_C 	C 	0.9075	0.2618	0.9788	-0.066
Mof_H 	H 	0.9183	0.2798	0.0021	0.078
Mof_C 	C 	0.8059	0.1391	0.0537	0.37
Mof_C 	C 	0.9422	0.2971	0.904	0.323
Mof_O 	O 	0.7962	0.1438	0.1	-0.3
Mof_O 	O 	0.7953	0.116	0.0214	-0.315
Mof_O 	O 	0.9427	0.2988	0.8542	-0.293
Mof_O 	O 	0.9618	0.3154	0.9357	-0.277
Mof_C 	C 	0.1064	0.4545	0.9458	-0.067
Mof_H 	H 	0.1092	0.46	0.9098	0.069
Mof_C 	C 	0.0814	0.4282	0.9715	-0.023
Mof_C 	C 	0.0794	0.4247	0.0261	-0.023
Mof_H 	H 	0.0622	0.4059	0.0396	0.067
Mof_C 	C 	0.1006	0.4463	0.0626	-0.07
Mof_H 	H 	0.0985	0.4413	0.0989	0.066
Mof_C 	C 	0.1245	0.4749	0.0447	0.027
Mof_C 	C 	0.1265	0.4704	0.9904	0.049
Mof_C 	C 	0.1498	0.4983	0.9683	-0.088
Mof_H 	H 	0.1526	0.5028	0.932	0.069
Mof_C 	C 	0.169	0.5195	0.0087	-0.004
Mof_H 	H 	0.1863	0.538	0.9945	0.059
Mof_C 	C 	0.1694	0.5203	0.0646	-0.046
Mof_C 	C 	0.1425	0.4943	0.0873	-0.042
Mof_H 	H 	0.1382	0.4913	0.1249	0.063
Mof_C 	C 	0.0494	0.4015	0.9393	0.312
Mof_C 	C 	0.1968	0.5508	0.0903	0.3
Mof_O 	O 	0.0524	0.4012	0.8911	-0.268
Mof_O 	O 	0.0303	0.3792	0.9666	-0.26
Mof_O 	O 	0.1932	0.553	0.1408	-0.24
Mof_O 	O 	0.2202	0.569	0.0619	-0.299
Mof_C 	C 	0.7719	0.0723	0.5702	-0.023
Mof_H 	H 	0.7585	0.0563	0.5961	0.054
Mof_C 	C 	0.7644	0.0665	0.5164	-0.076
Mof_C 	C 	0.786	0.0879	0.4788	0.019
Mof_H 	H 	0.7844	0.0815	0.4429	0.049
Mof_C 	C 	0.81	0.1188	0.4949	-0.094
Mof_H 	H 	0.8176	0.1386	0.4702	0.075
Mof_C 	C 	0.8186	0.1233	0.547	0.059
Mof_C 	C 	0.7994	0.1007	0.5866	0.006
Mof_C 	C 	0.8069	0.1094	0.6393	-0.053
Mof_H 	H 	0.7939	0.0955	0.6676	0.055
Mof_C 	C 	0.8325	0.1394	0.6535	-0.022
Mof_H 	H 	0.8423	0.1457	0.6884	0.062
Mof_C 	C 	0.8514	0.1611	0.6139	-0.023
Mof_C 	C 	0.8442	0.1537	0.561	-0.075
Mof_H 	H 	0.8586	0.1697	0.5361	0.078
Mof_C 	C 	0.7373	0.035	0.4965	0.343
Mof_C 	C 	0.8819	0.1945	0.6234	0.282
Mof_O 	O 	0.7296	0.0069	0.5239	-0.301
Mof_O 	O 	0.7275	0.0381	0.4489	-0.284
Mof_O 	O 	0.9031	0.2141	0.5951	-0.251
Mof_O 	O 	0.8799	0.2024	0.6737	-0.244
Mof_Cd	Cd	0.74786	0.10344	0.13496	0.49
Mof_Cd	Cd	0.81981	0.00061	0.91463	0.498
Mof_Cd	Cd	0.78199	0.0539	0.02117	0.52
Mof_C 	C 	0.8954	0.0872	0.0349	-0.048
Mof_H 	H 	0.8769	0.0728	0.0546	0.074
Mof_C 	C 	0.8968	0.0819	0.9855	-0.031
Mof_C 	C 	0.9253	0.1069	0.9491	-0.012
Mof_H 	H 	0.9274	0.1031	0.9113	0.057
Mof_C 	C 	0.9483	0.1359	0.9808	-0.095
Mof_H 	H 	0.964	0.1536	0.9621	0.071
Mof_C 	C 	0.9483	0.1382	0.0293	0.058
Mof_C 	C 	0.9217	0.1153	0.0638	0.018
Mof_C 	C 	0.9212	0.1211	0.119	-0.059
Mof_H 	H 	0.8999	0.1093	0.1396	0.064
Mof_C 	C 	0.9475	0.1455	0.1418	-0.019
Mof_H 	H 	0.9472	0.1485	0.1786	0.061
Mof_C 	C 	0.9753	0.1665	0.1118	-0.028
Mof_C 	C 	0.9766	0.1639	0.0578	-0.076
Mof_H 	H 	0.9954	0.1784	0.0387	0.078
Mof_C 	C 	0.8691	0.0564	0.9499	0.298
Mof_C 	C 	0.0089	0.1938	0.135	0.307
Mof_O 	O 	0.8763	0.0513	0.9048	-0.267
Mof_O 	O 	0.844	0.0385	0.9829	-0.287
Mof_O 	O 	0.0041	0.1933	0.1876	-0.268
Mof_O 	O 	0.0278	0.2161	0.111	-0.286
Mof_C 	C 	0.9082	0.9249	0.2345	-0.024
Mof_H 	H 	0.9202	0.9085	0.2099	0.06
Mof_C 	C 	0.9153	0.9208	0.2844	-0.071
Mof_C 	C 	0.9015	0.95	0.3224	0.021
Mof_H 	H 	0.908	0.9478	0.3595	0.045
Mof_C 	C 	0.8768	0.9779	0.3022	-0.099
Mof_H 	H 	0.8653	0.9954	0.3258	0.072
Mof_C 	C 	0.868	0.9818	0.2497	0.053
Mof_C 	C 	0.8815	0.9551	0.2169	0.008
Mof_C 	C 	0.8749	0.9561	0.1588	-0.059
Mof_H 	H 	0.8875	0.9385	0.1364	0.063
Mof_C 	C 	0.8476	0.986	0.1375	-0.021
Mof_H 	H 	0.8387	0.9864	0.1011	0.065
Mof_C 	C 	0.8338	0.0147	0.1767	-0.036
Mof_C 	C 	0.8425	0.0118	0.2288	-0.066
Mof_H 	H 	0.8317	0.0298	0.2521	0.078
Mof_C 	C 	0.9441	0.8891	0.3037	0.37
Mof_C 	C 	0.8078	0.0471	0.154	0.323
Mof_O 	O 	0.9538	0.8938	0.35	-0.3
Mof_O 	O 	0.9547	0.866	0.2714	-0.315
Mof_O 	O 	0.8073	0.0488	0.1042	-0.293
Mof_O 	O 	0.7882	0.0654	0.1857	-0.277
Mof_C 	C 	0.6436	0.2045	0.1958	-0.067
Mof_H 	H 	0.6408	0.21	0.1598	0.069
Mof_C 	C 	0.6686	0.1782	0.2215	-0.023
Mof_C 	C 	0.6706	0.1747	0.2761	-0.023
Mof_H 	H 	0.6878	0.1559	0.2896	0.067
Mof_C 	C 	0.6494	0.1963	0.3126	-0.071
Mof_H 	H 	0.6515	0.1913	0.3489	0.066
Mof_C 	C 	0.6255	0.2249	0.2947	0.027
Mof_C 	C 	0.6235	0.2204	0.2404	0.049
Mof_C 	C 	0.6002	0.2483	0.2183	-0.088
Mof_H 	H 	0.5974	0.2528	0.182	0.069
Mof_C 	C 	0.581	0.2695	0.2587	-0.004
Mof_H 	H 	0.5637	0.288	0.2445	0.059
Mof_C 	C 	0.5806	0.2703	0.3146	-0.046
Mof_C 	C 	0.6075	0.2443	0.3373	-0.042
Mof_H 	H 	0.6118	0.2413	0.3749	0.063
Mof_C 	C 	0.7006	0.1515	0.1893	0.312
Mof_C 	C 	0.5532	0.3008	0.3403	0.3
Mof_O 	O 	0.6976	0.1512	0.1411	-0.268
Mof_O 	O 	0.7197	0.1292	0.2166	-0.26
Mof_O 	O 	0.5568	0.303	0.3908	-0.24
Mof_O 	O 	0.5298	0.319	0.3119	-0.299
Mof_C 	C 	0.9781	0.8223	0.8202	-0.023
Mof_H 	H 	0.9915	0.8063	0.8461	0.054
Mof_C 	C 	0.9856	0.8165	0.7664	-0.076
Mof_C 	C 	0.964	0.8379	0.7288	0.019
Mof_H 	H 	0.9656	0.8315	0.6929	0.049
Mof_C 	C 	0.94	0.8688	0.7449	-0.094
Mof_H 	H 	0.9324	0.8886	0.7202	0.075
Mof_C 	C 	0.9314	0.8733	0.797	0.059
Mof_C 	C 	0.9506	0.8507	0.8366	0.006
Mof_C 	C 	0.9431	0.8594	0.8893	-0.053
Mof_H 	H 	0.9561	0.8455	0.9176	0.055
Mof_C 	C 	0.9175	0.8894	0.9035	-0.022
Mof_H 	H 	0.9077	0.8957	0.9384	0.062
Mof_C 	C 	0.8986	0.9111	0.8639	-0.023
Mof_C 	C 	0.9058	0.9037	0.811	-0.075
Mof_H 	H 	0.8914	0.9197	0.7861	0.078
Mof_C 	C 	0.0127	0.785	0.7465	0.343
Mof_C 	C 	0.8681	0.9445	0.8734	0.282
Mof_O 	O 	0.0204	0.7569	0.7739	-0.301
Mof_O 	O 	0.0225	0.7881	0.6989	-0.284
Mof_O 	O 	0.8469	0.9641	0.8451	-0.251
Mof_O 	O 	0.8701	0.9524	0.9237	-0.244
Mof_Cd	Cd	0.74786	0.60344	0.63496	0.49
Mof_Cd	Cd	0.81981	0.50061	0.41463	0.498
Mof_Cd	Cd	0.78199	0.5539	0.52117	0.52
Mof_C 	C 	0.8954	0.5872	0.5349	-0.048
Mof_H 	H 	0.8769	0.5728	0.5546	0.074
Mof_C 	C 	0.8968	0.5819	0.4855	-0.031
Mof_C 	C 	0.9253	0.6069	0.4491	-0.011
Mof_H 	H 	0.9274	0.6031	0.4113	0.057
Mof_C 	C 	0.9483	0.6359	0.4808	-0.096
Mof_H 	H 	0.964	0.6536	0.4621	0.071
Mof_C 	C 	0.9483	0.6382	0.5293	0.058
Mof_C 	C 	0.9217	0.6153	0.5638	0.018
Mof_C 	C 	0.9212	0.6211	0.619	-0.059
Mof_H 	H 	0.8999	0.6093	0.6396	0.064
Mof_C 	C 	0.9475	0.6455	0.6418	-0.019
Mof_H 	H 	0.9472	0.6485	0.6786	0.061
Mof_C 	C 	0.9753	0.6665	0.6118	-0.027
Mof_C 	C 	0.9766	0.6639	0.5578	-0.077
Mof_H 	H 	0.9954	0.6784	0.5387	0.078
Mof_C 	C 	0.8691	0.5564	0.4499	0.298
Mof_C 	C 	0.0089	0.6938	0.635	0.306
Mof_O 	O 	0.8763	0.5513	0.4048	-0.267
Mof_O 	O 	0.844	0.5385	0.4829	-0.287
Mof_O 	O 	0.0041	0.6933	0.6876	-0.268
Mof_O 	O 	0.0278	0.7161	0.611	-0.286
Mof_C 	C 	0.9082	0.4249	0.7345	-0.024
Mof_H 	H 	0.9202	0.4085	0.7099	0.06
Mof_C 	C 	0.9153	0.4208	0.7844	-0.071
Mof_C 	C 	0.9015	0.45	0.8224	0.021
Mof_H 	H 	0.908	0.4478	0.8595	0.045
Mof_C 	C 	0.8768	0.4779	0.8022	-0.099
Mof_H 	H 	0.8653	0.4954	0.8258	0.072
Mof_C 	C 	0.868	0.4818	0.7497	0.053
Mof_C 	C 	0.8815	0.4551	0.7169	0.008
Mof_C 	C 	0.8749	0.4561	0.6588	-0.059
Mof_H 	H 	0.8875	0.4385	0.6364	0.063
Mof_C 	C 	0.8476	0.486	0.6375	-0.021
Mof_H 	H 	0.8387	0.4864	0.6011	0.065
Mof_C 	C 	0.8338	0.5147	0.6767	-0.036
Mof_C 	C 	0.8425	0.5118	0.7288	-0.066
Mof_H 	H 	0.8317	0.5298	0.7521	0.078
Mof_C 	C 	0.9441	0.3891	0.8037	0.37
Mof_C 	C 	0.8078	0.5471	0.654	0.323
Mof_O 	O 	0.9538	0.3938	0.85	-0.3
Mof_O 	O 	0.9547	0.366	0.7714	-0.315
Mof_O 	O 	0.8073	0.5488	0.6042	-0.293
Mof_O 	O 	0.7882	0.5654	0.6857	-0.277
Mof_C 	C 	0.6436	0.7045	0.6958	-0.067
Mof_H 	H 	0.6408	0.71	0.6598	0.069
Mof_C 	C 	0.6686	0.6782	0.7215	-0.023
Mof_C 	C 	0.6706	0.6747	0.7761	-0.023
Mof_H 	H 	0.6878	0.6559	0.7896	0.067
Mof_C 	C 	0.6494	0.6963	0.8126	-0.071
Mof_H 	H 	0.6515	0.6913	0.8489	0.066
Mof_C 	C 	0.6255	0.7249	0.7947	0.027
Mof_C 	C 	0.6235	0.7204	0.7404	0.049
Mof_C 	C 	0.6002	0.7483	0.7183	-0.088
Mof_H 	H 	0.5974	0.7528	0.682	0.069
Mof_C 	C 	0.581	0.7695	0.7587	-0.004
Mof_H 	H 	0.5637	0.788	0.7445	0.059
Mof_C 	C 	0.5806	0.7703	0.8146	-0.046
Mof_C 	C 	0.6075	0.7443	0.8373	-0.042
Mof_H 	H 	0.6118	0.7413	0.8749	0.063
Mof_C 	C 	0.7006	0.6515	0.6893	0.312
Mof_C 	C 	0.5532	0.8008	0.8403	0.3
Mof_O 	O 	0.6976	0.6512	0.6411	-0.268
Mof_O 	O 	0.7197	0.6292	0.7166	-0.26
Mof_O 	O 	0.5568	0.803	0.8908	-0.24
Mof_O 	O 	0.5298	0.819	0.8119	-0.299
Mof_C 	C 	0.9781	0.3223	0.3202	-0.023
Mof_H 	H 	0.9915	0.3063	0.3461	0.054
Mof_C 	C 	0.9856	0.3165	0.2664	-0.076
Mof_C 	C 	0.964	0.3379	0.2288	0.019
Mof_H 	H 	0.9656	0.3315	0.1929	0.049
Mof_C 	C 	0.94	0.3688	0.2449	-0.094
Mof_H 	H 	0.9324	0.3886	0.2202	0.075
Mof_C 	C 	0.9314	0.3733	0.297	0.059
Mof_C 	C 	0.9506	0.3507	0.3366	0.006
Mof_C 	C 	0.9431	0.3594	0.3893	-0.053
Mof_H 	H 	0.9561	0.3455	0.4176	0.055
Mof_C 	C 	0.9175	0.3894	0.4035	-0.022
Mof_H 	H 	0.9077	0.3957	0.4384	0.062
Mof_C 	C 	0.8986	0.4111	0.3639	-0.023
Mof_C 	C 	0.9058	0.4037	0.311	-0.075
Mof_H 	H 	0.8914	0.4197	0.2861	0.078
Mof_C 	C 	0.0127	0.285	0.2465	0.343
Mof_C 	C 	0.8681	0.4445	0.3734	0.282
Mof_O 	O 	0.0204	0.2569	0.2739	-0.301
Mof_O 	O 	0.0225	0.2881	0.1989	-0.284
Mof_O 	O 	0.8469	0.4641	0.3451	-0.251
Mof_O 	O 	0.8701	0.4524	0.4237	-0.244
Mof_Cd	Cd	0.24786	0.10344	0.63496	0.49
Mof_Cd	Cd	0.31981	0.00061	0.41463	0.498
Mof_Cd	Cd	0.28199	0.0539	0.52117	0.52
Mof_C 	C 	0.3954	0.0872	0.5349	-0.048
Mof_H 	H 	0.3769	0.0728	0.5546	0.074
Mof_C 	C 	0.3968	0.0819	0.4855	-0.031
Mof_C 	C 	0.4253	0.1069	0.4491	-0.011
Mof_H 	H 	0.4274	0.1031	0.4113	0.057
Mof_C 	C 	0.4483	0.1359	0.4808	-0.096
Mof_H 	H 	0.464	0.1536	0.4621	0.071
Mof_C 	C 	0.4483	0.1382	0.5293	0.058
Mof_C 	C 	0.4217	0.1153	0.5638	0.018
Mof_C 	C 	0.4212	0.1211	0.619	-0.059
Mof_H 	H 	0.3999	0.1093	0.6396	0.064
Mof_C 	C 	0.4475	0.1455	0.6418	-0.019
Mof_H 	H 	0.4472	0.1485	0.6786	0.061
Mof_C 	C 	0.4753	0.1665	0.6118	-0.027
Mof_C 	C 	0.4766	0.1639	0.5578	-0.077
Mof_H 	H 	0.4954	0.1784	0.5387	0.078
Mof_C 	C 	0.3691	0.0564	0.4499	0.298
Mof_C 	C 	0.5089	0.1938	0.635	0.306
Mof_O 	O 	0.3763	0.0513	0.4048	-0.267
Mof_O 	O 	0.344	0.0385	0.4829	-0.287
Mof_O 	O 	0.5041	0.1933	0.6876	-0.268
Mof_O 	O 	0.5278	0.2161	0.611	-0.286
Mof_C 	C 	0.4082	0.9249	0.7345	-0.024
Mof_H 	H 	0.4202	0.9085	0.7099	0.06
Mof_C 	C 	0.4153	0.9208	0.7844	-0.071
Mof_C 	C 	0.4015	0.95	0.8224	0.021
Mof_H 	H 	0.408	0.9478	0.8595	0.045
Mof_C 	C 	0.3768	0.9779	0.8022	-0.099
Mof_H 	H 	0.3653	0.9954	0.8258	0.072
Mof_C 	C 	0.368	0.9818	0.7497	0.053
Mof_C 	C 	0.3815	0.9551	0.7169	0.008
Mof_C 	C 	0.3749	0.9561	0.6588	-0.059
Mof_H 	H 	0.3875	0.9385	0.6364	0.063
Mof_C 	C 	0.3476	0.986	0.6375	-0.021
Mof_H 	H 	0.3387	0.9864	0.6011	0.065
Mof_C 	C 	0.3338	0.0147	0.6767	-0.036
Mof_C 	C 	0.3425	0.0118	0.7288	-0.066
Mof_H 	H 	0.3317	0.0298	0.7521	0.078
Mof_C 	C 	0.4441	0.8891	0.8037	0.37
Mof_C 	C 	0.3078	0.0471	0.654	0.323
Mof_O 	O 	0.4538	0.8938	0.85	-0.3
Mof_O 	O 	0.4547	0.866	0.7714	-0.315
Mof_O 	O 	0.3073	0.0488	0.6042	-0.293
Mof_O 	O 	0.2882	0.0654	0.6857	-0.277
Mof_C 	C 	0.1436	0.2045	0.6958	-0.067
Mof_H 	H 	0.1408	0.21	0.6598	0.069
Mof_C 	C 	0.1686	0.1782	0.7215	-0.023
Mof_C 	C 	0.1706	0.1747	0.7761	-0.023
Mof_H 	H 	0.1878	0.1559	0.7896	0.067
Mof_C 	C 	0.1494	0.1963	0.8126	-0.071
Mof_H 	H 	0.1515	0.1913	0.8489	0.066
Mof_C 	C 	0.1255	0.2249	0.7947	0.027
Mof_C 	C 	0.1235	0.2204	0.7404	0.049
Mof_C 	C 	0.1002	0.2483	0.7183	-0.088
Mof_H 	H 	0.0974	0.2528	0.682	0.069
Mof_C 	C 	0.081	0.2695	0.7587	-0.004
Mof_H 	H 	0.0637	0.288	0.7445	0.059
Mof_C 	C 	0.0806	0.2703	0.8146	-0.046
Mof_C 	C 	0.1075	0.2443	0.8373	-0.042
Mof_H 	H 	0.1118	0.2413	0.8749	0.063
Mof_C 	C 	0.2006	0.1515	0.6893	0.312
Mof_C 	C 	0.0532	0.3008	0.8403	0.3
Mof_O 	O 	0.1976	0.1512	0.6411	-0.268
Mof_O 	O 	0.2197	0.1292	0.7166	-0.26
Mof_O 	O 	0.0568	0.303	0.8908	-0.24
Mof_O 	O 	0.0298	0.319	0.8119	-0.299
Mof_C 	C 	0.4781	0.8223	0.3202	-0.023
Mof_H 	H 	0.4915	0.8063	0.3461	0.054
Mof_C 	C 	0.4856	0.8165	0.2664	-0.076
Mof_C 	C 	0.464	0.8379	0.2288	0.019
Mof_H 	H 	0.4656	0.8315	0.1929	0.049
Mof_C 	C 	0.44	0.8688	0.2449	-0.094
Mof_H 	H 	0.4324	0.8886	0.2202	0.075
Mof_C 	C 	0.4314	0.8733	0.297	0.059
Mof_C 	C 	0.4506	0.8507	0.3366	0.006
Mof_C 	C 	0.4431	0.8594	0.3893	-0.053
Mof_H 	H 	0.4561	0.8455	0.4176	0.055
Mof_C 	C 	0.4175	0.8894	0.4035	-0.022
Mof_H 	H 	0.4077	0.8957	0.4384	0.062
Mof_C 	C 	0.3986	0.9111	0.3639	-0.023
Mof_C 	C 	0.4058	0.9037	0.311	-0.075
Mof_H 	H 	0.3914	0.9197	0.2861	0.078
Mof_C 	C 	0.5127	0.785	0.2465	0.343
Mof_C 	C 	0.3681	0.9445	0.3734	0.282
Mof_O 	O 	0.5204	0.7569	0.2739	-0.301
Mof_O 	O 	0.5225	0.7881	0.1989	-0.284
Mof_O 	O 	0.3469	0.9641	0.3451	-0.251
Mof_O 	O 	0.3701	0.9524	0.4237	-0.244
Mof_Cd	Cd	0.24786	0.60344	0.13496	0.49
Mof_Cd	Cd	0.31981	0.50061	0.91463	0.498
Mof_Cd	Cd	0.28199	0.5539	0.02117	0.52
Mof_C 	C 	0.3954	0.5872	0.0349	-0.048
Mof_H 	H 	0.3769	0.5728	0.0546	0.074
Mof_C 	C 	0.3968	0.5819	0.9855	-0.031
Mof_C 	C 	0.4253	0.6069	0.9491	-0.012
Mof_H 	H 	0.4274	0.6031	0.9113	0.057
Mof_C 	C 	0.4483	0.6359	0.9808	-0.095
Mof_H 	H 	0.464	0.6536	0.9621	0.071
Mof_C 	C 	0.4483	0.6382	0.0293	0.058
Mof_C 	C 	0.4217	0.6153	0.0638	0.018
Mof_C 	C 	0.4212	0.6211	0.119	-0.059
Mof_H 	H 	0.3999	0.6093	0.1396	0.064
Mof_C 	C 	0.4475	0.6455	0.1418	-0.019
Mof_H 	H 	0.4472	0.6485	0.1786	0.061
Mof_C 	C 	0.4753	0.6665	0.1118	-0.028
Mof_C 	C 	0.4766	0.6639	0.0578	-0.076
Mof_H 	H 	0.4954	0.6784	0.0387	0.078
Mof_C 	C 	0.3691	0.5564	0.9499	0.298
Mof_C 	C 	0.5089	0.6938	0.135	0.307
Mof_O 	O 	0.3763	0.5513	0.9048	-0.267
Mof_O 	O 	0.344	0.5385	0.9829	-0.287
Mof_O 	O 	0.5041	0.6933	0.1876	-0.268
Mof_O 	O 	0.5278	0.7161	0.111	-0.286
Mof_C 	C 	0.4082	0.4249	0.2345	-0.024
Mof_H 	H 	0.4202	0.4085	0.2099	0.06
Mof_C 	C 	0.4153	0.4208	0.2844	-0.071
Mof_C 	C 	0.4015	0.45	0.3224	0.021
Mof_H 	H 	0.408	0.4478	0.3595	0.045
Mof_C 	C 	0.3768	0.4779	0.3022	-0.099
Mof_H 	H 	0.3653	0.4954	0.3258	0.072
Mof_C 	C 	0.368	0.4818	0.2497	0.053
Mof_C 	C 	0.3815	0.4551	0.2169	0.008
Mof_C 	C 	0.3749	0.4561	0.1588	-0.059
Mof_H 	H 	0.3875	0.4385	0.1364	0.063
Mof_C 	C 	0.3476	0.486	0.1375	-0.021
Mof_H 	H 	0.3387	0.4864	0.1011	0.065
Mof_C 	C 	0.3338	0.5147	0.1767	-0.036
Mof_C 	C 	0.3425	0.5118	0.2288	-0.066
Mof_H 	H 	0.3317	0.5298	0.2521	0.078
Mof_C 	C 	0.4441	0.3891	0.3037	0.37
Mof_C 	C 	0.3078	0.5471	0.154	0.323
Mof_O 	O 	0.4538	0.3938	0.35	-0.3
Mof_O 	O 	0.4547	0.366	0.2714	-0.315
Mof_O 	O 	0.3073	0.5488	0.1042	-0.293
Mof_O 	O 	0.2882	0.5654	0.1857	-0.277
Mof_C 	C 	0.1436	0.7045	0.1958	-0.067
Mof_H 	H 	0.1408	0.71	0.1598	0.069
Mof_C 	C 	0.1686	0.6782	0.2215	-0.023
Mof_C 	C 	0.1706	0.6747	0.2761	-0.023
Mof_H 	H 	0.1878	0.6559	0.2896	0.067
Mof_C 	C 	0.1494	0.6963	0.3126	-0.071
Mof_H 	H 	0.1515	0.6913	0.3489	0.066
Mof_C 	C 	0.1255	0.7249	0.2947	0.027
Mof_C 	C 	0.1235	0.7204	0.2404	0.049
Mof_C 	C 	0.1002	0.7483	0.2183	-0.088
Mof_H 	H 	0.0974	0.7528	0.182	0.069
Mof_C 	C 	0.081	0.7695	0.2587	-0.004
Mof_H 	H 	0.0637	0.788	0.2445	0.059
Mof_C 	C 	0.0806	0.7703	0.3146	-0.046
Mof_C 	C 	0.1075	0.7443	0.3373	-0.042
Mof_H 	H 	0.1118	0.7413	0.3749	0.063
Mof_C 	C 	0.2006	0.6515	0.1893	0.312
Mof_C 	C 	0.0532	0.8008	0.3403	0.3
Mof_O 	O 	0.1976	0.6512	0.1411	-0.268
Mof_O 	O 	0.2197	0.6292	0.2166	-0.26
Mof_O 	O 	0.0568	0.803	0.3908	-0.24
Mof_O 	O 	0.0298	0.819	0.3119	-0.299
Mof_C 	C 	0.4781	0.3223	0.8202	-0.023
Mof_H 	H 	0.4915	0.3063	0.8461	0.054
Mof_C 	C 	0.4856	0.3165	0.7664	-0.076
Mof_C 	C 	0.464	0.3379	0.7288	0.019
Mof_H 	H 	0.4656	0.3315	0.6929	0.049
Mof_C 	C 	0.44	0.3688	0.7449	-0.094
Mof_H 	H 	0.4324	0.3886	0.7202	0.075
Mof_C 	C 	0.4314	0.3733	0.797	0.059
Mof_C 	C 	0.4506	0.3507	0.8366	0.006
Mof_C 	C 	0.4431	0.3594	0.8893	-0.053
Mof_H 	H 	0.4561	0.3455	0.9176	0.055
Mof_C 	C 	0.4175	0.3894	0.9035	-0.022
Mof_H 	H 	0.4077	0.3957	0.9384	0.062
Mof_C 	C 	0.3986	0.4111	0.8639	-0.023
Mof_C 	C 	0.4058	0.4037	0.811	-0.075
Mof_H 	H 	0.3914	0.4197	0.7861	0.078
Mof_C 	C 	0.5127	0.285	0.7465	0.343
Mof_C 	C 	0.3681	0.4445	0.8734	0.282
Mof_O 	O 	0.5204	0.2569	0.7739	-0.301
Mof_O 	O 	0.5225	0.2881	0.6989	-0.284
Mof_O 	O 	0.3469	0.4641	0.8451	-0.251
Mof_O 	O 	0.3701	0.4524	0.9237	-0.244
Mof_Cd	Cd	0.75214	0.39656	0.13496	0.49
Mof_Cd	Cd	0.68019	0.49939	0.91463	0.498
Mof_Cd	Cd	0.71801	0.4461	0.02117	0.52
Mof_C 	C 	0.6046	0.4128	0.0349	-0.048
Mof_H 	H 	0.6231	0.4272	0.0546	0.074
Mof_C 	C 	0.6032	0.4181	0.9855	-0.031
Mof_C 	C 	0.5747	0.3931	0.9491	-0.012
Mof_H 	H 	0.5726	0.3969	0.9113	0.057
Mof_C 	C 	0.5517	0.3641	0.9808	-0.095
Mof_H 	H 	0.536	0.3464	0.9621	0.071
Mof_C 	C 	0.5517	0.3618	0.0293	0.058
Mof_C 	C 	0.5783	0.3847	0.0638	0.018
Mof_C 	C 	0.5788	0.3789	0.119	-0.059
Mof_H 	H 	0.6001	0.3907	0.1396	0.064
Mof_C 	C 	0.5525	0.3545	0.1418	-0.019
Mof_H 	H 	0.5528	0.3515	0.1786	0.061
Mof_C 	C 	0.5247	0.3335	0.1118	-0.028
Mof_C 	C 	0.5234	0.3361	0.0578	-0.076
Mof_H 	H 	0.5046	0.3216	0.0387	0.078
Mof_C 	C 	0.6309	0.4436	0.9499	0.298
Mof_C 	C 	0.4911	0.3062	0.135	0.307
Mof_O 	O 	0.6237	0.4487	0.9048	-0.267
Mof_O 	O 	0.656	0.4615	0.9829	-0.287
Mof_O 	O 	0.4959	0.3067	0.1876	-0.268
Mof_O 	O 	0.4722	0.2839	0.111	-0.286
Mof_C 	C 	0.5918	0.5751	0.2345	-0.024
Mof_H 	H 	0.5798	0.5915	0.2099	0.06
Mof_C 	C 	0.5847	0.5792	0.2844	-0.071
Mof_C 	C 	0.5985	0.55	0.3224	0.021
Mof_H 	H 	0.592	0.5522	0.3595	0.045
Mof_C 	C 	0.6232	0.5221	0.3022	-0.099
Mof_H 	H 	0.6347	0.5046	0.3258	0.072
Mof_C 	C 	0.632	0.5182	0.2497	0.053
Mof_C 	C 	0.6185	0.5449	0.2169	0.008
Mof_C 	C 	0.6251	0.5439	0.1588	-0.059
Mof_H 	H 	0.6125	0.5615	0.1364	0.063
Mof_C 	C 	0.6524	0.514	0.1375	-0.021
Mof_H 	H 	0.6613	0.5136	0.1011	0.065
Mof_C 	C 	0.6662	0.4853	0.1767	-0.036
Mof_C 	C 	0.6575	0.4882	0.2288	-0.066
Mof_H 	H 	0.6683	0.4702	0.2521	0.078
Mof_C 	C 	0.5559	0.6109	0.3037	0.37
Mof_C 	C 	0.6922	0.4529	0.154	0.323
Mof_O 	O 	0.5462	0.6062	0.35	-0.3
Mof_O 	O 	0.5453	0.634	0.2714	-0.315
Mof_O 	O 	0.6927	0.4512	0.1042	-0.293
Mof_O 	O 	0.7118	0.4346	0.1857	-0.277
Mof_C 	C 	0.8564	0.2955	0.1958	-0.067
Mof_H 	H 	0.8592	0.29	0.1598	0.069
Mof_C 	C 	0.8314	0.3218	0.2215	-0.023
Mof_C 	C 	0.8294	0.3253	0.2761	-0.023
Mof_H 	H 	0.8122	0.3441	0.2896	0.067
Mof_C 	C 	0.8506	0.3037	0.3126	-0.071
Mof_H 	H 	0.8485	0.3087	0.3489	0.066
Mof_C 	C 	0.8745	0.2751	0.2947	0.027
Mof_C 	C 	0.8765	0.2796	0.2404	0.049
Mof_C 	C 	0.8998	0.2517	0.2183	-0.088
Mof_H 	H 	0.9026	0.2472	0.182	0.069
Mof_C 	C 	0.919	0.2305	0.2587	-0.004
Mof_H 	H 	0.9363	0.212	0.2445	0.059
Mof_C 	C 	0.9194	0.2297	0.3146	-0.046
Mof_C 	C 	0.8925	0.2557	0.3373	-0.042
Mof_H 	H 	0.8882	0.2587	0.3749	0.063
Mof_C 	C 	0.7994	0.3485	0.1893	0.312
Mof_C 	C 	0.9468	0.1992	0.3403	0.3
Mof_O 	O 	0.8024	0.3488	0.1411	-0.268
Mof_O 	O 	0.7803	0.3708	0.2166	-0.26
Mof_O 	O 	0.9432	0.197	0.3908	-0.24
Mof_O 	O 	0.9702	0.181	0.3119	-0.299
Mof_C 	C 	0.5219	0.6777	0.8202	-0.023
Mof_H 	H 	0.5085	0.6937	0.8461	0.054
Mof_C 	C 	0.5144	0.6835	0.7664	-0.076
Mof_C 	C 	0.536	0.6621	0.7288	0.019
Mof_H 	H 	0.5344	0.6685	0.6929	0.049
Mof_C 	C 	0.56	0.6312	0.7449	-0.094
Mof_H 	H 	0.5676	0.6114	0.7202	0.075
Mof_C 	C 	0.5686	0.6267	0.797	0.059
Mof_C 	C 	0.5494	0.6493	0.8366	0.006
Mof_C 	C 	0.5569	0.6406	0.8893	-0.053
Mof_H 	H 	0.5439	0.6545	0.9176	0.055
Mof_C 	C 	0.5825	0.6106	0.9035	-0.022
Mof_H 	H 	0.5923	0.6043	0.9384	0.062
Mof_C 	C 	0.6014	0.5889	0.8639	-0.023
Mof_C 	C 	0.5942	0.5963	0.811	-0.075
Mof_H 	H 	0.6086	0.5803	0.7861	0.078
Mof_C 	C 	0.4873	0.715	0.7465	0.343
Mof_C 	C 	0.6319	0.5555	0.8734	0.282
Mof_O 	O 	0.4796	0.7431	0.7739	-0.301
Mof_O 	O 	0.4775	0.7119	0.6989	-0.284
Mof_O 	O 	0.6531	0.5359	0.8451	-0.251
Mof_O 	O 	0.6299	0.5476	0.9237	-0.244
Mof_Cd	Cd	0.75214	0.89656	0.63496	0.49
Mof_Cd	Cd	0.68019	0.99939	0.41463	0.498
Mof_Cd	Cd	0.71801	0.9461	0.52117	0.52
Mof_C 	C 	0.6046	0.9128	0.5349	-0.048
Mof_H 	H 	0.6231	0.9272	0.5546	0.074
Mof_C 	C 	0.6032	0.9181	0.4855	-0.031
Mof_C 	C 	0.5747	0.8931	0.4491	-0.011
Mof_H 	H 	0.5726	0.8969	0.4113	0.057
Mof_C 	C 	0.5517	0.8641	0.4808	-0.096
Mof_H 	H 	0.536	0.8464	0.4621	0.071
Mof_C 	C 	0.5517	0.8618	0.5293	0.058
Mof_C 	C 	0.5783	0.8847	0.5638	0.018
Mof_C 	C 	0.5788	0.8789	0.619	-0.059
Mof_H 	H 	0.6001	0.8907	0.6396	0.064
Mof_C 	C 	0.5525	0.8545	0.6418	-0.019
Mof_H 	H 	0.5528	0.8515	0.6786	0.061
Mof_C 	C 	0.5247	0.8335	0.6118	-0.027
Mof_C 	C 	0.5234	0.8361	0.5578	-0.077
Mof_H 	H 	0.5046	0.8216	0.5387	0.078
Mof_C 	C 	0.6309	0.9436	0.4499	0.298
Mof_C 	C 	0.4911	0.8062	0.635	0.306
Mof_O 	O 	0.6237	0.9487	0.4048	-0.267
Mof_O 	O 	0.656	0.9615	0.4829	-0.287
Mof_O 	O 	0.4959	0.8067	0.6876	-0.268
Mof_O 	O 	0.4722	0.7839	0.611	-0.286
Mof_C 	C 	0.5918	0.0751	0.7345	-0.024
Mof_H 	H 	0.5798	0.0915	0.7099	0.06
Mof_C 	C 	0.5847	0.0792	0.7844	-0.071
Mof_C 	C 	0.5985	0.05	0.8224	0.021
Mof_H 	H 	0.592	0.0522	0.8595	0.045
Mof_C 	C 	0.6232	0.0221	0.8022	-0.099
Mof_H 	H 	0.6347	0.0046	0.8258	0.072
Mof_C 	C 	0.632	0.0182	0.7497	0.053
Mof_C 	C 	0.6185	0.0449	0.7169	0.008
Mof_C 	C 	0.6251	0.0439	0.6588	-0.059
Mof_H 	H 	0.6125	0.0615	0.6364	0.063
Mof_C 	C 	0.6524	0.014	0.6375	-0.021
Mof_H 	H 	0.6613	0.0136	0.6011	0.065
Mof_C 	C 	0.6662	0.9853	0.6767	-0.036
Mof_C 	C 	0.6575	0.9882	0.7288	-0.066
Mof_H 	H 	0.6683	0.9702	0.7521	0.078
Mof_C 	C 	0.5559	0.1109	0.8037	0.37
Mof_C 	C 	0.6922	0.9529	0.654	0.323
Mof_O 	O 	0.5462	0.1062	0.85	-0.3
Mof_O 	O 	0.5453	0.134	0.7714	-0.315
Mof_O 	O 	0.6927	0.9512	0.6042	-0.293
Mof_O 	O 	0.7118	0.9346	0.6857	-0.277
Mof_C 	C 	0.8564	0.7955	0.6958	-0.067
Mof_H 	H 	0.8592	0.79	0.6598	0.069
Mof_C 	C 	0.8314	0.8218	0.7215	-0.023
Mof_C 	C 	0.8294	0.8253	0.7761	-0.023
Mof_H 	H 	0.8122	0.8441	0.7896	0.067
Mof_C 	C 	0.8506	0.8037	0.8126	-0.071
Mof_H 	H 	0.8485	0.8087	0.8489	0.066
Mof_C 	C 	0.8745	0.7751	0.7947	0.027
Mof_C 	C 	0.8765	0.7796	0.7404	0.049
Mof_C 	C 	0.8998	0.7517	0.7183	-0.088
Mof_H 	H 	0.9026	0.7472	0.682	0.069
Mof_C 	C 	0.919	0.7305	0.7587	-0.004
Mof_H 	H 	0.9363	0.712	0.7445	0.059
Mof_C 	C 	0.9194	0.7297	0.8146	-0.046
Mof_C 	C 	0.8925	0.7557	0.8373	-0.042
Mof_H 	H 	0.8882	0.7587	0.8749	0.063
Mof_C 	C 	0.7994	0.8485	0.6893	0.312
Mof_C 	C 	0.9468	0.6992	0.8403	0.3
Mof_O 	O 	0.8024	0.8488	0.6411	-0.268
Mof_O 	O 	0.7803	0.8708	0.7166	-0.26
Mof_O 	O 	0.9432	0.697	0.8908	-0.24
Mof_O 	O 	0.9702	0.681	0.8119	-0.299
Mof_C 	C 	0.5219	0.1777	0.3202	-0.023
Mof_H 	H 	0.5085	0.1937	0.3461	0.054
Mof_C 	C 	0.5144	0.1835	0.2664	-0.076
Mof_C 	C 	0.536	0.1621	0.2288	0.019
Mof_H 	H 	0.5344	0.1685	0.1929	0.049
Mof_C 	C 	0.56	0.1312	0.2449	-0.094
Mof_H 	H 	0.5676	0.1114	0.2202	0.075
Mof_C 	C 	0.5686	0.1267	0.297	0.059
Mof_C 	C 	0.5494	0.1493	0.3366	0.006
Mof_C 	C 	0.5569	0.1406	0.3893	-0.053
Mof_H 	H 	0.5439	0.1545	0.4176	0.055
Mof_C 	C 	0.5825	0.1106	0.4035	-0.022
Mof_H 	H 	0.5923	0.1043	0.4384	0.062
Mof_C 	C 	0.6014	0.0889	0.3639	-0.023
Mof_C 	C 	0.5942	0.0963	0.311	-0.075
Mof_H 	H 	0.6086	0.0803	0.2861	0.078
Mof_C 	C 	0.4873	0.215	0.2465	0.343
Mof_C 	C 	0.6319	0.0555	0.3734	0.282
Mof_O 	O 	0.4796	0.2431	0.2739	-0.301
Mof_O 	O 	0.4775	0.2119	0.1989	-0.284
Mof_O 	O 	0.6531	0.0359	0.3451	-0.251
Mof_O 	O 	0.6299	0.0476	0.4237	-0.244
Mof_Cd	Cd	0.25214	0.39656	0.63496	0.49
Mof_Cd	Cd	0.18019	0.49939	0.41463	0.498
Mof_Cd	Cd	0.21801	0.4461	0.52117	0.52
Mof_C 	C 	0.1046	0.4128	0.5349	-0.048
Mof_H 	H 	0.1231	0.4272	0.5546	0.074
Mof_C 	C 	0.1032	0.4181	0.4855	-0.031
Mof_C 	C 	0.0747	0.3931	0.4491	-0.011
Mof_H 	H 	0.0726	0.3969	0.4113	0.057
Mof_C 	C 	0.0517	0.3641	0.4808	-0.096
Mof_H 	H 	0.036	0.3464	0.4621	0.071
Mof_C 	C 	0.0517	0.3618	0.5293	0.058
Mof_C 	C 	0.0783	0.3847	0.5638	0.018
Mof_C 	C 	0.0788	0.3789	0.619	-0.059
Mof_H 	H 	0.1001	0.3907	0.6396	0.064
Mof_C 	C 	0.0525	0.3545	0.6418	-0.019
Mof_H 	H 	0.0528	0.3515	0.6786	0.061
Mof_C 	C 	0.0247	0.3335	0.6118	-0.027
Mof_C 	C 	0.0234	0.3361	0.5578	-0.077
Mof_H 	H 	0.0046	0.3216	0.5387	0.078
Mof_C 	C 	0.1309	0.4436	0.4499	0.298
Mof_C 	C 	0.9911	0.3062	0.635	0.306
Mof_O 	O 	0.1237	0.4487	0.4048	-0.267
Mof_O 	O 	0.156	0.4615	0.4829	-0.287
Mof_O 	O 	0.9959	0.3067	0.6876	-0.268
Mof_O 	O 	0.9722	0.2839	0.611	-0.286
Mof_C 	C 	0.0918	0.5751	0.7345	-0.024
Mof_H 	H 	0.0798	0.5915	0.7099	0.06
Mof_C 	C 	0.0847	0.5792	0.7844	-0.071
Mof_C 	C 	0.0985	0.55	0.8224	0.021
Mof_H 	H 	0.092	0.5522	0.8595	0.045
Mof_C 	C 	0.1232	0.5221	0.8022	-0.099
Mof_H 	H 	0.1347	0.5046	0.8258	0.072
Mof_C 	C 	0.132	0.5182	0.7497	0.053
Mof_C 	C 	0.1185	0.5449	0.7169	0.008
Mof_C 	C 	0.1251	0.5439	0.6588	-0.059
Mof_H 	H 	0.1125	0.5615	0.6364	0.063
Mof_C 	C 	0.1524	0.514	0.6375	-0.021
Mof_H 	H 	0.1613	0.5136	0.6011	0.065
Mof_C 	C 	0.1662	0.4853	0.6767	-0.036
Mof_C 	C 	0.1575	0.4882	0.7288	-0.066
Mof_H 	H 	0.1683	0.4702	0.7521	0.078
Mof_C 	C 	0.0559	0.6109	0.8037	0.37
Mof_C 	C 	0.1922	0.4529	0.654	0.323
Mof_O 	O 	0.0462	0.6062	0.85	-0.3
Mof_O 	O 	0.0453	0.634	0.7714	-0.315
Mof_O 	O 	0.1927	0.4512	0.6042	-0.293
Mof_O 	O 	0.2118	0.4346	0.6857	-0.277
Mof_C 	C 	0.3564	0.2955	0.6958	-0.067
Mof_H 	H 	0.3592	0.29	0.6598	0.069
Mof_C 	C 	0.3314	0.3218	0.7215	-0.023
Mof_C 	C 	0.3294	0.3253	0.7761	-0.023
Mof_H 	H 	0.3122	0.3441	0.7896	0.067
Mof_C 	C 	0.3506	0.3037	0.8126	-0.071
Mof_H 	H 	0.3485	0.3087	0.8489	0.066
Mof_C 	C 	0.3745	0.2751	0.7947	0.027
Mof_C 	C 	0.3765	0.2796	0.7404	0.049
Mof_C 	C 	0.3998	0.2517	0.7183	-0.088
Mof_H 	H 	0.4026	0.2472	0.682	0.069
Mof_C 	C 	0.419	0.2305	0.7587	-0.004
Mof_H 	H 	0.4363	0.212	0.7445	0.059
Mof_C 	C 	0.4194	0.2297	0.8146	-0.046
Mof_C 	C 	0.3925	0.2557	0.8373	-0.042
Mof_H 	H 	0.3882	0.2587	0.8749	0.063
Mof_C 	C 	0.2994	0.3485	0.6893	0.312
Mof_C 	C 	0.4468	0.1992	0.8403	0.3
Mof_O 	O 	0.3024	0.3488	0.6411	-0.268
Mof_O 	O 	0.2803	0.3708	0.7166	-0.26
Mof_O 	O 	0.4432	0.197	0.8908	-0.24
Mof_O 	O 	0.4702	0.181	0.8119	-0.299
Mof_C 	C 	0.0219	0.6777	0.3202	-0.023
Mof_H 	H 	0.0085	0.6937	0.3461	0.054
Mof_C 	C 	0.0144	0.6835	0.2664	-0.076
Mof_C 	C 	0.036	0.6621	0.2288	0.019
Mof_H 	H 	0.0344	0.6685	0.1929	0.049
Mof_C 	C 	0.06	0.6312	0.2449	-0.094
Mof_H 	H 	0.0676	0.6114	0.2202	0.075
Mof_C 	C 	0.0686	0.6267	0.297	0.059
Mof_C 	C 	0.0494	0.6493	0.3366	0.006
Mof_C 	C 	0.0569	0.6406	0.3893	-0.053
Mof_H 	H 	0.0439	0.6545	0.4176	0.055
Mof_C 	C 	0.0825	0.6106	0.4035	-0.022
Mof_H 	H 	0.0923	0.6043	0.4384	0.062
Mof_C 	C 	0.1014	0.5889	0.3639	-0.023
Mof_C 	C 	0.0942	0.5963	0.311	-0.075
Mof_H 	H 	0.1086	0.5803	0.2861	0.078
Mof_C 	C 	0.9873	0.715	0.2465	0.343
Mof_C 	C 	0.1319	0.5555	0.3734	0.282
Mof_O 	O 	0.9796	0.7431	0.2739	-0.301
Mof_O 	O 	0.9775	0.7119	0.1989	-0.284
Mof_O 	O 	0.1531	0.5359	0.3451	-0.251
Mof_O 	O 	0.1299	0.5476	0.4237	-0.244
Mof_Cd	Cd	0.25214	0.89656	0.13496	0.49
Mof_Cd	Cd	0.18019	0.99939	0.91463	0.498
Mof_Cd	Cd	0.21801	0.9461	0.02117	0.52
Mof_C 	C 	0.1046	0.9128	0.0349	-0.048
Mof_H 	H 	0.1231	0.9272	0.0546	0.074
Mof_C 	C 	0.1032	0.9181	0.9855	-0.031
Mof_C 	C 	0.0747	0.8931	0.9491	-0.012
Mof_H 	H 	0.0726	0.8969	0.9113	0.057
Mof_C 	C 	0.0517	0.8641	0.9808	-0.095
Mof_H 	H 	0.036	0.8464	0.9621	0.071
Mof_C 	C 	0.0517	0.8618	0.0293	0.058
Mof_C 	C 	0.0783	0.8847	0.0638	0.018
Mof_C 	C 	0.0788	0.8789	0.119	-0.059
Mof_H 	H 	0.1001	0.8907	0.1396	0.064
Mof_C 	C 	0.0525	0.8545	0.1418	-0.019
Mof_H 	H 	0.0528	0.8515	0.1786	0.061
Mof_C 	C 	0.0247	0.8335	0.1118	-0.028
Mof_C 	C 	0.0234	0.8361	0.0578	-0.076
Mof_H 	H 	0.0046	0.8216	0.0387	0.078
Mof_C 	C 	0.1309	0.9436	0.9499	0.298
Mof_C 	C 	0.9911	0.8062	0.135	0.307
Mof_O 	O 	0.1237	0.9487	0.9048	-0.267
Mof_O 	O 	0.156	0.9615	0.9829	-0.287
Mof_O 	O 	0.9959	0.8067	0.1876	-0.268
Mof_O 	O 	0.9722	0.7839	0.111	-0.286
Mof_C 	C 	0.0918	0.0751	0.2345	-0.024
Mof_H 	H 	0.0798	0.0915	0.2099	0.06
Mof_C 	C 	0.0847	0.0792	0.2844	-0.071
Mof_C 	C 	0.0985	0.05	0.3224	0.021
Mof_H 	H 	0.092	0.0522	0.3595	0.045
Mof_C 	C 	0.1232	0.0221	0.3022	-0.099
Mof_H 	H 	0.1347	0.0046	0.3258	0.072
Mof_C 	C 	0.132	0.0182	0.2497	0.053
Mof_C 	C 	0.1185	0.0449	0.2169	0.008
Mof_C 	C 	0.1251	0.0439	0.1588	-0.059
Mof_H 	H 	0.1125	0.0615	0.1364	0.063
Mof_C 	C 	0.1524	0.014	0.1375	-0.021
Mof_H 	H 	0.1613	0.0136	0.1011	0.065
Mof_C 	C 	0.1662	0.9853	0.1767	-0.036
Mof_C 	C 	0.1575	0.9882	0.2288	-0.066
Mof_H 	H 	0.1683	0.9702	0.2521	0.078
Mof_C 	C 	0.0559	0.1109	0.3037	0.37
Mof_C 	C 	0.1922	0.9529	0.154	0.323
Mof_O 	O 	0.0462	0.1062	0.35	-0.3
Mof_O 	O 	0.0453	0.134	0.2714	-0.315
Mof_O 	O 	0.1927	0.9512	0.1042	-0.293
Mof_O 	O 	0.2118	0.9346	0.1857	-0.277
Mof_C 	C 	0.3564	0.7955	0.1958	-0.067
Mof_H 	H 	0.3592	0.79	0.1598	0.069
Mof_C 	C 	0.3314	0.8218	0.2215	-0.023
Mof_C 	C 	0.3294	0.8253	0.2761	-0.023
Mof_H 	H 	0.3122	0.8441	0.2896	0.067
Mof_C 	C 	0.3506	0.8037	0.3126	-0.071
Mof_H 	H 	0.3485	0.8087	0.3489	0.066
Mof_C 	C 	0.3745	0.7751	0.2947	0.027
Mof_C 	C 	0.3765	0.7796	0.2404	0.049
Mof_C 	C 	0.3998	0.7517	0.2183	-0.088
Mof_H 	H 	0.4026	0.7472	0.182	0.069
Mof_C 	C 	0.419	0.7305	0.2587	-0.004
Mof_H 	H 	0.4363	0.712	0.2445	0.059
Mof_C 	C 	0.4194	0.7297	0.3146	-0.046
Mof_C 	C 	0.3925	0.7557	0.3373	-0.042
Mof_H 	H 	0.3882	0.7587	0.3749	0.063
Mof_C 	C 	0.2994	0.8485	0.1893	0.312
Mof_C 	C 	0.4468	0.6992	0.3403	0.3
Mof_O 	O 	0.3024	0.8488	0.1411	-0.268
Mof_O 	O 	0.2803	0.8708	0.2166	-0.26
Mof_O 	O 	0.4432	0.697	0.3908	-0.24
Mof_O 	O 	0.4702	0.681	0.3119	-0.299
Mof_C 	C 	0.0219	0.1777	0.8202	-0.023
Mof_H 	H 	0.0085	0.1937	0.8461	0.054
Mof_C 	C 	0.0144	0.1835	0.7664	-0.076
Mof_C 	C 	0.036	0.1621	0.7288	0.019
Mof_H 	H 	0.0344	0.1685	0.6929	0.049
Mof_C 	C 	0.06	0.1312	0.7449	-0.094
Mof_H 	H 	0.0676	0.1114	0.7202	0.075
Mof_C 	C 	0.0686	0.1267	0.797	0.059
Mof_C 	C 	0.0494	0.1493	0.8366	0.006
Mof_C 	C 	0.0569	0.1406	0.8893	-0.053
Mof_H 	H 	0.0439	0.1545	0.9176	0.055
Mof_C 	C 	0.0825	0.1106	0.9035	-0.022
Mof_H 	H 	0.0923	0.1043	0.9384	0.062
Mof_C 	C 	0.1014	0.0889	0.8639	-0.023
Mof_C 	C 	0.0942	0.0963	0.811	-0.075
Mof_H 	H 	0.1086	0.0803	0.7861	0.078
Mof_C 	C 	0.9873	0.215	0.7465	0.343
Mof_C 	C 	0.1319	0.0555	0.8734	0.282
Mof_O 	O 	0.9796	0.2431	0.7739	-0.301
Mof_O 	O 	0.9775	0.2119	0.6989	-0.284
Mof_O 	O 	0.1531	0.0359	0.8451	-0.251
Mof_O 	O 	0.1299	0.0476	0.9237	-0.244
_end
