data_functionalizedCrystal
_audit_creation_method	'EQeq! by Chris Wilmer'
_symmetry_space_group_name_H-M	'P1'
_symmetry_Int_Tables_number	1
_symmetry_cell_setting	triclinic
loop_
_symmetry_equiv_pos_as_xyz
  x,y,z
_cell_length_a	8.1241
_cell_length_b	30.3843
_cell_length_c	15.6616
_cell_angle_alpha	90
_cell_angle_beta	90
_cell_angle_gamma	90
loop_
_atom_site_label
_atom_site_type_symbol
_atom_site_fract_x
_atom_site_fract_y
_atom_site_fract_z
_atom_site_charge
Mof_La	La	0.9344	0.59121	0.70363	2.134
Mof_O 	O 	0.8897	0.46119	0.3895	-0.44
Mof_O 	O 	0.7418	0.40625	0.3387	-0.588
Mof_O 	O 	0.4941	0.52466	0.7102	-0.508
Mof_O 	O 	0.7389	0.53863	0.6513	-0.554
Mof_O 	O 	0.1554	0.63204	0.816	-0.569
Mof_O 	O 	0.9888	0.67043	0.7339	-0.498
Mof_C 	C 	0.6608	0.43974	0.4719	-0.188
Mof_C 	C 	0.5288	0.41202	0.4866	0.112
Mof_H 	H 	0.5069	0.3894	0.4463	-0.011
Mof_N 	N 	0.4306	0.41547	0.5547	-0.156
Mof_C 	C 	0.4595	0.44872	0.6088	0.121
Mof_H 	H 	0.3875	0.4523	0.6561	0.01
Mof_C 	C 	0.5892	0.47823	0.5995	-0.213
Mof_C 	C 	0.6921	0.473	0.5305	0.13
Mof_H 	H 	0.7839	0.492	0.523	0.007
Mof_C 	C 	0.7676	0.43579	0.3938	0.381
Mof_C 	C 	0.6089	0.51632	0.6586	0.505
Mof_C 	C 	0.148	0.71064	0.8315	-0.201
Mof_C 	C 	0.2456	0.71234	0.9044	0.133
Mof_H 	H 	0.2804	0.6854	0.9293	-0.03
Mof_C 	C 	0.0964	0.66846	0.792	0.429
Mof_La	La	0.5656	0.40879	0.20363	2.139
Mof_O 	O 	0.6103	0.53881	0.8895	-0.44
Mof_O 	O 	0.7582	0.59375	0.8387	-0.589
Mof_O 	O 	0.0059	0.47534	0.2102	-0.509
Mof_O 	O 	0.7611	0.46137	0.1513	-0.554
Mof_O 	O 	0.3446	0.36796	0.316	-0.568
Mof_O 	O 	0.5112	0.32957	0.2339	-0.495
Mof_C 	C 	0.8392	0.56026	0.9719	-0.188
Mof_C 	C 	0.9712	0.58798	0.9866	0.109
Mof_H 	H 	0.9931	0.6106	0.9463	-0.012
Mof_N 	N 	0.0694	0.58453	0.0547	-0.155
Mof_C 	C 	0.0405	0.55128	0.1088	0.122
Mof_H 	H 	0.1125	0.5477	0.1561	0.01
Mof_C 	C 	0.9108	0.52177	0.0995	-0.214
Mof_C 	C 	0.8079	0.527	0.0305	0.13
Mof_H 	H 	0.7161	0.508	0.023	0.007
Mof_C 	C 	0.7324	0.56421	0.8938	0.381
Mof_C 	C 	0.8911	0.48368	0.1586	0.506
Mof_C 	C 	0.352	0.28936	0.3315	-0.2
Mof_C 	C 	0.2544	0.28766	0.4044	0.132
Mof_H 	H 	0.2196	0.3146	0.4293	-0.03
Mof_C 	C 	0.4036	0.33154	0.292	0.425
Mof_La	La	0.0656	0.09121	0.29637	2.135
Mof_O 	O 	0.1103	0.96119	0.6105	-0.439
Mof_O 	O 	0.2582	0.90625	0.6613	-0.588
Mof_O 	O 	0.5059	0.02466	0.2898	-0.508
Mof_O 	O 	0.2611	0.03863	0.3487	-0.554
Mof_O 	O 	0.8446	0.13204	0.184	-0.569
Mof_O 	O 	0.0112	0.17043	0.2661	-0.498
Mof_C 	C 	0.3392	0.93974	0.5281	-0.188
Mof_C 	C 	0.4712	0.91202	0.5134	0.112
Mof_H 	H 	0.4931	0.8894	0.5537	-0.011
Mof_N 	N 	0.5694	0.91547	0.4453	-0.156
Mof_C 	C 	0.5405	0.94872	0.3912	0.121
Mof_H 	H 	0.6125	0.9523	0.3439	0.01
Mof_C 	C 	0.4108	0.97823	0.4005	-0.213
Mof_C 	C 	0.3079	0.973	0.4695	0.13
Mof_H 	H 	0.2161	0.992	0.477	0.007
Mof_C 	C 	0.2324	0.93579	0.6062	0.381
Mof_C 	C 	0.3911	0.01632	0.3414	0.504
Mof_C 	C 	0.852	0.21064	0.1685	-0.201
Mof_C 	C 	0.7544	0.21234	0.0956	0.133
Mof_H 	H 	0.7196	0.1854	0.0707	-0.03
Mof_C 	C 	0.9036	0.16846	0.208	0.43
Mof_La	La	0.4344	0.90879	0.79637	2.139
Mof_O 	O 	0.3897	0.03881	0.1105	-0.44
Mof_O 	O 	0.2418	0.09375	0.1613	-0.589
Mof_O 	O 	0.9941	0.97534	0.7898	-0.509
Mof_O 	O 	0.2389	0.96137	0.8487	-0.554
Mof_O 	O 	0.6554	0.86796	0.684	-0.568
Mof_O 	O 	0.4888	0.82957	0.7661	-0.495
Mof_C 	C 	0.1608	0.06026	0.0281	-0.189
Mof_C 	C 	0.0288	0.08798	0.0134	0.109
Mof_H 	H 	0.0069	0.1106	0.0537	-0.012
Mof_N 	N 	0.9306	0.08453	0.9453	-0.155
Mof_C 	C 	0.9595	0.05128	0.8912	0.123
Mof_H 	H 	0.8875	0.0477	0.8439	0.01
Mof_C 	C 	0.0892	0.02177	0.9005	-0.215
Mof_C 	C 	0.1921	0.027	0.9695	0.131
Mof_H 	H 	0.2839	0.008	0.977	0.007
Mof_C 	C 	0.2676	0.06421	0.1062	0.381
Mof_C 	C 	0.1089	0.98368	0.8414	0.506
Mof_C 	C 	0.648	0.78936	0.6685	-0.2
Mof_C 	C 	0.7456	0.78766	0.5956	0.132
Mof_H 	H 	0.7804	0.8146	0.5707	-0.03
Mof_C 	C 	0.5964	0.83154	0.708	0.425
Mof_La	La	0.0656	0.40879	0.29637	2.135
Mof_O 	O 	0.1103	0.53881	0.6105	-0.439
Mof_O 	O 	0.2582	0.59375	0.6613	-0.588
Mof_O 	O 	0.5059	0.47534	0.2898	-0.508
Mof_O 	O 	0.2611	0.46137	0.3487	-0.554
Mof_O 	O 	0.8446	0.36796	0.184	-0.569
Mof_O 	O 	0.0112	0.32957	0.2661	-0.498
Mof_C 	C 	0.3392	0.56026	0.5281	-0.188
Mof_C 	C 	0.4712	0.58798	0.5134	0.112
Mof_H 	H 	0.4931	0.6106	0.5537	-0.011
Mof_N 	N 	0.5694	0.58453	0.4453	-0.156
Mof_C 	C 	0.5405	0.55128	0.3912	0.121
Mof_H 	H 	0.6125	0.5477	0.3439	0.01
Mof_C 	C 	0.4108	0.52177	0.4005	-0.213
Mof_C 	C 	0.3079	0.527	0.4695	0.13
Mof_H 	H 	0.2161	0.508	0.477	0.007
Mof_C 	C 	0.2324	0.56421	0.6062	0.381
Mof_C 	C 	0.3911	0.48368	0.3414	0.505
Mof_C 	C 	0.852	0.28936	0.1685	-0.201
Mof_C 	C 	0.7544	0.28766	0.0956	0.133
Mof_H 	H 	0.7196	0.3146	0.0707	-0.03
Mof_C 	C 	0.9036	0.33154	0.208	0.429
Mof_La	La	0.4344	0.59121	0.79637	2.139
Mof_O 	O 	0.3897	0.46119	0.1105	-0.44
Mof_O 	O 	0.2418	0.40625	0.1613	-0.589
Mof_O 	O 	0.9941	0.52466	0.7898	-0.509
Mof_O 	O 	0.2389	0.53863	0.8487	-0.554
Mof_O 	O 	0.6554	0.63204	0.684	-0.568
Mof_O 	O 	0.4888	0.67043	0.7661	-0.495
Mof_C 	C 	0.1608	0.43974	0.0281	-0.188
Mof_C 	C 	0.0288	0.41202	0.0134	0.109
Mof_H 	H 	0.0069	0.3894	0.0537	-0.012
Mof_N 	N 	0.9306	0.41547	0.9453	-0.155
Mof_C 	C 	0.9595	0.44872	0.8912	0.122
Mof_H 	H 	0.8875	0.4523	0.8439	0.01
Mof_C 	C 	0.0892	0.47823	0.9005	-0.214
Mof_C 	C 	0.1921	0.473	0.9695	0.13
Mof_H 	H 	0.2839	0.492	0.977	0.007
Mof_C 	C 	0.2676	0.43579	0.1062	0.381
Mof_C 	C 	0.1089	0.51632	0.8414	0.506
Mof_C 	C 	0.648	0.71064	0.6685	-0.2
Mof_C 	C 	0.7456	0.71234	0.5956	0.132
Mof_H 	H 	0.7804	0.6854	0.5707	-0.03
Mof_C 	C 	0.5964	0.66846	0.708	0.425
Mof_La	La	0.9344	0.90879	0.70363	2.135
Mof_O 	O 	0.8897	0.03881	0.3895	-0.439
Mof_O 	O 	0.7418	0.09375	0.3387	-0.588
Mof_O 	O 	0.4941	0.97534	0.7102	-0.508
Mof_O 	O 	0.7389	0.96137	0.6513	-0.554
Mof_O 	O 	0.1554	0.86796	0.816	-0.569
Mof_O 	O 	0.9888	0.82957	0.7339	-0.498
Mof_C 	C 	0.6608	0.06026	0.4719	-0.188
Mof_C 	C 	0.5288	0.08798	0.4866	0.112
Mof_H 	H 	0.5069	0.1106	0.4463	-0.011
Mof_N 	N 	0.4306	0.08453	0.5547	-0.156
Mof_C 	C 	0.4595	0.05128	0.6088	0.121
Mof_H 	H 	0.3875	0.0477	0.6561	0.01
Mof_C 	C 	0.5892	0.02177	0.5995	-0.213
Mof_C 	C 	0.6921	0.027	0.5305	0.13
Mof_H 	H 	0.7839	0.008	0.523	0.007
Mof_C 	C 	0.7676	0.06421	0.3938	0.381
Mof_C 	C 	0.6089	0.98368	0.6586	0.504
Mof_C 	C 	0.148	0.78936	0.8315	-0.201
Mof_C 	C 	0.2456	0.78766	0.9044	0.133
Mof_H 	H 	0.2804	0.8146	0.9293	-0.03
Mof_C 	C 	0.0964	0.83154	0.792	0.43
Mof_La	La	0.5656	0.09121	0.20363	2.139
Mof_O 	O 	0.6103	0.96119	0.8895	-0.44
Mof_O 	O 	0.7582	0.90625	0.8387	-0.589
Mof_O 	O 	0.0059	0.02466	0.2102	-0.509
Mof_O 	O 	0.7611	0.03863	0.1513	-0.554
Mof_O 	O 	0.3446	0.13204	0.316	-0.568
Mof_O 	O 	0.5112	0.17043	0.2339	-0.495
Mof_C 	C 	0.8392	0.93974	0.9719	-0.189
Mof_C 	C 	0.9712	0.91202	0.9866	0.109
Mof_H 	H 	0.9931	0.8894	0.9463	-0.012
Mof_N 	N 	0.0694	0.91547	0.0547	-0.155
Mof_C 	C 	0.0405	0.94872	0.1088	0.123
Mof_H 	H 	0.1125	0.9523	0.1561	0.01
Mof_C 	C 	0.9108	0.97823	0.0995	-0.215
Mof_C 	C 	0.8079	0.973	0.0305	0.131
Mof_H 	H 	0.7161	0.992	0.023	0.007
Mof_C 	C 	0.7324	0.93579	0.8938	0.381
Mof_C 	C 	0.8911	0.01632	0.1586	0.506
Mof_C 	C 	0.352	0.21064	0.3315	-0.2
Mof_C 	C 	0.2544	0.21234	0.4044	0.132
Mof_H 	H 	0.2196	0.1854	0.4293	-0.03
Mof_C 	C 	0.4036	0.16846	0.292	0.425
Mof_N 	N 	0.2929	0.75	0.9413	-0.158
Mof_C 	C 	0.0977	0.75	0.7953	0.13
Mof_H 	H 	0.0294	0.75	0.7461	0.015
Mof_N 	N 	0.2071	0.25	0.4413	-0.158
Mof_C 	C 	0.4023	0.25	0.2953	0.128
Mof_H 	H 	0.4706	0.25	0.2461	0.014
Mof_N 	N 	0.7071	0.25	0.0587	-0.158
Mof_C 	C 	0.9023	0.25	0.2047	0.13
Mof_H 	H 	0.9706	0.25	0.2539	0.015
Mof_N 	N 	0.7929	0.75	0.5587	-0.158
Mof_C 	C 	0.5977	0.75	0.7047	0.128
Mof_H 	H 	0.5294	0.75	0.7539	0.014
_end
