data_functionalizedCrystal
_audit_creation_method	'EQeq! by Chris Wilmer'
_symmetry_space_group_name_H-M	'P1'
_symmetry_Int_Tables_number	1
_symmetry_cell_setting	triclinic
loop_
_symmetry_equiv_pos_as_xyz
  x,y,z
_cell_length_a	8.6032
_cell_length_b	13.223
_cell_length_c	13.481
_cell_angle_alpha	90
_cell_angle_beta	92.386
_cell_angle_gamma	90
loop_
_atom_site_label
_atom_site_type_symbol
_atom_site_fract_x
_atom_site_fract_y
_atom_site_fract_z
_atom_site_charge
Mof_Be	Be	0.4203	0.1196	0.7501	0.782
Mof_Be	Be	0.6768	0.3263	0.9041	0.765
Mof_Be	Be	0.8418	0.5039	0.2584	0.78
Mof_P 	P 	0.65881	0.10076	0.90597	0.508
Mof_H 	H 	0.6427	0.075	0.0009	-0.013
Mof_P 	P 	0.39464	0.34009	0.77125	0.517
Mof_H 	H 	0.466	0.3846	0.6985	-0.04
Mof_P 	P 	0.81356	0.45396	0.75046	0.541
Mof_H 	H 	0.7377	0.4152	0.6734	-0.034
Mof_P 	P 	0.6903	0.36229	0.12333	0.51
Mof_H 	H 	0.6984	0.2645	0.1386	-0.033
Mof_O 	O 	0.7758	0.028	0.8651	-0.358
Mof_O 	O 	0.4981	0.0937	0.8565	-0.394
Mof_O 	O 	0.7235	0.2076	0.9085	-0.365
Mof_O 	O 	0.3577	0.2337	0.7402	-0.361
Mof_O 	O 	0.498	0.3446	0.8646	-0.363
Mof_O 	O 	0.2438	0.3959	0.7874	-0.338
Mof_O 	O 	0.7349	0.5528	0.7713	-0.353
Mof_O 	O 	0.9769	0.47	0.7209	-0.35
Mof_O 	O 	0.8034	0.3788	0.8331	-0.353
Mof_O 	O 	0.6999	0.3794	0.0123	-0.332
Mof_O 	O 	0.8268	0.4104	0.1798	-0.346
Mof_O 	O 	0.5346	0.3986	0.159	-0.367
Mof_Be	Be	0.5797	0.6196	0.7499	0.782
Mof_Be	Be	0.3232	0.8263	0.5959	0.764
Mof_Be	Be	0.1582	0.0039	0.2416	0.771
Mof_P 	P 	0.34119	0.60076	0.59403	0.507
Mof_H 	H 	0.3573	0.575	0.4991	-0.012
Mof_P 	P 	0.60536	0.84009	0.72875	0.517
Mof_H 	H 	0.534	0.8846	0.8015	-0.04
Mof_P 	P 	0.18644	0.95396	0.74954	0.541
Mof_H 	H 	0.2623	0.9152	0.8266	-0.035
Mof_P 	P 	0.3097	0.86229	0.37667	0.51
Mof_H 	H 	0.3016	0.7645	0.3614	-0.033
Mof_O 	O 	0.2242	0.528	0.6349	-0.362
Mof_O 	O 	0.5019	0.5937	0.6435	-0.395
Mof_O 	O 	0.2765	0.7076	0.5915	-0.365
Mof_O 	O 	0.6423	0.7337	0.7598	-0.361
Mof_O 	O 	0.502	0.8446	0.6354	-0.363
Mof_O 	O 	0.7562	0.8959	0.7126	-0.338
Mof_O 	O 	0.2651	0.0528	0.7287	-0.353
Mof_O 	O 	0.0231	0.97	0.7791	-0.346
Mof_O 	O 	0.1966	0.8788	0.6669	-0.352
Mof_O 	O 	0.3001	0.8794	0.4877	-0.331
Mof_O 	O 	0.1732	0.9104	0.3202	-0.343
Mof_O 	O 	0.4654	0.8986	0.341	-0.366
Mof_Be	Be	0.5797	0.8804	0.2499	0.782
Mof_Be	Be	0.3232	0.6737	0.0959	0.765
Mof_Be	Be	0.1582	0.4961	0.7416	0.78
Mof_P 	P 	0.34119	0.89924	0.09403	0.508
Mof_H 	H 	0.3573	0.925	0.9991	-0.013
Mof_P 	P 	0.60536	0.65991	0.22875	0.517
Mof_H 	H 	0.534	0.6154	0.3015	-0.04
Mof_P 	P 	0.18644	0.54604	0.24954	0.541
Mof_H 	H 	0.2623	0.5848	0.3266	-0.034
Mof_P 	P 	0.3097	0.63771	0.87667	0.51
Mof_H 	H 	0.3016	0.7355	0.8614	-0.033
Mof_O 	O 	0.2242	0.972	0.1349	-0.358
Mof_O 	O 	0.5019	0.9063	0.1435	-0.394
Mof_O 	O 	0.2765	0.7924	0.0915	-0.365
Mof_O 	O 	0.6423	0.7663	0.2598	-0.361
Mof_O 	O 	0.502	0.6554	0.1354	-0.363
Mof_O 	O 	0.7562	0.6041	0.2126	-0.338
Mof_O 	O 	0.2651	0.4472	0.2287	-0.353
Mof_O 	O 	0.0231	0.53	0.2791	-0.35
Mof_O 	O 	0.1966	0.6212	0.1669	-0.353
Mof_O 	O 	0.3001	0.6206	0.9877	-0.332
Mof_O 	O 	0.1732	0.5896	0.8202	-0.346
Mof_O 	O 	0.4654	0.6014	0.841	-0.367
Mof_Be	Be	0.4203	0.3804	0.2501	0.782
Mof_Be	Be	0.6768	0.1737	0.4041	0.764
Mof_Be	Be	0.8418	0.9961	0.7584	0.771
Mof_P 	P 	0.65881	0.39924	0.40597	0.507
Mof_H 	H 	0.6427	0.425	0.5009	-0.012
Mof_P 	P 	0.39464	0.15991	0.27125	0.517
Mof_H 	H 	0.466	0.1154	0.1985	-0.04
Mof_P 	P 	0.81356	0.04604	0.25046	0.541
Mof_H 	H 	0.7377	0.0848	0.1734	-0.035
Mof_P 	P 	0.6903	0.13771	0.62333	0.51
Mof_H 	H 	0.6984	0.2355	0.6386	-0.033
Mof_O 	O 	0.7758	0.472	0.3651	-0.362
Mof_O 	O 	0.4981	0.4063	0.3565	-0.395
Mof_O 	O 	0.7235	0.2924	0.4085	-0.365
Mof_O 	O 	0.3577	0.2663	0.2402	-0.361
Mof_O 	O 	0.498	0.1554	0.3646	-0.363
Mof_O 	O 	0.2438	0.1041	0.2874	-0.338
Mof_O 	O 	0.7349	0.9472	0.2713	-0.353
Mof_O 	O 	0.9769	0.03	0.2209	-0.346
Mof_O 	O 	0.8034	0.1212	0.3331	-0.352
Mof_O 	O 	0.6999	0.1206	0.5123	-0.331
Mof_O 	O 	0.8268	0.0896	0.6798	-0.343
Mof_O 	O 	0.5346	0.1014	0.659	-0.366
_end
