# CIF file generated by openbabel 3.1.0, see https://openbabel.org
data_I
_chemical_name_common 'image0'
_cell_length_a 11.5791
_cell_length_b 15.2623
_cell_length_c 19.2483
_cell_angle_alpha 70.394
_cell_angle_beta 76.587
_cell_angle_gamma 82.732
_space_group_name_H-M_alt 'P 1'
_space_group_name_Hall 'P 1'
loop_
    _symmetry_equiv_pos_as_xyz
    x,y,z
loop_
    _atom_site_label
    _atom_site_type_symbol
    _atom_site_fract_x
    _atom_site_fract_y
    _atom_site_fract_z
    _atom_site_occupancy
    C1       C        0.86200    0.69820    0.31130    1.000
    H1       H        0.78980    0.70510    0.29620    1.000
    C2       C        0.94400    0.76670    0.27330    1.000
    H2       H        0.92600    0.81820    0.23400    1.000
    C3       C        0.05270    0.75730    0.29440    1.000
    C4       C        0.07290    0.67990    0.35510    1.000
    H3       H        0.14350    0.67180    0.37220    1.000
    C5       C        0.98630    0.61520    0.38960    1.000
    H4       H        0.00150    0.56350    0.42950    1.000
    C6       C        0.14560    0.82680    0.25480    1.000
    C7       C        0.15280    0.87950    0.17910    1.000
    H5       H        0.09830    0.87240    0.15300    1.000
    C8       C        0.24120    0.94250    0.14290    1.000
    H6       H        0.24490    0.97790    0.09260    1.000
    C9       C        0.32430    0.95330    0.18090    1.000
    C10      C        0.31720    0.90010    0.25580    1.000
    H7       H        0.37250    0.90640    0.28180    1.000
    C11      C        0.22890    0.83780    0.29240    1.000
    H8       H        0.22510    0.80280    0.34270    1.000
    C12      C        0.41660    0.02230    0.14310    1.000
    C13      C        0.56260    0.91410    0.08490    1.000
    H9       H        0.61630    0.92540    0.03630    1.000
    H10      H        0.49440    0.88430    0.08340    1.000
    C14      C        0.62440    0.84960    0.14460    1.000
    H11      H        0.69180    0.87880    0.14650    1.000
    H12      H        0.65060    0.79300    0.13290    1.000
    H13      H        0.57040    0.83570    0.19250    1.000
    C15      C        0.58540    0.08050    0.07320    1.000
    H14      H        0.66040    0.08580    0.04210    1.000
    C16      C        0.42100    0.11090    0.14310    1.000
    C17      C        0.33000    0.16630    0.17990    1.000
    C18      C        0.29570    0.25790    0.14110    1.000
    H15      H        0.33070    0.28460    0.09070    1.000
    C19      C        0.21040    0.30900    0.17710    1.000
    H16      H        0.18790    0.36930    0.15010    1.000
    C20      C        0.15720    0.27190    0.25310    1.000
    C21      C        0.19260    0.18040    0.29170    1.000
    H17      H        0.15840    0.15410    0.34220    1.000
    C22      C        0.27670    0.12890    0.25630    1.000
    H18      H        0.29860    0.06850    0.28330    1.000
    C23      C        0.06930    0.32700    0.29230    1.000
    C24      C        0.99200    0.39340    0.25550    1.000
    H19      H        0.99480    0.40470    0.20450    1.000
    C25      C        0.90960    0.44320    0.29550    1.000
    H20      H        0.85880    0.48810    0.26980    1.000
    C26      C        0.97690    0.36690    0.40400    1.000
    H21      H        0.97340    0.35770    0.45470    1.000
    C27      C        0.06150    0.31490    0.36790    1.000
    H22      H        0.11300    0.27190    0.39450    1.000
    C28      C        0.58010    0.31990    0.94730    1.000
    C29      C        0.53650    0.34340    0.87670    1.000
    C30      C        0.60690    0.31770    0.81590    1.000
    H23      H        0.67820    0.28290    0.82100    1.000
    C31      C        0.56930    0.34450    0.74850    1.000
    H24      H        0.61750    0.33010    0.70740    1.000
    C32      C        0.46040    0.39260    0.74130    1.000
    C33      C        0.38860    0.41350    0.80360    1.000
    H25      H        0.31410    0.44350    0.79990    1.000
    C34      C        0.42710    0.39020    0.87020    1.000
    H26      H        0.37970    0.40580    0.91090    1.000
    C35      C        0.42160    0.42530    0.66730    1.000
    C36      C        0.76010    0.44260    0.02250    1.000
    C37      C        0.88440    0.47380    0.01080    1.000
    C38      C        0.97900    0.40730    0.01870    1.000
    H27      H        0.96450    0.34470    0.03140    1.000
    C39      C        0.90640    0.56740    0.99200    1.000
    H28      H        0.84420    0.61260    0.98670    1.000
    C40      C        0.52950    0.61450    0.82900    1.000
    C41      C        0.58090    0.60150    0.75310    1.000
    C42      C        0.68470    0.54510    0.74330    1.000
    H29      H        0.72350    0.51700    0.78310    1.000
    C43      C        0.72910    0.53140    0.67470    1.000
    H30      H        0.79970    0.49590    0.66770    1.000
    C44      C        0.66870    0.57040    0.61574    1.000
    C45      C        0.56550    0.62650    0.62550    1.000
    H31      H        0.52560    0.65360    0.58610    1.000
    C46      C        0.52300    0.64140    0.69350    1.000
    H32      H        0.45410    0.67900    0.69970    1.000
    C47      C        0.71110    0.54910    0.54310    1.000
    C48      C        0.66760    0.32300    0.51620    1.000
    C49      C        0.56780    0.25700    0.55280    1.000
    H33      H        0.57880    0.20910    0.52960    1.000
    H34      H        0.49310    0.29080    0.54660    1.000
    H35      H        0.56800    0.22930    0.60560    1.000
    Co1      Co       0.61505    0.26997    0.08187    1.000
    Co2      Co       0.76856    0.50808    0.42199    1.000
    N1       N        0.52230    0.00390    0.09780    1.000
    N2       N        0.52750    0.14750    0.09889    1.000
    N3       N        0.90020    0.42950    0.36899    1.000
    N4       N        0.88240    0.62300    0.36869    1.000
    O1       O        0.52430    0.35671    0.99829    1.000
    O2       O        0.66660    0.26234    0.96114    1.000
    O3       O        0.31250    0.44503    0.66791    1.000
    O4       O        0.50180    0.42955    0.60933    1.000
    O5       O        0.55240    0.55034    0.88613    1.000
    O6       O        0.46870    0.69060    0.82748    1.000
    O7       O        0.64410    0.57773    0.49367    1.000
    O8       O        0.80730    0.50496    0.52964    1.000
    O9       O        0.68050    0.50427    0.00227    1.000
    O10      O        0.74880    0.35650    0.05223    1.000
    O11      O        0.64230    0.40722    0.47553    1.000
    O12      O        0.76940    0.29460    0.52490    1.000
    C50      C        0.13800    0.30180    0.68870    1.000
    H36      H        0.21020    0.29490    0.70380    1.000
    C51      C        0.05600    0.23330    0.72670    1.000
    H37      H        0.07400    0.18180    0.76600    1.000
    C52      C        0.94730    0.24270    0.70560    1.000
    C53      C        0.92710    0.32010    0.64490    1.000
    H38      H        0.85650    0.32820    0.62780    1.000
    C54      C        0.01370    0.38480    0.61040    1.000
    H39      H        0.99850    0.43650    0.57050    1.000
    C55      C        0.85440    0.17320    0.74520    1.000
    C56      C        0.84720    0.12050    0.82090    1.000
    H40      H        0.90170    0.12760    0.84700    1.000
    C57      C        0.75880    0.05750    0.85710    1.000
    H41      H        0.75510    0.02210    0.90740    1.000
    C58      C        0.67570    0.04670    0.81910    1.000
    C59      C        0.68280    0.09990    0.74420    1.000
    H42      H        0.62750    0.09360    0.71820    1.000
    C60      C        0.77110    0.16220    0.70760    1.000
    H43      H        0.77490    0.19720    0.65730    1.000
    C61      C        0.58340    0.97770    0.85690    1.000
    C62      C        0.43740    0.08590    0.91510    1.000
    H44      H        0.38370    0.07460    0.96370    1.000
    H45      H        0.50560    0.11570    0.91660    1.000
    C63      C        0.37560    0.15040    0.85540    1.000
    H46      H        0.30820    0.12120    0.85350    1.000
    H47      H        0.34940    0.20700    0.86710    1.000
    H48      H        0.42960    0.16430    0.80750    1.000
    C64      C        0.41460    0.91950    0.92680    1.000
    H49      H        0.33960    0.91420    0.95790    1.000
    C65      C        0.57900    0.88910    0.85690    1.000
    C66      C        0.67000    0.83370    0.82010    1.000
    C67      C        0.70430    0.74210    0.85890    1.000
    H50      H        0.66930    0.71540    0.90930    1.000
    C68      C        0.78960    0.69100    0.82290    1.000
    H51      H        0.81210    0.63070    0.84990    1.000
    C69      C        0.84280    0.72810    0.74690    1.000
    C70      C        0.80740    0.81960    0.70830    1.000
    H52      H        0.84160    0.84590    0.65780    1.000
    C71      C        0.72330    0.87110    0.74370    1.000
    H53      H        0.70140    0.93150    0.71670    1.000
    C72      C        0.93070    0.67300    0.70770    1.000
    C73      C        0.00800    0.60660    0.74450    1.000
    H54      H        0.00520    0.59530    0.79550    1.000
    C74      C        0.09040    0.55680    0.70450    1.000
    H55      H        0.14120    0.51190    0.73020    1.000
    C75      C        0.02310    0.63310    0.59600    1.000
    H56      H        0.02660    0.64230    0.54530    1.000
    C76      C        0.93850    0.68510    0.63210    1.000
    H57      H        0.88700    0.72810    0.60550    1.000
    C77      C        0.41990    0.68010    0.05270    1.000
    C78      C        0.46350    0.65660    0.12330    1.000
    C79      C        0.39310    0.68230    0.18410    1.000
    H58      H        0.32180    0.71710    0.17900    1.000
    C80      C        0.43070    0.65550    0.25150    1.000
    H59      H        0.38250    0.66990    0.29260    1.000
    C81      C        0.53960    0.60740    0.25870    1.000
    C82      C        0.61140    0.58650    0.19640    1.000
    H60      H        0.68590    0.55650    0.20010    1.000
    C83      C        0.57290    0.60980    0.12980    1.000
    H61      H        0.62030    0.59420    0.08910    1.000
    C84      C        0.57840    0.57470    0.33270    1.000
    C85      C        0.23990    0.55740    0.97750    1.000
    C86      C        0.11560    0.52620    0.98920    1.000
    C87      C        0.02100    0.59270    0.98130    1.000
    H62      H        0.03550    0.65530    0.96860    1.000
    C88      C        0.09360    0.43260    0.00800    1.000
    H63      H        0.15580    0.38740    0.01330    1.000
    C89      C        0.47050    0.38550    0.17100    1.000
    C90      C        0.41910    0.39850    0.24690    1.000
    C91      C        0.31530    0.45490    0.25670    1.000
    H64      H        0.27650    0.48300    0.21690    1.000
    C92      C        0.27090    0.46860    0.32530    1.000
    H65      H        0.20030    0.50410    0.33230    1.000
    C93      C        0.33130    0.42960    0.38426    1.000
    C94      C        0.43450    0.37350    0.37450    1.000
    H66      H        0.47440    0.34640    0.41390    1.000
    C95      C        0.47700    0.35860    0.30650    1.000
    H67      H        0.54590    0.32100    0.30030    1.000
    C96      C        0.28890    0.45090    0.45690    1.000
    C97      C        0.33240    0.67700    0.48380    1.000
    C98      C        0.43220    0.74300    0.44720    1.000
    H68      H        0.42120    0.79090    0.47040    1.000
    H69      H        0.50690    0.70920    0.45340    1.000
    H70      H        0.43200    0.77070    0.39440    1.000
    Co3      Co       0.38495    0.73003    0.91813    1.000
    Co4      Co       0.23144    0.49192    0.57801    1.000
    N5       N        0.47770    0.99610    0.90220    1.000
    N6       N        0.47250    0.85250    0.90111    1.000
    N7       N        0.09980    0.57050    0.63101    1.000
    N8       N        0.11760    0.37700    0.63131    1.000
    O13      O        0.47570    0.64329    0.00171    1.000
    O14      O        0.33340    0.73766    0.03886    1.000
    O15      O        0.68750    0.55497    0.33209    1.000
    O16      O        0.49820    0.57045    0.39067    1.000
    O17      O        0.44760    0.44966    0.11387    1.000
    O18      O        0.53130    0.30940    0.17252    1.000
    O19      O        0.35590    0.42227    0.50633    1.000
    O20      O        0.19270    0.49504    0.47036    1.000
    O21      O        0.31950    0.49573    0.99773    1.000
    O22      O        0.25120    0.64350    0.94777    1.000
    O23      O        0.35770    0.59278    0.52447    1.000
    O24      O        0.23060    0.70540    0.47510    1.000
    Co5      Co       0.50000    0.50000    0.00000    1.000
    Co6      Co       0.50000    0.50000    0.50000    1.000
