data_functionalizedCrystal
_audit_creation_method	'EQeq! by Chris Wilmer'
_symmetry_space_group_name_H-M	'P1'
_symmetry_Int_Tables_number	1
_symmetry_cell_setting	triclinic
loop_
_symmetry_equiv_pos_as_xyz
  x,y,z
_cell_length_a	24.0626
_cell_length_b	15.1916
_cell_length_c	10.4865
_cell_angle_alpha	90
_cell_angle_beta	90
_cell_angle_gamma	90
loop_
_atom_site_label
_atom_site_type_symbol
_atom_site_fract_x
_atom_site_fract_y
_atom_site_fract_z
_atom_site_charge
Mof_O 	O 	0.732	0.1551	0.5647	-0.509
Mof_O 	O 	0.66468	0.1576	0.7118	-0.461
Mof_C 	C 	0.687	0.129	0.6149	0.385
Mof_C 	C 	0.6932	0.868	0.3186	0.395
Mof_O 	O 	0.73836	0.845	0.3657	-0.514
Mof_O 	O 	0.67174	0.8414	0.2173	-0.478
Mof_C 	C 	0.6881	0.9971	0.4679	0.004
Mof_H 	H 	0.7268	0.9992	0.4678	-0.033
Mof_N 	N 	0.5145	0.9841	0.4531	-0.055
Mof_C 	C 	0.6029	0.9332	0.3899	-0.052
Mof_H 	H 	0.5846	0.8945	0.3355	0.077
Mof_C 	C 	0.6577	0.0571	0.5414	-0.107
Mof_C 	C 	0.6605	0.9345	0.3953	-0.115
Mof_C 	C 	0.6004	0.0525	0.5446	-0.056
Mof_H 	H 	0.5802	0.0899	0.5974	0.081
Mof_C 	C 	0.5728	0.9908	0.4674	0.081
Mof_O 	O 	0.4987	0.987	0.3238	-0.139
Mof_C 	C 	0.3808	0.8641	0.879	-0.088
Mof_N 	N 	0.3752	0.7818	0.8187	-0.102
Mof_N 	N 	0.343	0.7676	0.0181	-0.135
Mof_C 	C 	0.351	0.722	0.9054	0.107
Mof_C 	C 	0.363	0.8549	0.005	-0.039
Mof_N 	N 	0.6219	0.7834	0.7564	-0.1
Mof_C 	C 	0.6211	0.8678	0.809	-0.281
Mof_C 	C 	0.6441	0.8592	0.931	-0.859
Mof_N 	N 	0.6659	0.7747	0.9409	-0.113
Mof_C 	C 	0.6702	0.8824	0.8507	1.427
Mof_C 	C 	0.3252	0.8754	0.9086	0.072
Mof_C 	C 	0.686	0.9065	0.993	-1.477
Mof_C 	C 	0.6429	0.7157	0.8477	0.171
Mof_C 	C 	0.4424	0.742	0.6487	-0.042
Mof_C 	C 	0.5421	0.745	0.6281	-0.042
Mof_C 	C 	0.3837	0.74	0.6929	-0.014
Mof_C 	C 	0.4936	0.7763	0.6863	-0.059
Mof_C 	C 	0.2905	0.934	0.0042	-0.592
Mof_C 	C 	0.2746	0.8538	0.8125	-0.068
Mof_H 	H 	0.612	0.7894	0.5655	-0.003
Mof_H 	H 	0.6151	0.6927	0.6167	0.054
Mof_H 	H 	0.4509	0.6802	0.6375	0.049
Mof_H 	H 	0.4387	0.7651	0.5628	0.023
Mof_H 	H 	0.5367	0.6814	0.6341	0.061
Mof_H 	H 	0.5351	0.7583	0.5392	0.022
Mof_H 	H 	0.3605	0.7689	0.6303	0.012
Mof_H 	H 	0.3717	0.6787	0.6979	0.047
Mof_H 	H 	0.4972	0.7666	0.7774	0.046
Mof_H 	H 	0.4924	0.8394	0.6731	0.041
Mof_H 	H 	0.394	0.9155	0.8418	0.066
Mof_H 	H 	0.364	0.8977	0.0687	0.04
Mof_H 	H 	0.608	0.9191	0.7706	0.239
Mof_H 	H 	0.6446	0.9023	0.9938	0.66
Mof_H 	H 	0.6438	0.5744	0.8168	-0.376
Mof_H 	H 	0.7114	0.604	0.6749	0.577
Mof_H 	H 	0.7526	0.5974	0.7903	0.552
Mof_H 	H 	0.7298	0.6894	0.7474	0.567
Mof_H 	H 	0.6914	0.6467	0.041	0.42
Mof_H 	H 	0.7197	0.5596	0.9937	0.486
Mof_H 	H 	0.6565	0.5598	0.0306	0.173
Mof_H 	H 	0.3511	0.5856	0.8637	0.017
Mof_H 	H 	0.2888	0.6754	0.7381	-0.021
Mof_H 	H 	0.2482	0.6838	0.8544	-0.036
Mof_H 	H 	0.2567	0.5924	0.7877	0.088
Mof_H 	H 	0.2847	0.5089	0.9677	0.143
Mof_H 	H 	0.2552	0.5936	0.0198	0.235
Mof_H 	H 	0.3103	0.5605	0.0831	0.21
Mof_C 	C 	0.7209	0.628	0.7567	-1.863
Mof_O 	O 	0.768	0.8449	0.0647	-0.508
Mof_O 	O 	0.83532	0.8424	0.2118	-0.461
Mof_C 	C 	0.813	0.871	0.1149	0.385
Mof_C 	C 	0.8068	0.132	0.8186	0.396
Mof_O 	O 	0.76164	0.155	0.8657	-0.512
Mof_O 	O 	0.82826	0.1586	0.7173	-0.479
Mof_C 	C 	0.8119	0.0029	0.9679	0.007
Mof_H 	H 	0.7732	0.0008	0.9678	-0.032
Mof_N 	N 	0.9855	0.0159	0.9531	-0.055
Mof_C 	C 	0.8971	0.0668	0.8899	-0.052
Mof_H 	H 	0.9154	0.1055	0.8355	0.077
Mof_C 	C 	0.8423	0.9429	0.0414	-0.11
Mof_C 	C 	0.8395	0.0655	0.8953	-0.115
Mof_C 	C 	0.8996	0.9475	0.0446	-0.059
Mof_H 	H 	0.9198	0.9101	0.0974	0.081
Mof_C 	C 	0.9272	0.0092	0.9674	0.083
Mof_O 	O 	0.0013	0.013	0.8238	-0.14
Mof_C 	C 	0.1192	0.1359	0.379	-0.088
Mof_N 	N 	0.1248	0.2182	0.3187	-0.102
Mof_N 	N 	0.157	0.2324	0.5181	-0.134
Mof_C 	C 	0.149	0.278	0.4054	0.106
Mof_C 	C 	0.137	0.1451	0.505	-0.051
Mof_N 	N 	0.8781	0.2166	0.2564	-0.1
Mof_C 	C 	0.8789	0.1322	0.309	-0.29
Mof_C 	C 	0.8559	0.1408	0.431	-0.875
Mof_N 	N 	0.8341	0.2253	0.4409	-0.113
Mof_C 	C 	0.8298	0.1176	0.3507	1.464
Mof_C 	C 	0.1748	0.1246	0.4086	0.099
Mof_C 	C 	0.814	0.0935	0.493	-1.525
Mof_C 	C 	0.8571	0.2843	0.3477	0.169
Mof_C 	C 	0.0576	0.258	0.1487	-0.043
Mof_C 	C 	0.9579	0.255	0.1281	-0.042
Mof_C 	C 	0.1163	0.26	0.1929	-0.014
Mof_C 	C 	0.0064	0.2237	0.1863	-0.058
Mof_C 	C 	0.2095	0.066	0.5042	-0.627
Mof_C 	C 	0.2254	0.1462	0.3125	-0.103
Mof_H 	H 	0.888	0.2106	0.0655	-0.003
Mof_H 	H 	0.8849	0.3073	0.1167	0.053
Mof_H 	H 	0.0491	0.3198	0.1375	0.05
Mof_H 	H 	0.0613	0.2349	0.0628	0.024
Mof_H 	H 	0.9633	0.3186	0.1341	0.06
Mof_H 	H 	0.9649	0.2417	0.0392	0.022
Mof_H 	H 	0.1395	0.2311	0.1303	0.012
Mof_H 	H 	0.1283	0.3213	0.1979	0.047
Mof_H 	H 	0.0028	0.2334	0.2774	0.046
Mof_H 	H 	0.0076	0.1606	0.1731	0.041
Mof_H 	H 	0.106	0.0845	0.3418	0.068
Mof_H 	H 	0.136	0.1023	0.5687	0.043
Mof_H 	H 	0.892	0.0809	0.2706	0.245
Mof_H 	H 	0.8554	0.0977	0.4938	0.672
Mof_H 	H 	0.8562	0.4256	0.3168	-0.388
Mof_H 	H 	0.7886	0.396	0.1749	0.592
Mof_H 	H 	0.7474	0.4026	0.2903	0.568
Mof_H 	H 	0.7702	0.3106	0.2474	0.581
Mof_H 	H 	0.8086	0.3533	0.541	0.437
Mof_H 	H 	0.7803	0.4404	0.4937	0.497
Mof_H 	H 	0.8435	0.4402	0.5306	0.184
Mof_H 	H 	0.1489	0.4144	0.3637	0.009
Mof_H 	H 	0.2112	0.3246	0.2381	-0.008
Mof_H 	H 	0.2518	0.3162	0.3544	-0.023
Mof_H 	H 	0.2433	0.4076	0.2877	0.1
Mof_H 	H 	0.2153	0.4911	0.4677	0.156
Mof_H 	H 	0.2448	0.4064	0.5198	0.246
Mof_H 	H 	0.1897	0.4395	0.5831	0.221
Mof_C 	C 	0.7791	0.372	0.2567	-1.91
Mof_O 	O 	0.268	0.6551	0.4353	-0.508
Mof_O 	O 	0.33532	0.6576	0.2882	-0.46
Mof_C 	C 	0.313	0.629	0.3851	0.385
Mof_C 	C 	0.3068	0.368	0.6814	0.395
Mof_O 	O 	0.26164	0.345	0.6343	-0.514
Mof_O 	O 	0.32826	0.3414	0.7827	-0.478
Mof_C 	C 	0.3119	0.4971	0.5321	0.004
Mof_H 	H 	0.2732	0.4992	0.5322	-0.033
Mof_N 	N 	0.4855	0.4841	0.5469	-0.055
Mof_C 	C 	0.3971	0.4332	0.6101	-0.052
Mof_H 	H 	0.4154	0.3945	0.6645	0.077
Mof_C 	C 	0.3423	0.5571	0.4586	-0.107
Mof_C 	C 	0.3395	0.4345	0.6047	-0.115
Mof_C 	C 	0.3996	0.5525	0.4554	-0.056
Mof_H 	H 	0.4198	0.5899	0.4026	0.081
Mof_C 	C 	0.4272	0.4908	0.5326	0.081
Mof_O 	O 	0.5013	0.487	0.6762	-0.139
Mof_C 	C 	0.6192	0.3641	0.121	-0.088
Mof_N 	N 	0.6248	0.2818	0.1813	-0.102
Mof_N 	N 	0.657	0.2676	0.9819	-0.134
Mof_C 	C 	0.649	0.222	0.0946	0.107
Mof_C 	C 	0.637	0.3549	0.995	-0.039
Mof_N 	N 	0.3781	0.2834	0.2436	-0.102
Mof_C 	C 	0.3789	0.3678	0.191	-0.283
Mof_C 	C 	0.3559	0.3592	0.069	-0.859
Mof_N 	N 	0.3341	0.2747	0.0591	-0.114
Mof_C 	C 	0.3298	0.3824	0.1493	1.426
Mof_C 	C 	0.6748	0.3754	0.0914	0.071
Mof_C 	C 	0.314	0.4065	0.007	-1.477
Mof_C 	C 	0.3571	0.2157	0.1523	0.166
Mof_C 	C 	0.5576	0.242	0.3513	-0.042
Mof_C 	C 	0.4579	0.245	0.3719	-0.042
Mof_C 	C 	0.6163	0.24	0.3071	-0.014
Mof_C 	C 	0.5064	0.2763	0.3137	-0.059
Mof_C 	C 	0.7095	0.434	0.9958	-0.59
Mof_C 	C 	0.7254	0.3538	0.1875	-0.067
Mof_H 	H 	0.388	0.2894	0.4345	-0.003
Mof_H 	H 	0.3849	0.1927	0.3833	0.053
Mof_H 	H 	0.5491	0.1802	0.3625	0.049
Mof_H 	H 	0.5613	0.2651	0.4372	0.023
Mof_H 	H 	0.4633	0.1814	0.3659	0.061
Mof_H 	H 	0.4649	0.2583	0.4608	0.022
Mof_H 	H 	0.6395	0.2689	0.3697	0.012
Mof_H 	H 	0.6283	0.1787	0.3021	0.047
Mof_H 	H 	0.5028	0.2666	0.2226	0.046
Mof_H 	H 	0.5076	0.3394	0.3269	0.041
Mof_H 	H 	0.606	0.4155	0.1582	0.066
Mof_H 	H 	0.636	0.3977	0.9313	0.04
Mof_H 	H 	0.392	0.4191	0.2294	0.24
Mof_H 	H 	0.3554	0.4023	0.0062	0.66
Mof_H 	H 	0.3562	0.0744	0.1832	-0.376
Mof_H 	H 	0.2886	0.104	0.3251	0.577
Mof_H 	H 	0.2474	0.0974	0.2097	0.552
Mof_H 	H 	0.2702	0.1894	0.2526	0.567
Mof_H 	H 	0.3086	0.1467	0.959	0.42
Mof_H 	H 	0.2803	0.0596	0.0063	0.485
Mof_H 	H 	0.3435	0.0598	0.9694	0.173
Mof_H 	H 	0.6489	0.0856	0.1363	0.017
Mof_H 	H 	0.7112	0.1754	0.2619	-0.02
Mof_H 	H 	0.7518	0.1838	0.1456	-0.035
Mof_H 	H 	0.7433	0.0924	0.2123	0.088
Mof_H 	H 	0.7153	0.0089	0.0323	0.144
Mof_H 	H 	0.7448	0.0936	0.9802	0.236
Mof_H 	H 	0.6897	0.0605	0.9169	0.211
Mof_C 	C 	0.2791	0.128	0.2433	-1.863
Mof_O 	O 	0.232	0.3449	0.9353	-0.508
Mof_O 	O 	0.16468	0.3424	0.7882	-0.461
Mof_C 	C 	0.187	0.371	0.8851	0.385
Mof_C 	C 	0.1932	0.632	0.1814	0.396
Mof_O 	O 	0.23836	0.655	0.1343	-0.512
Mof_O 	O 	0.17174	0.6586	0.2827	-0.479
Mof_C 	C 	0.1881	0.5029	0.0321	0.008
Mof_H 	H 	0.2268	0.5008	0.0322	-0.032
Mof_N 	N 	0.0145	0.5159	0.0469	-0.055
Mof_C 	C 	0.1029	0.5668	0.1101	-0.052
Mof_H 	H 	0.0846	0.6055	0.1645	0.077
Mof_C 	C 	0.1577	0.4429	0.9586	-0.11
Mof_C 	C 	0.1605	0.5655	0.1047	-0.115
Mof_C 	C 	0.1004	0.4475	0.9554	-0.059
Mof_H 	H 	0.0802	0.4101	0.9026	0.081
Mof_C 	C 	0.0728	0.5092	0.0326	0.084
Mof_O 	O 	0.9987	0.513	0.1762	-0.14
Mof_C 	C 	0.8808	0.6359	0.621	-0.088
Mof_N 	N 	0.8752	0.7182	0.6813	-0.102
Mof_N 	N 	0.843	0.7324	0.4819	-0.134
Mof_C 	C 	0.851	0.778	0.5946	0.106
Mof_C 	C 	0.863	0.6451	0.495	-0.051
Mof_N 	N 	0.1219	0.7166	0.7436	-0.1
Mof_C 	C 	0.1211	0.6322	0.691	-0.29
Mof_C 	C 	0.1441	0.6408	0.569	-0.876
Mof_N 	N 	0.1659	0.7253	0.5591	-0.114
Mof_C 	C 	0.1702	0.6176	0.6493	1.466
Mof_C 	C 	0.8252	0.6246	0.5914	0.099
Mof_C 	C 	0.186	0.5935	0.507	-1.526
Mof_C 	C 	0.1429	0.7843	0.6523	0.167
Mof_C 	C 	0.9424	0.758	0.8513	-0.043
Mof_C 	C 	0.0421	0.755	0.8719	-0.042
Mof_C 	C 	0.8837	0.76	0.8071	-0.014
Mof_C 	C 	0.9936	0.7237	0.8137	-0.058
Mof_C 	C 	0.7905	0.566	0.4958	-0.627
Mof_C 	C 	0.7746	0.6462	0.6875	-0.103
Mof_H 	H 	0.112	0.7106	0.9345	-0.003
Mof_H 	H 	0.1151	0.8073	0.8833	0.053
Mof_H 	H 	0.9509	0.8198	0.8625	0.05
Mof_H 	H 	0.9387	0.7349	0.9372	0.024
Mof_H 	H 	0.0367	0.8186	0.8659	0.06
Mof_H 	H 	0.0351	0.7417	0.9608	0.022
Mof_H 	H 	0.8605	0.7311	0.8697	0.012
Mof_H 	H 	0.8717	0.8213	0.8021	0.047
Mof_H 	H 	0.9972	0.7334	0.7226	0.046
Mof_H 	H 	0.9924	0.6606	0.8269	0.041
Mof_H 	H 	0.894	0.5845	0.6582	0.068
Mof_H 	H 	0.864	0.6023	0.4313	0.043
Mof_H 	H 	0.108	0.5809	0.7294	0.245
Mof_H 	H 	0.1446	0.5977	0.5062	0.672
Mof_H 	H 	0.1438	0.9256	0.6832	-0.387
Mof_H 	H 	0.2114	0.896	0.8251	0.591
Mof_H 	H 	0.2526	0.9026	0.7097	0.568
Mof_H 	H 	0.2298	0.8106	0.7526	0.58
Mof_H 	H 	0.1914	0.8533	0.459	0.437
Mof_H 	H 	0.2197	0.9404	0.5063	0.497
Mof_H 	H 	0.1565	0.9402	0.4694	0.184
Mof_H 	H 	0.8511	0.9144	0.6363	0.009
Mof_H 	H 	0.7888	0.8246	0.7619	-0.008
Mof_H 	H 	0.7482	0.8162	0.6456	-0.023
Mof_H 	H 	0.7567	0.9076	0.7123	0.1
Mof_H 	H 	0.7847	0.9911	0.5323	0.156
Mof_H 	H 	0.7552	0.9064	0.4802	0.246
Mof_H 	H 	0.8103	0.9395	0.4169	0.221
Mof_C 	C 	0.2209	0.872	0.7433	-1.908
Mof_O 	O 	0.268	0.8449	0.4353	-0.508
Mof_O 	O 	0.33532	0.8424	0.2882	-0.46
Mof_C 	C 	0.313	0.871	0.3851	0.385
Mof_C 	C 	0.3068	0.132	0.6814	0.395
Mof_O 	O 	0.26164	0.155	0.6343	-0.514
Mof_O 	O 	0.32826	0.1586	0.7827	-0.478
Mof_C 	C 	0.3119	0.0029	0.5321	0.004
Mof_H 	H 	0.2732	0.0008	0.5322	-0.033
Mof_N 	N 	0.4855	0.0159	0.5469	-0.055
Mof_C 	C 	0.3971	0.0668	0.6101	-0.052
Mof_H 	H 	0.4154	0.1055	0.6645	0.077
Mof_C 	C 	0.3423	0.9429	0.4586	-0.107
Mof_C 	C 	0.3395	0.0655	0.6047	-0.115
Mof_C 	C 	0.3996	0.9475	0.4554	-0.056
Mof_H 	H 	0.4198	0.9101	0.4026	0.081
Mof_C 	C 	0.4272	0.0092	0.5326	0.081
Mof_O 	O 	0.5013	0.013	0.6762	-0.139
Mof_C 	C 	0.6192	0.1359	0.121	-0.088
Mof_N 	N 	0.6248	0.2182	0.1813	-0.102
Mof_N 	N 	0.657	0.2324	0.9819	-0.135
Mof_C 	C 	0.649	0.278	0.0946	0.107
Mof_C 	C 	0.637	0.1451	0.995	-0.039
Mof_N 	N 	0.3781	0.2166	0.2436	-0.1
Mof_C 	C 	0.3789	0.1322	0.191	-0.281
Mof_C 	C 	0.3559	0.1408	0.069	-0.859
Mof_N 	N 	0.3341	0.2253	0.0591	-0.113
Mof_C 	C 	0.3298	0.1176	0.1493	1.427
Mof_C 	C 	0.6748	0.1246	0.0914	0.072
Mof_C 	C 	0.314	0.0935	0.007	-1.477
Mof_C 	C 	0.3571	0.2843	0.1523	0.171
Mof_C 	C 	0.5576	0.258	0.3513	-0.042
Mof_C 	C 	0.4579	0.255	0.3719	-0.042
Mof_C 	C 	0.6163	0.26	0.3071	-0.014
Mof_C 	C 	0.5064	0.2237	0.3137	-0.059
Mof_C 	C 	0.7095	0.066	0.9958	-0.592
Mof_C 	C 	0.7254	0.1462	0.1875	-0.068
Mof_H 	H 	0.388	0.2106	0.4345	-0.003
Mof_H 	H 	0.3849	0.3073	0.3833	0.054
Mof_H 	H 	0.5491	0.3198	0.3625	0.049
Mof_H 	H 	0.5613	0.2349	0.4372	0.023
Mof_H 	H 	0.4633	0.3186	0.3659	0.061
Mof_H 	H 	0.4649	0.2417	0.4608	0.022
Mof_H 	H 	0.6395	0.2311	0.3697	0.012
Mof_H 	H 	0.6283	0.3213	0.3021	0.047
Mof_H 	H 	0.5028	0.2334	0.2226	0.046
Mof_H 	H 	0.5076	0.1606	0.3269	0.041
Mof_H 	H 	0.606	0.0845	0.1582	0.066
Mof_H 	H 	0.636	0.1023	0.9313	0.04
Mof_H 	H 	0.392	0.0809	0.2294	0.239
Mof_H 	H 	0.3554	0.0977	0.0062	0.66
Mof_H 	H 	0.3562	0.4256	0.1832	-0.376
Mof_H 	H 	0.2886	0.396	0.3251	0.577
Mof_H 	H 	0.2474	0.4026	0.2097	0.552
Mof_H 	H 	0.2702	0.3106	0.2526	0.567
Mof_H 	H 	0.3086	0.3533	0.959	0.42
Mof_H 	H 	0.2803	0.4404	0.0063	0.486
Mof_H 	H 	0.3435	0.4402	0.9694	0.173
Mof_H 	H 	0.6489	0.4144	0.1363	0.017
Mof_H 	H 	0.7112	0.3246	0.2619	-0.021
Mof_H 	H 	0.7518	0.3162	0.1456	-0.036
Mof_H 	H 	0.7433	0.4076	0.2123	0.088
Mof_H 	H 	0.7153	0.4911	0.0323	0.143
Mof_H 	H 	0.7448	0.4064	0.9802	0.235
Mof_H 	H 	0.6897	0.4395	0.9169	0.21
Mof_C 	C 	0.2791	0.372	0.2433	-1.863
Mof_O 	O 	0.232	0.1551	0.9353	-0.508
Mof_O 	O 	0.16468	0.1576	0.7882	-0.461
Mof_C 	C 	0.187	0.129	0.8851	0.385
Mof_C 	C 	0.1932	0.868	0.1814	0.396
Mof_O 	O 	0.23836	0.845	0.1343	-0.512
Mof_O 	O 	0.17174	0.8414	0.2827	-0.479
Mof_C 	C 	0.1881	0.9971	0.0321	0.007
Mof_H 	H 	0.2268	0.9992	0.0322	-0.032
Mof_N 	N 	0.0145	0.9841	0.0469	-0.055
Mof_C 	C 	0.1029	0.9332	0.1101	-0.052
Mof_H 	H 	0.0846	0.8945	0.1645	0.077
Mof_C 	C 	0.1577	0.0571	0.9586	-0.11
Mof_C 	C 	0.1605	0.9345	0.1047	-0.115
Mof_C 	C 	0.1004	0.0525	0.9554	-0.059
Mof_H 	H 	0.0802	0.0899	0.9026	0.081
Mof_C 	C 	0.0728	0.9908	0.0326	0.083
Mof_O 	O 	0.9987	0.987	0.1762	-0.14
Mof_C 	C 	0.8808	0.8641	0.621	-0.088
Mof_N 	N 	0.8752	0.7818	0.6813	-0.102
Mof_N 	N 	0.843	0.7676	0.4819	-0.134
Mof_C 	C 	0.851	0.722	0.5946	0.106
Mof_C 	C 	0.863	0.8549	0.495	-0.051
Mof_N 	N 	0.1219	0.7834	0.7436	-0.1
Mof_C 	C 	0.1211	0.8678	0.691	-0.29
Mof_C 	C 	0.1441	0.8592	0.569	-0.875
Mof_N 	N 	0.1659	0.7747	0.5591	-0.113
Mof_C 	C 	0.1702	0.8824	0.6493	1.464
Mof_C 	C 	0.8252	0.8754	0.5914	0.099
Mof_C 	C 	0.186	0.9065	0.507	-1.525
Mof_C 	C 	0.1429	0.7157	0.6523	0.169
Mof_C 	C 	0.9424	0.742	0.8513	-0.043
Mof_C 	C 	0.0421	0.745	0.8719	-0.042
Mof_C 	C 	0.8837	0.74	0.8071	-0.014
Mof_C 	C 	0.9936	0.7763	0.8137	-0.058
Mof_C 	C 	0.7905	0.934	0.4958	-0.627
Mof_C 	C 	0.7746	0.8538	0.6875	-0.103
Mof_H 	H 	0.112	0.7894	0.9345	-0.003
Mof_H 	H 	0.1151	0.6927	0.8833	0.053
Mof_H 	H 	0.9509	0.6802	0.8625	0.05
Mof_H 	H 	0.9387	0.7651	0.9372	0.024
Mof_H 	H 	0.0367	0.6814	0.8659	0.06
Mof_H 	H 	0.0351	0.7583	0.9608	0.022
Mof_H 	H 	0.8605	0.7689	0.8697	0.012
Mof_H 	H 	0.8717	0.6787	0.8021	0.047
Mof_H 	H 	0.9972	0.7666	0.7226	0.046
Mof_H 	H 	0.9924	0.8394	0.8269	0.041
Mof_H 	H 	0.894	0.9155	0.6582	0.068
Mof_H 	H 	0.864	0.8977	0.4313	0.043
Mof_H 	H 	0.108	0.9191	0.7294	0.245
Mof_H 	H 	0.1446	0.9023	0.5062	0.672
Mof_H 	H 	0.1438	0.5744	0.6832	-0.388
Mof_H 	H 	0.2114	0.604	0.8251	0.592
Mof_H 	H 	0.2526	0.5974	0.7097	0.568
Mof_H 	H 	0.2298	0.6894	0.7526	0.581
Mof_H 	H 	0.1914	0.6467	0.459	0.437
Mof_H 	H 	0.2197	0.5596	0.5063	0.497
Mof_H 	H 	0.1565	0.5598	0.4694	0.184
Mof_H 	H 	0.8511	0.5856	0.6363	0.009
Mof_H 	H 	0.7888	0.6754	0.7619	-0.008
Mof_H 	H 	0.7482	0.6838	0.6456	-0.023
Mof_H 	H 	0.7567	0.5924	0.7123	0.1
Mof_H 	H 	0.7847	0.5089	0.5323	0.156
Mof_H 	H 	0.7552	0.5936	0.4802	0.246
Mof_H 	H 	0.8103	0.5605	0.4169	0.221
Mof_C 	C 	0.2209	0.628	0.7433	-1.91
Mof_O 	O 	0.732	0.3449	0.5647	-0.508
Mof_O 	O 	0.66468	0.3424	0.7118	-0.46
Mof_C 	C 	0.687	0.371	0.6149	0.385
Mof_C 	C 	0.6932	0.632	0.3186	0.395
Mof_O 	O 	0.73836	0.655	0.3657	-0.514
Mof_O 	O 	0.67174	0.6586	0.2173	-0.478
Mof_C 	C 	0.6881	0.5029	0.4679	0.004
Mof_H 	H 	0.7268	0.5008	0.4678	-0.033
Mof_N 	N 	0.5145	0.5159	0.4531	-0.055
Mof_C 	C 	0.6029	0.5668	0.3899	-0.052
Mof_H 	H 	0.5846	0.6055	0.3355	0.077
Mof_C 	C 	0.6577	0.4429	0.5414	-0.107
Mof_C 	C 	0.6605	0.5655	0.3953	-0.115
Mof_C 	C 	0.6004	0.4475	0.5446	-0.056
Mof_H 	H 	0.5802	0.4101	0.5974	0.081
Mof_C 	C 	0.5728	0.5092	0.4674	0.081
Mof_O 	O 	0.4987	0.513	0.3238	-0.139
Mof_C 	C 	0.3808	0.6359	0.879	-0.088
Mof_N 	N 	0.3752	0.7182	0.8187	-0.102
Mof_N 	N 	0.343	0.7324	0.0181	-0.134
Mof_C 	C 	0.351	0.778	0.9054	0.107
Mof_C 	C 	0.363	0.6451	0.005	-0.039
Mof_N 	N 	0.6219	0.7166	0.7564	-0.102
Mof_C 	C 	0.6211	0.6322	0.809	-0.283
Mof_C 	C 	0.6441	0.6408	0.931	-0.859
Mof_N 	N 	0.6659	0.7253	0.9409	-0.114
Mof_C 	C 	0.6702	0.6176	0.8507	1.426
Mof_C 	C 	0.3252	0.6246	0.9086	0.071
Mof_C 	C 	0.686	0.5935	0.993	-1.477
Mof_C 	C 	0.6429	0.7843	0.8477	0.166
Mof_C 	C 	0.4424	0.758	0.6487	-0.042
Mof_C 	C 	0.5421	0.755	0.6281	-0.042
Mof_C 	C 	0.3837	0.76	0.6929	-0.014
Mof_C 	C 	0.4936	0.7237	0.6863	-0.059
Mof_C 	C 	0.2905	0.566	0.0042	-0.59
Mof_C 	C 	0.2746	0.6462	0.8125	-0.067
Mof_H 	H 	0.612	0.7106	0.5655	-0.003
Mof_H 	H 	0.6151	0.8073	0.6167	0.053
Mof_H 	H 	0.4509	0.8198	0.6375	0.049
Mof_H 	H 	0.4387	0.7349	0.5628	0.023
Mof_H 	H 	0.5367	0.8186	0.6341	0.061
Mof_H 	H 	0.5351	0.7417	0.5392	0.022
Mof_H 	H 	0.3605	0.7311	0.6303	0.012
Mof_H 	H 	0.3717	0.8213	0.6979	0.047
Mof_H 	H 	0.4972	0.7334	0.7774	0.046
Mof_H 	H 	0.4924	0.6606	0.6731	0.041
Mof_H 	H 	0.394	0.5845	0.8418	0.066
Mof_H 	H 	0.364	0.6023	0.0687	0.04
Mof_H 	H 	0.608	0.5809	0.7706	0.24
Mof_H 	H 	0.6446	0.5977	0.9938	0.66
Mof_H 	H 	0.6438	0.9256	0.8168	-0.376
Mof_H 	H 	0.7114	0.896	0.6749	0.577
Mof_H 	H 	0.7526	0.9026	0.7903	0.552
Mof_H 	H 	0.7298	0.8106	0.7474	0.567
Mof_H 	H 	0.6914	0.8533	0.041	0.42
Mof_H 	H 	0.7197	0.9404	0.9937	0.485
Mof_H 	H 	0.6565	0.9402	0.0306	0.173
Mof_H 	H 	0.3511	0.9144	0.8637	0.017
Mof_H 	H 	0.2888	0.8246	0.7381	-0.02
Mof_H 	H 	0.2482	0.8162	0.8544	-0.035
Mof_H 	H 	0.2567	0.9076	0.7877	0.088
Mof_H 	H 	0.2847	0.9911	0.9677	0.144
Mof_H 	H 	0.2552	0.9064	0.0198	0.236
Mof_H 	H 	0.3103	0.9395	0.0831	0.211
Mof_C 	C 	0.7209	0.872	0.7567	-1.863
Mof_O 	O 	0.768	0.6551	0.0647	-0.508
Mof_O 	O 	0.83532	0.6576	0.2118	-0.461
Mof_C 	C 	0.813	0.629	0.1149	0.385
Mof_C 	C 	0.8068	0.368	0.8186	0.396
Mof_O 	O 	0.76164	0.345	0.8657	-0.512
Mof_O 	O 	0.82826	0.3414	0.7173	-0.479
Mof_C 	C 	0.8119	0.4971	0.9679	0.008
Mof_H 	H 	0.7732	0.4992	0.9678	-0.032
Mof_N 	N 	0.9855	0.4841	0.9531	-0.055
Mof_C 	C 	0.8971	0.4332	0.8899	-0.052
Mof_H 	H 	0.9154	0.3945	0.8355	0.077
Mof_C 	C 	0.8423	0.5571	0.0414	-0.11
Mof_C 	C 	0.8395	0.4345	0.8953	-0.115
Mof_C 	C 	0.8996	0.5525	0.0446	-0.059
Mof_H 	H 	0.9198	0.5899	0.0974	0.081
Mof_C 	C 	0.9272	0.4908	0.9674	0.084
Mof_O 	O 	0.0013	0.487	0.8238	-0.14
Mof_C 	C 	0.1192	0.3641	0.379	-0.088
Mof_N 	N 	0.1248	0.2818	0.3187	-0.102
Mof_N 	N 	0.157	0.2676	0.5181	-0.134
Mof_C 	C 	0.149	0.222	0.4054	0.106
Mof_C 	C 	0.137	0.3549	0.505	-0.051
Mof_N 	N 	0.8781	0.2834	0.2564	-0.1
Mof_C 	C 	0.8789	0.3678	0.309	-0.29
Mof_C 	C 	0.8559	0.3592	0.431	-0.876
Mof_N 	N 	0.8341	0.2747	0.4409	-0.114
Mof_C 	C 	0.8298	0.3824	0.3507	1.466
Mof_C 	C 	0.1748	0.3754	0.4086	0.099
Mof_C 	C 	0.814	0.4065	0.493	-1.526
Mof_C 	C 	0.8571	0.2157	0.3477	0.167
Mof_C 	C 	0.0576	0.242	0.1487	-0.043
Mof_C 	C 	0.9579	0.245	0.1281	-0.042
Mof_C 	C 	0.1163	0.24	0.1929	-0.014
Mof_C 	C 	0.0064	0.2763	0.1863	-0.058
Mof_C 	C 	0.2095	0.434	0.5042	-0.627
Mof_C 	C 	0.2254	0.3538	0.3125	-0.103
Mof_H 	H 	0.888	0.2894	0.0655	-0.003
Mof_H 	H 	0.8849	0.1927	0.1167	0.053
Mof_H 	H 	0.0491	0.1802	0.1375	0.05
Mof_H 	H 	0.0613	0.2651	0.0628	0.024
Mof_H 	H 	0.9633	0.1814	0.1341	0.06
Mof_H 	H 	0.9649	0.2583	0.0392	0.022
Mof_H 	H 	0.1395	0.2689	0.1303	0.012
Mof_H 	H 	0.1283	0.1787	0.1979	0.047
Mof_H 	H 	0.0028	0.2666	0.2774	0.046
Mof_H 	H 	0.0076	0.3394	0.1731	0.041
Mof_H 	H 	0.106	0.4155	0.3418	0.068
Mof_H 	H 	0.136	0.3977	0.5687	0.043
Mof_H 	H 	0.892	0.4191	0.2706	0.245
Mof_H 	H 	0.8554	0.4023	0.4938	0.672
Mof_H 	H 	0.8562	0.0744	0.3168	-0.387
Mof_H 	H 	0.7886	0.104	0.1749	0.591
Mof_H 	H 	0.7474	0.0974	0.2903	0.568
Mof_H 	H 	0.7702	0.1894	0.2474	0.58
Mof_H 	H 	0.8086	0.1467	0.541	0.437
Mof_H 	H 	0.7803	0.0596	0.4937	0.497
Mof_H 	H 	0.8435	0.0598	0.5306	0.184
Mof_H 	H 	0.1489	0.0856	0.3637	0.009
Mof_H 	H 	0.2112	0.1754	0.2381	-0.008
Mof_H 	H 	0.2518	0.1838	0.3544	-0.023
Mof_H 	H 	0.2433	0.0924	0.2877	0.1
Mof_H 	H 	0.2153	0.0089	0.4677	0.156
Mof_H 	H 	0.2448	0.0936	0.5198	0.246
Mof_H 	H 	0.1897	0.0605	0.5831	0.221
Mof_C 	C 	0.7791	0.128	0.2567	-1.908
Mof_Zn	Zn	0.71013	0.75	0.10479	1.2
Mof_Zn	Zn	0.29751	0.75	0.17666	1.221
Mof_C 	C 	0.5995	0.75	0.6331	-0.04
Mof_Zn	Zn	0.78987	0.25	0.60479	1.199
Mof_Zn	Zn	0.20249	0.25	0.67666	1.221
Mof_C 	C 	0.9005	0.25	0.1331	-0.04
Mof_Zn	Zn	0.28987	0.25	0.89521	1.2
Mof_Zn	Zn	0.70249	0.25	0.82334	1.221
Mof_C 	C 	0.4005	0.25	0.3669	-0.04
Mof_Zn	Zn	0.21013	0.75	0.39521	1.199
Mof_Zn	Zn	0.79751	0.75	0.32334	1.221
Mof_C 	C 	0.0995	0.75	0.8669	-0.04
_end
