data_functionalizedCrystal
_audit_creation_method	'EQeq! by Chris Wilmer'
_symmetry_space_group_name_H-M	'P1'
_symmetry_Int_Tables_number	1
_symmetry_cell_setting	triclinic
loop_
_symmetry_equiv_pos_as_xyz
  x,y,z
_cell_length_a	18.667
_cell_length_b	18.667
_cell_length_c	36.398
_cell_angle_alpha	90
_cell_angle_beta	90
_cell_angle_gamma	120
loop_
_atom_site_label
_atom_site_type_symbol
_atom_site_fract_x
_atom_site_fract_y
_atom_site_fract_z
_atom_site_charge
Mof_O 	O 	0.48125	0.36993	0.00175	-0.461
Mof_O 	O 	0.4091	0.439	0.04819	-0.452
Mof_N 	N 	0.5417	0.4209	0.07926	-0.127
Mof_C 	C 	0.5435	0.3496	0.07889	-0.018
Mof_H 	H 	0.5472	0.3274	0.0559	0.035
Mof_C 	C 	0.54	0.3066	0.11123	0.014
Mof_C 	C 	0.5362	0.341	0.1442	-0.065
Mof_H 	H 	0.5359	0.3146	0.1665	0.053
Mof_C 	C 	0.5328	0.413	0.14512	0.006
Mof_C 	C 	0.416	0.4556	0.25438	-0.02
Mof_H 	H 	0.3799	0.4037	0.2433	0.058
Mof_C 	C 	0.3918	0.4796	0.2866	-0.089
Mof_C 	C 	0.4496	0.3581	0.9701	0.379
Mof_O 	O 	0.14792	0.70326	0.33508	-0.461
Mof_O 	O 	0.07577	0.77233	0.38152	-0.452
Mof_N 	N 	0.20837	0.75423	0.41259	-0.127
Mof_C 	C 	0.21017	0.68293	0.41222	-0.018
Mof_H 	H 	0.21387	0.66073	0.38923	0.035
Mof_C 	C 	0.20667	0.63993	0.44456	0.015
Mof_C 	C 	0.20287	0.67433	0.47753	-0.064
Mof_H 	H 	0.20257	0.64793	0.49983	0.054
Mof_C 	C 	0.19947	0.74633	0.47845	0.007
Mof_C 	C 	0.08267	0.78893	0.58771	-0.019
Mof_H 	H 	0.04657	0.73703	0.57663	0.059
Mof_C 	C 	0.05847	0.81293	0.61993	-0.089
Mof_C 	C 	0.11627	0.69143	0.30343	0.38
Mof_O 	O 	0.81458	0.0366	0.66842	-0.46
Mof_O 	O 	0.74243	0.10567	0.71486	-0.45
Mof_N 	N 	0.87503	0.08757	0.74593	-0.126
Mof_C 	C 	0.87683	0.01627	0.74556	-0.015
Mof_H 	H 	0.88053	0.99407	0.72257	0.035
Mof_C 	C 	0.87333	0.97327	0.7779	0.013
Mof_C 	C 	0.86953	0.00767	0.81087	-0.062
Mof_H 	H 	0.86923	0.98127	0.83317	0.054
Mof_C 	C 	0.86613	0.07967	0.81179	0.006
Mof_C 	C 	0.74933	0.12227	0.92105	-0.019
Mof_H 	H 	0.71323	0.07037	0.90997	0.059
Mof_C 	C 	0.72513	0.14627	0.95327	-0.088
Mof_C 	C 	0.78293	0.02477	0.63677	0.38
Mof_O 	O 	0.63007	0.11132	0.00175	-0.46
Mof_O 	O 	0.561	0.9701	0.04819	-0.45
Mof_N 	N 	0.5791	0.1208	0.07926	-0.126
Mof_C 	C 	0.6504	0.1939	0.07889	-0.017
Mof_H 	H 	0.6726	0.2198	0.0559	0.036
Mof_C 	C 	0.6934	0.2334	0.11123	0.015
Mof_C 	C 	0.659	0.1952	0.1442	-0.064
Mof_H 	H 	0.6854	0.2213	0.1665	0.054
Mof_C 	C 	0.587	0.1198	0.14512	0.007
Mof_C 	C 	0.5444	0.9604	0.25438	-0.02
Mof_H 	H 	0.5963	0.9762	0.2433	0.059
Mof_C 	C 	0.5204	0.9122	0.2866	-0.088
Mof_C 	C 	0.6419	0.0915	0.9701	0.38
Mof_O 	O 	0.29674	0.44465	0.33508	-0.46
Mof_O 	O 	0.22767	0.30343	0.38152	-0.451
Mof_N 	N 	0.24577	0.45413	0.41259	-0.126
Mof_C 	C 	0.31707	0.52723	0.41222	-0.017
Mof_H 	H 	0.33927	0.55313	0.38923	0.036
Mof_C 	C 	0.36007	0.56673	0.44456	0.015
Mof_C 	C 	0.32567	0.52853	0.47753	-0.064
Mof_H 	H 	0.35207	0.55463	0.49983	0.055
Mof_C 	C 	0.25367	0.45313	0.47845	0.007
Mof_C 	C 	0.21107	0.29373	0.58771	-0.019
Mof_H 	H 	0.26297	0.30953	0.57663	0.059
Mof_C 	C 	0.18707	0.24553	0.61993	-0.088
Mof_C 	C 	0.30857	0.42483	0.30343	0.38
Mof_O 	O 	0.9634	0.77799	0.66842	-0.46
Mof_O 	O 	0.89433	0.63677	0.71486	-0.45
Mof_N 	N 	0.91243	0.78747	0.74593	-0.126
Mof_C 	C 	0.98373	0.86057	0.74556	-0.015
Mof_H 	H 	0.00593	0.88647	0.72257	0.035
Mof_C 	C 	0.02673	0.90007	0.7779	0.013
Mof_C 	C 	0.99233	0.86187	0.81087	-0.062
Mof_H 	H 	0.01873	0.88797	0.83317	0.053
Mof_C 	C 	0.92033	0.78647	0.81179	0.005
Mof_C 	C 	0.87773	0.62707	0.92105	-0.019
Mof_H 	H 	0.92963	0.64287	0.90997	0.059
Mof_C 	C 	0.85373	0.57887	0.95327	-0.088
Mof_C 	C 	0.97523	0.75817	0.63677	0.38
Mof_O 	O 	0.88868	0.51875	0.00175	-0.46
Mof_O 	O 	0.0299	0.5909	0.04819	-0.45
Mof_N 	N 	0.8792	0.4583	0.07926	-0.126
Mof_C 	C 	0.8061	0.4565	0.07889	-0.017
Mof_H 	H 	0.7802	0.4528	0.0559	0.036
Mof_C 	C 	0.7666	0.46	0.11123	0.015
Mof_C 	C 	0.8048	0.4638	0.1442	-0.064
Mof_H 	H 	0.7787	0.4641	0.1665	0.054
Mof_C 	C 	0.8802	0.4672	0.14512	0.007
Mof_C 	C 	0.0396	0.584	0.25438	-0.02
Mof_H 	H 	0.0238	0.6201	0.2433	0.059
Mof_C 	C 	0.0878	0.6082	0.2866	-0.088
Mof_C 	C 	0.9085	0.5504	0.9701	0.38
Mof_O 	O 	0.55535	0.85208	0.33508	-0.46
Mof_O 	O 	0.69657	0.92423	0.38152	-0.451
Mof_N 	N 	0.54587	0.79163	0.41259	-0.126
Mof_C 	C 	0.47277	0.78983	0.41222	-0.017
Mof_H 	H 	0.44687	0.78613	0.38923	0.036
Mof_C 	C 	0.43327	0.79333	0.44456	0.015
Mof_C 	C 	0.47147	0.79713	0.47753	-0.064
Mof_H 	H 	0.44537	0.79743	0.49983	0.054
Mof_C 	C 	0.54687	0.80053	0.47845	0.007
Mof_C 	C 	0.70627	0.91733	0.58771	-0.019
Mof_H 	H 	0.69047	0.95343	0.57663	0.059
Mof_C 	C 	0.75447	0.94153	0.61993	-0.089
Mof_C 	C 	0.57517	0.88373	0.30343	0.38
Mof_O 	O 	0.22201	0.18542	0.66842	-0.46
Mof_O 	O 	0.36323	0.25757	0.71486	-0.45
Mof_N 	N 	0.21253	0.12497	0.74593	-0.125
Mof_C 	C 	0.13943	0.12317	0.74556	-0.018
Mof_H 	H 	0.11353	0.11947	0.72257	0.036
Mof_C 	C 	0.09993	0.12667	0.7779	0.016
Mof_C 	C 	0.13813	0.13047	0.81087	-0.066
Mof_H 	H 	0.11203	0.13077	0.83317	0.055
Mof_C 	C 	0.21353	0.13387	0.81179	0.008
Mof_C 	C 	0.37293	0.25067	0.92105	-0.019
Mof_H 	H 	0.35713	0.28677	0.90997	0.059
Mof_C 	C 	0.42113	0.27487	0.95327	-0.088
Mof_C 	C 	0.24183	0.21707	0.63677	0.38
Mof_O 	O 	0.36993	0.48125	0.99825	-0.46
Mof_O 	O 	0.439	0.4091	0.95181	-0.451
Mof_N 	N 	0.4209	0.5417	0.92074	-0.126
Mof_C 	C 	0.3496	0.5435	0.92111	-0.017
Mof_H 	H 	0.3274	0.5472	0.9441	0.036
Mof_C 	C 	0.3066	0.54	0.88877	0.015
Mof_C 	C 	0.341	0.5362	0.8558	-0.064
Mof_H 	H 	0.3146	0.5359	0.8335	0.054
Mof_C 	C 	0.413	0.5328	0.85488	0.007
Mof_C 	C 	0.4556	0.416	0.74562	-0.019
Mof_H 	H 	0.4037	0.3799	0.7567	0.059
Mof_C 	C 	0.4796	0.3918	0.7134	-0.088
Mof_C 	C 	0.3581	0.4496	0.0299	0.38
Mof_O 	O 	0.0366	0.81458	0.33158	-0.46
Mof_O 	O 	0.10567	0.74243	0.28514	-0.45
Mof_N 	N 	0.08757	0.87503	0.25407	-0.126
Mof_C 	C 	0.01627	0.87683	0.25444	-0.015
Mof_H 	H 	0.99407	0.88053	0.27743	0.035
Mof_C 	C 	0.97327	0.87333	0.2221	0.013
Mof_C 	C 	0.00767	0.86953	0.18913	-0.062
Mof_H 	H 	0.98127	0.86923	0.16683	0.054
Mof_C 	C 	0.07967	0.86613	0.18821	0.006
Mof_C 	C 	0.12227	0.74933	0.07895	-0.019
Mof_H 	H 	0.07037	0.71323	0.09003	0.059
Mof_C 	C 	0.14627	0.72513	0.04673	-0.088
Mof_C 	C 	0.02477	0.78293	0.36323	0.38
Mof_O 	O 	0.70326	0.14792	0.66492	-0.46
Mof_O 	O 	0.77233	0.07577	0.61848	-0.451
Mof_N 	N 	0.75423	0.20837	0.58741	-0.126
Mof_C 	C 	0.68293	0.21017	0.58778	-0.017
Mof_H 	H 	0.66073	0.21387	0.61077	0.036
Mof_C 	C 	0.63993	0.20667	0.55544	0.015
Mof_C 	C 	0.67433	0.20287	0.52247	-0.064
Mof_H 	H 	0.64793	0.20257	0.50017	0.054
Mof_C 	C 	0.74633	0.19947	0.52155	0.007
Mof_C 	C 	0.78893	0.08267	0.41229	-0.019
Mof_H 	H 	0.73703	0.04657	0.42337	0.059
Mof_C 	C 	0.81293	0.05847	0.38007	-0.089
Mof_C 	C 	0.69143	0.11627	0.69657	0.38
Mof_O 	O 	0.11132	0.63007	0.99825	-0.46
Mof_O 	O 	0.9701	0.561	0.95181	-0.45
Mof_N 	N 	0.1208	0.5791	0.92074	-0.126
Mof_C 	C 	0.1939	0.6504	0.92111	-0.017
Mof_H 	H 	0.2198	0.6726	0.9441	0.036
Mof_C 	C 	0.2334	0.6934	0.88877	0.015
Mof_C 	C 	0.1952	0.659	0.8558	-0.064
Mof_H 	H 	0.2213	0.6854	0.8335	0.054
Mof_C 	C 	0.1198	0.587	0.85488	0.007
Mof_C 	C 	0.9604	0.5444	0.74562	-0.02
Mof_H 	H 	0.9762	0.5963	0.7567	0.059
Mof_C 	C 	0.9122	0.5204	0.7134	-0.088
Mof_C 	C 	0.0915	0.6419	0.0299	0.38
Mof_O 	O 	0.77799	0.9634	0.33158	-0.46
Mof_O 	O 	0.63677	0.89433	0.28514	-0.45
Mof_N 	N 	0.78747	0.91243	0.25407	-0.126
Mof_C 	C 	0.86057	0.98373	0.25444	-0.015
Mof_H 	H 	0.88647	0.00593	0.27743	0.035
Mof_C 	C 	0.90007	0.02673	0.2221	0.013
Mof_C 	C 	0.86187	0.99233	0.18913	-0.062
Mof_H 	H 	0.88797	0.01873	0.16683	0.053
Mof_C 	C 	0.78647	0.92033	0.18821	0.005
Mof_C 	C 	0.62707	0.87773	0.07895	-0.019
Mof_H 	H 	0.64287	0.92963	0.09003	0.059
Mof_C 	C 	0.57887	0.85373	0.04673	-0.088
Mof_C 	C 	0.75817	0.97523	0.36323	0.38
Mof_O 	O 	0.44465	0.29674	0.66492	-0.46
Mof_O 	O 	0.30343	0.22767	0.61848	-0.451
Mof_N 	N 	0.45413	0.24577	0.58741	-0.126
Mof_C 	C 	0.52723	0.31707	0.58778	-0.017
Mof_H 	H 	0.55313	0.33927	0.61077	0.036
Mof_C 	C 	0.56673	0.36007	0.55544	0.015
Mof_C 	C 	0.52853	0.32567	0.52247	-0.064
Mof_H 	H 	0.55463	0.35207	0.50017	0.055
Mof_C 	C 	0.45313	0.25367	0.52155	0.007
Mof_C 	C 	0.29373	0.21107	0.41229	-0.019
Mof_H 	H 	0.30953	0.26297	0.42337	0.059
Mof_C 	C 	0.24553	0.18707	0.38007	-0.088
Mof_C 	C 	0.42483	0.30857	0.69657	0.38
Mof_O 	O 	0.51875	0.88868	0.99825	-0.46
Mof_O 	O 	0.5909	0.0299	0.95181	-0.45
Mof_N 	N 	0.4583	0.8792	0.92074	-0.126
Mof_C 	C 	0.4565	0.8061	0.92111	-0.017
Mof_H 	H 	0.4528	0.7802	0.9441	0.036
Mof_C 	C 	0.46	0.7666	0.88877	0.015
Mof_C 	C 	0.4638	0.8048	0.8558	-0.064
Mof_H 	H 	0.4641	0.7787	0.8335	0.054
Mof_C 	C 	0.4672	0.8802	0.85488	0.007
Mof_C 	C 	0.584	0.0396	0.74562	-0.02
Mof_H 	H 	0.6201	0.0238	0.7567	0.059
Mof_C 	C 	0.6082	0.0878	0.7134	-0.088
Mof_C 	C 	0.5504	0.9085	0.0299	0.38
Mof_O 	O 	0.18542	0.22201	0.33158	-0.46
Mof_O 	O 	0.25757	0.36323	0.28514	-0.45
Mof_N 	N 	0.12497	0.21253	0.25407	-0.125
Mof_C 	C 	0.12317	0.13943	0.25444	-0.018
Mof_H 	H 	0.11947	0.11353	0.27743	0.036
Mof_C 	C 	0.12667	0.09993	0.2221	0.016
Mof_C 	C 	0.13047	0.13813	0.18913	-0.066
Mof_H 	H 	0.13077	0.11203	0.16683	0.055
Mof_C 	C 	0.13387	0.21353	0.18821	0.008
Mof_C 	C 	0.25067	0.37293	0.07895	-0.019
Mof_H 	H 	0.28677	0.35713	0.09003	0.059
Mof_C 	C 	0.27487	0.42113	0.04673	-0.088
Mof_C 	C 	0.21707	0.24183	0.36323	0.38
Mof_O 	O 	0.85208	0.55535	0.66492	-0.46
Mof_O 	O 	0.92423	0.69657	0.61848	-0.451
Mof_N 	N 	0.79163	0.54587	0.58741	-0.126
Mof_C 	C 	0.78983	0.47277	0.58778	-0.017
Mof_H 	H 	0.78613	0.44687	0.61077	0.036
Mof_C 	C 	0.79333	0.43327	0.55544	0.015
Mof_C 	C 	0.79713	0.47147	0.52247	-0.064
Mof_H 	H 	0.79743	0.44537	0.50017	0.054
Mof_C 	C 	0.80053	0.54687	0.52155	0.007
Mof_C 	C 	0.91733	0.70627	0.41229	-0.019
Mof_H 	H 	0.95343	0.69047	0.42337	0.059
Mof_C 	C 	0.94153	0.75447	0.38007	-0.089
Mof_C 	C 	0.88373	0.57517	0.69657	0.38
Mof_O 	O 	0.51875	0.63007	0.99825	-0.46
Mof_O 	O 	0.5909	0.561	0.95181	-0.451
Mof_N 	N 	0.4583	0.5791	0.92074	-0.126
Mof_C 	C 	0.4565	0.6504	0.92111	-0.017
Mof_H 	H 	0.4528	0.6726	0.9441	0.036
Mof_C 	C 	0.46	0.6934	0.88877	0.015
Mof_C 	C 	0.4638	0.659	0.8558	-0.064
Mof_H 	H 	0.4641	0.6854	0.8335	0.054
Mof_C 	C 	0.4672	0.587	0.85488	0.007
Mof_C 	C 	0.584	0.5444	0.74562	-0.019
Mof_H 	H 	0.6201	0.5963	0.7567	0.059
Mof_C 	C 	0.6082	0.5204	0.7134	-0.088
Mof_C 	C 	0.5504	0.6419	0.0299	0.38
Mof_O 	O 	0.18542	0.9634	0.33158	-0.46
Mof_O 	O 	0.25757	0.89433	0.28514	-0.45
Mof_N 	N 	0.12497	0.91243	0.25407	-0.126
Mof_C 	C 	0.12317	0.98373	0.25444	-0.015
Mof_H 	H 	0.11947	0.00593	0.27743	0.035
Mof_C 	C 	0.12667	0.02673	0.2221	0.013
Mof_C 	C 	0.13047	0.99233	0.18913	-0.062
Mof_H 	H 	0.13077	0.01873	0.16683	0.054
Mof_C 	C 	0.13387	0.92033	0.18821	0.006
Mof_C 	C 	0.25067	0.87773	0.07895	-0.019
Mof_H 	H 	0.28677	0.92963	0.09003	0.059
Mof_C 	C 	0.27487	0.85373	0.04673	-0.088
Mof_C 	C 	0.21707	0.97523	0.36323	0.38
Mof_O 	O 	0.85208	0.29674	0.66492	-0.46
Mof_O 	O 	0.92423	0.22767	0.61848	-0.451
Mof_N 	N 	0.79163	0.24577	0.58741	-0.126
Mof_C 	C 	0.78983	0.31707	0.58778	-0.017
Mof_H 	H 	0.78613	0.33927	0.61077	0.036
Mof_C 	C 	0.79333	0.36007	0.55544	0.015
Mof_C 	C 	0.79713	0.32567	0.52247	-0.064
Mof_H 	H 	0.79743	0.35207	0.50017	0.054
Mof_C 	C 	0.80053	0.25367	0.52155	0.007
Mof_C 	C 	0.91733	0.21107	0.41229	-0.019
Mof_H 	H 	0.95343	0.26297	0.42337	0.059
Mof_C 	C 	0.94153	0.18707	0.38007	-0.089
Mof_C 	C 	0.88373	0.30857	0.69657	0.38
Mof_O 	O 	0.36993	0.88868	0.99825	-0.46
Mof_O 	O 	0.439	0.0299	0.95181	-0.45
Mof_N 	N 	0.4209	0.8792	0.92074	-0.126
Mof_C 	C 	0.3496	0.8061	0.92111	-0.017
Mof_H 	H 	0.3274	0.7802	0.9441	0.036
Mof_C 	C 	0.3066	0.7666	0.88877	0.015
Mof_C 	C 	0.341	0.8048	0.8558	-0.064
Mof_H 	H 	0.3146	0.7787	0.8335	0.054
Mof_C 	C 	0.413	0.8802	0.85488	0.007
Mof_C 	C 	0.4556	0.0396	0.74562	-0.02
Mof_H 	H 	0.4037	0.0238	0.7567	0.059
Mof_C 	C 	0.4796	0.0878	0.7134	-0.088
Mof_C 	C 	0.3581	0.9085	0.0299	0.38
Mof_O 	O 	0.0366	0.22201	0.33158	-0.46
Mof_O 	O 	0.10567	0.36323	0.28514	-0.45
Mof_N 	N 	0.08757	0.21253	0.25407	-0.126
Mof_C 	C 	0.01627	0.13943	0.25444	-0.015
Mof_H 	H 	0.99407	0.11353	0.27743	0.035
Mof_C 	C 	0.97327	0.09993	0.2221	0.013
Mof_C 	C 	0.00767	0.13813	0.18913	-0.062
Mof_H 	H 	0.98127	0.11203	0.16683	0.053
Mof_C 	C 	0.07967	0.21353	0.18821	0.005
Mof_C 	C 	0.12227	0.37293	0.07895	-0.019
Mof_H 	H 	0.07037	0.35713	0.09003	0.059
Mof_C 	C 	0.14627	0.42113	0.04673	-0.088
Mof_C 	C 	0.02477	0.24183	0.36323	0.38
Mof_O 	O 	0.70326	0.55535	0.66492	-0.46
Mof_O 	O 	0.77233	0.69657	0.61848	-0.451
Mof_N 	N 	0.75423	0.54587	0.58741	-0.126
Mof_C 	C 	0.68293	0.47277	0.58778	-0.017
Mof_H 	H 	0.66073	0.44687	0.61077	0.036
Mof_C 	C 	0.63993	0.43327	0.55544	0.015
Mof_C 	C 	0.67433	0.47147	0.52247	-0.064
Mof_H 	H 	0.64793	0.44537	0.50017	0.055
Mof_C 	C 	0.74633	0.54687	0.52155	0.007
Mof_C 	C 	0.78893	0.70627	0.41229	-0.019
Mof_H 	H 	0.73703	0.69047	0.42337	0.059
Mof_C 	C 	0.81293	0.75447	0.38007	-0.088
Mof_C 	C 	0.69143	0.57517	0.69657	0.38
Mof_O 	O 	0.11132	0.48125	0.99825	-0.46
Mof_O 	O 	0.9701	0.4091	0.95181	-0.45
Mof_N 	N 	0.1208	0.5417	0.92074	-0.126
Mof_C 	C 	0.1939	0.5435	0.92111	-0.017
Mof_H 	H 	0.2198	0.5472	0.9441	0.036
Mof_C 	C 	0.2334	0.54	0.88877	0.015
Mof_C 	C 	0.1952	0.5362	0.8558	-0.064
Mof_H 	H 	0.2213	0.5359	0.8335	0.054
Mof_C 	C 	0.1198	0.5328	0.85488	0.007
Mof_C 	C 	0.9604	0.416	0.74562	-0.02
Mof_H 	H 	0.9762	0.3799	0.7567	0.059
Mof_C 	C 	0.9122	0.3918	0.7134	-0.088
Mof_C 	C 	0.0915	0.4496	0.0299	0.38
Mof_O 	O 	0.77799	0.81458	0.33158	-0.46
Mof_O 	O 	0.63677	0.74243	0.28514	-0.45
Mof_N 	N 	0.78747	0.87503	0.25407	-0.125
Mof_C 	C 	0.86057	0.87683	0.25444	-0.018
Mof_H 	H 	0.88647	0.88053	0.27743	0.036
Mof_C 	C 	0.90007	0.87333	0.2221	0.016
Mof_C 	C 	0.86187	0.86953	0.18913	-0.066
Mof_H 	H 	0.88797	0.86923	0.16683	0.055
Mof_C 	C 	0.78647	0.86613	0.18821	0.008
Mof_C 	C 	0.62707	0.74933	0.07895	-0.019
Mof_H 	H 	0.64287	0.71323	0.09003	0.059
Mof_C 	C 	0.57887	0.72513	0.04673	-0.088
Mof_C 	C 	0.75817	0.78293	0.36323	0.38
Mof_O 	O 	0.44465	0.14792	0.66492	-0.46
Mof_O 	O 	0.30343	0.07577	0.61848	-0.451
Mof_N 	N 	0.45413	0.20837	0.58741	-0.126
Mof_C 	C 	0.52723	0.21017	0.58778	-0.017
Mof_H 	H 	0.55313	0.21387	0.61077	0.036
Mof_C 	C 	0.56673	0.20667	0.55544	0.015
Mof_C 	C 	0.52853	0.20287	0.52247	-0.064
Mof_H 	H 	0.55463	0.20257	0.50017	0.054
Mof_C 	C 	0.45313	0.19947	0.52155	0.007
Mof_C 	C 	0.29373	0.08267	0.41229	-0.019
Mof_H 	H 	0.30953	0.04657	0.42337	0.059
Mof_C 	C 	0.24553	0.05847	0.38007	-0.089
Mof_C 	C 	0.42483	0.11627	0.69657	0.38
Mof_O 	O 	0.63007	0.51875	0.00175	-0.46
Mof_O 	O 	0.561	0.5909	0.04819	-0.451
Mof_N 	N 	0.5791	0.4583	0.07926	-0.126
Mof_C 	C 	0.6504	0.4565	0.07889	-0.017
Mof_H 	H 	0.6726	0.4528	0.0559	0.036
Mof_C 	C 	0.6934	0.46	0.11123	0.015
Mof_C 	C 	0.659	0.4638	0.1442	-0.064
Mof_H 	H 	0.6854	0.4641	0.1665	0.054
Mof_C 	C 	0.587	0.4672	0.14512	0.007
Mof_C 	C 	0.5444	0.584	0.25438	-0.019
Mof_H 	H 	0.5963	0.6201	0.2433	0.059
Mof_C 	C 	0.5204	0.6082	0.2866	-0.088
Mof_C 	C 	0.6419	0.5504	0.9701	0.38
Mof_O 	O 	0.29674	0.85208	0.33508	-0.46
Mof_O 	O 	0.22767	0.92423	0.38152	-0.451
Mof_N 	N 	0.24577	0.79163	0.41259	-0.126
Mof_C 	C 	0.31707	0.78983	0.41222	-0.017
Mof_H 	H 	0.33927	0.78613	0.38923	0.036
Mof_C 	C 	0.36007	0.79333	0.44456	0.015
Mof_C 	C 	0.32567	0.79713	0.47753	-0.064
Mof_H 	H 	0.35207	0.79743	0.49983	0.054
Mof_C 	C 	0.25367	0.80053	0.47845	0.007
Mof_C 	C 	0.21107	0.91733	0.58771	-0.019
Mof_H 	H 	0.26297	0.95343	0.57663	0.059
Mof_C 	C 	0.18707	0.94153	0.61993	-0.089
Mof_C 	C 	0.30857	0.88373	0.30343	0.38
Mof_O 	O 	0.9634	0.18542	0.66842	-0.46
Mof_O 	O 	0.89433	0.25757	0.71486	-0.45
Mof_N 	N 	0.91243	0.12497	0.74593	-0.126
Mof_C 	C 	0.98373	0.12317	0.74556	-0.015
Mof_H 	H 	0.00593	0.11947	0.72257	0.035
Mof_C 	C 	0.02673	0.12667	0.7779	0.013
Mof_C 	C 	0.99233	0.13047	0.81087	-0.062
Mof_H 	H 	0.01873	0.13077	0.83317	0.054
Mof_C 	C 	0.92033	0.13387	0.81179	0.006
Mof_C 	C 	0.87773	0.25067	0.92105	-0.019
Mof_H 	H 	0.92963	0.28677	0.90997	0.059
Mof_C 	C 	0.85373	0.27487	0.95327	-0.088
Mof_C 	C 	0.97523	0.21707	0.63677	0.38
Mof_O 	O 	0.88868	0.36993	0.00175	-0.46
Mof_O 	O 	0.0299	0.439	0.04819	-0.45
Mof_N 	N 	0.8792	0.4209	0.07926	-0.126
Mof_C 	C 	0.8061	0.3496	0.07889	-0.017
Mof_H 	H 	0.7802	0.3274	0.0559	0.036
Mof_C 	C 	0.7666	0.3066	0.11123	0.015
Mof_C 	C 	0.8048	0.341	0.1442	-0.064
Mof_H 	H 	0.7787	0.3146	0.1665	0.054
Mof_C 	C 	0.8802	0.413	0.14512	0.007
Mof_C 	C 	0.0396	0.4556	0.25438	-0.02
Mof_H 	H 	0.0238	0.4037	0.2433	0.059
Mof_C 	C 	0.0878	0.4796	0.2866	-0.088
Mof_C 	C 	0.9085	0.3581	0.9701	0.38
Mof_O 	O 	0.55535	0.70326	0.33508	-0.46
Mof_O 	O 	0.69657	0.77233	0.38152	-0.451
Mof_N 	N 	0.54587	0.75423	0.41259	-0.126
Mof_C 	C 	0.47277	0.68293	0.41222	-0.017
Mof_H 	H 	0.44687	0.66073	0.38923	0.036
Mof_C 	C 	0.43327	0.63993	0.44456	0.015
Mof_C 	C 	0.47147	0.67433	0.47753	-0.064
Mof_H 	H 	0.44537	0.64793	0.49983	0.055
Mof_C 	C 	0.54687	0.74633	0.47845	0.007
Mof_C 	C 	0.70627	0.78893	0.58771	-0.019
Mof_H 	H 	0.69047	0.73703	0.57663	0.059
Mof_C 	C 	0.75447	0.81293	0.61993	-0.088
Mof_C 	C 	0.57517	0.69143	0.30343	0.38
Mof_O 	O 	0.22201	0.0366	0.66842	-0.46
Mof_O 	O 	0.36323	0.10567	0.71486	-0.45
Mof_N 	N 	0.21253	0.08757	0.74593	-0.126
Mof_C 	C 	0.13943	0.01627	0.74556	-0.015
Mof_H 	H 	0.11353	0.99407	0.72257	0.035
Mof_C 	C 	0.09993	0.97327	0.7779	0.013
Mof_C 	C 	0.13813	0.00767	0.81087	-0.062
Mof_H 	H 	0.11203	0.98127	0.83317	0.053
Mof_C 	C 	0.21353	0.07967	0.81179	0.005
Mof_C 	C 	0.37293	0.12227	0.92105	-0.019
Mof_H 	H 	0.35713	0.07037	0.90997	0.059
Mof_C 	C 	0.42113	0.14627	0.95327	-0.088
Mof_C 	C 	0.24183	0.02477	0.63677	0.38
Mof_O 	O 	0.48125	0.11132	0.00175	-0.46
Mof_O 	O 	0.4091	0.9701	0.04819	-0.45
Mof_N 	N 	0.5417	0.1208	0.07926	-0.126
Mof_C 	C 	0.5435	0.1939	0.07889	-0.017
Mof_H 	H 	0.5472	0.2198	0.0559	0.036
Mof_C 	C 	0.54	0.2334	0.11123	0.015
Mof_C 	C 	0.5362	0.1952	0.1442	-0.064
Mof_H 	H 	0.5359	0.2213	0.1665	0.054
Mof_C 	C 	0.5328	0.1198	0.14512	0.007
Mof_C 	C 	0.416	0.9604	0.25438	-0.02
Mof_H 	H 	0.3799	0.9762	0.2433	0.059
Mof_C 	C 	0.3918	0.9122	0.2866	-0.088
Mof_C 	C 	0.4496	0.0915	0.9701	0.38
Mof_O 	O 	0.14792	0.44465	0.33508	-0.46
Mof_O 	O 	0.07577	0.30343	0.38152	-0.451
Mof_N 	N 	0.20837	0.45413	0.41259	-0.126
Mof_C 	C 	0.21017	0.52723	0.41222	-0.017
Mof_H 	H 	0.21387	0.55313	0.38923	0.036
Mof_C 	C 	0.20667	0.56673	0.44456	0.015
Mof_C 	C 	0.20287	0.52853	0.47753	-0.064
Mof_H 	H 	0.20257	0.55463	0.49983	0.054
Mof_C 	C 	0.19947	0.45313	0.47845	0.007
Mof_C 	C 	0.08267	0.29373	0.58771	-0.019
Mof_H 	H 	0.04657	0.30953	0.57663	0.059
Mof_C 	C 	0.05847	0.24553	0.61993	-0.089
Mof_C 	C 	0.11627	0.42483	0.30343	0.38
Mof_O 	O 	0.81458	0.77799	0.66842	-0.46
Mof_O 	O 	0.74243	0.63677	0.71486	-0.45
Mof_N 	N 	0.87503	0.78747	0.74593	-0.125
Mof_C 	C 	0.87683	0.86057	0.74556	-0.018
Mof_H 	H 	0.88053	0.88647	0.72257	0.036
Mof_C 	C 	0.87333	0.90007	0.7779	0.016
Mof_C 	C 	0.86953	0.86187	0.81087	-0.066
Mof_H 	H 	0.86923	0.88797	0.83317	0.055
Mof_C 	C 	0.86613	0.78647	0.81179	0.008
Mof_C 	C 	0.74933	0.62707	0.92105	-0.019
Mof_H 	H 	0.71323	0.64287	0.90997	0.059
Mof_C 	C 	0.72513	0.57887	0.95327	-0.088
Mof_C 	C 	0.78293	0.75817	0.63677	0.38
Mof_Zn	Zn	0.52675	0.47325	0.03258	1.219
Mof_C 	C 	0.54209	0.45791	0.11183	0.053
Mof_C 	C 	0.5368	0.4632	0.17889	-0.009
Mof_C 	C 	0.51685	0.48315	0.20592	-0.012
Mof_C 	C 	0.4923	0.5077	0.23899	0.014
Mof_C 	C 	0.4452	0.5548	0.30252	0.036
Mof_H 	H 	0.4299	0.5701	0.3248	0.048
Mof_Zn	Zn	0.19342	0.80658	0.36591	1.219
Mof_C 	C 	0.20876	0.79124	0.44516	0.053
Mof_C 	C 	0.20347	0.79653	0.51222	-0.009
Mof_C 	C 	0.18352	0.81648	0.53925	-0.012
Mof_C 	C 	0.15897	0.84103	0.57232	0.014
Mof_C 	C 	0.11186	0.88814	0.63585	0.036
Mof_H 	H 	0.09657	0.90343	0.65813	0.048
Mof_Zn	Zn	0.86008	0.13992	0.69924	1.219
Mof_C 	C 	0.87542	0.12458	0.7785	0.053
Mof_C 	C 	0.87013	0.12987	0.84556	-0.009
Mof_C 	C 	0.85018	0.14982	0.87259	-0.012
Mof_C 	C 	0.82563	0.17437	0.90566	0.014
Mof_C 	C 	0.77853	0.22147	0.96919	0.036
Mof_H 	H 	0.76323	0.23677	0.99147	0.048
Mof_Zn	Zn	0.52675	0.0535	0.03258	1.219
Mof_C 	C 	0.54209	0.08418	0.11183	0.053
Mof_C 	C 	0.5368	0.0736	0.17889	-0.009
Mof_C 	C 	0.51685	0.0337	0.20592	-0.013
Mof_C 	C 	0.4923	0.9846	0.23899	0.015
Mof_C 	C 	0.4452	0.89039	0.30252	0.035
Mof_H 	H 	0.4299	0.8598	0.3248	0.048
Mof_Zn	Zn	0.19342	0.38683	0.36591	1.219
Mof_C 	C 	0.20876	0.41751	0.44516	0.053
Mof_C 	C 	0.20347	0.40693	0.51222	-0.009
Mof_C 	C 	0.18352	0.36703	0.53925	-0.012
Mof_C 	C 	0.15897	0.31793	0.57232	0.014
Mof_C 	C 	0.11186	0.22372	0.63585	0.036
Mof_H 	H 	0.09657	0.19313	0.65813	0.048
Mof_Zn	Zn	0.86008	0.72017	0.69924	1.219
Mof_C 	C 	0.87542	0.75085	0.7785	0.053
Mof_C 	C 	0.87013	0.74027	0.84556	-0.009
Mof_C 	C 	0.85018	0.70037	0.87259	-0.012
Mof_C 	C 	0.82563	0.65127	0.90566	0.014
Mof_C 	C 	0.77853	0.55706	0.96919	0.036
Mof_H 	H 	0.76323	0.52647	0.99147	0.048
Mof_Zn	Zn	0.9465	0.47325	0.03258	1.219
Mof_C 	C 	0.91582	0.45791	0.11183	0.053
Mof_C 	C 	0.9264	0.4632	0.17889	-0.009
Mof_C 	C 	0.9663	0.48315	0.20592	-0.013
Mof_C 	C 	0.0154	0.5077	0.23899	0.015
Mof_C 	C 	0.10961	0.5548	0.30252	0.035
Mof_H 	H 	0.1402	0.5701	0.3248	0.048
Mof_Zn	Zn	0.61317	0.80658	0.36591	1.219
Mof_C 	C 	0.58249	0.79124	0.44516	0.053
Mof_C 	C 	0.59307	0.79653	0.51222	-0.009
Mof_C 	C 	0.63297	0.81648	0.53925	-0.012
Mof_C 	C 	0.68207	0.84103	0.57232	0.014
Mof_C 	C 	0.77628	0.88814	0.63585	0.036
Mof_H 	H 	0.80687	0.90343	0.65813	0.048
Mof_Zn	Zn	0.27983	0.13992	0.69924	1.219
Mof_C 	C 	0.24915	0.12458	0.7785	0.053
Mof_C 	C 	0.25973	0.12987	0.84556	-0.009
Mof_C 	C 	0.29963	0.14982	0.87259	-0.012
Mof_C 	C 	0.34873	0.17437	0.90566	0.014
Mof_C 	C 	0.44294	0.22147	0.96919	0.036
Mof_H 	H 	0.47353	0.23677	0.99147	0.048
Mof_Zn	Zn	0.47325	0.52675	0.96742	1.219
Mof_C 	C 	0.45791	0.54209	0.88817	0.053
Mof_C 	C 	0.4632	0.5368	0.82111	-0.009
Mof_C 	C 	0.48315	0.51685	0.79408	-0.012
Mof_C 	C 	0.5077	0.4923	0.76101	0.014
Mof_C 	C 	0.5548	0.4452	0.69748	0.036
Mof_H 	H 	0.5701	0.4299	0.6752	0.048
Mof_Zn	Zn	0.13992	0.86008	0.30076	1.219
Mof_C 	C 	0.12458	0.87542	0.2215	0.053
Mof_C 	C 	0.12987	0.87013	0.15444	-0.009
Mof_C 	C 	0.14982	0.85018	0.12741	-0.012
Mof_C 	C 	0.17437	0.82563	0.09434	0.014
Mof_C 	C 	0.22147	0.77853	0.03081	0.036
Mof_H 	H 	0.23677	0.76323	0.00853	0.048
Mof_Zn	Zn	0.80658	0.19342	0.63409	1.219
Mof_C 	C 	0.79124	0.20876	0.55484	0.053
Mof_C 	C 	0.79653	0.20347	0.48778	-0.009
Mof_C 	C 	0.81648	0.18352	0.46075	-0.012
Mof_C 	C 	0.84103	0.15897	0.42768	0.014
Mof_C 	C 	0.88814	0.11186	0.36415	0.036
Mof_H 	H 	0.90343	0.09657	0.34187	0.048
Mof_Zn	Zn	0.0535	0.52675	0.96742	1.219
Mof_C 	C 	0.08418	0.54209	0.88817	0.053
Mof_C 	C 	0.0736	0.5368	0.82111	-0.009
Mof_C 	C 	0.0337	0.51685	0.79408	-0.013
Mof_C 	C 	0.9846	0.4923	0.76101	0.015
Mof_C 	C 	0.89039	0.4452	0.69748	0.035
Mof_H 	H 	0.8598	0.4299	0.6752	0.048
Mof_Zn	Zn	0.72017	0.86008	0.30076	1.219
Mof_C 	C 	0.75085	0.87542	0.2215	0.053
Mof_C 	C 	0.74027	0.87013	0.15444	-0.009
Mof_C 	C 	0.70037	0.85018	0.12741	-0.012
Mof_C 	C 	0.65127	0.82563	0.09434	0.014
Mof_C 	C 	0.55706	0.77853	0.03081	0.036
Mof_H 	H 	0.52647	0.76323	0.00853	0.048
Mof_Zn	Zn	0.38683	0.19342	0.63409	1.219
Mof_C 	C 	0.41751	0.20876	0.55484	0.053
Mof_C 	C 	0.40693	0.20347	0.48778	-0.009
Mof_C 	C 	0.36703	0.18352	0.46075	-0.012
Mof_C 	C 	0.31793	0.15897	0.42768	0.014
Mof_C 	C 	0.22372	0.11186	0.36415	0.036
Mof_H 	H 	0.19313	0.09657	0.34187	0.048
Mof_Zn	Zn	0.47325	0.9465	0.96742	1.219
Mof_C 	C 	0.45791	0.91582	0.88817	0.053
Mof_C 	C 	0.4632	0.9264	0.82111	-0.009
Mof_C 	C 	0.48315	0.9663	0.79408	-0.013
Mof_C 	C 	0.5077	0.0154	0.76101	0.015
Mof_C 	C 	0.5548	0.10961	0.69748	0.035
Mof_H 	H 	0.5701	0.1402	0.6752	0.048
Mof_Zn	Zn	0.13992	0.27983	0.30076	1.219
Mof_C 	C 	0.12458	0.24915	0.2215	0.053
Mof_C 	C 	0.12987	0.25973	0.15444	-0.009
Mof_C 	C 	0.14982	0.29963	0.12741	-0.012
Mof_C 	C 	0.17437	0.34873	0.09434	0.014
Mof_C 	C 	0.22147	0.44294	0.03081	0.036
Mof_H 	H 	0.23677	0.47353	0.00853	0.048
Mof_Zn	Zn	0.80658	0.61317	0.63409	1.219
Mof_C 	C 	0.79124	0.58249	0.55484	0.053
Mof_C 	C 	0.79653	0.59307	0.48778	-0.009
Mof_C 	C 	0.81648	0.63297	0.46075	-0.012
Mof_C 	C 	0.84103	0.68207	0.42768	0.014
Mof_C 	C 	0.88814	0.77628	0.36415	0.036
Mof_H 	H 	0.90343	0.80687	0.34187	0.048
_end
