# CIF file generated by openbabel 3.1.0, see https://openbabel.org
data_I
_chemical_name_common 'image0'
_cell_length_a 16.0206
_cell_length_b 10.107
_cell_length_c 18.533
_cell_angle_alpha 90
_cell_angle_beta 90
_cell_angle_gamma 90
_space_group_name_H-M_alt 'P 1'
_space_group_name_Hall 'P 1'
loop_
    _symmetry_equiv_pos_as_xyz
    x,y,z
loop_
    _atom_site_label
    _atom_site_type_symbol
    _atom_site_fract_x
    _atom_site_fract_y
    _atom_site_fract_z
    _atom_site_occupancy
    Ga1      Ga       0.03840    0.68168    0.28205    1.000
    Ga2      Ga       0.84971    0.83323    0.32400    1.000
    Ga3      Ga       0.00914    0.65238    0.09228    1.000
    P1       P        0.06094    0.37850    0.31604    1.000
    P2       P        0.18386    0.64830    0.16842    1.000
    P3       P        0.01195    0.85790    0.42263    1.000
    F1       F        0.00310    0.58850    0.19520    1.000
    F2       F        0.91990    0.66920    0.31050    1.000
    O1       O        0.05910    0.52400    0.33930    1.000
    O2       O        0.14370    0.35050    0.27630    1.000
    O3       O        0.98660    0.34610    0.26810    1.000
    O4       O        0.05990    0.29580    0.38570    1.000
    O5       O        0.15120    0.68960    0.24260    1.000
    O6       O        0.20780    0.50160    0.16740    1.000
    O7       O        0.12180    0.67970    0.10740    1.000
    O8       O        0.26160    0.72860    0.14960    1.000
    O9       O        0.06520    0.78440    0.36680    1.000
    O10      O        0.92020    0.87170    0.40030    1.000
    O11      O        0.01770    0.78370    0.49420    1.000
    O12      O        0.04790    0.99840    0.43200    1.000
    Ga4      Ga       0.46160    0.31832    0.78205    1.000
    Ga5      Ga       0.65029    0.16677    0.82400    1.000
    Ga6      Ga       0.49086    0.34762    0.59228    1.000
    P4       P        0.43906    0.62150    0.81604    1.000
    P5       P        0.31614    0.35170    0.66842    1.000
    P6       P        0.48805    0.14210    0.92263    1.000
    F3       F        0.49690    0.41150    0.69520    1.000
    F4       F        0.58010    0.33080    0.81050    1.000
    O13      O        0.44090    0.47600    0.83930    1.000
    O14      O        0.35630    0.64950    0.77630    1.000
    O15      O        0.51340    0.65390    0.76810    1.000
    O16      O        0.44010    0.70420    0.88570    1.000
    O17      O        0.34880    0.31040    0.74260    1.000
    O18      O        0.29220    0.49840    0.66740    1.000
    O19      O        0.37820    0.32030    0.60740    1.000
    O20      O        0.23840    0.27140    0.64960    1.000
    O21      O        0.43480    0.21560    0.86680    1.000
    O22      O        0.57980    0.12830    0.90030    1.000
    O23      O        0.48230    0.21630    0.99420    1.000
    O24      O        0.45210    0.00160    0.93200    1.000
    Ga7      Ga       0.96160    0.18168    0.21795    1.000
    Ga8      Ga       0.15029    0.33323    0.17600    1.000
    Ga9      Ga       0.99086    0.15238    0.40772    1.000
    P7       P        0.93906    0.87850    0.18396    1.000
    P8       P        0.81614    0.14830    0.33158    1.000
    P9       P        0.98805    0.35790    0.07737    1.000
    F5       F        0.99690    0.08850    0.30480    1.000
    F6       F        0.08010    0.16920    0.18950    1.000
    O25      O        0.94090    0.02400    0.16070    1.000
    O26      O        0.85630    0.85050    0.22370    1.000
    O27      O        0.01340    0.84610    0.23190    1.000
    O28      O        0.94010    0.79580    0.11430    1.000
    O29      O        0.84880    0.18960    0.25740    1.000
    O30      O        0.79220    0.00160    0.33260    1.000
    O31      O        0.87820    0.17970    0.39260    1.000
    O32      O        0.73840    0.22860    0.35040    1.000
    O33      O        0.93480    0.28440    0.13320    1.000
    O34      O        0.07980    0.37170    0.09970    1.000
    O35      O        0.98230    0.28370    0.00580    1.000
    O36      O        0.95210    0.49840    0.06800    1.000
    Ga10     Ga       0.53840    0.81832    0.71795    1.000
    Ga11     Ga       0.34971    0.66677    0.67600    1.000
    Ga12     Ga       0.50914    0.84762    0.90772    1.000
    P10      P        0.56094    0.12150    0.68396    1.000
    P11      P        0.68386    0.85170    0.83158    1.000
    P12      P        0.51195    0.64210    0.57737    1.000
    F7       F        0.50310    0.91150    0.80480    1.000
    F8       F        0.41990    0.83080    0.68950    1.000
    O37      O        0.55910    0.97600    0.66070    1.000
    O38      O        0.64370    0.14950    0.72370    1.000
    O39      O        0.48660    0.15390    0.73190    1.000
    O40      O        0.55990    0.20420    0.61430    1.000
    O41      O        0.65120    0.81040    0.75740    1.000
    O42      O        0.70780    0.99840    0.83260    1.000
    O43      O        0.62180    0.82030    0.89260    1.000
    O44      O        0.76160    0.77140    0.85040    1.000
    O45      O        0.56520    0.71560    0.63320    1.000
    O46      O        0.42020    0.62830    0.59970    1.000
    O47      O        0.51770    0.71630    0.50580    1.000
    O48      O        0.54790    0.50160    0.56800    1.000
    Ga13     Ga       0.96160    0.31832    0.71795    1.000
    Ga14     Ga       0.15029    0.16677    0.67600    1.000
    Ga15     Ga       0.99086    0.34762    0.90772    1.000
    P13      P        0.93906    0.62150    0.68396    1.000
    P14      P        0.81614    0.35170    0.83158    1.000
    P15      P        0.98805    0.14210    0.57737    1.000
    F9       F        0.99690    0.41150    0.80480    1.000
    F10      F        0.08010    0.33080    0.68950    1.000
    O49      O        0.94090    0.47600    0.66070    1.000
    O50      O        0.85630    0.64950    0.72370    1.000
    O51      O        0.01340    0.65390    0.73190    1.000
    O52      O        0.94010    0.70420    0.61430    1.000
    O53      O        0.84880    0.31040    0.75740    1.000
    O54      O        0.79220    0.49840    0.83260    1.000
    O55      O        0.87820    0.32030    0.89260    1.000
    O56      O        0.73840    0.27140    0.85040    1.000
    O57      O        0.93480    0.21560    0.63320    1.000
    O58      O        0.07980    0.12830    0.59970    1.000
    O59      O        0.98230    0.21630    0.50580    1.000
    O60      O        0.95210    0.00160    0.56800    1.000
    Ga16     Ga       0.53840    0.68168    0.21795    1.000
    Ga17     Ga       0.34971    0.83323    0.17600    1.000
    Ga18     Ga       0.50914    0.65238    0.40772    1.000
    P16      P        0.56094    0.37850    0.18396    1.000
    P17      P        0.68386    0.64830    0.33158    1.000
    P18      P        0.51195    0.85790    0.07737    1.000
    F11      F        0.50310    0.58850    0.30480    1.000
    F12      F        0.41990    0.66920    0.18950    1.000
    O61      O        0.55910    0.52400    0.16070    1.000
    O62      O        0.64370    0.35050    0.22370    1.000
    O63      O        0.48660    0.34610    0.23190    1.000
    O64      O        0.55990    0.29580    0.11430    1.000
    O65      O        0.65120    0.68960    0.25740    1.000
    O66      O        0.70780    0.50160    0.33260    1.000
    O67      O        0.62180    0.67970    0.39260    1.000
    O68      O        0.76160    0.72860    0.35040    1.000
    O69      O        0.56520    0.78440    0.13320    1.000
    O70      O        0.42020    0.87170    0.09970    1.000
    O71      O        0.51770    0.78370    0.00580    1.000
    O72      O        0.54790    0.99840    0.06800    1.000
    Ga19     Ga       0.03840    0.81832    0.78205    1.000
    Ga20     Ga       0.84971    0.66677    0.82400    1.000
    Ga21     Ga       0.00914    0.84762    0.59228    1.000
    P19      P        0.06094    0.12150    0.81604    1.000
    P20      P        0.18386    0.85170    0.66842    1.000
    P21      P        0.01195    0.64210    0.92263    1.000
    F13      F        0.00310    0.91150    0.69520    1.000
    F14      F        0.91990    0.83080    0.81050    1.000
    O73      O        0.05910    0.97600    0.83930    1.000
    O74      O        0.14370    0.14950    0.77630    1.000
    O75      O        0.98660    0.15390    0.76810    1.000
    O76      O        0.05990    0.20420    0.88570    1.000
    O77      O        0.15120    0.81040    0.74260    1.000
    O78      O        0.20780    0.99840    0.66740    1.000
    O79      O        0.12180    0.82030    0.60740    1.000
    O80      O        0.26160    0.77140    0.64960    1.000
    O81      O        0.06520    0.71560    0.86680    1.000
    O82      O        0.92020    0.62830    0.90030    1.000
    O83      O        0.01770    0.71630    0.99420    1.000
    O84      O        0.04790    0.50160    0.93200    1.000
    Ga22     Ga       0.46160    0.18168    0.28205    1.000
    Ga23     Ga       0.65029    0.33323    0.32400    1.000
    Ga24     Ga       0.49086    0.15238    0.09228    1.000
    P22      P        0.43906    0.87850    0.31604    1.000
    P23      P        0.31614    0.14830    0.16842    1.000
    P24      P        0.48805    0.35790    0.42263    1.000
    F15      F        0.49690    0.08850    0.19520    1.000
    F16      F        0.58010    0.16920    0.31050    1.000
    O85      O        0.44090    0.02400    0.33930    1.000
    O86      O        0.35630    0.85050    0.27630    1.000
    O87      O        0.51340    0.84610    0.26810    1.000
    O88      O        0.44010    0.79580    0.38570    1.000
    O89      O        0.34880    0.18960    0.24260    1.000
    O90      O        0.29220    0.00160    0.16740    1.000
    O91      O        0.37820    0.17970    0.10740    1.000
    O92      O        0.23840    0.22860    0.14960    1.000
    O93      O        0.43480    0.28440    0.36680    1.000
    O94      O        0.57980    0.37170    0.40030    1.000
    O95      O        0.48230    0.28370    0.49420    1.000
    O96      O        0.45210    0.49840    0.43200    1.000
