data_functionalizedCrystal
_audit_creation_method	'EQeq! by Chris Wilmer'
_symmetry_space_group_name_H-M	'P1'
_symmetry_Int_Tables_number	1
_symmetry_cell_setting	triclinic
loop_
_symmetry_equiv_pos_as_xyz
  x,y,z
_cell_length_a	15.2841
_cell_length_b	16.7279
_cell_length_c	17.8374
_cell_angle_alpha	117.963
_cell_angle_beta	115.368
_cell_angle_gamma	90
loop_
_atom_site_label
_atom_site_type_symbol
_atom_site_fract_x
_atom_site_fract_y
_atom_site_fract_z
_atom_site_charge
Mof_Cu	Cu	0.5	0	0.5	0.872
Mof_Cu	Cu	1.55206e-17	0	0.5	0.856
Mof_H 	H 	0.6071	0.8896	0.584	0.018
Mof_H 	H 	0.5847	0.8011	0.6472	0.107
Mof_H 	H 	0.3167	0.861	0.6016	0.111
Mof_H 	H 	0.3458	0.9462	0.538	0.021
Mof_H 	H 	0.4802	0.7283	0.6782	0.096
Mof_H 	H 	0.3646	0.7303	0.6368	0.102
Mof_H 	H 	0.3254	0.9927	0.939	0.05
Mof_H 	H 	0.2488	0.8826	0.2016	0.062
Mof_H 	H 	0.101	0.7942	0.0546	0.051
Mof_H 	H 	0.9769	0.1944	0.584	0.061
Mof_H 	H 	0.0625	0.3461	0.6472	0.082
Mof_H 	H 	0.2849	0.2406	0.6016	0.104
Mof_H 	H 	0.1922	0.0918	0.538	0.002
Mof_H 	H 	0.198	0.4499	0.6782	0.092
Mof_H 	H 	0.2722	0.4065	0.6368	0.1
Mof_H 	H 	0.6136	0.4463	0.939	0.082
Mof_H 	H 	0.9528	0.819	0.2016	0.097
Mof_H 	H 	0.9536	0.7604	0.0546	0.093
Mof_H 	H 	0.3929	0.1104	0.416	0.005
Mof_H 	H 	0.4153	0.1989	0.3528	0.107
Mof_H 	H 	0.6833	0.139	0.3984	0.11
Mof_H 	H 	0.6542	0.0538	0.462	0.003
Mof_H 	H 	0.5198	0.2717	0.3218	0.097
Mof_H 	H 	0.6354	0.2697	0.3632	0.103
Mof_H 	H 	0.6746	0.0073	0.061	0.093
Mof_H 	H 	0.7512	0.1174	0.7984	0.045
Mof_H 	H 	0.899	0.2058	0.9454	0.06
Mof_H 	H 	0.0231	0.8056	0.416	-0.031
Mof_H 	H 	0.9375	0.6539	0.3528	0.131
Mof_H 	H 	0.7151	0.7594	0.3984	0.116
Mof_H 	H 	0.8078	0.9082	0.462	0.023
Mof_H 	H 	0.802	0.5501	0.3218	0.103
Mof_H 	H 	0.7278	0.5935	0.3632	0.106
Mof_H 	H 	0.3864	0.5537	0.061	0.06
Mof_H 	H 	0.0472	0.181	0.7984	0.006
Mof_H 	H 	0.0464	0.2396	0.9454	0.006
Mof_C 	C 	0.54739	0.88349	0.58758	0.101
Mof_C 	C 	0.53496	0.83106	0.62612	-0.168
Mof_C 	C 	0.44927	0.82367	0.63294	0.154
Mof_C 	C 	0.3772	0.8662	0.599	-0.169
Mof_C 	C 	0.39507	0.91677	0.56094	0.098
Mof_C 	C 	0.43406	0.76976	0.67692	-0.143
Mof_C 	C 	0.37951	0.87011	0.79882	0.218
Mof_C 	C 	0.43359	0.94049	0.90598	-0.075
Mof_C 	C 	0.53455	0.94365	0.9397	0.049
Mof_C 	C 	0.54763	0.87593	0.85626	0.179
Mof_C 	C 	0.39481	0.99571	0.96342	0.066
Mof_C 	C 	0.28237	0.96747	0.38254	0.39
Mof_C 	C 	0.18981	0.90521	0.29042	-0.063
Mof_C 	C 	0.18856	0.87006	0.20212	0.002
Mof_C 	C 	0.1006	0.8168	0.1142	-0.017
Mof_C 	C 	0.04019	0.20409	0.58758	0.01
Mof_C 	C 	0.09116	0.29506	0.62612	-0.13
Mof_C 	C 	0.18367	0.30927	0.63294	0.129
Mof_C 	C 	0.2218	0.2328	0.599	-0.159
Mof_C 	C 	0.16587	0.14417	0.56094	0.083
Mof_C 	C 	0.24286	0.40716	0.67692	-0.132
Mof_C 	C 	0.41931	0.42871	0.79882	0.191
Mof_C 	C 	0.47239	0.46549	0.90598	-0.004
Mof_C 	C 	0.40515	0.49605	0.9397	-0.069
Mof_C 	C 	0.30863	0.48033	0.85626	0.209
Mof_C 	C 	0.56861	0.46771	0.96342	-0.073
Mof_C 	C 	0.10017	0.91507	0.38254	0.312
Mof_C 	C 	0.10061	0.88521	0.29042	-0.017
Mof_C 	C 	0.01356	0.83206	0.20212	-0.05
Mof_C 	C 	0.0136	0.7974	0.1142	-0.067
Mof_C 	C 	0.45261	0.11651	0.41242	0.091
Mof_C 	C 	0.46504	0.16894	0.37388	-0.173
Mof_C 	C 	0.55073	0.17633	0.36706	0.152
Mof_C 	C 	0.6228	0.1338	0.401	-0.176
Mof_C 	C 	0.60493	0.08323	0.43906	0.093
Mof_C 	C 	0.56594	0.23024	0.32308	-0.145
Mof_C 	C 	0.62049	0.12989	0.20118	0.182
Mof_C 	C 	0.56641	0.05951	0.09402	0.02
Mof_C 	C 	0.46545	0.05635	0.0603	-0.108
Mof_C 	C 	0.45237	0.12407	0.14374	0.217
Mof_C 	C 	0.60519	0.00429	0.03658	-0.119
Mof_C 	C 	0.71763	0.03253	0.61746	0.25
Mof_C 	C 	0.81019	0.09479	0.70958	-0.034
Mof_C 	C 	0.81144	0.12994	0.79788	-0.015
Mof_C 	C 	0.8994	0.1832	0.8858	-0.06
Mof_C 	C 	0.95981	0.79591	0.41242	0.172
Mof_C 	C 	0.90884	0.70494	0.37388	-0.207
Mof_C 	C 	0.81633	0.69073	0.36706	0.175
Mof_C 	C 	0.7782	0.7672	0.401	-0.184
Mof_C 	C 	0.83413	0.85583	0.43906	0.107
Mof_C 	C 	0.75714	0.59284	0.32308	-0.154
Mof_C 	C 	0.58069	0.57129	0.20118	0.208
Mof_C 	C 	0.52761	0.53451	0.09402	-0.051
Mof_C 	C 	0.59485	0.50395	0.0603	0.01
Mof_C 	C 	0.69137	0.51967	0.14374	0.187
Mof_C 	C 	0.43139	0.53229	0.03658	0.019
Mof_C 	C 	0.89983	0.08493	0.61746	0.323
Mof_C 	C 	0.89939	0.11479	0.70958	-0.077
Mof_C 	C 	0.98644	0.16794	0.79788	0.036
Mof_C 	C 	0.9864	0.2026	0.8858	0.009
Mof_N 	N 	0.47813	0.92543	0.55546	-0.215
Mof_N 	N 	0.45295	0.83495	0.7757	-0.138
Mof_N 	N 	0.07733	0.13003	0.55546	-0.223
Mof_N 	N 	0.32275	0.44075	0.7757	-0.142
Mof_N 	N 	0.52187	0.07457	0.44454	-0.234
Mof_N 	N 	0.54705	0.16505	0.2243	-0.141
Mof_N 	N 	0.92267	0.86997	0.44454	-0.222
Mof_N 	N 	0.67725	0.55925	0.2243	-0.137
Mof_O 	O 	0.6247	0.8588	0.8556	-0.199
Mof_O 	O 	0.29141	0.84761	0.74202	-0.224
Mof_O 	O 	0.36232	0.93932	0.39024	-0.383
Mof_O 	O 	0.27945	0.04235	0.4451	-0.333
Mof_O 	O 	0.2309	0.4968	0.8556	-0.226
Mof_O 	O 	0.45061	0.39441	0.74202	-0.22
Mof_O 	O 	0.02792	0.95092	0.39024	-0.365
Mof_O 	O 	0.16565	0.90275	0.4451	-0.263
Mof_O 	O 	0.3753	0.1412	0.1444	-0.227
Mof_O 	O 	0.70859	0.15239	0.25798	-0.217
Mof_O 	O 	0.63768	0.06068	0.60976	-0.386
Mof_O 	O 	0.72055	0.95765	0.5549	-0.219
Mof_O 	O 	0.7691	0.5032	0.1444	-0.2
Mof_O 	O 	0.54939	0.60559	0.25798	-0.222
Mof_O 	O 	0.97208	0.04908	0.60976	-0.393
Mof_O 	O 	0.83435	0.09725	0.5549	-0.283
Mof_Cu	Cu	-1.67542e-17	0.5	0.5	0.881
Mof_Cu	Cu	0.5	0.5	0.5	0.896
Mof_H 	H 	0.8929	0.3056	0.416	0.012
Mof_H 	H 	0.9153	0.1539	0.3528	0.093
Mof_H 	H 	0.1833	0.2594	0.3984	0.1
Mof_H 	H 	0.1542	0.4082	0.462	0.016
Mof_H 	H 	0.0198	0.0501	0.3218	0.065
Mof_H 	H 	0.1354	0.0935	0.3632	0.086
Mof_H 	H 	0.1746	0.0537	0.061	0.077
Mof_H 	H 	0.2512	0.681	0.7984	0.051
Mof_H 	H 	0.399	0.7396	0.9454	0.055
Mof_H 	H 	0.5231	0.6104	0.416	0.011
Mof_H 	H 	0.4375	0.6989	0.3528	0.11
Mof_H 	H 	0.2151	0.639	0.3984	0.108
Mof_H 	H 	0.3078	0.5538	0.462	0.011
Mof_H 	H 	0.302	0.7717	0.3218	0.099
Mof_H 	H 	0.2278	0.7697	0.3632	0.101
Mof_H 	H 	0.8864	0.5073	0.061	0.038
Mof_H 	H 	0.5472	0.6174	0.7984	0.055
Mof_H 	H 	0.5464	0.7058	0.9454	0.055
Mof_H 	H 	0.1071	0.6944	0.584	0.012
Mof_H 	H 	0.0847	0.8461	0.6472	0.122
Mof_H 	H 	0.8167	0.7406	0.6016	0.12
Mof_H 	H 	0.8458	0.5918	0.538	0.008
Mof_H 	H 	0.9802	0.9499	0.6782	0.129
Mof_H 	H 	0.8646	0.9065	0.6368	0.118
Mof_H 	H 	0.8254	0.9463	0.939	0.066
Mof_H 	H 	0.7488	0.319	0.2016	0.057
Mof_H 	H 	0.601	0.2604	0.0546	0.052
Mof_H 	H 	0.4769	0.3896	0.584	0.011
Mof_H 	H 	0.5625	0.3011	0.6472	0.106
Mof_H 	H 	0.7849	0.361	0.6016	0.113
Mof_H 	H 	0.6922	0.4462	0.538	0.012
Mof_H 	H 	0.698	0.2283	0.6782	0.096
Mof_H 	H 	0.7722	0.2303	0.6368	0.104
Mof_H 	H 	0.1136	0.4927	0.939	0.106
Mof_H 	H 	0.4528	0.3826	0.2016	0.053
Mof_H 	H 	0.4536	0.2942	0.0546	0.053
Mof_C 	C 	0.95261	0.29591	0.41242	0.111
Mof_C 	C 	0.96504	0.20494	0.37388	-0.109
Mof_C 	C 	0.05073	0.19073	0.36706	0.09
Mof_C 	C 	0.1228	0.2672	0.401	-0.145
Mof_C 	C 	0.10493	0.35583	0.43906	0.076
Mof_C 	C 	0.06594	0.09284	0.32308	-0.109
Mof_C 	C 	0.12049	0.07129	0.20118	0.193
Mof_C 	C 	0.06641	0.03451	0.09402	-0.047
Mof_C 	C 	0.96545	0.00395	0.0603	-0.047
Mof_C 	C 	0.95237	0.01967	0.14374	0.232
Mof_C 	C 	0.10519	0.03229	0.03658	-0.075
Mof_C 	C 	0.21763	0.58493	0.61746	0.321
Mof_C 	C 	0.31019	0.61479	0.70958	-0.05
Mof_C 	C 	0.31144	0.66794	0.79788	-0.007
Mof_C 	C 	0.3994	0.7026	0.8858	-0.037
Mof_C 	C 	0.45981	0.61651	0.41242	0.096
Mof_C 	C 	0.40884	0.66894	0.37388	-0.172
Mof_C 	C 	0.31633	0.67633	0.36706	0.153
Mof_C 	C 	0.2782	0.6338	0.401	-0.173
Mof_C 	C 	0.33413	0.58323	0.43906	0.095
Mof_C 	C 	0.25714	0.73024	0.32308	-0.144
Mof_C 	C 	0.08069	0.62989	0.20118	0.228
Mof_C 	C 	0.02761	0.55951	0.09402	-0.129
Mof_C 	C 	0.09485	0.55635	0.0603	0.06
Mof_C 	C 	0.19137	0.62407	0.14374	0.17
Mof_C 	C 	0.93139	0.50429	0.03658	0.106
Mof_C 	C 	0.39983	0.53253	0.61746	0.319
Mof_C 	C 	0.39939	0.59479	0.70958	-0.046
Mof_C 	C 	0.48644	0.62994	0.79788	-0.01
Mof_C 	C 	0.4864	0.6832	0.8858	-0.033
Mof_C 	C 	0.04739	0.70409	0.58758	0.081
Mof_C 	C 	0.03496	0.79506	0.62612	-0.228
Mof_C 	C 	0.94927	0.80927	0.63294	0.212
Mof_C 	C 	0.8772	0.7328	0.599	-0.198
Mof_C 	C 	0.89507	0.64417	0.56094	0.114
Mof_C 	C 	0.93406	0.90716	0.67692	-0.176
Mof_C 	C 	0.87951	0.92871	0.79882	0.206
Mof_C 	C 	0.93359	0.96549	0.90598	-0.011
Mof_C 	C 	0.03455	0.99605	0.9397	-0.007
Mof_C 	C 	0.04763	0.98033	0.85626	0.166
Mof_C 	C 	0.89481	0.96771	0.96342	0.018
Mof_C 	C 	0.78237	0.41507	0.38254	0.316
Mof_C 	C 	0.68981	0.38521	0.29042	-0.045
Mof_C 	C 	0.68856	0.33206	0.20212	-0.011
Mof_C 	C 	0.6006	0.2974	0.1142	-0.033
Mof_C 	C 	0.54019	0.38349	0.58758	0.096
Mof_C 	C 	0.59116	0.33106	0.62612	-0.171
Mof_C 	C 	0.68367	0.32367	0.63294	0.153
Mof_C 	C 	0.7218	0.3662	0.599	-0.173
Mof_C 	C 	0.66587	0.41677	0.56094	0.097
Mof_C 	C 	0.74286	0.26976	0.67692	-0.144
Mof_C 	C 	0.91931	0.37011	0.79882	0.17
Mof_C 	C 	0.97239	0.44049	0.90598	0.079
Mof_C 	C 	0.90515	0.44365	0.9397	-0.115
Mof_C 	C 	0.80863	0.37593	0.85626	0.226
Mof_C 	C 	0.06861	0.49571	0.96342	-0.169
Mof_C 	C 	0.60017	0.46747	0.38254	0.32
Mof_C 	C 	0.60061	0.40521	0.29042	-0.049
Mof_C 	C 	0.51356	0.37006	0.20212	-0.007
Mof_C 	C 	0.5136	0.3168	0.1142	-0.037
Mof_N 	N 	0.02187	0.36997	0.44454	-0.243
Mof_N 	N 	0.04705	0.05925	0.2243	-0.166
Mof_N 	N 	0.42267	0.57457	0.44454	-0.228
Mof_N 	N 	0.17725	0.66505	0.2243	-0.14
Mof_N 	N 	0.97813	0.63003	0.55546	-0.209
Mof_N 	N 	0.95295	0.94075	0.7757	-0.115
Mof_N 	N 	0.57733	0.42543	0.55546	-0.228
Mof_N 	N 	0.82275	0.33495	0.7757	-0.139
Mof_O 	O 	0.8753	0.0032	0.1444	-0.229
Mof_O 	O 	0.20859	0.10559	0.25798	-0.228
Mof_O 	O 	0.13768	0.54908	0.60976	-0.395
Mof_O 	O 	0.22055	0.59725	0.5549	-0.279
Mof_O 	O 	0.2691	0.6412	0.1444	-0.199
Mof_O 	O 	0.04939	0.65239	0.25798	-0.241
Mof_O 	O 	0.47208	0.56068	0.60976	-0.388
Mof_O 	O 	0.33435	0.45765	0.5549	-0.276
Mof_O 	O 	0.1247	0.9968	0.8556	-0.195
Mof_O 	O 	0.79141	0.89441	0.74202	-0.214
Mof_O 	O 	0.86232	0.45092	0.39024	-0.377
Mof_O 	O 	0.77945	0.40275	0.4451	-0.271
Mof_O 	O 	0.7309	0.3588	0.8556	-0.226
Mof_O 	O 	0.95061	0.34761	0.74202	-0.198
Mof_O 	O 	0.52792	0.43932	0.39024	-0.389
Mof_O 	O 	0.66565	0.54235	0.4451	-0.275
_end
