data_functionalizedCrystal
_audit_creation_method	'EQeq! by Chris Wilmer'
_symmetry_space_group_name_H-M	'P1'
_symmetry_Int_Tables_number	1
_symmetry_cell_setting	triclinic
loop_
_symmetry_equiv_pos_as_xyz
  x,y,z
_cell_length_a	25.5191
_cell_length_b	25.5191
_cell_length_c	50.91
_cell_angle_alpha	90
_cell_angle_beta	90
_cell_angle_gamma	90
loop_
_atom_site_label
_atom_site_type_symbol
_atom_site_fract_x
_atom_site_fract_y
_atom_site_fract_z
_atom_site_charge
Mof_C 	C 	0.2349	0.9575	0.93068	0.381
Mof_C 	C 	0.2256	0.9617	0.9015	-0.093
Mof_C 	C 	0.2545	0.9314	0.88423	0.01
Mof_C 	C 	0.1885	0.997	0.89272	-0.001
Mof_C 	C 	0.3588	0.9241	0.8947	-0.367
Mof_H 	H 	0.3533	0.9531	0.8824	0.129
Mof_H 	H 	0.3877	0.902	0.8885	0.114
Mof_H 	H 	0.3675	0.9381	0.9121	0.125
Mof_C 	C 	0.0945	0.9907	0.9176	-0.406
Mof_H 	H 	0.0825	0.9836	0.8997	0.136
Mof_H 	H 	0.0664	0.0082	0.9274	0.139
Mof_H 	H 	0.1034	0.9576	0.9263	0.156
Mof_S 	S 	0.40573	0.08831	0.02216	-0.006
Mof_S 	S 	0.53063	0.11944	0.02525	0.131
Mof_S 	S 	0.418	0.06451	0.02275	0.142
Mof_S 	S 	0.54374	0.09549	0.02615	-0.061
Mof_O 	O 	0.3639	0.9608	0.0144	-0.284
Mof_O 	O 	0.3605	0.0018	0.97549	-0.016
Mof_O 	O 	0.3778	0.9371	0.0161	-0.318
Mof_O 	O 	0.3713	0.9786	0.9778	-0.426
Mof_C 	C 	0.3834	0.9847	0.9969	-0.2
Mof_C 	C 	0.4408	0.9988	0.99838	-0.546
Mof_C 	C 	0.4561	0.0459	0.00964	-0.074
Mof_C 	C 	0.5089	0.05894	0.01093	-0.427
Mof_C 	C 	0.4536	0.9752	0.99904	0.167
Mof_C 	C 	0.469	0.0224	0.0103	0.312
Mof_C 	C 	0.5218	0.03542	0.01159	0.23
Mof_C 	C 	0.396	0.9613	0.99772	0.722
Mof_C 	C 	0.396	0.1307	0.9944	0.071
Mof_H 	H 	0.3924	0.1096	0.9784	-0.007
Mof_H 	H 	0.4262	0.1542	0.9926	-0.016
Mof_H 	H 	0.3642	0.1515	0.997	-0.144
Mof_C 	C 	0.529	0.099	0.0594	-0.424
Mof_H 	H 	0.5509	0.0678	0.0616	0.225
Mof_H 	H 	0.4929	0.0909	0.0644	0.093
Mof_H 	H 	0.5424	0.1274	0.0705	0.112
Mof_C 	C 	0.4164	0.1133	0.9971	-0.658
Mof_H 	H 	0.4201	0.0962	0.9799	0.234
Mof_H 	H 	0.383	0.1322	0.9977	0.275
Mof_H 	H 	0.4453	0.1381	0.9996	0.216
Mof_C 	C 	0.535	0.0774	0.0602	-0.055
Mof_H 	H 	0.545	0.0407	0.0626	-0.077
Mof_H 	H 	0.5568	0.0998	0.0713	0.039
Mof_H 	H 	0.498	0.0819	0.0651	0.05
Mof_S 	S 	0.2829	0.27118	0.04564	0.068
Mof_S 	S 	0.29087	0.14312	0.04517	-0.479
Mof_S 	S 	0.32112	0.13773	0.04648	0.43
Mof_S 	S 	0.33137	0.2607	0.04681	-0.023
Mof_O 	O 	0.1948	0.3395	0.0159	-0.302
Mof_O 	O 	0.2568	0.3394	0.9847	-0.558
Mof_C 	C 	0.2247	0.3184	0.0006	0.545
Mof_C 	C 	0.2271	0.25928	0.99972	-0.165
Mof_C 	C 	0.2534	0.2334	0.01978	0.107
Mof_C 	C 	0.25689	0.179	0.01957	0.035
Mof_C 	C 	0.234	0.15056	0.9993	-0.07
Mof_C 	C 	0.29229	0.1765	0.02076	0.069
Mof_C 	C 	0.29577	0.2308	0.02055	-0.064
Mof_C 	C 	0.2256	0.2846	0.0664	-0.406
Mof_H 	H 	0.2367	0.3037	0.0821	0.143
Mof_H 	H 	0.2003	0.3058	0.0565	0.16
Mof_H 	H 	0.2092	0.2514	0.0716	0.132
Mof_C 	C 	0.2386	0.1327	0.0691	-0.092
Mof_H 	H 	0.2088	0.1156	0.0605	-0.015
Mof_H 	H 	0.2515	0.1103	0.0834	-0.375
Mof_H 	H 	0.2275	0.1665	0.0763	0.03
Mof_C 	C 	0.2662	0.1397	0.069	-0.312
Mof_H 	H 	0.2334	0.1377	0.0591	0.246
Mof_H 	H 	0.2684	0.11	0.0812	0.5
Mof_H 	H 	0.2672	0.1725	0.079	0.11
Mof_C 	C 	0.3961	0.2485	0.0328	-0.328
Mof_H 	H 	0.4051	0.2114	0.0349	0.103
Mof_H 	H 	0.3958	0.2573	0.014	0.108
Mof_H 	H 	0.4222	0.2701	0.0418	0.102
Mof_O 	O 	0.1407	0.3565	0.0284	-0.683
Mof_H 	H 	0.111	0.354	0.021	0.277
Mof_H 	H 	0.14	0.328	0.037	0.296
Mof_O 	O 	0.2824	0.0706	0.98528	-0.502
Mof_O 	O 	0.2089	0.9247	0.94306	-0.469
Mof_O 	O 	0.2693	0.9888	0.9395	-0.497
Mof_S 	S 	0.29974	0.88529	0.8969	0.01
Mof_S 	S 	0.15167	0.03258	0.91663	0.006
Mof_Zn	Zn	0.28979	0.9963	0.97611	1.207
Mof_Zn	Zn	0.19714	0.91168	0.98109	1.247
Mof_C 	C 	0.7349	0.4575	0.43068	0.384
Mof_C 	C 	0.7256	0.4617	0.4015	-0.099
Mof_C 	C 	0.7545	0.4314	0.38423	0.014
Mof_C 	C 	0.6885	0.497	0.39272	0.017
Mof_C 	C 	0.8588	0.4241	0.3947	-0.368
Mof_H 	H 	0.8533	0.4531	0.3824	0.131
Mof_H 	H 	0.8877	0.402	0.3885	0.114
Mof_H 	H 	0.8675	0.4381	0.4121	0.126
Mof_C 	C 	0.5945	0.4907	0.4176	-0.372
Mof_H 	H 	0.5825	0.4836	0.3997	0.129
Mof_H 	H 	0.5664	0.5082	0.4274	0.124
Mof_H 	H 	0.6034	0.4576	0.4263	0.147
Mof_S 	S 	0.90573	0.58831	0.52216	0.047
Mof_S 	S 	0.03063	0.61944	0.52525	0.149
Mof_S 	S 	0.918	0.56451	0.52275	0.118
Mof_S 	S 	0.04374	0.59549	0.52615	-0.075
Mof_O 	O 	0.8639	0.4608	0.5144	-0.247
Mof_O 	O 	0.8605	0.5018	0.47549	-0.043
Mof_O 	O 	0.8778	0.4371	0.5161	-0.357
Mof_O 	O 	0.8713	0.4786	0.4778	-0.386
Mof_C 	C 	0.8834	0.4847	0.4969	-0.255
Mof_C 	C 	0.9408	0.4988	0.49838	-0.616
Mof_C 	C 	0.9561	0.5459	0.50964	-0.148
Mof_C 	C 	0.0089	0.55894	0.51093	-0.431
Mof_C 	C 	0.9536	0.4752	0.49904	0.228
Mof_C 	C 	0.969	0.5224	0.5103	0.41
Mof_C 	C 	0.0218	0.53542	0.51159	0.248
Mof_C 	C 	0.896	0.4613	0.49772	0.77
Mof_C 	C 	0.896	0.6307	0.4944	0.069
Mof_H 	H 	0.8924	0.6096	0.4784	-0.007
Mof_H 	H 	0.9262	0.6542	0.4926	-0.015
Mof_H 	H 	0.8642	0.6515	0.497	-0.153
Mof_C 	C 	0.029	0.599	0.5594	-0.427
Mof_H 	H 	0.0509	0.5678	0.5616	0.229
Mof_H 	H 	0.9929	0.5909	0.5644	0.094
Mof_H 	H 	0.0424	0.6274	0.5705	0.112
Mof_C 	C 	0.9164	0.6133	0.4971	-0.695
Mof_H 	H 	0.9201	0.5962	0.4799	0.25
Mof_H 	H 	0.883	0.6322	0.4977	0.29
Mof_H 	H 	0.9453	0.6381	0.4996	0.226
Mof_C 	C 	0.035	0.5774	0.5602	-0.057
Mof_H 	H 	0.045	0.5407	0.5626	-0.081
Mof_H 	H 	0.0568	0.5998	0.5713	0.039
Mof_H 	H 	0.998	0.5819	0.5651	0.049
Mof_S 	S 	0.7829	0.77118	0.54564	0.071
Mof_S 	S 	0.79087	0.64312	0.54517	-0.491
Mof_S 	S 	0.82112	0.63773	0.54648	0.437
Mof_S 	S 	0.83137	0.7607	0.54681	-0.026
Mof_O 	O 	0.6948	0.8395	0.5159	-0.301
Mof_O 	O 	0.7568	0.8394	0.4847	-0.558
Mof_C 	C 	0.7247	0.8184	0.5006	0.542
Mof_C 	C 	0.7271	0.75928	0.49972	-0.159
Mof_C 	C 	0.7534	0.7334	0.51978	0.102
Mof_C 	C 	0.75689	0.679	0.51957	0.04
Mof_C 	C 	0.734	0.65056	0.4993	-0.073
Mof_C 	C 	0.79229	0.6765	0.52076	0.066
Mof_C 	C 	0.79577	0.7308	0.52055	-0.059
Mof_C 	C 	0.7256	0.7846	0.5664	-0.407
Mof_H 	H 	0.7367	0.8037	0.5821	0.144
Mof_H 	H 	0.7003	0.8058	0.5565	0.16
Mof_H 	H 	0.7092	0.7514	0.5716	0.132
Mof_C 	C 	0.7386	0.6327	0.5691	-0.088
Mof_H 	H 	0.7088	0.6156	0.5605	-0.016
Mof_H 	H 	0.7515	0.6103	0.5834	-0.376
Mof_H 	H 	0.7275	0.6665	0.5763	0.029
Mof_C 	C 	0.7662	0.6397	0.569	-0.306
Mof_H 	H 	0.7334	0.6377	0.5591	0.243
Mof_H 	H 	0.7684	0.61	0.5812	0.498
Mof_H 	H 	0.7672	0.6725	0.579	0.108
Mof_C 	C 	0.8961	0.7485	0.5328	-0.323
Mof_H 	H 	0.9051	0.7114	0.5349	0.1
Mof_H 	H 	0.8958	0.7573	0.514	0.106
Mof_H 	H 	0.9222	0.7701	0.5418	0.1
Mof_O 	O 	0.6407	0.8565	0.5284	-0.685
Mof_H 	H 	0.611	0.854	0.521	0.277
Mof_H 	H 	0.64	0.828	0.537	0.296
Mof_O 	O 	0.7824	0.5706	0.48528	-0.502
Mof_O 	O 	0.7089	0.4247	0.44306	-0.469
Mof_O 	O 	0.7693	0.4888	0.4395	-0.495
Mof_S 	S 	0.79974	0.38529	0.3969	0.01
Mof_S 	S 	0.65167	0.53258	0.41663	-0.012
Mof_Zn	Zn	0.78979	0.4963	0.47611	1.209
Mof_Zn	Zn	0.69714	0.41168	0.48109	1.247
Mof_C 	C 	0.2651	0.0425	0.43068	0.387
Mof_C 	C 	0.2744	0.0383	0.4015	-0.105
Mof_C 	C 	0.2455	0.0686	0.38423	0.018
Mof_C 	C 	0.3115	0.003	0.39272	0.035
Mof_C 	C 	0.1412	0.0759	0.3947	-0.368
Mof_H 	H 	0.1467	0.0469	0.3824	0.132
Mof_H 	H 	0.1123	0.098	0.3885	0.115
Mof_H 	H 	0.1325	0.0619	0.4121	0.127
Mof_C 	C 	0.4055	0.0093	0.4176	-0.337
Mof_H 	H 	0.4175	0.0164	0.3997	0.121
Mof_H 	H 	0.4336	0.9918	0.4274	0.109
Mof_H 	H 	0.3966	0.0424	0.4263	0.138
Mof_S 	S 	0.09427	0.91169	0.52216	0.097
Mof_S 	S 	0.96937	0.88056	0.52525	0.166
Mof_S 	S 	0.082	0.93549	0.52275	0.096
Mof_S 	S 	0.95626	0.90451	0.52615	-0.087
Mof_O 	O 	0.1361	0.0392	0.5144	-0.211
Mof_O 	O 	0.1395	0.9982	0.47549	-0.072
Mof_O 	O 	0.1222	0.0629	0.5161	-0.395
Mof_O 	O 	0.1287	0.0214	0.4778	-0.344
Mof_C 	C 	0.1166	0.0153	0.4969	-0.308
Mof_C 	C 	0.0592	0.0012	0.49838	-0.682
Mof_C 	C 	0.0439	0.9541	0.50964	-0.218
Mof_C 	C 	0.9911	0.94106	0.51093	-0.435
Mof_C 	C 	0.0464	0.0248	0.49904	0.285
Mof_C 	C 	0.031	0.9776	0.5103	0.502
Mof_C 	C 	0.9782	0.96458	0.51159	0.267
Mof_C 	C 	0.104	0.0387	0.49772	0.814
Mof_C 	C 	0.104	0.8693	0.4944	0.067
Mof_H 	H 	0.1076	0.8904	0.4784	-0.007
Mof_H 	H 	0.0738	0.8458	0.4926	-0.014
Mof_H 	H 	0.1358	0.8485	0.497	-0.161
Mof_C 	C 	0.971	0.901	0.5594	-0.431
Mof_H 	H 	0.9491	0.9322	0.5616	0.234
Mof_H 	H 	0.0071	0.9091	0.5644	0.094
Mof_H 	H 	0.9576	0.8726	0.5705	0.113
Mof_C 	C 	0.0836	0.8867	0.4971	-0.731
Mof_H 	H 	0.0799	0.9038	0.4799	0.265
Mof_H 	H 	0.117	0.8678	0.4977	0.305
Mof_H 	H 	0.0547	0.8619	0.4996	0.236
Mof_C 	C 	0.965	0.9226	0.5602	-0.058
Mof_H 	H 	0.955	0.9593	0.5626	-0.085
Mof_H 	H 	0.9432	0.9002	0.5713	0.039
Mof_H 	H 	0.002	0.9181	0.5651	0.048
Mof_S 	S 	0.2171	0.72882	0.54564	0.072
Mof_S 	S 	0.20913	0.85688	0.54517	-0.502
Mof_S 	S 	0.17888	0.86227	0.54648	0.442
Mof_S 	S 	0.16863	0.7393	0.54681	-0.028
Mof_O 	O 	0.3052	0.6605	0.5159	-0.301
Mof_O 	O 	0.2432	0.6606	0.4847	-0.558
Mof_C 	C 	0.2753	0.6816	0.5006	0.541
Mof_C 	C 	0.2729	0.74072	0.49972	-0.158
Mof_C 	C 	0.2466	0.7666	0.51978	0.101
Mof_C 	C 	0.24311	0.821	0.51957	0.042
Mof_C 	C 	0.266	0.84944	0.4993	-0.074
Mof_C 	C 	0.20771	0.8235	0.52076	0.067
Mof_C 	C 	0.20423	0.7692	0.52055	-0.06
Mof_C 	C 	0.2744	0.7154	0.5664	-0.408
Mof_H 	H 	0.2633	0.6963	0.5821	0.144
Mof_H 	H 	0.2997	0.6942	0.5565	0.16
Mof_H 	H 	0.2908	0.7486	0.5716	0.132
Mof_C 	C 	0.2614	0.8673	0.5691	-0.085
Mof_H 	H 	0.2912	0.8844	0.5605	-0.016
Mof_H 	H 	0.2485	0.8897	0.5834	-0.378
Mof_H 	H 	0.2725	0.8335	0.5763	0.028
Mof_C 	C 	0.2338	0.8603	0.569	-0.3
Mof_H 	H 	0.2666	0.8623	0.5591	0.24
Mof_H 	H 	0.2316	0.89	0.5812	0.497
Mof_H 	H 	0.2328	0.8275	0.579	0.107
Mof_C 	C 	0.1039	0.7515	0.5328	-0.322
Mof_H 	H 	0.0949	0.7886	0.5349	0.098
Mof_H 	H 	0.1042	0.7427	0.514	0.106
Mof_H 	H 	0.0778	0.7299	0.5418	0.1
Mof_O 	O 	0.3593	0.6435	0.5284	-0.683
Mof_H 	H 	0.389	0.646	0.521	0.277
Mof_H 	H 	0.36	0.672	0.537	0.296
Mof_O 	O 	0.2176	0.9294	0.48528	-0.503
Mof_O 	O 	0.2911	0.0753	0.44306	-0.469
Mof_O 	O 	0.2307	0.0112	0.4395	-0.493
Mof_S 	S 	0.20026	0.11471	0.3969	0.009
Mof_S 	S 	0.34833	0.96742	0.41663	-0.031
Mof_Zn	Zn	0.21021	0.0037	0.47611	1.211
Mof_Zn	Zn	0.30286	0.08832	0.48109	1.247
Mof_C 	C 	0.7651	0.5425	0.93068	0.384
Mof_C 	C 	0.7744	0.5383	0.9015	-0.099
Mof_C 	C 	0.7455	0.5686	0.88423	0.014
Mof_C 	C 	0.8115	0.503	0.89272	0.017
Mof_C 	C 	0.6412	0.5759	0.8947	-0.367
Mof_H 	H 	0.6467	0.5469	0.8824	0.131
Mof_H 	H 	0.6123	0.598	0.8885	0.114
Mof_H 	H 	0.6325	0.5619	0.9121	0.126
Mof_C 	C 	0.9055	0.5093	0.9176	-0.371
Mof_H 	H 	0.9175	0.5164	0.8997	0.129
Mof_H 	H 	0.9336	0.4918	0.9274	0.124
Mof_H 	H 	0.8966	0.5424	0.9263	0.147
Mof_S 	S 	0.59427	0.41169	0.02216	0.044
Mof_S 	S 	0.46937	0.38056	0.02525	0.148
Mof_S 	S 	0.582	0.43549	0.02275	0.12
Mof_S 	S 	0.45626	0.40451	0.02615	-0.073
Mof_O 	O 	0.6361	0.5392	0.0144	-0.248
Mof_O 	O 	0.6395	0.4982	0.97549	-0.045
Mof_O 	O 	0.6222	0.5629	0.0161	-0.356
Mof_O 	O 	0.6287	0.5214	0.9778	-0.384
Mof_C 	C 	0.6166	0.5153	0.9969	-0.254
Mof_C 	C 	0.5592	0.5012	0.99838	-0.613
Mof_C 	C 	0.5439	0.4541	0.00964	-0.145
Mof_C 	C 	0.4911	0.44106	0.01093	-0.432
Mof_C 	C 	0.5464	0.5248	0.99904	0.225
Mof_C 	C 	0.531	0.4776	0.0103	0.406
Mof_C 	C 	0.4782	0.46458	0.01159	0.249
Mof_C 	C 	0.604	0.5387	0.99772	0.766
Mof_C 	C 	0.604	0.3693	0.9944	0.069
Mof_H 	H 	0.6076	0.3904	0.9784	-0.007
Mof_H 	H 	0.5738	0.3458	0.9926	-0.015
Mof_H 	H 	0.6358	0.3485	0.997	-0.153
Mof_C 	C 	0.471	0.401	0.0594	-0.428
Mof_H 	H 	0.4491	0.4322	0.0616	0.229
Mof_H 	H 	0.5071	0.4091	0.0644	0.094
Mof_H 	H 	0.4576	0.3726	0.0705	0.112
Mof_C 	C 	0.5836	0.3867	0.9971	-0.695
Mof_H 	H 	0.5799	0.4038	0.9799	0.25
Mof_H 	H 	0.617	0.3678	0.9977	0.29
Mof_H 	H 	0.5547	0.3619	0.9996	0.226
Mof_C 	C 	0.465	0.4226	0.0602	-0.057
Mof_H 	H 	0.455	0.4593	0.0626	-0.081
Mof_H 	H 	0.4432	0.4002	0.0713	0.039
Mof_H 	H 	0.502	0.4181	0.0651	0.049
Mof_S 	S 	0.7171	0.22882	0.04564	0.07
Mof_S 	S 	0.70913	0.35688	0.04517	-0.49
Mof_S 	S 	0.67888	0.36227	0.04648	0.435
Mof_S 	S 	0.66863	0.2393	0.04681	-0.024
Mof_O 	O 	0.8052	0.1605	0.0159	-0.303
Mof_O 	O 	0.7432	0.1606	0.9847	-0.558
Mof_C 	C 	0.7753	0.1816	0.0006	0.545
Mof_C 	C 	0.7729	0.24072	0.99972	-0.164
Mof_C 	C 	0.7466	0.2666	0.01978	0.106
Mof_C 	C 	0.74311	0.321	0.01957	0.036
Mof_C 	C 	0.766	0.34944	0.9993	-0.071
Mof_C 	C 	0.70771	0.3235	0.02076	0.071
Mof_C 	C 	0.70423	0.2692	0.02055	-0.064
Mof_C 	C 	0.7744	0.2154	0.0664	-0.407
Mof_H 	H 	0.7633	0.1963	0.0821	0.144
Mof_H 	H 	0.7997	0.1942	0.0565	0.16
Mof_H 	H 	0.7908	0.2486	0.0716	0.132
Mof_C 	C 	0.7614	0.3673	0.0691	-0.089
Mof_H 	H 	0.7912	0.3844	0.0605	-0.015
Mof_H 	H 	0.7485	0.3897	0.0834	-0.376
Mof_H 	H 	0.7725	0.3335	0.0763	0.029
Mof_C 	C 	0.7338	0.3603	0.069	-0.306
Mof_H 	H 	0.7666	0.3623	0.0591	0.243
Mof_H 	H 	0.7316	0.39	0.0812	0.499
Mof_H 	H 	0.7328	0.3275	0.079	0.108
Mof_C 	C 	0.6039	0.2515	0.0328	-0.326
Mof_H 	H 	0.5949	0.2886	0.0349	0.101
Mof_H 	H 	0.6042	0.2427	0.014	0.107
Mof_H 	H 	0.5778	0.2299	0.0418	0.102
Mof_O 	O 	0.8593	0.1435	0.0284	-0.681
Mof_H 	H 	0.889	0.146	0.021	0.277
Mof_H 	H 	0.86	0.172	0.037	0.296
Mof_O 	O 	0.7176	0.4294	0.98528	-0.503
Mof_O 	O 	0.7911	0.5753	0.94306	-0.469
Mof_O 	O 	0.7307	0.5112	0.9395	-0.495
Mof_S 	S 	0.70026	0.61471	0.8969	0.01
Mof_S 	S 	0.84833	0.46742	0.91663	-0.012
Mof_Zn	Zn	0.71021	0.5037	0.97611	1.209
Mof_Zn	Zn	0.80286	0.58832	0.98109	1.247
Mof_C 	C 	0.2925	0.9849	0.18068	0.379
Mof_C 	C 	0.2883	0.9756	0.1515	-0.11
Mof_C 	C 	0.3186	0.0045	0.13423	0.032
Mof_C 	C 	0.253	0.9385	0.14272	0.021
Mof_C 	C 	0.3259	0.1088	0.1447	-0.367
Mof_H 	H 	0.2969	0.1033	0.1324	0.131
Mof_H 	H 	0.348	0.1377	0.1385	0.114
Mof_H 	H 	0.3119	0.1175	0.1621	0.126
Mof_C 	C 	0.2593	0.8445	0.1676	-0.37
Mof_H 	H 	0.2664	0.8325	0.1497	0.128
Mof_H 	H 	0.2418	0.8164	0.1774	0.123
Mof_H 	H 	0.2924	0.8534	0.1763	0.147
Mof_S 	S 	0.16169	0.15573	0.27216	0.046
Mof_S 	S 	0.13056	0.28063	0.27525	0.149
Mof_S 	S 	0.18549	0.168	0.27275	0.12
Mof_S 	S 	0.15451	0.29374	0.27615	-0.074
Mof_O 	O 	0.2892	0.1139	0.2644	-0.247
Mof_O 	O 	0.2482	0.1105	0.22549	-0.043
Mof_O 	O 	0.3129	0.1278	0.2661	-0.357
Mof_O 	O 	0.2714	0.1213	0.2278	-0.386
Mof_C 	C 	0.2653	0.1334	0.2469	-0.255
Mof_C 	C 	0.2512	0.1908	0.24838	-0.616
Mof_C 	C 	0.2041	0.2061	0.25964	-0.147
Mof_C 	C 	0.19106	0.2589	0.26093	-0.434
Mof_C 	C 	0.2748	0.2036	0.24904	0.227
Mof_C 	C 	0.2276	0.219	0.2603	0.409
Mof_C 	C 	0.21458	0.2718	0.26159	0.25
Mof_C 	C 	0.2887	0.146	0.24772	0.769
Mof_C 	C 	0.1193	0.146	0.2444	0.069
Mof_H 	H 	0.1404	0.1424	0.2284	-0.007
Mof_H 	H 	0.0958	0.1762	0.2426	-0.015
Mof_H 	H 	0.0985	0.1142	0.247	-0.153
Mof_C 	C 	0.151	0.279	0.3094	-0.428
Mof_H 	H 	0.1822	0.3009	0.3116	0.229
Mof_H 	H 	0.1591	0.2429	0.3144	0.094
Mof_H 	H 	0.1226	0.2924	0.3205	0.112
Mof_C 	C 	0.1367	0.1664	0.2471	-0.696
Mof_H 	H 	0.1538	0.1701	0.2299	0.25
Mof_H 	H 	0.1178	0.133	0.2477	0.291
Mof_H 	H 	0.1119	0.1953	0.2496	0.227
Mof_C 	C 	0.1726	0.285	0.3102	-0.057
Mof_H 	H 	0.2093	0.295	0.3126	-0.081
Mof_H 	H 	0.1502	0.3068	0.3213	0.039
Mof_H 	H 	0.1681	0.248	0.3151	0.049
Mof_S 	S 	0.97882	0.0329	0.29564	0.076
Mof_S 	S 	0.10688	0.04087	0.29517	-0.486
Mof_S 	S 	0.11227	0.07112	0.29648	0.42
Mof_S 	S 	0.9893	0.08137	0.29681	-0.016
Mof_O 	O 	0.9105	0.9448	0.2659	-0.304
Mof_O 	O 	0.9106	0.0068	0.2347	-0.552
Mof_C 	C 	0.9316	0.9747	0.2506	0.552
Mof_C 	C 	0.99072	0.9771	0.24972	-0.206
Mof_C 	C 	0.0166	0.0034	0.26978	0.146
Mof_C 	C 	0.071	0.00689	0.26957	-0.004
Mof_C 	C 	0.09944	0.984	0.2493	-0.021
Mof_C 	C 	0.0735	0.04229	0.27076	0.134
Mof_C 	C 	0.0192	0.04577	0.27055	-0.117
Mof_C 	C 	0.9654	0.9756	0.3164	-0.416
Mof_H 	H 	0.9463	0.9867	0.3321	0.144
Mof_H 	H 	0.9442	0.9503	0.3065	0.162
Mof_H 	H 	0.9986	0.9592	0.3216	0.133
Mof_C 	C 	0.1173	0.9886	0.3191	-0.071
Mof_H 	H 	0.1344	0.9588	0.3105	-0.016
Mof_H 	H 	0.1397	0.0015	0.3334	-0.378
Mof_H 	H 	0.0835	0.9775	0.3263	0.022
Mof_C 	C 	0.1103	0.0162	0.319	-0.299
Mof_H 	H 	0.1123	0.9834	0.3091	0.227
Mof_H 	H 	0.14	0.0184	0.3312	0.497
Mof_H 	H 	0.0775	0.0172	0.329	0.109
Mof_C 	C 	0.0015	0.1461	0.2828	-0.329
Mof_H 	H 	0.0386	0.1551	0.2849	0.102
Mof_H 	H 	0.9927	0.1458	0.264	0.108
Mof_H 	H 	0.9799	0.1722	0.2918	0.102
Mof_O 	O 	0.8935	0.8907	0.2784	-0.683
Mof_H 	H 	0.896	0.861	0.271	0.277
Mof_H 	H 	0.922	0.89	0.287	0.296
Mof_O 	O 	0.1794	0.0324	0.23528	-0.504
Mof_O 	O 	0.3253	0.9589	0.19306	-0.47
Mof_O 	O 	0.2612	0.0193	0.1895	-0.489
Mof_S 	S 	0.36471	0.04974	0.1469	0.009
Mof_S 	S 	0.21742	0.90167	0.16663	-0.015
Mof_Zn	Zn	0.2537	0.03979	0.22611	1.209
Mof_Zn	Zn	0.33832	0.94714	0.23109	1.246
Mof_C 	C 	0.7925	0.4849	0.68068	0.384
Mof_C 	C 	0.7883	0.4756	0.6515	-0.099
Mof_C 	C 	0.8186	0.5045	0.63423	0.014
Mof_C 	C 	0.753	0.4385	0.64272	0.017
Mof_C 	C 	0.8259	0.6088	0.6447	-0.367
Mof_H 	H 	0.7969	0.6033	0.6324	0.131
Mof_H 	H 	0.848	0.6377	0.6385	0.114
Mof_H 	H 	0.8119	0.6175	0.6621	0.126
Mof_C 	C 	0.7593	0.3445	0.6676	-0.372
Mof_H 	H 	0.7664	0.3325	0.6497	0.129
Mof_H 	H 	0.7418	0.3164	0.6774	0.124
Mof_H 	H 	0.7924	0.3534	0.6763	0.147
Mof_S 	S 	0.66169	0.65573	0.77216	0.046
Mof_S 	S 	0.63056	0.78063	0.77525	0.148
Mof_S 	S 	0.68549	0.668	0.77275	0.118
Mof_S 	S 	0.65451	0.79374	0.77615	-0.073
Mof_O 	O 	0.7892	0.6139	0.7644	-0.248
Mof_O 	O 	0.7482	0.6105	0.72549	-0.044
Mof_O 	O 	0.8129	0.6278	0.7661	-0.356
Mof_O 	O 	0.7714	0.6213	0.7278	-0.385
Mof_C 	C 	0.7653	0.6334	0.7469	-0.254
Mof_C 	C 	0.7512	0.6908	0.74838	-0.613
Mof_C 	C 	0.7041	0.7061	0.75964	-0.147
Mof_C 	C 	0.69106	0.7589	0.76093	-0.43
Mof_C 	C 	0.7748	0.7036	0.74904	0.226
Mof_C 	C 	0.7276	0.719	0.7603	0.407
Mof_C 	C 	0.71458	0.7718	0.76159	0.248
Mof_C 	C 	0.7887	0.646	0.74772	0.768
Mof_C 	C 	0.6193	0.646	0.7444	0.069
Mof_H 	H 	0.6404	0.6424	0.7284	-0.007
Mof_H 	H 	0.5958	0.6762	0.7426	-0.015
Mof_H 	H 	0.5985	0.6142	0.747	-0.153
Mof_C 	C 	0.651	0.779	0.8094	-0.427
Mof_H 	H 	0.6822	0.8009	0.8116	0.229
Mof_H 	H 	0.6591	0.7429	0.8144	0.094
Mof_H 	H 	0.6226	0.7924	0.8205	0.112
Mof_C 	C 	0.6367	0.6664	0.7471	-0.694
Mof_H 	H 	0.6538	0.6701	0.7299	0.25
Mof_H 	H 	0.6178	0.633	0.7477	0.29
Mof_H 	H 	0.6119	0.6953	0.7496	0.226
Mof_C 	C 	0.6726	0.785	0.8102	-0.056
Mof_H 	H 	0.7093	0.795	0.8126	-0.081
Mof_H 	H 	0.6502	0.8068	0.8213	0.039
Mof_H 	H 	0.6681	0.748	0.8151	0.049
Mof_S 	S 	0.47882	0.5329	0.79564	0.071
Mof_S 	S 	0.60688	0.54087	0.79517	-0.491
Mof_S 	S 	0.61227	0.57112	0.79648	0.437
Mof_S 	S 	0.4893	0.58137	0.79681	-0.026
Mof_O 	O 	0.4105	0.4448	0.7659	-0.301
Mof_O 	O 	0.4106	0.5068	0.7347	-0.558
Mof_C 	C 	0.4316	0.4747	0.7506	0.542
Mof_C 	C 	0.49072	0.4771	0.74972	-0.159
Mof_C 	C 	0.5166	0.5034	0.76978	0.102
Mof_C 	C 	0.571	0.50689	0.76957	0.04
Mof_C 	C 	0.59944	0.484	0.7493	-0.073
Mof_C 	C 	0.5735	0.54229	0.77076	0.066
Mof_C 	C 	0.5192	0.54577	0.77055	-0.059
Mof_C 	C 	0.4654	0.4756	0.8164	-0.407
Mof_H 	H 	0.4463	0.4867	0.8321	0.144
Mof_H 	H 	0.4442	0.4503	0.8065	0.16
Mof_H 	H 	0.4986	0.4592	0.8216	0.132
Mof_C 	C 	0.6173	0.4886	0.8191	-0.088
Mof_H 	H 	0.6344	0.4588	0.8105	-0.016
Mof_H 	H 	0.6397	0.5015	0.8334	-0.376
Mof_H 	H 	0.5835	0.4775	0.8263	0.029
Mof_C 	C 	0.6103	0.5162	0.819	-0.306
Mof_H 	H 	0.6123	0.4834	0.8091	0.243
Mof_H 	H 	0.64	0.5184	0.8312	0.498
Mof_H 	H 	0.5775	0.5172	0.829	0.108
Mof_C 	C 	0.5015	0.6461	0.7828	-0.324
Mof_H 	H 	0.5386	0.6551	0.7849	0.1
Mof_H 	H 	0.4927	0.6458	0.764	0.107
Mof_H 	H 	0.4799	0.6722	0.7918	0.101
Mof_O 	O 	0.3935	0.3907	0.7784	-0.683
Mof_H 	H 	0.396	0.361	0.771	0.277
Mof_H 	H 	0.422	0.39	0.787	0.296
Mof_O 	O 	0.6794	0.5324	0.73528	-0.502
Mof_O 	O 	0.8253	0.4589	0.69306	-0.469
Mof_O 	O 	0.7612	0.5193	0.6895	-0.495
Mof_S 	S 	0.86471	0.54974	0.6469	0.01
Mof_S 	S 	0.71742	0.40167	0.66663	-0.012
Mof_Zn	Zn	0.7537	0.53979	0.72611	1.209
Mof_Zn	Zn	0.83832	0.44714	0.73109	1.247
Mof_C 	C 	0.2075	0.0151	0.68068	0.389
Mof_C 	C 	0.2117	0.0244	0.6515	-0.088
Mof_C 	C 	0.1814	0.9955	0.63423	-0.004
Mof_C 	C 	0.247	0.0615	0.64272	0.013
Mof_C 	C 	0.1741	0.8912	0.6447	-0.368
Mof_H 	H 	0.2031	0.8967	0.6324	0.131
Mof_H 	H 	0.152	0.8623	0.6385	0.114
Mof_H 	H 	0.1881	0.8825	0.6621	0.126
Mof_C 	C 	0.2407	0.1555	0.6676	-0.373
Mof_H 	H 	0.2336	0.1675	0.6497	0.129
Mof_H 	H 	0.2582	0.1836	0.6774	0.124
Mof_H 	H 	0.2076	0.1466	0.6763	0.147
Mof_S 	S 	0.33831	0.84427	0.77216	0.048
Mof_S 	S 	0.36944	0.71937	0.77525	0.149
Mof_S 	S 	0.31451	0.832	0.77275	0.115
Mof_S 	S 	0.34549	0.70626	0.77615	-0.075
Mof_O 	O 	0.2108	0.8861	0.7644	-0.248
Mof_O 	O 	0.2518	0.8895	0.72549	-0.042
Mof_O 	O 	0.1871	0.8722	0.7661	-0.357
Mof_O 	O 	0.2286	0.8787	0.7278	-0.387
Mof_C 	C 	0.2347	0.8666	0.7469	-0.256
Mof_C 	C 	0.2488	0.8092	0.74838	-0.617
Mof_C 	C 	0.2959	0.7939	0.75964	-0.148
Mof_C 	C 	0.30894	0.7411	0.76093	-0.429
Mof_C 	C 	0.2252	0.7964	0.74904	0.228
Mof_C 	C 	0.2724	0.781	0.7603	0.41
Mof_C 	C 	0.28542	0.7282	0.76159	0.247
Mof_C 	C 	0.2113	0.854	0.74772	0.771
Mof_C 	C 	0.3807	0.854	0.7444	0.069
Mof_H 	H 	0.3596	0.8576	0.7284	-0.007
Mof_H 	H 	0.4042	0.8238	0.7426	-0.015
Mof_H 	H 	0.4015	0.8858	0.747	-0.151
Mof_C 	C 	0.349	0.721	0.8094	-0.427
Mof_H 	H 	0.3178	0.6991	0.8116	0.229
Mof_H 	H 	0.3409	0.7571	0.8144	0.094
Mof_H 	H 	0.3774	0.7076	0.8205	0.112
Mof_C 	C 	0.3633	0.8336	0.7471	-0.694
Mof_H 	H 	0.3462	0.8299	0.7299	0.25
Mof_H 	H 	0.3822	0.867	0.7477	0.289
Mof_H 	H 	0.3881	0.8047	0.7496	0.226
Mof_C 	C 	0.3274	0.715	0.8102	-0.056
Mof_H 	H 	0.2907	0.705	0.8126	-0.081
Mof_H 	H 	0.3498	0.6932	0.8213	0.039
Mof_H 	H 	0.3319	0.752	0.8151	0.049
Mof_S 	S 	0.52118	0.9671	0.79564	0.067
Mof_S 	S 	0.39312	0.95913	0.79517	-0.491
Mof_S 	S 	0.38773	0.92888	0.79648	0.451
Mof_S 	S 	0.5107	0.91863	0.79681	-0.039
Mof_O 	O 	0.5895	0.0552	0.7659	-0.299
Mof_O 	O 	0.5894	0.9932	0.7347	-0.564
Mof_C 	C 	0.5684	0.0253	0.7506	0.53
Mof_C 	C 	0.50928	0.0229	0.74972	-0.108
Mof_C 	C 	0.4834	0.9966	0.76978	0.049
Mof_C 	C 	0.429	0.99311	0.76957	0.098
Mof_C 	C 	0.40056	0.016	0.7493	-0.134
Mof_C 	C 	0.4265	0.95771	0.77076	-0.012
Mof_C 	C 	0.4808	0.95423	0.77055	0.004
Mof_C 	C 	0.5346	0.0244	0.8164	-0.399
Mof_H 	H 	0.5537	0.0133	0.8321	0.144
Mof_H 	H 	0.5558	0.0497	0.8065	0.159
Mof_H 	H 	0.5014	0.0408	0.8216	0.131
Mof_C 	C 	0.3827	0.0114	0.8191	-0.108
Mof_H 	H 	0.3656	0.0412	0.8105	-0.015
Mof_H 	H 	0.3603	0.9985	0.8334	-0.374
Mof_H 	H 	0.4165	0.0225	0.8263	0.037
Mof_C 	C 	0.3897	0.9838	0.819	-0.315
Mof_H 	H 	0.3877	0.0166	0.8091	0.26
Mof_H 	H 	0.36	0.9816	0.8312	0.5
Mof_H 	H 	0.4225	0.9828	0.829	0.108
Mof_C 	C 	0.4985	0.8539	0.7828	-0.318
Mof_H 	H 	0.4614	0.8449	0.7849	0.099
Mof_H 	H 	0.5073	0.8542	0.764	0.104
Mof_H 	H 	0.5201	0.8278	0.7918	0.1
Mof_O 	O 	0.6065	0.1093	0.7784	-0.684
Mof_H 	H 	0.604	0.139	0.771	0.277
Mof_H 	H 	0.578	0.11	0.787	0.296
Mof_O 	O 	0.3206	0.9676	0.73528	-0.511
Mof_O 	O 	0.1747	0.0411	0.69306	-0.469
Mof_O 	O 	0.2388	0.9807	0.6895	-0.501
Mof_S 	S 	0.13529	0.95026	0.6469	0.01
Mof_S 	S 	0.28258	0.09833	0.66663	-0.009
Mof_Zn	Zn	0.2463	0.96021	0.72611	1.208
Mof_Zn	Zn	0.16168	0.05286	0.73109	1.248
Mof_C 	C 	0.7075	0.5151	0.18068	0.384
Mof_C 	C 	0.7117	0.5244	0.1515	-0.099
Mof_C 	C 	0.6814	0.4955	0.13423	0.014
Mof_C 	C 	0.747	0.5615	0.14272	0.017
Mof_C 	C 	0.6741	0.3912	0.1447	-0.367
Mof_H 	H 	0.7031	0.3967	0.1324	0.131
Mof_H 	H 	0.652	0.3623	0.1385	0.114
Mof_H 	H 	0.6881	0.3825	0.1621	0.126
Mof_C 	C 	0.7407	0.6555	0.1676	-0.371
Mof_H 	H 	0.7336	0.6675	0.1497	0.129
Mof_H 	H 	0.7582	0.6836	0.1774	0.124
Mof_H 	H 	0.7076	0.6466	0.1763	0.147
Mof_S 	S 	0.83831	0.34427	0.27216	0.048
Mof_S 	S 	0.86944	0.21937	0.27525	0.15
Mof_S 	S 	0.81451	0.332	0.27275	0.117
Mof_S 	S 	0.84549	0.20626	0.27615	-0.075
Mof_O 	O 	0.7108	0.3861	0.2644	-0.246
Mof_O 	O 	0.7518	0.3895	0.22549	-0.042
Mof_O 	O 	0.6871	0.3722	0.2661	-0.359
Mof_O 	O 	0.7286	0.3787	0.2278	-0.387
Mof_C 	C 	0.7347	0.3666	0.2469	-0.256
Mof_C 	C 	0.7488	0.3092	0.24838	-0.621
Mof_C 	C 	0.7959	0.2939	0.25964	-0.149
Mof_C 	C 	0.80894	0.2411	0.26093	-0.432
Mof_C 	C 	0.7252	0.2964	0.24904	0.23
Mof_C 	C 	0.7724	0.281	0.2603	0.412
Mof_C 	C 	0.78542	0.2282	0.26159	0.249
Mof_C 	C 	0.7113	0.354	0.24772	0.772
Mof_C 	C 	0.8807	0.354	0.2444	0.069
Mof_H 	H 	0.8596	0.3576	0.2284	-0.007
Mof_H 	H 	0.9042	0.3238	0.2426	-0.015
Mof_H 	H 	0.9015	0.3858	0.247	-0.153
Mof_C 	C 	0.849	0.221	0.3094	-0.428
Mof_H 	H 	0.8178	0.1991	0.3116	0.23
Mof_H 	H 	0.8409	0.2571	0.3144	0.094
Mof_H 	H 	0.8774	0.2076	0.3205	0.112
Mof_C 	C 	0.8633	0.3336	0.2471	-0.696
Mof_H 	H 	0.8462	0.3299	0.2299	0.25
Mof_H 	H 	0.8822	0.367	0.2477	0.29
Mof_H 	H 	0.8881	0.3047	0.2496	0.227
Mof_C 	C 	0.8274	0.215	0.3102	-0.057
Mof_H 	H 	0.7907	0.205	0.3126	-0.081
Mof_H 	H 	0.8498	0.1932	0.3213	0.04
Mof_H 	H 	0.8319	0.252	0.3151	0.049
Mof_S 	S 	0.02118	0.4671	0.29564	0.071
Mof_S 	S 	0.89312	0.45913	0.29517	-0.492
Mof_S 	S 	0.88773	0.42888	0.29648	0.437
Mof_S 	S 	0.0107	0.41863	0.29681	-0.026
Mof_O 	O 	0.0895	0.5552	0.2659	-0.301
Mof_O 	O 	0.0894	0.4932	0.2347	-0.558
Mof_C 	C 	0.0684	0.5253	0.2506	0.542
Mof_C 	C 	0.00928	0.5229	0.24972	-0.159
Mof_C 	C 	0.9834	0.4966	0.26978	0.102
Mof_C 	C 	0.929	0.49311	0.26957	0.04
Mof_C 	C 	0.90056	0.516	0.2493	-0.073
Mof_C 	C 	0.9265	0.45771	0.27076	0.066
Mof_C 	C 	0.9808	0.45423	0.27055	-0.059
Mof_C 	C 	0.0346	0.5244	0.3164	-0.407
Mof_H 	H 	0.0537	0.5133	0.3321	0.144
Mof_H 	H 	0.0558	0.5497	0.3065	0.16
Mof_H 	H 	0.0014	0.5408	0.3216	0.132
Mof_C 	C 	0.8827	0.5114	0.3191	-0.088
Mof_H 	H 	0.8656	0.5412	0.3105	-0.016
Mof_H 	H 	0.8603	0.4985	0.3334	-0.376
Mof_H 	H 	0.9165	0.5225	0.3263	0.029
Mof_C 	C 	0.8897	0.4838	0.319	-0.306
Mof_H 	H 	0.8877	0.5166	0.3091	0.243
Mof_H 	H 	0.86	0.4816	0.3312	0.498
Mof_H 	H 	0.9225	0.4828	0.329	0.108
Mof_C 	C 	0.9985	0.3539	0.2828	-0.324
Mof_H 	H 	0.9614	0.3449	0.2849	0.1
Mof_H 	H 	0.0073	0.3542	0.264	0.107
Mof_H 	H 	0.0201	0.3278	0.2918	0.101
Mof_O 	O 	0.1065	0.6093	0.2784	-0.683
Mof_H 	H 	0.104	0.639	0.271	0.277
Mof_H 	H 	0.078	0.61	0.287	0.296
Mof_O 	O 	0.8206	0.4676	0.23528	-0.503
Mof_O 	O 	0.6747	0.5411	0.19306	-0.469
Mof_O 	O 	0.7388	0.4807	0.1895	-0.495
Mof_S 	S 	0.63529	0.45026	0.1469	0.01
Mof_S 	S 	0.78258	0.59833	0.16663	-0.012
Mof_Zn	Zn	0.7463	0.46021	0.22611	1.209
Mof_Zn	Zn	0.66168	0.55286	0.23109	1.247
Mof_C 	C 	0.2651	0.9575	0.06932	0.382
Mof_C 	C 	0.2744	0.9617	0.0985	-0.093
Mof_C 	C 	0.2455	0.9314	0.11577	0.01
Mof_C 	C 	0.3115	0.997	0.10728	-0.001
Mof_C 	C 	0.1412	0.9241	0.1053	-0.367
Mof_H 	H 	0.1467	0.9531	0.1176	0.129
Mof_H 	H 	0.1123	0.902	0.1115	0.114
Mof_H 	H 	0.1325	0.9381	0.0879	0.125
Mof_C 	C 	0.4055	0.9907	0.0824	-0.407
Mof_H 	H 	0.4175	0.9836	0.1003	0.137
Mof_H 	H 	0.4336	0.0082	0.0726	0.139
Mof_H 	H 	0.3966	0.9576	0.0737	0.156
Mof_S 	S 	0.09427	0.08831	0.97784	-0.001
Mof_S 	S 	0.96937	0.11944	0.97475	0.133
Mof_S 	S 	0.082	0.06451	0.97725	0.137
Mof_S 	S 	0.95626	0.09549	0.97385	-0.063
Mof_O 	O 	0.1361	0.9608	0.9856	-0.283
Mof_O 	O 	0.1395	0.0018	0.02451	-0.013
Mof_O 	O 	0.1222	0.9371	0.9839	-0.321
Mof_O 	O 	0.1287	0.9786	0.0222	-0.429
Mof_C 	C 	0.1166	0.9847	0.0031	-0.203
Mof_C 	C 	0.0592	0.9988	0.00162	-0.554
Mof_C 	C 	0.0439	0.0459	0.99036	-0.079
Mof_C 	C 	0.9911	0.05894	0.98907	-0.426
Mof_C 	C 	0.0464	0.9752	0.00096	0.173
Mof_C 	C 	0.031	0.0224	0.9897	0.32
Mof_C 	C 	0.9782	0.03542	0.98841	0.23
Mof_C 	C 	0.104	0.9613	0.00228	0.728
Mof_C 	C 	0.104	0.1307	0.0056	0.071
Mof_H 	H 	0.1076	0.1096	0.0216	-0.007
Mof_H 	H 	0.0738	0.1542	0.0074	-0.016
Mof_H 	H 	0.1358	0.1515	0.003	-0.144
Mof_C 	C 	0.971	0.099	0.9406	-0.424
Mof_H 	H 	0.9491	0.0678	0.9384	0.225
Mof_H 	H 	0.0071	0.0909	0.9356	0.093
Mof_H 	H 	0.9576	0.1274	0.9295	0.111
Mof_C 	C 	0.0836	0.1133	0.0029	-0.659
Mof_H 	H 	0.0799	0.0962	0.0201	0.235
Mof_H 	H 	0.117	0.1322	0.0023	0.275
Mof_H 	H 	0.0547	0.1381	0.0004	0.217
Mof_C 	C 	0.965	0.0774	0.9398	-0.055
Mof_H 	H 	0.955	0.0407	0.9374	-0.077
Mof_H 	H 	0.9432	0.0998	0.9287	0.039
Mof_H 	H 	0.002	0.0819	0.9349	0.049
Mof_S 	S 	0.2171	0.27118	0.95436	0.07
Mof_S 	S 	0.20913	0.14312	0.95483	-0.481
Mof_S 	S 	0.17888	0.13773	0.95352	0.433
Mof_S 	S 	0.16863	0.2607	0.95319	-0.027
Mof_O 	O 	0.3052	0.3395	0.9841	-0.301
Mof_O 	O 	0.2432	0.3394	0.0153	-0.558
Mof_C 	C 	0.2753	0.3184	0.9994	0.538
Mof_C 	C 	0.2729	0.25928	0.00028	-0.154
Mof_C 	C 	0.2466	0.2334	0.98022	0.099
Mof_C 	C 	0.24311	0.179	0.98043	0.043
Mof_C 	C 	0.266	0.15056	0.0007	-0.075
Mof_C 	C 	0.20771	0.1765	0.97924	0.058
Mof_C 	C 	0.20423	0.2308	0.97945	-0.054
Mof_C 	C 	0.2744	0.2846	0.9336	-0.407
Mof_H 	H 	0.2633	0.3037	0.9179	0.144
Mof_H 	H 	0.2997	0.3058	0.9435	0.16
Mof_H 	H 	0.2908	0.2514	0.9284	0.132
Mof_C 	C 	0.2614	0.1327	0.9309	-0.091
Mof_H 	H 	0.2912	0.1156	0.9395	-0.015
Mof_H 	H 	0.2485	0.1103	0.9166	-0.374
Mof_H 	H 	0.2725	0.1665	0.9237	0.03
Mof_C 	C 	0.2338	0.1397	0.931	-0.311
Mof_H 	H 	0.2666	0.1377	0.9409	0.246
Mof_H 	H 	0.2316	0.11	0.9188	0.499
Mof_H 	H 	0.2328	0.1725	0.921	0.11
Mof_C 	C 	0.1039	0.2485	0.9672	-0.325
Mof_H 	H 	0.0949	0.2114	0.9651	0.102
Mof_H 	H 	0.1042	0.2573	0.986	0.107
Mof_H 	H 	0.0778	0.2701	0.9582	0.102
Mof_O 	O 	0.3593	0.3565	0.9716	-0.684
Mof_H 	H 	0.389	0.354	0.979	0.277
Mof_H 	H 	0.36	0.328	0.963	0.296
Mof_O 	O 	0.2176	0.0706	0.01472	-0.502
Mof_O 	O 	0.2911	0.9247	0.05694	-0.469
Mof_O 	O 	0.2307	0.9888	0.0605	-0.497
Mof_S 	S 	0.20026	0.88529	0.1031	0.01
Mof_S 	S 	0.34833	0.03258	0.08337	0.007
Mof_Zn	Zn	0.21021	0.9963	0.02389	1.207
Mof_Zn	Zn	0.30286	0.91168	0.01891	1.248
Mof_C 	C 	0.7651	0.4575	0.56932	0.384
Mof_C 	C 	0.7744	0.4617	0.5985	-0.099
Mof_C 	C 	0.7455	0.4314	0.61577	0.014
Mof_C 	C 	0.8115	0.497	0.60728	0.017
Mof_C 	C 	0.6412	0.4241	0.6053	-0.368
Mof_H 	H 	0.6467	0.4531	0.6176	0.131
Mof_H 	H 	0.6123	0.402	0.6115	0.114
Mof_H 	H 	0.6325	0.4381	0.5879	0.126
Mof_C 	C 	0.9055	0.4907	0.5824	-0.372
Mof_H 	H 	0.9175	0.4836	0.6003	0.129
Mof_H 	H 	0.9336	0.5082	0.5726	0.124
Mof_H 	H 	0.8966	0.4576	0.5737	0.147
Mof_S 	S 	0.59427	0.58831	0.47784	0.047
Mof_S 	S 	0.46937	0.61944	0.47475	0.149
Mof_S 	S 	0.582	0.56451	0.47725	0.118
Mof_S 	S 	0.45626	0.59549	0.47385	-0.075
Mof_O 	O 	0.6361	0.4608	0.4856	-0.247
Mof_O 	O 	0.6395	0.5018	0.52451	-0.043
Mof_O 	O 	0.6222	0.4371	0.4839	-0.357
Mof_O 	O 	0.6287	0.4786	0.5222	-0.386
Mof_C 	C 	0.6166	0.4847	0.5031	-0.255
Mof_C 	C 	0.5592	0.4988	0.50162	-0.617
Mof_C 	C 	0.5439	0.5459	0.49036	-0.148
Mof_C 	C 	0.4911	0.55894	0.48907	-0.431
Mof_C 	C 	0.5464	0.4752	0.50096	0.228
Mof_C 	C 	0.531	0.5224	0.4897	0.41
Mof_C 	C 	0.4782	0.53542	0.48841	0.249
Mof_C 	C 	0.604	0.4613	0.50228	0.77
Mof_C 	C 	0.604	0.6307	0.5056	0.069
Mof_H 	H 	0.6076	0.6096	0.5216	-0.007
Mof_H 	H 	0.5738	0.6542	0.5074	-0.015
Mof_H 	H 	0.6358	0.6515	0.503	-0.153
Mof_C 	C 	0.471	0.599	0.4406	-0.427
Mof_H 	H 	0.4491	0.5678	0.4384	0.229
Mof_H 	H 	0.5071	0.5909	0.4356	0.094
Mof_H 	H 	0.4576	0.6274	0.4295	0.112
Mof_C 	C 	0.5836	0.6133	0.5029	-0.695
Mof_H 	H 	0.5799	0.5962	0.5201	0.25
Mof_H 	H 	0.617	0.6322	0.5023	0.29
Mof_H 	H 	0.5547	0.6381	0.5004	0.226
Mof_C 	C 	0.465	0.5774	0.4398	-0.057
Mof_H 	H 	0.455	0.5407	0.4374	-0.081
Mof_H 	H 	0.4432	0.5998	0.4287	0.039
Mof_H 	H 	0.502	0.5819	0.4349	0.049
Mof_S 	S 	0.7171	0.77118	0.45436	0.071
Mof_S 	S 	0.70913	0.64312	0.45483	-0.491
Mof_S 	S 	0.67888	0.63773	0.45352	0.437
Mof_S 	S 	0.66863	0.7607	0.45319	-0.026
Mof_O 	O 	0.8052	0.8395	0.4841	-0.301
Mof_O 	O 	0.7432	0.8394	0.5153	-0.558
Mof_C 	C 	0.7753	0.8184	0.4994	0.542
Mof_C 	C 	0.7729	0.75928	0.50028	-0.159
Mof_C 	C 	0.7466	0.7334	0.48022	0.102
Mof_C 	C 	0.74311	0.679	0.48043	0.04
Mof_C 	C 	0.766	0.65056	0.5007	-0.073
Mof_C 	C 	0.70771	0.6765	0.47924	0.066
Mof_C 	C 	0.70423	0.7308	0.47945	-0.059
Mof_C 	C 	0.7744	0.7846	0.4336	-0.407
Mof_H 	H 	0.7633	0.8037	0.4179	0.144
Mof_H 	H 	0.7997	0.8058	0.4435	0.16
Mof_H 	H 	0.7908	0.7514	0.4284	0.132
Mof_C 	C 	0.7614	0.6327	0.4309	-0.088
Mof_H 	H 	0.7912	0.6156	0.4395	-0.016
Mof_H 	H 	0.7485	0.6103	0.4166	-0.376
Mof_H 	H 	0.7725	0.6665	0.4237	0.029
Mof_C 	C 	0.7338	0.6397	0.431	-0.306
Mof_H 	H 	0.7666	0.6377	0.4409	0.243
Mof_H 	H 	0.7316	0.61	0.4188	0.498
Mof_H 	H 	0.7328	0.6725	0.421	0.108
Mof_C 	C 	0.6039	0.7485	0.4672	-0.323
Mof_H 	H 	0.5949	0.7114	0.4651	0.1
Mof_H 	H 	0.6042	0.7573	0.486	0.106
Mof_H 	H 	0.5778	0.7701	0.4582	0.1
Mof_O 	O 	0.8593	0.8565	0.4716	-0.685
Mof_H 	H 	0.889	0.854	0.479	0.277
Mof_H 	H 	0.86	0.828	0.463	0.296
Mof_O 	O 	0.7176	0.5706	0.51472	-0.502
Mof_O 	O 	0.7911	0.4247	0.55694	-0.469
Mof_O 	O 	0.7307	0.4888	0.5605	-0.495
Mof_S 	S 	0.70026	0.38529	0.6031	0.01
Mof_S 	S 	0.84833	0.53258	0.58337	-0.012
Mof_Zn	Zn	0.71021	0.4963	0.52389	1.209
Mof_Zn	Zn	0.80286	0.41168	0.51891	1.247
Mof_C 	C 	0.2349	0.0425	0.56932	0.387
Mof_C 	C 	0.2256	0.0383	0.5985	-0.105
Mof_C 	C 	0.2545	0.0686	0.61577	0.018
Mof_C 	C 	0.1885	0.003	0.60728	0.035
Mof_C 	C 	0.3588	0.0759	0.6053	-0.368
Mof_H 	H 	0.3533	0.0469	0.6176	0.132
Mof_H 	H 	0.3877	0.098	0.6115	0.115
Mof_H 	H 	0.3675	0.0619	0.5879	0.127
Mof_C 	C 	0.0945	0.0093	0.5824	-0.337
Mof_H 	H 	0.0825	0.0164	0.6003	0.121
Mof_H 	H 	0.0664	0.9918	0.5726	0.109
Mof_H 	H 	0.1034	0.0424	0.5737	0.138
Mof_S 	S 	0.40573	0.91169	0.47784	0.098
Mof_S 	S 	0.53063	0.88056	0.47475	0.166
Mof_S 	S 	0.418	0.93549	0.47725	0.096
Mof_S 	S 	0.54374	0.90451	0.47385	-0.087
Mof_O 	O 	0.3639	0.0392	0.4856	-0.211
Mof_O 	O 	0.3605	0.9982	0.52451	-0.072
Mof_O 	O 	0.3778	0.0629	0.4839	-0.396
Mof_O 	O 	0.3713	0.0214	0.5222	-0.344
Mof_C 	C 	0.3834	0.0153	0.5031	-0.309
Mof_C 	C 	0.4408	0.0012	0.50162	-0.683
Mof_C 	C 	0.4561	0.9541	0.49036	-0.219
Mof_C 	C 	0.5089	0.94106	0.48907	-0.435
Mof_C 	C 	0.4536	0.0248	0.50096	0.285
Mof_C 	C 	0.469	0.9776	0.4897	0.503
Mof_C 	C 	0.5218	0.96458	0.48841	0.267
Mof_C 	C 	0.396	0.0387	0.50228	0.814
Mof_C 	C 	0.396	0.8693	0.5056	0.067
Mof_H 	H 	0.3924	0.8904	0.5216	-0.007
Mof_H 	H 	0.4262	0.8458	0.5074	-0.014
Mof_H 	H 	0.3642	0.8485	0.503	-0.161
Mof_C 	C 	0.529	0.901	0.4406	-0.431
Mof_H 	H 	0.5509	0.9322	0.4384	0.234
Mof_H 	H 	0.4929	0.9091	0.4356	0.094
Mof_H 	H 	0.5424	0.8726	0.4295	0.113
Mof_C 	C 	0.4164	0.8867	0.5029	-0.732
Mof_H 	H 	0.4201	0.9038	0.5201	0.265
Mof_H 	H 	0.383	0.8678	0.5023	0.305
Mof_H 	H 	0.4453	0.8619	0.5004	0.236
Mof_C 	C 	0.535	0.9226	0.4398	-0.058
Mof_H 	H 	0.545	0.9593	0.4374	-0.085
Mof_H 	H 	0.5568	0.9002	0.4287	0.039
Mof_H 	H 	0.498	0.9181	0.4349	0.048
Mof_S 	S 	0.2829	0.72882	0.45436	0.072
Mof_S 	S 	0.29087	0.85688	0.45483	-0.503
Mof_S 	S 	0.32112	0.86227	0.45352	0.442
Mof_S 	S 	0.33137	0.7393	0.45319	-0.028
Mof_O 	O 	0.1948	0.6605	0.4841	-0.301
Mof_O 	O 	0.2568	0.6606	0.5153	-0.558
Mof_C 	C 	0.2247	0.6816	0.4994	0.541
Mof_C 	C 	0.2271	0.74072	0.50028	-0.158
Mof_C 	C 	0.2534	0.7666	0.48022	0.101
Mof_C 	C 	0.25689	0.821	0.48043	0.042
Mof_C 	C 	0.234	0.84944	0.5007	-0.074
Mof_C 	C 	0.29229	0.8235	0.47924	0.067
Mof_C 	C 	0.29577	0.7692	0.47945	-0.06
Mof_C 	C 	0.2256	0.7154	0.4336	-0.408
Mof_H 	H 	0.2367	0.6963	0.4179	0.144
Mof_H 	H 	0.2003	0.6942	0.4435	0.16
Mof_H 	H 	0.2092	0.7486	0.4284	0.132
Mof_C 	C 	0.2386	0.8673	0.4309	-0.085
Mof_H 	H 	0.2088	0.8844	0.4395	-0.016
Mof_H 	H 	0.2515	0.8897	0.4166	-0.378
Mof_H 	H 	0.2275	0.8335	0.4237	0.028
Mof_C 	C 	0.2662	0.8603	0.431	-0.3
Mof_H 	H 	0.2334	0.8623	0.4409	0.24
Mof_H 	H 	0.2684	0.89	0.4188	0.497
Mof_H 	H 	0.2672	0.8275	0.421	0.107
Mof_C 	C 	0.3961	0.7515	0.4672	-0.322
Mof_H 	H 	0.4051	0.7886	0.4651	0.098
Mof_H 	H 	0.3958	0.7427	0.486	0.106
Mof_H 	H 	0.4222	0.7299	0.4582	0.1
Mof_O 	O 	0.1407	0.6435	0.4716	-0.683
Mof_H 	H 	0.111	0.646	0.479	0.277
Mof_H 	H 	0.14	0.672	0.463	0.296
Mof_O 	O 	0.2824	0.9294	0.51472	-0.503
Mof_O 	O 	0.2089	0.0753	0.55694	-0.469
Mof_O 	O 	0.2693	0.0112	0.5605	-0.493
Mof_S 	S 	0.29974	0.11471	0.6031	0.009
Mof_S 	S 	0.15167	0.96742	0.58337	-0.031
Mof_Zn	Zn	0.28979	0.0037	0.52389	1.211
Mof_Zn	Zn	0.19714	0.08832	0.51891	1.247
Mof_C 	C 	0.7349	0.5425	0.06932	0.384
Mof_C 	C 	0.7256	0.5383	0.0985	-0.099
Mof_C 	C 	0.7545	0.5686	0.11577	0.014
Mof_C 	C 	0.6885	0.503	0.10728	0.017
Mof_C 	C 	0.8588	0.5759	0.1053	-0.367
Mof_H 	H 	0.8533	0.5469	0.1176	0.131
Mof_H 	H 	0.8877	0.598	0.1115	0.114
Mof_H 	H 	0.8675	0.5619	0.0879	0.126
Mof_C 	C 	0.5945	0.5093	0.0824	-0.372
Mof_H 	H 	0.5825	0.5164	0.1003	0.129
Mof_H 	H 	0.5664	0.4918	0.0726	0.124
Mof_H 	H 	0.6034	0.5424	0.0737	0.147
Mof_S 	S 	0.90573	0.41169	0.97784	0.049
Mof_S 	S 	0.03063	0.38056	0.97475	0.15
Mof_S 	S 	0.918	0.43549	0.97725	0.116
Mof_S 	S 	0.04374	0.40451	0.97385	-0.075
Mof_O 	O 	0.8639	0.5392	0.9856	-0.247
Mof_O 	O 	0.8605	0.4982	0.02451	-0.041
Mof_O 	O 	0.8778	0.5629	0.9839	-0.359
Mof_O 	O 	0.8713	0.5214	0.0222	-0.387
Mof_C 	C 	0.8834	0.5153	0.0031	-0.256
Mof_C 	C 	0.9408	0.5012	0.00162	-0.62
Mof_C 	C 	0.9561	0.4541	0.99036	-0.15
Mof_C 	C 	0.0089	0.44106	0.98907	-0.43
Mof_C 	C 	0.9536	0.5248	0.00096	0.231
Mof_C 	C 	0.969	0.4776	0.9897	0.413
Mof_C 	C 	0.0218	0.46458	0.98841	0.248
Mof_C 	C 	0.896	0.5387	0.00228	0.773
Mof_C 	C 	0.896	0.3693	0.0056	0.069
Mof_H 	H 	0.8924	0.3904	0.0216	-0.007
Mof_H 	H 	0.9262	0.3458	0.0074	-0.015
Mof_H 	H 	0.8642	0.3485	0.003	-0.152
Mof_C 	C 	0.029	0.401	0.9406	-0.427
Mof_H 	H 	0.0509	0.4322	0.9384	0.229
Mof_H 	H 	0.9929	0.4091	0.9356	0.094
Mof_H 	H 	0.0424	0.3726	0.9295	0.112
Mof_C 	C 	0.9164	0.3867	0.0029	-0.695
Mof_H 	H 	0.9201	0.4038	0.0201	0.25
Mof_H 	H 	0.883	0.3678	0.0023	0.29
Mof_H 	H 	0.9453	0.3619	0.0004	0.227
Mof_C 	C 	0.035	0.4226	0.9398	-0.057
Mof_H 	H 	0.045	0.4593	0.9374	-0.081
Mof_H 	H 	0.0568	0.4002	0.9287	0.039
Mof_H 	H 	0.998	0.4181	0.9349	0.049
Mof_S 	S 	0.7829	0.22882	0.95436	0.071
Mof_S 	S 	0.79087	0.35688	0.95483	-0.492
Mof_S 	S 	0.82112	0.36227	0.95352	0.438
Mof_S 	S 	0.83137	0.2393	0.95319	-0.028
Mof_O 	O 	0.6948	0.1605	0.9841	-0.301
Mof_O 	O 	0.7568	0.1606	0.0153	-0.558
Mof_C 	C 	0.7247	0.1816	0.9994	0.538
Mof_C 	C 	0.7271	0.24072	0.00028	-0.153
Mof_C 	C 	0.7534	0.2666	0.98022	0.098
Mof_C 	C 	0.75689	0.321	0.98043	0.045
Mof_C 	C 	0.734	0.34944	0.0007	-0.076
Mof_C 	C 	0.79229	0.3235	0.97924	0.06
Mof_C 	C 	0.79577	0.2692	0.97945	-0.054
Mof_C 	C 	0.7256	0.2154	0.9336	-0.408
Mof_H 	H 	0.7367	0.1963	0.9179	0.144
Mof_H 	H 	0.7003	0.1942	0.9435	0.16
Mof_H 	H 	0.7092	0.2486	0.9284	0.132
Mof_C 	C 	0.7386	0.3673	0.9309	-0.088
Mof_H 	H 	0.7088	0.3844	0.9395	-0.016
Mof_H 	H 	0.7515	0.3897	0.9166	-0.376
Mof_H 	H 	0.7275	0.3335	0.9237	0.029
Mof_C 	C 	0.7662	0.3603	0.931	-0.306
Mof_H 	H 	0.7334	0.3623	0.9409	0.243
Mof_H 	H 	0.7684	0.39	0.9188	0.498
Mof_H 	H 	0.7672	0.3275	0.921	0.108
Mof_C 	C 	0.8961	0.2515	0.9672	-0.324
Mof_H 	H 	0.9051	0.2886	0.9651	0.1
Mof_H 	H 	0.8958	0.2427	0.986	0.106
Mof_H 	H 	0.9222	0.2299	0.9582	0.101
Mof_O 	O 	0.6407	0.1435	0.9716	-0.682
Mof_H 	H 	0.611	0.146	0.979	0.277
Mof_H 	H 	0.64	0.172	0.963	0.296
Mof_O 	O 	0.7824	0.4294	0.01472	-0.503
Mof_O 	O 	0.7089	0.5753	0.05694	-0.469
Mof_O 	O 	0.7693	0.5112	0.0605	-0.495
Mof_S 	S 	0.79974	0.61471	0.1031	0.01
Mof_S 	S 	0.65167	0.46742	0.08337	-0.012
Mof_Zn	Zn	0.78979	0.5037	0.02389	1.209
Mof_Zn	Zn	0.69714	0.58832	0.01891	1.248
Mof_C 	C 	0.2075	0.9849	0.81932	0.379
Mof_C 	C 	0.2117	0.9756	0.8485	-0.11
Mof_C 	C 	0.1814	0.0045	0.86577	0.032
Mof_C 	C 	0.247	0.9385	0.85728	0.021
Mof_C 	C 	0.1741	0.1088	0.8553	-0.367
Mof_H 	H 	0.2031	0.1033	0.8676	0.131
Mof_H 	H 	0.152	0.1377	0.8615	0.114
Mof_H 	H 	0.1881	0.1175	0.8379	0.126
Mof_C 	C 	0.2407	0.8445	0.8324	-0.37
Mof_H 	H 	0.2336	0.8325	0.8503	0.128
Mof_H 	H 	0.2582	0.8164	0.8226	0.123
Mof_H 	H 	0.2076	0.8534	0.8237	0.147
Mof_S 	S 	0.33831	0.15573	0.72784	0.045
Mof_S 	S 	0.36944	0.28063	0.72475	0.149
Mof_S 	S 	0.31451	0.168	0.72725	0.121
Mof_S 	S 	0.34549	0.29374	0.72385	-0.074
Mof_O 	O 	0.2108	0.1139	0.7356	-0.247
Mof_O 	O 	0.2518	0.1105	0.77451	-0.043
Mof_O 	O 	0.1871	0.1278	0.7339	-0.357
Mof_O 	O 	0.2286	0.1213	0.7722	-0.386
Mof_C 	C 	0.2347	0.1334	0.7531	-0.255
Mof_C 	C 	0.2488	0.1908	0.75162	-0.616
Mof_C 	C 	0.2959	0.2061	0.74036	-0.147
Mof_C 	C 	0.30894	0.2589	0.73907	-0.434
Mof_C 	C 	0.2252	0.2036	0.75096	0.227
Mof_C 	C 	0.2724	0.219	0.7397	0.409
Mof_C 	C 	0.28542	0.2718	0.73841	0.25
Mof_C 	C 	0.2113	0.146	0.75228	0.769
Mof_C 	C 	0.3807	0.146	0.7556	0.069
Mof_H 	H 	0.3596	0.1424	0.7716	-0.007
Mof_H 	H 	0.4042	0.1762	0.7574	-0.015
Mof_H 	H 	0.4015	0.1142	0.753	-0.153
Mof_C 	C 	0.349	0.279	0.6906	-0.428
Mof_H 	H 	0.3178	0.3009	0.6884	0.229
Mof_H 	H 	0.3409	0.2429	0.6856	0.094
Mof_H 	H 	0.3774	0.2924	0.6795	0.112
Mof_C 	C 	0.3633	0.1664	0.7529	-0.696
Mof_H 	H 	0.3462	0.1701	0.7701	0.25
Mof_H 	H 	0.3822	0.133	0.7523	0.291
Mof_H 	H 	0.3881	0.1953	0.7504	0.227
Mof_C 	C 	0.3274	0.285	0.6898	-0.057
Mof_H 	H 	0.2907	0.295	0.6874	-0.081
Mof_H 	H 	0.3498	0.3068	0.6787	0.039
Mof_H 	H 	0.3319	0.248	0.6849	0.049
Mof_S 	S 	0.52118	0.0329	0.70436	0.076
Mof_S 	S 	0.39312	0.04087	0.70483	-0.486
Mof_S 	S 	0.38773	0.07112	0.70352	0.42
Mof_S 	S 	0.5107	0.08137	0.70319	-0.015
Mof_O 	O 	0.5895	0.9448	0.7341	-0.304
Mof_O 	O 	0.5894	0.0068	0.7653	-0.552
Mof_C 	C 	0.5684	0.9747	0.7494	0.552
Mof_C 	C 	0.50928	0.9771	0.75028	-0.206
Mof_C 	C 	0.4834	0.0034	0.73022	0.146
Mof_C 	C 	0.429	0.00689	0.73043	-0.004
Mof_C 	C 	0.40056	0.984	0.7507	-0.021
Mof_C 	C 	0.4265	0.04229	0.72924	0.134
Mof_C 	C 	0.4808	0.04577	0.72945	-0.118
Mof_C 	C 	0.5346	0.9756	0.6836	-0.416
Mof_H 	H 	0.5537	0.9867	0.6679	0.144
Mof_H 	H 	0.5558	0.9503	0.6935	0.162
Mof_H 	H 	0.5014	0.9592	0.6784	0.133
Mof_C 	C 	0.3827	0.9886	0.6809	-0.071
Mof_H 	H 	0.3656	0.9588	0.6895	-0.016
Mof_H 	H 	0.3603	0.0015	0.6666	-0.378
Mof_H 	H 	0.4165	0.9775	0.6737	0.022
Mof_C 	C 	0.3897	0.0162	0.681	-0.299
Mof_H 	H 	0.3877	0.9834	0.6909	0.227
Mof_H 	H 	0.36	0.0184	0.6688	0.497
Mof_H 	H 	0.4225	0.0172	0.671	0.109
Mof_C 	C 	0.4985	0.1461	0.7172	-0.329
Mof_H 	H 	0.4614	0.1551	0.7151	0.102
Mof_H 	H 	0.5073	0.1458	0.736	0.108
Mof_H 	H 	0.5201	0.1722	0.7082	0.102
Mof_O 	O 	0.6065	0.8907	0.7216	-0.683
Mof_H 	H 	0.604	0.861	0.729	0.277
Mof_H 	H 	0.578	0.89	0.713	0.296
Mof_O 	O 	0.3206	0.0324	0.76472	-0.504
Mof_O 	O 	0.1747	0.9589	0.80694	-0.47
Mof_O 	O 	0.2388	0.0193	0.8105	-0.489
Mof_S 	S 	0.13529	0.04974	0.8531	0.009
Mof_S 	S 	0.28258	0.90167	0.83337	-0.015
Mof_Zn	Zn	0.2463	0.03979	0.77389	1.209
Mof_Zn	Zn	0.16168	0.94714	0.76891	1.246
Mof_C 	C 	0.7075	0.4849	0.31932	0.384
Mof_C 	C 	0.7117	0.4756	0.3485	-0.099
Mof_C 	C 	0.6814	0.5045	0.36577	0.014
Mof_C 	C 	0.747	0.4385	0.35728	0.017
Mof_C 	C 	0.6741	0.6088	0.3553	-0.367
Mof_H 	H 	0.7031	0.6033	0.3676	0.131
Mof_H 	H 	0.652	0.6377	0.3615	0.114
Mof_H 	H 	0.6881	0.6175	0.3379	0.126
Mof_C 	C 	0.7407	0.3445	0.3324	-0.372
Mof_H 	H 	0.7336	0.3325	0.3503	0.129
Mof_H 	H 	0.7582	0.3164	0.3226	0.124
Mof_H 	H 	0.7076	0.3534	0.3237	0.147
Mof_S 	S 	0.83831	0.65573	0.22784	0.046
Mof_S 	S 	0.86944	0.78063	0.22475	0.148
Mof_S 	S 	0.81451	0.668	0.22725	0.118
Mof_S 	S 	0.84549	0.79374	0.22385	-0.073
Mof_O 	O 	0.7108	0.6139	0.2356	-0.248
Mof_O 	O 	0.7518	0.6105	0.27451	-0.044
Mof_O 	O 	0.6871	0.6278	0.2339	-0.356
Mof_O 	O 	0.7286	0.6213	0.2722	-0.385
Mof_C 	C 	0.7347	0.6334	0.2531	-0.254
Mof_C 	C 	0.7488	0.6908	0.25162	-0.613
Mof_C 	C 	0.7959	0.7061	0.24036	-0.147
Mof_C 	C 	0.80894	0.7589	0.23907	-0.43
Mof_C 	C 	0.7252	0.7036	0.25096	0.226
Mof_C 	C 	0.7724	0.719	0.2397	0.407
Mof_C 	C 	0.78542	0.7718	0.23841	0.248
Mof_C 	C 	0.7113	0.646	0.25228	0.768
Mof_C 	C 	0.8807	0.646	0.2556	0.069
Mof_H 	H 	0.8596	0.6424	0.2716	-0.007
Mof_H 	H 	0.9042	0.6762	0.2574	-0.015
Mof_H 	H 	0.9015	0.6142	0.253	-0.153
Mof_C 	C 	0.849	0.779	0.1906	-0.427
Mof_H 	H 	0.8178	0.8009	0.1884	0.229
Mof_H 	H 	0.8409	0.7429	0.1856	0.094
Mof_H 	H 	0.8774	0.7924	0.1795	0.112
Mof_C 	C 	0.8633	0.6664	0.2529	-0.694
Mof_H 	H 	0.8462	0.6701	0.2701	0.25
Mof_H 	H 	0.8822	0.633	0.2523	0.29
Mof_H 	H 	0.8881	0.6953	0.2504	0.226
Mof_C 	C 	0.8274	0.785	0.1898	-0.056
Mof_H 	H 	0.7907	0.795	0.1874	-0.081
Mof_H 	H 	0.8498	0.8068	0.1787	0.039
Mof_H 	H 	0.8319	0.748	0.1849	0.049
Mof_S 	S 	0.02118	0.5329	0.20436	0.071
Mof_S 	S 	0.89312	0.54087	0.20483	-0.491
Mof_S 	S 	0.88773	0.57112	0.20352	0.437
Mof_S 	S 	0.0107	0.58137	0.20319	-0.026
Mof_O 	O 	0.0895	0.4448	0.2341	-0.301
Mof_O 	O 	0.0894	0.5068	0.2653	-0.558
Mof_C 	C 	0.0684	0.4747	0.2494	0.542
Mof_C 	C 	0.00928	0.4771	0.25028	-0.159
Mof_C 	C 	0.9834	0.5034	0.23022	0.102
Mof_C 	C 	0.929	0.50689	0.23043	0.04
Mof_C 	C 	0.90056	0.484	0.2507	-0.073
Mof_C 	C 	0.9265	0.54229	0.22924	0.066
Mof_C 	C 	0.9808	0.54577	0.22945	-0.059
Mof_C 	C 	0.0346	0.4756	0.1836	-0.407
Mof_H 	H 	0.0537	0.4867	0.1679	0.144
Mof_H 	H 	0.0558	0.4503	0.1935	0.16
Mof_H 	H 	0.0014	0.4592	0.1784	0.132
Mof_C 	C 	0.8827	0.4886	0.1809	-0.088
Mof_H 	H 	0.8656	0.4588	0.1895	-0.016
Mof_H 	H 	0.8603	0.5015	0.1666	-0.376
Mof_H 	H 	0.9165	0.4775	0.1737	0.029
Mof_C 	C 	0.8897	0.5162	0.181	-0.306
Mof_H 	H 	0.8877	0.4834	0.1909	0.243
Mof_H 	H 	0.86	0.5184	0.1688	0.498
Mof_H 	H 	0.9225	0.5172	0.171	0.108
Mof_C 	C 	0.9985	0.6461	0.2172	-0.324
Mof_H 	H 	0.9614	0.6551	0.2151	0.1
Mof_H 	H 	0.0073	0.6458	0.236	0.107
Mof_H 	H 	0.0201	0.6722	0.2082	0.101
Mof_O 	O 	0.1065	0.3907	0.2216	-0.683
Mof_H 	H 	0.104	0.361	0.229	0.277
Mof_H 	H 	0.078	0.39	0.213	0.296
Mof_O 	O 	0.8206	0.5324	0.26472	-0.502
Mof_O 	O 	0.6747	0.4589	0.30694	-0.469
Mof_O 	O 	0.7388	0.5193	0.3105	-0.495
Mof_S 	S 	0.63529	0.54974	0.3531	0.01
Mof_S 	S 	0.78258	0.40167	0.33337	-0.012
Mof_Zn	Zn	0.7463	0.53979	0.27389	1.209
Mof_Zn	Zn	0.66168	0.44714	0.26891	1.247
Mof_C 	C 	0.2925	0.0151	0.31932	0.389
Mof_C 	C 	0.2883	0.0244	0.3485	-0.088
Mof_C 	C 	0.3186	0.9955	0.36577	-0.004
Mof_C 	C 	0.253	0.0615	0.35728	0.013
Mof_C 	C 	0.3259	0.8912	0.3553	-0.368
Mof_H 	H 	0.2969	0.8967	0.3676	0.131
Mof_H 	H 	0.348	0.8623	0.3615	0.114
Mof_H 	H 	0.3119	0.8825	0.3379	0.126
Mof_C 	C 	0.2593	0.1555	0.3324	-0.373
Mof_H 	H 	0.2664	0.1675	0.3503	0.129
Mof_H 	H 	0.2418	0.1836	0.3226	0.124
Mof_H 	H 	0.2924	0.1466	0.3237	0.148
Mof_S 	S 	0.16169	0.84427	0.22784	0.048
Mof_S 	S 	0.13056	0.71937	0.22475	0.149
Mof_S 	S 	0.18549	0.832	0.22725	0.115
Mof_S 	S 	0.15451	0.70626	0.22385	-0.075
Mof_O 	O 	0.2892	0.8861	0.2356	-0.248
Mof_O 	O 	0.2482	0.8895	0.27451	-0.042
Mof_O 	O 	0.3129	0.8722	0.2339	-0.357
Mof_O 	O 	0.2714	0.8787	0.2722	-0.387
Mof_C 	C 	0.2653	0.8666	0.2531	-0.256
Mof_C 	C 	0.2512	0.8092	0.25162	-0.617
Mof_C 	C 	0.2041	0.7939	0.24036	-0.148
Mof_C 	C 	0.19106	0.7411	0.23907	-0.429
Mof_C 	C 	0.2748	0.7964	0.25096	0.228
Mof_C 	C 	0.2276	0.781	0.2397	0.41
Mof_C 	C 	0.21458	0.7282	0.23841	0.247
Mof_C 	C 	0.2887	0.854	0.25228	0.771
Mof_C 	C 	0.1193	0.854	0.2556	0.069
Mof_H 	H 	0.1404	0.8576	0.2716	-0.007
Mof_H 	H 	0.0958	0.8238	0.2574	-0.015
Mof_H 	H 	0.0985	0.8858	0.253	-0.151
Mof_C 	C 	0.151	0.721	0.1906	-0.427
Mof_H 	H 	0.1822	0.6991	0.1884	0.229
Mof_H 	H 	0.1591	0.7571	0.1856	0.094
Mof_H 	H 	0.1226	0.7076	0.1795	0.112
Mof_C 	C 	0.1367	0.8336	0.2529	-0.694
Mof_H 	H 	0.1538	0.8299	0.2701	0.25
Mof_H 	H 	0.1178	0.867	0.2523	0.289
Mof_H 	H 	0.1119	0.8047	0.2504	0.226
Mof_C 	C 	0.1726	0.715	0.1898	-0.056
Mof_H 	H 	0.2093	0.705	0.1874	-0.081
Mof_H 	H 	0.1502	0.6932	0.1787	0.039
Mof_H 	H 	0.1681	0.752	0.1849	0.049
Mof_S 	S 	0.97882	0.9671	0.20436	0.067
Mof_S 	S 	0.10688	0.95913	0.20483	-0.491
Mof_S 	S 	0.11227	0.92888	0.20352	0.45
Mof_S 	S 	0.9893	0.91863	0.20319	-0.039
Mof_O 	O 	0.9105	0.0552	0.2341	-0.299
Mof_O 	O 	0.9106	0.9932	0.2653	-0.564
Mof_C 	C 	0.9316	0.0253	0.2494	0.53
Mof_C 	C 	0.99072	0.0229	0.25028	-0.109
Mof_C 	C 	0.0166	0.9966	0.23022	0.05
Mof_C 	C 	0.071	0.99311	0.23043	0.098
Mof_C 	C 	0.09944	0.016	0.2507	-0.133
Mof_C 	C 	0.0735	0.95771	0.22924	-0.012
Mof_C 	C 	0.0192	0.95423	0.22945	0.004
Mof_C 	C 	0.9654	0.0244	0.1836	-0.4
Mof_H 	H 	0.9463	0.0133	0.1679	0.144
Mof_H 	H 	0.9442	0.0497	0.1935	0.159
Mof_H 	H 	0.9986	0.0408	0.1784	0.131
Mof_C 	C 	0.1173	0.0114	0.1809	-0.108
Mof_H 	H 	0.1344	0.0412	0.1895	-0.015
Mof_H 	H 	0.1397	0.9985	0.1666	-0.374
Mof_H 	H 	0.0835	0.0225	0.1737	0.037
Mof_C 	C 	0.1103	0.9838	0.181	-0.315
Mof_H 	H 	0.1123	0.0166	0.1909	0.26
Mof_H 	H 	0.14	0.9816	0.1688	0.5
Mof_H 	H 	0.0775	0.9828	0.171	0.108
Mof_C 	C 	0.0015	0.8539	0.2172	-0.318
Mof_H 	H 	0.0386	0.8449	0.2151	0.099
Mof_H 	H 	0.9927	0.8542	0.236	0.104
Mof_H 	H 	0.9799	0.8278	0.2082	0.099
Mof_O 	O 	0.8935	0.1093	0.2216	-0.684
Mof_H 	H 	0.896	0.139	0.229	0.277
Mof_H 	H 	0.922	0.11	0.213	0.296
Mof_O 	O 	0.1794	0.9676	0.26472	-0.511
Mof_O 	O 	0.3253	0.0411	0.30694	-0.469
Mof_O 	O 	0.2612	0.9807	0.3105	-0.501
Mof_S 	S 	0.36471	0.95026	0.3531	0.01
Mof_S 	S 	0.21742	0.09833	0.33337	-0.009
Mof_Zn	Zn	0.2537	0.96021	0.27389	1.208
Mof_Zn	Zn	0.33832	0.05286	0.26891	1.248
Mof_C 	C 	0.7925	0.5151	0.81932	0.384
Mof_C 	C 	0.7883	0.5244	0.8485	-0.099
Mof_C 	C 	0.8186	0.4955	0.86577	0.014
Mof_C 	C 	0.753	0.5615	0.85728	0.017
Mof_C 	C 	0.8259	0.3912	0.8553	-0.367
Mof_H 	H 	0.7969	0.3967	0.8676	0.131
Mof_H 	H 	0.848	0.3623	0.8615	0.114
Mof_H 	H 	0.8119	0.3825	0.8379	0.126
Mof_C 	C 	0.7593	0.6555	0.8324	-0.371
Mof_H 	H 	0.7664	0.6675	0.8503	0.129
Mof_H 	H 	0.7418	0.6836	0.8226	0.124
Mof_H 	H 	0.7924	0.6466	0.8237	0.147
Mof_S 	S 	0.66169	0.34427	0.72784	0.048
Mof_S 	S 	0.63056	0.21937	0.72475	0.15
Mof_S 	S 	0.68549	0.332	0.72725	0.117
Mof_S 	S 	0.65451	0.20626	0.72385	-0.075
Mof_O 	O 	0.7892	0.3861	0.7356	-0.246
Mof_O 	O 	0.7482	0.3895	0.77451	-0.042
Mof_O 	O 	0.8129	0.3722	0.7339	-0.359
Mof_O 	O 	0.7714	0.3787	0.7722	-0.387
Mof_C 	C 	0.7653	0.3666	0.7531	-0.256
Mof_C 	C 	0.7512	0.3092	0.75162	-0.621
Mof_C 	C 	0.7041	0.2939	0.74036	-0.148
Mof_C 	C 	0.69106	0.2411	0.73907	-0.432
Mof_C 	C 	0.7748	0.2964	0.75096	0.23
Mof_C 	C 	0.7276	0.281	0.7397	0.412
Mof_C 	C 	0.71458	0.2282	0.73841	0.249
Mof_C 	C 	0.7887	0.354	0.75228	0.772
Mof_C 	C 	0.6193	0.354	0.7556	0.069
Mof_H 	H 	0.6404	0.3576	0.7716	-0.007
Mof_H 	H 	0.5958	0.3238	0.7574	-0.015
Mof_H 	H 	0.5985	0.3858	0.753	-0.153
Mof_C 	C 	0.651	0.221	0.6906	-0.428
Mof_H 	H 	0.6822	0.1991	0.6884	0.23
Mof_H 	H 	0.6591	0.2571	0.6856	0.094
Mof_H 	H 	0.6226	0.2076	0.6795	0.112
Mof_C 	C 	0.6367	0.3336	0.7529	-0.696
Mof_H 	H 	0.6538	0.3299	0.7701	0.25
Mof_H 	H 	0.6178	0.367	0.7523	0.29
Mof_H 	H 	0.6119	0.3047	0.7504	0.227
Mof_C 	C 	0.6726	0.215	0.6898	-0.057
Mof_H 	H 	0.7093	0.205	0.6874	-0.081
Mof_H 	H 	0.6502	0.1932	0.6787	0.04
Mof_H 	H 	0.6681	0.252	0.6849	0.049
Mof_S 	S 	0.47882	0.4671	0.70436	0.071
Mof_S 	S 	0.60688	0.45913	0.70483	-0.491
Mof_S 	S 	0.61227	0.42888	0.70352	0.437
Mof_S 	S 	0.4893	0.41863	0.70319	-0.026
Mof_O 	O 	0.4105	0.5552	0.7341	-0.301
Mof_O 	O 	0.4106	0.4932	0.7653	-0.558
Mof_C 	C 	0.4316	0.5253	0.7494	0.542
Mof_C 	C 	0.49072	0.5229	0.75028	-0.159
Mof_C 	C 	0.5166	0.4966	0.73022	0.102
Mof_C 	C 	0.571	0.49311	0.73043	0.04
Mof_C 	C 	0.59944	0.516	0.7507	-0.073
Mof_C 	C 	0.5735	0.45771	0.72924	0.066
Mof_C 	C 	0.5192	0.45423	0.72945	-0.059
Mof_C 	C 	0.4654	0.5244	0.6836	-0.407
Mof_H 	H 	0.4463	0.5133	0.6679	0.144
Mof_H 	H 	0.4442	0.5497	0.6935	0.16
Mof_H 	H 	0.4986	0.5408	0.6784	0.132
Mof_C 	C 	0.6173	0.5114	0.6809	-0.088
Mof_H 	H 	0.6344	0.5412	0.6895	-0.016
Mof_H 	H 	0.6397	0.4985	0.6666	-0.376
Mof_H 	H 	0.5835	0.5225	0.6737	0.029
Mof_C 	C 	0.6103	0.4838	0.681	-0.306
Mof_H 	H 	0.6123	0.5166	0.6909	0.243
Mof_H 	H 	0.64	0.4816	0.6688	0.498
Mof_H 	H 	0.5775	0.4828	0.671	0.108
Mof_C 	C 	0.5015	0.3539	0.7172	-0.324
Mof_H 	H 	0.5386	0.3449	0.7151	0.1
Mof_H 	H 	0.4927	0.3542	0.736	0.107
Mof_H 	H 	0.4799	0.3278	0.7082	0.101
Mof_O 	O 	0.3935	0.6093	0.7216	-0.683
Mof_H 	H 	0.396	0.639	0.729	0.277
Mof_H 	H 	0.422	0.61	0.713	0.296
Mof_O 	O 	0.6794	0.4676	0.76472	-0.503
Mof_O 	O 	0.8253	0.5411	0.80694	-0.469
Mof_O 	O 	0.7612	0.4807	0.8105	-0.495
Mof_S 	S 	0.86471	0.45026	0.8531	0.01
Mof_S 	S 	0.71742	0.59833	0.83337	-0.012
Mof_Zn	Zn	0.7537	0.46021	0.77389	1.209
Mof_Zn	Zn	0.83832	0.55286	0.76891	1.247
Mof_C 	C 	0.7651	0.0425	0.06932	0.387
Mof_C 	C 	0.7744	0.0383	0.0985	-0.105
Mof_C 	C 	0.7455	0.0686	0.11577	0.018
Mof_C 	C 	0.8115	0.003	0.10728	0.035
Mof_C 	C 	0.6412	0.0759	0.1053	-0.368
Mof_H 	H 	0.6467	0.0469	0.1176	0.132
Mof_H 	H 	0.6123	0.098	0.1115	0.115
Mof_H 	H 	0.6325	0.0619	0.0879	0.127
Mof_C 	C 	0.9055	0.0093	0.0824	-0.337
Mof_H 	H 	0.9175	0.0164	0.1003	0.121
Mof_H 	H 	0.9336	0.9918	0.0726	0.109
Mof_H 	H 	0.8966	0.0424	0.0737	0.138
Mof_S 	S 	0.59427	0.91169	0.97784	0.1
Mof_S 	S 	0.46937	0.88056	0.97475	0.167
Mof_S 	S 	0.582	0.93549	0.97725	0.094
Mof_S 	S 	0.45626	0.90451	0.97385	-0.088
Mof_O 	O 	0.6361	0.0392	0.9856	-0.211
Mof_O 	O 	0.6395	0.9982	0.02451	-0.07
Mof_O 	O 	0.6222	0.0629	0.9839	-0.397
Mof_O 	O 	0.6287	0.0214	0.0222	-0.345
Mof_C 	C 	0.6166	0.0153	0.0031	-0.31
Mof_C 	C 	0.5592	0.0012	0.00162	-0.687
Mof_C 	C 	0.5439	0.9541	0.99036	-0.222
Mof_C 	C 	0.4911	0.94106	0.98907	-0.435
Mof_C 	C 	0.5464	0.0248	0.00096	0.288
Mof_C 	C 	0.531	0.9776	0.9897	0.507
Mof_C 	C 	0.4782	0.96458	0.98841	0.267
Mof_C 	C 	0.604	0.0387	0.00228	0.817
Mof_C 	C 	0.604	0.8693	0.0056	0.067
Mof_H 	H 	0.6076	0.8904	0.0216	-0.007
Mof_H 	H 	0.5738	0.8458	0.0074	-0.014
Mof_H 	H 	0.6358	0.8485	0.003	-0.161
Mof_C 	C 	0.471	0.901	0.9406	-0.431
Mof_H 	H 	0.4491	0.9322	0.9384	0.234
Mof_H 	H 	0.5071	0.9091	0.9356	0.094
Mof_H 	H 	0.4576	0.8726	0.9295	0.113
Mof_C 	C 	0.5836	0.8867	0.0029	-0.732
Mof_H 	H 	0.5799	0.9038	0.0201	0.266
Mof_H 	H 	0.617	0.8678	0.0023	0.305
Mof_H 	H 	0.5547	0.8619	0.0004	0.237
Mof_C 	C 	0.465	0.9226	0.9398	-0.058
Mof_H 	H 	0.455	0.9593	0.9374	-0.085
Mof_H 	H 	0.4432	0.9002	0.9287	0.039
Mof_H 	H 	0.502	0.9181	0.9349	0.048
Mof_S 	S 	0.7171	0.72882	0.95436	0.073
Mof_S 	S 	0.70913	0.85688	0.95483	-0.503
Mof_S 	S 	0.67888	0.86227	0.95352	0.444
Mof_S 	S 	0.66863	0.7393	0.95319	-0.029
Mof_O 	O 	0.8052	0.6605	0.9841	-0.301
Mof_O 	O 	0.7432	0.6606	0.0153	-0.558
Mof_C 	C 	0.7753	0.6816	0.9994	0.538
Mof_C 	C 	0.7729	0.74072	0.00028	-0.153
Mof_C 	C 	0.7466	0.7666	0.98022	0.097
Mof_C 	C 	0.74311	0.821	0.98043	0.047
Mof_C 	C 	0.766	0.84944	0.0007	-0.076
Mof_C 	C 	0.70771	0.8235	0.97924	0.062
Mof_C 	C 	0.70423	0.7692	0.97945	-0.054
Mof_C 	C 	0.7744	0.7154	0.9336	-0.408
Mof_H 	H 	0.7633	0.6963	0.9179	0.144
Mof_H 	H 	0.7997	0.6942	0.9435	0.16
Mof_H 	H 	0.7908	0.7486	0.9284	0.133
Mof_C 	C 	0.7614	0.8673	0.9309	-0.085
Mof_H 	H 	0.7912	0.8844	0.9395	-0.016
Mof_H 	H 	0.7485	0.8897	0.9166	-0.378
Mof_H 	H 	0.7725	0.8335	0.9237	0.028
Mof_C 	C 	0.7338	0.8603	0.931	-0.3
Mof_H 	H 	0.7666	0.8623	0.9409	0.24
Mof_H 	H 	0.7316	0.89	0.9188	0.497
Mof_H 	H 	0.7328	0.8275	0.921	0.106
Mof_C 	C 	0.6039	0.7515	0.9672	-0.321
Mof_H 	H 	0.5949	0.7886	0.9651	0.098
Mof_H 	H 	0.6042	0.7427	0.986	0.105
Mof_H 	H 	0.5778	0.7299	0.9582	0.1
Mof_O 	O 	0.8593	0.6435	0.9716	-0.683
Mof_H 	H 	0.889	0.646	0.979	0.277
Mof_H 	H 	0.86	0.672	0.963	0.296
Mof_O 	O 	0.7176	0.9294	0.01472	-0.504
Mof_O 	O 	0.7911	0.0753	0.05694	-0.469
Mof_O 	O 	0.7307	0.0112	0.0605	-0.493
Mof_S 	S 	0.70026	0.11471	0.1031	0.009
Mof_S 	S 	0.84833	0.96742	0.08337	-0.031
Mof_Zn	Zn	0.71021	0.0037	0.02389	1.211
Mof_Zn	Zn	0.80286	0.08832	0.01891	1.247
Mof_C 	C 	0.2651	0.5425	0.56932	0.384
Mof_C 	C 	0.2744	0.5383	0.5985	-0.099
Mof_C 	C 	0.2455	0.5686	0.61577	0.014
Mof_C 	C 	0.3115	0.503	0.60728	0.017
Mof_C 	C 	0.1412	0.5759	0.6053	-0.367
Mof_H 	H 	0.1467	0.5469	0.6176	0.131
Mof_H 	H 	0.1123	0.598	0.6115	0.114
Mof_H 	H 	0.1325	0.5619	0.5879	0.126
Mof_C 	C 	0.4055	0.5093	0.5824	-0.371
Mof_H 	H 	0.4175	0.5164	0.6003	0.129
Mof_H 	H 	0.4336	0.4918	0.5726	0.124
Mof_H 	H 	0.3966	0.5424	0.5737	0.147
Mof_S 	S 	0.09427	0.41169	0.47784	0.047
Mof_S 	S 	0.96937	0.38056	0.47475	0.149
Mof_S 	S 	0.082	0.43549	0.47725	0.118
Mof_S 	S 	0.95626	0.40451	0.47385	-0.074
Mof_O 	O 	0.1361	0.5392	0.4856	-0.247
Mof_O 	O 	0.1395	0.4982	0.52451	-0.043
Mof_O 	O 	0.1222	0.5629	0.4839	-0.357
Mof_O 	O 	0.1287	0.5214	0.5222	-0.386
Mof_C 	C 	0.1166	0.5153	0.5031	-0.255
Mof_C 	C 	0.0592	0.5012	0.50162	-0.616
Mof_C 	C 	0.0439	0.4541	0.49036	-0.148
Mof_C 	C 	0.9911	0.44106	0.48907	-0.431
Mof_C 	C 	0.0464	0.5248	0.50096	0.228
Mof_C 	C 	0.031	0.4776	0.4897	0.409
Mof_C 	C 	0.9782	0.46458	0.48841	0.248
Mof_C 	C 	0.104	0.5387	0.50228	0.769
Mof_C 	C 	0.104	0.3693	0.5056	0.069
Mof_H 	H 	0.1076	0.3904	0.5216	-0.007
Mof_H 	H 	0.0738	0.3458	0.5074	-0.015
Mof_H 	H 	0.1358	0.3485	0.503	-0.153
Mof_C 	C 	0.971	0.401	0.4406	-0.427
Mof_H 	H 	0.9491	0.4322	0.4384	0.229
Mof_H 	H 	0.0071	0.4091	0.4356	0.094
Mof_H 	H 	0.9576	0.3726	0.4295	0.112
Mof_C 	C 	0.0836	0.3867	0.5029	-0.695
Mof_H 	H 	0.0799	0.4038	0.5201	0.25
Mof_H 	H 	0.117	0.3678	0.5023	0.29
Mof_H 	H 	0.0547	0.3619	0.5004	0.226
Mof_C 	C 	0.965	0.4226	0.4398	-0.057
Mof_H 	H 	0.955	0.4593	0.4374	-0.081
Mof_H 	H 	0.9432	0.4002	0.4287	0.039
Mof_H 	H 	0.002	0.4181	0.4349	0.049
Mof_S 	S 	0.2171	0.22882	0.45436	0.07
Mof_S 	S 	0.20913	0.35688	0.45483	-0.491
Mof_S 	S 	0.17888	0.36227	0.45352	0.437
Mof_S 	S 	0.16863	0.2393	0.45319	-0.026
Mof_O 	O 	0.3052	0.1605	0.4841	-0.302
Mof_O 	O 	0.2432	0.1606	0.5153	-0.558
Mof_C 	C 	0.2753	0.1816	0.4994	0.542
Mof_C 	C 	0.2729	0.24072	0.50028	-0.159
Mof_C 	C 	0.2466	0.2666	0.48022	0.103
Mof_C 	C 	0.24311	0.321	0.48043	0.04
Mof_C 	C 	0.266	0.34944	0.5007	-0.073
Mof_C 	C 	0.20771	0.3235	0.47924	0.066
Mof_C 	C 	0.20423	0.2692	0.47945	-0.059
Mof_C 	C 	0.2744	0.2154	0.4336	-0.407
Mof_H 	H 	0.2633	0.1963	0.4179	0.144
Mof_H 	H 	0.2997	0.1942	0.4435	0.16
Mof_H 	H 	0.2908	0.2486	0.4284	0.132
Mof_C 	C 	0.2614	0.3673	0.4309	-0.088
Mof_H 	H 	0.2912	0.3844	0.4395	-0.016
Mof_H 	H 	0.2485	0.3897	0.4166	-0.376
Mof_H 	H 	0.2725	0.3335	0.4237	0.029
Mof_C 	C 	0.2338	0.3603	0.431	-0.306
Mof_H 	H 	0.2666	0.3623	0.4409	0.243
Mof_H 	H 	0.2316	0.39	0.4188	0.498
Mof_H 	H 	0.2328	0.3275	0.421	0.108
Mof_C 	C 	0.1039	0.2515	0.4672	-0.325
Mof_H 	H 	0.0949	0.2886	0.4651	0.101
Mof_H 	H 	0.1042	0.2427	0.486	0.107
Mof_H 	H 	0.0778	0.2299	0.4582	0.102
Mof_O 	O 	0.3593	0.1435	0.4716	-0.682
Mof_H 	H 	0.389	0.146	0.479	0.277
Mof_H 	H 	0.36	0.172	0.463	0.296
Mof_O 	O 	0.2176	0.4294	0.51472	-0.502
Mof_O 	O 	0.2911	0.5753	0.55694	-0.469
Mof_O 	O 	0.2307	0.5112	0.5605	-0.495
Mof_S 	S 	0.20026	0.61471	0.6031	0.01
Mof_S 	S 	0.34833	0.46742	0.58337	-0.012
Mof_Zn	Zn	0.21021	0.5037	0.52389	1.209
Mof_Zn	Zn	0.30286	0.58832	0.51891	1.247
Mof_C 	C 	0.7349	0.9575	0.56932	0.382
Mof_C 	C 	0.7256	0.9617	0.5985	-0.093
Mof_C 	C 	0.7545	0.9314	0.61577	0.01
Mof_C 	C 	0.6885	0.997	0.60728	-0.001
Mof_C 	C 	0.8588	0.9241	0.6053	-0.367
Mof_H 	H 	0.8533	0.9531	0.6176	0.129
Mof_H 	H 	0.8877	0.902	0.6115	0.114
Mof_H 	H 	0.8675	0.9381	0.5879	0.125
Mof_C 	C 	0.5945	0.9907	0.5824	-0.406
Mof_H 	H 	0.5825	0.9836	0.6003	0.137
Mof_H 	H 	0.5664	0.0082	0.5726	0.139
Mof_H 	H 	0.6034	0.9576	0.5737	0.156
Mof_S 	S 	0.90573	0.08831	0.47784	-0.003
Mof_S 	S 	0.03063	0.11944	0.47475	0.132
Mof_S 	S 	0.918	0.06451	0.47725	0.139
Mof_S 	S 	0.04374	0.09549	0.47385	-0.062
Mof_O 	O 	0.8639	0.9608	0.4856	-0.283
Mof_O 	O 	0.8605	0.0018	0.52451	-0.015
Mof_O 	O 	0.8778	0.9371	0.4839	-0.319
Mof_O 	O 	0.8713	0.9786	0.5222	-0.427
Mof_C 	C 	0.8834	0.9847	0.5031	-0.202
Mof_C 	C 	0.9408	0.9988	0.50162	-0.551
Mof_C 	C 	0.9561	0.0459	0.49036	-0.077
Mof_C 	C 	0.0089	0.05894	0.48907	-0.427
Mof_C 	C 	0.9536	0.9752	0.50096	0.17
Mof_C 	C 	0.969	0.0224	0.4897	0.317
Mof_C 	C 	0.0218	0.03542	0.48841	0.23
Mof_C 	C 	0.896	0.9613	0.50228	0.725
Mof_C 	C 	0.896	0.1307	0.5056	0.071
Mof_H 	H 	0.8924	0.1096	0.5216	-0.007
Mof_H 	H 	0.9262	0.1542	0.5074	-0.016
Mof_H 	H 	0.8642	0.1515	0.503	-0.144
Mof_C 	C 	0.029	0.099	0.4406	-0.424
Mof_H 	H 	0.0509	0.0678	0.4384	0.225
Mof_H 	H 	0.9929	0.0909	0.4356	0.093
Mof_H 	H 	0.0424	0.1274	0.4295	0.111
Mof_C 	C 	0.9164	0.1133	0.5029	-0.659
Mof_H 	H 	0.9201	0.0962	0.5201	0.235
Mof_H 	H 	0.883	0.1322	0.5023	0.275
Mof_H 	H 	0.9453	0.1381	0.5004	0.216
Mof_C 	C 	0.035	0.0774	0.4398	-0.055
Mof_H 	H 	0.045	0.0407	0.4374	-0.077
Mof_H 	H 	0.0568	0.0998	0.4287	0.039
Mof_H 	H 	0.998	0.0819	0.4349	0.049
Mof_S 	S 	0.7829	0.27118	0.45436	0.069
Mof_S 	S 	0.79087	0.14312	0.45483	-0.48
Mof_S 	S 	0.82112	0.13773	0.45352	0.431
Mof_S 	S 	0.83137	0.2607	0.45319	-0.025
Mof_O 	O 	0.6948	0.3395	0.4841	-0.302
Mof_O 	O 	0.7568	0.3394	0.5153	-0.558
Mof_C 	C 	0.7247	0.3184	0.4994	0.542
Mof_C 	C 	0.7271	0.25928	0.50028	-0.159
Mof_C 	C 	0.7534	0.2334	0.48022	0.103
Mof_C 	C 	0.75689	0.179	0.48043	0.038
Mof_C 	C 	0.734	0.15056	0.5007	-0.072
Mof_C 	C 	0.79229	0.1765	0.47924	0.064
Mof_C 	C 	0.79577	0.2308	0.47945	-0.059
Mof_C 	C 	0.7256	0.2846	0.4336	-0.406
Mof_H 	H 	0.7367	0.3037	0.4179	0.144
Mof_H 	H 	0.7003	0.3058	0.4435	0.16
Mof_H 	H 	0.7092	0.2514	0.4284	0.132
Mof_C 	C 	0.7386	0.1327	0.4309	-0.092
Mof_H 	H 	0.7088	0.1156	0.4395	-0.015
Mof_H 	H 	0.7515	0.1103	0.4166	-0.374
Mof_H 	H 	0.7275	0.1665	0.4237	0.03
Mof_C 	C 	0.7662	0.1397	0.431	-0.312
Mof_H 	H 	0.7334	0.1377	0.4409	0.246
Mof_H 	H 	0.7684	0.11	0.4188	0.499
Mof_H 	H 	0.7672	0.1725	0.421	0.11
Mof_C 	C 	0.8961	0.2485	0.4672	-0.327
Mof_H 	H 	0.9051	0.2114	0.4651	0.102
Mof_H 	H 	0.8958	0.2573	0.486	0.107
Mof_H 	H 	0.9222	0.2701	0.4582	0.102
Mof_O 	O 	0.6407	0.3565	0.4716	-0.683
Mof_H 	H 	0.611	0.354	0.479	0.277
Mof_H 	H 	0.64	0.328	0.463	0.296
Mof_O 	O 	0.7824	0.0706	0.51472	-0.501
Mof_O 	O 	0.7089	0.9247	0.55694	-0.469
Mof_O 	O 	0.7693	0.9888	0.5605	-0.497
Mof_S 	S 	0.79974	0.88529	0.6031	0.01
Mof_S 	S 	0.65167	0.03258	0.58337	0.007
Mof_Zn	Zn	0.78979	0.9963	0.52389	1.207
Mof_Zn	Zn	0.69714	0.91168	0.51891	1.248
Mof_C 	C 	0.2349	0.4575	0.06932	0.384
Mof_C 	C 	0.2256	0.4617	0.0985	-0.099
Mof_C 	C 	0.2545	0.4314	0.11577	0.014
Mof_C 	C 	0.1885	0.497	0.10728	0.017
Mof_C 	C 	0.3588	0.4241	0.1053	-0.368
Mof_H 	H 	0.3533	0.4531	0.1176	0.131
Mof_H 	H 	0.3877	0.402	0.1115	0.114
Mof_H 	H 	0.3675	0.4381	0.0879	0.126
Mof_C 	C 	0.0945	0.4907	0.0824	-0.372
Mof_H 	H 	0.0825	0.4836	0.1003	0.129
Mof_H 	H 	0.0664	0.5082	0.0726	0.124
Mof_H 	H 	0.1034	0.4576	0.0737	0.147
Mof_S 	S 	0.40573	0.58831	0.97784	0.05
Mof_S 	S 	0.53063	0.61944	0.97475	0.15
Mof_S 	S 	0.418	0.56451	0.97725	0.115
Mof_S 	S 	0.54374	0.59549	0.97385	-0.076
Mof_O 	O 	0.3639	0.4608	0.9856	-0.247
Mof_O 	O 	0.3605	0.5018	0.02451	-0.041
Mof_O 	O 	0.3778	0.4371	0.9839	-0.359
Mof_O 	O 	0.3713	0.4786	0.0222	-0.387
Mof_C 	C 	0.3834	0.4847	0.0031	-0.257
Mof_C 	C 	0.4408	0.4988	0.00162	-0.62
Mof_C 	C 	0.4561	0.5459	0.99036	-0.15
Mof_C 	C 	0.5089	0.55894	0.98907	-0.43
Mof_C 	C 	0.4536	0.4752	0.00096	0.231
Mof_C 	C 	0.469	0.5224	0.9897	0.413
Mof_C 	C 	0.5218	0.53542	0.98841	0.248
Mof_C 	C 	0.396	0.4613	0.00228	0.773
Mof_C 	C 	0.396	0.6307	0.0056	0.069
Mof_H 	H 	0.3924	0.6096	0.0216	-0.007
Mof_H 	H 	0.4262	0.6542	0.0074	-0.015
Mof_H 	H 	0.3642	0.6515	0.003	-0.152
Mof_C 	C 	0.529	0.599	0.9406	-0.427
Mof_H 	H 	0.5509	0.5678	0.9384	0.229
Mof_H 	H 	0.4929	0.5909	0.9356	0.094
Mof_H 	H 	0.5424	0.6274	0.9295	0.112
Mof_C 	C 	0.4164	0.6133	0.0029	-0.695
Mof_H 	H 	0.4201	0.5962	0.0201	0.25
Mof_H 	H 	0.383	0.6322	0.0023	0.29
Mof_H 	H 	0.4453	0.6381	0.0004	0.227
Mof_C 	C 	0.535	0.5774	0.9398	-0.057
Mof_H 	H 	0.545	0.5407	0.9374	-0.081
Mof_H 	H 	0.5568	0.5998	0.9287	0.039
Mof_H 	H 	0.498	0.5819	0.9349	0.049
Mof_S 	S 	0.2829	0.77118	0.95436	0.072
Mof_S 	S 	0.29087	0.64312	0.95483	-0.492
Mof_S 	S 	0.32112	0.63773	0.95352	0.438
Mof_S 	S 	0.33137	0.7607	0.95319	-0.028
Mof_O 	O 	0.1948	0.8395	0.9841	-0.3
Mof_O 	O 	0.2568	0.8394	0.0153	-0.558
Mof_C 	C 	0.2247	0.8184	0.9994	0.538
Mof_C 	C 	0.2271	0.75928	0.00028	-0.153
Mof_C 	C 	0.2534	0.7334	0.98022	0.098
Mof_C 	C 	0.25689	0.679	0.98043	0.045
Mof_C 	C 	0.234	0.65056	0.0007	-0.076
Mof_C 	C 	0.29229	0.6765	0.97924	0.06
Mof_C 	C 	0.29577	0.7308	0.97945	-0.054
Mof_C 	C 	0.2256	0.7846	0.9336	-0.407
Mof_H 	H 	0.2367	0.8037	0.9179	0.144
Mof_H 	H 	0.2003	0.8058	0.9435	0.16
Mof_H 	H 	0.2092	0.7514	0.9284	0.132
Mof_C 	C 	0.2386	0.6327	0.9309	-0.088
Mof_H 	H 	0.2088	0.6156	0.9395	-0.016
Mof_H 	H 	0.2515	0.6103	0.9166	-0.376
Mof_H 	H 	0.2275	0.6665	0.9237	0.029
Mof_C 	C 	0.2662	0.6397	0.931	-0.306
Mof_H 	H 	0.2334	0.6377	0.9409	0.243
Mof_H 	H 	0.2684	0.61	0.9188	0.498
Mof_H 	H 	0.2672	0.6725	0.921	0.108
Mof_C 	C 	0.3961	0.7485	0.9672	-0.322
Mof_H 	H 	0.4051	0.7114	0.9651	0.1
Mof_H 	H 	0.3958	0.7573	0.986	0.106
Mof_H 	H 	0.4222	0.7701	0.9582	0.1
Mof_O 	O 	0.1407	0.8565	0.9716	-0.685
Mof_H 	H 	0.111	0.854	0.979	0.277
Mof_H 	H 	0.14	0.828	0.963	0.296
Mof_O 	O 	0.2824	0.5706	0.01472	-0.503
Mof_O 	O 	0.2089	0.4247	0.05694	-0.469
Mof_O 	O 	0.2693	0.4888	0.0605	-0.495
Mof_S 	S 	0.29974	0.38529	0.1031	0.01
Mof_S 	S 	0.15167	0.53258	0.08337	-0.012
Mof_Zn	Zn	0.28979	0.4963	0.02389	1.209
Mof_Zn	Zn	0.19714	0.41168	0.01891	1.248
Mof_C 	C 	0.7075	0.0151	0.81932	0.389
Mof_C 	C 	0.7117	0.0244	0.8485	-0.088
Mof_C 	C 	0.6814	0.9955	0.86577	-0.004
Mof_C 	C 	0.747	0.0615	0.85728	0.013
Mof_C 	C 	0.6741	0.8912	0.8553	-0.368
Mof_H 	H 	0.7031	0.8967	0.8676	0.131
Mof_H 	H 	0.652	0.8623	0.8615	0.114
Mof_H 	H 	0.6881	0.8825	0.8379	0.126
Mof_C 	C 	0.7407	0.1555	0.8324	-0.373
Mof_H 	H 	0.7336	0.1675	0.8503	0.129
Mof_H 	H 	0.7582	0.1836	0.8226	0.124
Mof_H 	H 	0.7076	0.1466	0.8237	0.148
Mof_S 	S 	0.83831	0.84427	0.72784	0.048
Mof_S 	S 	0.86944	0.71937	0.72475	0.149
Mof_S 	S 	0.81451	0.832	0.72725	0.115
Mof_S 	S 	0.84549	0.70626	0.72385	-0.075
Mof_O 	O 	0.7108	0.8861	0.7356	-0.248
Mof_O 	O 	0.7518	0.8895	0.77451	-0.042
Mof_O 	O 	0.6871	0.8722	0.7339	-0.357
Mof_O 	O 	0.7286	0.8787	0.7722	-0.387
Mof_C 	C 	0.7347	0.8666	0.7531	-0.256
Mof_C 	C 	0.7488	0.8092	0.75162	-0.617
Mof_C 	C 	0.7959	0.7939	0.74036	-0.148
Mof_C 	C 	0.80894	0.7411	0.73907	-0.429
Mof_C 	C 	0.7252	0.7964	0.75096	0.228
Mof_C 	C 	0.7724	0.781	0.7397	0.41
Mof_C 	C 	0.78542	0.7282	0.73841	0.247
Mof_C 	C 	0.7113	0.854	0.75228	0.771
Mof_C 	C 	0.8807	0.854	0.7556	0.069
Mof_H 	H 	0.8596	0.8576	0.7716	-0.007
Mof_H 	H 	0.9042	0.8238	0.7574	-0.015
Mof_H 	H 	0.9015	0.8858	0.753	-0.151
Mof_C 	C 	0.849	0.721	0.6906	-0.427
Mof_H 	H 	0.8178	0.6991	0.6884	0.229
Mof_H 	H 	0.8409	0.7571	0.6856	0.094
Mof_H 	H 	0.8774	0.7076	0.6795	0.112
Mof_C 	C 	0.8633	0.8336	0.7529	-0.694
Mof_H 	H 	0.8462	0.8299	0.7701	0.25
Mof_H 	H 	0.8822	0.867	0.7523	0.289
Mof_H 	H 	0.8881	0.8047	0.7504	0.226
Mof_C 	C 	0.8274	0.715	0.6898	-0.056
Mof_H 	H 	0.7907	0.705	0.6874	-0.081
Mof_H 	H 	0.8498	0.6932	0.6787	0.039
Mof_H 	H 	0.8319	0.752	0.6849	0.049
Mof_S 	S 	0.02118	0.9671	0.70436	0.067
Mof_S 	S 	0.89312	0.95913	0.70483	-0.491
Mof_S 	S 	0.88773	0.92888	0.70352	0.45
Mof_S 	S 	0.0107	0.91863	0.70319	-0.039
Mof_O 	O 	0.0895	0.0552	0.7341	-0.299
Mof_O 	O 	0.0894	0.9932	0.7653	-0.564
Mof_C 	C 	0.0684	0.0253	0.7494	0.53
Mof_C 	C 	0.00928	0.0229	0.75028	-0.109
Mof_C 	C 	0.9834	0.9966	0.73022	0.05
Mof_C 	C 	0.929	0.99311	0.73043	0.098
Mof_C 	C 	0.90056	0.016	0.7507	-0.133
Mof_C 	C 	0.9265	0.95771	0.72924	-0.012
Mof_C 	C 	0.9808	0.95423	0.72945	0.004
Mof_C 	C 	0.0346	0.0244	0.6836	-0.4
Mof_H 	H 	0.0537	0.0133	0.6679	0.144
Mof_H 	H 	0.0558	0.0497	0.6935	0.159
Mof_H 	H 	0.0014	0.0408	0.6784	0.131
Mof_C 	C 	0.8827	0.0114	0.6809	-0.108
Mof_H 	H 	0.8656	0.0412	0.6895	-0.015
Mof_H 	H 	0.8603	0.9985	0.6666	-0.374
Mof_H 	H 	0.9165	0.0225	0.6737	0.037
Mof_C 	C 	0.8897	0.9838	0.681	-0.315
Mof_H 	H 	0.8877	0.0166	0.6909	0.26
Mof_H 	H 	0.86	0.9816	0.6688	0.5
Mof_H 	H 	0.9225	0.9828	0.671	0.108
Mof_C 	C 	0.9985	0.8539	0.7172	-0.318
Mof_H 	H 	0.9614	0.8449	0.7151	0.099
Mof_H 	H 	0.0073	0.8542	0.736	0.104
Mof_H 	H 	0.0201	0.8278	0.7082	0.1
Mof_O 	O 	0.1065	0.1093	0.7216	-0.684
Mof_H 	H 	0.104	0.139	0.729	0.277
Mof_H 	H 	0.078	0.11	0.713	0.296
Mof_O 	O 	0.8206	0.9676	0.76472	-0.511
Mof_O 	O 	0.6747	0.0411	0.80694	-0.469
Mof_O 	O 	0.7388	0.9807	0.8105	-0.501
Mof_S 	S 	0.63529	0.95026	0.8531	0.01
Mof_S 	S 	0.78258	0.09833	0.83337	-0.009
Mof_Zn	Zn	0.7463	0.96021	0.77389	1.208
Mof_Zn	Zn	0.66168	0.05286	0.76891	1.248
Mof_C 	C 	0.2075	0.5151	0.31932	0.384
Mof_C 	C 	0.2117	0.5244	0.3485	-0.099
Mof_C 	C 	0.1814	0.4955	0.36577	0.014
Mof_C 	C 	0.247	0.5615	0.35728	0.017
Mof_C 	C 	0.1741	0.3912	0.3553	-0.367
Mof_H 	H 	0.2031	0.3967	0.3676	0.131
Mof_H 	H 	0.152	0.3623	0.3615	0.114
Mof_H 	H 	0.1881	0.3825	0.3379	0.126
Mof_C 	C 	0.2407	0.6555	0.3324	-0.371
Mof_H 	H 	0.2336	0.6675	0.3503	0.129
Mof_H 	H 	0.2582	0.6836	0.3226	0.124
Mof_H 	H 	0.2076	0.6466	0.3237	0.147
Mof_S 	S 	0.33831	0.34427	0.22784	0.048
Mof_S 	S 	0.36944	0.21937	0.22475	0.15
Mof_S 	S 	0.31451	0.332	0.22725	0.117
Mof_S 	S 	0.34549	0.20626	0.22385	-0.075
Mof_O 	O 	0.2108	0.3861	0.2356	-0.246
Mof_O 	O 	0.2518	0.3895	0.27451	-0.042
Mof_O 	O 	0.1871	0.3722	0.2339	-0.359
Mof_O 	O 	0.2286	0.3787	0.2722	-0.387
Mof_C 	C 	0.2347	0.3666	0.2531	-0.256
Mof_C 	C 	0.2488	0.3092	0.25162	-0.621
Mof_C 	C 	0.2959	0.2939	0.24036	-0.148
Mof_C 	C 	0.30894	0.2411	0.23907	-0.432
Mof_C 	C 	0.2252	0.2964	0.25096	0.23
Mof_C 	C 	0.2724	0.281	0.2397	0.412
Mof_C 	C 	0.28542	0.2282	0.23841	0.249
Mof_C 	C 	0.2113	0.354	0.25228	0.772
Mof_C 	C 	0.3807	0.354	0.2556	0.069
Mof_H 	H 	0.3596	0.3576	0.2716	-0.007
Mof_H 	H 	0.4042	0.3238	0.2574	-0.015
Mof_H 	H 	0.4015	0.3858	0.253	-0.153
Mof_C 	C 	0.349	0.221	0.1906	-0.428
Mof_H 	H 	0.3178	0.1991	0.1884	0.23
Mof_H 	H 	0.3409	0.2571	0.1856	0.094
Mof_H 	H 	0.3774	0.2076	0.1795	0.112
Mof_C 	C 	0.3633	0.3336	0.2529	-0.696
Mof_H 	H 	0.3462	0.3299	0.2701	0.25
Mof_H 	H 	0.3822	0.367	0.2523	0.29
Mof_H 	H 	0.3881	0.3047	0.2504	0.227
Mof_C 	C 	0.3274	0.215	0.1898	-0.057
Mof_H 	H 	0.2907	0.205	0.1874	-0.081
Mof_H 	H 	0.3498	0.1932	0.1787	0.04
Mof_H 	H 	0.3319	0.252	0.1849	0.049
Mof_S 	S 	0.52118	0.4671	0.20436	0.071
Mof_S 	S 	0.39312	0.45913	0.20483	-0.492
Mof_S 	S 	0.38773	0.42888	0.20352	0.437
Mof_S 	S 	0.5107	0.41863	0.20319	-0.026
Mof_O 	O 	0.5895	0.5552	0.2341	-0.301
Mof_O 	O 	0.5894	0.4932	0.2653	-0.558
Mof_C 	C 	0.5684	0.5253	0.2494	0.542
Mof_C 	C 	0.50928	0.5229	0.25028	-0.159
Mof_C 	C 	0.4834	0.4966	0.23022	0.102
Mof_C 	C 	0.429	0.49311	0.23043	0.04
Mof_C 	C 	0.40056	0.516	0.2507	-0.073
Mof_C 	C 	0.4265	0.45771	0.22924	0.066
Mof_C 	C 	0.4808	0.45423	0.22945	-0.059
Mof_C 	C 	0.5346	0.5244	0.1836	-0.407
Mof_H 	H 	0.5537	0.5133	0.1679	0.144
Mof_H 	H 	0.5558	0.5497	0.1935	0.16
Mof_H 	H 	0.5014	0.5408	0.1784	0.132
Mof_C 	C 	0.3827	0.5114	0.1809	-0.088
Mof_H 	H 	0.3656	0.5412	0.1895	-0.016
Mof_H 	H 	0.3603	0.4985	0.1666	-0.376
Mof_H 	H 	0.4165	0.5225	0.1737	0.029
Mof_C 	C 	0.3897	0.4838	0.181	-0.306
Mof_H 	H 	0.3877	0.5166	0.1909	0.243
Mof_H 	H 	0.36	0.4816	0.1688	0.498
Mof_H 	H 	0.4225	0.4828	0.171	0.108
Mof_C 	C 	0.4985	0.3539	0.2172	-0.324
Mof_H 	H 	0.4614	0.3449	0.2151	0.1
Mof_H 	H 	0.5073	0.3542	0.236	0.107
Mof_H 	H 	0.5201	0.3278	0.2082	0.101
Mof_O 	O 	0.6065	0.6093	0.2216	-0.683
Mof_H 	H 	0.604	0.639	0.229	0.277
Mof_H 	H 	0.578	0.61	0.213	0.296
Mof_O 	O 	0.3206	0.4676	0.26472	-0.503
Mof_O 	O 	0.1747	0.5411	0.30694	-0.469
Mof_O 	O 	0.2388	0.4807	0.3105	-0.495
Mof_S 	S 	0.13529	0.45026	0.3531	0.01
Mof_S 	S 	0.28258	0.59833	0.33337	-0.012
Mof_Zn	Zn	0.2463	0.46021	0.27389	1.209
Mof_Zn	Zn	0.16168	0.55286	0.26891	1.247
Mof_C 	C 	0.7925	0.9849	0.31932	0.379
Mof_C 	C 	0.7883	0.9756	0.3485	-0.11
Mof_C 	C 	0.8186	0.0045	0.36577	0.032
Mof_C 	C 	0.753	0.9385	0.35728	0.021
Mof_C 	C 	0.8259	0.1088	0.3553	-0.367
Mof_H 	H 	0.7969	0.1033	0.3676	0.131
Mof_H 	H 	0.848	0.1377	0.3615	0.114
Mof_H 	H 	0.8119	0.1175	0.3379	0.126
Mof_C 	C 	0.7593	0.8445	0.3324	-0.37
Mof_H 	H 	0.7664	0.8325	0.3503	0.128
Mof_H 	H 	0.7418	0.8164	0.3226	0.123
Mof_H 	H 	0.7924	0.8534	0.3237	0.147
Mof_S 	S 	0.66169	0.15573	0.22784	0.045
Mof_S 	S 	0.63056	0.28063	0.22475	0.149
Mof_S 	S 	0.68549	0.168	0.22725	0.121
Mof_S 	S 	0.65451	0.29374	0.22385	-0.074
Mof_O 	O 	0.7892	0.1139	0.2356	-0.247
Mof_O 	O 	0.7482	0.1105	0.27451	-0.043
Mof_O 	O 	0.8129	0.1278	0.2339	-0.357
Mof_O 	O 	0.7714	0.1213	0.2722	-0.386
Mof_C 	C 	0.7653	0.1334	0.2531	-0.254
Mof_C 	C 	0.7512	0.1908	0.25162	-0.616
Mof_C 	C 	0.7041	0.2061	0.24036	-0.147
Mof_C 	C 	0.69106	0.2589	0.23907	-0.434
Mof_C 	C 	0.7748	0.2036	0.25096	0.227
Mof_C 	C 	0.7276	0.219	0.2397	0.409
Mof_C 	C 	0.71458	0.2718	0.23841	0.25
Mof_C 	C 	0.7887	0.146	0.25228	0.769
Mof_C 	C 	0.6193	0.146	0.2556	0.069
Mof_H 	H 	0.6404	0.1424	0.2716	-0.007
Mof_H 	H 	0.5958	0.1762	0.2574	-0.015
Mof_H 	H 	0.5985	0.1142	0.253	-0.153
Mof_C 	C 	0.651	0.279	0.1906	-0.428
Mof_H 	H 	0.6822	0.3009	0.1884	0.229
Mof_H 	H 	0.6591	0.2429	0.1856	0.094
Mof_H 	H 	0.6226	0.2924	0.1795	0.112
Mof_C 	C 	0.6367	0.1664	0.2529	-0.696
Mof_H 	H 	0.6538	0.1701	0.2701	0.25
Mof_H 	H 	0.6178	0.133	0.2523	0.291
Mof_H 	H 	0.6119	0.1953	0.2504	0.227
Mof_C 	C 	0.6726	0.285	0.1898	-0.057
Mof_H 	H 	0.7093	0.295	0.1874	-0.081
Mof_H 	H 	0.6502	0.3068	0.1787	0.039
Mof_H 	H 	0.6681	0.248	0.1849	0.049
Mof_S 	S 	0.47882	0.0329	0.20436	0.076
Mof_S 	S 	0.60688	0.04087	0.20483	-0.486
Mof_S 	S 	0.61227	0.07112	0.20352	0.42
Mof_S 	S 	0.4893	0.08137	0.20319	-0.015
Mof_O 	O 	0.4105	0.9448	0.2341	-0.304
Mof_O 	O 	0.4106	0.0068	0.2653	-0.552
Mof_C 	C 	0.4316	0.9747	0.2494	0.552
Mof_C 	C 	0.49072	0.9771	0.25028	-0.206
Mof_C 	C 	0.5166	0.0034	0.23022	0.146
Mof_C 	C 	0.571	0.00689	0.23043	-0.004
Mof_C 	C 	0.59944	0.984	0.2507	-0.021
Mof_C 	C 	0.5735	0.04229	0.22924	0.134
Mof_C 	C 	0.5192	0.04577	0.22945	-0.118
Mof_C 	C 	0.4654	0.9756	0.1836	-0.416
Mof_H 	H 	0.4463	0.9867	0.1679	0.144
Mof_H 	H 	0.4442	0.9503	0.1935	0.162
Mof_H 	H 	0.4986	0.9592	0.1784	0.133
Mof_C 	C 	0.6173	0.9886	0.1809	-0.071
Mof_H 	H 	0.6344	0.9588	0.1895	-0.016
Mof_H 	H 	0.6397	0.0015	0.1666	-0.378
Mof_H 	H 	0.5835	0.9775	0.1737	0.022
Mof_C 	C 	0.6103	0.0162	0.181	-0.299
Mof_H 	H 	0.6123	0.9834	0.1909	0.227
Mof_H 	H 	0.64	0.0184	0.1688	0.497
Mof_H 	H 	0.5775	0.0172	0.171	0.109
Mof_C 	C 	0.5015	0.1461	0.2172	-0.329
Mof_H 	H 	0.5386	0.1551	0.2151	0.102
Mof_H 	H 	0.4927	0.1458	0.236	0.108
Mof_H 	H 	0.4799	0.1722	0.2082	0.102
Mof_O 	O 	0.3935	0.8907	0.2216	-0.683
Mof_H 	H 	0.396	0.861	0.229	0.277
Mof_H 	H 	0.422	0.89	0.213	0.296
Mof_O 	O 	0.6794	0.0324	0.26472	-0.504
Mof_O 	O 	0.8253	0.9589	0.30694	-0.47
Mof_O 	O 	0.7612	0.0193	0.3105	-0.489
Mof_S 	S 	0.86471	0.04974	0.3531	0.009
Mof_S 	S 	0.71742	0.90167	0.33337	-0.015
Mof_Zn	Zn	0.7537	0.03979	0.27389	1.209
Mof_Zn	Zn	0.83832	0.94714	0.26891	1.246
Mof_C 	C 	0.2925	0.4849	0.81932	0.384
Mof_C 	C 	0.2883	0.4756	0.8485	-0.099
Mof_C 	C 	0.3186	0.5045	0.86577	0.014
Mof_C 	C 	0.253	0.4385	0.85728	0.017
Mof_C 	C 	0.3259	0.6088	0.8553	-0.367
Mof_H 	H 	0.2969	0.6033	0.8676	0.131
Mof_H 	H 	0.348	0.6377	0.8615	0.114
Mof_H 	H 	0.3119	0.6175	0.8379	0.126
Mof_C 	C 	0.2593	0.3445	0.8324	-0.372
Mof_H 	H 	0.2664	0.3325	0.8503	0.129
Mof_H 	H 	0.2418	0.3164	0.8226	0.124
Mof_H 	H 	0.2924	0.3534	0.8237	0.147
Mof_S 	S 	0.16169	0.65573	0.72784	0.046
Mof_S 	S 	0.13056	0.78063	0.72475	0.148
Mof_S 	S 	0.18549	0.668	0.72725	0.118
Mof_S 	S 	0.15451	0.79374	0.72385	-0.073
Mof_O 	O 	0.2892	0.6139	0.7356	-0.248
Mof_O 	O 	0.2482	0.6105	0.77451	-0.044
Mof_O 	O 	0.3129	0.6278	0.7339	-0.356
Mof_O 	O 	0.2714	0.6213	0.7722	-0.385
Mof_C 	C 	0.2653	0.6334	0.7531	-0.254
Mof_C 	C 	0.2512	0.6908	0.75162	-0.613
Mof_C 	C 	0.2041	0.7061	0.74036	-0.147
Mof_C 	C 	0.19106	0.7589	0.73907	-0.43
Mof_C 	C 	0.2748	0.7036	0.75096	0.226
Mof_C 	C 	0.2276	0.719	0.7397	0.407
Mof_C 	C 	0.21458	0.7718	0.73841	0.248
Mof_C 	C 	0.2887	0.646	0.75228	0.768
Mof_C 	C 	0.1193	0.646	0.7556	0.069
Mof_H 	H 	0.1404	0.6424	0.7716	-0.007
Mof_H 	H 	0.0958	0.6762	0.7574	-0.015
Mof_H 	H 	0.0985	0.6142	0.753	-0.153
Mof_C 	C 	0.151	0.779	0.6906	-0.427
Mof_H 	H 	0.1822	0.8009	0.6884	0.229
Mof_H 	H 	0.1591	0.7429	0.6856	0.094
Mof_H 	H 	0.1226	0.7924	0.6795	0.112
Mof_C 	C 	0.1367	0.6664	0.7529	-0.694
Mof_H 	H 	0.1538	0.6701	0.7701	0.25
Mof_H 	H 	0.1178	0.633	0.7523	0.29
Mof_H 	H 	0.1119	0.6953	0.7504	0.226
Mof_C 	C 	0.1726	0.785	0.6898	-0.056
Mof_H 	H 	0.2093	0.795	0.6874	-0.081
Mof_H 	H 	0.1502	0.8068	0.6787	0.039
Mof_H 	H 	0.1681	0.748	0.6849	0.049
Mof_S 	S 	0.97882	0.5329	0.70436	0.071
Mof_S 	S 	0.10688	0.54087	0.70483	-0.491
Mof_S 	S 	0.11227	0.57112	0.70352	0.437
Mof_S 	S 	0.9893	0.58137	0.70319	-0.026
Mof_O 	O 	0.9105	0.4448	0.7341	-0.301
Mof_O 	O 	0.9106	0.5068	0.7653	-0.558
Mof_C 	C 	0.9316	0.4747	0.7494	0.542
Mof_C 	C 	0.99072	0.4771	0.75028	-0.159
Mof_C 	C 	0.0166	0.5034	0.73022	0.102
Mof_C 	C 	0.071	0.50689	0.73043	0.04
Mof_C 	C 	0.09944	0.484	0.7507	-0.073
Mof_C 	C 	0.0735	0.54229	0.72924	0.066
Mof_C 	C 	0.0192	0.54577	0.72945	-0.059
Mof_C 	C 	0.9654	0.4756	0.6836	-0.407
Mof_H 	H 	0.9463	0.4867	0.6679	0.144
Mof_H 	H 	0.9442	0.4503	0.6935	0.16
Mof_H 	H 	0.9986	0.4592	0.6784	0.132
Mof_C 	C 	0.1173	0.4886	0.6809	-0.088
Mof_H 	H 	0.1344	0.4588	0.6895	-0.016
Mof_H 	H 	0.1397	0.5015	0.6666	-0.376
Mof_H 	H 	0.0835	0.4775	0.6737	0.029
Mof_C 	C 	0.1103	0.5162	0.681	-0.306
Mof_H 	H 	0.1123	0.4834	0.6909	0.243
Mof_H 	H 	0.14	0.5184	0.6688	0.498
Mof_H 	H 	0.0775	0.5172	0.671	0.108
Mof_C 	C 	0.0015	0.6461	0.7172	-0.324
Mof_H 	H 	0.0386	0.6551	0.7151	0.1
Mof_H 	H 	0.9927	0.6458	0.736	0.107
Mof_H 	H 	0.9799	0.6722	0.7082	0.101
Mof_O 	O 	0.8935	0.3907	0.7216	-0.683
Mof_H 	H 	0.896	0.361	0.729	0.277
Mof_H 	H 	0.922	0.39	0.713	0.296
Mof_O 	O 	0.1794	0.5324	0.76472	-0.502
Mof_O 	O 	0.3253	0.4589	0.80694	-0.469
Mof_O 	O 	0.2612	0.5193	0.8105	-0.495
Mof_S 	S 	0.36471	0.54974	0.8531	0.01
Mof_S 	S 	0.21742	0.40167	0.83337	-0.012
Mof_Zn	Zn	0.2537	0.53979	0.77389	1.209
Mof_Zn	Zn	0.33832	0.44714	0.76891	1.247
Mof_C 	C 	0.7349	0.0425	0.93068	0.387
Mof_C 	C 	0.7256	0.0383	0.9015	-0.105
Mof_C 	C 	0.7545	0.0686	0.88423	0.018
Mof_C 	C 	0.6885	0.003	0.89272	0.035
Mof_C 	C 	0.8588	0.0759	0.8947	-0.368
Mof_H 	H 	0.8533	0.0469	0.8824	0.132
Mof_H 	H 	0.8877	0.098	0.8885	0.115
Mof_H 	H 	0.8675	0.0619	0.9121	0.127
Mof_C 	C 	0.5945	0.0093	0.9176	-0.337
Mof_H 	H 	0.5825	0.0164	0.8997	0.121
Mof_H 	H 	0.5664	0.9918	0.9274	0.109
Mof_H 	H 	0.6034	0.0424	0.9263	0.138
Mof_S 	S 	0.90573	0.91169	0.02216	0.095
Mof_S 	S 	0.03063	0.88056	0.02525	0.165
Mof_S 	S 	0.918	0.93549	0.02275	0.098
Mof_S 	S 	0.04374	0.90451	0.02615	-0.086
Mof_O 	O 	0.8639	0.0392	0.0144	-0.212
Mof_O 	O 	0.8605	0.9982	0.97549	-0.073
Mof_O 	O 	0.8778	0.0629	0.0161	-0.394
Mof_O 	O 	0.8713	0.0214	0.9778	-0.343
Mof_C 	C 	0.8834	0.0153	0.9969	-0.307
Mof_C 	C 	0.9408	0.0012	0.99838	-0.678
Mof_C 	C 	0.9561	0.9541	0.00964	-0.216
Mof_C 	C 	0.0089	0.94106	0.01093	-0.436
Mof_C 	C 	0.9536	0.0248	0.99904	0.282
Mof_C 	C 	0.969	0.9776	0.0103	0.499
Mof_C 	C 	0.0218	0.96458	0.01159	0.267
Mof_C 	C 	0.896	0.0387	0.99772	0.811
Mof_C 	C 	0.896	0.8693	0.9944	0.067
Mof_H 	H 	0.8924	0.8904	0.9784	-0.007
Mof_H 	H 	0.9262	0.8458	0.9926	-0.014
Mof_H 	H 	0.8642	0.8485	0.997	-0.162
Mof_C 	C 	0.029	0.901	0.0594	-0.431
Mof_H 	H 	0.0509	0.9322	0.0616	0.234
Mof_H 	H 	0.9929	0.9091	0.0644	0.094
Mof_H 	H 	0.0424	0.8726	0.0705	0.113
Mof_C 	C 	0.9164	0.8867	0.9971	-0.731
Mof_H 	H 	0.9201	0.9038	0.9799	0.265
Mof_H 	H 	0.883	0.8678	0.9977	0.305
Mof_H 	H 	0.9453	0.8619	0.9996	0.236
Mof_C 	C 	0.035	0.9226	0.0602	-0.058
Mof_H 	H 	0.045	0.9593	0.0626	-0.085
Mof_H 	H 	0.0568	0.9002	0.0713	0.039
Mof_H 	H 	0.998	0.9181	0.0651	0.049
Mof_S 	S 	0.7829	0.72882	0.04564	0.072
Mof_S 	S 	0.79087	0.85688	0.04517	-0.501
Mof_S 	S 	0.82112	0.86227	0.04648	0.441
Mof_S 	S 	0.83137	0.7393	0.04681	-0.026
Mof_O 	O 	0.6948	0.6605	0.0159	-0.302
Mof_O 	O 	0.7568	0.6606	0.9847	-0.558
Mof_C 	C 	0.7247	0.6816	0.0006	0.545
Mof_C 	C 	0.7271	0.74072	0.99972	-0.164
Mof_C 	C 	0.7534	0.7666	0.01978	0.105
Mof_C 	C 	0.75689	0.821	0.01957	0.038
Mof_C 	C 	0.734	0.84944	0.9993	-0.072
Mof_C 	C 	0.79229	0.8235	0.02076	0.072
Mof_C 	C 	0.79577	0.7692	0.02055	-0.065
Mof_C 	C 	0.7256	0.7154	0.0664	-0.408
Mof_H 	H 	0.7367	0.6963	0.0821	0.144
Mof_H 	H 	0.7003	0.6942	0.0565	0.16
Mof_H 	H 	0.7092	0.7486	0.0716	0.132
Mof_C 	C 	0.7386	0.8673	0.0691	-0.085
Mof_H 	H 	0.7088	0.8844	0.0605	-0.016
Mof_H 	H 	0.7515	0.8897	0.0834	-0.378
Mof_H 	H 	0.7275	0.8335	0.0763	0.029
Mof_C 	C 	0.7662	0.8603	0.069	-0.301
Mof_H 	H 	0.7334	0.8623	0.0591	0.241
Mof_H 	H 	0.7684	0.89	0.0812	0.498
Mof_H 	H 	0.7672	0.8275	0.079	0.107
Mof_C 	C 	0.8961	0.7515	0.0328	-0.323
Mof_H 	H 	0.9051	0.7886	0.0349	0.099
Mof_H 	H 	0.8958	0.7427	0.014	0.106
Mof_H 	H 	0.9222	0.7299	0.0418	0.1
Mof_O 	O 	0.6407	0.6435	0.0284	-0.683
Mof_H 	H 	0.611	0.646	0.021	0.277
Mof_H 	H 	0.64	0.672	0.037	0.296
Mof_O 	O 	0.7824	0.9294	0.98528	-0.504
Mof_O 	O 	0.7089	0.0753	0.94306	-0.469
Mof_O 	O 	0.7693	0.0112	0.9395	-0.493
Mof_S 	S 	0.79974	0.11471	0.8969	0.009
Mof_S 	S 	0.65167	0.96742	0.91663	-0.031
Mof_Zn	Zn	0.78979	0.0037	0.97611	1.211
Mof_Zn	Zn	0.69714	0.08832	0.98109	1.247
Mof_C 	C 	0.2349	0.5425	0.43068	0.384
Mof_C 	C 	0.2256	0.5383	0.4015	-0.099
Mof_C 	C 	0.2545	0.5686	0.38423	0.014
Mof_C 	C 	0.1885	0.503	0.39272	0.017
Mof_C 	C 	0.3588	0.5759	0.3947	-0.367
Mof_H 	H 	0.3533	0.5469	0.3824	0.131
Mof_H 	H 	0.3877	0.598	0.3885	0.114
Mof_H 	H 	0.3675	0.5619	0.4121	0.126
Mof_C 	C 	0.0945	0.5093	0.4176	-0.371
Mof_H 	H 	0.0825	0.5164	0.3997	0.129
Mof_H 	H 	0.0664	0.4918	0.4274	0.124
Mof_H 	H 	0.1034	0.5424	0.4263	0.147
Mof_S 	S 	0.40573	0.41169	0.52216	0.047
Mof_S 	S 	0.53063	0.38056	0.52525	0.149
Mof_S 	S 	0.418	0.43549	0.52275	0.118
Mof_S 	S 	0.54374	0.40451	0.52615	-0.074
Mof_O 	O 	0.3639	0.5392	0.5144	-0.247
Mof_O 	O 	0.3605	0.4982	0.47549	-0.043
Mof_O 	O 	0.3778	0.5629	0.5161	-0.357
Mof_O 	O 	0.3713	0.5214	0.4778	-0.386
Mof_C 	C 	0.3834	0.5153	0.4969	-0.255
Mof_C 	C 	0.4408	0.5012	0.49838	-0.616
Mof_C 	C 	0.4561	0.4541	0.50964	-0.148
Mof_C 	C 	0.5089	0.44106	0.51093	-0.431
Mof_C 	C 	0.4536	0.5248	0.49904	0.228
Mof_C 	C 	0.469	0.4776	0.5103	0.409
Mof_C 	C 	0.5218	0.46458	0.51159	0.248
Mof_C 	C 	0.396	0.5387	0.49772	0.769
Mof_C 	C 	0.396	0.3693	0.4944	0.069
Mof_H 	H 	0.3924	0.3904	0.4784	-0.007
Mof_H 	H 	0.4262	0.3458	0.4926	-0.015
Mof_H 	H 	0.3642	0.3485	0.497	-0.153
Mof_C 	C 	0.529	0.401	0.5594	-0.428
Mof_H 	H 	0.5509	0.4322	0.5616	0.229
Mof_H 	H 	0.4929	0.4091	0.5644	0.094
Mof_H 	H 	0.5424	0.3726	0.5705	0.112
Mof_C 	C 	0.4164	0.3867	0.4971	-0.695
Mof_H 	H 	0.4201	0.4038	0.4799	0.25
Mof_H 	H 	0.383	0.3678	0.4977	0.29
Mof_H 	H 	0.4453	0.3619	0.4996	0.226
Mof_C 	C 	0.535	0.4226	0.5602	-0.057
Mof_H 	H 	0.545	0.4593	0.5626	-0.081
Mof_H 	H 	0.5568	0.4002	0.5713	0.039
Mof_H 	H 	0.498	0.4181	0.5651	0.049
Mof_S 	S 	0.2829	0.22882	0.54564	0.07
Mof_S 	S 	0.29087	0.35688	0.54517	-0.491
Mof_S 	S 	0.32112	0.36227	0.54648	0.437
Mof_S 	S 	0.33137	0.2393	0.54681	-0.026
Mof_O 	O 	0.1948	0.1605	0.5159	-0.302
Mof_O 	O 	0.2568	0.1606	0.4847	-0.558
Mof_C 	C 	0.2247	0.1816	0.5006	0.542
Mof_C 	C 	0.2271	0.24072	0.49972	-0.159
Mof_C 	C 	0.2534	0.2666	0.51978	0.103
Mof_C 	C 	0.25689	0.321	0.51957	0.04
Mof_C 	C 	0.234	0.34944	0.4993	-0.073
Mof_C 	C 	0.29229	0.3235	0.52076	0.066
Mof_C 	C 	0.29577	0.2692	0.52055	-0.059
Mof_C 	C 	0.2256	0.2154	0.5664	-0.407
Mof_H 	H 	0.2367	0.1963	0.5821	0.144
Mof_H 	H 	0.2003	0.1942	0.5565	0.16
Mof_H 	H 	0.2092	0.2486	0.5716	0.132
Mof_C 	C 	0.2386	0.3673	0.5691	-0.088
Mof_H 	H 	0.2088	0.3844	0.5605	-0.016
Mof_H 	H 	0.2515	0.3897	0.5834	-0.376
Mof_H 	H 	0.2275	0.3335	0.5763	0.029
Mof_C 	C 	0.2662	0.3603	0.569	-0.306
Mof_H 	H 	0.2334	0.3623	0.5591	0.243
Mof_H 	H 	0.2684	0.39	0.5812	0.498
Mof_H 	H 	0.2672	0.3275	0.579	0.108
Mof_C 	C 	0.3961	0.2515	0.5328	-0.325
Mof_H 	H 	0.4051	0.2886	0.5349	0.101
Mof_H 	H 	0.3958	0.2427	0.514	0.107
Mof_H 	H 	0.4222	0.2299	0.5418	0.102
Mof_O 	O 	0.1407	0.1435	0.5284	-0.682
Mof_H 	H 	0.111	0.146	0.521	0.277
Mof_H 	H 	0.14	0.172	0.537	0.296
Mof_O 	O 	0.2824	0.4294	0.48528	-0.502
Mof_O 	O 	0.2089	0.5753	0.44306	-0.469
Mof_O 	O 	0.2693	0.5112	0.4395	-0.495
Mof_S 	S 	0.29974	0.61471	0.3969	0.01
Mof_S 	S 	0.15167	0.46742	0.41663	-0.012
Mof_Zn	Zn	0.28979	0.5037	0.47611	1.209
Mof_Zn	Zn	0.19714	0.58832	0.48109	1.247
Mof_C 	C 	0.7651	0.9575	0.43068	0.382
Mof_C 	C 	0.7744	0.9617	0.4015	-0.093
Mof_C 	C 	0.7455	0.9314	0.38423	0.01
Mof_C 	C 	0.8115	0.997	0.39272	-0.001
Mof_C 	C 	0.6412	0.9241	0.3947	-0.367
Mof_H 	H 	0.6467	0.9531	0.3824	0.129
Mof_H 	H 	0.6123	0.902	0.3885	0.114
Mof_H 	H 	0.6325	0.9381	0.4121	0.125
Mof_C 	C 	0.9055	0.9907	0.4176	-0.406
Mof_H 	H 	0.9175	0.9836	0.3997	0.136
Mof_H 	H 	0.9336	0.0082	0.4274	0.139
Mof_H 	H 	0.8966	0.9576	0.4263	0.156
Mof_S 	S 	0.59427	0.08831	0.52216	-0.004
Mof_S 	S 	0.46937	0.11944	0.52525	0.132
Mof_S 	S 	0.582	0.06451	0.52275	0.139
Mof_S 	S 	0.45626	0.09549	0.52615	-0.062
Mof_O 	O 	0.6361	0.9608	0.5144	-0.283
Mof_O 	O 	0.6395	0.0018	0.47549	-0.015
Mof_O 	O 	0.6222	0.9371	0.5161	-0.319
Mof_O 	O 	0.6287	0.9786	0.4778	-0.427
Mof_C 	C 	0.6166	0.9847	0.4969	-0.201
Mof_C 	C 	0.5592	0.9988	0.49838	-0.55
Mof_C 	C 	0.5439	0.0459	0.50964	-0.076
Mof_C 	C 	0.4911	0.05894	0.51093	-0.427
Mof_C 	C 	0.5464	0.9752	0.49904	0.17
Mof_C 	C 	0.531	0.0224	0.5103	0.316
Mof_C 	C 	0.4782	0.03542	0.51159	0.23
Mof_C 	C 	0.604	0.9613	0.49772	0.725
Mof_C 	C 	0.604	0.1307	0.4944	0.071
Mof_H 	H 	0.6076	0.1096	0.4784	-0.007
Mof_H 	H 	0.5738	0.1542	0.4926	-0.016
Mof_H 	H 	0.6358	0.1515	0.497	-0.144
Mof_C 	C 	0.471	0.099	0.5594	-0.424
Mof_H 	H 	0.4491	0.0678	0.5616	0.225
Mof_H 	H 	0.5071	0.0909	0.5644	0.093
Mof_H 	H 	0.4576	0.1274	0.5705	0.111
Mof_C 	C 	0.5836	0.1133	0.4971	-0.658
Mof_H 	H 	0.5799	0.0962	0.4799	0.235
Mof_H 	H 	0.617	0.1322	0.4977	0.275
Mof_H 	H 	0.5547	0.1381	0.4996	0.216
Mof_C 	C 	0.465	0.0774	0.5602	-0.055
Mof_H 	H 	0.455	0.0407	0.5626	-0.077
Mof_H 	H 	0.4432	0.0998	0.5713	0.039
Mof_H 	H 	0.502	0.0819	0.5651	0.049
Mof_S 	S 	0.7171	0.27118	0.54564	0.069
Mof_S 	S 	0.70913	0.14312	0.54517	-0.48
Mof_S 	S 	0.67888	0.13773	0.54648	0.431
Mof_S 	S 	0.66863	0.2607	0.54681	-0.025
Mof_O 	O 	0.8052	0.3395	0.5159	-0.302
Mof_O 	O 	0.7432	0.3394	0.4847	-0.558
Mof_C 	C 	0.7753	0.3184	0.5006	0.542
Mof_C 	C 	0.7729	0.25928	0.49972	-0.159
Mof_C 	C 	0.7466	0.2334	0.51978	0.103
Mof_C 	C 	0.74311	0.179	0.51957	0.038
Mof_C 	C 	0.766	0.15056	0.4993	-0.072
Mof_C 	C 	0.70771	0.1765	0.52076	0.064
Mof_C 	C 	0.70423	0.2308	0.52055	-0.059
Mof_C 	C 	0.7744	0.2846	0.5664	-0.406
Mof_H 	H 	0.7633	0.3037	0.5821	0.144
Mof_H 	H 	0.7997	0.3058	0.5565	0.16
Mof_H 	H 	0.7908	0.2514	0.5716	0.132
Mof_C 	C 	0.7614	0.1327	0.5691	-0.092
Mof_H 	H 	0.7912	0.1156	0.5605	-0.015
Mof_H 	H 	0.7485	0.1103	0.5834	-0.374
Mof_H 	H 	0.7725	0.1665	0.5763	0.03
Mof_C 	C 	0.7338	0.1397	0.569	-0.312
Mof_H 	H 	0.7666	0.1377	0.5591	0.246
Mof_H 	H 	0.7316	0.11	0.5812	0.499
Mof_H 	H 	0.7328	0.1725	0.579	0.11
Mof_C 	C 	0.6039	0.2485	0.5328	-0.327
Mof_H 	H 	0.5949	0.2114	0.5349	0.102
Mof_H 	H 	0.6042	0.2573	0.514	0.107
Mof_H 	H 	0.5778	0.2701	0.5418	0.102
Mof_O 	O 	0.8593	0.3565	0.5284	-0.683
Mof_H 	H 	0.889	0.354	0.521	0.277
Mof_H 	H 	0.86	0.328	0.537	0.296
Mof_O 	O 	0.7176	0.0706	0.48528	-0.501
Mof_O 	O 	0.7911	0.9247	0.44306	-0.469
Mof_O 	O 	0.7307	0.9888	0.4395	-0.497
Mof_S 	S 	0.70026	0.88529	0.3969	0.01
Mof_S 	S 	0.84833	0.03258	0.41663	0.006
Mof_Zn	Zn	0.71021	0.9963	0.47611	1.207
Mof_Zn	Zn	0.80286	0.91168	0.48109	1.248
Mof_C 	C 	0.2651	0.4575	0.93068	0.384
Mof_C 	C 	0.2744	0.4617	0.9015	-0.099
Mof_C 	C 	0.2455	0.4314	0.88423	0.014
Mof_C 	C 	0.3115	0.497	0.89272	0.017
Mof_C 	C 	0.1412	0.4241	0.8947	-0.367
Mof_H 	H 	0.1467	0.4531	0.8824	0.131
Mof_H 	H 	0.1123	0.402	0.8885	0.114
Mof_H 	H 	0.1325	0.4381	0.9121	0.126
Mof_C 	C 	0.4055	0.4907	0.9176	-0.371
Mof_H 	H 	0.4175	0.4836	0.8997	0.129
Mof_H 	H 	0.4336	0.5082	0.9274	0.124
Mof_H 	H 	0.3966	0.4576	0.9263	0.147
Mof_S 	S 	0.09427	0.58831	0.02216	0.045
Mof_S 	S 	0.96937	0.61944	0.02525	0.148
Mof_S 	S 	0.082	0.56451	0.02275	0.12
Mof_S 	S 	0.95626	0.59549	0.02615	-0.074
Mof_O 	O 	0.1361	0.4608	0.0144	-0.248
Mof_O 	O 	0.1395	0.5018	0.97549	-0.045
Mof_O 	O 	0.1222	0.4371	0.0161	-0.356
Mof_O 	O 	0.1287	0.4786	0.9778	-0.384
Mof_C 	C 	0.1166	0.4847	0.9969	-0.254
Mof_C 	C 	0.0592	0.4988	0.99838	-0.613
Mof_C 	C 	0.0439	0.5459	0.00964	-0.145
Mof_C 	C 	0.9911	0.55894	0.01093	-0.432
Mof_C 	C 	0.0464	0.4752	0.99904	0.225
Mof_C 	C 	0.031	0.5224	0.0103	0.406
Mof_C 	C 	0.9782	0.53542	0.01159	0.249
Mof_C 	C 	0.104	0.4613	0.99772	0.767
Mof_C 	C 	0.104	0.6307	0.9944	0.069
Mof_H 	H 	0.1076	0.6096	0.9784	-0.007
Mof_H 	H 	0.0738	0.6542	0.9926	-0.015
Mof_H 	H 	0.1358	0.6515	0.997	-0.153
Mof_C 	C 	0.971	0.599	0.0594	-0.428
Mof_H 	H 	0.9491	0.5678	0.0616	0.229
Mof_H 	H 	0.0071	0.5909	0.0644	0.094
Mof_H 	H 	0.9576	0.6274	0.0705	0.112
Mof_C 	C 	0.0836	0.6133	0.9971	-0.695
Mof_H 	H 	0.0799	0.5962	0.9799	0.25
Mof_H 	H 	0.117	0.6322	0.9977	0.29
Mof_H 	H 	0.0547	0.6381	0.9996	0.226
Mof_C 	C 	0.965	0.5774	0.0602	-0.057
Mof_H 	H 	0.955	0.5407	0.0626	-0.081
Mof_H 	H 	0.9432	0.5998	0.0713	0.039
Mof_H 	H 	0.002	0.5819	0.0651	0.049
Mof_S 	S 	0.2171	0.77118	0.04564	0.07
Mof_S 	S 	0.20913	0.64312	0.04517	-0.49
Mof_S 	S 	0.17888	0.63773	0.04648	0.435
Mof_S 	S 	0.16863	0.7607	0.04681	-0.025
Mof_O 	O 	0.3052	0.8395	0.0159	-0.302
Mof_O 	O 	0.2432	0.8394	0.9847	-0.558
Mof_C 	C 	0.2753	0.8184	0.0006	0.545
Mof_C 	C 	0.2729	0.75928	0.99972	-0.164
Mof_C 	C 	0.2466	0.7334	0.01978	0.106
Mof_C 	C 	0.24311	0.679	0.01957	0.037
Mof_C 	C 	0.266	0.65056	0.9993	-0.071
Mof_C 	C 	0.20771	0.6765	0.02076	0.07
Mof_C 	C 	0.20423	0.7308	0.02055	-0.064
Mof_C 	C 	0.2744	0.7846	0.0664	-0.407
Mof_H 	H 	0.2633	0.8037	0.0821	0.144
Mof_H 	H 	0.2997	0.8058	0.0565	0.16
Mof_H 	H 	0.2908	0.7514	0.0716	0.132
Mof_C 	C 	0.2614	0.6327	0.0691	-0.089
Mof_H 	H 	0.2912	0.6156	0.0605	-0.016
Mof_H 	H 	0.2485	0.6103	0.0834	-0.376
Mof_H 	H 	0.2725	0.6665	0.0763	0.029
Mof_C 	C 	0.2338	0.6397	0.069	-0.306
Mof_H 	H 	0.2666	0.6377	0.0591	0.243
Mof_H 	H 	0.2316	0.61	0.0812	0.499
Mof_H 	H 	0.2328	0.6725	0.079	0.108
Mof_C 	C 	0.1039	0.7485	0.0328	-0.325
Mof_H 	H 	0.0949	0.7114	0.0349	0.101
Mof_H 	H 	0.1042	0.7573	0.014	0.107
Mof_H 	H 	0.0778	0.7701	0.0418	0.101
Mof_O 	O 	0.3593	0.8565	0.0284	-0.685
Mof_H 	H 	0.389	0.854	0.021	0.277
Mof_H 	H 	0.36	0.828	0.037	0.296
Mof_O 	O 	0.2176	0.5706	0.98528	-0.503
Mof_O 	O 	0.2911	0.4247	0.94306	-0.469
Mof_O 	O 	0.2307	0.4888	0.9395	-0.495
Mof_S 	S 	0.20026	0.38529	0.8969	0.01
Mof_S 	S 	0.34833	0.53258	0.91663	-0.012
Mof_Zn	Zn	0.21021	0.4963	0.97611	1.209
Mof_Zn	Zn	0.30286	0.41168	0.98109	1.247
Mof_C 	C 	0.7925	0.0151	0.18068	0.389
Mof_C 	C 	0.7883	0.0244	0.1515	-0.088
Mof_C 	C 	0.8186	0.9955	0.13423	-0.004
Mof_C 	C 	0.753	0.0615	0.14272	0.013
Mof_C 	C 	0.8259	0.8912	0.1447	-0.368
Mof_H 	H 	0.7969	0.8967	0.1324	0.131
Mof_H 	H 	0.848	0.8623	0.1385	0.114
Mof_H 	H 	0.8119	0.8825	0.1621	0.126
Mof_C 	C 	0.7593	0.1555	0.1676	-0.373
Mof_H 	H 	0.7664	0.1675	0.1497	0.129
Mof_H 	H 	0.7418	0.1836	0.1774	0.124
Mof_H 	H 	0.7924	0.1466	0.1763	0.147
Mof_S 	S 	0.66169	0.84427	0.27216	0.048
Mof_S 	S 	0.63056	0.71937	0.27525	0.149
Mof_S 	S 	0.68549	0.832	0.27275	0.115
Mof_S 	S 	0.65451	0.70626	0.27615	-0.075
Mof_O 	O 	0.7892	0.8861	0.2644	-0.248
Mof_O 	O 	0.7482	0.8895	0.22549	-0.042
Mof_O 	O 	0.8129	0.8722	0.2661	-0.357
Mof_O 	O 	0.7714	0.8787	0.2278	-0.387
Mof_C 	C 	0.7653	0.8666	0.2469	-0.256
Mof_C 	C 	0.7512	0.8092	0.24838	-0.617
Mof_C 	C 	0.7041	0.7939	0.25964	-0.148
Mof_C 	C 	0.69106	0.7411	0.26093	-0.429
Mof_C 	C 	0.7748	0.7964	0.24904	0.228
Mof_C 	C 	0.7276	0.781	0.2603	0.41
Mof_C 	C 	0.71458	0.7282	0.26159	0.247
Mof_C 	C 	0.7887	0.854	0.24772	0.771
Mof_C 	C 	0.6193	0.854	0.2444	0.069
Mof_H 	H 	0.6404	0.8576	0.2284	-0.007
Mof_H 	H 	0.5958	0.8238	0.2426	-0.015
Mof_H 	H 	0.5985	0.8858	0.247	-0.151
Mof_C 	C 	0.651	0.721	0.3094	-0.427
Mof_H 	H 	0.6822	0.6991	0.3116	0.229
Mof_H 	H 	0.6591	0.7571	0.3144	0.094
Mof_H 	H 	0.6226	0.7076	0.3205	0.112
Mof_C 	C 	0.6367	0.8336	0.2471	-0.694
Mof_H 	H 	0.6538	0.8299	0.2299	0.25
Mof_H 	H 	0.6178	0.867	0.2477	0.289
Mof_H 	H 	0.6119	0.8047	0.2496	0.226
Mof_C 	C 	0.6726	0.715	0.3102	-0.056
Mof_H 	H 	0.7093	0.705	0.3126	-0.081
Mof_H 	H 	0.6502	0.6932	0.3213	0.039
Mof_H 	H 	0.6681	0.752	0.3151	0.049
Mof_S 	S 	0.47882	0.9671	0.29564	0.067
Mof_S 	S 	0.60688	0.95913	0.29517	-0.492
Mof_S 	S 	0.61227	0.92888	0.29648	0.451
Mof_S 	S 	0.4893	0.91863	0.29681	-0.039
Mof_O 	O 	0.4105	0.0552	0.2659	-0.299
Mof_O 	O 	0.4106	0.9932	0.2347	-0.564
Mof_C 	C 	0.4316	0.0253	0.2506	0.53
Mof_C 	C 	0.49072	0.0229	0.24972	-0.108
Mof_C 	C 	0.5166	0.9966	0.26978	0.049
Mof_C 	C 	0.571	0.99311	0.26957	0.098
Mof_C 	C 	0.59944	0.016	0.2493	-0.134
Mof_C 	C 	0.5735	0.95771	0.27076	-0.012
Mof_C 	C 	0.5192	0.95423	0.27055	0.004
Mof_C 	C 	0.4654	0.0244	0.3164	-0.399
Mof_H 	H 	0.4463	0.0133	0.3321	0.144
Mof_H 	H 	0.4442	0.0497	0.3065	0.159
Mof_H 	H 	0.4986	0.0408	0.3216	0.131
Mof_C 	C 	0.6173	0.0114	0.3191	-0.108
Mof_H 	H 	0.6344	0.0412	0.3105	-0.015
Mof_H 	H 	0.6397	0.9985	0.3334	-0.374
Mof_H 	H 	0.5835	0.0225	0.3263	0.037
Mof_C 	C 	0.6103	0.9838	0.319	-0.315
Mof_H 	H 	0.6123	0.0166	0.3091	0.26
Mof_H 	H 	0.64	0.9816	0.3312	0.5
Mof_H 	H 	0.5775	0.9828	0.329	0.108
Mof_C 	C 	0.5015	0.8539	0.2828	-0.318
Mof_H 	H 	0.5386	0.8449	0.2849	0.099
Mof_H 	H 	0.4927	0.8542	0.264	0.104
Mof_H 	H 	0.4799	0.8278	0.2918	0.099
Mof_O 	O 	0.3935	0.1093	0.2784	-0.684
Mof_H 	H 	0.396	0.139	0.271	0.277
Mof_H 	H 	0.422	0.11	0.287	0.296
Mof_O 	O 	0.6794	0.9676	0.23528	-0.511
Mof_O 	O 	0.8253	0.0411	0.19306	-0.469
Mof_O 	O 	0.7612	0.9807	0.1895	-0.501
Mof_S 	S 	0.86471	0.95026	0.1469	0.01
Mof_S 	S 	0.71742	0.09833	0.16663	-0.009
Mof_Zn	Zn	0.7537	0.96021	0.22611	1.208
Mof_Zn	Zn	0.83832	0.05286	0.23109	1.248
Mof_C 	C 	0.2925	0.5151	0.68068	0.384
Mof_C 	C 	0.2883	0.5244	0.6515	-0.099
Mof_C 	C 	0.3186	0.4955	0.63423	0.014
Mof_C 	C 	0.253	0.5615	0.64272	0.017
Mof_C 	C 	0.3259	0.3912	0.6447	-0.367
Mof_H 	H 	0.2969	0.3967	0.6324	0.131
Mof_H 	H 	0.348	0.3623	0.6385	0.114
Mof_H 	H 	0.3119	0.3825	0.6621	0.126
Mof_C 	C 	0.2593	0.6555	0.6676	-0.371
Mof_H 	H 	0.2664	0.6675	0.6497	0.129
Mof_H 	H 	0.2418	0.6836	0.6774	0.124
Mof_H 	H 	0.2924	0.6466	0.6763	0.147
Mof_S 	S 	0.16169	0.34427	0.77216	0.048
Mof_S 	S 	0.13056	0.21937	0.77525	0.15
Mof_S 	S 	0.18549	0.332	0.77275	0.117
Mof_S 	S 	0.15451	0.20626	0.77615	-0.075
Mof_O 	O 	0.2892	0.3861	0.7644	-0.246
Mof_O 	O 	0.2482	0.3895	0.72549	-0.042
Mof_O 	O 	0.3129	0.3722	0.7661	-0.359
Mof_O 	O 	0.2714	0.3787	0.7278	-0.387
Mof_C 	C 	0.2653	0.3666	0.7469	-0.256
Mof_C 	C 	0.2512	0.3092	0.74838	-0.621
Mof_C 	C 	0.2041	0.2939	0.75964	-0.149
Mof_C 	C 	0.19106	0.2411	0.76093	-0.432
Mof_C 	C 	0.2748	0.2964	0.74904	0.23
Mof_C 	C 	0.2276	0.281	0.7603	0.412
Mof_C 	C 	0.21458	0.2282	0.76159	0.249
Mof_C 	C 	0.2887	0.354	0.74772	0.772
Mof_C 	C 	0.1193	0.354	0.7444	0.069
Mof_H 	H 	0.1404	0.3576	0.7284	-0.007
Mof_H 	H 	0.0958	0.3238	0.7426	-0.015
Mof_H 	H 	0.0985	0.3858	0.747	-0.153
Mof_C 	C 	0.151	0.221	0.8094	-0.428
Mof_H 	H 	0.1822	0.1991	0.8116	0.23
Mof_H 	H 	0.1591	0.2571	0.8144	0.094
Mof_H 	H 	0.1226	0.2076	0.8205	0.112
Mof_C 	C 	0.1367	0.3336	0.7471	-0.696
Mof_H 	H 	0.1538	0.3299	0.7299	0.25
Mof_H 	H 	0.1178	0.367	0.7477	0.29
Mof_H 	H 	0.1119	0.3047	0.7496	0.227
Mof_C 	C 	0.1726	0.215	0.8102	-0.057
Mof_H 	H 	0.2093	0.205	0.8126	-0.081
Mof_H 	H 	0.1502	0.1932	0.8213	0.04
Mof_H 	H 	0.1681	0.252	0.8151	0.049
Mof_S 	S 	0.97882	0.4671	0.79564	0.071
Mof_S 	S 	0.10688	0.45913	0.79517	-0.491
Mof_S 	S 	0.11227	0.42888	0.79648	0.437
Mof_S 	S 	0.9893	0.41863	0.79681	-0.026
Mof_O 	O 	0.9105	0.5552	0.7659	-0.301
Mof_O 	O 	0.9106	0.4932	0.7347	-0.558
Mof_C 	C 	0.9316	0.5253	0.7506	0.542
Mof_C 	C 	0.99072	0.5229	0.74972	-0.159
Mof_C 	C 	0.0166	0.4966	0.76978	0.102
Mof_C 	C 	0.071	0.49311	0.76957	0.04
Mof_C 	C 	0.09944	0.516	0.7493	-0.073
Mof_C 	C 	0.0735	0.45771	0.77076	0.066
Mof_C 	C 	0.0192	0.45423	0.77055	-0.059
Mof_C 	C 	0.9654	0.5244	0.8164	-0.407
Mof_H 	H 	0.9463	0.5133	0.8321	0.144
Mof_H 	H 	0.9442	0.5497	0.8065	0.16
Mof_H 	H 	0.9986	0.5408	0.8216	0.132
Mof_C 	C 	0.1173	0.5114	0.8191	-0.088
Mof_H 	H 	0.1344	0.5412	0.8105	-0.016
Mof_H 	H 	0.1397	0.4985	0.8334	-0.376
Mof_H 	H 	0.0835	0.5225	0.8263	0.029
Mof_C 	C 	0.1103	0.4838	0.819	-0.306
Mof_H 	H 	0.1123	0.5166	0.8091	0.243
Mof_H 	H 	0.14	0.4816	0.8312	0.498
Mof_H 	H 	0.0775	0.4828	0.829	0.108
Mof_C 	C 	0.0015	0.3539	0.7828	-0.324
Mof_H 	H 	0.0386	0.3449	0.7849	0.1
Mof_H 	H 	0.9927	0.3542	0.764	0.107
Mof_H 	H 	0.9799	0.3278	0.7918	0.101
Mof_O 	O 	0.8935	0.6093	0.7784	-0.683
Mof_H 	H 	0.896	0.639	0.771	0.277
Mof_H 	H 	0.922	0.61	0.787	0.296
Mof_O 	O 	0.1794	0.4676	0.73528	-0.503
Mof_O 	O 	0.3253	0.5411	0.69306	-0.469
Mof_O 	O 	0.2612	0.4807	0.6895	-0.495
Mof_S 	S 	0.36471	0.45026	0.6469	0.01
Mof_S 	S 	0.21742	0.59833	0.66663	-0.012
Mof_Zn	Zn	0.2537	0.46021	0.72611	1.209
Mof_Zn	Zn	0.33832	0.55286	0.73109	1.247
Mof_C 	C 	0.7075	0.9849	0.68068	0.379
Mof_C 	C 	0.7117	0.9756	0.6515	-0.11
Mof_C 	C 	0.6814	0.0045	0.63423	0.032
Mof_C 	C 	0.747	0.9385	0.64272	0.021
Mof_C 	C 	0.6741	0.1088	0.6447	-0.367
Mof_H 	H 	0.7031	0.1033	0.6324	0.131
Mof_H 	H 	0.652	0.1377	0.6385	0.114
Mof_H 	H 	0.6881	0.1175	0.6621	0.126
Mof_C 	C 	0.7407	0.8445	0.6676	-0.37
Mof_H 	H 	0.7336	0.8325	0.6497	0.128
Mof_H 	H 	0.7582	0.8164	0.6774	0.123
Mof_H 	H 	0.7076	0.8534	0.6763	0.147
Mof_S 	S 	0.83831	0.15573	0.77216	0.046
Mof_S 	S 	0.86944	0.28063	0.77525	0.149
Mof_S 	S 	0.81451	0.168	0.77275	0.12
Mof_S 	S 	0.84549	0.29374	0.77615	-0.074
Mof_O 	O 	0.7108	0.1139	0.7644	-0.247
Mof_O 	O 	0.7518	0.1105	0.72549	-0.043
Mof_O 	O 	0.6871	0.1278	0.7661	-0.357
Mof_O 	O 	0.7286	0.1213	0.7278	-0.386
Mof_C 	C 	0.7347	0.1334	0.7469	-0.255
Mof_C 	C 	0.7488	0.1908	0.74838	-0.616
Mof_C 	C 	0.7959	0.2061	0.75964	-0.147
Mof_C 	C 	0.80894	0.2589	0.76093	-0.434
Mof_C 	C 	0.7252	0.2036	0.74904	0.227
Mof_C 	C 	0.7724	0.219	0.7603	0.409
Mof_C 	C 	0.78542	0.2718	0.76159	0.25
Mof_C 	C 	0.7113	0.146	0.74772	0.769
Mof_C 	C 	0.8807	0.146	0.7444	0.069
Mof_H 	H 	0.8596	0.1424	0.7284	-0.007
Mof_H 	H 	0.9042	0.1762	0.7426	-0.015
Mof_H 	H 	0.9015	0.1142	0.747	-0.153
Mof_C 	C 	0.849	0.279	0.8094	-0.428
Mof_H 	H 	0.8178	0.3009	0.8116	0.229
Mof_H 	H 	0.8409	0.2429	0.8144	0.094
Mof_H 	H 	0.8774	0.2924	0.8205	0.112
Mof_C 	C 	0.8633	0.1664	0.7471	-0.696
Mof_H 	H 	0.8462	0.1701	0.7299	0.25
Mof_H 	H 	0.8822	0.133	0.7477	0.291
Mof_H 	H 	0.8881	0.1953	0.7496	0.227
Mof_C 	C 	0.8274	0.285	0.8102	-0.057
Mof_H 	H 	0.7907	0.295	0.8126	-0.081
Mof_H 	H 	0.8498	0.3068	0.8213	0.039
Mof_H 	H 	0.8319	0.248	0.8151	0.049
Mof_S 	S 	0.02118	0.0329	0.79564	0.076
Mof_S 	S 	0.89312	0.04087	0.79517	-0.486
Mof_S 	S 	0.88773	0.07112	0.79648	0.42
Mof_S 	S 	0.0107	0.08137	0.79681	-0.016
Mof_O 	O 	0.0895	0.9448	0.7659	-0.304
Mof_O 	O 	0.0894	0.0068	0.7347	-0.552
Mof_C 	C 	0.0684	0.9747	0.7506	0.552
Mof_C 	C 	0.00928	0.9771	0.74972	-0.206
Mof_C 	C 	0.9834	0.0034	0.76978	0.146
Mof_C 	C 	0.929	0.00689	0.76957	-0.004
Mof_C 	C 	0.90056	0.984	0.7493	-0.021
Mof_C 	C 	0.9265	0.04229	0.77076	0.134
Mof_C 	C 	0.9808	0.04577	0.77055	-0.117
Mof_C 	C 	0.0346	0.9756	0.8164	-0.416
Mof_H 	H 	0.0537	0.9867	0.8321	0.144
Mof_H 	H 	0.0558	0.9503	0.8065	0.162
Mof_H 	H 	0.0014	0.9592	0.8216	0.133
Mof_C 	C 	0.8827	0.9886	0.8191	-0.071
Mof_H 	H 	0.8656	0.9588	0.8105	-0.016
Mof_H 	H 	0.8603	0.0015	0.8334	-0.378
Mof_H 	H 	0.9165	0.9775	0.8263	0.022
Mof_C 	C 	0.8897	0.0162	0.819	-0.299
Mof_H 	H 	0.8877	0.9834	0.8091	0.227
Mof_H 	H 	0.86	0.0184	0.8312	0.497
Mof_H 	H 	0.9225	0.0172	0.829	0.109
Mof_C 	C 	0.9985	0.1461	0.7828	-0.329
Mof_H 	H 	0.9614	0.1551	0.7849	0.102
Mof_H 	H 	0.0073	0.1458	0.764	0.108
Mof_H 	H 	0.0201	0.1722	0.7918	0.102
Mof_O 	O 	0.1065	0.8907	0.7784	-0.683
Mof_H 	H 	0.104	0.861	0.771	0.277
Mof_H 	H 	0.078	0.89	0.787	0.296
Mof_O 	O 	0.8206	0.0324	0.73528	-0.504
Mof_O 	O 	0.6747	0.9589	0.69306	-0.47
Mof_O 	O 	0.7388	0.0193	0.6895	-0.489
Mof_S 	S 	0.63529	0.04974	0.6469	0.009
Mof_S 	S 	0.78258	0.90167	0.66663	-0.015
Mof_Zn	Zn	0.7463	0.03979	0.72611	1.209
Mof_Zn	Zn	0.66168	0.94714	0.73109	1.246
Mof_C 	C 	0.2075	0.4849	0.18068	0.384
Mof_C 	C 	0.2117	0.4756	0.1515	-0.099
Mof_C 	C 	0.1814	0.5045	0.13423	0.014
Mof_C 	C 	0.247	0.4385	0.14272	0.017
Mof_C 	C 	0.1741	0.6088	0.1447	-0.367
Mof_H 	H 	0.2031	0.6033	0.1324	0.131
Mof_H 	H 	0.152	0.6377	0.1385	0.114
Mof_H 	H 	0.1881	0.6175	0.1621	0.126
Mof_C 	C 	0.2407	0.3445	0.1676	-0.372
Mof_H 	H 	0.2336	0.3325	0.1497	0.129
Mof_H 	H 	0.2582	0.3164	0.1774	0.124
Mof_H 	H 	0.2076	0.3534	0.1763	0.147
Mof_S 	S 	0.33831	0.65573	0.27216	0.046
Mof_S 	S 	0.36944	0.78063	0.27525	0.148
Mof_S 	S 	0.31451	0.668	0.27275	0.118
Mof_S 	S 	0.34549	0.79374	0.27615	-0.073
Mof_O 	O 	0.2108	0.6139	0.2644	-0.248
Mof_O 	O 	0.2518	0.6105	0.22549	-0.044
Mof_O 	O 	0.1871	0.6278	0.2661	-0.356
Mof_O 	O 	0.2286	0.6213	0.2278	-0.385
Mof_C 	C 	0.2347	0.6334	0.2469	-0.254
Mof_C 	C 	0.2488	0.6908	0.24838	-0.613
Mof_C 	C 	0.2959	0.7061	0.25964	-0.147
Mof_C 	C 	0.30894	0.7589	0.26093	-0.43
Mof_C 	C 	0.2252	0.7036	0.24904	0.226
Mof_C 	C 	0.2724	0.719	0.2603	0.407
Mof_C 	C 	0.28542	0.7718	0.26159	0.248
Mof_C 	C 	0.2113	0.646	0.24772	0.768
Mof_C 	C 	0.3807	0.646	0.2444	0.069
Mof_H 	H 	0.3596	0.6424	0.2284	-0.007
Mof_H 	H 	0.4042	0.6762	0.2426	-0.015
Mof_H 	H 	0.4015	0.6142	0.247	-0.153
Mof_C 	C 	0.349	0.779	0.3094	-0.427
Mof_H 	H 	0.3178	0.8009	0.3116	0.229
Mof_H 	H 	0.3409	0.7429	0.3144	0.094
Mof_H 	H 	0.3774	0.7924	0.3205	0.112
Mof_C 	C 	0.3633	0.6664	0.2471	-0.694
Mof_H 	H 	0.3462	0.6701	0.2299	0.25
Mof_H 	H 	0.3822	0.633	0.2477	0.29
Mof_H 	H 	0.3881	0.6953	0.2496	0.226
Mof_C 	C 	0.3274	0.785	0.3102	-0.056
Mof_H 	H 	0.2907	0.795	0.3126	-0.081
Mof_H 	H 	0.3498	0.8068	0.3213	0.039
Mof_H 	H 	0.3319	0.748	0.3151	0.049
Mof_S 	S 	0.52118	0.5329	0.29564	0.071
Mof_S 	S 	0.39312	0.54087	0.29517	-0.491
Mof_S 	S 	0.38773	0.57112	0.29648	0.437
Mof_S 	S 	0.5107	0.58137	0.29681	-0.026
Mof_O 	O 	0.5895	0.4448	0.2659	-0.301
Mof_O 	O 	0.5894	0.5068	0.2347	-0.558
Mof_C 	C 	0.5684	0.4747	0.2506	0.542
Mof_C 	C 	0.50928	0.4771	0.24972	-0.159
Mof_C 	C 	0.4834	0.5034	0.26978	0.102
Mof_C 	C 	0.429	0.50689	0.26957	0.04
Mof_C 	C 	0.40056	0.484	0.2493	-0.073
Mof_C 	C 	0.4265	0.54229	0.27076	0.066
Mof_C 	C 	0.4808	0.54577	0.27055	-0.059
Mof_C 	C 	0.5346	0.4756	0.3164	-0.407
Mof_H 	H 	0.5537	0.4867	0.3321	0.144
Mof_H 	H 	0.5558	0.4503	0.3065	0.16
Mof_H 	H 	0.5014	0.4592	0.3216	0.132
Mof_C 	C 	0.3827	0.4886	0.3191	-0.088
Mof_H 	H 	0.3656	0.4588	0.3105	-0.016
Mof_H 	H 	0.3603	0.5015	0.3334	-0.376
Mof_H 	H 	0.4165	0.4775	0.3263	0.029
Mof_C 	C 	0.3897	0.5162	0.319	-0.306
Mof_H 	H 	0.3877	0.4834	0.3091	0.243
Mof_H 	H 	0.36	0.5184	0.3312	0.498
Mof_H 	H 	0.4225	0.5172	0.329	0.108
Mof_C 	C 	0.4985	0.6461	0.2828	-0.324
Mof_H 	H 	0.4614	0.6551	0.2849	0.1
Mof_H 	H 	0.5073	0.6458	0.264	0.107
Mof_H 	H 	0.5201	0.6722	0.2918	0.101
Mof_O 	O 	0.6065	0.3907	0.2784	-0.683
Mof_H 	H 	0.604	0.361	0.271	0.277
Mof_H 	H 	0.578	0.39	0.287	0.296
Mof_O 	O 	0.3206	0.5324	0.23528	-0.502
Mof_O 	O 	0.1747	0.4589	0.19306	-0.469
Mof_O 	O 	0.2388	0.5193	0.1895	-0.495
Mof_S 	S 	0.13529	0.54974	0.1469	0.01
Mof_S 	S 	0.28258	0.40167	0.16663	-0.012
Mof_Zn	Zn	0.2463	0.53979	0.22611	1.209
Mof_Zn	Zn	0.16168	0.44714	0.23109	1.247
Mof_C 	C 	0.25	0.0929	-0	0.423
Mof_O 	O 	0.25	0.9538	-0	-0.931
Mof_C 	C 	0.75	0.5929	0.5	0.423
Mof_O 	O 	0.75	0.4538	0.5	-0.931
Mof_C 	C 	0.25	0.9071	0.5	0.423
Mof_O 	O 	0.25	0.0462	0.5	-0.931
Mof_C 	C 	0.75	0.4071	-0	0.424
Mof_O 	O 	0.75	0.5462	-0	-0.931
Mof_C 	C 	0.1571	-6.09125e-33	0.25	0.435
Mof_O 	O 	0.2962	-6.09125e-33	0.25	-0.927
Mof_C 	C 	0.6571	0.5	0.75	0.422
Mof_O 	O 	0.7962	0.5	0.75	-0.931
Mof_C 	C 	0.3429	0	0.75	0.435
Mof_O 	O 	0.2038	0	0.75	-0.927
Mof_C 	C 	0.8429	0.5	0.25	0.422
Mof_O 	O 	0.7038	0.5	0.25	-0.931
Mof_C 	C 	0.75	0.9071	-0	0.424
Mof_O 	O 	0.75	0.0462	-0	-0.931
Mof_C 	C 	0.25	0.4071	0.5	0.422
Mof_O 	O 	0.25	0.5462	0.5	-0.931
Mof_C 	C 	0.75	0.0929	0.5	0.422
Mof_O 	O 	0.75	0.9538	0.5	-0.932
Mof_C 	C 	0.25	0.5929	-0	0.424
Mof_O 	O 	0.25	0.4538	-0	-0.931
Mof_C 	C 	0.8429	0	0.75	0.435
Mof_O 	O 	0.7038	0	0.75	-0.927
Mof_C 	C 	0.3429	0.5	0.25	0.422
Mof_O 	O 	0.2038	0.5	0.25	-0.931
Mof_C 	C 	0.6571	-6.09125e-33	0.25	0.435
Mof_O 	O 	0.7962	-6.09125e-33	0.25	-0.927
Mof_C 	C 	0.1571	0.5	0.75	0.422
Mof_O 	O 	0.2962	0.5	0.75	-0.931
_end
