data_functionalizedCrystal
_audit_creation_method	'EQeq! by Chris Wilmer'
_symmetry_space_group_name_H-M	'P1'
_symmetry_Int_Tables_number	1
_symmetry_cell_setting	triclinic
loop_
_symmetry_equiv_pos_as_xyz
  x,y,z
_cell_length_a	9.239
_cell_length_b	9.79
_cell_length_c	10.709
_cell_angle_alpha	68.04
_cell_angle_beta	84.49
_cell_angle_gamma	62.01
loop_
_atom_site_label
_atom_site_type_symbol
_atom_site_fract_x
_atom_site_fract_y
_atom_site_fract_z
_atom_site_charge
Mof_La	La	0.7753	0.4562	0.0159	1.936
Mof_La	La	0.2247	0.5438	0.9841	1.936
Mof_H 	H 	0.113	0.268	0.436	0.123
Mof_H 	H 	0.17	0.402	0.348	0.131
Mof_H 	H 	0.867	0.483	0.468	0.027
Mof_H 	H 	0.915	0.619	0.371	0.017
Mof_H 	H 	0.361	0.619	0.374	0.144
Mof_H 	H 	0.538	0.473	0.374	0.137
Mof_H 	H 	0.634	0.661	0.248	0.008
Mof_H 	H 	0.577	0.687	0.386	0.003
Mof_H 	H 	0.381	0.898	0.128	0.021
Mof_H 	H 	0.325	0.924	0.263	0.013
Mof_H 	H 	0.567	0.958	0.276	0.12
Mof_H 	H 	0.598	0.957	0.125	0.113
Mof_H 	H 	0.887	0.732	0.564	0.123
Mof_H 	H 	0.83	0.598	0.652	0.131
Mof_H 	H 	0.133	0.517	0.532	0.027
Mof_H 	H 	0.085	0.381	0.629	0.017
Mof_H 	H 	0.639	0.381	0.626	0.144
Mof_H 	H 	0.462	0.527	0.626	0.137
Mof_H 	H 	0.366	0.339	0.752	0.008
Mof_H 	H 	0.423	0.313	0.614	0.003
Mof_H 	H 	0.619	0.102	0.872	0.021
Mof_H 	H 	0.675	0.076	0.737	0.013
Mof_H 	H 	0.433	0.042	0.724	0.12
Mof_H 	H 	0.402	0.043	0.875	0.113
Mof_C 	C 	0.9867	0.4053	0.252	0.436
Mof_C 	C 	0.0746	0.3837	0.3748	-0.36
Mof_C 	C 	0.9576	0.5052	0.4398	-0.007
Mof_C 	C 	0.4002	0.588	0.1948	0.492
Mof_C 	C 	0.4564	0.5886	0.3219	-0.412
Mof_C 	C 	0.537	0.7006	0.295	0.036
Mof_C 	C 	0.4228	0.8839	0.2152	-0.017
Mof_C 	C 	0.5146	0.9852	0.1905	-0.331
Mof_C 	C 	0.4074	0.1712	0.125	0.376
Mof_C 	C 	0.0133	0.5947	0.748	0.436
Mof_C 	C 	0.9254	0.6163	0.6252	-0.36
Mof_C 	C 	0.0424	0.4948	0.5602	-0.007
Mof_C 	C 	0.5998	0.412	0.8052	0.492
Mof_C 	C 	0.5436	0.4114	0.6781	-0.412
Mof_C 	C 	0.463	0.2994	0.705	0.036
Mof_C 	C 	0.5772	0.1161	0.7848	-0.017
Mof_C 	C 	0.4854	0.0148	0.8095	-0.331
Mof_C 	C 	0.5926	0.8288	0.875	0.376
Mof_O 	O 	0.022	0.4682	0.1346	-0.567
Mof_O 	O 	0.8725	0.3658	0.2663	-0.485
Mof_O 	O 	0.501	0.551	0.1102	-0.566
Mof_O 	O 	0.422	0.2656	0.173	-0.441
Mof_O 	O 	0.2524	0.622	0.1768	-0.517
Mof_O 	O 	0.3085	0.2329	0.0227	-0.43
Mof_O 	O 	0.978	0.5318	0.8654	-0.567
Mof_O 	O 	0.1275	0.6342	0.7337	-0.485
Mof_O 	O 	0.499	0.449	0.8898	-0.566
Mof_O 	O 	0.578	0.7344	0.827	-0.441
Mof_O 	O 	0.7476	0.378	0.8232	-0.517
Mof_O 	O 	0.6915	0.7671	0.9773	-0.43
_end
