data_functionalizedCrystal
_audit_creation_method	'EQeq! by Chris Wilmer'
_symmetry_space_group_name_H-M	'P1'
_symmetry_Int_Tables_number	1
_symmetry_cell_setting	triclinic
loop_
_symmetry_equiv_pos_as_xyz
  x,y,z
_cell_length_a	9.8791
_cell_length_b	17.4938
_cell_length_c	18.1814
_cell_angle_alpha	92.2543
_cell_angle_beta	90
_cell_angle_gamma	106.401
loop_
_atom_site_label
_atom_site_type_symbol
_atom_site_fract_x
_atom_site_fract_y
_atom_site_fract_z
_atom_site_charge
Mof_Zn	Zn	0.14999	0.69354	0.00347	1.219
Mof_Zn	Zn	0.45645	0.30646	0.49653	1.231
Mof_Zn	Zn	0.85001	0.30646	0.99653	1.241
Mof_Zn	Zn	0.54355	0.69354	0.50347	1.231
Mof_Zn	Zn	-0	0.5	-0	1.214
Mof_Zn	Zn	0.5	0.5	0.5	1.235
Mof_H 	H 	0.5877	0.9318	0.0852	0.013
Mof_H 	H 	0.2991	0.9358	0.9335	0.019
Mof_H 	H 	0.5274	0.5672	0.8913	0.075
Mof_H 	H 	0.3213	0.5078	0.0803	0.073
Mof_H 	H 	0.0153	0.2666	0.7775	0.046
Mof_H 	H 	0.8662	0.7286	0.831	0.055
Mof_H 	H 	0.8716	0.5066	0.7754	0.045
Mof_H 	H 	0.2467	0.4876	0.8338	0.056
Mof_H 	H 	0.6559	0.0682	0.4148	0.03
Mof_H 	H 	0.3633	0.0642	0.5665	0.042
Mof_H 	H 	0.9602	0.4328	0.6087	0.016
Mof_H 	H 	0.8135	0.4922	0.4197	0.002
Mof_H 	H 	0.7487	0.7334	0.7225	0.055
Mof_H 	H 	0.1376	0.2714	0.669	0.039
Mof_H 	H 	0.365	0.4934	0.7246	0.038
Mof_H 	H 	0.7591	0.5124	0.6662	0.055
Mof_H 	H 	0.4123	0.0682	0.9148	0.057
Mof_H 	H 	0.7009	0.0642	0.0665	0.077
Mof_H 	H 	0.4726	0.4328	0.1087	0.024
Mof_H 	H 	0.6787	0.4922	0.9197	0.012
Mof_H 	H 	0.9847	0.7334	0.2225	0.055
Mof_H 	H 	0.1338	0.2714	0.169	0.039
Mof_H 	H 	0.1284	0.4934	0.2246	0.039
Mof_H 	H 	0.7533	0.5124	0.1662	0.049
Mof_H 	H 	0.3441	0.9318	0.5852	0.037
Mof_H 	H 	0.6367	0.9358	0.4335	0.058
Mof_H 	H 	0.0398	0.5672	0.3913	0.084
Mof_H 	H 	0.1865	0.5078	0.5803	0.083
Mof_H 	H 	0.2513	0.2666	0.2775	0.045
Mof_H 	H 	0.8624	0.7286	0.331	0.055
Mof_H 	H 	0.635	0.5066	0.2754	0.046
Mof_H 	H 	0.2409	0.4876	0.3338	0.049
Mof_C 	C 	0.3568	0.8332	0.0236	0.302
Mof_C 	C 	0.43097	0.91974	0.01112	-0.147
Mof_C 	C 	0.55168	0.95896	0.0507	0.025
Mof_C 	C 	0.3803	0.9614	0.9606	0.064
Mof_C 	C 	0.31382	0.59464	0.96427	0.346
Mof_C 	C 	0.40786	0.54452	0.98296	0.007
Mof_C 	C 	0.51613	0.54006	0.9349	-0.089
Mof_C 	C 	0.39254	0.50468	0.04796	-0.126
Mof_C 	C 	0.04612	0.37204	0.89012	0.325
Mof_C 	C 	0.12048	0.37596	0.81785	-0.062
Mof_C 	C 	0.08719	0.31218	0.76739	-0.039
Mof_C 	C 	0.84447	0.68474	0.79799	-0.005
Mof_C 	C 	0.88193	0.61666	0.81475	-0.095
Mof_C 	C 	0.84823	0.55286	0.7647	-0.014
Mof_C 	C 	0.22439	0.44378	0.80079	-0.044
Mof_C 	C 	0.95762	0.61244	0.88539	0.422
Mof_C 	C 	0.5236	0.1668	0.4764	0.327
Mof_C 	C 	0.51123	0.08026	0.48888	-0.082
Mof_C 	C 	0.59272	0.04104	0.4493	-0.007
Mof_C 	C 	0.4189	0.0386	0.5394	-0.016
Mof_C 	C 	0.71918	0.40536	0.53573	0.362
Mof_C 	C 	0.86334	0.45548	0.51704	-0.154
Mof_C 	C 	0.97607	0.45994	0.5651	0.109
Mof_C 	C 	0.88786	0.49532	0.45204	0.107
Mof_C 	C 	0.67408	0.62796	0.60988	0.37
Mof_C 	C 	0.74452	0.62404	0.68215	-0.071
Mof_C 	C 	0.77501	0.68782	0.73261	-0.024
Mof_C 	C 	0.15973	0.31526	0.70201	-0.007
Mof_C 	C 	0.26527	0.38334	0.68525	-0.1
Mof_C 	C 	0.29537	0.44714	0.7353	-0.014
Mof_C 	C 	0.78061	0.55622	0.69921	-0.031
Mof_C 	C 	0.34518	0.38756	0.61461	0.387
Mof_C 	C 	0.6432	0.1668	0.9764	0.334
Mof_C 	C 	0.56903	0.08026	0.98888	0.003
Mof_C 	C 	0.44832	0.04104	0.9493	-0.093
Mof_C 	C 	0.6197	0.0386	0.0394	-0.115
Mof_C 	C 	0.68618	0.40536	0.03573	0.323
Mof_C 	C 	0.59214	0.45548	0.01704	-0.152
Mof_C 	C 	0.48387	0.45994	0.0651	0.05
Mof_C 	C 	0.60746	0.49532	0.95204	0.078
Mof_C 	C 	0.95388	0.62796	0.10988	0.422
Mof_C 	C 	0.87952	0.62404	0.18215	-0.091
Mof_C 	C 	0.91281	0.68782	0.23261	-0.006
Mof_C 	C 	0.15553	0.31526	0.20201	-0.027
Mof_C 	C 	0.11807	0.38334	0.18525	-0.083
Mof_C 	C 	0.15177	0.44714	0.2353	-0.034
Mof_C 	C 	0.77561	0.55622	0.19921	-0.015
Mof_C 	C 	0.04238	0.38756	0.11461	0.336
Mof_C 	C 	0.4764	0.8332	0.5236	0.317
Mof_C 	C 	0.48877	0.91974	0.51112	-0.056
Mof_C 	C 	0.40728	0.95896	0.5507	-0.049
Mof_C 	C 	0.5811	0.9614	0.4606	-0.054
Mof_C 	C 	0.28082	0.59464	0.46427	0.301
Mof_C 	C 	0.13666	0.54452	0.48296	0.006
Mof_C 	C 	0.02393	0.54006	0.4349	-0.15
Mof_C 	C 	0.11214	0.50468	0.54796	-0.151
Mof_C 	C 	0.32592	0.37204	0.39012	0.371
Mof_C 	C 	0.25548	0.37596	0.31785	-0.082
Mof_C 	C 	0.22499	0.31218	0.26739	-0.02
Mof_C 	C 	0.84027	0.68474	0.29799	-0.021
Mof_C 	C 	0.73473	0.61666	0.31475	-0.081
Mof_C 	C 	0.70463	0.55286	0.2647	-0.031
Mof_C 	C 	0.21939	0.44378	0.30079	-0.027
Mof_C 	C 	0.65482	0.61244	0.38539	0.384
Mof_O 	O 	0.25441	0.80002	0.97942	-0.412
Mof_O 	O 	0.39339	0.79878	0.07386	-0.325
Mof_O 	O 	0.21202	0.59484	0.00914	-0.578
Mof_O 	O 	0.33813	0.63586	0.90966	-0.33
Mof_O 	O 	0.94734	0.30988	0.90161	-0.423
Mof_O 	O 	0.08958	0.42956	0.93539	-0.445
Mof_O 	O 	0.01796	0.67792	0.91848	-0.487
Mof_O 	O 	0.95458	0.54456	0.90473	-0.449
Mof_O 	O 	0.45439	0.19998	0.52058	-0.447
Mof_O 	O 	0.59461	0.20122	0.42614	-0.323
Mof_O 	O 	0.61718	0.40516	0.49086	-0.551
Mof_O 	O 	0.70227	0.36414	0.59034	-0.336
Mof_O 	O 	0.63746	0.69012	0.59839	-0.46
Mof_O 	O 	0.66002	0.57044	0.56461	-0.459
Mof_O 	O 	0.34004	0.32208	0.58152	-0.47
Mof_O 	O 	0.41002	0.45544	0.59527	-0.467
Mof_O 	O 	0.74559	0.19998	0.02058	-0.468
Mof_O 	O 	0.60661	0.20122	0.92614	-0.321
Mof_O 	O 	0.78798	0.40516	0.99086	-0.511
Mof_O 	O 	0.66187	0.36414	0.09034	-0.331
Mof_O 	O 	0.05266	0.69012	0.09839	-0.51
Mof_O 	O 	0.91042	0.57044	0.06461	-0.467
Mof_O 	O 	0.98204	0.32208	0.08152	-0.435
Mof_O 	O 	0.04542	0.45544	0.09527	-0.473
Mof_O 	O 	0.54561	0.80002	0.47942	-0.443
Mof_O 	O 	0.40539	0.79878	0.57386	-0.325
Mof_O 	O 	0.38282	0.59484	0.50914	-0.538
Mof_O 	O 	0.29773	0.63586	0.40966	-0.325
Mof_O 	O 	0.36254	0.30988	0.40161	-0.465
Mof_O 	O 	0.33998	0.42956	0.43539	-0.463
Mof_O 	O 	0.65996	0.67792	0.41848	-0.464
Mof_O 	O 	0.58998	0.54456	0.40473	-0.462
Mof_H 	H 	0.4278	0.7822	0.8298	0.153
Mof_H 	H 	0.3003	0.7176	0.8385	0.164
Mof_H 	H 	0.4549	0.684	0.757	-0.111
Mof_H 	H 	0.43	0.7488	0.7059	-0.113
Mof_H 	H 	0.1978	0.6756	0.6904	0.343
Mof_H 	H 	0.2998	0.626	0.6643	0.344
Mof_H 	H 	0.2248	0.6104	0.7405	0.338
Mof_H 	H 	0.2218	0.822	0.8375	-0.11
Mof_H 	H 	0.1839	0.7808	0.759	-0.126
Mof_H 	H 	0.378	0.8688	0.7112	0.34
Mof_H 	H 	0.2852	0.9164	0.7516	0.316
Mof_H 	H 	0.4225	0.9082	0.7896	0.323
Mof_C 	C 	0.3859	0.7104	0.7418	0.48
Mof_C 	C 	0.26682	0.65044	0.7062	-1.039
Mof_C 	C 	0.26149	0.80818	0.7918	0.47
Mof_C 	C 	0.34397	0.88174	0.7581	-1.017
Mof_N 	N 	0.34768	0.75376	0.807	-0.396
Mof_H 	H 	0.6456	0.2178	0.6702	0.153
Mof_H 	H 	0.5827	0.2824	0.6615	0.165
Mof_H 	H 	0.7709	0.316	0.743	-0.11
Mof_H 	H 	0.6812	0.2512	0.7941	-0.116
Mof_H 	H 	0.5222	0.3244	0.8096	0.36
Mof_H 	H 	0.6738	0.374	0.8357	0.361
Mof_H 	H 	0.6144	0.3896	0.7595	0.354
Mof_H 	H 	0.3998	0.178	0.6625	-0.11
Mof_H 	H 	0.4031	0.2192	0.741	-0.122
Mof_H 	H 	0.5092	0.1312	0.7888	0.343
Mof_H 	H 	0.3688	0.0836	0.7484	0.32
Mof_H 	H 	0.5143	0.0918	0.7104	0.325
Mof_C 	C 	0.6755	0.2896	0.7582	0.496
Mof_C 	C 	0.61638	0.34956	0.7938	-1.073
Mof_C 	C 	0.45331	0.19182	0.7082	0.471
Mof_C 	C 	0.46223	0.11826	0.7419	-1.022
Mof_N 	N 	0.59392	0.24624	0.693	-0.398
Mof_H 	H 	0.5722	0.2178	0.1702	0.146
Mof_H 	H 	0.6997	0.2824	0.1615	0.164
Mof_H 	H 	0.5451	0.316	0.243	-0.124
Mof_H 	H 	0.57	0.2512	0.2941	-0.127
Mof_H 	H 	0.8022	0.3244	0.3096	0.377
Mof_H 	H 	0.7002	0.374	0.3357	0.372
Mof_H 	H 	0.7752	0.3896	0.2595	0.371
Mof_H 	H 	0.7782	0.178	0.1625	-0.103
Mof_H 	H 	0.8161	0.2192	0.241	-0.111
Mof_H 	H 	0.622	0.1312	0.2888	0.338
Mof_H 	H 	0.7148	0.0836	0.2484	0.32
Mof_H 	H 	0.5775	0.0918	0.2104	0.317
Mof_C 	C 	0.6141	0.2896	0.2582	0.519
Mof_C 	C 	0.73318	0.34956	0.2938	-1.111
Mof_C 	C 	0.73851	0.19182	0.2082	0.459
Mof_C 	C 	0.65603	0.11826	0.2419	-1.007
Mof_N 	N 	0.65232	0.24624	0.193	-0.398
Mof_H 	H 	0.3544	0.7822	0.3298	0.145
Mof_H 	H 	0.4173	0.7176	0.3385	0.162
Mof_H 	H 	0.2291	0.684	0.257	-0.125
Mof_H 	H 	0.3188	0.7488	0.2059	-0.124
Mof_H 	H 	0.4778	0.6756	0.1904	0.358
Mof_H 	H 	0.3262	0.626	0.1643	0.354
Mof_H 	H 	0.3856	0.6104	0.2405	0.353
Mof_H 	H 	0.6002	0.822	0.3375	-0.103
Mof_H 	H 	0.5969	0.7808	0.259	-0.116
Mof_H 	H 	0.4908	0.8688	0.2112	0.332
Mof_H 	H 	0.6312	0.9164	0.2516	0.313
Mof_H 	H 	0.4857	0.9082	0.2896	0.311
Mof_C 	C 	0.3245	0.7104	0.2418	0.501
Mof_C 	C 	0.38362	0.65044	0.2062	-1.073
Mof_C 	C 	0.54669	0.80818	0.2918	0.454
Mof_C 	C 	0.53777	0.88174	0.2581	-0.995
Mof_N 	N 	0.40608	0.75376	0.307	-0.394
_end
