# CIF file generated by openbabel 3.1.0, see https://openbabel.org
data_I
_chemical_name_common 'image0'
_cell_length_a 7.4872
_cell_length_b 14.3024
_cell_length_c 15.0203
_cell_angle_alpha 86.393
_cell_angle_beta 84.502
_cell_angle_gamma 89.936
_space_group_name_H-M_alt 'P 1'
_space_group_name_Hall 'P 1'
loop_
    _symmetry_equiv_pos_as_xyz
    x,y,z
loop_
    _atom_site_label
    _atom_site_type_symbol
    _atom_site_fract_x
    _atom_site_fract_y
    _atom_site_fract_z
    _atom_site_occupancy
    Pt1      Pt       0.00681    0.25891    0.46230    1.000
    N1       N        0.51860    0.59410    0.37790    1.000
    N2       N        0.71660    0.41470    0.44360    1.000
    N3       N        0.48800    0.00070    0.64900    1.000
    N4       N        0.29530    0.10650    0.49690    1.000
    N5       N        0.70600    0.10540    0.48710    1.000
    N6       N        0.30630    0.41330    0.44840    1.000
    C1       C        0.53200    0.55270    0.29240    1.000
    C2       C        0.53500    0.61340    0.21810    1.000
    C3       C        0.52500    0.71010    0.22100    1.000
    C4       C        0.52400    0.74700    0.30350    1.000
    C5       C        0.51700    0.68680    0.37980    1.000
    C6       C        0.52800    0.76600    0.14190    1.000
    C7       C        0.51400    0.81480    0.07090    1.000
    C8       C        0.49700    0.86800    0.99640    1.000
    C9       C        0.82250    0.35730    0.44560    1.000
    C10      C        0.63800    0.99080    0.68890    1.000
    C11      C        0.63600    0.96620    0.78050    1.000
    C12      C        0.48700    0.95200    0.83100    1.000
    C13      C        0.33700    0.95940    0.79580    1.000
    C14      C        0.33000    0.99150    0.70080    1.000
    C15      C        0.49300    0.91100    0.92500    1.000
    C16      C        0.19260    0.16260    0.48390    1.000
    C17      C        0.81350    0.16250    0.47960    1.000
    C18      C        0.19790    0.35710    0.44850    1.000
    Pt2      Pt       0.99319    0.74109    0.53770    1.000
    N7       N        0.48140    0.40590    0.62210    1.000
    N8       N        0.28340    0.58530    0.55640    1.000
    N9       N        0.51200    0.99930    0.35100    1.000
    N10      N        0.70470    0.89350    0.50310    1.000
    N11      N        0.29400    0.89460    0.51290    1.000
    N12      N        0.69370    0.58670    0.55160    1.000
    C19      C        0.46800    0.44730    0.70760    1.000
    C20      C        0.46500    0.38660    0.78190    1.000
    C21      C        0.47500    0.28990    0.77900    1.000
    C22      C        0.47600    0.25300    0.69650    1.000
    C23      C        0.48300    0.31320    0.62020    1.000
    C24      C        0.47200    0.23400    0.85810    1.000
    C25      C        0.48600    0.18520    0.92910    1.000
    C26      C        0.50300    0.13200    0.00360    1.000
    C27      C        0.17750    0.64270    0.55440    1.000
    C28      C        0.36200    0.00920    0.31110    1.000
    C29      C        0.36400    0.03380    0.21950    1.000
    C30      C        0.51300    0.04800    0.16900    1.000
    C31      C        0.66300    0.04060    0.20420    1.000
    C32      C        0.67000    0.00850    0.29920    1.000
    C33      C        0.50700    0.08900    0.07500    1.000
    C34      C        0.80740    0.83740    0.51610    1.000
    C35      C        0.18650    0.83750    0.52040    1.000
    C36      C        0.80210    0.64290    0.55150    1.000
    Fe1      Fe       0.50000    0.50000    0.50000    1.000
    Fe2      Fe       0.50000    0.00000    0.50000    1.000
