data_functionalizedCrystal
_audit_creation_method	'EQeq! by Chris Wilmer'
_symmetry_space_group_name_H-M	'P1'
_symmetry_Int_Tables_number	1
_symmetry_cell_setting	triclinic
loop_
_symmetry_equiv_pos_as_xyz
  x,y,z
_cell_length_a	16.4918
_cell_length_b	16.8382
_cell_length_c	18.4883
_cell_angle_alpha	69.539
_cell_angle_beta	66.786
_cell_angle_gamma	63.792
loop_
_atom_site_label
_atom_site_type_symbol
_atom_site_fract_x
_atom_site_fract_y
_atom_site_fract_z
_atom_site_charge
Mof_Cd	Cd	0.52168	0.22466	0.54501	0.461
Mof_Cd	Cd	0.44475	0.2949	0.74787	0.442
Mof_Cd	Cd	0.37417	0.37397	0.93916	0.466
Mof_O 	O 	0.5791	0.3438	0.504	-0.279
Mof_O 	O 	0.5617	0.2699	0.6297	-0.296
Mof_O 	O 	0.3359	0.3503	0.6852	-0.306
Mof_O 	O 	0.3673	0.2728	0.5953	-0.3
Mof_O 	O 	0.6534	0.0938	0.5637	-0.258
Mof_O 	O 	0.5348	0.078	0.5496	-0.272
Mof_O 	O 	0.552	0.2307	0.8152	-0.291
Mof_O 	O 	0.5283	0.3343	0.8773	-0.291
Mof_O 	O 	0.3242	0.3262	0.8666	-0.297
Mof_O 	O 	0.3052	0.2599	0.9944	-0.268
Mof_O 	O 	0.2395	0.5017	0.9598	-0.265
Mof_O 	O 	0.3708	0.5236	0.8813	-0.27
Mof_N 	N 	0.5289	0.257	0.4093	-0.143
Mof_N 	N 	0.4088	0.3465	0.0548	-0.152
Mof_C 	C 	0.5058	0.3409	0.3656	0.07
Mof_H 	H 	0.504	0.3879	0.384	0.026
Mof_C 	C 	0.4841	0.363	0.2937	-0.12
Mof_H 	H 	0.4672	0.424	0.2647	0.084
Mof_C 	C 	0.4871	0.2965	0.2647	0.047
Mof_C 	C 	0.518	0.2077	0.3076	-0.116
Mof_H 	H 	0.5261	0.1589	0.2877	0.074
Mof_C 	C 	0.5369	0.1908	0.3794	0.064
Mof_H 	H 	0.5563	0.13	0.4086	0.027
Mof_C 	C 	0.4592	0.3166	0.1922	0.059
Mof_C 	C 	0.4803	0.3809	0.1239	-0.138
Mof_H 	H 	0.5124	0.4164	0.123	0.094
Mof_C 	C 	0.4548	0.393	0.0575	0.087
Mof_H 	H 	0.4707	0.4369	0.0111	0.013
Mof_C 	C 	0.3889	0.2841	0.1195	0.081
Mof_H 	H 	0.3578	0.2493	0.1174	0.022
Mof_C 	C 	0.4105	0.2668	0.1889	-0.128
Mof_H 	H 	0.3933	0.2224	0.2341	0.079
Mof_C 	C 	0.5885	0.33	0.5706	0.31
Mof_C 	C 	0.6391	0.3774	0.5817	-0.09
Mof_C 	C 	0.6832	0.3395	0.6436	0.019
Mof_H 	H 	0.6795	0.2839	0.6792	0.042
Mof_C 	C 	0.7317	0.3827	0.6531	-0.087
Mof_H 	H 	0.7618	0.3565	0.6947	0.065
Mof_C 	C 	0.7363	0.4649	0.6013	0.029
Mof_C 	C 	0.691	0.5027	0.5403	-0.088
Mof_H 	H 	0.6933	0.5591	0.5054	0.07
Mof_C 	C 	0.6434	0.4593	0.5305	0.023
Mof_H 	H 	0.6137	0.4853	0.4887	0.044
Mof_C 	C 	0.7903	0.5135	0.6055	0.051
Mof_C 	C 	0.8808	0.4674	0.6168	-0.107
Mof_H 	H 	0.9067	0.4032	0.6263	0.068
Mof_C 	C 	0.9329	0.5159	0.614	0.049
Mof_C 	C 	0.8922	0.6092	0.6017	-0.11
Mof_H 	H 	0.9278	0.6423	0.5989	0.067
Mof_C 	C 	0.802	0.6569	0.5932	0.05
Mof_C 	C 	0.7529	0.6063	0.595	-0.111
Mof_H 	H 	0.6913	0.6373	0.5886	0.074
Mof_C 	C 	0.0288	0.4661	0.6227	0.03
Mof_C 	C 	0.0841	0.3822	0.6022	-0.091
Mof_H 	H 	0.0592	0.3554	0.5826	0.064
Mof_C 	C 	0.1742	0.3369	0.6098	0.027
Mof_H 	H 	0.2098	0.2796	0.5955	0.034
Mof_C 	C 	0.2138	0.373	0.6377	-0.103
Mof_C 	C 	0.1593	0.4559	0.6612	0.021
Mof_H 	H 	0.1842	0.4806	0.683	0.041
Mof_C 	C 	0.0686	0.5024	0.6528	-0.086
Mof_H 	H 	0.0329	0.5595	0.6676	0.063
Mof_C 	C 	0.3137	0.3285	0.6407	0.335
Mof_C 	C 	0.7574	0.7577	0.5823	0.026
Mof_C 	C 	0.7847	0.806	0.6093	-0.083
Mof_H 	H 	0.8337	0.7751	0.6347	0.06
Mof_C 	C 	0.7412	0.8992	0.5997	0.009
Mof_H 	H 	0.7619	0.9321	0.617	0.043
Mof_C 	C 	0.6669	0.945	0.5649	-0.074
Mof_C 	C 	0.6399	0.8964	0.5378	0.009
Mof_H 	H 	0.5892	0.9265	0.5144	0.052
Mof_C 	C 	0.6864	0.8044	0.5447	-0.083
Mof_H 	H 	0.6693	0.7723	0.5233	0.07
Mof_C 	C 	0.6153	0.0455	0.5588	0.288
Mof_C 	C 	0.5782	0.2645	0.8494	0.319
Mof_C 	C 	0.6769	0.2159	0.8572	-0.094
Mof_C 	C 	0.7062	0.245	0.9014	0.023
Mof_H 	H 	0.6645	0.295	0.9263	0.038
Mof_C 	C 	0.7962	0.2005	0.9085	-0.095
Mof_H 	H 	0.8157	0.2195	0.9396	0.066
Mof_C 	C 	0.8598	0.1279	0.8713	0.034
Mof_C 	C 	0.8293	0.1014	0.8265	-0.095
Mof_H 	H 	0.8713	0.0527	0.8	0.065
Mof_C 	C 	0.7389	0.1449	0.8199	0.023
Mof_H 	H 	0.719	0.1256	0.7892	0.04
Mof_C 	C 	0.9569	0.0803	0.8796	0.037
Mof_C 	C 	0.0064	0.1261	0.8854	-0.099
Mof_H 	H 	0.9774	0.1896	0.8823	0.065
Mof_C 	C 	0.0956	0.0829	0.8955	0.039
Mof_C 	C 	0.1385	0.9873	0.8996	-0.099
Mof_H 	H 	0.1997	0.9558	0.9069	0.067
Mof_C 	C 	0.0914	0.9397	0.893	0.041
Mof_C 	C 	0.0003	0.9864	0.8837	-0.096
Mof_H 	H 	0.9676	0.9541	0.8801	0.063
Mof_C 	C 	0.1464	0.1319	0.9021	0.032
Mof_C 	C 	0.1489	0.2135	0.8515	-0.089
Mof_H 	H 	0.117	0.2392	0.8111	0.065
Mof_C 	C 	0.1976	0.2592	0.8584	0.02
Mof_H 	H 	0.2008	0.3143	0.8215	0.044
Mof_C 	C 	0.2416	0.224	0.9193	-0.093
Mof_C 	C 	0.2387	0.1414	0.9713	0.025
Mof_H 	H 	0.2688	0.1168	0.0127	0.036
Mof_C 	C 	0.1925	0.0952	0.9633	-0.094
Mof_H 	H 	0.1917	0.0387	0.9986	0.065
Mof_C 	C 	0.2923	0.2721	0.9278	0.304
Mof_C 	C 	0.1389	0.8415	0.8956	0.032
Mof_C 	C 	0.2335	0.8059	0.8561	-0.086
Mof_H 	H 	0.2671	0.8459	0.824	0.063
Mof_C 	C 	0.281	0.7126	0.8621	0.015
Mof_H 	H 	0.3464	0.6894	0.8353	0.041
Mof_C 	C 	0.2314	0.6537	0.908	-0.083
Mof_C 	C 	0.1358	0.6892	0.9443	0.018
Mof_H 	H 	0.1012	0.6496	0.9739	0.044
Mof_C 	C 	0.0895	0.7822	0.938	-0.09
Mof_H 	H 	0.0236	0.8055	0.9629	0.065
Mof_C 	C 	0.2832	0.5546	0.916	0.295
Mof_Cd	Cd	0.47832	0.77534	0.45499	0.462
Mof_Cd	Cd	0.55525	0.7051	0.25213	0.443
Mof_Cd	Cd	0.62583	0.62603	0.06084	0.467
Mof_O 	O 	0.4209	0.6562	0.496	-0.278
Mof_O 	O 	0.4383	0.7301	0.3703	-0.295
Mof_O 	O 	0.6641	0.6497	0.3148	-0.305
Mof_O 	O 	0.6327	0.7272	0.4047	-0.3
Mof_O 	O 	0.3466	0.9062	0.4363	-0.258
Mof_O 	O 	0.4652	0.922	0.4504	-0.272
Mof_O 	O 	0.448	0.7693	0.1848	-0.291
Mof_O 	O 	0.4717	0.6657	0.1227	-0.291
Mof_O 	O 	0.6758	0.6738	0.1334	-0.297
Mof_O 	O 	0.6948	0.7401	0.0056	-0.268
Mof_O 	O 	0.7605	0.4983	0.0402	-0.265
Mof_O 	O 	0.6292	0.4764	0.1187	-0.27
Mof_N 	N 	0.4711	0.743	0.5907	-0.143
Mof_N 	N 	0.5912	0.6535	0.9452	-0.152
Mof_C 	C 	0.4942	0.6591	0.6344	0.07
Mof_H 	H 	0.496	0.6121	0.616	0.026
Mof_C 	C 	0.5159	0.637	0.7063	-0.12
Mof_H 	H 	0.5328	0.576	0.7353	0.084
Mof_C 	C 	0.5129	0.7035	0.7353	0.047
Mof_C 	C 	0.482	0.7923	0.6924	-0.116
Mof_H 	H 	0.4739	0.8411	0.7123	0.074
Mof_C 	C 	0.4631	0.8092	0.6206	0.064
Mof_H 	H 	0.4437	0.87	0.5914	0.027
Mof_C 	C 	0.5408	0.6834	0.8078	0.059
Mof_C 	C 	0.5197	0.6191	0.8761	-0.138
Mof_H 	H 	0.4876	0.5836	0.877	0.094
Mof_C 	C 	0.5452	0.607	0.9425	0.087
Mof_H 	H 	0.5293	0.5631	0.9889	0.013
Mof_C 	C 	0.6111	0.7159	0.8805	0.081
Mof_H 	H 	0.6422	0.7507	0.8826	0.022
Mof_C 	C 	0.5895	0.7332	0.8111	-0.128
Mof_H 	H 	0.6067	0.7776	0.7659	0.079
Mof_C 	C 	0.4115	0.67	0.4294	0.31
Mof_C 	C 	0.3609	0.6226	0.4183	-0.09
Mof_C 	C 	0.3168	0.6605	0.3564	0.019
Mof_H 	H 	0.3205	0.7161	0.3208	0.042
Mof_C 	C 	0.2683	0.6173	0.3469	-0.087
Mof_H 	H 	0.2382	0.6435	0.3053	0.065
Mof_C 	C 	0.2637	0.5351	0.3987	0.029
Mof_C 	C 	0.309	0.4973	0.4597	-0.088
Mof_H 	H 	0.3067	0.4409	0.4946	0.07
Mof_C 	C 	0.3566	0.5407	0.4695	0.023
Mof_H 	H 	0.3863	0.5147	0.5113	0.044
Mof_C 	C 	0.2097	0.4865	0.3945	0.051
Mof_C 	C 	0.1192	0.5326	0.3832	-0.107
Mof_H 	H 	0.0933	0.5968	0.3737	0.068
Mof_C 	C 	0.0671	0.4841	0.386	0.049
Mof_C 	C 	0.1078	0.3908	0.3983	-0.11
Mof_H 	H 	0.0722	0.3577	0.4011	0.067
Mof_C 	C 	0.198	0.3431	0.4068	0.05
Mof_C 	C 	0.2471	0.3937	0.405	-0.111
Mof_H 	H 	0.3087	0.3627	0.4114	0.074
Mof_C 	C 	0.9712	0.5339	0.3773	0.03
Mof_C 	C 	0.9159	0.6178	0.3978	-0.091
Mof_H 	H 	0.9408	0.6446	0.4174	0.064
Mof_C 	C 	0.8258	0.6631	0.3902	0.027
Mof_H 	H 	0.7902	0.7204	0.4045	0.034
Mof_C 	C 	0.7862	0.627	0.3623	-0.103
Mof_C 	C 	0.8407	0.5441	0.3388	0.021
Mof_H 	H 	0.8158	0.5194	0.317	0.041
Mof_C 	C 	0.9314	0.4976	0.3472	-0.086
Mof_H 	H 	0.9671	0.4405	0.3324	0.063
Mof_C 	C 	0.6863	0.6715	0.3593	0.335
Mof_C 	C 	0.2426	0.2423	0.4177	0.026
Mof_C 	C 	0.2153	0.194	0.3907	-0.083
Mof_H 	H 	0.1663	0.2249	0.3653	0.06
Mof_C 	C 	0.2588	0.1008	0.4003	0.009
Mof_H 	H 	0.2381	0.0679	0.383	0.043
Mof_C 	C 	0.3331	0.055	0.4351	-0.074
Mof_C 	C 	0.3601	0.1036	0.4622	0.009
Mof_H 	H 	0.4108	0.0735	0.4856	0.052
Mof_C 	C 	0.3136	0.1956	0.4553	-0.083
Mof_H 	H 	0.3307	0.2277	0.4767	0.07
Mof_C 	C 	0.3847	0.9545	0.4412	0.288
Mof_C 	C 	0.4218	0.7355	0.1506	0.319
Mof_C 	C 	0.3231	0.7841	0.1428	-0.094
Mof_C 	C 	0.2938	0.755	0.0986	0.023
Mof_H 	H 	0.3355	0.705	0.0737	0.038
Mof_C 	C 	0.2038	0.7995	0.0915	-0.095
Mof_H 	H 	0.1843	0.7805	0.0604	0.066
Mof_C 	C 	0.1402	0.8721	0.1287	0.034
Mof_C 	C 	0.1707	0.8986	0.1735	-0.095
Mof_H 	H 	0.1287	0.9473	0.2	0.065
Mof_C 	C 	0.2611	0.8551	0.1801	0.023
Mof_H 	H 	0.281	0.8744	0.2108	0.04
Mof_C 	C 	0.0431	0.9197	0.1204	0.037
Mof_C 	C 	0.9936	0.8739	0.1146	-0.099
Mof_H 	H 	0.0226	0.8104	0.1177	0.065
Mof_C 	C 	0.9044	0.9171	0.1045	0.039
Mof_C 	C 	0.8615	0.0127	0.1004	-0.099
Mof_H 	H 	0.8003	0.0442	0.0931	0.067
Mof_C 	C 	0.9086	0.0603	0.107	0.041
Mof_C 	C 	0.9997	0.0136	0.1163	-0.096
Mof_H 	H 	0.0324	0.0459	0.1199	0.063
Mof_C 	C 	0.8536	0.8681	0.0979	0.032
Mof_C 	C 	0.8511	0.7865	0.1485	-0.089
Mof_H 	H 	0.883	0.7608	0.1889	0.065
Mof_C 	C 	0.8024	0.7408	0.1416	0.02
Mof_H 	H 	0.7992	0.6857	0.1785	0.044
Mof_C 	C 	0.7584	0.776	0.0807	-0.093
Mof_C 	C 	0.7613	0.8586	0.0287	0.025
Mof_H 	H 	0.7312	0.8832	0.9873	0.036
Mof_C 	C 	0.8075	0.9048	0.0367	-0.094
Mof_H 	H 	0.8083	0.9613	0.0014	0.065
Mof_C 	C 	0.7077	0.7279	0.0722	0.304
Mof_C 	C 	0.8611	0.1585	0.1044	0.032
Mof_C 	C 	0.7665	0.1941	0.1439	-0.086
Mof_H 	H 	0.7329	0.1541	0.176	0.063
Mof_C 	C 	0.719	0.2874	0.1379	0.015
Mof_H 	H 	0.6536	0.3106	0.1647	0.041
Mof_C 	C 	0.7686	0.3463	0.092	-0.083
Mof_C 	C 	0.8642	0.3108	0.0557	0.018
Mof_H 	H 	0.8988	0.3504	0.0261	0.044
Mof_C 	C 	0.9105	0.2178	0.062	-0.09
Mof_H 	H 	0.9764	0.1945	0.0371	0.065
Mof_C 	C 	0.7168	0.4454	0.084	0.295
_end
