# CIF file generated by openbabel 3.1.0, see https://openbabel.org
data_I
_chemical_name_common 'image0'
_cell_length_a 55.106
_cell_length_b 16.058
_cell_length_c 12.418
_cell_angle_alpha 90
_cell_angle_beta 96.664
_cell_angle_gamma 90
_space_group_name_H-M_alt 'P 1'
_space_group_name_Hall 'P 1'
loop_
    _symmetry_equiv_pos_as_xyz
    x,y,z
loop_
    _atom_site_label
    _atom_site_type_symbol
    _atom_site_fract_x
    _atom_site_fract_y
    _atom_site_fract_z
    _atom_site_occupancy
    Pr1      Pr       0.22854    0.02357    0.11707    1.000
    Pr2      Pr       0.09596    0.94825    0.82029    1.000
    Pr3      Pr       0.17172    0.33821    0.28588    1.000
    Pr4      Pr       0.06916    0.52820    0.15994    1.000
    N1       N        0.18369    0.05450    0.01200    1.000
    C1       C        0.18096    0.03270    0.90720    1.000
    C2       C        0.15810    0.01820    0.85120    1.000
    H1       H        0.15670    0.00810    0.77700    1.000
    N2       N        0.13805    0.01850    0.90150    1.000
    C3       C        0.14073    0.03980    0.00620    1.000
    C4       C        0.16339    0.06170    0.05990    1.000
    H2       H        0.16440    0.08180    0.13050    1.000
    C5       C        0.20414    0.01610    0.85530    1.000
    O1       O        0.22387    0.01420    0.91790    1.000
    O2       O        0.20137    0.00210    0.75550    1.000
    C6       C        0.11798    0.03470    0.06370    1.000
    O3       O        0.09914    0.00650    0.00810    1.000
    O4       O        0.11965    0.05690    0.16150    1.000
    N3       N        0.24236    0.17190    0.03200    1.000
    C7       C        0.23414    0.24240    0.07290    1.000
    C8       C        0.25800    0.18000    0.95820    1.000
    H3       H        0.26380    0.13250    0.92680    1.000
    C9       C        0.21555    0.23170    0.15250    1.000
    O5       O        0.21114    0.15780    0.17810    1.000
    O6       O        0.20582    0.29600    0.18480    1.000
    N4       N        0.17160    0.44330    0.11640    1.000
    C10      C        0.14979    0.47020    0.06870    1.000
    C11      C        0.14757    0.51110    0.96900    1.000
    H4       H        0.13220    0.52770    0.93780    1.000
    N5       N        0.16675    0.52670    0.91800    1.000
    C12      C        0.18860    0.50040    0.96540    1.000
    C13      C        0.19096    0.45930    0.06430    1.000
    H5       H        0.20640    0.44240    0.09500    1.000
    C14      C        0.12846    0.45650    0.13280    1.000
    O7       O        0.13265    0.41320    0.21780    1.000
    O8       O        0.10882    0.49120    0.09860    1.000
    C15      C        0.21050    0.52080    0.90670    1.000
    O9       O        0.20670    0.56960    0.82690    1.000
    O10      O        0.23050    0.48970    0.94340    1.000
    N6       N        0.09122    0.82590    0.97300    1.000
    C16      C        0.10595    0.76010    0.96680    1.000
    C17      C        0.10266    0.68680    0.02130    1.000
    H6       H        0.11400    0.64410    0.01870    1.000
    N7       N        0.08372    0.67510    0.07760    1.000
    C18      C        0.06909    0.74110    0.08430    1.000
    C19      C        0.07309    0.81660    0.03460    1.000
    H7       H        0.06290    0.86150    0.04440    1.000
    C20      C        0.12617    0.77050    0.89570    1.000
    O11      O        0.12900    0.84160    0.85610    1.000
    O12      O        0.13857    0.70690    0.88200    1.000
    C21      C        0.04717    0.72780    0.14500    1.000
    O13      O        0.04391    0.65540    0.17940    1.000
    O14      O        0.03365    0.78980    0.15430    1.000
    N8       N        0.02287    0.50870    0.05900    1.000
    C22      C        0.02037    0.50540    0.95200    1.000
    C23      C        0.00259    0.50330    0.10660    1.000
    H8       H        0.00380    0.50530    0.18190    1.000
    C24      C        0.04348    0.51220    0.89880    1.000
    O15      O        0.06261    0.53210    0.95980    1.000
    O16      O        0.04183    0.49850    0.79930    1.000
    N9       N        0.00076    0.93540    0.42500    1.000
    C25      C        0.01665    0.99940    0.43030    1.000
    C26      C        0.98445    0.93640    0.49600    1.000
    H9       H        0.97340    0.89260    0.49620    1.000
    C27      C        0.03575    0.99580    0.35250    1.000
    O17      O        0.03147    0.94800    0.27310    1.000
    O18      O        0.05437    0.04030    0.37490    1.000
    O19      O        0.09235    0.09530    0.77360    1.000
    O20      O        0.05744    0.37830    0.11700    1.000
    O21      O        0.09570    0.59930    0.30180    1.000
    O22      O        0.97570    0.75980    0.11000    1.000
    O23      O        0.08810    0.11370    0.84210    1.000
    N10      N        0.10110    0.13810    0.77590    1.000
    O24      O        0.11260    0.09190    0.72530    1.000
    O25      O        0.10360    0.21830    0.76440    1.000
    O26      O        0.08210    0.61130    0.34680    1.000
    N11      N        0.10350    0.61880    0.34020    1.000
    O27      O        0.11148    0.59600    0.26030    1.000
    O28      O        0.11790    0.64800    0.42150    1.000
    O29      O        0.06505    0.38690    0.07090    1.000
    O30      O        0.96240    0.81490    0.10270    1.000
    O31      O        0.99415    0.68450    0.19410    1.000
    Pr5      Pr       0.72854    0.52357    0.11707    1.000
    Pr6      Pr       0.59596    0.44825    0.82029    1.000
    Pr7      Pr       0.67172    0.83821    0.28588    1.000
    Pr8      Pr       0.56916    0.02820    0.15994    1.000
    N12      N        0.68369    0.55450    0.01200    1.000
    C28      C        0.68096    0.53270    0.90720    1.000
    C29      C        0.65810    0.51820    0.85120    1.000
    H10      H        0.65670    0.50810    0.77700    1.000
    N13      N        0.63805    0.51850    0.90150    1.000
    C30      C        0.64073    0.53980    0.00620    1.000
    C31      C        0.66339    0.56170    0.05990    1.000
    H11      H        0.66440    0.58180    0.13050    1.000
    C32      C        0.70414    0.51610    0.85530    1.000
    O32      O        0.72387    0.51420    0.91790    1.000
    O33      O        0.70137    0.50210    0.75550    1.000
    C33      C        0.61798    0.53470    0.06370    1.000
    O34      O        0.59914    0.50650    0.00810    1.000
    O35      O        0.61965    0.55690    0.16150    1.000
    N14      N        0.74236    0.67190    0.03200    1.000
    C34      C        0.73414    0.74240    0.07290    1.000
    C35      C        0.75800    0.68000    0.95820    1.000
    H12      H        0.76380    0.63250    0.92680    1.000
    C36      C        0.71555    0.73170    0.15250    1.000
    O36      O        0.71114    0.65780    0.17810    1.000
    O37      O        0.70582    0.79600    0.18480    1.000
    N15      N        0.67160    0.94330    0.11640    1.000
    C37      C        0.64979    0.97020    0.06870    1.000
    C38      C        0.64757    0.01110    0.96900    1.000
    H13      H        0.63220    0.02770    0.93780    1.000
    N16      N        0.66675    0.02670    0.91800    1.000
    C39      C        0.68860    0.00040    0.96540    1.000
    C40      C        0.69096    0.95930    0.06430    1.000
    H14      H        0.70640    0.94240    0.09500    1.000
    C41      C        0.62846    0.95650    0.13280    1.000
    O38      O        0.63265    0.91320    0.21780    1.000
    O39      O        0.60882    0.99120    0.09860    1.000
    C42      C        0.71050    0.02080    0.90670    1.000
    O40      O        0.70670    0.06960    0.82690    1.000
    O41      O        0.73050    0.98970    0.94340    1.000
    N17      N        0.59122    0.32590    0.97300    1.000
    C43      C        0.60595    0.26010    0.96680    1.000
    C44      C        0.60266    0.18680    0.02130    1.000
    H15      H        0.61400    0.14410    0.01870    1.000
    N18      N        0.58372    0.17510    0.07760    1.000
    C45      C        0.56909    0.24110    0.08430    1.000
    C46      C        0.57309    0.31660    0.03460    1.000
    H16      H        0.56290    0.36150    0.04440    1.000
    C47      C        0.62617    0.27050    0.89570    1.000
    O42      O        0.62900    0.34160    0.85610    1.000
    O43      O        0.63857    0.20690    0.88200    1.000
    C48      C        0.54717    0.22780    0.14500    1.000
    O44      O        0.54391    0.15540    0.17940    1.000
    O45      O        0.53365    0.28980    0.15430    1.000
    N19      N        0.52287    0.00870    0.05900    1.000
    C49      C        0.52037    0.00540    0.95200    1.000
    C50      C        0.50259    0.00330    0.10660    1.000
    H17      H        0.50380    0.00530    0.18190    1.000
    C51      C        0.54348    0.01220    0.89880    1.000
    O46      O        0.56261    0.03210    0.95980    1.000
    O47      O        0.54183    0.99850    0.79930    1.000
    N20      N        0.50076    0.43540    0.42500    1.000
    C52      C        0.51665    0.49940    0.43030    1.000
    C53      C        0.48445    0.43640    0.49600    1.000
    H18      H        0.47340    0.39260    0.49620    1.000
    C54      C        0.53575    0.49580    0.35250    1.000
    O48      O        0.53147    0.44800    0.27310    1.000
    O49      O        0.55437    0.54030    0.37490    1.000
    O50      O        0.59235    0.59530    0.77360    1.000
    O51      O        0.55744    0.87830    0.11700    1.000
    O52      O        0.59570    0.09930    0.30180    1.000
    O53      O        0.47570    0.25980    0.11000    1.000
    O54      O        0.58810    0.61370    0.84210    1.000
    N21      N        0.60110    0.63810    0.77590    1.000
    O55      O        0.61260    0.59190    0.72530    1.000
    O56      O        0.60360    0.71830    0.76440    1.000
    O57      O        0.58210    0.11130    0.34680    1.000
    N22      N        0.60350    0.11880    0.34020    1.000
    O58      O        0.61148    0.09600    0.26030    1.000
    O59      O        0.61790    0.14800    0.42150    1.000
    O60      O        0.56505    0.88690    0.07090    1.000
    O61      O        0.46240    0.31490    0.10270    1.000
    O62      O        0.49415    0.18450    0.19410    1.000
    Pr9      Pr       0.77146    0.02357    0.38293    1.000
    Pr10     Pr       0.90404    0.94825    0.67971    1.000
    Pr11     Pr       0.82828    0.33821    0.21412    1.000
    Pr12     Pr       0.93084    0.52820    0.34006    1.000
    N23      N        0.81631    0.05450    0.48800    1.000
    C55      C        0.81904    0.03270    0.59280    1.000
    C56      C        0.84190    0.01820    0.64880    1.000
    H19      H        0.84330    0.00810    0.72300    1.000
    N24      N        0.86195    0.01850    0.59850    1.000
    C57      C        0.85927    0.03980    0.49380    1.000
    C58      C        0.83661    0.06170    0.44010    1.000
    H20      H        0.83560    0.08180    0.36950    1.000
    C59      C        0.79586    0.01610    0.64470    1.000
    O63      O        0.77613    0.01420    0.58210    1.000
    O64      O        0.79863    0.00210    0.74450    1.000
    C60      C        0.88202    0.03470    0.43630    1.000
    O65      O        0.90086    0.00650    0.49190    1.000
    O66      O        0.88035    0.05690    0.33850    1.000
    N25      N        0.75764    0.17190    0.46800    1.000
    C61      C        0.76586    0.24240    0.42710    1.000
    C62      C        0.74200    0.18000    0.54180    1.000
    H21      H        0.73620    0.13250    0.57320    1.000
    C63      C        0.78445    0.23170    0.34750    1.000
    O67      O        0.78886    0.15780    0.32190    1.000
    O68      O        0.79418    0.29600    0.31520    1.000
    N26      N        0.82840    0.44330    0.38360    1.000
    C64      C        0.85021    0.47020    0.43130    1.000
    C65      C        0.85243    0.51110    0.53100    1.000
    H22      H        0.86780    0.52770    0.56220    1.000
    N27      N        0.83325    0.52670    0.58200    1.000
    C66      C        0.81140    0.50040    0.53460    1.000
    C67      C        0.80904    0.45930    0.43570    1.000
    H23      H        0.79360    0.44240    0.40500    1.000
    C68      C        0.87154    0.45650    0.36720    1.000
    O69      O        0.86735    0.41320    0.28220    1.000
    O70      O        0.89118    0.49120    0.40140    1.000
    C69      C        0.78950    0.52080    0.59330    1.000
    O71      O        0.79330    0.56960    0.67310    1.000
    O72      O        0.76950    0.48970    0.55660    1.000
    N28      N        0.90878    0.82590    0.52700    1.000
    C70      C        0.89405    0.76010    0.53320    1.000
    C71      C        0.89734    0.68680    0.47870    1.000
    H24      H        0.88600    0.64410    0.48130    1.000
    N29      N        0.91628    0.67510    0.42240    1.000
    C72      C        0.93091    0.74110    0.41570    1.000
    C73      C        0.92691    0.81660    0.46540    1.000
    H25      H        0.93710    0.86150    0.45560    1.000
    C74      C        0.87383    0.77050    0.60430    1.000
    O73      O        0.87100    0.84160    0.64390    1.000
    O74      O        0.86143    0.70690    0.61800    1.000
    C75      C        0.95283    0.72780    0.35500    1.000
    O75      O        0.95609    0.65540    0.32060    1.000
    O76      O        0.96635    0.78980    0.34570    1.000
    N30      N        0.97713    0.50870    0.44100    1.000
    C76      C        0.97963    0.50540    0.54800    1.000
    C77      C        0.99741    0.50330    0.39340    1.000
    H26      H        0.99620    0.50530    0.31810    1.000
    C78      C        0.95652    0.51220    0.60120    1.000
    O77      O        0.93739    0.53210    0.54020    1.000
    O78      O        0.95817    0.49850    0.70070    1.000
    N31      N        0.99924    0.93540    0.07500    1.000
    C79      C        0.98335    0.99940    0.06970    1.000
    C80      C        0.01555    0.93640    0.00400    1.000
    H27      H        0.02660    0.89260    0.00380    1.000
    C81      C        0.96425    0.99580    0.14750    1.000
    O79      O        0.96853    0.94800    0.22690    1.000
    O80      O        0.94563    0.04030    0.12510    1.000
    O81      O        0.90765    0.09530    0.72640    1.000
    O82      O        0.94256    0.37830    0.38300    1.000
    O83      O        0.90430    0.59930    0.19820    1.000
    O84      O        0.02430    0.75980    0.39000    1.000
    O85      O        0.91190    0.11370    0.65790    1.000
    N32      N        0.89890    0.13810    0.72410    1.000
    O86      O        0.88740    0.09190    0.77470    1.000
    O87      O        0.89640    0.21830    0.73560    1.000
    O88      O        0.91790    0.61130    0.15320    1.000
    N33      N        0.89650    0.61880    0.15980    1.000
    O89      O        0.88852    0.59600    0.23970    1.000
    O90      O        0.88210    0.64800    0.07850    1.000
    O91      O        0.93495    0.38690    0.42910    1.000
    O92      O        0.03760    0.81490    0.39730    1.000
    O93      O        0.00585    0.68450    0.30590    1.000
    Pr13     Pr       0.27146    0.52357    0.38293    1.000
    Pr14     Pr       0.40404    0.44825    0.67971    1.000
    Pr15     Pr       0.32828    0.83821    0.21412    1.000
    Pr16     Pr       0.43084    0.02820    0.34006    1.000
    N34      N        0.31631    0.55450    0.48800    1.000
    C82      C        0.31904    0.53270    0.59280    1.000
    C83      C        0.34190    0.51820    0.64880    1.000
    H28      H        0.34330    0.50810    0.72300    1.000
    N35      N        0.36195    0.51850    0.59850    1.000
    C84      C        0.35927    0.53980    0.49380    1.000
    C85      C        0.33661    0.56170    0.44010    1.000
    H29      H        0.33560    0.58180    0.36950    1.000
    C86      C        0.29586    0.51610    0.64470    1.000
    O94      O        0.27613    0.51420    0.58210    1.000
    O95      O        0.29863    0.50210    0.74450    1.000
    C87      C        0.38202    0.53470    0.43630    1.000
    O96      O        0.40086    0.50650    0.49190    1.000
    O97      O        0.38035    0.55690    0.33850    1.000
    N36      N        0.25764    0.67190    0.46800    1.000
    C88      C        0.26586    0.74240    0.42710    1.000
    C89      C        0.24200    0.68000    0.54180    1.000
    H30      H        0.23620    0.63250    0.57320    1.000
    C90      C        0.28445    0.73170    0.34750    1.000
    O98      O        0.28886    0.65780    0.32190    1.000
    O99      O        0.29418    0.79600    0.31520    1.000
    N37      N        0.32840    0.94330    0.38360    1.000
    C91      C        0.35021    0.97020    0.43130    1.000
    C92      C        0.35243    0.01110    0.53100    1.000
    H31      H        0.36780    0.02770    0.56220    1.000
    N38      N        0.33325    0.02670    0.58200    1.000
    C93      C        0.31140    0.00040    0.53460    1.000
    C94      C        0.30904    0.95930    0.43570    1.000
    H32      H        0.29360    0.94240    0.40500    1.000
    C95      C        0.37154    0.95650    0.36720    1.000
    O100     O        0.36735    0.91320    0.28220    1.000
    O101     O        0.39118    0.99120    0.40140    1.000
    C96      C        0.28950    0.02080    0.59330    1.000
    O102     O        0.29330    0.06960    0.67310    1.000
    O103     O        0.26950    0.98970    0.55660    1.000
    N39      N        0.40878    0.32590    0.52700    1.000
    C97      C        0.39405    0.26010    0.53320    1.000
    C98      C        0.39734    0.18680    0.47870    1.000
    H33      H        0.38600    0.14410    0.48130    1.000
    N40      N        0.41628    0.17510    0.42240    1.000
    C99      C        0.43091    0.24110    0.41570    1.000
    C100     C        0.42691    0.31660    0.46540    1.000
    H34      H        0.43710    0.36150    0.45560    1.000
    C101     C        0.37383    0.27050    0.60430    1.000
    O104     O        0.37100    0.34160    0.64390    1.000
    O105     O        0.36143    0.20690    0.61800    1.000
    C102     C        0.45283    0.22780    0.35500    1.000
    O106     O        0.45609    0.15540    0.32060    1.000
    O107     O        0.46635    0.28980    0.34570    1.000
    N41      N        0.47713    0.00870    0.44100    1.000
    C103     C        0.47963    0.00540    0.54800    1.000
    C104     C        0.49741    0.00330    0.39340    1.000
    H35      H        0.49620    0.00530    0.31810    1.000
    C105     C        0.45652    0.01220    0.60120    1.000
    O108     O        0.43739    0.03210    0.54020    1.000
    O109     O        0.45817    0.99850    0.70070    1.000
    N42      N        0.49924    0.43540    0.07500    1.000
    C106     C        0.48335    0.49940    0.06970    1.000
    C107     C        0.51555    0.43640    0.00400    1.000
    H36      H        0.52660    0.39260    0.00380    1.000
    C108     C        0.46425    0.49580    0.14750    1.000
    O110     O        0.46853    0.44800    0.22690    1.000
    O111     O        0.44563    0.54030    0.12510    1.000
    O112     O        0.40765    0.59530    0.72640    1.000
    O113     O        0.44256    0.87830    0.38300    1.000
    O114     O        0.40430    0.09930    0.19820    1.000
    O115     O        0.52430    0.25980    0.39000    1.000
    O116     O        0.41190    0.61370    0.65790    1.000
    N43      N        0.39890    0.63810    0.72410    1.000
    O117     O        0.38740    0.59190    0.77470    1.000
    O118     O        0.39640    0.71830    0.73560    1.000
    O119     O        0.41790    0.11130    0.15320    1.000
    N44      N        0.39650    0.11880    0.15980    1.000
    O120     O        0.38852    0.09600    0.23970    1.000
    O121     O        0.38210    0.14800    0.07850    1.000
    O122     O        0.43495    0.88690    0.42910    1.000
    O123     O        0.53760    0.31490    0.39730    1.000
    O124     O        0.50585    0.18450    0.30590    1.000
    Pr17     Pr       0.77146    0.97643    0.88293    1.000
    Pr18     Pr       0.90404    0.05175    0.17971    1.000
    Pr19     Pr       0.82828    0.66179    0.71412    1.000
    Pr20     Pr       0.93084    0.47180    0.84006    1.000
    N45      N        0.81631    0.94550    0.98800    1.000
    C109     C        0.81904    0.96730    0.09280    1.000
    C110     C        0.84190    0.98180    0.14880    1.000
    H37      H        0.84330    0.99190    0.22300    1.000
    N46      N        0.86195    0.98150    0.09850    1.000
    C111     C        0.85927    0.96020    0.99380    1.000
    C112     C        0.83661    0.93830    0.94010    1.000
    H38      H        0.83560    0.91820    0.86950    1.000
    C113     C        0.79586    0.98390    0.14470    1.000
    O125     O        0.77613    0.98580    0.08210    1.000
    O126     O        0.79863    0.99790    0.24450    1.000
    C114     C        0.88202    0.96530    0.93630    1.000
    O127     O        0.90086    0.99350    0.99190    1.000
    O128     O        0.88035    0.94310    0.83850    1.000
    N47      N        0.75764    0.82810    0.96800    1.000
    C115     C        0.76586    0.75760    0.92710    1.000
    C116     C        0.74200    0.82000    0.04180    1.000
    H39      H        0.73620    0.86750    0.07320    1.000
    C117     C        0.78445    0.76830    0.84750    1.000
    O129     O        0.78886    0.84220    0.82190    1.000
    O130     O        0.79418    0.70400    0.81520    1.000
    N48      N        0.82840    0.55670    0.88360    1.000
    C118     C        0.85021    0.52980    0.93130    1.000
    C119     C        0.85243    0.48890    0.03100    1.000
    H40      H        0.86780    0.47230    0.06220    1.000
    N49      N        0.83325    0.47330    0.08200    1.000
    C120     C        0.81140    0.49960    0.03460    1.000
    C121     C        0.80904    0.54070    0.93570    1.000
    H41      H        0.79360    0.55760    0.90500    1.000
    C122     C        0.87154    0.54350    0.86720    1.000
    O131     O        0.86735    0.58680    0.78220    1.000
    O132     O        0.89118    0.50880    0.90140    1.000
    C123     C        0.78950    0.47920    0.09330    1.000
    O133     O        0.79330    0.43040    0.17310    1.000
    O134     O        0.76950    0.51030    0.05660    1.000
    N50      N        0.90878    0.17410    0.02700    1.000
    C124     C        0.89405    0.23990    0.03320    1.000
    C125     C        0.89734    0.31320    0.97870    1.000
    H42      H        0.88600    0.35590    0.98130    1.000
    N51      N        0.91628    0.32490    0.92240    1.000
    C126     C        0.93091    0.25890    0.91570    1.000
    C127     C        0.92691    0.18340    0.96540    1.000
    H43      H        0.93710    0.13850    0.95560    1.000
    C128     C        0.87383    0.22950    0.10430    1.000
    O135     O        0.87100    0.15840    0.14390    1.000
    O136     O        0.86143    0.29310    0.11800    1.000
    C129     C        0.95283    0.27220    0.85500    1.000
    O137     O        0.95609    0.34460    0.82060    1.000
    O138     O        0.96635    0.21020    0.84570    1.000
    N52      N        0.97713    0.49130    0.94100    1.000
    C130     C        0.97963    0.49460    0.04800    1.000
    C131     C        0.99741    0.49670    0.89340    1.000
    H44      H        0.99620    0.49470    0.81810    1.000
    C132     C        0.95652    0.48780    0.10120    1.000
    O139     O        0.93739    0.46790    0.04020    1.000
    O140     O        0.95817    0.50150    0.20070    1.000
    N53      N        0.99924    0.06460    0.57500    1.000
    C133     C        0.98335    0.00060    0.56970    1.000
    C134     C        0.01555    0.06360    0.50400    1.000
    H45      H        0.02660    0.10740    0.50380    1.000
    C135     C        0.96425    0.00420    0.64750    1.000
    O141     O        0.96853    0.05200    0.72690    1.000
    O142     O        0.94563    0.95970    0.62510    1.000
    O143     O        0.90765    0.90470    0.22640    1.000
    O144     O        0.94256    0.62170    0.88300    1.000
    O145     O        0.90430    0.40070    0.69820    1.000
    O146     O        0.02430    0.24020    0.89000    1.000
    O147     O        0.91190    0.88630    0.15790    1.000
    N54      N        0.89890    0.86190    0.22410    1.000
    O148     O        0.88740    0.90810    0.27470    1.000
    O149     O        0.89640    0.78170    0.23560    1.000
    O150     O        0.91790    0.38870    0.65320    1.000
    N55      N        0.89650    0.38120    0.65980    1.000
    O151     O        0.88852    0.40400    0.73970    1.000
    O152     O        0.88210    0.35200    0.57850    1.000
    O153     O        0.93495    0.61310    0.92910    1.000
    O154     O        0.03760    0.18510    0.89730    1.000
    O155     O        0.00585    0.31550    0.80590    1.000
    Pr21     Pr       0.27146    0.47643    0.88293    1.000
    Pr22     Pr       0.40404    0.55175    0.17971    1.000
    Pr23     Pr       0.32828    0.16179    0.71412    1.000
    Pr24     Pr       0.43084    0.97180    0.84006    1.000
    N56      N        0.31631    0.44550    0.98800    1.000
    C136     C        0.31904    0.46730    0.09280    1.000
    C137     C        0.34190    0.48180    0.14880    1.000
    H46      H        0.34330    0.49190    0.22300    1.000
    N57      N        0.36195    0.48150    0.09850    1.000
    C138     C        0.35927    0.46020    0.99380    1.000
    C139     C        0.33661    0.43830    0.94010    1.000
    H47      H        0.33560    0.41820    0.86950    1.000
    C140     C        0.29586    0.48390    0.14470    1.000
    O156     O        0.27613    0.48580    0.08210    1.000
    O157     O        0.29863    0.49790    0.24450    1.000
    C141     C        0.38202    0.46530    0.93630    1.000
    O158     O        0.40086    0.49350    0.99190    1.000
    O159     O        0.38035    0.44310    0.83850    1.000
    N58      N        0.25764    0.32810    0.96800    1.000
    C142     C        0.26586    0.25760    0.92710    1.000
    C143     C        0.24200    0.32000    0.04180    1.000
    H48      H        0.23620    0.36750    0.07320    1.000
    C144     C        0.28445    0.26830    0.84750    1.000
    O160     O        0.28886    0.34220    0.82190    1.000
    O161     O        0.29418    0.20400    0.81520    1.000
    N59      N        0.32840    0.05670    0.88360    1.000
    C145     C        0.35021    0.02980    0.93130    1.000
    C146     C        0.35243    0.98890    0.03100    1.000
    H49      H        0.36780    0.97230    0.06220    1.000
    N60      N        0.33325    0.97330    0.08200    1.000
    C147     C        0.31140    0.99960    0.03460    1.000
    C148     C        0.30904    0.04070    0.93570    1.000
    H50      H        0.29360    0.05760    0.90500    1.000
    C149     C        0.37154    0.04350    0.86720    1.000
    O162     O        0.36735    0.08680    0.78220    1.000
    O163     O        0.39118    0.00880    0.90140    1.000
    C150     C        0.28950    0.97920    0.09330    1.000
    O164     O        0.29330    0.93040    0.17310    1.000
    O165     O        0.26950    0.01030    0.05660    1.000
    N61      N        0.40878    0.67410    0.02700    1.000
    C151     C        0.39405    0.73990    0.03320    1.000
    C152     C        0.39734    0.81320    0.97870    1.000
    H51      H        0.38600    0.85590    0.98130    1.000
    N62      N        0.41628    0.82490    0.92240    1.000
    C153     C        0.43091    0.75890    0.91570    1.000
    C154     C        0.42691    0.68340    0.96540    1.000
    H52      H        0.43710    0.63850    0.95560    1.000
    C155     C        0.37383    0.72950    0.10430    1.000
    O166     O        0.37100    0.65840    0.14390    1.000
    O167     O        0.36143    0.79310    0.11800    1.000
    C156     C        0.45283    0.77220    0.85500    1.000
    O168     O        0.45609    0.84460    0.82060    1.000
    O169     O        0.46635    0.71020    0.84570    1.000
    N63      N        0.47713    0.99130    0.94100    1.000
    C157     C        0.47963    0.99460    0.04800    1.000
    C158     C        0.49741    0.99670    0.89340    1.000
    H53      H        0.49620    0.99470    0.81810    1.000
    C159     C        0.45652    0.98780    0.10120    1.000
    O170     O        0.43739    0.96790    0.04020    1.000
    O171     O        0.45817    0.00150    0.20070    1.000
    N64      N        0.49924    0.56460    0.57500    1.000
    C160     C        0.48335    0.50060    0.56970    1.000
    C161     C        0.51555    0.56360    0.50400    1.000
    H54      H        0.52660    0.60740    0.50380    1.000
    C162     C        0.46425    0.50420    0.64750    1.000
    O172     O        0.46853    0.55200    0.72690    1.000
    O173     O        0.44563    0.45970    0.62510    1.000
    O174     O        0.40765    0.40470    0.22640    1.000
    O175     O        0.44256    0.12170    0.88300    1.000
    O176     O        0.40430    0.90070    0.69820    1.000
    O177     O        0.52430    0.74020    0.89000    1.000
    O178     O        0.41190    0.38630    0.15790    1.000
    N65      N        0.39890    0.36190    0.22410    1.000
    O179     O        0.38740    0.40810    0.27470    1.000
    O180     O        0.39640    0.28170    0.23560    1.000
    O181     O        0.41790    0.88870    0.65320    1.000
    N66      N        0.39650    0.88120    0.65980    1.000
    O182     O        0.38852    0.90400    0.73970    1.000
    O183     O        0.38210    0.85200    0.57850    1.000
    O184     O        0.43495    0.11310    0.92910    1.000
    O185     O        0.53760    0.68510    0.89730    1.000
    O186     O        0.50585    0.81550    0.80590    1.000
    Pr25     Pr       0.22854    0.97643    0.61707    1.000
    Pr26     Pr       0.09596    0.05175    0.32029    1.000
    Pr27     Pr       0.17172    0.66179    0.78588    1.000
    Pr28     Pr       0.06916    0.47180    0.65994    1.000
    N67      N        0.18369    0.94550    0.51200    1.000
    C163     C        0.18096    0.96730    0.40720    1.000
    C164     C        0.15810    0.98180    0.35120    1.000
    H55      H        0.15670    0.99190    0.27700    1.000
    N68      N        0.13805    0.98150    0.40150    1.000
    C165     C        0.14073    0.96020    0.50620    1.000
    C166     C        0.16339    0.93830    0.55990    1.000
    H56      H        0.16440    0.91820    0.63050    1.000
    C167     C        0.20414    0.98390    0.35530    1.000
    O187     O        0.22387    0.98580    0.41790    1.000
    O188     O        0.20137    0.99790    0.25550    1.000
    C168     C        0.11798    0.96530    0.56370    1.000
    O189     O        0.09914    0.99350    0.50810    1.000
    O190     O        0.11965    0.94310    0.66150    1.000
    N69      N        0.24236    0.82810    0.53200    1.000
    C169     C        0.23414    0.75760    0.57290    1.000
    C170     C        0.25800    0.82000    0.45820    1.000
    H57      H        0.26380    0.86750    0.42680    1.000
    C171     C        0.21555    0.76830    0.65250    1.000
    O191     O        0.21114    0.84220    0.67810    1.000
    O192     O        0.20582    0.70400    0.68480    1.000
    N70      N        0.17160    0.55670    0.61640    1.000
    C172     C        0.14979    0.52980    0.56870    1.000
    C173     C        0.14757    0.48890    0.46900    1.000
    H58      H        0.13220    0.47230    0.43780    1.000
    N71      N        0.16675    0.47330    0.41800    1.000
    C174     C        0.18860    0.49960    0.46540    1.000
    C175     C        0.19096    0.54070    0.56430    1.000
    H59      H        0.20640    0.55760    0.59500    1.000
    C176     C        0.12846    0.54350    0.63280    1.000
    O193     O        0.13265    0.58680    0.71780    1.000
    O194     O        0.10882    0.50880    0.59860    1.000
    C177     C        0.21050    0.47920    0.40670    1.000
    O195     O        0.20670    0.43040    0.32690    1.000
    O196     O        0.23050    0.51030    0.44340    1.000
    N72      N        0.09122    0.17410    0.47300    1.000
    C178     C        0.10595    0.23990    0.46680    1.000
    C179     C        0.10266    0.31320    0.52130    1.000
    H60      H        0.11400    0.35590    0.51870    1.000
    N73      N        0.08372    0.32490    0.57760    1.000
    C180     C        0.06909    0.25890    0.58430    1.000
    C181     C        0.07309    0.18340    0.53460    1.000
    H61      H        0.06290    0.13850    0.54440    1.000
    C182     C        0.12617    0.22950    0.39570    1.000
    O197     O        0.12900    0.15840    0.35610    1.000
    O198     O        0.13857    0.29310    0.38200    1.000
    C183     C        0.04717    0.27220    0.64500    1.000
    O199     O        0.04391    0.34460    0.67940    1.000
    O200     O        0.03365    0.21020    0.65430    1.000
    N74      N        0.02287    0.49130    0.55900    1.000
    C184     C        0.02037    0.49460    0.45200    1.000
    C185     C        0.00259    0.49670    0.60660    1.000
    H62      H        0.00380    0.49470    0.68190    1.000
    C186     C        0.04348    0.48780    0.39880    1.000
    O201     O        0.06261    0.46790    0.45980    1.000
    O202     O        0.04183    0.50150    0.29930    1.000
    N75      N        0.00076    0.06460    0.92500    1.000
    C187     C        0.01665    0.00060    0.93030    1.000
    C188     C        0.98445    0.06360    0.99600    1.000
    H63      H        0.97340    0.10740    0.99620    1.000
    C189     C        0.03575    0.00420    0.85250    1.000
    O203     O        0.03147    0.05200    0.77310    1.000
    O204     O        0.05437    0.95970    0.87490    1.000
    O205     O        0.09235    0.90470    0.27360    1.000
    O206     O        0.05744    0.62170    0.61700    1.000
    O207     O        0.09570    0.40070    0.80180    1.000
    O208     O        0.97570    0.24020    0.61000    1.000
    O209     O        0.08810    0.88630    0.34210    1.000
    N76      N        0.10110    0.86190    0.27590    1.000
    O210     O        0.11260    0.90810    0.22530    1.000
    O211     O        0.10360    0.78170    0.26440    1.000
    O212     O        0.08210    0.38870    0.84680    1.000
    N77      N        0.10350    0.38120    0.84020    1.000
    O213     O        0.11148    0.40400    0.76030    1.000
    O214     O        0.11790    0.35200    0.92150    1.000
    O215     O        0.06505    0.61310    0.57090    1.000
    O216     O        0.96240    0.18510    0.60270    1.000
    O217     O        0.99415    0.31550    0.69410    1.000
    Pr29     Pr       0.72854    0.47643    0.61707    1.000
    Pr30     Pr       0.59596    0.55175    0.32029    1.000
    Pr31     Pr       0.67172    0.16179    0.78588    1.000
    Pr32     Pr       0.56916    0.97180    0.65994    1.000
    N78      N        0.68369    0.44550    0.51200    1.000
    C190     C        0.68096    0.46730    0.40720    1.000
    C191     C        0.65810    0.48180    0.35120    1.000
    H64      H        0.65670    0.49190    0.27700    1.000
    N79      N        0.63805    0.48150    0.40150    1.000
    C192     C        0.64073    0.46020    0.50620    1.000
    C193     C        0.66339    0.43830    0.55990    1.000
    H65      H        0.66440    0.41820    0.63050    1.000
    C194     C        0.70414    0.48390    0.35530    1.000
    O218     O        0.72387    0.48580    0.41790    1.000
    O219     O        0.70137    0.49790    0.25550    1.000
    C195     C        0.61798    0.46530    0.56370    1.000
    O220     O        0.59914    0.49350    0.50810    1.000
    O221     O        0.61965    0.44310    0.66150    1.000
    N80      N        0.74236    0.32810    0.53200    1.000
    C196     C        0.73414    0.25760    0.57290    1.000
    C197     C        0.75800    0.32000    0.45820    1.000
    H66      H        0.76380    0.36750    0.42680    1.000
    C198     C        0.71555    0.26830    0.65250    1.000
    O222     O        0.71114    0.34220    0.67810    1.000
    O223     O        0.70582    0.20400    0.68480    1.000
    N81      N        0.67160    0.05670    0.61640    1.000
    C199     C        0.64979    0.02980    0.56870    1.000
    C200     C        0.64757    0.98890    0.46900    1.000
    H67      H        0.63220    0.97230    0.43780    1.000
    N82      N        0.66675    0.97330    0.41800    1.000
    C201     C        0.68860    0.99960    0.46540    1.000
    C202     C        0.69096    0.04070    0.56430    1.000
    H68      H        0.70640    0.05760    0.59500    1.000
    C203     C        0.62846    0.04350    0.63280    1.000
    O224     O        0.63265    0.08680    0.71780    1.000
    O225     O        0.60882    0.00880    0.59860    1.000
    C204     C        0.71050    0.97920    0.40670    1.000
    O226     O        0.70670    0.93040    0.32690    1.000
    O227     O        0.73050    0.01030    0.44340    1.000
    N83      N        0.59122    0.67410    0.47300    1.000
    C205     C        0.60595    0.73990    0.46680    1.000
    C206     C        0.60266    0.81320    0.52130    1.000
    H69      H        0.61400    0.85590    0.51870    1.000
    N84      N        0.58372    0.82490    0.57760    1.000
    C207     C        0.56909    0.75890    0.58430    1.000
    C208     C        0.57309    0.68340    0.53460    1.000
    H70      H        0.56290    0.63850    0.54440    1.000
    C209     C        0.62617    0.72950    0.39570    1.000
    O228     O        0.62900    0.65840    0.35610    1.000
    O229     O        0.63857    0.79310    0.38200    1.000
    C210     C        0.54717    0.77220    0.64500    1.000
    O230     O        0.54391    0.84460    0.67940    1.000
    O231     O        0.53365    0.71020    0.65430    1.000
    N85      N        0.52287    0.99130    0.55900    1.000
    C211     C        0.52037    0.99460    0.45200    1.000
    C212     C        0.50259    0.99670    0.60660    1.000
    H71      H        0.50380    0.99470    0.68190    1.000
    C213     C        0.54348    0.98780    0.39880    1.000
    O232     O        0.56261    0.96790    0.45980    1.000
    O233     O        0.54183    0.00150    0.29930    1.000
    N86      N        0.50076    0.56460    0.92500    1.000
    C214     C        0.51665    0.50060    0.93030    1.000
    C215     C        0.48445    0.56360    0.99600    1.000
    H72      H        0.47340    0.60740    0.99620    1.000
    C216     C        0.53575    0.50420    0.85250    1.000
    O234     O        0.53147    0.55200    0.77310    1.000
    O235     O        0.55437    0.45970    0.87490    1.000
    O236     O        0.59235    0.40470    0.27360    1.000
    O237     O        0.55744    0.12170    0.61700    1.000
    O238     O        0.59570    0.90070    0.80180    1.000
    O239     O        0.47570    0.74020    0.61000    1.000
    O240     O        0.58810    0.38630    0.34210    1.000
    N87      N        0.60110    0.36190    0.27590    1.000
    O241     O        0.61260    0.40810    0.22530    1.000
    O242     O        0.60360    0.28170    0.26440    1.000
    O243     O        0.58210    0.88870    0.84680    1.000
    N88      N        0.60350    0.88120    0.84020    1.000
    O244     O        0.61148    0.90400    0.76030    1.000
    O245     O        0.61790    0.85200    0.92150    1.000
    O246     O        0.56505    0.11310    0.57090    1.000
    O247     O        0.46240    0.68510    0.60270    1.000
    O248     O        0.49415    0.81550    0.69410    1.000
    Pr33     Pr       0.00000    0.83694    0.25000    1.000
    Pr34     Pr       0.50000    0.33694    0.25000    1.000
    Pr35     Pr       0.00000    0.16306    0.75000    1.000
    Pr36     Pr       0.50000    0.66306    0.75000    1.000
