# CIF file generated by openbabel 3.1.0, see https://openbabel.org
data_I
_chemical_name_common 'image0'
_cell_length_a 16.765
_cell_length_b 28.419
_cell_length_c 11.636
_cell_angle_alpha 90
_cell_angle_beta 99.94
_cell_angle_gamma 90
_space_group_name_H-M_alt 'P 1'
_space_group_name_Hall 'P 1'
loop_
    _symmetry_equiv_pos_as_xyz
    x,y,z
loop_
    _atom_site_label
    _atom_site_type_symbol
    _atom_site_fract_x
    _atom_site_fract_y
    _atom_site_fract_z
    _atom_site_occupancy
    Zn1      Zn       0.98804    0.64012    0.60118    1.000
    O1       O        0.46870    0.20472    0.65670    1.000
    O2       O        0.90140    0.60216    0.64820    1.000
    O3       O        0.90010    0.62677    0.82880    1.000
    C1       C        0.87080    0.60478    0.73760    1.000
    C2       C        0.79200    0.57974    0.73840    1.000
    C3       C        0.75500    0.58060    0.83430    1.000
    H1       H        0.77840    0.59810    0.90130    1.000
    C4       C        0.68240    0.55575    0.83410    1.000
    H2       H        0.65640    0.55720    0.90040    1.000
    C5       C        0.64870    0.52944    0.73920    1.000
    C6       C        0.68530    0.52880    0.64330    1.000
    H3       H        0.66200    0.51110    0.57680    1.000
    C7       C        0.75590    0.55370    0.64200    1.000
    H4       H        0.78030    0.55310    0.57410    1.000
    C8       C        0.57130    0.50320    0.74150    1.000
    C9       C        0.48500    0.60508    0.84770    1.000
    H5       H        0.47430    0.58850    0.91440    1.000
    C10      C        0.48550    0.65370    0.84830    1.000
    H6       H        0.47600    0.67030    0.91550    1.000
    C11      C        0.57120    0.45346    0.74200    1.000
    C12      C        0.64640    0.42719    0.72980    1.000
    C13      C        0.71390    0.43030    0.81530    1.000
    H7       H        0.71310    0.45020    0.88060    1.000
    C14      C        0.78340    0.40450    0.80730    1.000
    H8       H        0.82960    0.40680    0.86700    1.000
    C15      C        0.78490    0.37560    0.71300    1.000
    H9       H        0.83190    0.35750    0.70830    1.000
    C16      C        0.71890    0.37290    0.62570    1.000
    H10      H        0.72110    0.35360    0.55970    1.000
    C17      C        0.64790    0.39832    0.63230    1.000
    H11      H        0.60190    0.39600    0.57220    1.000
    C18      C        0.45300    0.35133    0.66110    1.000
    H12      H        0.41990    0.36780    0.59960    1.000
    C19      C        0.45330    0.30293    0.66020    1.000
    H13      H        0.42130    0.28650    0.59760    1.000
    Cl1      Cl       0.98750    0.63717    0.41030    1.000
    O4       O        0.00810    0.57250    0.52440    1.000
    N1       N        0.98590    0.51980    0.37080    1.000
    C20      C        0.01710    0.56230    0.42840    1.000
    C21      C        0.07740    0.58010    0.35700    1.000
    H14      H        0.11640    0.55520    0.34930    1.000
    H15      H        0.10600    0.60730    0.39650    1.000
    H16      H        0.04910    0.58950    0.28000    1.000
    C22      C        0.92890    0.49630    0.43700    1.000
    H17      H        0.87700    0.51300    0.42390    1.000
    H18      H        0.95170    0.49650    0.52030    1.000
    H19      H        0.92030    0.46370    0.41010    1.000
    H20      H        0.03820    0.53020    0.22980    1.000
    H21      H        0.02250    0.47670    0.25030    1.000
    H22      H        0.95090    0.50930    0.19380    1.000
    O5       O        0.94510    0.66710    0.44550    1.000
    H23      H        0.97090    0.66590    0.38980    1.000
    H24      H        0.89570    0.67130    0.41980    1.000
    Zn2      Zn       0.48804    0.14012    0.60118    1.000
    O6       O        0.96870    0.70472    0.65670    1.000
    O7       O        0.40140    0.10216    0.64820    1.000
    O8       O        0.40010    0.12677    0.82880    1.000
    C23      C        0.37080    0.10478    0.73760    1.000
    C24      C        0.29200    0.07974    0.73840    1.000
    C25      C        0.25500    0.08060    0.83430    1.000
    H25      H        0.27840    0.09810    0.90130    1.000
    C26      C        0.18240    0.05575    0.83410    1.000
    H26      H        0.15640    0.05720    0.90040    1.000
    C27      C        0.14870    0.02944    0.73920    1.000
    C28      C        0.18530    0.02880    0.64330    1.000
    H27      H        0.16200    0.01110    0.57680    1.000
    C29      C        0.25590    0.05370    0.64200    1.000
    H28      H        0.28030    0.05310    0.57410    1.000
    C30      C        0.07130    0.00320    0.74150    1.000
    C31      C        0.98500    0.10508    0.84770    1.000
    H29      H        0.97430    0.08850    0.91440    1.000
    C32      C        0.98550    0.15370    0.84830    1.000
    H30      H        0.97600    0.17030    0.91550    1.000
    C33      C        0.07120    0.95346    0.74200    1.000
    C34      C        0.14640    0.92719    0.72980    1.000
    C35      C        0.21390    0.93030    0.81530    1.000
    H31      H        0.21310    0.95020    0.88060    1.000
    C36      C        0.28340    0.90450    0.80730    1.000
    H32      H        0.32960    0.90680    0.86700    1.000
    C37      C        0.28490    0.87560    0.71300    1.000
    H33      H        0.33190    0.85750    0.70830    1.000
    C38      C        0.21890    0.87290    0.62570    1.000
    H34      H        0.22110    0.85360    0.55970    1.000
    C39      C        0.14790    0.89832    0.63230    1.000
    H35      H        0.10190    0.89600    0.57220    1.000
    C40      C        0.95300    0.85133    0.66110    1.000
    H36      H        0.91990    0.86780    0.59960    1.000
    C41      C        0.95330    0.80293    0.66020    1.000
    H37      H        0.92130    0.78650    0.59760    1.000
    Cl2      Cl       0.48750    0.13717    0.41030    1.000
    O9       O        0.50810    0.07250    0.52440    1.000
    N2       N        0.48590    0.01980    0.37080    1.000
    C42      C        0.51710    0.06230    0.42840    1.000
    C43      C        0.57740    0.08010    0.35700    1.000
    H38      H        0.61640    0.05520    0.34930    1.000
    H39      H        0.60600    0.10730    0.39650    1.000
    H40      H        0.54910    0.08950    0.28000    1.000
    C44      C        0.42890    0.99630    0.43700    1.000
    H41      H        0.37700    0.01300    0.42390    1.000
    H42      H        0.45170    0.99650    0.52030    1.000
    H43      H        0.42030    0.96370    0.41010    1.000
    H44      H        0.53820    0.03020    0.22980    1.000
    H45      H        0.52250    0.97670    0.25030    1.000
    H46      H        0.45090    0.00930    0.19380    1.000
    O10      O        0.44510    0.16710    0.44550    1.000
    H47      H        0.47090    0.16590    0.38980    1.000
    H48      H        0.39570    0.17130    0.41980    1.000
    Zn3      Zn       0.01196    0.64012    0.89882    1.000
    O11      O        0.53130    0.20472    0.84330    1.000
    O12      O        0.09860    0.60216    0.85180    1.000
    O13      O        0.09990    0.62677    0.67120    1.000
    C45      C        0.12920    0.60478    0.76240    1.000
    C46      C        0.20800    0.57974    0.76160    1.000
    C47      C        0.24500    0.58060    0.66570    1.000
    H49      H        0.22160    0.59810    0.59870    1.000
    C48      C        0.31760    0.55575    0.66590    1.000
    H50      H        0.34360    0.55720    0.59960    1.000
    C49      C        0.35130    0.52944    0.76080    1.000
    C50      C        0.31470    0.52880    0.85670    1.000
    H51      H        0.33800    0.51110    0.92320    1.000
    C51      C        0.24410    0.55370    0.85800    1.000
    H52      H        0.21970    0.55310    0.92590    1.000
    C52      C        0.42870    0.50320    0.75850    1.000
    C53      C        0.51500    0.60508    0.65230    1.000
    H53      H        0.52570    0.58850    0.58560    1.000
    C54      C        0.51450    0.65370    0.65170    1.000
    H54      H        0.52400    0.67030    0.58450    1.000
    C55      C        0.42880    0.45346    0.75800    1.000
    C56      C        0.35360    0.42719    0.77020    1.000
    C57      C        0.28610    0.43030    0.68470    1.000
    H55      H        0.28690    0.45020    0.61940    1.000
    C58      C        0.21660    0.40450    0.69270    1.000
    H56      H        0.17040    0.40680    0.63300    1.000
    C59      C        0.21510    0.37560    0.78700    1.000
    H57      H        0.16810    0.35750    0.79170    1.000
    C60      C        0.28110    0.37290    0.87430    1.000
    H58      H        0.27890    0.35360    0.94030    1.000
    C61      C        0.35210    0.39832    0.86770    1.000
    H59      H        0.39810    0.39600    0.92780    1.000
    C62      C        0.54700    0.35133    0.83890    1.000
    H60      H        0.58010    0.36780    0.90040    1.000
    C63      C        0.54670    0.30293    0.83980    1.000
    H61      H        0.57870    0.28650    0.90240    1.000
    Cl3      Cl       0.01250    0.63717    0.08970    1.000
    O14      O        0.99190    0.57250    0.97560    1.000
    N3       N        0.01410    0.51980    0.12920    1.000
    C64      C        0.98290    0.56230    0.07160    1.000
    C65      C        0.92260    0.58010    0.14300    1.000
    H62      H        0.88360    0.55520    0.15070    1.000
    H63      H        0.89400    0.60730    0.10350    1.000
    H64      H        0.95090    0.58950    0.22000    1.000
    C66      C        0.07110    0.49630    0.06300    1.000
    H65      H        0.12300    0.51300    0.07610    1.000
    H66      H        0.04830    0.49650    0.97970    1.000
    H67      H        0.07970    0.46370    0.08990    1.000
    H68      H        0.96180    0.53020    0.27020    1.000
    H69      H        0.97750    0.47670    0.24970    1.000
    H70      H        0.04910    0.50930    0.30620    1.000
    O15      O        0.05490    0.66710    0.05450    1.000
    H71      H        0.02910    0.66590    0.11020    1.000
    H72      H        0.10430    0.67130    0.08020    1.000
    Zn4      Zn       0.51196    0.14012    0.89882    1.000
    O16      O        0.03130    0.70472    0.84330    1.000
    O17      O        0.59860    0.10216    0.85180    1.000
    O18      O        0.59990    0.12677    0.67120    1.000
    C67      C        0.62920    0.10478    0.76240    1.000
    C68      C        0.70800    0.07974    0.76160    1.000
    C69      C        0.74500    0.08060    0.66570    1.000
    H73      H        0.72160    0.09810    0.59870    1.000
    C70      C        0.81760    0.05575    0.66590    1.000
    H74      H        0.84360    0.05720    0.59960    1.000
    C71      C        0.85130    0.02944    0.76080    1.000
    C72      C        0.81470    0.02880    0.85670    1.000
    H75      H        0.83800    0.01110    0.92320    1.000
    C73      C        0.74410    0.05370    0.85800    1.000
    H76      H        0.71970    0.05310    0.92590    1.000
    C74      C        0.92870    0.00320    0.75850    1.000
    C75      C        0.01500    0.10508    0.65230    1.000
    H77      H        0.02570    0.08850    0.58560    1.000
    C76      C        0.01450    0.15370    0.65170    1.000
    H78      H        0.02400    0.17030    0.58450    1.000
    C77      C        0.92880    0.95346    0.75800    1.000
    C78      C        0.85360    0.92719    0.77020    1.000
    C79      C        0.78610    0.93030    0.68470    1.000
    H79      H        0.78690    0.95020    0.61940    1.000
    C80      C        0.71660    0.90450    0.69270    1.000
    H80      H        0.67040    0.90680    0.63300    1.000
    C81      C        0.71510    0.87560    0.78700    1.000
    H81      H        0.66810    0.85750    0.79170    1.000
    C82      C        0.78110    0.87290    0.87430    1.000
    H82      H        0.77890    0.85360    0.94030    1.000
    C83      C        0.85210    0.89832    0.86770    1.000
    H83      H        0.89810    0.89600    0.92780    1.000
    C84      C        0.04700    0.85133    0.83890    1.000
    H84      H        0.08010    0.86780    0.90040    1.000
    C85      C        0.04670    0.80293    0.83980    1.000
    H85      H        0.07870    0.78650    0.90240    1.000
    Cl4      Cl       0.51250    0.13717    0.08970    1.000
    O19      O        0.49190    0.07250    0.97560    1.000
    N4       N        0.51410    0.01980    0.12920    1.000
    C86      C        0.48290    0.06230    0.07160    1.000
    C87      C        0.42260    0.08010    0.14300    1.000
    H86      H        0.38360    0.05520    0.15070    1.000
    H87      H        0.39400    0.10730    0.10350    1.000
    H88      H        0.45090    0.08950    0.22000    1.000
    C88      C        0.57110    0.99630    0.06300    1.000
    H89      H        0.62300    0.01300    0.07610    1.000
    H90      H        0.54830    0.99650    0.97970    1.000
    H91      H        0.57970    0.96370    0.08990    1.000
    H92      H        0.46180    0.03020    0.27020    1.000
    H93      H        0.47750    0.97670    0.24970    1.000
    H94      H        0.54910    0.00930    0.30620    1.000
    O20      O        0.55490    0.16710    0.05450    1.000
    H95      H        0.52910    0.16590    0.11020    1.000
    H96      H        0.60430    0.17130    0.08020    1.000
    C89      C        0.50000    0.52710    0.75000    1.000
    C90      C        0.50000    0.57970    0.75000    1.000
    C91      C        0.50000    0.67850    0.75000    1.000
    H97      H        0.50000    0.71200    0.75000    1.000
    C92      C        0.50000    0.42930    0.75000    1.000
    C93      C        0.50000    0.37650    0.75000    1.000
    C94      C        0.50000    0.27800    0.75000    1.000
    C95      C        0.50000    0.22530    0.75000    1.000
    C96      C        0.00000    0.02710    0.75000    1.000
    C97      C        0.00000    0.07970    0.75000    1.000
    C98      C        0.00000    0.17850    0.75000    1.000
    H98      H        0.00000    0.21200    0.75000    1.000
    C99      C        0.00000    0.92930    0.75000    1.000
    C100     C        0.00000    0.87650    0.75000    1.000
    C101     C        0.00000    0.77800    0.75000    1.000
    C102     C        0.00000    0.72530    0.75000    1.000
    C103     C        0.00000    0.50779    0.25000    1.000
    C104     C        0.50000    0.00779    0.25000    1.000
    Zn5      Zn       0.01196    0.35988    0.39882    1.000
    O21      O        0.53130    0.79528    0.34330    1.000
    O22      O        0.09860    0.39784    0.35180    1.000
    O23      O        0.09990    0.37323    0.17120    1.000
    C105     C        0.12920    0.39522    0.26240    1.000
    C106     C        0.20800    0.42026    0.26160    1.000
    C107     C        0.24500    0.41940    0.16570    1.000
    H99      H        0.22160    0.40190    0.09870    1.000
    C108     C        0.31760    0.44425    0.16590    1.000
    H100     H        0.34360    0.44280    0.09960    1.000
    C109     C        0.35130    0.47056    0.26080    1.000
    C110     C        0.31470    0.47120    0.35670    1.000
    H101     H        0.33800    0.48890    0.42320    1.000
    C111     C        0.24410    0.44630    0.35800    1.000
    H102     H        0.21970    0.44690    0.42590    1.000
    C112     C        0.42870    0.49680    0.25850    1.000
    C113     C        0.51500    0.39492    0.15230    1.000
    H103     H        0.52570    0.41150    0.08560    1.000
    C114     C        0.51450    0.34630    0.15170    1.000
    H104     H        0.52400    0.32970    0.08450    1.000
    C115     C        0.42880    0.54654    0.25800    1.000
    C116     C        0.35360    0.57281    0.27020    1.000
    C117     C        0.28610    0.56970    0.18470    1.000
    H105     H        0.28690    0.54980    0.11940    1.000
    C118     C        0.21660    0.59550    0.19270    1.000
    H106     H        0.17040    0.59320    0.13300    1.000
    C119     C        0.21510    0.62440    0.28700    1.000
    H107     H        0.16810    0.64250    0.29170    1.000
    C120     C        0.28110    0.62710    0.37430    1.000
    H108     H        0.27890    0.64640    0.44030    1.000
    C121     C        0.35210    0.60168    0.36770    1.000
    H109     H        0.39810    0.60400    0.42780    1.000
    C122     C        0.54700    0.64867    0.33890    1.000
    H110     H        0.58010    0.63220    0.40040    1.000
    C123     C        0.54670    0.69707    0.33980    1.000
    H111     H        0.57870    0.71350    0.40240    1.000
    Cl5      Cl       0.01250    0.36283    0.58970    1.000
    O24      O        0.99190    0.42750    0.47560    1.000
    N5       N        0.01410    0.48020    0.62920    1.000
    C124     C        0.98290    0.43770    0.57160    1.000
    C125     C        0.92260    0.41990    0.64300    1.000
    H112     H        0.88360    0.44480    0.65070    1.000
    H113     H        0.89400    0.39270    0.60350    1.000
    H114     H        0.95090    0.41050    0.72000    1.000
    C126     C        0.07110    0.50370    0.56300    1.000
    H115     H        0.12300    0.48700    0.57610    1.000
    H116     H        0.04830    0.50350    0.47970    1.000
    H117     H        0.07970    0.53630    0.58990    1.000
    H118     H        0.96180    0.46980    0.77020    1.000
    H119     H        0.97750    0.52330    0.74970    1.000
    H120     H        0.04910    0.49070    0.80620    1.000
    O25      O        0.05490    0.33290    0.55450    1.000
    H121     H        0.02910    0.33410    0.61020    1.000
    H122     H        0.10430    0.32870    0.58020    1.000
    Zn6      Zn       0.51196    0.85988    0.39882    1.000
    O26      O        0.03130    0.29528    0.34330    1.000
    O27      O        0.59860    0.89784    0.35180    1.000
    O28      O        0.59990    0.87323    0.17120    1.000
    C127     C        0.62920    0.89522    0.26240    1.000
    C128     C        0.70800    0.92026    0.26160    1.000
    C129     C        0.74500    0.91940    0.16570    1.000
    H123     H        0.72160    0.90190    0.09870    1.000
    C130     C        0.81760    0.94425    0.16590    1.000
    H124     H        0.84360    0.94280    0.09960    1.000
    C131     C        0.85130    0.97056    0.26080    1.000
    C132     C        0.81470    0.97120    0.35670    1.000
    H125     H        0.83800    0.98890    0.42320    1.000
    C133     C        0.74410    0.94630    0.35800    1.000
    H126     H        0.71970    0.94690    0.42590    1.000
    C134     C        0.92870    0.99680    0.25850    1.000
    C135     C        0.01500    0.89492    0.15230    1.000
    H127     H        0.02570    0.91150    0.08560    1.000
    C136     C        0.01450    0.84630    0.15170    1.000
    H128     H        0.02400    0.82970    0.08450    1.000
    C137     C        0.92880    0.04654    0.25800    1.000
    C138     C        0.85360    0.07281    0.27020    1.000
    C139     C        0.78610    0.06970    0.18470    1.000
    H129     H        0.78690    0.04980    0.11940    1.000
    C140     C        0.71660    0.09550    0.19270    1.000
    H130     H        0.67040    0.09320    0.13300    1.000
    C141     C        0.71510    0.12440    0.28700    1.000
    H131     H        0.66810    0.14250    0.29170    1.000
    C142     C        0.78110    0.12710    0.37430    1.000
    H132     H        0.77890    0.14640    0.44030    1.000
    C143     C        0.85210    0.10168    0.36770    1.000
    H133     H        0.89810    0.10400    0.42780    1.000
    C144     C        0.04700    0.14867    0.33890    1.000
    H134     H        0.08010    0.13220    0.40040    1.000
    C145     C        0.04670    0.19707    0.33980    1.000
    H135     H        0.07870    0.21350    0.40240    1.000
    Cl6      Cl       0.51250    0.86283    0.58970    1.000
    O29      O        0.49190    0.92750    0.47560    1.000
    N6       N        0.51410    0.98020    0.62920    1.000
    C146     C        0.48290    0.93770    0.57160    1.000
    C147     C        0.42260    0.91990    0.64300    1.000
    H136     H        0.38360    0.94480    0.65070    1.000
    H137     H        0.39400    0.89270    0.60350    1.000
    H138     H        0.45090    0.91050    0.72000    1.000
    C148     C        0.57110    0.00370    0.56300    1.000
    H139     H        0.62300    0.98700    0.57610    1.000
    H140     H        0.54830    0.00350    0.47970    1.000
    H141     H        0.57970    0.03630    0.58990    1.000
    H142     H        0.46180    0.96980    0.77020    1.000
    H143     H        0.47750    0.02330    0.74970    1.000
    H144     H        0.54910    0.99070    0.80620    1.000
    O30      O        0.55490    0.83290    0.55450    1.000
    H145     H        0.52910    0.83410    0.61020    1.000
    H146     H        0.60430    0.82870    0.58020    1.000
    Zn7      Zn       0.98804    0.35988    0.10118    1.000
    O31      O        0.46870    0.79528    0.15670    1.000
    O32      O        0.90140    0.39784    0.14820    1.000
    O33      O        0.90010    0.37323    0.32880    1.000
    C149     C        0.87080    0.39522    0.23760    1.000
    C150     C        0.79200    0.42026    0.23840    1.000
    C151     C        0.75500    0.41940    0.33430    1.000
    H147     H        0.77840    0.40190    0.40130    1.000
    C152     C        0.68240    0.44425    0.33410    1.000
    H148     H        0.65640    0.44280    0.40040    1.000
    C153     C        0.64870    0.47056    0.23920    1.000
    C154     C        0.68530    0.47120    0.14330    1.000
    H149     H        0.66200    0.48890    0.07680    1.000
    C155     C        0.75590    0.44630    0.14200    1.000
    H150     H        0.78030    0.44690    0.07410    1.000
    C156     C        0.57130    0.49680    0.24150    1.000
    C157     C        0.48500    0.39492    0.34770    1.000
    H151     H        0.47430    0.41150    0.41440    1.000
    C158     C        0.48550    0.34630    0.34830    1.000
    H152     H        0.47600    0.32970    0.41550    1.000
    C159     C        0.57120    0.54654    0.24200    1.000
    C160     C        0.64640    0.57281    0.22980    1.000
    C161     C        0.71390    0.56970    0.31530    1.000
    H153     H        0.71310    0.54980    0.38060    1.000
    C162     C        0.78340    0.59550    0.30730    1.000
    H154     H        0.82960    0.59320    0.36700    1.000
    C163     C        0.78490    0.62440    0.21300    1.000
    H155     H        0.83190    0.64250    0.20830    1.000
    C164     C        0.71890    0.62710    0.12570    1.000
    H156     H        0.72110    0.64640    0.05970    1.000
    C165     C        0.64790    0.60168    0.13230    1.000
    H157     H        0.60190    0.60400    0.07220    1.000
    C166     C        0.45300    0.64867    0.16110    1.000
    H158     H        0.41990    0.63220    0.09960    1.000
    C167     C        0.45330    0.69707    0.16020    1.000
    H159     H        0.42130    0.71350    0.09760    1.000
    Cl7      Cl       0.98750    0.36283    0.91030    1.000
    O34      O        0.00810    0.42750    0.02440    1.000
    N7       N        0.98590    0.48020    0.87080    1.000
    C168     C        0.01710    0.43770    0.92840    1.000
    C169     C        0.07740    0.41990    0.85700    1.000
    H160     H        0.11640    0.44480    0.84930    1.000
    H161     H        0.10600    0.39270    0.89650    1.000
    H162     H        0.04910    0.41050    0.78000    1.000
    C170     C        0.92890    0.50370    0.93700    1.000
    H163     H        0.87700    0.48700    0.92390    1.000
    H164     H        0.95170    0.50350    0.02030    1.000
    H165     H        0.92030    0.53630    0.91010    1.000
    H166     H        0.03820    0.46980    0.72980    1.000
    H167     H        0.02250    0.52330    0.75030    1.000
    H168     H        0.95090    0.49070    0.69380    1.000
    O35      O        0.94510    0.33290    0.94550    1.000
    H169     H        0.97090    0.33410    0.88980    1.000
    H170     H        0.89570    0.32870    0.91980    1.000
    Zn8      Zn       0.48804    0.85988    0.10118    1.000
    O36      O        0.96870    0.29528    0.15670    1.000
    O37      O        0.40140    0.89784    0.14820    1.000
    O38      O        0.40010    0.87323    0.32880    1.000
    C171     C        0.37080    0.89522    0.23760    1.000
    C172     C        0.29200    0.92026    0.23840    1.000
    C173     C        0.25500    0.91940    0.33430    1.000
    H171     H        0.27840    0.90190    0.40130    1.000
    C174     C        0.18240    0.94425    0.33410    1.000
    H172     H        0.15640    0.94280    0.40040    1.000
    C175     C        0.14870    0.97056    0.23920    1.000
    C176     C        0.18530    0.97120    0.14330    1.000
    H173     H        0.16200    0.98890    0.07680    1.000
    C177     C        0.25590    0.94630    0.14200    1.000
    H174     H        0.28030    0.94690    0.07410    1.000
    C178     C        0.07130    0.99680    0.24150    1.000
    C179     C        0.98500    0.89492    0.34770    1.000
    H175     H        0.97430    0.91150    0.41440    1.000
    C180     C        0.98550    0.84630    0.34830    1.000
    H176     H        0.97600    0.82970    0.41550    1.000
    C181     C        0.07120    0.04654    0.24200    1.000
    C182     C        0.14640    0.07281    0.22980    1.000
    C183     C        0.21390    0.06970    0.31530    1.000
    H177     H        0.21310    0.04980    0.38060    1.000
    C184     C        0.28340    0.09550    0.30730    1.000
    H178     H        0.32960    0.09320    0.36700    1.000
    C185     C        0.28490    0.12440    0.21300    1.000
    H179     H        0.33190    0.14250    0.20830    1.000
    C186     C        0.21890    0.12710    0.12570    1.000
    H180     H        0.22110    0.14640    0.05970    1.000
    C187     C        0.14790    0.10168    0.13230    1.000
    H181     H        0.10190    0.10400    0.07220    1.000
    C188     C        0.95300    0.14867    0.16110    1.000
    H182     H        0.91990    0.13220    0.09960    1.000
    C189     C        0.95330    0.19707    0.16020    1.000
    H183     H        0.92130    0.21350    0.09760    1.000
    Cl8      Cl       0.48750    0.86283    0.91030    1.000
    O39      O        0.50810    0.92750    0.02440    1.000
    N8       N        0.48590    0.98020    0.87080    1.000
    C190     C        0.51710    0.93770    0.92840    1.000
    C191     C        0.57740    0.91990    0.85700    1.000
    H184     H        0.61640    0.94480    0.84930    1.000
    H185     H        0.60600    0.89270    0.89650    1.000
    H186     H        0.54910    0.91050    0.78000    1.000
    C192     C        0.42890    0.00370    0.93700    1.000
    H187     H        0.37700    0.98700    0.92390    1.000
    H188     H        0.45170    0.00350    0.02030    1.000
    H189     H        0.42030    0.03630    0.91010    1.000
    H190     H        0.53820    0.96980    0.72980    1.000
    H191     H        0.52250    0.02330    0.75030    1.000
    H192     H        0.45090    0.99070    0.69380    1.000
    O40      O        0.44510    0.83290    0.94550    1.000
    H193     H        0.47090    0.83410    0.88980    1.000
    H194     H        0.39570    0.82870    0.91980    1.000
    C193     C        0.50000    0.47290    0.25000    1.000
    C194     C        0.50000    0.42030    0.25000    1.000
    C195     C        0.50000    0.32150    0.25000    1.000
    H195     H        0.50000    0.28800    0.25000    1.000
    C196     C        0.50000    0.57070    0.25000    1.000
    C197     C        0.50000    0.62350    0.25000    1.000
    C198     C        0.50000    0.72200    0.25000    1.000
    C199     C        0.50000    0.77470    0.25000    1.000
    C200     C        0.00000    0.97290    0.25000    1.000
    C201     C        0.00000    0.92030    0.25000    1.000
    C202     C        0.00000    0.82150    0.25000    1.000
    H196     H        0.00000    0.78800    0.25000    1.000
    C203     C        0.00000    0.07070    0.25000    1.000
    C204     C        0.00000    0.12350    0.25000    1.000
    C205     C        0.00000    0.22200    0.25000    1.000
    C206     C        0.00000    0.27470    0.25000    1.000
    C207     C        0.00000    0.49221    0.75000    1.000
    C208     C        0.50000    0.99221    0.75000    1.000
