data_functionalizedCrystal
_audit_creation_method	'EQeq! by Chris Wilmer'
_symmetry_space_group_name_H-M	'P1'
_symmetry_Int_Tables_number	1
_symmetry_cell_setting	triclinic
loop_
_symmetry_equiv_pos_as_xyz
  x,y,z
_cell_length_a	16.4071
_cell_length_b	11.8075
_cell_length_c	15.2832
_cell_angle_alpha	90
_cell_angle_beta	90
_cell_angle_gamma	90
loop_
_atom_site_label
_atom_site_type_symbol
_atom_site_fract_x
_atom_site_fract_y
_atom_site_fract_z
_atom_site_charge
Mof_Zn	Zn	0.09964	0.59755	0.17098	1.219
Mof_O 	O 	0.0858	0.3435	0.208	-0.54
Mof_O 	O 	0.1484	0.4964	0.2565	-0.502
Mof_O 	O 	0.3096	0.4802	0.5267	-0.354
Mof_O 	O 	0.3251	0.3215	0.5937	-0.473
Mof_O 	O 	0.1454	0.0474	0.4387	-0.311
Mof_O 	O 	0.0659	0.7225	0.2503	-0.493
Mof_C 	C 	0.1603	0.3307	0.3368	-0.081
Mof_C 	C 	0.2131	0.3811	0.4003	-0.004
Mof_H 	H 	0.2277	0.4567	0.394	0.054
Mof_C 	C 	0.2426	0.3212	0.47	-0.051
Mof_C 	C 	0.2163	0.2085	0.4814	-0.136
Mof_H 	H 	0.2342	0.1678	0.5298	0.102
Mof_C 	C 	0.1657	0.1587	0.4234	0.2
Mof_C 	C 	0.1389	0.217	0.3495	-0.119
Mof_H 	H 	0.1066	0.1802	0.3083	0.074
Mof_C 	C 	0.1294	0.3963	0.2637	0.412
Mof_C 	C 	0.2981	0.377	0.5333	0.354
Mof_C 	C 	0.071	0.0069	0.4106	0.36
Mof_C 	C 	0.0731	0.9117	0.3559	-0.263
Mof_H 	H 	0.1225	0.8813	0.3374	0.141
Mof_Zn	Zn	0.40036	0.40245	0.67098	1.223
Mof_O 	O 	0.4142	0.6565	0.708	-0.53
Mof_O 	O 	0.3516	0.5036	0.7565	-0.497
Mof_O 	O 	0.1904	0.5198	0.0267	-0.362
Mof_O 	O 	0.1749	0.6785	0.0937	-0.475
Mof_O 	O 	0.3546	0.9526	0.9387	-0.292
Mof_O 	O 	0.4341	0.2775	0.7503	-0.496
Mof_C 	C 	0.3397	0.6693	0.8368	-0.081
Mof_C 	C 	0.2869	0.6189	0.9003	-0.002
Mof_H 	H 	0.2723	0.5433	0.894	0.062
Mof_C 	C 	0.2574	0.6788	0.97	-0.04
Mof_C 	C 	0.2837	0.7915	0.9814	-0.069
Mof_H 	H 	0.2658	0.8322	0.0298	0.056
Mof_C 	C 	0.3343	0.8413	0.9234	0.174
Mof_C 	C 	0.3611	0.783	0.8495	-0.104
Mof_H 	H 	0.3934	0.8198	0.8083	0.075
Mof_C 	C 	0.3706	0.6037	0.7637	0.414
Mof_C 	C 	0.2019	0.623	0.0333	0.33
Mof_C 	C 	0.429	0.9931	0.9106	0.342
Mof_C 	C 	0.4269	0.0883	0.8559	-0.252
Mof_H 	H 	0.3775	0.1187	0.8374	0.142
Mof_Zn	Zn	0.59964	0.40245	0.67098	1.223
Mof_O 	O 	0.5858	0.6565	0.708	-0.529
Mof_O 	O 	0.6484	0.5036	0.7565	-0.493
Mof_O 	O 	0.8096	0.5198	0.0267	-0.352
Mof_O 	O 	0.8251	0.6785	0.0937	-0.467
Mof_O 	O 	0.6454	0.9526	0.9387	-0.29
Mof_O 	O 	0.5659	0.2775	0.7503	-0.495
Mof_C 	C 	0.6603	0.6693	0.8368	-0.077
Mof_C 	C 	0.7131	0.6189	0.9003	-0.004
Mof_H 	H 	0.7277	0.5433	0.894	0.066
Mof_C 	C 	0.7426	0.6788	0.97	-0.034
Mof_C 	C 	0.7163	0.7915	0.9814	-0.072
Mof_H 	H 	0.7342	0.8322	0.0298	0.061
Mof_C 	C 	0.6657	0.8413	0.9234	0.179
Mof_C 	C 	0.6389	0.783	0.8495	-0.105
Mof_H 	H 	0.6066	0.8198	0.8083	0.076
Mof_C 	C 	0.6294	0.6037	0.7637	0.414
Mof_C 	C 	0.7981	0.623	0.0333	0.33
Mof_C 	C 	0.571	0.9931	0.9106	0.343
Mof_C 	C 	0.5731	0.0883	0.8559	-0.252
Mof_H 	H 	0.6225	0.1187	0.8374	0.144
Mof_Zn	Zn	0.90036	0.59755	0.17098	1.227
Mof_O 	O 	0.9142	0.3435	0.208	-0.516
Mof_O 	O 	0.8516	0.4964	0.2565	-0.493
Mof_O 	O 	0.6904	0.4802	0.5267	-0.35
Mof_O 	O 	0.6749	0.3215	0.5937	-0.469
Mof_O 	O 	0.8546	0.0474	0.4387	-0.312
Mof_O 	O 	0.9341	0.7225	0.2503	-0.464
Mof_C 	C 	0.8397	0.3307	0.3368	-0.069
Mof_C 	C 	0.7869	0.3811	0.4003	-0.008
Mof_H 	H 	0.7723	0.4567	0.394	0.059
Mof_C 	C 	0.7574	0.3212	0.47	-0.043
Mof_C 	C 	0.7837	0.2085	0.4814	-0.14
Mof_H 	H 	0.7658	0.1678	0.5298	0.108
Mof_C 	C 	0.8343	0.1587	0.4234	0.211
Mof_C 	C 	0.8611	0.217	0.3495	-0.124
Mof_H 	H 	0.8934	0.1802	0.3083	0.086
Mof_C 	C 	0.8706	0.3963	0.2637	0.41
Mof_C 	C 	0.7019	0.377	0.5333	0.353
Mof_C 	C 	0.929	0.0069	0.4106	0.385
Mof_C 	C 	0.9269	0.9117	0.3559	-0.231
Mof_H 	H 	0.8775	0.8813	0.3374	0.136
Mof_Zn	Zn	-1.7184e-33	0.35077	0.11828	1.154
Mof_O 	O 	-2.79911e-33	0.5363	0.114	-0.808
Mof_H 	H 	-2.48102e-33	0.5602	0.0525	0.134
Mof_C 	C 	1.5245e-33	0.0527	0.4365	-0.48
Mof_H 	H 	-2.61277e-33	0.1163	0.4725	0.202
Mof_C 	C 	-5.24092e-33	0.8643	0.3303	0.049
Mof_C 	C 	9.51025e-34	0.7584	0.2723	0.356
Mof_Zn	Zn	0.5	0.64923	0.61828	1.164
Mof_O 	O 	0.5	0.4637	0.614	-0.794
Mof_H 	H 	0.5	0.4398	0.5525	0.145
Mof_C 	C 	0.5	0.9473	0.9365	-0.417
Mof_H 	H 	0.5	0.8837	0.9725	0.195
Mof_C 	C 	0.5	0.1357	0.8303	0.073
Mof_C 	C 	0.5	0.2416	0.7723	0.398
_end
