data_functionalizedCrystal
_audit_creation_method	'EQeq! by Chris Wilmer'
_symmetry_space_group_name_H-M	'P1'
_symmetry_Int_Tables_number	1
_symmetry_cell_setting	triclinic
loop_
_symmetry_equiv_pos_as_xyz
  x,y,z
_cell_length_a	17.1232
_cell_length_b	17.1232
_cell_length_c	11.3086
_cell_angle_alpha	90
_cell_angle_beta	90
_cell_angle_gamma	90
loop_
_atom_site_label
_atom_site_type_symbol
_atom_site_fract_x
_atom_site_fract_y
_atom_site_fract_z
_atom_site_charge
Mof_N 	N 	0.83219	0.33059	0.1482	-0.153
Mof_N 	N 	0.89788	0.422	0.0417	-0.211
Mof_N 	N 	0.82138	0.40994	0.8623	-0.229
Mof_N 	N 	0.80293	0.33583	0.035	-0.205
Mof_O 	O 	0.70792	0.24572	0.0665	-0.403
Mof_C 	C 	0.8887	0.3833	0.1454	0.104
Mof_H 	H 	0.9203	0.3932	0.2106	-0.008
Mof_C 	C 	0.8407	0.3917	0.9718	0.229
Mof_C 	C 	0.761	0.3694	0.8173	0.416
Mof_C 	C 	0.7198	0.3124	0.8789	-0.478
Mof_H 	H 	0.679	0.2863	0.8417	0.194
Mof_C 	C 	0.7387	0.2936	0.9954	0.405
Mof_C 	C 	0.738	0.3908	0.692	-0.948
Mof_H 	H 	0.731	0.4463	0.6865	0.307
Mof_H 	H 	0.69	0.365	0.6719	0.306
Mof_H 	H 	0.7783	0.3747	0.6384	0.315
Mof_N 	N 	0.33219	0.83059	0.6482	-0.153
Mof_N 	N 	0.39788	0.922	0.5417	-0.206
Mof_N 	N 	0.32138	0.90994	0.3623	-0.221
Mof_N 	N 	0.30293	0.83583	0.535	-0.178
Mof_O 	O 	0.20792	0.74572	0.5665	-0.377
Mof_C 	C 	0.3887	0.8833	0.6454	0.107
Mof_H 	H 	0.4203	0.8932	0.7106	-0.014
Mof_C 	C 	0.3407	0.8917	0.4718	0.193
Mof_C 	C 	0.261	0.8694	0.3173	0.395
Mof_C 	C 	0.2198	0.8124	0.3789	-0.451
Mof_H 	H 	0.179	0.7863	0.3417	0.178
Mof_C 	C 	0.2387	0.7936	0.4954	0.355
Mof_C 	C 	0.238	0.8908	0.192	-0.919
Mof_H 	H 	0.231	0.9463	0.1865	0.301
Mof_H 	H 	0.19	0.865	0.1719	0.292
Mof_H 	H 	0.2783	0.8747	0.1384	0.303
Mof_N 	N 	0.66781	0.66941	0.6482	-0.154
Mof_N 	N 	0.60212	0.578	0.5417	-0.212
Mof_N 	N 	0.67862	0.59006	0.3623	-0.224
Mof_N 	N 	0.69707	0.66417	0.535	-0.178
Mof_O 	O 	0.79208	0.75428	0.5665	-0.37
Mof_C 	C 	0.6113	0.6167	0.6454	0.105
Mof_H 	H 	0.5797	0.6068	0.7106	-0.019
Mof_C 	C 	0.6593	0.6083	0.4718	0.191
Mof_C 	C 	0.739	0.6306	0.3173	0.397
Mof_C 	C 	0.7802	0.6876	0.3789	-0.452
Mof_H 	H 	0.821	0.7137	0.3417	0.186
Mof_C 	C 	0.7613	0.7064	0.4954	0.357
Mof_C 	C 	0.762	0.6092	0.192	-0.921
Mof_H 	H 	0.769	0.5537	0.1865	0.298
Mof_H 	H 	0.81	0.635	0.1719	0.297
Mof_H 	H 	0.7217	0.6253	0.1384	0.302
Mof_N 	N 	0.16781	0.16941	0.1482	-0.157
Mof_N 	N 	0.10212	0.078	0.0417	-0.226
Mof_N 	N 	0.17862	0.09006	0.8623	-0.232
Mof_N 	N 	0.19707	0.16417	0.035	-0.206
Mof_O 	O 	0.29208	0.25428	0.0665	-0.402
Mof_C 	C 	0.1113	0.1167	0.1454	0.098
Mof_H 	H 	0.0797	0.1068	0.2106	-0.031
Mof_C 	C 	0.1593	0.1083	0.9718	0.221
Mof_C 	C 	0.239	0.1306	0.8173	0.41
Mof_C 	C 	0.2802	0.1876	0.8789	-0.477
Mof_H 	H 	0.321	0.2137	0.8417	0.194
Mof_C 	C 	0.2613	0.2064	0.9954	0.406
Mof_C 	C 	0.262	0.1092	0.692	-0.934
Mof_H 	H 	0.269	0.0537	0.6865	0.3
Mof_H 	H 	0.31	0.135	0.6719	0.302
Mof_H 	H 	0.2217	0.1253	0.6384	0.307
Mof_N 	N 	0.41941	0.08219	0.3982	-0.155
Mof_N 	N 	0.328	0.14788	0.2917	-0.212
Mof_N 	N 	0.34006	0.07138	0.1123	-0.21
Mof_N 	N 	0.41417	0.05293	0.285	-0.18
Mof_O 	O 	0.50428	0.95792	0.3165	-0.362
Mof_C 	C 	0.3667	0.1387	0.3954	0.102
Mof_H 	H 	0.3568	0.1703	0.4606	-0.02
Mof_C 	C 	0.3583	0.0907	0.2218	0.183
Mof_C 	C 	0.3806	0.011	0.0673	0.28
Mof_C 	C 	0.4376	0.9698	0.1289	-0.376
Mof_H 	H 	0.4637	0.929	0.0917	0.151
Mof_C 	C 	0.4564	0.9887	0.2454	0.339
Mof_C 	C 	0.3592	0.988	0.942	-0.683
Mof_H 	H 	0.3037	0.981	0.9365	0.243
Mof_H 	H 	0.385	0.94	0.9219	0.238
Mof_H 	H 	0.3753	0.0283	0.8884	0.227
Mof_N 	N 	0.91941	0.58219	0.8982	-0.131
Mof_N 	N 	0.828	0.64788	0.7917	-0.211
Mof_N 	N 	0.84006	0.57138	0.6123	-0.229
Mof_N 	N 	0.91417	0.55293	0.785	-0.182
Mof_O 	O 	0.00428	0.45792	0.8165	-0.408
Mof_C 	C 	0.8667	0.6387	0.8954	0.107
Mof_H 	H 	0.8568	0.6703	0.9606	-0.008
Mof_C 	C 	0.8583	0.5907	0.7218	0.198
Mof_C 	C 	0.8806	0.511	0.5673	0.426
Mof_C 	C 	0.9376	0.4698	0.6289	-0.487
Mof_H 	H 	0.9637	0.429	0.5917	0.209
Mof_C 	C 	0.9564	0.4887	0.7454	0.422
Mof_C 	C 	0.8592	0.488	0.442	-0.965
Mof_H 	H 	0.8037	0.481	0.4365	0.313
Mof_H 	H 	0.885	0.44	0.4219	0.317
Mof_H 	H 	0.8753	0.5283	0.3884	0.326
Mof_N 	N 	0.08059	0.91781	0.8982	-0.143
Mof_N 	N 	0.172	0.85212	0.7917	-0.211
Mof_N 	N 	0.15994	0.92862	0.6123	-0.232
Mof_N 	N 	0.08583	0.94707	0.785	-0.163
Mof_O 	O 	0.99572	0.04208	0.8165	-0.306
Mof_C 	C 	0.1333	0.8613	0.8954	0.103
Mof_H 	H 	0.1432	0.8297	0.9606	-0.012
Mof_C 	C 	0.1417	0.9093	0.7218	0.191
Mof_C 	C 	0.1194	0.989	0.5673	0.455
Mof_C 	C 	0.0624	0.0302	0.6289	-0.478
Mof_H 	H 	0.0363	0.071	0.5917	0.176
Mof_C 	C 	0.0436	0.0113	0.7454	0.292
Mof_C 	C 	0.1408	0.012	0.442	-1.067
Mof_H 	H 	0.1963	0.019	0.4365	0.336
Mof_H 	H 	0.115	0.06	0.4219	0.331
Mof_H 	H 	0.1247	0.9717	0.3884	0.354
Mof_N 	N 	0.58059	0.41781	0.3982	-0.155
Mof_N 	N 	0.672	0.35212	0.2917	-0.212
Mof_N 	N 	0.65994	0.42862	0.1123	-0.223
Mof_N 	N 	0.58583	0.44707	0.285	-0.177
Mof_O 	O 	0.49572	0.54208	0.3165	-0.373
Mof_C 	C 	0.6333	0.3613	0.3954	0.104
Mof_H 	H 	0.6432	0.3297	0.4606	-0.02
Mof_C 	C 	0.6417	0.4093	0.2218	0.188
Mof_C 	C 	0.6194	0.489	0.0673	0.361
Mof_C 	C 	0.5624	0.5302	0.1289	-0.435
Mof_H 	H 	0.5363	0.571	0.0917	0.17
Mof_C 	C 	0.5436	0.5113	0.2454	0.348
Mof_C 	C 	0.6408	0.512	0.942	-0.866
Mof_H 	H 	0.6963	0.519	0.9365	0.288
Mof_H 	H 	0.615	0.56	0.9219	0.287
Mof_H 	H 	0.6247	0.4717	0.8884	0.293
Mof_N 	N 	0.16781	0.66941	0.8518	-0.156
Mof_N 	N 	0.10212	0.578	0.9583	-0.189
Mof_N 	N 	0.17862	0.59006	0.1377	-0.215
Mof_N 	N 	0.19707	0.66417	0.965	-0.146
Mof_O 	O 	0.29208	0.75428	0.9335	-0.339
Mof_C 	C 	0.1113	0.6167	0.8546	0.105
Mof_H 	H 	0.0797	0.6068	0.7894	-0.027
Mof_C 	C 	0.1593	0.6083	0.0282	0.145
Mof_C 	C 	0.239	0.6306	0.1827	0.378
Mof_C 	C 	0.2802	0.6876	0.1211	-0.421
Mof_H 	H 	0.321	0.7137	0.1583	0.169
Mof_C 	C 	0.2613	0.7064	0.0046	0.294
Mof_C 	C 	0.262	0.6092	0.308	-0.907
Mof_H 	H 	0.269	0.5537	0.3135	0.295
Mof_H 	H 	0.31	0.635	0.3281	0.293
Mof_H 	H 	0.2217	0.6253	0.3616	0.301
Mof_N 	N 	0.66781	0.16941	0.3518	-0.156
Mof_N 	N 	0.60212	0.078	0.4583	-0.213
Mof_N 	N 	0.67862	0.09006	0.6377	-0.227
Mof_N 	N 	0.69707	0.16417	0.465	-0.179
Mof_O 	O 	0.79208	0.25428	0.4335	-0.372
Mof_C 	C 	0.6113	0.1167	0.3546	0.103
Mof_H 	H 	0.5797	0.1068	0.2894	-0.025
Mof_C 	C 	0.6593	0.1083	0.5282	0.189
Mof_C 	C 	0.739	0.1306	0.6827	0.403
Mof_C 	C 	0.7802	0.1876	0.6211	-0.456
Mof_H 	H 	0.821	0.2137	0.6583	0.189
Mof_C 	C 	0.7613	0.2064	0.5046	0.358
Mof_C 	C 	0.762	0.1092	0.808	-0.94
Mof_H 	H 	0.769	0.0537	0.8135	0.303
Mof_H 	H 	0.81	0.135	0.8281	0.309
Mof_H 	H 	0.7217	0.1253	0.8616	0.314
Mof_N 	N 	0.33219	0.33059	0.3518	-0.155
Mof_N 	N 	0.39788	0.422	0.4583	-0.212
Mof_N 	N 	0.32138	0.40994	0.6377	-0.225
Mof_N 	N 	0.30293	0.33583	0.465	-0.179
Mof_O 	O 	0.20792	0.24572	0.4335	-0.379
Mof_C 	C 	0.3887	0.3833	0.3546	0.105
Mof_H 	H 	0.4203	0.3932	0.2894	-0.022
Mof_C 	C 	0.3407	0.3917	0.5282	0.191
Mof_C 	C 	0.261	0.3694	0.6827	0.404
Mof_C 	C 	0.2198	0.3124	0.6211	-0.457
Mof_H 	H 	0.179	0.2863	0.6583	0.181
Mof_C 	C 	0.2387	0.2936	0.5046	0.357
Mof_C 	C 	0.238	0.3908	0.808	-0.947
Mof_H 	H 	0.231	0.4463	0.8135	0.31
Mof_H 	H 	0.19	0.365	0.8281	0.308
Mof_H 	H 	0.2783	0.3747	0.8616	0.318
Mof_N 	N 	0.83219	0.83059	0.8518	-0.151
Mof_N 	N 	0.89788	0.922	0.9583	-0.172
Mof_N 	N 	0.82138	0.90994	0.1377	-0.213
Mof_N 	N 	0.80293	0.83583	0.965	-0.148
Mof_O 	O 	0.70792	0.74572	0.9335	-0.345
Mof_C 	C 	0.8887	0.8833	0.8546	0.111
Mof_H 	H 	0.9203	0.8932	0.7894	-0.005
Mof_C 	C 	0.8407	0.8917	0.0282	0.159
Mof_C 	C 	0.761	0.8694	0.1827	0.386
Mof_C 	C 	0.7198	0.8124	0.1211	-0.428
Mof_H 	H 	0.679	0.7863	0.1583	0.171
Mof_C 	C 	0.7387	0.7936	0.0046	0.303
Mof_C 	C 	0.738	0.8908	0.308	-0.924
Mof_H 	H 	0.731	0.9463	0.3135	0.303
Mof_H 	H 	0.69	0.865	0.3281	0.298
Mof_H 	H 	0.7783	0.8747	0.3616	0.31
Mof_N 	N 	0.58059	0.91781	0.6018	-0.149
Mof_N 	N 	0.672	0.85212	0.7083	-0.212
Mof_N 	N 	0.65994	0.92862	0.8877	-0.237
Mof_N 	N 	0.58583	0.94707	0.715	-0.175
Mof_O 	O 	0.49572	0.04208	0.6835	-0.38
Mof_C 	C 	0.6333	0.8613	0.6046	0.106
Mof_H 	H 	0.6432	0.8297	0.5394	-0.02
Mof_C 	C 	0.6417	0.9093	0.7782	0.2
Mof_C 	C 	0.6194	0.989	0.9327	0.517
Mof_C 	C 	0.5624	0.0302	0.8711	-0.534
Mof_H 	H 	0.5363	0.071	0.9083	0.215
Mof_C 	C 	0.5436	0.0113	0.7546	0.372
Mof_C 	C 	0.6408	0.012	0.058	-1.148
Mof_H 	H 	0.6963	0.019	0.0635	0.357
Mof_H 	H 	0.615	0.06	0.0781	0.357
Mof_H 	H 	0.6247	0.9717	0.1116	0.378
Mof_N 	N 	0.08059	0.41781	0.1018	-0.159
Mof_N 	N 	0.172	0.35212	0.2083	-0.212
Mof_N 	N 	0.15994	0.42862	0.3877	-0.219
Mof_N 	N 	0.08583	0.44707	0.215	-0.17
Mof_O 	O 	0.99572	0.54208	0.1835	-0.306
Mof_C 	C 	0.1333	0.3613	0.1046	0.099
Mof_H 	H 	0.1432	0.3297	0.0394	-0.028
Mof_C 	C 	0.1417	0.4093	0.2782	0.183
Mof_C 	C 	0.1194	0.489	0.4327	0.37
Mof_C 	C 	0.0624	0.5302	0.3711	-0.414
Mof_H 	H 	0.0363	0.571	0.4083	0.155
Mof_C 	C 	0.0436	0.5113	0.2546	0.282
Mof_C 	C 	0.1408	0.512	0.558	-0.894
Mof_H 	H 	0.1963	0.519	0.5635	0.291
Mof_H 	H 	0.115	0.56	0.5781	0.284
Mof_H 	H 	0.1247	0.4717	0.6116	0.293
Mof_N 	N 	0.91941	0.08219	0.1018	-0.139
Mof_N 	N 	0.828	0.14788	0.2083	-0.212
Mof_N 	N 	0.84006	0.07138	0.3877	-0.217
Mof_N 	N 	0.91417	0.05293	0.215	-0.185
Mof_O 	O 	0.00428	0.95792	0.1835	-0.411
Mof_C 	C 	0.8667	0.1387	0.1046	0.104
Mof_H 	H 	0.8568	0.1703	0.0394	-0.021
Mof_C 	C 	0.8583	0.0907	0.2782	0.191
Mof_C 	C 	0.8806	0.011	0.4327	0.351
Mof_C 	C 	0.9376	0.9698	0.3711	-0.432
Mof_H 	H 	0.9637	0.929	0.4083	0.192
Mof_C 	C 	0.9564	0.9887	0.2546	0.415
Mof_C 	C 	0.8592	0.988	0.558	-0.806
Mof_H 	H 	0.8037	0.981	0.5635	0.272
Mof_H 	H 	0.885	0.94	0.5781	0.273
Mof_H 	H 	0.8753	0.0283	0.6116	0.269
Mof_N 	N 	0.41941	0.58219	0.6018	-0.154
Mof_N 	N 	0.328	0.64788	0.7083	-0.211
Mof_N 	N 	0.34006	0.57138	0.8877	-0.225
Mof_N 	N 	0.41417	0.55293	0.715	-0.18
Mof_O 	O 	0.50428	0.45792	0.6835	-0.376
Mof_C 	C 	0.3667	0.6387	0.6046	0.105
Mof_H 	H 	0.3568	0.6703	0.5394	-0.02
Mof_C 	C 	0.3583	0.5907	0.7782	0.194
Mof_C 	C 	0.3806	0.511	0.9327	0.44
Mof_C 	C 	0.4376	0.4698	0.8711	-0.474
Mof_H 	H 	0.4637	0.429	0.9083	0.196
Mof_C 	C 	0.4564	0.4887	0.7546	0.366
Mof_C 	C 	0.3592	0.488	0.058	-1
Mof_H 	H 	0.3037	0.481	0.0635	0.318
Mof_H 	H 	0.385	0.44	0.0781	0.316
Mof_H 	H 	0.3753	0.5283	0.1116	0.327
Mof_Mn	Mn	3.80664e-33	0.5	-0	0.709
Mof_Mn	Mn	0.5	0	0.5	0.782
Mof_Mn	Mn	0.5	0.5	0.5	0.805
Mof_Mn	Mn	-0	0	-0	0.692
Mof_Mn	Mn	0.25	0.25	0.25	0.801
Mof_Mn	Mn	0.25	0.75	0.75	0.806
Mof_Mn	Mn	0.75	0.75	0.75	0.81
Mof_Mn	Mn	0.75	0.25	0.25	0.806
_end
