data_functionalizedCrystal
_audit_creation_method	'EQeq! by Chris Wilmer'
_symmetry_space_group_name_H-M	'P1'
_symmetry_Int_Tables_number	1
_symmetry_cell_setting	triclinic
loop_
_symmetry_equiv_pos_as_xyz
  x,y,z
_cell_length_a	12.0702
_cell_length_b	24.951
_cell_length_c	50.623
_cell_angle_alpha	90
_cell_angle_beta	95.774
_cell_angle_gamma	90
loop_
_atom_site_label
_atom_site_type_symbol
_atom_site_fract_x
_atom_site_fract_y
_atom_site_fract_z
_atom_site_charge
Mof_S 	S 	0.71895	0.90177	0.15997	-0.013
Mof_C 	C 	0.5786	0.8921	0.16712	-0.057
Mof_C 	C 	0.5104	0.9349	0.17263	0.034
Mof_C 	C 	0.4006	0.9222	0.17859	-0.06
Mof_C 	C 	0.369	0.8687	0.1806	0.112
Mof_H 	H 	0.2957	0.8612	0.1849	-0.023
Mof_C 	C 	0.4382	0.8261	0.1767	-0.362
Mof_C 	C 	0.5424	0.8387	0.16952	0.115
Mof_H 	H 	0.5916	0.8104	0.1661	-0.038
Mof_S 	S 	0.56206	0.00084	0.1759	-0.022
Mof_C 	C 	0.577	0.0047	0.2133	-0.176
Mof_H 	H 	0.6136	0.0389	0.2189	0.062
Mof_H 	H 	0.502	0.0046	0.2196	0.074
Mof_C 	C 	0.6408	0.961	0.2255	0.059
Mof_C 	C 	0.7574	0.9647	0.232	-0.012
Mof_H 	H 	0.7939	0.9972	0.2282	0.031
Mof_N 	N 	0.8168	0.9253	0.24283	-0.157
Mof_C 	C 	0.7641	0.8792	0.248	0.025
Mof_H 	H 	0.8075	0.8505	0.2558	-0.002
Mof_C 	C 	0.6528	0.8717	0.2428	-0.05
Mof_H 	H 	0.6183	0.8394	0.2476	0.01
Mof_C 	C 	0.5905	0.9133	0.23	-0.083
Mof_H 	H 	0.5137	0.9083	0.2244	0.061
Mof_C 	C 	0.4049	0.767	0.1808	0.989
Mof_C 	C 	0.4273	0.7546	0.2088	-1.289
Mof_H 	H 	0.3903	0.781	0.2193	0.378
Mof_H 	H 	0.5078	0.7556	0.2139	0.377
Mof_H 	H 	0.3989	0.7187	0.2122	0.373
Mof_C 	C 	0.4651	0.7281	0.1642	-1.218
Mof_H 	H 	0.5457	0.7324	0.1683	0.356
Mof_H 	H 	0.4448	0.7356	0.1453	0.349
Mof_H 	H 	0.4437	0.6914	0.1682	0.353
Mof_C 	C 	0.2847	0.7602	0.1749	-1.263
Mof_H 	H 	0.2683	0.7228	0.1701	0.359
Mof_H 	H 	0.2578	0.7836	0.16	0.37
Mof_H 	H 	0.2473	0.7696	0.1906	0.375
Mof_S 	S 	0.30258	0.97202	0.18586	-0.013
Mof_C 	C 	0.2797	0.0065	0.155	-0.029
Mof_C 	C 	0.2268	0.9832	0.13207	0.008
Mof_C 	C 	0.2113	0.0139	0.1086	-0.024
Mof_C 	C 	0.2433	0.0679	0.1092	0.03
Mof_H 	H 	0.2296	0.0889	0.0935	0.01
Mof_C 	C 	0.2956	0.092	0.1325	-0.224
Mof_C 	C 	0.3152	0.0609	0.1543	0.048
Mof_H 	H 	0.3542	0.0759	0.1698	-0.007
Mof_S 	S 	0.1701	0.91746	0.13288	-0.016
Mof_C 	C 	0.0277	0.9307	0.1424	-0.174
Mof_H 	H 	0.0216	0.967	0.1501	0.074
Mof_H 	H 	0.9703	0.9262	0.1272	0.077
Mof_C 	C 	0.0194	0.8857	0.1639	0.035
Mof_C 	C 	0.0201	0.9123	0.1881	-0.017
Mof_H 	H 	0.0336	0.9498	0.189	0.033
Mof_N 	N 	0.0011	0.8841	0.2108	-0.158
Mof_C 	C 	0.9813	0.8292	0.2095	0.021
Mof_H 	H 	0.9683	0.81	0.2251	-0.002
Mof_C 	C 	0.9806	0.8026	0.1854	-0.069
Mof_H 	H 	0.9671	0.7651	0.1845	0.017
Mof_C 	C 	0.9997	0.8308	0.16259	-0.07
Mof_H 	H 	0.9992	0.8126	0.1461	0.026
Mof_C 	C 	0.3308	0.1508	0.1337	0.643
Mof_C 	C 	0.3506	0.1706	0.1055	-0.882
Mof_H 	H 	0.2794	0.1718	0.0943	0.273
Mof_H 	H 	0.4014	0.146	0.0976	0.268
Mof_H 	H 	0.3833	0.2066	0.1067	0.262
Mof_C 	C 	0.2432	0.1833	0.1437	-0.987
Mof_H 	H 	0.1772	0.183	0.1307	0.29
Mof_H 	H 	0.2696	0.2202	0.1464	0.293
Mof_H 	H 	0.2239	0.1685	0.1605	0.294
Mof_C 	C 	0.4406	0.158	0.1523	-0.873
Mof_H 	H 	0.4584	0.1962	0.1541	0.255
Mof_H 	H 	0.5014	0.1393	0.1447	0.256
Mof_H 	H 	0.4313	0.143	0.1698	0.264
Mof_S 	S 	0.149	0.98864	0.078	-0.035
Mof_C 	C 	0.2518	0.9404	0.06962	-0.02
Mof_C 	C 	0.3571	0.9547	0.06387	0.004
Mof_C 	C 	0.4324	0.9134	0.05839	-0.024
Mof_C 	C 	0.3963	0.8603	0.05731	0.039
Mof_H 	H 	0.4455	0.8332	0.0523	0.003
Mof_C 	C 	0.2905	0.8457	0.06335	-0.224
Mof_C 	C 	0.2179	0.8862	0.06958	0.033
Mof_H 	H 	0.1452	0.8773	0.0738	0.004
Mof_S 	S 	0.3984	0.02351	0.06269	-0.002
Mof_C 	C 	0.366	0.0355	0.02764	-0.177
Mof_H 	H 	0.399	0.007	0.0173	0.079
Mof_H 	H 	0.2843	0.0352	0.0231	0.078
Mof_C 	C 	0.4134	0.09	0.02085	0.049
Mof_C 	C 	0.3389	0.134	0.01768	-0.016
Mof_H 	H 	0.2626	0.1283	0.0199	0.03
Mof_N 	N 	0.3716	0.1826	0.01175	-0.154
Mof_C 	C 	0.4824	0.1911	0.00955	0.012
Mof_H 	H 	0.5072	0.2259	0.0054	0.001
Mof_C 	C 	0.5594	0.1493	0.0133	-0.059
Mof_H 	H 	0.6363	0.1558	0.0122	0.023
Mof_C 	C 	0.5221	0.0984	0.01878	-0.081
Mof_H 	H 	0.5733	0.0695	0.0211	0.046
Mof_C 	C 	0.2584	0.7861	0.0648	0.673
Mof_C 	C 	0.2828	0.7571	0.0397	-0.933
Mof_H 	H 	0.271	0.7185	0.0418	0.276
Mof_H 	H 	0.3602	0.7636	0.0363	0.286
Mof_H 	H 	0.2328	0.7704	0.0246	0.278
Mof_C 	C 	0.3339	0.7633	0.0889	-0.909
Mof_H 	H 	0.3324	0.7876	0.104	0.27
Mof_H 	H 	0.4104	0.76	0.0842	0.276
Mof_H 	H 	0.3064	0.728	0.0936	0.256
Mof_C 	C 	0.14	0.777	0.0681	-0.999
Mof_H 	H 	0.094	0.8009	0.0561	0.306
Mof_H 	H 	0.1265	0.7845	0.0865	0.295
Mof_H 	H 	0.1206	0.7397	0.0638	0.294
Mof_S 	S 	0.57202	0.92622	0.05174	-0.013
Mof_C 	C 	0.6343	0.9494	0.08333	-0.01
Mof_C 	C 	0.649	0.9165	0.1057	0.003
Mof_C 	C 	0.6992	0.939	0.12968	-0.011
Mof_C 	C 	0.7425	0.9903	0.12955	-0.008
Mof_H 	H 	0.7814	0.0039	0.1454	0.021
Mof_C 	C 	0.7311	0.0226	0.10698	-0.14
Mof_C 	C 	0.6756	0.0013	0.08452	0.003
Mof_H 	H 	0.6649	0.023	0.0691	0.012
Mof_S 	S 	0.60783	0.84794	0.10466	-0.018
Mof_C 	C 	0.7469	0.8183	0.1051	-0.159
Mof_H 	H 	0.7953	0.8331	0.1203	0.067
Mof_H 	H 	0.7414	0.7791	0.1077	0.047
Mof_C 	C 	0.799	0.829	0.08	0.033
Mof_C 	C 	0.7776	0.7952	0.0584	-0.01
Mof_H 	H 	0.7336	0.7643	0.0608	0.02
Mof_N 	N 	0.8132	0.8022	0.03503	-0.158
Mof_C 	C 	0.8801	0.8452	0.0322	0.02
Mof_H 	H 	0.9123	0.85	0.016	0.012
Mof_C 	C 	0.9026	0.8822	0.0525	-0.066
Mof_H 	H 	0.9455	0.9133	0.0498	0.045
Mof_C 	C 	0.8624	0.8735	0.0764	-0.064
Mof_H 	H 	0.8782	0.8983	0.0905	0.047
Mof_C 	C 	0.7746	0.0823	0.1079	0.476
Mof_C 	C 	0.719	0.1151	0.1287	-0.735
Mof_H 	H 	0.7088	0.0925	0.1441	0.222
Mof_H 	H 	0.6463	0.1281	0.1209	0.207
Mof_H 	H 	0.7663	0.1458	0.1344	0.2
Mof_C 	C 	0.762	0.1119	0.0807	-0.755
Mof_H 	H 	0.8341	0.1137	0.0736	0.238
Mof_H 	H 	0.7341	0.1484	0.0832	0.21
Mof_H 	H 	0.7086	0.0925	0.0683	0.234
Mof_C 	C 	0.901	0.0763	0.1167	-0.768
Mof_H 	H 	0.9315	0.047	0.1067	0.249
Mof_H 	H 	0.912	0.0682	0.1357	0.243
Mof_H 	H 	0.9393	0.1098	0.1132	0.232
Mof_N 	N 	0.007	0.0018	0.2296	-0.186
Mof_C 	C 	0.0195	0.0334	0.2131	0.092
Mof_S 	S 	0.0101	0.08091	0.19167	-0.15
Mof_N 	N 	0.8658	0.7866	0.97722	-0.204
Mof_C 	C 	0.9054	0.8116	0.9619	0.088
Mof_S 	S 	0.9546	0.84565	0.9385	-0.143
Mof_S 	S 	0.21895	0.40177	0.15997	-0.015
Mof_C 	C 	0.0786	0.3921	0.16712	-0.048
Mof_C 	C 	0.0104	0.4349	0.17263	0.025
Mof_C 	C 	0.9006	0.4222	0.17859	-0.047
Mof_C 	C 	0.869	0.3687	0.1806	0.098
Mof_H 	H 	0.7957	0.3612	0.1849	-0.016
Mof_C 	C 	0.9382	0.3261	0.1767	-0.336
Mof_C 	C 	0.0424	0.3387	0.16952	0.096
Mof_H 	H 	0.0916	0.3104	0.1661	-0.031
Mof_S 	S 	0.06206	0.50084	0.1759	-0.022
Mof_C 	C 	0.077	0.5047	0.2133	-0.173
Mof_H 	H 	0.1136	0.5389	0.2189	0.062
Mof_H 	H 	0.002	0.5046	0.2196	0.072
Mof_C 	C 	0.1408	0.461	0.2255	0.058
Mof_C 	C 	0.2574	0.4647	0.232	-0.01
Mof_H 	H 	0.2939	0.4972	0.2282	0.029
Mof_N 	N 	0.3168	0.4253	0.24283	-0.159
Mof_C 	C 	0.2641	0.3792	0.248	0.025
Mof_H 	H 	0.3075	0.3505	0.2558	-0.004
Mof_C 	C 	0.1528	0.3717	0.2428	-0.051
Mof_H 	H 	0.1183	0.3394	0.2476	0.009
Mof_C 	C 	0.0905	0.4133	0.23	-0.082
Mof_H 	H 	0.0137	0.4083	0.2244	0.059
Mof_C 	C 	0.9049	0.267	0.1808	0.952
Mof_C 	C 	0.9273	0.2546	0.2088	-1.239
Mof_H 	H 	0.8903	0.281	0.2193	0.365
Mof_H 	H 	0.0078	0.2556	0.2139	0.359
Mof_H 	H 	0.8989	0.2187	0.2122	0.361
Mof_C 	C 	0.9651	0.2281	0.1642	-1.172
Mof_H 	H 	0.0457	0.2324	0.1683	0.34
Mof_H 	H 	0.9448	0.2356	0.1453	0.337
Mof_H 	H 	0.9437	0.1914	0.1682	0.342
Mof_C 	C 	0.7847	0.2602	0.1749	-1.231
Mof_H 	H 	0.7683	0.2228	0.1701	0.35
Mof_H 	H 	0.7578	0.2836	0.16	0.362
Mof_H 	H 	0.7473	0.2696	0.1906	0.367
Mof_S 	S 	0.80258	0.47202	0.18586	-0.013
Mof_C 	C 	0.7797	0.5065	0.155	-0.028
Mof_C 	C 	0.7268	0.4832	0.13207	0.008
Mof_C 	C 	0.7113	0.5139	0.1086	-0.023
Mof_C 	C 	0.7433	0.5679	0.1092	0.029
Mof_H 	H 	0.7296	0.5889	0.0935	0.01
Mof_C 	C 	0.7956	0.592	0.1325	-0.22
Mof_C 	C 	0.8152	0.5609	0.1543	0.046
Mof_H 	H 	0.8542	0.5759	0.1698	-0.005
Mof_S 	S 	0.6701	0.41746	0.13288	-0.015
Mof_C 	C 	0.5277	0.4307	0.1424	-0.168
Mof_H 	H 	0.5216	0.467	0.1501	0.073
Mof_H 	H 	0.4703	0.4262	0.1272	0.072
Mof_C 	C 	0.5194	0.3857	0.1639	0.043
Mof_C 	C 	0.5201	0.4123	0.1881	-0.019
Mof_H 	H 	0.5336	0.4498	0.189	0.034
Mof_N 	N 	0.5011	0.3841	0.2108	-0.154
Mof_C 	C 	0.4813	0.3292	0.2095	0.012
Mof_H 	H 	0.4683	0.31	0.2251	-0.001
Mof_C 	C 	0.4806	0.3026	0.1854	-0.062
Mof_H 	H 	0.4671	0.2651	0.1845	0.014
Mof_C 	C 	0.4997	0.3308	0.16259	-0.081
Mof_H 	H 	0.4992	0.3126	0.1461	0.028
Mof_C 	C 	0.8308	0.6508	0.1337	0.636
Mof_C 	C 	0.8506	0.6706	0.1055	-0.877
Mof_H 	H 	0.7794	0.6718	0.0943	0.272
Mof_H 	H 	0.9014	0.646	0.0976	0.268
Mof_H 	H 	0.8833	0.7066	0.1067	0.262
Mof_C 	C 	0.7432	0.6833	0.1437	-0.981
Mof_H 	H 	0.6772	0.683	0.1307	0.289
Mof_H 	H 	0.7696	0.7202	0.1464	0.291
Mof_H 	H 	0.7239	0.6685	0.1605	0.292
Mof_C 	C 	0.9406	0.658	0.1523	-0.852
Mof_H 	H 	0.9584	0.6962	0.1541	0.25
Mof_H 	H 	0.0014	0.6393	0.1447	0.246
Mof_H 	H 	0.9313	0.643	0.1698	0.259
Mof_S 	S 	0.649	0.48864	0.078	-0.033
Mof_C 	C 	0.7518	0.4404	0.06962	-0.02
Mof_C 	C 	0.8571	0.4547	0.06387	0.003
Mof_C 	C 	0.9324	0.4134	0.05839	-0.018
Mof_C 	C 	0.8963	0.3603	0.05731	0.038
Mof_H 	H 	0.9455	0.3332	0.0523	0.005
Mof_C 	C 	0.7905	0.3457	0.06335	-0.224
Mof_C 	C 	0.7179	0.3862	0.06958	0.033
Mof_H 	H 	0.6452	0.3773	0.0738	0.005
Mof_S 	S 	0.8984	0.52351	0.06269	0.002
Mof_C 	C 	0.866	0.5355	0.02764	-0.18
Mof_H 	H 	0.899	0.507	0.0173	0.081
Mof_H 	H 	0.7843	0.5352	0.0231	0.079
Mof_C 	C 	0.9134	0.59	0.02085	0.054
Mof_C 	C 	0.8389	0.634	0.01768	-0.016
Mof_H 	H 	0.7626	0.6283	0.0199	0.03
Mof_N 	N 	0.8716	0.6826	0.01175	-0.156
Mof_C 	C 	0.9824	0.6911	0.00955	0.029
Mof_H 	H 	0.0072	0.7259	0.0054	-0.008
Mof_C 	C 	0.0594	0.6493	0.0133	-0.07
Mof_H 	H 	0.1363	0.6558	0.0122	0.026
Mof_C 	C 	0.0221	0.5984	0.01878	-0.084
Mof_H 	H 	0.0733	0.5695	0.0211	0.046
Mof_C 	C 	0.7584	0.2861	0.0648	0.678
Mof_C 	C 	0.7828	0.2571	0.0397	-0.938
Mof_H 	H 	0.771	0.2185	0.0418	0.278
Mof_H 	H 	0.8602	0.2636	0.0363	0.288
Mof_H 	H 	0.7328	0.2704	0.0246	0.28
Mof_C 	C 	0.8339	0.2633	0.0889	-0.915
Mof_H 	H 	0.8324	0.2876	0.104	0.273
Mof_H 	H 	0.9104	0.26	0.0842	0.279
Mof_H 	H 	0.8064	0.228	0.0936	0.259
Mof_C 	C 	0.64	0.277	0.0681	-1.006
Mof_H 	H 	0.594	0.3009	0.0561	0.309
Mof_H 	H 	0.6265	0.2845	0.0865	0.298
Mof_H 	H 	0.6206	0.2397	0.0638	0.297
Mof_S 	S 	0.07202	0.42622	0.05174	-0.018
Mof_C 	C 	0.1343	0.4494	0.08333	-0.009
Mof_C 	C 	0.149	0.4165	0.1057	0.003
Mof_C 	C 	0.1992	0.439	0.12968	-0.011
Mof_C 	C 	0.2425	0.4903	0.12955	-0.008
Mof_H 	H 	0.2814	0.5039	0.1454	0.021
Mof_C 	C 	0.2311	0.5226	0.10698	-0.139
Mof_C 	C 	0.1756	0.5013	0.08452	0.001
Mof_H 	H 	0.1649	0.523	0.0691	0.012
Mof_S 	S 	0.10783	0.34794	0.10466	-0.021
Mof_C 	C 	0.2469	0.3183	0.1051	-0.158
Mof_H 	H 	0.2953	0.3331	0.1203	0.066
Mof_H 	H 	0.2414	0.2791	0.1077	0.047
Mof_C 	C 	0.299	0.329	0.08	0.032
Mof_C 	C 	0.2776	0.2952	0.0584	-0.01
Mof_H 	H 	0.2336	0.2643	0.0608	0.02
Mof_N 	N 	0.3132	0.3022	0.03503	-0.158
Mof_C 	C 	0.3801	0.3452	0.0322	0.019
Mof_H 	H 	0.4123	0.35	0.016	0.011
Mof_C 	C 	0.4026	0.3822	0.0525	-0.066
Mof_H 	H 	0.4455	0.4133	0.0498	0.044
Mof_C 	C 	0.3624	0.3735	0.0764	-0.064
Mof_H 	H 	0.3782	0.3983	0.0905	0.047
Mof_C 	C 	0.2746	0.5823	0.1079	0.471
Mof_C 	C 	0.219	0.6151	0.1287	-0.729
Mof_H 	H 	0.2088	0.5925	0.1441	0.22
Mof_H 	H 	0.1463	0.6281	0.1209	0.205
Mof_H 	H 	0.2663	0.6458	0.1344	0.197
Mof_C 	C 	0.262	0.6119	0.0807	-0.75
Mof_H 	H 	0.3341	0.6137	0.0736	0.235
Mof_H 	H 	0.2341	0.6484	0.0832	0.208
Mof_H 	H 	0.2086	0.5925	0.0683	0.232
Mof_C 	C 	0.401	0.5763	0.1167	-0.761
Mof_H 	H 	0.4315	0.547	0.1067	0.245
Mof_H 	H 	0.412	0.5682	0.1357	0.24
Mof_H 	H 	0.4393	0.6098	0.1132	0.229
Mof_N 	N 	0.507	0.5018	0.2296	-0.184
Mof_C 	C 	0.5195	0.5334	0.2131	0.093
Mof_S 	S 	0.5101	0.58091	0.19167	-0.146
Mof_N 	N 	0.3658	0.2866	0.97722	-0.204
Mof_C 	C 	0.4054	0.3116	0.9619	0.087
Mof_S 	S 	0.4546	0.34565	0.9385	-0.147
Mof_S 	S 	0.28105	0.90177	0.34003	-0.014
Mof_C 	C 	0.4214	0.8921	0.33288	-0.056
Mof_C 	C 	0.4896	0.9349	0.32737	0.035
Mof_C 	C 	0.5994	0.9222	0.32141	-0.059
Mof_C 	C 	0.631	0.8687	0.3194	0.113
Mof_H 	H 	0.7043	0.8612	0.3151	-0.022
Mof_C 	C 	0.5618	0.8261	0.3233	-0.362
Mof_C 	C 	0.4576	0.8387	0.33048	0.116
Mof_H 	H 	0.4084	0.8104	0.3339	-0.037
Mof_S 	S 	0.43794	0.00084	0.3241	-0.022
Mof_C 	C 	0.423	0.0047	0.2867	-0.174
Mof_H 	H 	0.3864	0.0389	0.2811	0.062
Mof_H 	H 	0.498	0.0046	0.2804	0.074
Mof_C 	C 	0.3592	0.961	0.2745	0.059
Mof_C 	C 	0.2426	0.9647	0.268	-0.01
Mof_H 	H 	0.2061	0.9972	0.2718	0.028
Mof_N 	N 	0.1832	0.9253	0.25717	-0.159
Mof_C 	C 	0.2359	0.8792	0.252	0.025
Mof_H 	H 	0.1925	0.8505	0.2442	-0.004
Mof_C 	C 	0.3472	0.8717	0.2572	-0.051
Mof_H 	H 	0.3817	0.8394	0.2524	0.01
Mof_C 	C 	0.4095	0.9133	0.27	-0.083
Mof_H 	H 	0.4863	0.9083	0.2756	0.061
Mof_C 	C 	0.5951	0.767	0.3192	0.992
Mof_C 	C 	0.5727	0.7546	0.2912	-1.292
Mof_H 	H 	0.6097	0.781	0.2807	0.379
Mof_H 	H 	0.4922	0.7556	0.2861	0.378
Mof_H 	H 	0.6011	0.7187	0.2878	0.375
Mof_C 	C 	0.5349	0.7281	0.3358	-1.221
Mof_H 	H 	0.4543	0.7324	0.3317	0.357
Mof_H 	H 	0.5552	0.7356	0.3547	0.35
Mof_H 	H 	0.5563	0.6914	0.3318	0.354
Mof_C 	C 	0.7153	0.7602	0.3251	-1.269
Mof_H 	H 	0.7317	0.7228	0.3299	0.361
Mof_H 	H 	0.7422	0.7836	0.34	0.373
Mof_H 	H 	0.7527	0.7696	0.3094	0.378
Mof_S 	S 	0.69742	0.97202	0.31414	-0.012
Mof_C 	C 	0.7203	0.0065	0.345	-0.029
Mof_C 	C 	0.7732	0.9832	0.36793	0.008
Mof_C 	C 	0.7887	0.0139	0.3914	-0.024
Mof_C 	C 	0.7567	0.0679	0.3908	0.031
Mof_H 	H 	0.7704	0.0889	0.4065	0.009
Mof_C 	C 	0.7044	0.092	0.3675	-0.224
Mof_C 	C 	0.6848	0.0609	0.3457	0.048
Mof_H 	H 	0.6458	0.0759	0.3302	-0.007
Mof_S 	S 	0.8299	0.91746	0.36712	-0.016
Mof_C 	C 	0.9723	0.9307	0.3576	-0.162
Mof_H 	H 	0.9784	0.967	0.3499	0.073
Mof_H 	H 	0.0297	0.9262	0.3728	0.067
Mof_C 	C 	0.9806	0.8857	0.3361	0.05
Mof_C 	C 	0.9799	0.9123	0.3119	-0.021
Mof_H 	H 	0.9664	0.9498	0.311	0.036
Mof_N 	N 	0.9989	0.8841	0.2892	-0.149
Mof_C 	C 	0.0187	0.8292	0.2905	0.003
Mof_H 	H 	0.0317	0.81	0.2749	0.001
Mof_C 	C 	0.0194	0.8026	0.3146	-0.056
Mof_H 	H 	0.0329	0.7651	0.3155	0.01
Mof_C 	C 	0.0003	0.8308	0.33741	-0.092
Mof_H 	H 	0.0008	0.8126	0.3539	0.03
Mof_C 	C 	0.6692	0.1508	0.3663	0.644
Mof_C 	C 	0.6494	0.1706	0.3945	-0.883
Mof_H 	H 	0.7206	0.1718	0.4057	0.273
Mof_H 	H 	0.5986	0.146	0.4024	0.269
Mof_H 	H 	0.6167	0.2066	0.3933	0.263
Mof_C 	C 	0.7568	0.1833	0.3563	-0.989
Mof_H 	H 	0.8228	0.183	0.3693	0.292
Mof_H 	H 	0.7304	0.2202	0.3536	0.293
Mof_H 	H 	0.7761	0.1685	0.3395	0.294
Mof_C 	C 	0.5594	0.158	0.3477	-0.873
Mof_H 	H 	0.5416	0.1962	0.3459	0.255
Mof_H 	H 	0.4986	0.1393	0.3553	0.256
Mof_H 	H 	0.5687	0.143	0.3302	0.264
Mof_S 	S 	0.851	0.98864	0.422	-0.03
Mof_C 	C 	0.7482	0.9404	0.43038	-0.021
Mof_C 	C 	0.6429	0.9547	0.43613	0.004
Mof_C 	C 	0.5676	0.9134	0.44161	-0.024
Mof_C 	C 	0.6037	0.8603	0.44269	0.041
Mof_H 	H 	0.5545	0.8332	0.4477	0.003
Mof_C 	C 	0.7095	0.8457	0.43665	-0.226
Mof_C 	C 	0.7821	0.8862	0.43042	0.034
Mof_H 	H 	0.8548	0.8773	0.4262	0.006
Mof_S 	S 	0.6016	0.02351	0.43731	-0.002
Mof_C 	C 	0.634	0.0355	0.47236	-0.178
Mof_H 	H 	0.601	0.007	0.4827	0.08
Mof_H 	H 	0.7157	0.0352	0.4769	0.079
Mof_C 	C 	0.5866	0.09	0.47915	0.049
Mof_C 	C 	0.6611	0.134	0.48232	-0.016
Mof_H 	H 	0.7374	0.1283	0.4801	0.03
Mof_N 	N 	0.6284	0.1826	0.48825	-0.154
Mof_C 	C 	0.5176	0.1911	0.49045	0.012
Mof_H 	H 	0.4928	0.2259	0.4946	0.001
Mof_C 	C 	0.4406	0.1493	0.4867	-0.059
Mof_H 	H 	0.3637	0.1558	0.4878	0.023
Mof_C 	C 	0.4779	0.0984	0.48122	-0.081
Mof_H 	H 	0.4267	0.0695	0.4789	0.046
Mof_C 	C 	0.7416	0.7861	0.4352	0.679
Mof_C 	C 	0.7172	0.7571	0.4603	-0.938
Mof_H 	H 	0.729	0.7185	0.4582	0.278
Mof_H 	H 	0.6398	0.7636	0.4637	0.287
Mof_H 	H 	0.7672	0.7704	0.4754	0.281
Mof_C 	C 	0.6661	0.7633	0.4111	-0.914
Mof_H 	H 	0.6676	0.7876	0.396	0.272
Mof_H 	H 	0.5896	0.76	0.4158	0.277
Mof_H 	H 	0.6936	0.728	0.4064	0.258
Mof_C 	C 	0.86	0.777	0.4319	-1.009
Mof_H 	H 	0.906	0.8009	0.4439	0.312
Mof_H 	H 	0.8735	0.7845	0.4135	0.3
Mof_H 	H 	0.8794	0.7397	0.4362	0.299
Mof_S 	S 	0.42798	0.92622	0.44826	-0.013
Mof_C 	C 	0.3657	0.9494	0.41667	-0.009
Mof_C 	C 	0.351	0.9165	0.3943	0.003
Mof_C 	C 	0.3008	0.939	0.37032	-0.011
Mof_C 	C 	0.2575	0.9903	0.37045	-0.009
Mof_H 	H 	0.2186	0.0039	0.3546	0.02
Mof_C 	C 	0.2689	0.0226	0.39302	-0.138
Mof_C 	C 	0.3244	0.0013	0.41548	0.001
Mof_H 	H 	0.3351	0.023	0.4309	0.013
Mof_S 	S 	0.39217	0.84794	0.39534	-0.019
Mof_C 	C 	0.2531	0.8183	0.3949	-0.159
Mof_H 	H 	0.2047	0.8331	0.3797	0.066
Mof_H 	H 	0.2586	0.7791	0.3923	0.047
Mof_C 	C 	0.201	0.829	0.42	0.032
Mof_C 	C 	0.2224	0.7952	0.4416	-0.01
Mof_H 	H 	0.2664	0.7643	0.4392	0.02
Mof_N 	N 	0.1868	0.8022	0.46497	-0.158
Mof_C 	C 	0.1199	0.8452	0.4678	0.018
Mof_H 	H 	0.0877	0.85	0.484	0.01
Mof_C 	C 	0.0974	0.8822	0.4475	-0.066
Mof_H 	H 	0.0545	0.9133	0.4502	0.042
Mof_C 	C 	0.1376	0.8735	0.4236	-0.065
Mof_H 	H 	0.1218	0.8983	0.4095	0.046
Mof_C 	C 	0.2254	0.0823	0.3921	0.468
Mof_C 	C 	0.281	0.1151	0.3713	-0.727
Mof_H 	H 	0.2912	0.0925	0.3559	0.219
Mof_H 	H 	0.3537	0.1281	0.3791	0.204
Mof_H 	H 	0.2337	0.1458	0.3656	0.196
Mof_C 	C 	0.238	0.1119	0.4193	-0.747
Mof_H 	H 	0.1659	0.1137	0.4264	0.234
Mof_H 	H 	0.2659	0.1484	0.4168	0.207
Mof_H 	H 	0.2914	0.0925	0.4317	0.232
Mof_C 	C 	0.099	0.0763	0.3833	-0.755
Mof_H 	H 	0.0685	0.047	0.3933	0.242
Mof_H 	H 	0.088	0.0682	0.3643	0.237
Mof_H 	H 	0.0607	0.1098	0.3868	0.225
Mof_N 	N 	0.993	0.0018	0.2704	-0.182
Mof_C 	C 	0.9805	0.0334	0.2869	0.093
Mof_S 	S 	0.9899	0.08091	0.30833	-0.144
Mof_N 	N 	0.1342	0.7866	0.52278	-0.205
Mof_C 	C 	0.0946	0.8116	0.5381	0.087
Mof_S 	S 	0.0454	0.84565	0.5615	-0.151
Mof_S 	S 	0.78105	0.40177	0.34003	-0.011
Mof_C 	C 	0.9214	0.3921	0.33288	-0.064
Mof_C 	C 	0.9896	0.4349	0.32737	0.045
Mof_C 	C 	0.0994	0.4222	0.32141	-0.07
Mof_C 	C 	0.131	0.3687	0.3194	0.126
Mof_H 	H 	0.2043	0.3612	0.3151	-0.027
Mof_C 	C 	0.0618	0.3261	0.3233	-0.386
Mof_C 	C 	0.9576	0.3387	0.33048	0.135
Mof_H 	H 	0.9084	0.3104	0.3339	-0.043
Mof_S 	S 	0.93794	0.50084	0.3241	-0.021
Mof_C 	C 	0.923	0.5047	0.2867	-0.176
Mof_H 	H 	0.8864	0.5389	0.2811	0.064
Mof_H 	H 	0.998	0.5046	0.2804	0.077
Mof_C 	C 	0.8592	0.461	0.2745	0.061
Mof_C 	C 	0.7426	0.4647	0.268	-0.011
Mof_H 	H 	0.7061	0.4972	0.2718	0.03
Mof_N 	N 	0.6832	0.4253	0.25717	-0.159
Mof_C 	C 	0.7359	0.3792	0.252	0.025
Mof_H 	H 	0.6925	0.3505	0.2442	-0.003
Mof_C 	C 	0.8472	0.3717	0.2572	-0.049
Mof_H 	H 	0.8817	0.3394	0.2524	0.011
Mof_C 	C 	0.9095	0.4133	0.27	-0.083
Mof_H 	H 	0.9863	0.4083	0.2756	0.063
Mof_C 	C 	0.0951	0.267	0.3192	1.026
Mof_C 	C 	0.0727	0.2546	0.2912	-1.338
Mof_H 	H 	0.1097	0.281	0.2807	0.392
Mof_H 	H 	0.9922	0.2556	0.2861	0.395
Mof_H 	H 	0.1011	0.2187	0.2878	0.387
Mof_C 	C 	0.0349	0.2281	0.3358	-1.264
Mof_H 	H 	0.9543	0.2324	0.3317	0.372
Mof_H 	H 	0.0552	0.2356	0.3547	0.361
Mof_H 	H 	0.0563	0.1914	0.3318	0.365
Mof_C 	C 	0.2153	0.2602	0.3251	-1.298
Mof_H 	H 	0.2317	0.2228	0.3299	0.369
Mof_H 	H 	0.2422	0.2836	0.34	0.381
Mof_H 	H 	0.2527	0.2696	0.3094	0.386
Mof_S 	S 	0.19742	0.47202	0.31414	-0.011
Mof_C 	C 	0.2203	0.5065	0.345	-0.031
Mof_C 	C 	0.2732	0.4832	0.36793	0.009
Mof_C 	C 	0.2887	0.5139	0.3914	-0.025
Mof_C 	C 	0.2567	0.5679	0.3908	0.032
Mof_H 	H 	0.2704	0.5889	0.4065	0.009
Mof_C 	C 	0.2044	0.592	0.3675	-0.228
Mof_C 	C 	0.1848	0.5609	0.3457	0.05
Mof_H 	H 	0.1458	0.5759	0.3302	-0.009
Mof_S 	S 	0.3299	0.41746	0.36712	-0.017
Mof_C 	C 	0.4723	0.4307	0.3576	-0.168
Mof_H 	H 	0.4784	0.467	0.3499	0.073
Mof_H 	H 	0.5297	0.4262	0.3728	0.072
Mof_C 	C 	0.4806	0.3857	0.3361	0.043
Mof_C 	C 	0.4799	0.4123	0.3119	-0.019
Mof_H 	H 	0.4664	0.4498	0.311	0.034
Mof_N 	N 	0.4989	0.3841	0.2892	-0.154
Mof_C 	C 	0.5187	0.3292	0.2905	0.012
Mof_H 	H 	0.5317	0.31	0.2749	-0.001
Mof_C 	C 	0.5194	0.3026	0.3146	-0.063
Mof_H 	H 	0.5329	0.2651	0.3155	0.014
Mof_C 	C 	0.5003	0.3308	0.33741	-0.081
Mof_H 	H 	0.5008	0.3126	0.3539	0.028
Mof_C 	C 	0.1692	0.6508	0.3663	0.651
Mof_C 	C 	0.1494	0.6706	0.3945	-0.887
Mof_H 	H 	0.2206	0.6718	0.4057	0.274
Mof_H 	H 	0.0986	0.646	0.4024	0.269
Mof_H 	H 	0.1167	0.7066	0.3933	0.263
Mof_C 	C 	0.2568	0.6833	0.3563	-0.995
Mof_H 	H 	0.3228	0.683	0.3693	0.293
Mof_H 	H 	0.2304	0.7202	0.3536	0.295
Mof_H 	H 	0.2761	0.6685	0.3395	0.296
Mof_C 	C 	0.0594	0.658	0.3477	-0.892
Mof_H 	H 	0.0416	0.6962	0.3459	0.259
Mof_H 	H 	0.9986	0.6393	0.3553	0.265
Mof_H 	H 	0.0687	0.643	0.3302	0.268
Mof_S 	S 	0.351	0.48864	0.422	-0.032
Mof_C 	C 	0.2482	0.4404	0.43038	-0.021
Mof_C 	C 	0.1429	0.4547	0.43613	0.006
Mof_C 	C 	0.0676	0.4134	0.44161	-0.029
Mof_C 	C 	0.1037	0.3603	0.44269	0.042
Mof_H 	H 	0.0545	0.3332	0.4477	0.001
Mof_C 	C 	0.2095	0.3457	0.43665	-0.226
Mof_C 	C 	0.2821	0.3862	0.43042	0.034
Mof_H 	H 	0.3548	0.3773	0.4262	0.005
Mof_S 	S 	0.1016	0.52351	0.43731	-0.006
Mof_C 	C 	0.134	0.5355	0.47236	-0.175
Mof_H 	H 	0.101	0.507	0.4827	0.078
Mof_H 	H 	0.2157	0.5352	0.4769	0.078
Mof_C 	C 	0.0866	0.59	0.47915	0.044
Mof_C 	C 	0.1611	0.634	0.48232	-0.015
Mof_H 	H 	0.2374	0.6283	0.4801	0.03
Mof_N 	N 	0.1284	0.6826	0.48825	-0.152
Mof_C 	C 	0.0176	0.6911	0.49045	-0.006
Mof_H 	H 	0.9928	0.7259	0.4946	0.011
Mof_C 	C 	0.9406	0.6493	0.4867	-0.048
Mof_H 	H 	0.8637	0.6558	0.4878	0.019
Mof_C 	C 	0.9779	0.5984	0.48122	-0.078
Mof_H 	H 	0.9267	0.5695	0.4789	0.046
Mof_C 	C 	0.2416	0.2861	0.4352	0.674
Mof_C 	C 	0.2172	0.2571	0.4603	-0.933
Mof_H 	H 	0.229	0.2185	0.4582	0.276
Mof_H 	H 	0.1398	0.2636	0.4637	0.285
Mof_H 	H 	0.2672	0.2704	0.4754	0.279
Mof_C 	C 	0.1661	0.2633	0.4111	-0.908
Mof_H 	H 	0.1676	0.2876	0.396	0.269
Mof_H 	H 	0.0896	0.26	0.4158	0.274
Mof_H 	H 	0.1936	0.228	0.4064	0.255
Mof_C 	C 	0.36	0.277	0.4319	-1.002
Mof_H 	H 	0.406	0.3009	0.4439	0.308
Mof_H 	H 	0.3735	0.2845	0.4135	0.297
Mof_H 	H 	0.3794	0.2397	0.4362	0.296
Mof_S 	S 	0.92798	0.42622	0.44826	-0.007
Mof_C 	C 	0.8657	0.4494	0.41667	-0.01
Mof_C 	C 	0.851	0.4165	0.3943	0.004
Mof_C 	C 	0.8008	0.439	0.37032	-0.012
Mof_C 	C 	0.7575	0.4903	0.37045	-0.007
Mof_H 	H 	0.7186	0.5039	0.3546	0.02
Mof_C 	C 	0.7689	0.5226	0.39302	-0.14
Mof_C 	C 	0.8244	0.5013	0.41548	0.003
Mof_H 	H 	0.8351	0.523	0.4309	0.013
Mof_S 	S 	0.89217	0.34794	0.39534	-0.016
Mof_C 	C 	0.7531	0.3183	0.3949	-0.16
Mof_H 	H 	0.7047	0.3331	0.3797	0.066
Mof_H 	H 	0.7586	0.2791	0.3923	0.047
Mof_C 	C 	0.701	0.329	0.42	0.033
Mof_C 	C 	0.7224	0.2952	0.4416	-0.01
Mof_H 	H 	0.7664	0.2643	0.4392	0.02
Mof_N 	N 	0.6868	0.3022	0.46497	-0.158
Mof_C 	C 	0.6199	0.3452	0.4678	0.019
Mof_H 	H 	0.5877	0.35	0.484	0.011
Mof_C 	C 	0.5974	0.3822	0.4475	-0.066
Mof_H 	H 	0.5545	0.4133	0.4502	0.044
Mof_C 	C 	0.6376	0.3735	0.4236	-0.065
Mof_H 	H 	0.6218	0.3983	0.4095	0.047
Mof_C 	C 	0.7254	0.5823	0.3921	0.473
Mof_C 	C 	0.781	0.6151	0.3713	-0.732
Mof_H 	H 	0.7912	0.5925	0.3559	0.221
Mof_H 	H 	0.8537	0.6281	0.3791	0.207
Mof_H 	H 	0.7337	0.6458	0.3656	0.198
Mof_C 	C 	0.738	0.6119	0.4193	-0.752
Mof_H 	H 	0.6659	0.6137	0.4264	0.236
Mof_H 	H 	0.7659	0.6484	0.4168	0.209
Mof_H 	H 	0.7914	0.5925	0.4317	0.234
Mof_C 	C 	0.599	0.5763	0.3833	-0.762
Mof_H 	H 	0.5685	0.547	0.3933	0.246
Mof_H 	H 	0.588	0.5682	0.3643	0.24
Mof_H 	H 	0.5607	0.6098	0.3868	0.229
Mof_N 	N 	0.493	0.5018	0.2704	-0.185
Mof_C 	C 	0.4805	0.5334	0.2869	0.093
Mof_S 	S 	0.4899	0.58091	0.30833	-0.147
Mof_N 	N 	0.6342	0.2866	0.52278	-0.205
Mof_C 	C 	0.5946	0.3116	0.5381	0.087
Mof_S 	S 	0.5454	0.34565	0.5615	-0.147
Mof_S 	S 	0.28105	0.09823	0.84003	-0.014
Mof_C 	C 	0.4214	0.1079	0.83288	-0.056
Mof_C 	C 	0.4896	0.0651	0.82737	0.035
Mof_C 	C 	0.5994	0.0778	0.82141	-0.059
Mof_C 	C 	0.631	0.1313	0.8194	0.113
Mof_H 	H 	0.7043	0.1388	0.8151	-0.022
Mof_C 	C 	0.5618	0.1739	0.8233	-0.362
Mof_C 	C 	0.4576	0.1613	0.83048	0.116
Mof_H 	H 	0.4084	0.1896	0.8339	-0.037
Mof_S 	S 	0.43794	0.99916	0.8241	-0.022
Mof_C 	C 	0.423	0.9953	0.7867	-0.174
Mof_H 	H 	0.3864	0.9611	0.7811	0.062
Mof_H 	H 	0.498	0.9954	0.7804	0.074
Mof_C 	C 	0.3592	0.039	0.7745	0.059
Mof_C 	C 	0.2426	0.0353	0.768	-0.01
Mof_H 	H 	0.2061	0.0028	0.7718	0.028
Mof_N 	N 	0.1832	0.0747	0.75717	-0.159
Mof_C 	C 	0.2359	0.1208	0.752	0.025
Mof_H 	H 	0.1925	0.1495	0.7442	-0.004
Mof_C 	C 	0.3472	0.1283	0.7572	-0.051
Mof_H 	H 	0.3817	0.1606	0.7524	0.01
Mof_C 	C 	0.4095	0.0867	0.77	-0.083
Mof_H 	H 	0.4863	0.0917	0.7756	0.061
Mof_C 	C 	0.5951	0.233	0.8192	0.992
Mof_C 	C 	0.5727	0.2454	0.7912	-1.292
Mof_H 	H 	0.6097	0.219	0.7807	0.379
Mof_H 	H 	0.4922	0.2444	0.7861	0.378
Mof_H 	H 	0.6011	0.2813	0.7878	0.375
Mof_C 	C 	0.5349	0.2719	0.8358	-1.221
Mof_H 	H 	0.4543	0.2676	0.8317	0.357
Mof_H 	H 	0.5552	0.2644	0.8547	0.35
Mof_H 	H 	0.5563	0.3086	0.8318	0.354
Mof_C 	C 	0.7153	0.2398	0.8251	-1.269
Mof_H 	H 	0.7317	0.2772	0.8299	0.361
Mof_H 	H 	0.7422	0.2164	0.84	0.373
Mof_H 	H 	0.7527	0.2304	0.8094	0.378
Mof_S 	S 	0.69742	0.02798	0.81414	-0.012
Mof_C 	C 	0.7203	0.9935	0.845	-0.029
Mof_C 	C 	0.7732	0.0168	0.86793	0.008
Mof_C 	C 	0.7887	0.9861	0.8914	-0.024
Mof_C 	C 	0.7567	0.9321	0.8908	0.031
Mof_H 	H 	0.7704	0.9111	0.9065	0.009
Mof_C 	C 	0.7044	0.908	0.8675	-0.224
Mof_C 	C 	0.6848	0.9391	0.8457	0.048
Mof_H 	H 	0.6458	0.9241	0.8302	-0.007
Mof_S 	S 	0.8299	0.08254	0.86712	-0.016
Mof_C 	C 	0.9723	0.0693	0.8576	-0.162
Mof_H 	H 	0.9784	0.033	0.8499	0.073
Mof_H 	H 	0.0297	0.0738	0.8728	0.067
Mof_C 	C 	0.9806	0.1143	0.8361	0.05
Mof_C 	C 	0.9799	0.0877	0.8119	-0.021
Mof_H 	H 	0.9664	0.0502	0.811	0.036
Mof_N 	N 	0.9989	0.1159	0.7892	-0.149
Mof_C 	C 	0.0187	0.1708	0.7905	0.003
Mof_H 	H 	0.0317	0.19	0.7749	0.001
Mof_C 	C 	0.0194	0.1974	0.8146	-0.056
Mof_H 	H 	0.0329	0.2349	0.8155	0.01
Mof_C 	C 	0.0003	0.1692	0.83741	-0.092
Mof_H 	H 	0.0008	0.1874	0.8539	0.03
Mof_C 	C 	0.6692	0.8492	0.8663	0.644
Mof_C 	C 	0.6494	0.8294	0.8945	-0.883
Mof_H 	H 	0.7206	0.8282	0.9057	0.273
Mof_H 	H 	0.5986	0.854	0.9024	0.269
Mof_H 	H 	0.6167	0.7934	0.8933	0.263
Mof_C 	C 	0.7568	0.8167	0.8563	-0.989
Mof_H 	H 	0.8228	0.817	0.8693	0.292
Mof_H 	H 	0.7304	0.7798	0.8536	0.293
Mof_H 	H 	0.7761	0.8315	0.8395	0.294
Mof_C 	C 	0.5594	0.842	0.8477	-0.873
Mof_H 	H 	0.5416	0.8038	0.8459	0.255
Mof_H 	H 	0.4986	0.8607	0.8553	0.256
Mof_H 	H 	0.5687	0.857	0.8302	0.264
Mof_S 	S 	0.851	0.01136	0.922	-0.03
Mof_C 	C 	0.7482	0.0596	0.93038	-0.021
Mof_C 	C 	0.6429	0.0453	0.93613	0.004
Mof_C 	C 	0.5676	0.0866	0.94161	-0.024
Mof_C 	C 	0.6037	0.1397	0.94269	0.041
Mof_H 	H 	0.5545	0.1668	0.9477	0.003
Mof_C 	C 	0.7095	0.1543	0.93665	-0.226
Mof_C 	C 	0.7821	0.1138	0.93042	0.034
Mof_H 	H 	0.8548	0.1227	0.9262	0.006
Mof_S 	S 	0.6016	0.97649	0.93731	-0.002
Mof_C 	C 	0.634	0.9645	0.97236	-0.178
Mof_H 	H 	0.601	0.993	0.9827	0.08
Mof_H 	H 	0.7157	0.9648	0.9769	0.079
Mof_C 	C 	0.5866	0.91	0.97915	0.049
Mof_C 	C 	0.6611	0.866	0.98232	-0.016
Mof_H 	H 	0.7374	0.8717	0.9801	0.03
Mof_N 	N 	0.6284	0.8174	0.98825	-0.154
Mof_C 	C 	0.5176	0.8089	0.99045	0.012
Mof_H 	H 	0.4928	0.7741	0.9946	0.002
Mof_C 	C 	0.4406	0.8507	0.9867	-0.059
Mof_H 	H 	0.3637	0.8442	0.9878	0.023
Mof_C 	C 	0.4779	0.9016	0.98122	-0.082
Mof_H 	H 	0.4267	0.9305	0.9789	0.046
Mof_C 	C 	0.7416	0.2139	0.9352	0.679
Mof_C 	C 	0.7172	0.2429	0.9603	-0.939
Mof_H 	H 	0.729	0.2815	0.9582	0.278
Mof_H 	H 	0.6398	0.2364	0.9637	0.288
Mof_H 	H 	0.7672	0.2296	0.9754	0.281
Mof_C 	C 	0.6661	0.2367	0.9111	-0.914
Mof_H 	H 	0.6676	0.2124	0.896	0.272
Mof_H 	H 	0.5896	0.24	0.9158	0.277
Mof_H 	H 	0.6936	0.272	0.9064	0.258
Mof_C 	C 	0.86	0.223	0.9319	-1.009
Mof_H 	H 	0.906	0.1991	0.9439	0.312
Mof_H 	H 	0.8735	0.2155	0.9135	0.3
Mof_H 	H 	0.8794	0.2603	0.9362	0.299
Mof_S 	S 	0.42798	0.07378	0.94826	-0.012
Mof_C 	C 	0.3657	0.0506	0.91667	-0.009
Mof_C 	C 	0.351	0.0835	0.8943	0.003
Mof_C 	C 	0.3008	0.061	0.87032	-0.011
Mof_C 	C 	0.2575	0.0097	0.87045	-0.009
Mof_H 	H 	0.2186	0.9961	0.8546	0.02
Mof_C 	C 	0.2689	0.9774	0.89302	-0.138
Mof_C 	C 	0.3244	0.9987	0.91548	0.001
Mof_H 	H 	0.3351	0.977	0.9309	0.013
Mof_S 	S 	0.39217	0.15206	0.89534	-0.019
Mof_C 	C 	0.2531	0.1817	0.8949	-0.159
Mof_H 	H 	0.2047	0.1669	0.8797	0.066
Mof_H 	H 	0.2586	0.2209	0.8923	0.047
Mof_C 	C 	0.201	0.171	0.92	0.032
Mof_C 	C 	0.2224	0.2048	0.9416	-0.01
Mof_H 	H 	0.2664	0.2357	0.9392	0.02
Mof_N 	N 	0.1868	0.1978	0.96497	-0.158
Mof_C 	C 	0.1199	0.1548	0.9678	0.018
Mof_H 	H 	0.0877	0.15	0.984	0.011
Mof_C 	C 	0.0974	0.1178	0.9475	-0.066
Mof_H 	H 	0.0545	0.0867	0.9502	0.042
Mof_C 	C 	0.1376	0.1265	0.9236	-0.065
Mof_H 	H 	0.1218	0.1017	0.9095	0.046
Mof_C 	C 	0.2254	0.9177	0.8921	0.468
Mof_C 	C 	0.281	0.8849	0.8713	-0.727
Mof_H 	H 	0.2912	0.9075	0.8559	0.219
Mof_H 	H 	0.3537	0.8719	0.8791	0.204
Mof_H 	H 	0.2337	0.8542	0.8656	0.196
Mof_C 	C 	0.238	0.8881	0.9193	-0.747
Mof_H 	H 	0.1659	0.8863	0.9264	0.234
Mof_H 	H 	0.2659	0.8516	0.9168	0.207
Mof_H 	H 	0.2914	0.9075	0.9317	0.232
Mof_C 	C 	0.099	0.9237	0.8833	-0.755
Mof_H 	H 	0.0685	0.953	0.8933	0.242
Mof_H 	H 	0.088	0.9318	0.8643	0.237
Mof_H 	H 	0.0607	0.8902	0.8868	0.225
Mof_N 	N 	0.993	0.9982	0.7704	-0.182
Mof_C 	C 	0.9805	0.9666	0.7869	0.093
Mof_S 	S 	0.9899	0.91909	0.80833	-0.144
Mof_N 	N 	0.1342	0.2134	0.02278	-0.205
Mof_C 	C 	0.0946	0.1884	0.0381	0.087
Mof_S 	S 	0.0454	0.15435	0.0615	-0.151
Mof_S 	S 	0.78105	0.59823	0.84003	-0.011
Mof_C 	C 	0.9214	0.6079	0.83288	-0.064
Mof_C 	C 	0.9896	0.5651	0.82737	0.045
Mof_C 	C 	0.0994	0.5778	0.82141	-0.07
Mof_C 	C 	0.131	0.6313	0.8194	0.126
Mof_H 	H 	0.2043	0.6388	0.8151	-0.027
Mof_C 	C 	0.0618	0.6739	0.8233	-0.386
Mof_C 	C 	0.9576	0.6613	0.83048	0.135
Mof_H 	H 	0.9084	0.6896	0.8339	-0.043
Mof_S 	S 	0.93794	0.49916	0.8241	-0.021
Mof_C 	C 	0.923	0.4953	0.7867	-0.176
Mof_H 	H 	0.8864	0.4611	0.7811	0.064
Mof_H 	H 	0.998	0.4954	0.7804	0.077
Mof_C 	C 	0.8592	0.539	0.7745	0.061
Mof_C 	C 	0.7426	0.5353	0.768	-0.011
Mof_H 	H 	0.7061	0.5028	0.7718	0.03
Mof_N 	N 	0.6832	0.5747	0.75717	-0.159
Mof_C 	C 	0.7359	0.6208	0.752	0.025
Mof_H 	H 	0.6925	0.6495	0.7442	-0.003
Mof_C 	C 	0.8472	0.6283	0.7572	-0.049
Mof_H 	H 	0.8817	0.6606	0.7524	0.011
Mof_C 	C 	0.9095	0.5867	0.77	-0.083
Mof_H 	H 	0.9863	0.5917	0.7756	0.063
Mof_C 	C 	0.0951	0.733	0.8192	1.026
Mof_C 	C 	0.0727	0.7454	0.7912	-1.338
Mof_H 	H 	0.1097	0.719	0.7807	0.392
Mof_H 	H 	0.9922	0.7444	0.7861	0.395
Mof_H 	H 	0.1011	0.7813	0.7878	0.387
Mof_C 	C 	0.0349	0.7719	0.8358	-1.264
Mof_H 	H 	0.9543	0.7676	0.8317	0.372
Mof_H 	H 	0.0552	0.7644	0.8547	0.361
Mof_H 	H 	0.0563	0.8086	0.8318	0.365
Mof_C 	C 	0.2153	0.7398	0.8251	-1.298
Mof_H 	H 	0.2317	0.7772	0.8299	0.369
Mof_H 	H 	0.2422	0.7164	0.84	0.381
Mof_H 	H 	0.2527	0.7304	0.8094	0.386
Mof_S 	S 	0.19742	0.52798	0.81414	-0.011
Mof_C 	C 	0.2203	0.4935	0.845	-0.031
Mof_C 	C 	0.2732	0.5168	0.86793	0.009
Mof_C 	C 	0.2887	0.4861	0.8914	-0.025
Mof_C 	C 	0.2567	0.4321	0.8908	0.032
Mof_H 	H 	0.2704	0.4111	0.9065	0.009
Mof_C 	C 	0.2044	0.408	0.8675	-0.228
Mof_C 	C 	0.1848	0.4391	0.8457	0.05
Mof_H 	H 	0.1458	0.4241	0.8302	-0.009
Mof_S 	S 	0.3299	0.58254	0.86712	-0.017
Mof_C 	C 	0.4723	0.5693	0.8576	-0.168
Mof_H 	H 	0.4784	0.533	0.8499	0.073
Mof_H 	H 	0.5297	0.5738	0.8728	0.072
Mof_C 	C 	0.4806	0.6143	0.8361	0.043
Mof_C 	C 	0.4799	0.5877	0.8119	-0.019
Mof_H 	H 	0.4664	0.5502	0.811	0.034
Mof_N 	N 	0.4989	0.6159	0.7892	-0.154
Mof_C 	C 	0.5187	0.6708	0.7905	0.012
Mof_H 	H 	0.5317	0.69	0.7749	-0.001
Mof_C 	C 	0.5194	0.6974	0.8146	-0.063
Mof_H 	H 	0.5329	0.7349	0.8155	0.014
Mof_C 	C 	0.5003	0.6692	0.83741	-0.081
Mof_H 	H 	0.5008	0.6874	0.8539	0.028
Mof_C 	C 	0.1692	0.3492	0.8663	0.651
Mof_C 	C 	0.1494	0.3294	0.8945	-0.887
Mof_H 	H 	0.2206	0.3282	0.9057	0.274
Mof_H 	H 	0.0986	0.354	0.9024	0.269
Mof_H 	H 	0.1167	0.2934	0.8933	0.263
Mof_C 	C 	0.2568	0.3167	0.8563	-0.995
Mof_H 	H 	0.3228	0.317	0.8693	0.293
Mof_H 	H 	0.2304	0.2798	0.8536	0.295
Mof_H 	H 	0.2761	0.3315	0.8395	0.296
Mof_C 	C 	0.0594	0.342	0.8477	-0.892
Mof_H 	H 	0.0416	0.3038	0.8459	0.259
Mof_H 	H 	0.9986	0.3607	0.8553	0.265
Mof_H 	H 	0.0687	0.357	0.8302	0.268
Mof_S 	S 	0.351	0.51136	0.922	-0.032
Mof_C 	C 	0.2482	0.5596	0.93038	-0.021
Mof_C 	C 	0.1429	0.5453	0.93613	0.006
Mof_C 	C 	0.0676	0.5866	0.94161	-0.029
Mof_C 	C 	0.1037	0.6397	0.94269	0.042
Mof_H 	H 	0.0545	0.6668	0.9477	0.001
Mof_C 	C 	0.2095	0.6543	0.93665	-0.226
Mof_C 	C 	0.2821	0.6138	0.93042	0.034
Mof_H 	H 	0.3548	0.6227	0.9262	0.005
Mof_S 	S 	0.1016	0.47649	0.93731	-0.006
Mof_C 	C 	0.134	0.4645	0.97236	-0.175
Mof_H 	H 	0.101	0.493	0.9827	0.078
Mof_H 	H 	0.2157	0.4648	0.9769	0.078
Mof_C 	C 	0.0866	0.41	0.97915	0.044
Mof_C 	C 	0.1611	0.366	0.98232	-0.015
Mof_H 	H 	0.2374	0.3717	0.9801	0.03
Mof_N 	N 	0.1284	0.3174	0.98825	-0.152
Mof_C 	C 	0.0176	0.3089	0.99045	-0.005
Mof_H 	H 	0.9928	0.2741	0.9946	0.011
Mof_C 	C 	0.9406	0.3507	0.9867	-0.048
Mof_H 	H 	0.8637	0.3442	0.9878	0.019
Mof_C 	C 	0.9779	0.4016	0.98122	-0.079
Mof_H 	H 	0.9267	0.4305	0.9789	0.046
Mof_C 	C 	0.2416	0.7139	0.9352	0.675
Mof_C 	C 	0.2172	0.7429	0.9603	-0.934
Mof_H 	H 	0.229	0.7815	0.9582	0.276
Mof_H 	H 	0.1398	0.7364	0.9637	0.285
Mof_H 	H 	0.2672	0.7296	0.9754	0.279
Mof_C 	C 	0.1661	0.7367	0.9111	-0.908
Mof_H 	H 	0.1676	0.7124	0.896	0.269
Mof_H 	H 	0.0896	0.74	0.9158	0.274
Mof_H 	H 	0.1936	0.772	0.9064	0.256
Mof_C 	C 	0.36	0.723	0.9319	-1.003
Mof_H 	H 	0.406	0.6991	0.9439	0.309
Mof_H 	H 	0.3735	0.7155	0.9135	0.297
Mof_H 	H 	0.3794	0.7603	0.9362	0.296
Mof_S 	S 	0.92798	0.57378	0.94826	-0.007
Mof_C 	C 	0.8657	0.5506	0.91667	-0.01
Mof_C 	C 	0.851	0.5835	0.8943	0.004
Mof_C 	C 	0.8008	0.561	0.87032	-0.012
Mof_C 	C 	0.7575	0.5097	0.87045	-0.007
Mof_H 	H 	0.7186	0.4961	0.8546	0.02
Mof_C 	C 	0.7689	0.4774	0.89302	-0.14
Mof_C 	C 	0.8244	0.4987	0.91548	0.003
Mof_H 	H 	0.8351	0.477	0.9309	0.013
Mof_S 	S 	0.89217	0.65206	0.89534	-0.016
Mof_C 	C 	0.7531	0.6817	0.8949	-0.16
Mof_H 	H 	0.7047	0.6669	0.8797	0.066
Mof_H 	H 	0.7586	0.7209	0.8923	0.047
Mof_C 	C 	0.701	0.671	0.92	0.033
Mof_C 	C 	0.7224	0.7048	0.9416	-0.01
Mof_H 	H 	0.7664	0.7357	0.9392	0.02
Mof_N 	N 	0.6868	0.6978	0.96497	-0.158
Mof_C 	C 	0.6199	0.6548	0.9678	0.019
Mof_H 	H 	0.5877	0.65	0.984	0.011
Mof_C 	C 	0.5974	0.6178	0.9475	-0.066
Mof_H 	H 	0.5545	0.5867	0.9502	0.044
Mof_C 	C 	0.6376	0.6265	0.9236	-0.065
Mof_H 	H 	0.6218	0.6017	0.9095	0.047
Mof_C 	C 	0.7254	0.4177	0.8921	0.473
Mof_C 	C 	0.781	0.3849	0.8713	-0.732
Mof_H 	H 	0.7912	0.4075	0.8559	0.221
Mof_H 	H 	0.8537	0.3719	0.8791	0.207
Mof_H 	H 	0.7337	0.3542	0.8656	0.198
Mof_C 	C 	0.738	0.3881	0.9193	-0.752
Mof_H 	H 	0.6659	0.3863	0.9264	0.236
Mof_H 	H 	0.7659	0.3516	0.9168	0.209
Mof_H 	H 	0.7914	0.4075	0.9317	0.234
Mof_C 	C 	0.599	0.4237	0.8833	-0.762
Mof_H 	H 	0.5685	0.453	0.8933	0.246
Mof_H 	H 	0.588	0.4318	0.8643	0.24
Mof_H 	H 	0.5607	0.3902	0.8868	0.229
Mof_N 	N 	0.493	0.4982	0.7704	-0.185
Mof_C 	C 	0.4805	0.4666	0.7869	0.093
Mof_S 	S 	0.4899	0.41909	0.80833	-0.147
Mof_N 	N 	0.6342	0.7134	0.02278	-0.205
Mof_C 	C 	0.5946	0.6884	0.0381	0.087
Mof_S 	S 	0.5454	0.65435	0.0615	-0.147
Mof_S 	S 	0.71895	0.09823	0.65997	-0.012
Mof_C 	C 	0.5786	0.1079	0.66712	-0.056
Mof_C 	C 	0.5104	0.0651	0.67263	0.035
Mof_C 	C 	0.4006	0.0778	0.67859	-0.059
Mof_C 	C 	0.369	0.1313	0.6806	0.113
Mof_H 	H 	0.2957	0.1388	0.6849	-0.022
Mof_C 	C 	0.4382	0.1739	0.6767	-0.361
Mof_C 	C 	0.5424	0.1613	0.66952	0.116
Mof_H 	H 	0.5916	0.1896	0.6661	-0.037
Mof_S 	S 	0.56206	0.99916	0.6759	-0.021
Mof_C 	C 	0.577	0.9953	0.7133	-0.175
Mof_H 	H 	0.6136	0.9611	0.7189	0.063
Mof_H 	H 	0.502	0.9954	0.7196	0.075
Mof_C 	C 	0.6408	0.039	0.7255	0.06
Mof_C 	C 	0.7574	0.0353	0.732	-0.011
Mof_H 	H 	0.7939	0.0028	0.7282	0.031
Mof_N 	N 	0.8168	0.0747	0.74283	-0.157
Mof_C 	C 	0.7641	0.1208	0.748	0.025
Mof_H 	H 	0.8075	0.1495	0.7558	-0.002
Mof_C 	C 	0.6528	0.1283	0.7428	-0.05
Mof_H 	H 	0.6183	0.1606	0.7476	0.01
Mof_C 	C 	0.5905	0.0867	0.73	-0.083
Mof_H 	H 	0.5137	0.0917	0.7244	0.061
Mof_C 	C 	0.4049	0.233	0.6808	0.989
Mof_C 	C 	0.4273	0.2454	0.7088	-1.289
Mof_H 	H 	0.3903	0.219	0.7193	0.378
Mof_H 	H 	0.5078	0.2444	0.7139	0.377
Mof_H 	H 	0.3989	0.2813	0.7122	0.373
Mof_C 	C 	0.4651	0.2719	0.6642	-1.218
Mof_H 	H 	0.5457	0.2676	0.6683	0.356
Mof_H 	H 	0.4448	0.2644	0.6453	0.349
Mof_H 	H 	0.4437	0.3086	0.6682	0.353
Mof_C 	C 	0.2847	0.2398	0.6749	-1.263
Mof_H 	H 	0.2683	0.2772	0.6701	0.359
Mof_H 	H 	0.2578	0.2164	0.66	0.37
Mof_H 	H 	0.2473	0.2304	0.6906	0.375
Mof_S 	S 	0.30258	0.02798	0.68586	-0.013
Mof_C 	C 	0.2797	0.9935	0.655	-0.029
Mof_C 	C 	0.2268	0.0168	0.63207	0.008
Mof_C 	C 	0.2113	0.9861	0.6086	-0.024
Mof_C 	C 	0.2433	0.9321	0.6092	0.03
Mof_H 	H 	0.2296	0.9111	0.5935	0.01
Mof_C 	C 	0.2956	0.908	0.6325	-0.224
Mof_C 	C 	0.3152	0.9391	0.6543	0.048
Mof_H 	H 	0.3542	0.9241	0.6698	-0.007
Mof_S 	S 	0.1701	0.08254	0.63288	-0.016
Mof_C 	C 	0.0277	0.0693	0.6424	-0.174
Mof_H 	H 	0.0216	0.033	0.6501	0.074
Mof_H 	H 	0.9703	0.0738	0.6272	0.077
Mof_C 	C 	0.0194	0.1143	0.6639	0.035
Mof_C 	C 	0.0201	0.0877	0.6881	-0.017
Mof_H 	H 	0.0336	0.0502	0.689	0.033
Mof_N 	N 	0.0011	0.1159	0.7108	-0.158
Mof_C 	C 	0.9813	0.1708	0.7095	0.021
Mof_H 	H 	0.9683	0.19	0.7251	-0.002
Mof_C 	C 	0.9806	0.1974	0.6854	-0.069
Mof_H 	H 	0.9671	0.2349	0.6845	0.017
Mof_C 	C 	0.9997	0.1692	0.66259	-0.07
Mof_H 	H 	0.9992	0.1874	0.6461	0.026
Mof_C 	C 	0.3308	0.8492	0.6337	0.643
Mof_C 	C 	0.3506	0.8294	0.6055	-0.882
Mof_H 	H 	0.2794	0.8282	0.5943	0.273
Mof_H 	H 	0.4014	0.854	0.5976	0.268
Mof_H 	H 	0.3833	0.7934	0.6067	0.262
Mof_C 	C 	0.2432	0.8167	0.6437	-0.987
Mof_H 	H 	0.1772	0.817	0.6307	0.29
Mof_H 	H 	0.2696	0.7798	0.6464	0.293
Mof_H 	H 	0.2239	0.8315	0.6605	0.294
Mof_C 	C 	0.4406	0.842	0.6523	-0.873
Mof_H 	H 	0.4584	0.8038	0.6541	0.255
Mof_H 	H 	0.5014	0.8607	0.6447	0.256
Mof_H 	H 	0.4313	0.857	0.6698	0.264
Mof_S 	S 	0.149	0.01136	0.578	-0.035
Mof_C 	C 	0.2518	0.0596	0.56962	-0.02
Mof_C 	C 	0.3571	0.0453	0.56387	0.004
Mof_C 	C 	0.4324	0.0866	0.55839	-0.024
Mof_C 	C 	0.3963	0.1397	0.55731	0.039
Mof_H 	H 	0.4455	0.1668	0.5523	0.003
Mof_C 	C 	0.2905	0.1543	0.56335	-0.224
Mof_C 	C 	0.2179	0.1138	0.56958	0.033
Mof_H 	H 	0.1452	0.1227	0.5738	0.004
Mof_S 	S 	0.3984	0.97649	0.56269	-0.002
Mof_C 	C 	0.366	0.9645	0.52764	-0.177
Mof_H 	H 	0.399	0.993	0.5173	0.079
Mof_H 	H 	0.2843	0.9648	0.5231	0.078
Mof_C 	C 	0.4134	0.91	0.52085	0.049
Mof_C 	C 	0.3389	0.866	0.51768	-0.016
Mof_H 	H 	0.2626	0.8717	0.5199	0.03
Mof_N 	N 	0.3716	0.8174	0.51175	-0.154
Mof_C 	C 	0.4824	0.8089	0.50955	0.012
Mof_H 	H 	0.5072	0.7741	0.5054	0.001
Mof_C 	C 	0.5594	0.8507	0.5133	-0.059
Mof_H 	H 	0.6363	0.8442	0.5122	0.023
Mof_C 	C 	0.5221	0.9016	0.51878	-0.081
Mof_H 	H 	0.5733	0.9305	0.5211	0.046
Mof_C 	C 	0.2584	0.2139	0.5648	0.673
Mof_C 	C 	0.2828	0.2429	0.5397	-0.933
Mof_H 	H 	0.271	0.2815	0.5418	0.276
Mof_H 	H 	0.3602	0.2364	0.5363	0.286
Mof_H 	H 	0.2328	0.2296	0.5246	0.278
Mof_C 	C 	0.3339	0.2367	0.5889	-0.909
Mof_H 	H 	0.3324	0.2124	0.604	0.27
Mof_H 	H 	0.4104	0.24	0.5842	0.276
Mof_H 	H 	0.3064	0.272	0.5936	0.256
Mof_C 	C 	0.14	0.223	0.5681	-0.999
Mof_H 	H 	0.094	0.1991	0.5561	0.306
Mof_H 	H 	0.1265	0.2155	0.5865	0.295
Mof_H 	H 	0.1206	0.2603	0.5638	0.295
Mof_S 	S 	0.57202	0.07378	0.55174	-0.012
Mof_C 	C 	0.6343	0.0506	0.58333	-0.01
Mof_C 	C 	0.649	0.0835	0.6057	0.003
Mof_C 	C 	0.6992	0.061	0.62968	-0.011
Mof_C 	C 	0.7425	0.0097	0.62955	-0.008
Mof_H 	H 	0.7814	0.9961	0.6454	0.021
Mof_C 	C 	0.7311	0.9774	0.60698	-0.14
Mof_C 	C 	0.6756	0.9987	0.58452	0.003
Mof_H 	H 	0.6649	0.977	0.5691	0.012
Mof_S 	S 	0.60783	0.15206	0.60466	-0.018
Mof_C 	C 	0.7469	0.1817	0.6051	-0.159
Mof_H 	H 	0.7953	0.1669	0.6203	0.067
Mof_H 	H 	0.7414	0.2209	0.6077	0.047
Mof_C 	C 	0.799	0.171	0.58	0.033
Mof_C 	C 	0.7776	0.2048	0.5584	-0.01
Mof_H 	H 	0.7336	0.2357	0.5608	0.02
Mof_N 	N 	0.8132	0.1978	0.53503	-0.158
Mof_C 	C 	0.8801	0.1548	0.5322	0.02
Mof_H 	H 	0.9123	0.15	0.516	0.012
Mof_C 	C 	0.9026	0.1178	0.5525	-0.066
Mof_H 	H 	0.9455	0.0867	0.5498	0.045
Mof_C 	C 	0.8624	0.1265	0.5764	-0.064
Mof_H 	H 	0.8782	0.1017	0.5905	0.047
Mof_C 	C 	0.7746	0.9177	0.6079	0.476
Mof_C 	C 	0.719	0.8849	0.6287	-0.735
Mof_H 	H 	0.7088	0.9075	0.6441	0.222
Mof_H 	H 	0.6463	0.8719	0.6209	0.207
Mof_H 	H 	0.7663	0.8542	0.6344	0.2
Mof_C 	C 	0.762	0.8881	0.5807	-0.755
Mof_H 	H 	0.8341	0.8863	0.5736	0.238
Mof_H 	H 	0.7341	0.8516	0.5832	0.21
Mof_H 	H 	0.7086	0.9075	0.5683	0.234
Mof_C 	C 	0.901	0.9237	0.6167	-0.768
Mof_H 	H 	0.9315	0.953	0.6067	0.249
Mof_H 	H 	0.912	0.9318	0.6357	0.243
Mof_H 	H 	0.9393	0.8902	0.6132	0.232
Mof_N 	N 	0.007	0.9982	0.7296	-0.186
Mof_C 	C 	0.0195	0.9666	0.7131	0.092
Mof_S 	S 	0.0101	0.91909	0.69167	-0.15
Mof_N 	N 	0.8658	0.2134	0.47722	-0.204
Mof_C 	C 	0.9054	0.1884	0.4619	0.088
Mof_S 	S 	0.9546	0.15435	0.4385	-0.143
Mof_S 	S 	0.21895	0.59823	0.65997	-0.015
Mof_C 	C 	0.0786	0.6079	0.66712	-0.048
Mof_C 	C 	0.0104	0.5651	0.67263	0.025
Mof_C 	C 	0.9006	0.5778	0.67859	-0.047
Mof_C 	C 	0.869	0.6313	0.6806	0.098
Mof_H 	H 	0.7957	0.6388	0.6849	-0.016
Mof_C 	C 	0.9382	0.6739	0.6767	-0.336
Mof_C 	C 	0.0424	0.6613	0.66952	0.096
Mof_H 	H 	0.0916	0.6896	0.6661	-0.031
Mof_S 	S 	0.06206	0.49916	0.6759	-0.022
Mof_C 	C 	0.077	0.4953	0.7133	-0.173
Mof_H 	H 	0.1136	0.4611	0.7189	0.062
Mof_H 	H 	0.002	0.4954	0.7196	0.072
Mof_C 	C 	0.1408	0.539	0.7255	0.058
Mof_C 	C 	0.2574	0.5353	0.732	-0.01
Mof_H 	H 	0.2939	0.5028	0.7282	0.029
Mof_N 	N 	0.3168	0.5747	0.74283	-0.159
Mof_C 	C 	0.2641	0.6208	0.748	0.025
Mof_H 	H 	0.3075	0.6495	0.7558	-0.004
Mof_C 	C 	0.1528	0.6283	0.7428	-0.051
Mof_H 	H 	0.1183	0.6606	0.7476	0.009
Mof_C 	C 	0.0905	0.5867	0.73	-0.082
Mof_H 	H 	0.0137	0.5917	0.7244	0.059
Mof_C 	C 	0.9049	0.733	0.6808	0.952
Mof_C 	C 	0.9273	0.7454	0.7088	-1.239
Mof_H 	H 	0.8903	0.719	0.7193	0.365
Mof_H 	H 	0.0078	0.7444	0.7139	0.359
Mof_H 	H 	0.8989	0.7813	0.7122	0.361
Mof_C 	C 	0.9651	0.7719	0.6642	-1.172
Mof_H 	H 	0.0457	0.7676	0.6683	0.34
Mof_H 	H 	0.9448	0.7644	0.6453	0.337
Mof_H 	H 	0.9437	0.8086	0.6682	0.342
Mof_C 	C 	0.7847	0.7398	0.6749	-1.231
Mof_H 	H 	0.7683	0.7772	0.6701	0.35
Mof_H 	H 	0.7578	0.7164	0.66	0.362
Mof_H 	H 	0.7473	0.7304	0.6906	0.367
Mof_S 	S 	0.80258	0.52798	0.68586	-0.013
Mof_C 	C 	0.7797	0.4935	0.655	-0.028
Mof_C 	C 	0.7268	0.5168	0.63207	0.008
Mof_C 	C 	0.7113	0.4861	0.6086	-0.023
Mof_C 	C 	0.7433	0.4321	0.6092	0.029
Mof_H 	H 	0.7296	0.4111	0.5935	0.01
Mof_C 	C 	0.7956	0.408	0.6325	-0.22
Mof_C 	C 	0.8152	0.4391	0.6543	0.046
Mof_H 	H 	0.8542	0.4241	0.6698	-0.005
Mof_S 	S 	0.6701	0.58254	0.63288	-0.015
Mof_C 	C 	0.5277	0.5693	0.6424	-0.168
Mof_H 	H 	0.5216	0.533	0.6501	0.073
Mof_H 	H 	0.4703	0.5738	0.6272	0.072
Mof_C 	C 	0.5194	0.6143	0.6639	0.043
Mof_C 	C 	0.5201	0.5877	0.6881	-0.019
Mof_H 	H 	0.5336	0.5502	0.689	0.034
Mof_N 	N 	0.5011	0.6159	0.7108	-0.154
Mof_C 	C 	0.4813	0.6708	0.7095	0.012
Mof_H 	H 	0.4683	0.69	0.7251	-0.001
Mof_C 	C 	0.4806	0.6974	0.6854	-0.062
Mof_H 	H 	0.4671	0.7349	0.6845	0.014
Mof_C 	C 	0.4997	0.6692	0.66259	-0.081
Mof_H 	H 	0.4992	0.6874	0.6461	0.028
Mof_C 	C 	0.8308	0.3492	0.6337	0.636
Mof_C 	C 	0.8506	0.3294	0.6055	-0.877
Mof_H 	H 	0.7794	0.3282	0.5943	0.272
Mof_H 	H 	0.9014	0.354	0.5976	0.268
Mof_H 	H 	0.8833	0.2934	0.6067	0.262
Mof_C 	C 	0.7432	0.3167	0.6437	-0.981
Mof_H 	H 	0.6772	0.317	0.6307	0.289
Mof_H 	H 	0.7696	0.2798	0.6464	0.291
Mof_H 	H 	0.7239	0.3315	0.6605	0.292
Mof_C 	C 	0.9406	0.342	0.6523	-0.852
Mof_H 	H 	0.9584	0.3038	0.6541	0.25
Mof_H 	H 	0.0014	0.3607	0.6447	0.246
Mof_H 	H 	0.9313	0.357	0.6698	0.259
Mof_S 	S 	0.649	0.51136	0.578	-0.033
Mof_C 	C 	0.7518	0.5596	0.56962	-0.02
Mof_C 	C 	0.8571	0.5453	0.56387	0.003
Mof_C 	C 	0.9324	0.5866	0.55839	-0.018
Mof_C 	C 	0.8963	0.6397	0.55731	0.038
Mof_H 	H 	0.9455	0.6668	0.5523	0.005
Mof_C 	C 	0.7905	0.6543	0.56335	-0.224
Mof_C 	C 	0.7179	0.6138	0.56958	0.033
Mof_H 	H 	0.6452	0.6227	0.5738	0.005
Mof_S 	S 	0.8984	0.47649	0.56269	0.002
Mof_C 	C 	0.866	0.4645	0.52764	-0.18
Mof_H 	H 	0.899	0.493	0.5173	0.081
Mof_H 	H 	0.7843	0.4648	0.5231	0.079
Mof_C 	C 	0.9134	0.41	0.52085	0.054
Mof_C 	C 	0.8389	0.366	0.51768	-0.016
Mof_H 	H 	0.7626	0.3717	0.5199	0.03
Mof_N 	N 	0.8716	0.3174	0.51175	-0.156
Mof_C 	C 	0.9824	0.3089	0.50955	0.029
Mof_H 	H 	0.0072	0.2741	0.5054	-0.008
Mof_C 	C 	0.0594	0.3507	0.5133	-0.07
Mof_H 	H 	0.1363	0.3442	0.5122	0.026
Mof_C 	C 	0.0221	0.4016	0.51878	-0.084
Mof_H 	H 	0.0733	0.4305	0.5211	0.046
Mof_C 	C 	0.7584	0.7139	0.5648	0.678
Mof_C 	C 	0.7828	0.7429	0.5397	-0.939
Mof_H 	H 	0.771	0.7815	0.5418	0.278
Mof_H 	H 	0.8602	0.7364	0.5363	0.288
Mof_H 	H 	0.7328	0.7296	0.5246	0.28
Mof_C 	C 	0.8339	0.7367	0.5889	-0.915
Mof_H 	H 	0.8324	0.7124	0.604	0.273
Mof_H 	H 	0.9104	0.74	0.5842	0.279
Mof_H 	H 	0.8064	0.772	0.5936	0.259
Mof_C 	C 	0.64	0.723	0.5681	-1.006
Mof_H 	H 	0.594	0.6991	0.5561	0.31
Mof_H 	H 	0.6265	0.7155	0.5865	0.298
Mof_H 	H 	0.6206	0.7603	0.5638	0.298
Mof_S 	S 	0.07202	0.57378	0.55174	-0.018
Mof_C 	C 	0.1343	0.5506	0.58333	-0.009
Mof_C 	C 	0.149	0.5835	0.6057	0.003
Mof_C 	C 	0.1992	0.561	0.62968	-0.011
Mof_C 	C 	0.2425	0.5097	0.62955	-0.008
Mof_H 	H 	0.2814	0.4961	0.6454	0.021
Mof_C 	C 	0.2311	0.4774	0.60698	-0.139
Mof_C 	C 	0.1756	0.4987	0.58452	0.001
Mof_H 	H 	0.1649	0.477	0.5691	0.012
Mof_S 	S 	0.10783	0.65206	0.60466	-0.021
Mof_C 	C 	0.2469	0.6817	0.6051	-0.158
Mof_H 	H 	0.2953	0.6669	0.6203	0.066
Mof_H 	H 	0.2414	0.7209	0.6077	0.047
Mof_C 	C 	0.299	0.671	0.58	0.032
Mof_C 	C 	0.2776	0.7048	0.5584	-0.01
Mof_H 	H 	0.2336	0.7357	0.5608	0.02
Mof_N 	N 	0.3132	0.6978	0.53503	-0.158
Mof_C 	C 	0.3801	0.6548	0.5322	0.019
Mof_H 	H 	0.4123	0.65	0.516	0.011
Mof_C 	C 	0.4026	0.6178	0.5525	-0.066
Mof_H 	H 	0.4455	0.5867	0.5498	0.044
Mof_C 	C 	0.3624	0.6265	0.5764	-0.064
Mof_H 	H 	0.3782	0.6017	0.5905	0.047
Mof_C 	C 	0.2746	0.4177	0.6079	0.471
Mof_C 	C 	0.219	0.3849	0.6287	-0.729
Mof_H 	H 	0.2088	0.4075	0.6441	0.22
Mof_H 	H 	0.1463	0.3719	0.6209	0.205
Mof_H 	H 	0.2663	0.3542	0.6344	0.197
Mof_C 	C 	0.262	0.3881	0.5807	-0.75
Mof_H 	H 	0.3341	0.3863	0.5736	0.235
Mof_H 	H 	0.2341	0.3516	0.5832	0.208
Mof_H 	H 	0.2086	0.4075	0.5683	0.232
Mof_C 	C 	0.401	0.4237	0.6167	-0.761
Mof_H 	H 	0.4315	0.453	0.6067	0.245
Mof_H 	H 	0.412	0.4318	0.6357	0.24
Mof_H 	H 	0.4393	0.3902	0.6132	0.229
Mof_N 	N 	0.507	0.4982	0.7296	-0.184
Mof_C 	C 	0.5195	0.4666	0.7131	0.093
Mof_S 	S 	0.5101	0.41909	0.69167	-0.146
Mof_N 	N 	0.3658	0.7134	0.47722	-0.205
Mof_C 	C 	0.4054	0.6884	0.4619	0.087
Mof_S 	S 	0.4546	0.65435	0.4385	-0.147
Mof_Fe	Fe	-1.49899e-17	0.92859	0.25	0.621
Mof_Fe	Fe	0.5	0.42859	0.25	0.628
Mof_Fe	Fe	1.29804e-32	0.07141	0.75	0.621
Mof_Fe	Fe	0.5	0.57141	0.75	0.628
Mof_Fe	Fe	0.75	0.75	-0	0.62
Mof_Fe	Fe	0.25	0.75	0.5	0.619
Mof_Fe	Fe	0.25	0.25	-0	0.618
Mof_Fe	Fe	0.75	0.25	0.5	0.621
_end
