data_functionalizedCrystal
_audit_creation_method	'EQeq! by Chris Wilmer'
_symmetry_space_group_name_H-M	'P1'
_symmetry_Int_Tables_number	1
_symmetry_cell_setting	triclinic
loop_
_symmetry_equiv_pos_as_xyz
  x,y,z
_cell_length_a	16.0331
_cell_length_b	33.324
_cell_length_c	16.8496
_cell_angle_alpha	90
_cell_angle_beta	90
_cell_angle_gamma	90
loop_
_atom_site_label
_atom_site_type_symbol
_atom_site_fract_x
_atom_site_fract_y
_atom_site_fract_z
_atom_site_charge
Mof_Tm	Tm	0.01719	0.05398	0.55448	1.683
Mof_Zn	Zn	0.437	0.16666	0.67424	1.171
Mof_Zn	Zn	0.73028	0.15976	0.43043	1.209
Mof_Zn	Zn	0.76234	0.99031	0.28736	1.197
Mof_O 	O 	0.3653	0.2076	0.2591	-0.517
Mof_O 	O 	0.3121	0.1639	0.1763	-0.414
Mof_O 	O 	0.3785	0.2083	0.4539	-0.52
Mof_O 	O 	0.3684	0.1896	0.5795	-0.511
Mof_O 	O 	0.5113	0.2078	0.3459	-0.474
Mof_O 	O 	0.6315	0.1766	0.3483	-0.43
Mof_O 	O 	0.9406	0.0172	0.6418	-0.462
Mof_O 	O 	0.8276	0.9953	0.6993	-0.468
Mof_O 	O 	0.0373	0.0875	0.6668	-0.497
Mof_O 	O 	0.0159	0.1417	0.7364	-0.487
Mof_O 	O 	0.9006	0.0881	0.5472	-0.517
Mof_O 	O 	0.8215	0.139	0.5168	-0.462
Mof_O 	O 	0.9348	0.0148	0.4678	-0.57
Mof_O 	O 	0.86	0.9797	0.3871	-0.55
Mof_N 	N 	0.2735	0.2171	0.068	-0.282
Mof_N 	N 	0.5283	0.1736	0.5951	-0.311
Mof_N 	N 	0.629	0.1677	0.5054	-0.292
Mof_N 	N 	0.8056	0.0593	0.7894	-0.311
Mof_N 	N 	0.8772	0.115	0.8038	-0.31
Mof_N 	N 	0.7352	0.0989	0.4095	-0.281
Mof_N 	N 	0.7522	0.038	0.3547	-0.313
Mof_N 	N 	0.852	0.9812	0.2044	-0.281
Mof_N 	N 	0.1554	0.9231	0.9217	-0.141
Mof_C 	C 	0.3281	0.1987	0.1945	0.402
Mof_C 	C 	0.3054	0.229	0.1359	-0.069
Mof_C 	C 	0.4085	0.1957	0.5174	0.421
Mof_C 	C 	0.4976	0.1857	0.5211	-0.113
Mof_C 	C 	0.5612	0.1818	0.4679	-0.065
Mof_C 	C 	0.5687	0.1896	0.3827	0.376
Mof_C 	C 	0.608	0.1636	0.583	0.326
Mof_C 	C 	0.6648	0.1526	0.6479	-0.924
Mof_H 	H 	0.6391	0.1324	0.6803	0.296
Mof_H 	H 	0.6765	0.1758	0.6796	0.262
Mof_H 	H 	0.7158	0.1423	0.6261	0.287
Mof_C 	C 	0.8828	0.0212	0.6897	0.392
Mof_C 	C 	0.8734	0.0573	0.7388	-0.069
Mof_C 	C 	0.9173	0.092	0.7479	-0.081
Mof_C 	C 	0.9939	0.1073	0.7149	0.383
Mof_C 	C 	0.81	0.0942	0.8251	0.329
Mof_C 	C 	0.7485	0.1099	0.8833	-0.856
Mof_H 	H 	0.7302	0.0885	0.9172	0.245
Mof_H 	H 	0.7014	0.1209	0.8555	0.255
Mof_H 	H 	0.7741	0.1305	0.9148	0.267
Mof_C 	C 	0.8452	0.1036	0.507	0.408
Mof_C 	C 	0.8017	0.0808	0.4453	-0.078
Mof_C 	C 	0.8126	0.0433	0.4124	-0.08
Mof_C 	C 	0.8723	0.0119	0.424	0.386
Mof_C 	C 	0.7087	0.0725	0.3548	0.351
Mof_C 	C 	0.6345	0.0798	0.3034	-0.964
Mof_H 	H 	0.6366	0.0622	0.2584	0.311
Mof_H 	H 	0.6347	0.1072	0.2857	0.315
Mof_H 	H 	0.5846	0.0747	0.3332	0.308
Mof_C 	C 	0.9276	0.9982	0.2028	0.11
Mof_H 	H 	0.9398	0.0179	0.2403	-0.032
Mof_C 	C 	0.9868	0.9884	0.1498	-0.158
Mof_H 	H 	0.0387	0.0008	0.1523	0.063
Mof_C 	C 	0.9719	0.9606	0.0925	0.086
Mof_C 	C 	0.8941	0.944	0.0931	-0.176
Mof_H 	H 	0.8807	0.9247	0.0554	0.077
Mof_C 	C 	0.8367	0.9548	0.1466	0.098
Mof_H 	H 	0.7838	0.9435	0.1434	-0.031
Mof_C 	C 	0.1676	0.9542	0.9702	0.063
Mof_H 	H 	0.2187	0.9673	0.9675	-0.007
Mof_C 	C 	0.111	0.968	0.0232	-0.129
Mof_H 	H 	0.1218	0.9908	0.0533	0.053
Mof_C 	C 	0.0364	0.9473	0.0315	0.018
Mof_C 	C 	0.0243	0.9155	0.9848	-0.112
Mof_H 	H 	0.9749	0.9009	0.9886	0.048
Mof_C 	C 	0.0838	0.9042	0.9314	0.05
Mof_H 	H 	0.0734	0.8818	0.9	0.015
Mof_H 	H 	0.1645	0.2422	0.9439	0.136
Mof_H 	H 	0.2273	0.2764	0.9215	0.134
Mof_H 	H 	0.2536	0.2314	0.9121	0.126
Mof_Tm	Tm	0.48281	0.94602	0.05448	1.679
Mof_Zn	Zn	0.063	0.83334	0.17424	1.168
Mof_Zn	Zn	0.76972	0.84024	0.93043	1.207
Mof_Zn	Zn	0.73766	0.00969	0.78736	1.196
Mof_O 	O 	0.1347	0.7924	0.7591	-0.518
Mof_O 	O 	0.1879	0.8361	0.6763	-0.415
Mof_O 	O 	0.1215	0.7917	0.9539	-0.516
Mof_O 	O 	0.1316	0.8104	0.0795	-0.513
Mof_O 	O 	0.9887	0.7922	0.8459	-0.477
Mof_O 	O 	0.8685	0.8234	0.8483	-0.431
Mof_O 	O 	0.5594	0.9828	0.1418	-0.462
Mof_O 	O 	0.6724	0.0047	0.1993	-0.469
Mof_O 	O 	0.4627	0.9125	0.1668	-0.502
Mof_O 	O 	0.4841	0.8583	0.2364	-0.493
Mof_O 	O 	0.5994	0.9119	0.0472	-0.518
Mof_O 	O 	0.6785	0.861	0.0168	-0.463
Mof_O 	O 	0.5652	0.9852	0.9678	-0.57
Mof_O 	O 	0.64	0.0203	0.8871	-0.552
Mof_N 	N 	0.2265	0.7829	0.568	-0.282
Mof_N 	N 	0.9717	0.8264	0.0951	-0.307
Mof_N 	N 	0.871	0.8323	0.0054	-0.289
Mof_N 	N 	0.6944	0.9407	0.2894	-0.312
Mof_N 	N 	0.6228	0.885	0.3038	-0.309
Mof_N 	N 	0.7648	0.9011	0.9095	-0.281
Mof_N 	N 	0.7478	0.962	0.8547	-0.312
Mof_N 	N 	0.648	0.0188	0.7044	-0.279
Mof_N 	N 	0.3446	0.0769	0.4217	-0.145
Mof_C 	C 	0.1719	0.8013	0.6945	0.403
Mof_C 	C 	0.1946	0.771	0.6359	-0.069
Mof_C 	C 	0.0915	0.8043	0.0174	0.416
Mof_C 	C 	0.0024	0.8143	0.0211	-0.118
Mof_C 	C 	0.9388	0.8182	0.9679	-0.067
Mof_C 	C 	0.9313	0.8104	0.8827	0.376
Mof_C 	C 	0.892	0.8364	0.083	0.328
Mof_C 	C 	0.8352	0.8474	0.1479	-0.926
Mof_H 	H 	0.8609	0.8676	0.1803	0.297
Mof_H 	H 	0.8235	0.8242	0.1796	0.263
Mof_H 	H 	0.7842	0.8577	0.1261	0.287
Mof_C 	C 	0.6172	0.9788	0.1897	0.391
Mof_C 	C 	0.6266	0.9427	0.2388	-0.067
Mof_C 	C 	0.5827	0.908	0.2479	-0.083
Mof_C 	C 	0.5061	0.8927	0.2149	0.391
Mof_C 	C 	0.69	0.9058	0.3251	0.33
Mof_C 	C 	0.7515	0.8901	0.3833	-0.858
Mof_H 	H 	0.7698	0.9115	0.4172	0.246
Mof_H 	H 	0.7986	0.8791	0.3555	0.256
Mof_H 	H 	0.7259	0.8695	0.4148	0.269
Mof_C 	C 	0.6548	0.8964	0.007	0.409
Mof_C 	C 	0.6983	0.9192	0.9453	-0.08
Mof_C 	C 	0.6874	0.9567	0.9124	-0.08
Mof_C 	C 	0.6277	0.9881	0.924	0.386
Mof_C 	C 	0.7913	0.9275	0.8548	0.35
Mof_C 	C 	0.8655	0.9202	0.8034	-0.962
Mof_H 	H 	0.8634	0.9378	0.7584	0.31
Mof_H 	H 	0.8653	0.8928	0.7857	0.314
Mof_H 	H 	0.9154	0.9253	0.8332	0.306
Mof_C 	C 	0.5724	0.0018	0.7028	0.108
Mof_H 	H 	0.5602	0.9821	0.7403	-0.032
Mof_C 	C 	0.5132	0.0116	0.6498	-0.157
Mof_H 	H 	0.4613	0.9992	0.6523	0.065
Mof_C 	C 	0.5281	0.0394	0.5925	0.07
Mof_C 	C 	0.6059	0.056	0.5931	-0.166
Mof_H 	H 	0.6193	0.0753	0.5554	0.071
Mof_C 	C 	0.6633	0.0452	0.6466	0.092
Mof_H 	H 	0.7162	0.0565	0.6434	-0.029
Mof_C 	C 	0.3324	0.0458	0.4702	0.063
Mof_H 	H 	0.2813	0.0327	0.4675	-0.008
Mof_C 	C 	0.389	0.032	0.5232	-0.135
Mof_H 	H 	0.3782	0.0092	0.5533	0.057
Mof_C 	C 	0.4636	0.0527	0.5315	0.045
Mof_C 	C 	0.4757	0.0845	0.4848	-0.15
Mof_H 	H 	0.5251	0.0991	0.4886	0.065
Mof_C 	C 	0.4162	0.0958	0.4314	0.067
Mof_H 	H 	0.4266	0.1182	0.4	0.007
Mof_H 	H 	0.3355	0.7578	0.4439	0.136
Mof_H 	H 	0.2727	0.7236	0.4215	0.135
Mof_H 	H 	0.2464	0.7686	0.4121	0.127
Mof_Tm	Tm	0.98281	0.55398	0.44552	1.682
Mof_Zn	Zn	0.563	0.66666	0.32576	1.17
Mof_Zn	Zn	0.26972	0.65976	0.56957	1.208
Mof_Zn	Zn	0.23766	0.49031	0.71264	1.196
Mof_O 	O 	0.6347	0.7076	0.7409	-0.518
Mof_O 	O 	0.6879	0.6639	0.8237	-0.415
Mof_O 	O 	0.6215	0.7083	0.5461	-0.521
Mof_O 	O 	0.6316	0.6896	0.4205	-0.512
Mof_O 	O 	0.4887	0.7078	0.6541	-0.475
Mof_O 	O 	0.3685	0.6766	0.6517	-0.431
Mof_O 	O 	0.0594	0.5172	0.3582	-0.463
Mof_O 	O 	0.1724	0.4953	0.3007	-0.47
Mof_O 	O 	0.9627	0.5875	0.3332	-0.498
Mof_O 	O 	0.9841	0.6417	0.2636	-0.488
Mof_O 	O 	0.0994	0.5881	0.4528	-0.518
Mof_O 	O 	0.1785	0.639	0.4832	-0.463
Mof_O 	O 	0.0652	0.5148	0.5322	-0.571
Mof_O 	O 	0.14	0.4797	0.6129	-0.551
Mof_N 	N 	0.7265	0.7171	0.932	-0.282
Mof_N 	N 	0.4717	0.6736	0.4049	-0.311
Mof_N 	N 	0.371	0.6677	0.4946	-0.292
Mof_N 	N 	0.1944	0.5593	0.2106	-0.311
Mof_N 	N 	0.1228	0.615	0.1962	-0.31
Mof_N 	N 	0.2648	0.5989	0.5905	-0.281
Mof_N 	N 	0.2478	0.538	0.6453	-0.313
Mof_N 	N 	0.148	0.4812	0.7956	-0.281
Mof_N 	N 	0.8446	0.4231	0.0783	-0.141
Mof_C 	C 	0.6719	0.6987	0.8055	0.402
Mof_C 	C 	0.6946	0.729	0.8641	-0.069
Mof_C 	C 	0.5915	0.6957	0.4826	0.421
Mof_C 	C 	0.5024	0.6857	0.4789	-0.113
Mof_C 	C 	0.4388	0.6818	0.5321	-0.065
Mof_C 	C 	0.4313	0.6896	0.6173	0.376
Mof_C 	C 	0.392	0.6636	0.417	0.326
Mof_C 	C 	0.3352	0.6526	0.3521	-0.924
Mof_H 	H 	0.3609	0.6324	0.3197	0.296
Mof_H 	H 	0.3235	0.6758	0.3204	0.262
Mof_H 	H 	0.2842	0.6423	0.3739	0.287
Mof_C 	C 	0.1172	0.5212	0.3103	0.392
Mof_C 	C 	0.1266	0.5573	0.2612	-0.069
Mof_C 	C 	0.0827	0.592	0.2521	-0.081
Mof_C 	C 	0.0061	0.6073	0.2851	0.383
Mof_C 	C 	0.19	0.5942	0.1749	0.329
Mof_C 	C 	0.2515	0.6099	0.1167	-0.856
Mof_H 	H 	0.2698	0.5885	0.0828	0.245
Mof_H 	H 	0.2986	0.6209	0.1445	0.255
Mof_H 	H 	0.2259	0.6305	0.0852	0.267
Mof_C 	C 	0.1548	0.6036	0.493	0.408
Mof_C 	C 	0.1983	0.5808	0.5547	-0.078
Mof_C 	C 	0.1874	0.5433	0.5876	-0.08
Mof_C 	C 	0.1277	0.5119	0.576	0.386
Mof_C 	C 	0.2913	0.5725	0.6452	0.351
Mof_C 	C 	0.3655	0.5798	0.6966	-0.964
Mof_H 	H 	0.3634	0.5622	0.7416	0.31
Mof_H 	H 	0.3653	0.6072	0.7143	0.315
Mof_H 	H 	0.4154	0.5747	0.6668	0.308
Mof_C 	C 	0.0724	0.4982	0.7972	0.11
Mof_H 	H 	0.0602	0.5179	0.7597	-0.032
Mof_C 	C 	0.0132	0.4884	0.8502	-0.156
Mof_H 	H 	0.9613	0.5008	0.8477	0.062
Mof_C 	C 	0.0281	0.4606	0.9075	0.085
Mof_C 	C 	0.1059	0.444	0.9069	-0.176
Mof_H 	H 	0.1193	0.4247	0.9446	0.077
Mof_C 	C 	0.1633	0.4548	0.8534	0.097
Mof_H 	H 	0.2162	0.4435	0.8566	-0.031
Mof_C 	C 	0.8324	0.4542	0.0298	0.062
Mof_H 	H 	0.7813	0.4673	0.0325	-0.007
Mof_C 	C 	0.889	0.468	0.9768	-0.128
Mof_H 	H 	0.8782	0.4908	0.9467	0.053
Mof_C 	C 	0.9636	0.4473	0.9685	0.019
Mof_C 	C 	0.9757	0.4155	0.0152	-0.114
Mof_H 	H 	0.0251	0.4009	0.0114	0.048
Mof_C 	C 	0.9162	0.4042	0.0686	0.051
Mof_H 	H 	0.9266	0.3818	0.1	0.015
Mof_H 	H 	0.8355	0.7422	0.0561	0.136
Mof_H 	H 	0.7727	0.7764	0.0785	0.134
Mof_H 	H 	0.7464	0.7314	0.0879	0.126
Mof_Tm	Tm	0.51719	0.44602	0.94552	1.68
Mof_Zn	Zn	0.937	0.33334	0.82576	1.168
Mof_Zn	Zn	0.23028	0.34024	0.06957	1.207
Mof_Zn	Zn	0.26234	0.50969	0.21264	1.196
Mof_O 	O 	0.8653	0.2924	0.2409	-0.518
Mof_O 	O 	0.8121	0.3361	0.3237	-0.415
Mof_O 	O 	0.8785	0.2917	0.0461	-0.516
Mof_O 	O 	0.8684	0.3104	0.9205	-0.512
Mof_O 	O 	0.0113	0.2922	0.1541	-0.477
Mof_O 	O 	0.1315	0.3234	0.1517	-0.431
Mof_O 	O 	0.4406	0.4828	0.8582	-0.462
Mof_O 	O 	0.3276	0.5047	0.8007	-0.47
Mof_O 	O 	0.5373	0.4125	0.8332	-0.502
Mof_O 	O 	0.5159	0.3583	0.7636	-0.493
Mof_O 	O 	0.4006	0.4119	0.9528	-0.518
Mof_O 	O 	0.3215	0.361	0.9832	-0.463
Mof_O 	O 	0.4348	0.4852	0.0322	-0.571
Mof_O 	O 	0.36	0.5203	0.1129	-0.551
Mof_N 	N 	0.7735	0.2829	0.432	-0.282
Mof_N 	N 	0.0283	0.3264	0.9049	-0.307
Mof_N 	N 	0.129	0.3323	0.9946	-0.288
Mof_N 	N 	0.3056	0.4407	0.7106	-0.312
Mof_N 	N 	0.3772	0.385	0.6962	-0.309
Mof_N 	N 	0.2352	0.4011	0.0905	-0.281
Mof_N 	N 	0.2522	0.462	0.1453	-0.313
Mof_N 	N 	0.352	0.5188	0.2956	-0.28
Mof_N 	N 	0.6554	0.5769	0.5783	-0.145
Mof_C 	C 	0.8281	0.3013	0.3055	0.403
Mof_C 	C 	0.8054	0.271	0.3641	-0.069
Mof_C 	C 	0.9085	0.3043	0.9826	0.416
Mof_C 	C 	0.9976	0.3143	0.9789	-0.118
Mof_C 	C 	0.0612	0.3182	0.0321	-0.068
Mof_C 	C 	0.0687	0.3104	0.1173	0.377
Mof_C 	C 	0.108	0.3364	0.917	0.328
Mof_C 	C 	0.1648	0.3474	0.8521	-0.926
Mof_H 	H 	0.1391	0.3676	0.8197	0.297
Mof_H 	H 	0.1765	0.3242	0.8204	0.263
Mof_H 	H 	0.2158	0.3577	0.8739	0.287
Mof_C 	C 	0.3828	0.4788	0.8103	0.392
Mof_C 	C 	0.3734	0.4427	0.7612	-0.067
Mof_C 	C 	0.4173	0.408	0.7521	-0.083
Mof_C 	C 	0.4939	0.3927	0.7851	0.391
Mof_C 	C 	0.31	0.4058	0.6749	0.33
Mof_C 	C 	0.2485	0.3901	0.6167	-0.858
Mof_H 	H 	0.2302	0.4115	0.5828	0.246
Mof_H 	H 	0.2014	0.3791	0.6445	0.256
Mof_H 	H 	0.2741	0.3695	0.5852	0.269
Mof_C 	C 	0.3452	0.3964	0.993	0.41
Mof_C 	C 	0.3017	0.4192	0.0547	-0.081
Mof_C 	C 	0.3126	0.4567	0.0876	-0.079
Mof_C 	C 	0.3723	0.4881	0.076	0.385
Mof_C 	C 	0.2087	0.4275	0.1452	0.35
Mof_C 	C 	0.1345	0.4202	0.1966	-0.961
Mof_H 	H 	0.1366	0.4378	0.2416	0.309
Mof_H 	H 	0.1347	0.3928	0.2143	0.314
Mof_H 	H 	0.0846	0.4253	0.1668	0.306
Mof_C 	C 	0.4276	0.5018	0.2972	0.109
Mof_H 	H 	0.4398	0.4821	0.2597	-0.033
Mof_C 	C 	0.4868	0.5116	0.3502	-0.157
Mof_H 	H 	0.5387	0.4992	0.3477	0.065
Mof_C 	C 	0.4719	0.5394	0.4075	0.07
Mof_C 	C 	0.3941	0.556	0.4069	-0.166
Mof_H 	H 	0.3807	0.5753	0.4446	0.071
Mof_C 	C 	0.3367	0.5452	0.3534	0.092
Mof_H 	H 	0.2838	0.5565	0.3566	-0.029
Mof_C 	C 	0.6676	0.5458	0.5298	0.063
Mof_H 	H 	0.7187	0.5327	0.5325	-0.008
Mof_C 	C 	0.611	0.532	0.4768	-0.135
Mof_H 	H 	0.6218	0.5092	0.4467	0.057
Mof_C 	C 	0.5364	0.5527	0.4685	0.045
Mof_C 	C 	0.5243	0.5845	0.5152	-0.15
Mof_H 	H 	0.4749	0.5991	0.5114	0.065
Mof_C 	C 	0.5838	0.5958	0.5686	0.068
Mof_H 	H 	0.5734	0.6182	0.6	0.007
Mof_H 	H 	0.6645	0.2578	0.5561	0.136
Mof_H 	H 	0.7273	0.2236	0.5785	0.135
Mof_H 	H 	0.7536	0.2686	0.5879	0.127
Mof_Tm	Tm	0.98281	0.94602	0.44552	1.682
Mof_Zn	Zn	0.563	0.83334	0.32576	1.17
Mof_Zn	Zn	0.26972	0.84024	0.56957	1.208
Mof_Zn	Zn	0.23766	0.00969	0.71264	1.196
Mof_O 	O 	0.6347	0.7924	0.7409	-0.518
Mof_O 	O 	0.6879	0.8361	0.8237	-0.415
Mof_O 	O 	0.6215	0.7917	0.5461	-0.521
Mof_O 	O 	0.6316	0.8104	0.4205	-0.512
Mof_O 	O 	0.4887	0.7922	0.6541	-0.475
Mof_O 	O 	0.3685	0.8234	0.6517	-0.431
Mof_O 	O 	0.0594	0.9828	0.3582	-0.463
Mof_O 	O 	0.1724	0.0047	0.3007	-0.469
Mof_O 	O 	0.9627	0.9125	0.3332	-0.498
Mof_O 	O 	0.9841	0.8583	0.2636	-0.488
Mof_O 	O 	0.0994	0.9119	0.4528	-0.518
Mof_O 	O 	0.1785	0.861	0.4832	-0.463
Mof_O 	O 	0.0652	0.9852	0.5322	-0.571
Mof_O 	O 	0.14	0.0203	0.6129	-0.551
Mof_N 	N 	0.7265	0.7829	0.932	-0.282
Mof_N 	N 	0.4717	0.8264	0.4049	-0.311
Mof_N 	N 	0.371	0.8323	0.4946	-0.292
Mof_N 	N 	0.1944	0.9407	0.2106	-0.311
Mof_N 	N 	0.1228	0.885	0.1962	-0.31
Mof_N 	N 	0.2648	0.9011	0.5905	-0.281
Mof_N 	N 	0.2478	0.962	0.6453	-0.313
Mof_N 	N 	0.148	0.0188	0.7956	-0.281
Mof_N 	N 	0.8446	0.0769	0.0783	-0.141
Mof_C 	C 	0.6719	0.8013	0.8055	0.402
Mof_C 	C 	0.6946	0.771	0.8641	-0.069
Mof_C 	C 	0.5915	0.8043	0.4826	0.421
Mof_C 	C 	0.5024	0.8143	0.4789	-0.113
Mof_C 	C 	0.4388	0.8182	0.5321	-0.065
Mof_C 	C 	0.4313	0.8104	0.6173	0.376
Mof_C 	C 	0.392	0.8364	0.417	0.326
Mof_C 	C 	0.3352	0.8474	0.3521	-0.924
Mof_H 	H 	0.3609	0.8676	0.3197	0.296
Mof_H 	H 	0.3235	0.8242	0.3204	0.262
Mof_H 	H 	0.2842	0.8577	0.3739	0.287
Mof_C 	C 	0.1172	0.9788	0.3103	0.392
Mof_C 	C 	0.1266	0.9427	0.2612	-0.069
Mof_C 	C 	0.0827	0.908	0.2521	-0.081
Mof_C 	C 	0.0061	0.8927	0.2851	0.383
Mof_C 	C 	0.19	0.9058	0.1749	0.329
Mof_C 	C 	0.2515	0.8901	0.1167	-0.856
Mof_H 	H 	0.2698	0.9115	0.0828	0.245
Mof_H 	H 	0.2986	0.8791	0.1445	0.255
Mof_H 	H 	0.2259	0.8695	0.0852	0.267
Mof_C 	C 	0.1548	0.8964	0.493	0.408
Mof_C 	C 	0.1983	0.9192	0.5547	-0.078
Mof_C 	C 	0.1874	0.9567	0.5876	-0.08
Mof_C 	C 	0.1277	0.9881	0.576	0.386
Mof_C 	C 	0.2913	0.9275	0.6452	0.351
Mof_C 	C 	0.3655	0.9202	0.6966	-0.964
Mof_H 	H 	0.3634	0.9378	0.7416	0.311
Mof_H 	H 	0.3653	0.8928	0.7143	0.315
Mof_H 	H 	0.4154	0.9253	0.6668	0.308
Mof_C 	C 	0.0724	0.0018	0.7972	0.11
Mof_H 	H 	0.0602	0.9821	0.7597	-0.032
Mof_C 	C 	0.0132	0.0116	0.8502	-0.158
Mof_H 	H 	0.9613	0.9992	0.8477	0.063
Mof_C 	C 	0.0281	0.0394	0.9075	0.086
Mof_C 	C 	0.1059	0.056	0.9069	-0.176
Mof_H 	H 	0.1193	0.0753	0.9446	0.077
Mof_C 	C 	0.1633	0.0452	0.8534	0.098
Mof_H 	H 	0.2162	0.0565	0.8566	-0.031
Mof_C 	C 	0.8324	0.0458	0.0298	0.063
Mof_H 	H 	0.7813	0.0327	0.0325	-0.007
Mof_C 	C 	0.889	0.032	0.9768	-0.129
Mof_H 	H 	0.8782	0.0092	0.9467	0.053
Mof_C 	C 	0.9636	0.0527	0.9685	0.018
Mof_C 	C 	0.9757	0.0845	0.0152	-0.112
Mof_H 	H 	0.0251	0.0991	0.0114	0.048
Mof_C 	C 	0.9162	0.0958	0.0686	0.05
Mof_H 	H 	0.9266	0.1182	0.1	0.015
Mof_H 	H 	0.8355	0.7578	0.0561	0.136
Mof_H 	H 	0.7727	0.7236	0.0785	0.134
Mof_H 	H 	0.7464	0.7686	0.0879	0.126
Mof_Tm	Tm	0.51719	0.05398	0.94552	1.679
Mof_Zn	Zn	0.937	0.16666	0.82576	1.168
Mof_Zn	Zn	0.23028	0.15976	0.06957	1.207
Mof_Zn	Zn	0.26234	0.99031	0.21264	1.196
Mof_O 	O 	0.8653	0.2076	0.2409	-0.518
Mof_O 	O 	0.8121	0.1639	0.3237	-0.415
Mof_O 	O 	0.8785	0.2083	0.0461	-0.516
Mof_O 	O 	0.8684	0.1896	0.9205	-0.513
Mof_O 	O 	0.0113	0.2078	0.1541	-0.477
Mof_O 	O 	0.1315	0.1766	0.1517	-0.431
Mof_O 	O 	0.4406	0.0172	0.8582	-0.462
Mof_O 	O 	0.3276	0.9953	0.8007	-0.469
Mof_O 	O 	0.5373	0.0875	0.8332	-0.502
Mof_O 	O 	0.5159	0.1417	0.7636	-0.493
Mof_O 	O 	0.4006	0.0881	0.9528	-0.518
Mof_O 	O 	0.3215	0.139	0.9832	-0.463
Mof_O 	O 	0.4348	0.0148	0.0322	-0.57
Mof_O 	O 	0.36	0.9797	0.1129	-0.552
Mof_N 	N 	0.7735	0.2171	0.432	-0.282
Mof_N 	N 	0.0283	0.1736	0.9049	-0.307
Mof_N 	N 	0.129	0.1677	0.9946	-0.289
Mof_N 	N 	0.3056	0.0593	0.7106	-0.312
Mof_N 	N 	0.3772	0.115	0.6962	-0.309
Mof_N 	N 	0.2352	0.0989	0.0905	-0.281
Mof_N 	N 	0.2522	0.038	0.1453	-0.312
Mof_N 	N 	0.352	0.9812	0.2956	-0.279
Mof_N 	N 	0.6554	0.9231	0.5783	-0.145
Mof_C 	C 	0.8281	0.1987	0.3055	0.403
Mof_C 	C 	0.8054	0.229	0.3641	-0.069
Mof_C 	C 	0.9085	0.1957	0.9826	0.416
Mof_C 	C 	0.9976	0.1857	0.9789	-0.118
Mof_C 	C 	0.0612	0.1818	0.0321	-0.067
Mof_C 	C 	0.0687	0.1896	0.1173	0.376
Mof_C 	C 	0.108	0.1636	0.917	0.328
Mof_C 	C 	0.1648	0.1526	0.8521	-0.926
Mof_H 	H 	0.1391	0.1324	0.8197	0.297
Mof_H 	H 	0.1765	0.1758	0.8204	0.263
Mof_H 	H 	0.2158	0.1423	0.8739	0.287
Mof_C 	C 	0.3828	0.0212	0.8103	0.391
Mof_C 	C 	0.3734	0.0573	0.7612	-0.067
Mof_C 	C 	0.4173	0.092	0.7521	-0.083
Mof_C 	C 	0.4939	0.1073	0.7851	0.391
Mof_C 	C 	0.31	0.0942	0.6749	0.33
Mof_C 	C 	0.2485	0.1099	0.6167	-0.858
Mof_H 	H 	0.2302	0.0885	0.5828	0.246
Mof_H 	H 	0.2014	0.1209	0.6445	0.256
Mof_H 	H 	0.2741	0.1305	0.5852	0.269
Mof_C 	C 	0.3452	0.1036	0.993	0.409
Mof_C 	C 	0.3017	0.0808	0.0547	-0.08
Mof_C 	C 	0.3126	0.0433	0.0876	-0.08
Mof_C 	C 	0.3723	0.0119	0.076	0.386
Mof_C 	C 	0.2087	0.0725	0.1452	0.35
Mof_C 	C 	0.1345	0.0798	0.1966	-0.962
Mof_H 	H 	0.1366	0.0622	0.2416	0.31
Mof_H 	H 	0.1347	0.1072	0.2143	0.314
Mof_H 	H 	0.0846	0.0747	0.1668	0.306
Mof_C 	C 	0.4276	0.9982	0.2972	0.108
Mof_H 	H 	0.4398	0.0179	0.2597	-0.032
Mof_C 	C 	0.4868	0.9884	0.3502	-0.157
Mof_H 	H 	0.5387	0.0008	0.3477	0.065
Mof_C 	C 	0.4719	0.9606	0.4075	0.07
Mof_C 	C 	0.3941	0.944	0.4069	-0.166
Mof_H 	H 	0.3807	0.9247	0.4446	0.071
Mof_C 	C 	0.3367	0.9548	0.3534	0.092
Mof_H 	H 	0.2838	0.9435	0.3566	-0.029
Mof_C 	C 	0.6676	0.9542	0.5298	0.063
Mof_H 	H 	0.7187	0.9673	0.5325	-0.008
Mof_C 	C 	0.611	0.968	0.4768	-0.135
Mof_H 	H 	0.6218	0.9908	0.4467	0.057
Mof_C 	C 	0.5364	0.9473	0.4685	0.045
Mof_C 	C 	0.5243	0.9155	0.5152	-0.15
Mof_H 	H 	0.4749	0.9009	0.5114	0.065
Mof_C 	C 	0.5838	0.9042	0.5686	0.067
Mof_H 	H 	0.5734	0.8818	0.6	0.007
Mof_H 	H 	0.6645	0.2422	0.5561	0.136
Mof_H 	H 	0.7273	0.2764	0.5785	0.135
Mof_H 	H 	0.7536	0.2314	0.5879	0.127
Mof_Tm	Tm	0.01719	0.44602	0.55448	1.682
Mof_Zn	Zn	0.437	0.33334	0.67424	1.17
Mof_Zn	Zn	0.73028	0.34024	0.43043	1.208
Mof_Zn	Zn	0.76234	0.50969	0.28736	1.196
Mof_O 	O 	0.3653	0.2924	0.2591	-0.518
Mof_O 	O 	0.3121	0.3361	0.1763	-0.415
Mof_O 	O 	0.3785	0.2917	0.4539	-0.521
Mof_O 	O 	0.3684	0.3104	0.5795	-0.512
Mof_O 	O 	0.5113	0.2922	0.3459	-0.475
Mof_O 	O 	0.6315	0.3234	0.3483	-0.431
Mof_O 	O 	0.9406	0.4828	0.6418	-0.463
Mof_O 	O 	0.8276	0.5047	0.6993	-0.47
Mof_O 	O 	0.0373	0.4125	0.6668	-0.498
Mof_O 	O 	0.0159	0.3583	0.7364	-0.488
Mof_O 	O 	0.9006	0.4119	0.5472	-0.518
Mof_O 	O 	0.8215	0.361	0.5168	-0.463
Mof_O 	O 	0.9348	0.4852	0.4678	-0.571
Mof_O 	O 	0.86	0.5203	0.3871	-0.551
Mof_N 	N 	0.2735	0.2829	0.068	-0.282
Mof_N 	N 	0.5283	0.3264	0.5951	-0.311
Mof_N 	N 	0.629	0.3323	0.5054	-0.292
Mof_N 	N 	0.8056	0.4407	0.7894	-0.311
Mof_N 	N 	0.8772	0.385	0.8038	-0.31
Mof_N 	N 	0.7352	0.4011	0.4095	-0.281
Mof_N 	N 	0.7522	0.462	0.3547	-0.313
Mof_N 	N 	0.852	0.5188	0.2044	-0.281
Mof_N 	N 	0.1554	0.5769	0.9217	-0.141
Mof_C 	C 	0.3281	0.3013	0.1945	0.402
Mof_C 	C 	0.3054	0.271	0.1359	-0.069
Mof_C 	C 	0.4085	0.3043	0.5174	0.421
Mof_C 	C 	0.4976	0.3143	0.5211	-0.113
Mof_C 	C 	0.5612	0.3182	0.4679	-0.065
Mof_C 	C 	0.5687	0.3104	0.3827	0.376
Mof_C 	C 	0.608	0.3364	0.583	0.326
Mof_C 	C 	0.6648	0.3474	0.6479	-0.924
Mof_H 	H 	0.6391	0.3676	0.6803	0.296
Mof_H 	H 	0.6765	0.3242	0.6796	0.262
Mof_H 	H 	0.7158	0.3577	0.6261	0.287
Mof_C 	C 	0.8828	0.4788	0.6897	0.392
Mof_C 	C 	0.8734	0.4427	0.7388	-0.069
Mof_C 	C 	0.9173	0.408	0.7479	-0.081
Mof_C 	C 	0.9939	0.3927	0.7149	0.383
Mof_C 	C 	0.81	0.4058	0.8251	0.329
Mof_C 	C 	0.7485	0.3901	0.8833	-0.856
Mof_H 	H 	0.7302	0.4115	0.9172	0.245
Mof_H 	H 	0.7014	0.3791	0.8555	0.255
Mof_H 	H 	0.7741	0.3695	0.9148	0.267
Mof_C 	C 	0.8452	0.3964	0.507	0.408
Mof_C 	C 	0.8017	0.4192	0.4453	-0.078
Mof_C 	C 	0.8126	0.4567	0.4124	-0.08
Mof_C 	C 	0.8723	0.4881	0.424	0.386
Mof_C 	C 	0.7087	0.4275	0.3548	0.351
Mof_C 	C 	0.6345	0.4202	0.3034	-0.964
Mof_H 	H 	0.6366	0.4378	0.2584	0.31
Mof_H 	H 	0.6347	0.3928	0.2857	0.315
Mof_H 	H 	0.5846	0.4253	0.3332	0.308
Mof_C 	C 	0.9276	0.5018	0.2028	0.11
Mof_H 	H 	0.9398	0.4821	0.2403	-0.032
Mof_C 	C 	0.9868	0.5116	0.1498	-0.156
Mof_H 	H 	0.0387	0.4992	0.1523	0.062
Mof_C 	C 	0.9719	0.5394	0.0925	0.085
Mof_C 	C 	0.8941	0.556	0.0931	-0.176
Mof_H 	H 	0.8807	0.5753	0.0554	0.077
Mof_C 	C 	0.8367	0.5452	0.1466	0.097
Mof_H 	H 	0.7838	0.5565	0.1434	-0.031
Mof_C 	C 	0.1676	0.5458	0.9702	0.062
Mof_H 	H 	0.2187	0.5327	0.9675	-0.007
Mof_C 	C 	0.111	0.532	0.0232	-0.128
Mof_H 	H 	0.1218	0.5092	0.0533	0.053
Mof_C 	C 	0.0364	0.5527	0.0315	0.019
Mof_C 	C 	0.0243	0.5845	0.9848	-0.114
Mof_H 	H 	0.9749	0.5991	0.9886	0.048
Mof_C 	C 	0.0838	0.5958	0.9314	0.051
Mof_H 	H 	0.0734	0.6182	0.9	0.015
Mof_H 	H 	0.1645	0.2578	0.9439	0.136
Mof_H 	H 	0.2273	0.2236	0.9215	0.134
Mof_H 	H 	0.2536	0.2686	0.9121	0.126
Mof_Tm	Tm	0.48281	0.55398	0.05448	1.68
Mof_Zn	Zn	0.063	0.66666	0.17424	1.168
Mof_Zn	Zn	0.76972	0.65976	0.93043	1.207
Mof_Zn	Zn	0.73766	0.49031	0.78736	1.196
Mof_O 	O 	0.1347	0.7076	0.7591	-0.518
Mof_O 	O 	0.1879	0.6639	0.6763	-0.415
Mof_O 	O 	0.1215	0.7083	0.9539	-0.516
Mof_O 	O 	0.1316	0.6896	0.0795	-0.512
Mof_O 	O 	0.9887	0.7078	0.8459	-0.477
Mof_O 	O 	0.8685	0.6766	0.8483	-0.431
Mof_O 	O 	0.5594	0.5172	0.1418	-0.462
Mof_O 	O 	0.6724	0.4953	0.1993	-0.47
Mof_O 	O 	0.4627	0.5875	0.1668	-0.502
Mof_O 	O 	0.4841	0.6417	0.2364	-0.493
Mof_O 	O 	0.5994	0.5881	0.0472	-0.518
Mof_O 	O 	0.6785	0.639	0.0168	-0.463
Mof_O 	O 	0.5652	0.5148	0.9678	-0.571
Mof_O 	O 	0.64	0.4797	0.8871	-0.551
Mof_N 	N 	0.2265	0.7171	0.568	-0.282
Mof_N 	N 	0.9717	0.6736	0.0951	-0.307
Mof_N 	N 	0.871	0.6677	0.0054	-0.288
Mof_N 	N 	0.6944	0.5593	0.2894	-0.312
Mof_N 	N 	0.6228	0.615	0.3038	-0.309
Mof_N 	N 	0.7648	0.5989	0.9095	-0.281
Mof_N 	N 	0.7478	0.538	0.8547	-0.313
Mof_N 	N 	0.648	0.4812	0.7044	-0.28
Mof_N 	N 	0.3446	0.4231	0.4217	-0.145
Mof_C 	C 	0.1719	0.6987	0.6945	0.403
Mof_C 	C 	0.1946	0.729	0.6359	-0.069
Mof_C 	C 	0.0915	0.6957	0.0174	0.416
Mof_C 	C 	0.0024	0.6857	0.0211	-0.118
Mof_C 	C 	0.9388	0.6818	0.9679	-0.068
Mof_C 	C 	0.9313	0.6896	0.8827	0.377
Mof_C 	C 	0.892	0.6636	0.083	0.328
Mof_C 	C 	0.8352	0.6526	0.1479	-0.926
Mof_H 	H 	0.8609	0.6324	0.1803	0.297
Mof_H 	H 	0.8235	0.6758	0.1796	0.263
Mof_H 	H 	0.7842	0.6423	0.1261	0.287
Mof_C 	C 	0.6172	0.5212	0.1897	0.392
Mof_C 	C 	0.6266	0.5573	0.2388	-0.067
Mof_C 	C 	0.5827	0.592	0.2479	-0.083
Mof_C 	C 	0.5061	0.6073	0.2149	0.391
Mof_C 	C 	0.69	0.5942	0.3251	0.33
Mof_C 	C 	0.7515	0.6099	0.3833	-0.858
Mof_H 	H 	0.7698	0.5885	0.4172	0.246
Mof_H 	H 	0.7986	0.6209	0.3555	0.256
Mof_H 	H 	0.7259	0.6305	0.4148	0.269
Mof_C 	C 	0.6548	0.6036	0.007	0.41
Mof_C 	C 	0.6983	0.5808	0.9453	-0.081
Mof_C 	C 	0.6874	0.5433	0.9124	-0.079
Mof_C 	C 	0.6277	0.5119	0.924	0.385
Mof_C 	C 	0.7913	0.5725	0.8548	0.35
Mof_C 	C 	0.8655	0.5798	0.8034	-0.961
Mof_H 	H 	0.8634	0.5622	0.7584	0.309
Mof_H 	H 	0.8653	0.6072	0.7857	0.314
Mof_H 	H 	0.9154	0.5747	0.8332	0.306
Mof_C 	C 	0.5724	0.4982	0.7028	0.109
Mof_H 	H 	0.5602	0.5179	0.7403	-0.033
Mof_C 	C 	0.5132	0.4884	0.6498	-0.157
Mof_H 	H 	0.4613	0.5008	0.6523	0.065
Mof_C 	C 	0.5281	0.4606	0.5925	0.07
Mof_C 	C 	0.6059	0.444	0.5931	-0.166
Mof_H 	H 	0.6193	0.4247	0.5554	0.071
Mof_C 	C 	0.6633	0.4548	0.6466	0.092
Mof_H 	H 	0.7162	0.4435	0.6434	-0.029
Mof_C 	C 	0.3324	0.4542	0.4702	0.063
Mof_H 	H 	0.2813	0.4673	0.4675	-0.008
Mof_C 	C 	0.389	0.468	0.5232	-0.135
Mof_H 	H 	0.3782	0.4908	0.5533	0.057
Mof_C 	C 	0.4636	0.4473	0.5315	0.045
Mof_C 	C 	0.4757	0.4155	0.4848	-0.15
Mof_H 	H 	0.5251	0.4009	0.4886	0.065
Mof_C 	C 	0.4162	0.4042	0.4314	0.068
Mof_H 	H 	0.4266	0.3818	0.4	0.007
Mof_H 	H 	0.3355	0.7422	0.4439	0.136
Mof_H 	H 	0.2727	0.7764	0.4215	0.135
Mof_H 	H 	0.2464	0.7314	0.4121	0.127
Mof_Tm	Tm	0.40206	0.25	0.35137	1.991
Mof_C 	C 	0.2547	0.25	0.0261	0.315
Mof_C 	C 	0.2221	0.25	0.9436	-0.889
Mof_Tm	Tm	0.09794	0.75	0.85137	1.996
Mof_C 	C 	0.2453	0.75	0.5261	0.319
Mof_C 	C 	0.2779	0.75	0.4436	-0.896
Mof_Tm	Tm	0.59794	0.75	0.64863	1.991
Mof_C 	C 	0.7453	0.75	0.9739	0.315
Mof_C 	C 	0.7779	0.75	0.0564	-0.889
Mof_Tm	Tm	0.90206	0.25	0.14863	1.996
Mof_C 	C 	0.7547	0.25	0.4739	0.319
Mof_C 	C 	0.7221	0.25	0.5564	-0.896
_end
