data_functionalizedCrystal
_audit_creation_method	'EQeq! by Chris Wilmer'
_symmetry_space_group_name_H-M	'P1'
_symmetry_Int_Tables_number	1
_symmetry_cell_setting	triclinic
loop_
_symmetry_equiv_pos_as_xyz
  x,y,z
_cell_length_a	26.536
_cell_length_b	26.536
_cell_length_c	26.536
_cell_angle_alpha	90
_cell_angle_beta	90
_cell_angle_gamma	90
loop_
_atom_site_label
_atom_site_type_symbol
_atom_site_fract_x
_atom_site_fract_y
_atom_site_fract_z
_atom_site_charge
Mof_O 	O 	0.18667	0.95045	0.25503	-0.468
Mof_O 	O 	0.18667	0.45045	0.75503	-0.505
Mof_O 	O 	0.68667	0.95045	0.75503	-0.458
Mof_O 	O 	0.68667	0.45045	0.25503	-0.503
Mof_O 	O 	0.81333	0.04955	0.25503	-0.521
Mof_O 	O 	0.81333	0.54955	0.75503	-0.492
Mof_O 	O 	0.31333	0.04955	0.75503	-0.524
Mof_O 	O 	0.31333	0.54955	0.25503	-0.503
Mof_O 	O 	0.81333	0.95045	0.74497	-0.45
Mof_O 	O 	0.81333	0.45045	0.24497	-0.495
Mof_O 	O 	0.31333	0.95045	0.24497	-0.461
Mof_O 	O 	0.31333	0.45045	0.74497	-0.497
Mof_O 	O 	0.18667	0.04955	0.74497	-0.528
Mof_O 	O 	0.18667	0.54955	0.24497	-0.508
Mof_O 	O 	0.68667	0.04955	0.24497	-0.526
Mof_O 	O 	0.68667	0.54955	0.74497	-0.497
Mof_O 	O 	0.25503	0.18667	0.95045	-0.468
Mof_O 	O 	0.25503	0.68667	0.45045	-0.503
Mof_O 	O 	0.75503	0.18667	0.45045	-0.505
Mof_O 	O 	0.75503	0.68667	0.95045	-0.458
Mof_O 	O 	0.25503	0.81333	0.04955	-0.521
Mof_O 	O 	0.25503	0.31333	0.54955	-0.502
Mof_O 	O 	0.75503	0.81333	0.54955	-0.491
Mof_O 	O 	0.75503	0.31333	0.04955	-0.523
Mof_O 	O 	0.74497	0.81333	0.95045	-0.449
Mof_O 	O 	0.74497	0.31333	0.45045	-0.496
Mof_O 	O 	0.24497	0.81333	0.45045	-0.494
Mof_O 	O 	0.24497	0.31333	0.95045	-0.46
Mof_O 	O 	0.74497	0.18667	0.04955	-0.527
Mof_O 	O 	0.74497	0.68667	0.54955	-0.496
Mof_O 	O 	0.24497	0.18667	0.54955	-0.507
Mof_O 	O 	0.24497	0.68667	0.04955	-0.525
Mof_O 	O 	0.95045	0.25503	0.18667	-0.467
Mof_O 	O 	0.95045	0.75503	0.68667	-0.457
Mof_O 	O 	0.45045	0.25503	0.68667	-0.502
Mof_O 	O 	0.45045	0.75503	0.18667	-0.504
Mof_O 	O 	0.04955	0.25503	0.81333	-0.52
Mof_O 	O 	0.04955	0.75503	0.31333	-0.523
Mof_O 	O 	0.54955	0.25503	0.31333	-0.502
Mof_O 	O 	0.54955	0.75503	0.81333	-0.491
Mof_O 	O 	0.95045	0.74497	0.81333	-0.449
Mof_O 	O 	0.95045	0.24497	0.31333	-0.46
Mof_O 	O 	0.45045	0.74497	0.31333	-0.496
Mof_O 	O 	0.45045	0.24497	0.81333	-0.494
Mof_O 	O 	0.04955	0.74497	0.18667	-0.527
Mof_O 	O 	0.04955	0.24497	0.68667	-0.525
Mof_O 	O 	0.54955	0.74497	0.68667	-0.496
Mof_O 	O 	0.54955	0.24497	0.18667	-0.507
Mof_O 	O 	0.95045	0.18667	0.74497	-0.462
Mof_O 	O 	0.95045	0.68667	0.24497	-0.46
Mof_O 	O 	0.45045	0.18667	0.24497	-0.507
Mof_O 	O 	0.45045	0.68667	0.74497	-0.496
Mof_O 	O 	0.04955	0.81333	0.74497	-0.515
Mof_O 	O 	0.04955	0.31333	0.24497	-0.526
Mof_O 	O 	0.54955	0.81333	0.24497	-0.494
Mof_O 	O 	0.54955	0.31333	0.74497	-0.496
Mof_O 	O 	0.95045	0.81333	0.25503	-0.455
Mof_O 	O 	0.95045	0.31333	0.75503	-0.457
Mof_O 	O 	0.45045	0.81333	0.75503	-0.491
Mof_O 	O 	0.45045	0.31333	0.25503	-0.502
Mof_O 	O 	0.04955	0.18667	0.25503	-0.532
Mof_O 	O 	0.04955	0.68667	0.75503	-0.522
Mof_O 	O 	0.54955	0.18667	0.75503	-0.504
Mof_O 	O 	0.54955	0.68667	0.25503	-0.502
Mof_O 	O 	0.18667	0.25503	0.04955	-0.532
Mof_O 	O 	0.18667	0.75503	0.54955	-0.504
Mof_O 	O 	0.68667	0.25503	0.54955	-0.502
Mof_O 	O 	0.68667	0.75503	0.04955	-0.522
Mof_O 	O 	0.81333	0.25503	0.95045	-0.455
Mof_O 	O 	0.81333	0.75503	0.45045	-0.491
Mof_O 	O 	0.31333	0.25503	0.45045	-0.502
Mof_O 	O 	0.31333	0.75503	0.95045	-0.457
Mof_O 	O 	0.81333	0.74497	0.04955	-0.515
Mof_O 	O 	0.81333	0.24497	0.54955	-0.494
Mof_O 	O 	0.31333	0.74497	0.54955	-0.496
Mof_O 	O 	0.31333	0.24497	0.04955	-0.526
Mof_O 	O 	0.18667	0.74497	0.95045	-0.462
Mof_O 	O 	0.18667	0.24497	0.45045	-0.507
Mof_O 	O 	0.68667	0.74497	0.45045	-0.496
Mof_O 	O 	0.68667	0.24497	0.95045	-0.46
Mof_O 	O 	0.25503	0.95045	0.81333	-0.455
Mof_O 	O 	0.25503	0.45045	0.31333	-0.502
Mof_O 	O 	0.75503	0.95045	0.31333	-0.457
Mof_O 	O 	0.75503	0.45045	0.81333	-0.491
Mof_O 	O 	0.25503	0.04955	0.18667	-0.532
Mof_O 	O 	0.25503	0.54955	0.68667	-0.502
Mof_O 	O 	0.75503	0.04955	0.68667	-0.522
Mof_O 	O 	0.75503	0.54955	0.18667	-0.504
Mof_O 	O 	0.74497	0.95045	0.18667	-0.462
Mof_O 	O 	0.74497	0.45045	0.68667	-0.496
Mof_O 	O 	0.24497	0.95045	0.68667	-0.46
Mof_O 	O 	0.24497	0.45045	0.18667	-0.507
Mof_O 	O 	0.74497	0.04955	0.81333	-0.515
Mof_O 	O 	0.74497	0.54955	0.31333	-0.496
Mof_O 	O 	0.24497	0.04955	0.31333	-0.526
Mof_O 	O 	0.24497	0.54955	0.81333	-0.494
Mof_O 	O 	0.81333	0.04955	0.74497	-0.515
Mof_O 	O 	0.81333	0.54955	0.24497	-0.494
Mof_O 	O 	0.31333	0.04955	0.24497	-0.526
Mof_O 	O 	0.31333	0.54955	0.74497	-0.496
Mof_O 	O 	0.18667	0.95045	0.74497	-0.462
Mof_O 	O 	0.18667	0.45045	0.24497	-0.507
Mof_O 	O 	0.68667	0.95045	0.24497	-0.46
Mof_O 	O 	0.68667	0.45045	0.74497	-0.496
Mof_O 	O 	0.18667	0.04955	0.25503	-0.532
Mof_O 	O 	0.18667	0.54955	0.75503	-0.504
Mof_O 	O 	0.68667	0.04955	0.75503	-0.522
Mof_O 	O 	0.68667	0.54955	0.25503	-0.502
Mof_O 	O 	0.81333	0.95045	0.25503	-0.455
Mof_O 	O 	0.81333	0.45045	0.75503	-0.491
Mof_O 	O 	0.31333	0.95045	0.75503	-0.457
Mof_O 	O 	0.31333	0.45045	0.25503	-0.502
Mof_O 	O 	0.74497	0.81333	0.04955	-0.515
Mof_O 	O 	0.74497	0.31333	0.54955	-0.496
Mof_O 	O 	0.24497	0.81333	0.54955	-0.494
Mof_O 	O 	0.24497	0.31333	0.04955	-0.526
Mof_O 	O 	0.74497	0.18667	0.95045	-0.462
Mof_O 	O 	0.74497	0.68667	0.45045	-0.496
Mof_O 	O 	0.24497	0.18667	0.45045	-0.507
Mof_O 	O 	0.24497	0.68667	0.95045	-0.46
Mof_O 	O 	0.25503	0.18667	0.04955	-0.532
Mof_O 	O 	0.25503	0.68667	0.54955	-0.502
Mof_O 	O 	0.75503	0.18667	0.54955	-0.504
Mof_O 	O 	0.75503	0.68667	0.04955	-0.522
Mof_O 	O 	0.25503	0.81333	0.95045	-0.455
Mof_O 	O 	0.25503	0.31333	0.45045	-0.502
Mof_O 	O 	0.75503	0.81333	0.45045	-0.491
Mof_O 	O 	0.75503	0.31333	0.95045	-0.457
Mof_O 	O 	0.04955	0.74497	0.81333	-0.515
Mof_O 	O 	0.04955	0.24497	0.31333	-0.526
Mof_O 	O 	0.54955	0.74497	0.31333	-0.496
Mof_O 	O 	0.54955	0.24497	0.81333	-0.494
Mof_O 	O 	0.95045	0.74497	0.18667	-0.462
Mof_O 	O 	0.95045	0.24497	0.68667	-0.46
Mof_O 	O 	0.45045	0.74497	0.68667	-0.496
Mof_O 	O 	0.45045	0.24497	0.18667	-0.507
Mof_O 	O 	0.04955	0.25503	0.18667	-0.532
Mof_O 	O 	0.04955	0.75503	0.68667	-0.522
Mof_O 	O 	0.54955	0.25503	0.68667	-0.502
Mof_O 	O 	0.54955	0.75503	0.18667	-0.504
Mof_O 	O 	0.95045	0.25503	0.81333	-0.455
Mof_O 	O 	0.95045	0.75503	0.31333	-0.457
Mof_O 	O 	0.45045	0.25503	0.31333	-0.502
Mof_O 	O 	0.45045	0.75503	0.81333	-0.491
Mof_O 	O 	0.04955	0.81333	0.25503	-0.52
Mof_O 	O 	0.04955	0.31333	0.75503	-0.523
Mof_O 	O 	0.54955	0.81333	0.75503	-0.491
Mof_O 	O 	0.54955	0.31333	0.25503	-0.502
Mof_O 	O 	0.95045	0.18667	0.25503	-0.467
Mof_O 	O 	0.95045	0.68667	0.75503	-0.457
Mof_O 	O 	0.45045	0.18667	0.75503	-0.504
Mof_O 	O 	0.45045	0.68667	0.25503	-0.502
Mof_O 	O 	0.04955	0.18667	0.74497	-0.527
Mof_O 	O 	0.04955	0.68667	0.24497	-0.525
Mof_O 	O 	0.54955	0.18667	0.24497	-0.507
Mof_O 	O 	0.54955	0.68667	0.74497	-0.496
Mof_O 	O 	0.95045	0.81333	0.74497	-0.449
Mof_O 	O 	0.95045	0.31333	0.24497	-0.46
Mof_O 	O 	0.45045	0.81333	0.24497	-0.494
Mof_O 	O 	0.45045	0.31333	0.74497	-0.496
Mof_O 	O 	0.81333	0.74497	0.95045	-0.449
Mof_O 	O 	0.81333	0.24497	0.45045	-0.494
Mof_O 	O 	0.31333	0.74497	0.45045	-0.496
Mof_O 	O 	0.31333	0.24497	0.95045	-0.46
Mof_O 	O 	0.18667	0.74497	0.04955	-0.527
Mof_O 	O 	0.18667	0.24497	0.54955	-0.507
Mof_O 	O 	0.68667	0.74497	0.54955	-0.496
Mof_O 	O 	0.68667	0.24497	0.04955	-0.525
Mof_O 	O 	0.18667	0.25503	0.95045	-0.467
Mof_O 	O 	0.18667	0.75503	0.45045	-0.504
Mof_O 	O 	0.68667	0.25503	0.45045	-0.502
Mof_O 	O 	0.68667	0.75503	0.95045	-0.457
Mof_O 	O 	0.81333	0.25503	0.04955	-0.52
Mof_O 	O 	0.81333	0.75503	0.54955	-0.491
Mof_O 	O 	0.31333	0.25503	0.54955	-0.502
Mof_O 	O 	0.31333	0.75503	0.04955	-0.523
Mof_O 	O 	0.74497	0.04955	0.18667	-0.527
Mof_O 	O 	0.74497	0.54955	0.68667	-0.496
Mof_O 	O 	0.24497	0.04955	0.68667	-0.525
Mof_O 	O 	0.24497	0.54955	0.18667	-0.507
Mof_O 	O 	0.74497	0.95045	0.81333	-0.449
Mof_O 	O 	0.74497	0.45045	0.31333	-0.496
Mof_O 	O 	0.24497	0.95045	0.31333	-0.46
Mof_O 	O 	0.24497	0.45045	0.81333	-0.494
Mof_O 	O 	0.25503	0.04955	0.81333	-0.52
Mof_O 	O 	0.25503	0.54955	0.31333	-0.502
Mof_O 	O 	0.75503	0.04955	0.31333	-0.523
Mof_O 	O 	0.75503	0.54955	0.81333	-0.491
Mof_O 	O 	0.25503	0.95045	0.18667	-0.467
Mof_O 	O 	0.25503	0.45045	0.68667	-0.502
Mof_O 	O 	0.75503	0.95045	0.68667	-0.457
Mof_O 	O 	0.75503	0.45045	0.18667	-0.504
Mof_C 	C 	0.38741	0.32121	0.32121	-0.141
Mof_C 	C 	0.38741	0.82121	0.82121	-0.126
Mof_C 	C 	0.88741	0.32121	0.82121	-0.12
Mof_C 	C 	0.88741	0.82121	0.32121	-0.12
Mof_C 	C 	0.61259	0.67879	0.32121	-0.138
Mof_C 	C 	0.61259	0.17879	0.82121	-0.138
Mof_C 	C 	0.11259	0.67879	0.82121	-0.142
Mof_C 	C 	0.11259	0.17879	0.32121	-0.156
Mof_C 	C 	0.61259	0.32121	0.67879	-0.138
Mof_C 	C 	0.61259	0.82121	0.17879	-0.138
Mof_C 	C 	0.11259	0.32121	0.17879	-0.156
Mof_C 	C 	0.11259	0.82121	0.67879	-0.142
Mof_C 	C 	0.38741	0.67879	0.67879	-0.137
Mof_C 	C 	0.38741	0.17879	0.17879	-0.15
Mof_C 	C 	0.88741	0.67879	0.17879	-0.129
Mof_C 	C 	0.88741	0.17879	0.67879	-0.129
Mof_C 	C 	0.32121	0.38741	0.32121	-0.141
Mof_C 	C 	0.32121	0.88741	0.82121	-0.12
Mof_C 	C 	0.82121	0.38741	0.82121	-0.126
Mof_C 	C 	0.82121	0.88741	0.32121	-0.12
Mof_C 	C 	0.32121	0.61259	0.67879	-0.138
Mof_C 	C 	0.32121	0.11259	0.17879	-0.156
Mof_C 	C 	0.82121	0.61259	0.17879	-0.138
Mof_C 	C 	0.82121	0.11259	0.67879	-0.142
Mof_C 	C 	0.67879	0.61259	0.32121	-0.138
Mof_C 	C 	0.67879	0.11259	0.82121	-0.142
Mof_C 	C 	0.17879	0.61259	0.82121	-0.138
Mof_C 	C 	0.17879	0.11259	0.32121	-0.156
Mof_C 	C 	0.67879	0.38741	0.67879	-0.137
Mof_C 	C 	0.67879	0.88741	0.17879	-0.129
Mof_C 	C 	0.17879	0.38741	0.17879	-0.15
Mof_C 	C 	0.17879	0.88741	0.67879	-0.129
Mof_C 	C 	0.32121	0.32121	0.38741	-0.141
Mof_C 	C 	0.32121	0.82121	0.88741	-0.12
Mof_C 	C 	0.82121	0.32121	0.88741	-0.12
Mof_C 	C 	0.82121	0.82121	0.38741	-0.126
Mof_C 	C 	0.67879	0.32121	0.61259	-0.138
Mof_C 	C 	0.67879	0.82121	0.11259	-0.142
Mof_C 	C 	0.17879	0.32121	0.11259	-0.156
Mof_C 	C 	0.17879	0.82121	0.61259	-0.138
Mof_C 	C 	0.32121	0.67879	0.61259	-0.138
Mof_C 	C 	0.32121	0.17879	0.11259	-0.156
Mof_C 	C 	0.82121	0.67879	0.11259	-0.142
Mof_C 	C 	0.82121	0.17879	0.61259	-0.138
Mof_C 	C 	0.67879	0.67879	0.38741	-0.137
Mof_C 	C 	0.67879	0.17879	0.88741	-0.129
Mof_C 	C 	0.17879	0.67879	0.88741	-0.129
Mof_C 	C 	0.17879	0.17879	0.38741	-0.15
Mof_C 	C 	0.32121	0.38741	0.67879	-0.139
Mof_C 	C 	0.32121	0.88741	0.17879	-0.131
Mof_C 	C 	0.82121	0.38741	0.17879	-0.138
Mof_C 	C 	0.82121	0.88741	0.67879	-0.117
Mof_C 	C 	0.67879	0.61259	0.67879	-0.136
Mof_C 	C 	0.67879	0.11259	0.17879	-0.154
Mof_C 	C 	0.17879	0.61259	0.17879	-0.149
Mof_C 	C 	0.17879	0.11259	0.67879	-0.154
Mof_C 	C 	0.32121	0.61259	0.32121	-0.14
Mof_C 	C 	0.32121	0.11259	0.82121	-0.144
Mof_C 	C 	0.82121	0.61259	0.82121	-0.126
Mof_C 	C 	0.82121	0.11259	0.32121	-0.144
Mof_C 	C 	0.67879	0.38741	0.32121	-0.139
Mof_C 	C 	0.67879	0.88741	0.82121	-0.117
Mof_C 	C 	0.17879	0.38741	0.82121	-0.138
Mof_C 	C 	0.17879	0.88741	0.32121	-0.131
Mof_C 	C 	0.38741	0.32121	0.67879	-0.139
Mof_C 	C 	0.38741	0.82121	0.17879	-0.138
Mof_C 	C 	0.88741	0.32121	0.17879	-0.131
Mof_C 	C 	0.88741	0.82121	0.67879	-0.117
Mof_C 	C 	0.61259	0.32121	0.32121	-0.14
Mof_C 	C 	0.61259	0.82121	0.82121	-0.126
Mof_C 	C 	0.11259	0.32121	0.82121	-0.144
Mof_C 	C 	0.11259	0.82121	0.32121	-0.144
Mof_C 	C 	0.61259	0.67879	0.67879	-0.136
Mof_C 	C 	0.61259	0.17879	0.17879	-0.149
Mof_C 	C 	0.11259	0.67879	0.17879	-0.154
Mof_C 	C 	0.11259	0.17879	0.67879	-0.154
Mof_C 	C 	0.38741	0.67879	0.32121	-0.139
Mof_C 	C 	0.38741	0.17879	0.82121	-0.138
Mof_C 	C 	0.88741	0.67879	0.82121	-0.117
Mof_C 	C 	0.88741	0.17879	0.32121	-0.131
Mof_C 	C 	0.32121	0.32121	0.61259	-0.14
Mof_C 	C 	0.32121	0.82121	0.11259	-0.144
Mof_C 	C 	0.82121	0.32121	0.11259	-0.144
Mof_C 	C 	0.82121	0.82121	0.61259	-0.126
Mof_C 	C 	0.32121	0.67879	0.38741	-0.139
Mof_C 	C 	0.32121	0.17879	0.88741	-0.131
Mof_C 	C 	0.82121	0.67879	0.88741	-0.117
Mof_C 	C 	0.82121	0.17879	0.38741	-0.138
Mof_C 	C 	0.67879	0.32121	0.38741	-0.139
Mof_C 	C 	0.67879	0.82121	0.88741	-0.117
Mof_C 	C 	0.17879	0.32121	0.88741	-0.131
Mof_C 	C 	0.17879	0.82121	0.38741	-0.138
Mof_C 	C 	0.67879	0.67879	0.61259	-0.136
Mof_C 	C 	0.67879	0.17879	0.11259	-0.154
Mof_C 	C 	0.17879	0.67879	0.11259	-0.154
Mof_C 	C 	0.17879	0.17879	0.61259	-0.149
Mof_C 	C 	0.36499	0.36499	0.30009	0.078
Mof_H 	H 	0.38104	0.38104	0.26618	0.031
Mof_C 	C 	0.36499	0.86499	0.80009	0.075
Mof_H 	H 	0.38104	0.88104	0.76618	0.045
Mof_C 	C 	0.86499	0.36499	0.80009	0.075
Mof_H 	H 	0.88104	0.38104	0.76618	0.045
Mof_C 	C 	0.86499	0.86499	0.30009	0.074
Mof_H 	H 	0.88104	0.88104	0.26618	0.05
Mof_C 	C 	0.63501	0.63501	0.30009	0.076
Mof_H 	H 	0.61896	0.61896	0.26618	0.032
Mof_C 	C 	0.63501	0.13501	0.80009	0.075
Mof_H 	H 	0.61896	0.11896	0.76618	0.027
Mof_C 	C 	0.13501	0.63501	0.80009	0.075
Mof_H 	H 	0.11896	0.61896	0.76618	0.027
Mof_C 	C 	0.13501	0.13501	0.30009	0.077
Mof_H 	H 	0.11896	0.11896	0.26618	0.015
Mof_C 	C 	0.63501	0.36499	0.69991	0.076
Mof_H 	H 	0.61896	0.38104	0.73382	0.037
Mof_C 	C 	0.63501	0.86499	0.19991	0.075
Mof_H 	H 	0.61896	0.88104	0.23382	0.042
Mof_C 	C 	0.13501	0.36499	0.19991	0.077
Mof_H 	H 	0.11896	0.38104	0.23382	0.024
Mof_C 	C 	0.13501	0.86499	0.69991	0.075
Mof_H 	H 	0.11896	0.88104	0.73382	0.037
Mof_C 	C 	0.36499	0.63501	0.69991	0.076
Mof_H 	H 	0.38104	0.61896	0.73382	0.037
Mof_C 	C 	0.36499	0.13501	0.19991	0.077
Mof_H 	H 	0.38104	0.11896	0.23382	0.024
Mof_C 	C 	0.86499	0.63501	0.19991	0.075
Mof_H 	H 	0.88104	0.61896	0.23382	0.042
Mof_C 	C 	0.86499	0.13501	0.69991	0.075
Mof_H 	H 	0.88104	0.11896	0.73382	0.037
Mof_C 	C 	0.30009	0.36499	0.36499	0.078
Mof_H 	H 	0.26618	0.38104	0.38104	0.031
Mof_C 	C 	0.30009	0.86499	0.86499	0.074
Mof_H 	H 	0.26618	0.88104	0.88104	0.05
Mof_C 	C 	0.80009	0.36499	0.86499	0.075
Mof_H 	H 	0.76618	0.38104	0.88104	0.045
Mof_C 	C 	0.80009	0.86499	0.36499	0.075
Mof_H 	H 	0.76618	0.88104	0.38104	0.045
Mof_C 	C 	0.30009	0.63501	0.63501	0.076
Mof_H 	H 	0.26618	0.61896	0.61896	0.032
Mof_C 	C 	0.30009	0.13501	0.13501	0.077
Mof_H 	H 	0.26618	0.11896	0.11896	0.015
Mof_C 	C 	0.80009	0.63501	0.13501	0.075
Mof_H 	H 	0.76618	0.61896	0.11896	0.027
Mof_C 	C 	0.80009	0.13501	0.63501	0.075
Mof_H 	H 	0.76618	0.11896	0.61896	0.027
Mof_C 	C 	0.69991	0.63501	0.36499	0.076
Mof_H 	H 	0.73382	0.61896	0.38104	0.037
Mof_C 	C 	0.69991	0.13501	0.86499	0.075
Mof_H 	H 	0.73382	0.11896	0.88104	0.037
Mof_C 	C 	0.19991	0.63501	0.86499	0.075
Mof_H 	H 	0.23382	0.61896	0.88104	0.042
Mof_C 	C 	0.19991	0.13501	0.36499	0.077
Mof_H 	H 	0.23382	0.11896	0.38104	0.024
Mof_C 	C 	0.69991	0.36499	0.63501	0.076
Mof_H 	H 	0.73382	0.38104	0.61896	0.037
Mof_C 	C 	0.69991	0.86499	0.13501	0.075
Mof_H 	H 	0.73382	0.88104	0.11896	0.037
Mof_C 	C 	0.19991	0.36499	0.13501	0.077
Mof_H 	H 	0.23382	0.38104	0.11896	0.024
Mof_C 	C 	0.19991	0.86499	0.63501	0.075
Mof_H 	H 	0.23382	0.88104	0.61896	0.042
Mof_C 	C 	0.36499	0.30009	0.36499	0.078
Mof_H 	H 	0.38104	0.26618	0.38104	0.031
Mof_C 	C 	0.36499	0.80009	0.86499	0.075
Mof_H 	H 	0.38104	0.76618	0.88104	0.045
Mof_C 	C 	0.86499	0.30009	0.86499	0.074
Mof_H 	H 	0.88104	0.26618	0.88104	0.05
Mof_C 	C 	0.86499	0.80009	0.36499	0.075
Mof_H 	H 	0.88104	0.76618	0.38104	0.045
Mof_C 	C 	0.63501	0.30009	0.63501	0.076
Mof_H 	H 	0.61896	0.26618	0.61896	0.032
Mof_C 	C 	0.63501	0.80009	0.13501	0.075
Mof_H 	H 	0.61896	0.76618	0.11896	0.027
Mof_C 	C 	0.13501	0.30009	0.13501	0.077
Mof_H 	H 	0.11896	0.26618	0.11896	0.015
Mof_C 	C 	0.13501	0.80009	0.63501	0.075
Mof_H 	H 	0.11896	0.76618	0.61896	0.027
Mof_C 	C 	0.36499	0.69991	0.63501	0.076
Mof_H 	H 	0.38104	0.73382	0.61896	0.037
Mof_C 	C 	0.36499	0.19991	0.13501	0.077
Mof_H 	H 	0.38104	0.23382	0.11896	0.024
Mof_C 	C 	0.86499	0.69991	0.13501	0.075
Mof_H 	H 	0.88104	0.73382	0.11896	0.037
Mof_C 	C 	0.86499	0.19991	0.63501	0.075
Mof_H 	H 	0.88104	0.23382	0.61896	0.042
Mof_C 	C 	0.63501	0.69991	0.36499	0.076
Mof_H 	H 	0.61896	0.73382	0.38104	0.037
Mof_C 	C 	0.63501	0.19991	0.86499	0.075
Mof_H 	H 	0.61896	0.23382	0.88104	0.042
Mof_C 	C 	0.13501	0.69991	0.86499	0.075
Mof_H 	H 	0.11896	0.73382	0.88104	0.037
Mof_C 	C 	0.13501	0.19991	0.36499	0.077
Mof_H 	H 	0.11896	0.23382	0.38104	0.024
Mof_C 	C 	0.36499	0.36499	0.69991	0.077
Mof_H 	H 	0.38104	0.38104	0.73382	0.036
Mof_C 	C 	0.36499	0.86499	0.19991	0.076
Mof_H 	H 	0.38104	0.88104	0.23382	0.042
Mof_C 	C 	0.86499	0.36499	0.19991	0.076
Mof_H 	H 	0.88104	0.38104	0.23382	0.042
Mof_C 	C 	0.86499	0.86499	0.69991	0.073
Mof_H 	H 	0.88104	0.88104	0.73382	0.055
Mof_C 	C 	0.63501	0.63501	0.69991	0.075
Mof_H 	H 	0.61896	0.61896	0.73382	0.037
Mof_C 	C 	0.63501	0.13501	0.19991	0.076
Mof_H 	H 	0.61896	0.11896	0.23382	0.024
Mof_C 	C 	0.13501	0.63501	0.19991	0.076
Mof_H 	H 	0.11896	0.61896	0.23382	0.024
Mof_C 	C 	0.13501	0.13501	0.69991	0.076
Mof_H 	H 	0.11896	0.11896	0.73382	0.02
Mof_C 	C 	0.36499	0.63501	0.30009	0.077
Mof_H 	H 	0.38104	0.61896	0.26618	0.031
Mof_C 	C 	0.36499	0.13501	0.80009	0.076
Mof_H 	H 	0.38104	0.11896	0.76618	0.027
Mof_C 	C 	0.86499	0.63501	0.80009	0.074
Mof_H 	H 	0.88104	0.61896	0.76618	0.045
Mof_C 	C 	0.86499	0.13501	0.30009	0.076
Mof_H 	H 	0.88104	0.11896	0.26618	0.032
Mof_C 	C 	0.63501	0.36499	0.30009	0.077
Mof_H 	H 	0.61896	0.38104	0.26618	0.031
Mof_C 	C 	0.63501	0.86499	0.80009	0.074
Mof_H 	H 	0.61896	0.88104	0.76618	0.045
Mof_C 	C 	0.13501	0.36499	0.80009	0.076
Mof_H 	H 	0.11896	0.38104	0.76618	0.027
Mof_C 	C 	0.13501	0.86499	0.30009	0.076
Mof_H 	H 	0.11896	0.88104	0.26618	0.032
Mof_C 	C 	0.36499	0.30009	0.63501	0.077
Mof_H 	H 	0.38104	0.26618	0.61896	0.031
Mof_C 	C 	0.36499	0.80009	0.13501	0.076
Mof_H 	H 	0.38104	0.76618	0.11896	0.027
Mof_C 	C 	0.86499	0.30009	0.13501	0.076
Mof_H 	H 	0.88104	0.26618	0.11896	0.032
Mof_C 	C 	0.86499	0.80009	0.63501	0.074
Mof_H 	H 	0.88104	0.76618	0.61896	0.045
Mof_C 	C 	0.63501	0.30009	0.36499	0.077
Mof_H 	H 	0.61896	0.26618	0.38104	0.031
Mof_C 	C 	0.63501	0.80009	0.86499	0.074
Mof_H 	H 	0.61896	0.76618	0.88104	0.045
Mof_C 	C 	0.13501	0.30009	0.86499	0.076
Mof_H 	H 	0.11896	0.26618	0.88104	0.032
Mof_C 	C 	0.13501	0.80009	0.36499	0.076
Mof_H 	H 	0.11896	0.76618	0.38104	0.027
Mof_C 	C 	0.63501	0.69991	0.63501	0.075
Mof_H 	H 	0.61896	0.73382	0.61896	0.037
Mof_C 	C 	0.63501	0.19991	0.13501	0.076
Mof_H 	H 	0.61896	0.23382	0.11896	0.024
Mof_C 	C 	0.13501	0.69991	0.13501	0.076
Mof_H 	H 	0.11896	0.73382	0.11896	0.02
Mof_C 	C 	0.13501	0.19991	0.63501	0.076
Mof_H 	H 	0.11896	0.23382	0.61896	0.024
Mof_C 	C 	0.36499	0.69991	0.36499	0.077
Mof_H 	H 	0.38104	0.73382	0.38104	0.036
Mof_C 	C 	0.36499	0.19991	0.86499	0.076
Mof_H 	H 	0.38104	0.23382	0.88104	0.042
Mof_C 	C 	0.86499	0.69991	0.86499	0.073
Mof_H 	H 	0.88104	0.73382	0.88104	0.055
Mof_C 	C 	0.86499	0.19991	0.36499	0.076
Mof_H 	H 	0.88104	0.23382	0.38104	0.042
Mof_C 	C 	0.30009	0.36499	0.63501	0.077
Mof_H 	H 	0.26618	0.38104	0.61896	0.031
Mof_C 	C 	0.30009	0.86499	0.13501	0.076
Mof_H 	H 	0.26618	0.88104	0.11896	0.032
Mof_C 	C 	0.80009	0.36499	0.13501	0.076
Mof_H 	H 	0.76618	0.38104	0.11896	0.027
Mof_C 	C 	0.80009	0.86499	0.63501	0.074
Mof_H 	H 	0.76618	0.88104	0.61896	0.045
Mof_C 	C 	0.30009	0.63501	0.36499	0.077
Mof_H 	H 	0.26618	0.61896	0.38104	0.031
Mof_C 	C 	0.30009	0.13501	0.86499	0.076
Mof_H 	H 	0.26618	0.11896	0.88104	0.032
Mof_C 	C 	0.80009	0.63501	0.86499	0.074
Mof_H 	H 	0.76618	0.61896	0.88104	0.045
Mof_C 	C 	0.80009	0.13501	0.36499	0.076
Mof_H 	H 	0.76618	0.11896	0.38104	0.027
Mof_C 	C 	0.69991	0.36499	0.36499	0.077
Mof_H 	H 	0.73382	0.38104	0.38104	0.036
Mof_C 	C 	0.69991	0.86499	0.86499	0.073
Mof_H 	H 	0.73382	0.88104	0.88104	0.055
Mof_C 	C 	0.19991	0.36499	0.86499	0.076
Mof_H 	H 	0.23382	0.38104	0.88104	0.042
Mof_C 	C 	0.19991	0.86499	0.36499	0.076
Mof_H 	H 	0.23382	0.88104	0.38104	0.042
Mof_C 	C 	0.69991	0.63501	0.63501	0.075
Mof_H 	H 	0.73382	0.61896	0.61896	0.037
Mof_C 	C 	0.69991	0.13501	0.13501	0.076
Mof_H 	H 	0.73382	0.11896	0.11896	0.02
Mof_C 	C 	0.19991	0.63501	0.13501	0.076
Mof_H 	H 	0.23382	0.61896	0.11896	0.024
Mof_C 	C 	0.19991	0.13501	0.63501	0.076
Mof_H 	H 	0.23382	0.11896	0.61896	0.024
Mof_Zn	Zn	0.21516	0	0.21516	1.204
Mof_Zn	Zn	0.21516	0.5	0.71516	1.234
Mof_Zn	Zn	0.71516	-5.40386e-33	0.71516	1.207
Mof_Zn	Zn	0.71516	0.5	0.21516	1.234
Mof_Zn	Zn	0.78484	0	0.21516	1.207
Mof_Zn	Zn	0.78484	0.5	0.71516	1.237
Mof_Zn	Zn	0.28484	-5.40386e-33	0.71516	1.207
Mof_Zn	Zn	0.28484	0.5	0.21516	1.234
Mof_Zn	Zn	0.78484	-5.40386e-33	0.78484	1.21
Mof_Zn	Zn	0.78484	0.5	0.28484	1.237
Mof_Zn	Zn	0.28484	-2.70193e-33	0.28484	1.207
Mof_Zn	Zn	0.28484	0.5	0.78484	1.237
Mof_Zn	Zn	0.21516	-5.40386e-33	0.78484	1.207
Mof_Zn	Zn	0.21516	0.5	0.28484	1.234
Mof_Zn	Zn	0.71516	-2.70193e-33	0.28484	1.207
Mof_Zn	Zn	0.71516	0.5	0.78484	1.237
Mof_Zn	Zn	0.21516	0.21516	-0	1.204
Mof_Zn	Zn	0.21516	0.71516	0.5	1.234
Mof_Zn	Zn	0.71516	0.21516	0.5	1.234
Mof_Zn	Zn	0.71516	0.71516	-0	1.207
Mof_Zn	Zn	0.21516	0.78484	-0	1.207
Mof_Zn	Zn	0.21516	0.28484	0.5	1.234
Mof_Zn	Zn	0.71516	0.78484	0.5	1.237
Mof_Zn	Zn	0.71516	0.28484	-0	1.207
Mof_Zn	Zn	0.78484	0.78484	-0	1.21
Mof_Zn	Zn	0.78484	0.28484	0.5	1.237
Mof_Zn	Zn	0.28484	0.78484	0.5	1.237
Mof_Zn	Zn	0.28484	0.28484	-0	1.207
Mof_Zn	Zn	0.78484	0.21516	-0	1.207
Mof_Zn	Zn	0.78484	0.71516	0.5	1.237
Mof_Zn	Zn	0.28484	0.21516	0.5	1.234
Mof_Zn	Zn	0.28484	0.71516	-0	1.207
Mof_Zn	Zn	8.06721e-34	0.21516	0.21516	1.204
Mof_Zn	Zn	-8.1263e-33	0.71516	0.71516	1.207
Mof_Zn	Zn	0.5	0.21516	0.71516	1.234
Mof_Zn	Zn	0.5	0.71516	0.21516	1.234
Mof_Zn	Zn	-2.46118e-33	0.21516	0.78484	1.207
Mof_Zn	Zn	-1.63395e-33	0.71516	0.28484	1.207
Mof_Zn	Zn	0.5	0.21516	0.28484	1.234
Mof_Zn	Zn	0.5	0.71516	0.78484	1.237
Mof_Zn	Zn	-7.86504e-33	0.78484	0.78484	1.21
Mof_Zn	Zn	-4.33588e-33	0.28484	0.28484	1.207
Mof_Zn	Zn	0.5	0.78484	0.28484	1.237
Mof_Zn	Zn	0.5	0.28484	0.78484	1.237
Mof_Zn	Zn	-1.89521e-33	0.78484	0.21516	1.207
Mof_Zn	Zn	-2.72244e-33	0.28484	0.71516	1.207
Mof_Zn	Zn	0.5	0.78484	0.71516	1.237
Mof_Zn	Zn	0.5	0.28484	0.21516	1.234
Mof_C 	C 	0.20435	0.93191	0.29565	0.402
Mof_C 	C 	0.20435	0.43191	0.79565	0.409
Mof_C 	C 	0.79565	0.06809	0.29565	0.41
Mof_C 	C 	0.79565	0.56809	0.79565	0.408
Mof_C 	C 	0.29565	0.56809	0.29565	0.41
Mof_C 	C 	0.79565	0.93191	0.70435	0.4
Mof_C 	C 	0.79565	0.43191	0.20435	0.409
Mof_C 	C 	0.29565	0.93191	0.20435	0.402
Mof_C 	C 	0.20435	0.06809	0.70435	0.409
Mof_C 	C 	0.20435	0.56809	0.20435	0.409
Mof_C 	C 	0.29565	0.20435	0.93191	0.402
Mof_C 	C 	0.29565	0.70435	0.43191	0.409
Mof_C 	C 	0.29565	0.79565	0.06809	0.41
Mof_C 	C 	0.29565	0.29565	0.56809	0.41
Mof_C 	C 	0.70435	0.79565	0.93191	0.4
Mof_C 	C 	0.70435	0.29565	0.43191	0.409
Mof_C 	C 	0.20435	0.29565	0.93191	0.402
Mof_C 	C 	0.70435	0.20435	0.06809	0.409
Mof_C 	C 	0.70435	0.70435	0.56809	0.407
Mof_C 	C 	0.20435	0.20435	0.56809	0.409
Mof_C 	C 	0.93191	0.29565	0.20435	0.402
Mof_C 	C 	0.43191	0.29565	0.70435	0.409
Mof_C 	C 	0.06809	0.29565	0.79565	0.41
Mof_C 	C 	0.56809	0.29565	0.29565	0.41
Mof_C 	C 	0.93191	0.70435	0.79565	0.4
Mof_C 	C 	0.93191	0.20435	0.29565	0.402
Mof_C 	C 	0.43191	0.70435	0.29565	0.409
Mof_C 	C 	0.06809	0.70435	0.20435	0.409
Mof_C 	C 	0.56809	0.70435	0.70435	0.407
Mof_C 	C 	0.56809	0.20435	0.20435	0.409
Mof_C 	C 	0.93191	0.20435	0.70435	0.401
Mof_C 	C 	0.43191	0.20435	0.20435	0.409
Mof_C 	C 	0.06809	0.79565	0.70435	0.409
Mof_C 	C 	0.06809	0.29565	0.20435	0.41
Mof_C 	C 	0.56809	0.79565	0.20435	0.408
Mof_C 	C 	0.93191	0.79565	0.29565	0.402
Mof_C 	C 	0.43191	0.79565	0.79565	0.408
Mof_C 	C 	0.43191	0.29565	0.29565	0.41
Mof_C 	C 	0.06809	0.20435	0.29565	0.41
Mof_C 	C 	0.56809	0.20435	0.79565	0.408
Mof_C 	C 	0.20435	0.29565	0.06809	0.41
Mof_C 	C 	0.20435	0.79565	0.56809	0.408
Mof_C 	C 	0.79565	0.29565	0.93191	0.402
Mof_C 	C 	0.79565	0.79565	0.43191	0.408
Mof_C 	C 	0.29565	0.29565	0.43191	0.41
Mof_C 	C 	0.79565	0.70435	0.06809	0.409
Mof_C 	C 	0.79565	0.20435	0.56809	0.408
Mof_C 	C 	0.29565	0.20435	0.06809	0.41
Mof_C 	C 	0.20435	0.70435	0.93191	0.401
Mof_C 	C 	0.20435	0.20435	0.43191	0.409
Mof_C 	C 	0.29565	0.93191	0.79565	0.402
Mof_C 	C 	0.29565	0.43191	0.29565	0.41
Mof_C 	C 	0.29565	0.06809	0.20435	0.41
Mof_C 	C 	0.29565	0.56809	0.70435	0.408
Mof_C 	C 	0.70435	0.93191	0.20435	0.401
Mof_C 	C 	0.70435	0.43191	0.70435	0.407
Mof_C 	C 	0.20435	0.43191	0.20435	0.409
Mof_C 	C 	0.70435	0.06809	0.79565	0.409
Mof_C 	C 	0.70435	0.56809	0.29565	0.408
Mof_C 	C 	0.20435	0.06809	0.29565	0.41
Mof_C 	C 	0.79565	0.06809	0.70435	0.409
Mof_C 	C 	0.79565	0.56809	0.20435	0.408
Mof_C 	C 	0.20435	0.93191	0.70435	0.401
Mof_C 	C 	0.20435	0.56809	0.79565	0.408
Mof_C 	C 	0.79565	0.93191	0.29565	0.402
Mof_C 	C 	0.79565	0.43191	0.79565	0.408
Mof_C 	C 	0.70435	0.79565	0.06809	0.409
Mof_C 	C 	0.70435	0.29565	0.56809	0.408
Mof_C 	C 	0.70435	0.20435	0.93191	0.401
Mof_C 	C 	0.70435	0.70435	0.43191	0.407
Mof_C 	C 	0.29565	0.70435	0.56809	0.408
Mof_C 	C 	0.29565	0.79565	0.93191	0.402
Mof_C 	C 	0.06809	0.70435	0.79565	0.409
Mof_C 	C 	0.56809	0.70435	0.29565	0.408
Mof_C 	C 	0.93191	0.70435	0.20435	0.401
Mof_C 	C 	0.43191	0.70435	0.70435	0.407
Mof_C 	C 	0.56809	0.29565	0.70435	0.408
Mof_C 	C 	0.93191	0.29565	0.79565	0.402
Mof_C 	C 	0.06809	0.79565	0.29565	0.41
Mof_C 	C 	0.56809	0.79565	0.79565	0.408
Mof_C 	C 	0.43191	0.20435	0.79565	0.409
Mof_C 	C 	0.06809	0.20435	0.70435	0.409
Mof_C 	C 	0.93191	0.79565	0.70435	0.4
Mof_C 	C 	0.43191	0.79565	0.20435	0.409
Mof_C 	C 	0.79565	0.70435	0.93191	0.4
Mof_C 	C 	0.79565	0.20435	0.43191	0.409
Mof_C 	C 	0.20435	0.70435	0.06809	0.409
Mof_C 	C 	0.20435	0.79565	0.43191	0.409
Mof_C 	C 	0.79565	0.29565	0.06809	0.41
Mof_C 	C 	0.79565	0.79565	0.56809	0.408
Mof_C 	C 	0.70435	0.06809	0.20435	0.409
Mof_C 	C 	0.70435	0.56809	0.70435	0.407
Mof_C 	C 	0.70435	0.93191	0.79565	0.4
Mof_C 	C 	0.70435	0.43191	0.29565	0.409
Mof_C 	C 	0.29565	0.06809	0.79565	0.41
Mof_C 	C 	0.29565	0.43191	0.70435	0.409
_end
