# CIF file generated by openbabel 3.1.0, see https://openbabel.org
data_I
_chemical_name_common 'QOZDOY_clean'
_cell_length_a 12.005
_cell_length_b 12.471
_cell_length_c 13.804
_cell_angle_alpha 90
_cell_angle_beta 90
_cell_angle_gamma 90
_space_group_name_H-M_alt 'P 1'
_space_group_name_Hall 'P 1'
loop_
    _symmetry_equiv_pos_as_xyz
    x,y,z
loop_
    _atom_site_label
    _atom_site_type_symbol
    _atom_site_fract_x
    _atom_site_fract_y
    _atom_site_fract_z
    _atom_site_occupancy
    Zn1      Zn       0.80346    0.25000    0.00000    1.000
    Zn2      Zn       0.30346    0.75000    0.50000    1.000
    H1       H        0.42900    0.61380    0.18150    1.000
    H2       H        0.33230    0.71590    0.28920    1.000
    H3       H        0.52160    0.62300    0.50070    1.000
    H4       H        0.62540    0.51990    0.39760    1.000
    H5       H        0.65300    0.43370    0.24220    1.000
    H6       H        0.54410    0.51940    0.08630    1.000
    H7       H        0.42900    0.88620    0.81850    1.000
    H8       H        0.33230    0.78410    0.71080    1.000
    H9       H        0.52160    0.87700    0.49930    1.000
    H10      H        0.62540    0.98010    0.60240    1.000
    H11      H        0.65300    0.06630    0.75780    1.000
    H12      H        0.54410    0.98060    0.91370    1.000
    H13      H        0.92900    0.11380    0.31850    1.000
    H14      H        0.83230    0.21590    0.21080    1.000
    H15      H        0.02160    0.12300    0.99930    1.000
    H16      H        0.12540    0.01990    0.10240    1.000
    H17      H        0.15300    0.93370    0.25780    1.000
    H18      H        0.04410    0.01940    0.41370    1.000
    H19      H        0.92900    0.38620    0.68150    1.000
    H20      H        0.83230    0.28410    0.78920    1.000
    H21      H        0.02160    0.37700    0.00070    1.000
    H22      H        0.12540    0.48010    0.89760    1.000
    H23      H        0.15300    0.56630    0.74220    1.000
    H24      H        0.04410    0.48060    0.58630    1.000
    C1       C        0.44890    0.61290    0.24660    1.000
    C2       C        0.39050    0.67360    0.31190    1.000
    C3       C        0.50120    0.61970    0.43580    1.000
    C4       C        0.56430    0.55740    0.37380    1.000
    C5       C        0.53710    0.55060    0.27700    1.000
    C6       C        0.60210    0.47940    0.21270    1.000
    C7       C        0.59460    0.47450    0.11750    1.000
    C8       C        0.66340    0.40020    0.05740    1.000
    C9       C        0.44890    0.88710    0.75340    1.000
    C10      C        0.39050    0.82640    0.68810    1.000
    C11      C        0.50120    0.88030    0.56420    1.000
    C12      C        0.56430    0.94260    0.62620    1.000
    C13      C        0.53710    0.94940    0.72300    1.000
    C14      C        0.60210    0.02060    0.78730    1.000
    C15      C        0.59460    0.02550    0.88250    1.000
    C16      C        0.66340    0.09980    0.94260    1.000
    C17      C        0.94890    0.11290    0.25340    1.000
    C18      C        0.89050    0.17360    0.18810    1.000
    C19      C        0.00120    0.11970    0.06420    1.000
    C20      C        0.06430    0.05740    0.12620    1.000
    C21      C        0.03710    0.05060    0.22300    1.000
    C22      C        0.10210    0.97940    0.28730    1.000
    C23      C        0.09460    0.97450    0.38250    1.000
    C24      C        0.16340    0.90020    0.44260    1.000
    C25      C        0.94890    0.38710    0.74660    1.000
    C26      C        0.89050    0.32640    0.81190    1.000
    C27      C        0.00120    0.38030    0.93580    1.000
    C28      C        0.06430    0.44260    0.87380    1.000
    C29      C        0.03710    0.44940    0.77700    1.000
    C30      C        0.10210    0.52060    0.71270    1.000
    C31      C        0.09460    0.52550    0.61750    1.000
    C32      C        0.16340    0.59980    0.55740    1.000
    N1       N        0.41320    0.67490    0.40680    1.000
    N2       N        0.41320    0.82510    0.59320    1.000
    N3       N        0.91320    0.17490    0.09320    1.000
    N4       N        0.91320    0.32510    0.90680    1.000
    O1       O        0.65080    0.39850    0.96950    1.000
    O2       O        0.73720    0.34430    0.09870    1.000
    O3       O        0.65080    0.10150    0.03050    1.000
    O4       O        0.73720    0.15570    0.90130    1.000
    O5       O        0.15080    0.89850    0.53050    1.000
    O6       O        0.23720    0.84430    0.40130    1.000
    O7       O        0.15080    0.60150    0.46950    1.000
    O8       O        0.23720    0.65570    0.59870    1.000
    Zn3      Zn       0.69654    0.25000    0.50000    1.000
    Zn4      Zn       0.19654    0.75000    0.00000    1.000
    H25      H        0.07100    0.88620    0.68150    1.000
    H26      H        0.16770    0.78410    0.78920    1.000
    H27      H        0.97840    0.87700    0.00070    1.000
    H28      H        0.87460    0.98010    0.89760    1.000
    H29      H        0.84700    0.06630    0.74220    1.000
    H30      H        0.95590    0.98060    0.58630    1.000
    H31      H        0.07100    0.61380    0.31850    1.000
    H32      H        0.16770    0.71590    0.21080    1.000
    H33      H        0.97840    0.62300    0.99930    1.000
    H34      H        0.87460    0.51990    0.10240    1.000
    H35      H        0.84700    0.43370    0.25780    1.000
    H36      H        0.95590    0.51940    0.41370    1.000
    H37      H        0.57100    0.38620    0.81850    1.000
    H38      H        0.66770    0.28410    0.71080    1.000
    H39      H        0.47840    0.37700    0.49930    1.000
    H40      H        0.37460    0.48010    0.60240    1.000
    H41      H        0.34700    0.56630    0.75780    1.000
    H42      H        0.45590    0.48060    0.91370    1.000
    H43      H        0.57100    0.11380    0.18150    1.000
    H44      H        0.66770    0.21590    0.28920    1.000
    H45      H        0.47840    0.12300    0.50070    1.000
    H46      H        0.37460    0.01990    0.39760    1.000
    H47      H        0.34700    0.93370    0.24220    1.000
    H48      H        0.45590    0.01940    0.08630    1.000
    C33      C        0.05110    0.88710    0.74660    1.000
    C34      C        0.10950    0.82640    0.81190    1.000
    C35      C        0.99880    0.88030    0.93580    1.000
    C36      C        0.93570    0.94260    0.87380    1.000
    C37      C        0.96290    0.94940    0.77700    1.000
    C38      C        0.89790    0.02060    0.71270    1.000
    C39      C        0.90540    0.02550    0.61750    1.000
    C40      C        0.83660    0.09980    0.55740    1.000
    C41      C        0.05110    0.61290    0.25340    1.000
    C42      C        0.10950    0.67360    0.18810    1.000
    C43      C        0.99880    0.61970    0.06420    1.000
    C44      C        0.93570    0.55740    0.12620    1.000
    C45      C        0.96290    0.55060    0.22300    1.000
    C46      C        0.89790    0.47940    0.28730    1.000
    C47      C        0.90540    0.47450    0.38250    1.000
    C48      C        0.83660    0.40020    0.44260    1.000
    C49      C        0.55110    0.38710    0.75340    1.000
    C50      C        0.60950    0.32640    0.68810    1.000
    C51      C        0.49880    0.38030    0.56420    1.000
    C52      C        0.43570    0.44260    0.62620    1.000
    C53      C        0.46290    0.44940    0.72300    1.000
    C54      C        0.39790    0.52060    0.78730    1.000
    C55      C        0.40540    0.52550    0.88250    1.000
    C56      C        0.33660    0.59980    0.94260    1.000
    C57      C        0.55110    0.11290    0.24660    1.000
    C58      C        0.60950    0.17360    0.31190    1.000
    C59      C        0.49880    0.11970    0.43580    1.000
    C60      C        0.43570    0.05740    0.37380    1.000
    C61      C        0.46290    0.05060    0.27700    1.000
    C62      C        0.39790    0.97940    0.21270    1.000
    C63      C        0.40540    0.97450    0.11750    1.000
    C64      C        0.33660    0.90020    0.05740    1.000
    N5       N        0.08680    0.82510    0.90680    1.000
    N6       N        0.08680    0.67490    0.09320    1.000
    N7       N        0.58680    0.32510    0.59320    1.000
    N8       N        0.58680    0.17490    0.40680    1.000
    O9       O        0.84920    0.10150    0.46950    1.000
    O10      O        0.76280    0.15570    0.59870    1.000
    O11      O        0.84920    0.39850    0.53050    1.000
    O12      O        0.76280    0.34430    0.40130    1.000
    O13      O        0.34920    0.60150    0.03050    1.000
    O14      O        0.26280    0.65570    0.90130    1.000
    O15      O        0.34920    0.89850    0.96950    1.000
    O16      O        0.26280    0.84430    0.09870    1.000
