data_functionalizedCrystal
_audit_creation_method	'EQeq! by Chris Wilmer'
_symmetry_space_group_name_H-M	'P1'
_symmetry_Int_Tables_number	1
_symmetry_cell_setting	triclinic
loop_
_symmetry_equiv_pos_as_xyz
  x,y,z
_cell_length_a	14.216
_cell_length_b	14.447
_cell_length_c	27.865
_cell_angle_alpha	90
_cell_angle_beta	90
_cell_angle_gamma	90
loop_
_atom_site_label
_atom_site_type_symbol
_atom_site_fract_x
_atom_site_fract_y
_atom_site_fract_z
_atom_site_charge
Mof_Zn	Zn	0.20947	0.10007	0.09855	1.154
Mof_Zn	Zn	0.21308	0.48353	0.84502	1.21
Mof_Zn	Zn	0.29053	0.89993	0.59855	1.155
Mof_Zn	Zn	0.28692	0.51647	0.34502	1.21
Mof_Zn	Zn	0.79053	0.60007	0.40145	1.155
Mof_Zn	Zn	0.78692	0.98353	0.65498	1.21
Mof_Zn	Zn	0.70947	0.39993	0.90145	1.154
Mof_Zn	Zn	0.71308	0.01647	0.15498	1.21
Mof_Zn	Zn	0.79053	0.89993	0.90145	1.153
Mof_Zn	Zn	0.78692	0.51647	0.15498	1.209
Mof_Zn	Zn	0.70947	0.10007	0.40145	1.154
Mof_Zn	Zn	0.71308	0.48353	0.65498	1.209
Mof_Zn	Zn	0.20947	0.39993	0.59855	1.154
Mof_Zn	Zn	0.21308	0.01647	0.34502	1.209
Mof_Zn	Zn	0.29053	0.60007	0.09855	1.153
Mof_Zn	Zn	0.28692	0.98353	0.84502	1.209
Mof_H 	H 	0.2129	0.2818	0.8521	0.006
Mof_H 	H 	0.2	0.3552	0.0113	0.042
Mof_H 	H 	0.1934	0.4672	0.9532	0.015
Mof_H 	H 	0.917	0.0534	0.1394	0.01
Mof_H 	H 	0.9025	0.0547	0.3036	0.027
Mof_H 	H 	0.7698	0.037	0.2578	0.02
Mof_H 	H 	0.2871	0.7182	0.3521	0.006
Mof_H 	H 	0.3	0.6448	0.5113	0.043
Mof_H 	H 	0.3066	0.5328	0.4532	0.014
Mof_H 	H 	0.583	0.9466	0.6394	0.01
Mof_H 	H 	0.5975	0.9453	0.8036	0.027
Mof_H 	H 	0.7302	0.963	0.7578	0.02
Mof_H 	H 	0.7871	0.7818	0.6479	0.006
Mof_H 	H 	0.8	0.8552	0.4887	0.043
Mof_H 	H 	0.8066	0.9672	0.5468	0.014
Mof_H 	H 	0.083	0.5534	0.3606	0.01
Mof_H 	H 	0.0975	0.5547	0.1964	0.026
Mof_H 	H 	0.2302	0.537	0.2422	0.02
Mof_H 	H 	0.7129	0.2182	0.1479	0.006
Mof_H 	H 	0.7	0.1448	0.9887	0.045
Mof_H 	H 	0.6934	0.0328	0.0468	0.013
Mof_H 	H 	0.417	0.4466	0.8606	0.01
Mof_H 	H 	0.4025	0.4453	0.6964	0.027
Mof_H 	H 	0.2698	0.463	0.7422	0.02
Mof_H 	H 	0.7871	0.7182	0.1479	0.006
Mof_H 	H 	0.8	0.6448	0.9887	0.042
Mof_H 	H 	0.8066	0.5328	0.0468	0.015
Mof_H 	H 	0.083	0.9466	0.8606	0.01
Mof_H 	H 	0.0975	0.9453	0.6964	0.027
Mof_H 	H 	0.2302	0.963	0.7422	0.02
Mof_H 	H 	0.7129	0.2818	0.6479	0.006
Mof_H 	H 	0.7	0.3552	0.4887	0.043
Mof_H 	H 	0.6934	0.4672	0.5468	0.014
Mof_H 	H 	0.417	0.0534	0.3606	0.01
Mof_H 	H 	0.4025	0.0547	0.1964	0.027
Mof_H 	H 	0.2698	0.037	0.2422	0.02
Mof_H 	H 	0.2129	0.2182	0.3521	0.006
Mof_H 	H 	0.2	0.1448	0.5113	0.043
Mof_H 	H 	0.1934	0.0328	0.4532	0.014
Mof_H 	H 	0.917	0.4466	0.6394	0.01
Mof_H 	H 	0.9025	0.4453	0.8036	0.026
Mof_H 	H 	0.7698	0.463	0.7578	0.02
Mof_H 	H 	0.2871	0.7818	0.8521	0.006
Mof_H 	H 	0.3	0.8552	0.0113	0.045
Mof_H 	H 	0.3066	0.9672	0.9532	0.013
Mof_H 	H 	0.583	0.5534	0.1394	0.01
Mof_H 	H 	0.5975	0.5547	0.3036	0.027
Mof_H 	H 	0.7302	0.537	0.2578	0.02
Mof_C 	C 	0.2112	0.2966	0.8846	0.055
Mof_C 	C 	0.2165	0.2247	0.9178	-0.079
Mof_C 	C 	0.2156	0.2475	0.9667	-0.018
Mof_C 	C 	0.2045	0.3385	0.9791	-0.065
Mof_C 	C 	0.1997	0.4056	0.944	0.035
Mof_C 	C 	0.2207	0.1264	0.8997	0.339
Mof_C 	C 	0.2366	0.1747	0.0047	0.325
Mof_C 	C 	0.9146	0.0533	0.1728	0.057
Mof_C 	C 	0.998	0.065	0.1982	-0.076
Mof_C 	C 	0.9946	0.0649	0.2484	-0.018
Mof_C 	C 	0.9072	0.0544	0.2703	-0.054
Mof_C 	C 	0.8276	0.0435	0.2426	0.025
Mof_C 	C 	0.0888	0.0698	0.1708	0.32
Mof_C 	C 	0.0821	0.0794	0.2783	0.32
Mof_C 	C 	0.2888	0.7034	0.3846	0.055
Mof_C 	C 	0.2835	0.7753	0.4178	-0.078
Mof_C 	C 	0.2844	0.7525	0.4667	-0.02
Mof_C 	C 	0.2955	0.6615	0.4791	-0.067
Mof_C 	C 	0.3003	0.5944	0.444	0.036
Mof_C 	C 	0.2793	0.8736	0.3997	0.339
Mof_C 	C 	0.2634	0.8253	0.5047	0.329
Mof_C 	C 	0.5854	0.9467	0.6728	0.057
Mof_C 	C 	0.502	0.935	0.6982	-0.076
Mof_C 	C 	0.5054	0.9351	0.7484	-0.018
Mof_C 	C 	0.5928	0.9456	0.7703	-0.054
Mof_C 	C 	0.6724	0.9565	0.7426	0.025
Mof_C 	C 	0.4112	0.9302	0.6708	0.321
Mof_C 	C 	0.4179	0.9206	0.7783	0.321
Mof_C 	C 	0.7888	0.7966	0.6154	0.055
Mof_C 	C 	0.7835	0.7247	0.5822	-0.078
Mof_C 	C 	0.7844	0.7475	0.5333	-0.02
Mof_C 	C 	0.7955	0.8385	0.5209	-0.067
Mof_C 	C 	0.8003	0.9056	0.556	0.036
Mof_C 	C 	0.7793	0.6264	0.6003	0.339
Mof_C 	C 	0.7634	0.6747	0.4953	0.329
Mof_C 	C 	0.0854	0.5533	0.3272	0.057
Mof_C 	C 	0.002	0.565	0.3018	-0.076
Mof_C 	C 	0.0054	0.5649	0.2516	-0.019
Mof_C 	C 	0.0928	0.5544	0.2297	-0.053
Mof_C 	C 	0.1724	0.5435	0.2574	0.025
Mof_C 	C 	0.9112	0.5698	0.3292	0.321
Mof_C 	C 	0.9179	0.5794	0.2217	0.321
Mof_C 	C 	0.7112	0.2034	0.1154	0.055
Mof_C 	C 	0.7165	0.2753	0.0822	-0.079
Mof_C 	C 	0.7156	0.2525	0.0333	-0.019
Mof_C 	C 	0.7045	0.1615	0.0209	-0.07
Mof_C 	C 	0.6997	0.0944	0.056	0.037
Mof_C 	C 	0.7207	0.3736	0.1003	0.339
Mof_C 	C 	0.7366	0.3253	0.9953	0.329
Mof_C 	C 	0.4146	0.4467	0.8272	0.057
Mof_C 	C 	0.498	0.435	0.8018	-0.076
Mof_C 	C 	0.4946	0.4351	0.7516	-0.018
Mof_C 	C 	0.4072	0.4456	0.7297	-0.054
Mof_C 	C 	0.3276	0.4565	0.7574	0.025
Mof_C 	C 	0.5888	0.4302	0.8292	0.321
Mof_C 	C 	0.5821	0.4206	0.7217	0.321
Mof_C 	C 	0.7888	0.7034	0.1154	0.055
Mof_C 	C 	0.7835	0.7753	0.0822	-0.079
Mof_C 	C 	0.7844	0.7525	0.0333	-0.018
Mof_C 	C 	0.7955	0.6615	0.0209	-0.065
Mof_C 	C 	0.8003	0.5944	0.056	0.035
Mof_C 	C 	0.7793	0.8736	0.1003	0.339
Mof_C 	C 	0.7634	0.8253	0.9953	0.325
Mof_C 	C 	0.0854	0.9467	0.8272	0.057
Mof_C 	C 	0.002	0.935	0.8018	-0.076
Mof_C 	C 	0.0054	0.9351	0.7516	-0.018
Mof_C 	C 	0.0928	0.9456	0.7297	-0.054
Mof_C 	C 	0.1724	0.9565	0.7574	0.025
Mof_C 	C 	0.9112	0.9302	0.8292	0.32
Mof_C 	C 	0.9179	0.9206	0.7217	0.32
Mof_C 	C 	0.7112	0.2966	0.6154	0.055
Mof_C 	C 	0.7165	0.2247	0.5822	-0.078
Mof_C 	C 	0.7156	0.2475	0.5333	-0.02
Mof_C 	C 	0.7045	0.3385	0.5209	-0.067
Mof_C 	C 	0.6997	0.4056	0.556	0.036
Mof_C 	C 	0.7207	0.1264	0.6003	0.339
Mof_C 	C 	0.7366	0.1747	0.4953	0.329
Mof_C 	C 	0.4146	0.0533	0.3272	0.057
Mof_C 	C 	0.498	0.065	0.3018	-0.076
Mof_C 	C 	0.4946	0.0649	0.2516	-0.018
Mof_C 	C 	0.4072	0.0544	0.2297	-0.054
Mof_C 	C 	0.3276	0.0435	0.2574	0.025
Mof_C 	C 	0.5888	0.0698	0.3292	0.321
Mof_C 	C 	0.5821	0.0794	0.2217	0.321
Mof_C 	C 	0.2112	0.2034	0.3846	0.055
Mof_C 	C 	0.2165	0.2753	0.4178	-0.078
Mof_C 	C 	0.2156	0.2525	0.4667	-0.02
Mof_C 	C 	0.2045	0.1615	0.4791	-0.067
Mof_C 	C 	0.1997	0.0944	0.444	0.036
Mof_C 	C 	0.2207	0.3736	0.3997	0.339
Mof_C 	C 	0.2366	0.3253	0.5047	0.329
Mof_C 	C 	0.9146	0.4467	0.6728	0.057
Mof_C 	C 	0.998	0.435	0.6982	-0.076
Mof_C 	C 	0.9946	0.4351	0.7484	-0.019
Mof_C 	C 	0.9072	0.4456	0.7703	-0.053
Mof_C 	C 	0.8276	0.4565	0.7426	0.025
Mof_C 	C 	0.0888	0.4302	0.6708	0.321
Mof_C 	C 	0.0821	0.4206	0.7783	0.321
Mof_C 	C 	0.2888	0.7966	0.8846	0.055
Mof_C 	C 	0.2835	0.7247	0.9178	-0.079
Mof_C 	C 	0.2844	0.7475	0.9667	-0.019
Mof_C 	C 	0.2955	0.8385	0.9791	-0.07
Mof_C 	C 	0.3003	0.9056	0.944	0.037
Mof_C 	C 	0.2793	0.6264	0.8997	0.339
Mof_C 	C 	0.2634	0.6747	0.0047	0.329
Mof_C 	C 	0.5854	0.5533	0.1728	0.057
Mof_C 	C 	0.502	0.565	0.1982	-0.076
Mof_C 	C 	0.5054	0.5649	0.2484	-0.018
Mof_C 	C 	0.5928	0.5544	0.2703	-0.054
Mof_C 	C 	0.6724	0.5435	0.2426	0.025
Mof_C 	C 	0.4112	0.5698	0.1708	0.321
Mof_C 	C 	0.4179	0.5794	0.2783	0.321
Mof_N 	N 	0.2039	0.3855	0.897	-0.259
Mof_N 	N 	0.8307	0.0418	0.19419	-0.253
Mof_N 	N 	0.2961	0.6145	0.397	-0.259
Mof_N 	N 	0.6693	0.9582	0.69419	-0.253
Mof_N 	N 	0.7961	0.8855	0.603	-0.26
Mof_N 	N 	0.1693	0.5418	0.30581	-0.253
Mof_N 	N 	0.7039	0.1145	0.103	-0.26
Mof_N 	N 	0.3307	0.4582	0.80581	-0.253
Mof_N 	N 	0.7961	0.6145	0.103	-0.259
Mof_N 	N 	0.1693	0.9582	0.80581	-0.253
Mof_N 	N 	0.7039	0.3855	0.603	-0.259
Mof_N 	N 	0.3307	0.0418	0.30581	-0.253
Mof_N 	N 	0.2039	0.1145	0.397	-0.26
Mof_N 	N 	0.8307	0.4582	0.69419	-0.253
Mof_N 	N 	0.2961	0.8855	0.897	-0.26
Mof_N 	N 	0.6693	0.5418	0.19419	-0.253
Mof_O 	O 	0.2861	0.1094	0.8698	-0.448
Mof_O 	O 	0.1614	0.0707	0.91352	-0.315
Mof_O 	O 	0.2961	0.116	0.99614	-0.324
Mof_O 	O 	0.1895	0.1832	0.04277	-0.481
Mof_O 	O 	0.1013	0.01	0.30533	-0.449
Mof_O 	O 	0.1247	0.1519	0.27655	-0.306
Mof_O 	O 	0.1583	0.0267	0.18566	-0.355
Mof_O 	O 	0.0882	0.1191	0.13311	-0.459
Mof_O 	O 	0.2139	0.8906	0.3698	-0.448
Mof_O 	O 	0.3386	0.9293	0.41352	-0.316
Mof_O 	O 	0.2039	0.884	0.49614	-0.326
Mof_O 	O 	0.3105	0.8168	0.54277	-0.481
Mof_O 	O 	0.3987	0.99	0.80533	-0.449
Mof_O 	O 	0.3753	0.8481	0.77655	-0.306
Mof_O 	O 	0.3417	0.9733	0.68566	-0.355
Mof_O 	O 	0.4118	0.8809	0.63311	-0.459
Mof_O 	O 	0.7139	0.6094	0.6302	-0.448
Mof_O 	O 	0.8386	0.5707	0.58648	-0.317
Mof_O 	O 	0.7039	0.616	0.50386	-0.326
Mof_O 	O 	0.8105	0.6832	0.45723	-0.481
Mof_O 	O 	0.8987	0.51	0.19467	-0.449
Mof_O 	O 	0.8753	0.6519	0.22345	-0.306
Mof_O 	O 	0.8417	0.5267	0.31434	-0.355
Mof_O 	O 	0.9118	0.6191	0.36689	-0.459
Mof_O 	O 	0.7861	0.3906	0.1302	-0.448
Mof_O 	O 	0.6614	0.4293	0.08648	-0.317
Mof_O 	O 	0.7961	0.384	0.00386	-0.326
Mof_O 	O 	0.6895	0.3168	0.95723	-0.481
Mof_O 	O 	0.6013	0.49	0.69467	-0.449
Mof_O 	O 	0.6247	0.3481	0.72345	-0.305
Mof_O 	O 	0.6583	0.4733	0.81434	-0.355
Mof_O 	O 	0.5882	0.3809	0.86689	-0.459
Mof_O 	O 	0.7139	0.8906	0.1302	-0.448
Mof_O 	O 	0.8386	0.9293	0.08648	-0.315
Mof_O 	O 	0.7039	0.884	0.00386	-0.324
Mof_O 	O 	0.8105	0.8168	0.95723	-0.481
Mof_O 	O 	0.8987	0.99	0.69467	-0.449
Mof_O 	O 	0.8753	0.8481	0.72345	-0.306
Mof_O 	O 	0.8417	0.9733	0.81434	-0.355
Mof_O 	O 	0.9118	0.8809	0.86689	-0.459
Mof_O 	O 	0.7861	0.1094	0.6302	-0.448
Mof_O 	O 	0.6614	0.0707	0.58648	-0.316
Mof_O 	O 	0.7961	0.116	0.50386	-0.326
Mof_O 	O 	0.6895	0.1832	0.45723	-0.481
Mof_O 	O 	0.6013	0.01	0.19467	-0.449
Mof_O 	O 	0.6247	0.1519	0.22345	-0.306
Mof_O 	O 	0.6583	0.0267	0.31434	-0.355
Mof_O 	O 	0.5882	0.1191	0.36689	-0.459
Mof_O 	O 	0.2861	0.3906	0.3698	-0.448
Mof_O 	O 	0.1614	0.4293	0.41352	-0.317
Mof_O 	O 	0.2961	0.384	0.49614	-0.326
Mof_O 	O 	0.1895	0.3168	0.54277	-0.481
Mof_O 	O 	0.1013	0.49	0.80533	-0.449
Mof_O 	O 	0.1247	0.3481	0.77655	-0.306
Mof_O 	O 	0.1583	0.4733	0.68566	-0.355
Mof_O 	O 	0.0882	0.3809	0.63311	-0.459
Mof_O 	O 	0.2139	0.6094	0.8698	-0.448
Mof_O 	O 	0.3386	0.5707	0.91352	-0.317
Mof_O 	O 	0.2039	0.616	0.99614	-0.326
Mof_O 	O 	0.3105	0.6832	0.04277	-0.481
Mof_O 	O 	0.3987	0.51	0.30533	-0.449
Mof_O 	O 	0.3753	0.6519	0.27655	-0.305
Mof_O 	O 	0.3417	0.5267	0.18566	-0.355
Mof_O 	O 	0.4118	0.6191	0.13311	-0.459
_end
