data_functionalizedCrystal
_audit_creation_method	'EQeq! by Chris Wilmer'
_symmetry_space_group_name_H-M	'P1'
_symmetry_Int_Tables_number	1
_symmetry_cell_setting	triclinic
loop_
_symmetry_equiv_pos_as_xyz
  x,y,z
_cell_length_a	15.3661
_cell_length_b	15.3661
_cell_length_c	15.3661
_cell_angle_alpha	60
_cell_angle_beta	60
_cell_angle_gamma	60
loop_
_atom_site_label
_atom_site_type_symbol
_atom_site_fract_x
_atom_site_fract_y
_atom_site_fract_z
_atom_site_charge
Mof_Co	Co	0.0233	0.6589	0.6589	1.158
Mof_Co	Co	0.6589	0.0233	0.6589	1.158
Mof_Co	Co	0.6589	0.6589	0.0233	1.158
Mof_Co	Co	0.6589	0.6589	0.6589	1.16
Mof_Co	Co	0.3411	0.9767	0.3411	1.158
Mof_Co	Co	0.9767	0.3411	0.3411	1.158
Mof_Co	Co	0.3411	0.3411	0.9767	1.159
Mof_Co	Co	0.3411	0.3411	0.3411	1.161
Mof_H 	H 	0.1604	0.8396	0.5	0.129
Mof_H 	H 	0.8396	0.1604	0.5	0.129
Mof_H 	H 	0.5	0.5	0.1604	0.125
Mof_H 	H 	0.5	0.5	0.8396	0.125
Mof_H 	H 	0.1604	0.5	0.5	0.125
Mof_H 	H 	0.8396	0.5	0.5	0.125
Mof_H 	H 	0.5	0.1604	0.8396	0.129
Mof_H 	H 	0.5	0.8396	0.1604	0.129
Mof_H 	H 	0.1604	0.5	0.8396	0.129
Mof_H 	H 	0.8396	0.5	0.1604	0.129
Mof_H 	H 	0.5	0.8396	0.5	0.125
Mof_H 	H 	0.5	0.1604	0.5	0.125
Mof_C 	C 	0.9956	0.8992	0.5526	0.1
Mof_C 	C 	0.8992	0.9956	0.5526	0.1
Mof_C 	C 	0.5526	0.5526	0.9956	0.093
Mof_C 	C 	0.5526	0.5526	0.8992	0.092
Mof_C 	C 	0.9956	0.5526	0.5526	0.093
Mof_C 	C 	0.8992	0.5526	0.5526	0.092
Mof_C 	C 	0.5526	0.9956	0.8992	0.1
Mof_C 	C 	0.5526	0.8992	0.9956	0.1
Mof_C 	C 	0.9956	0.5526	0.8992	0.1
Mof_C 	C 	0.8992	0.5526	0.9956	0.1
Mof_C 	C 	0.5526	0.8992	0.5526	0.092
Mof_C 	C 	0.5526	0.9956	0.5526	0.093
Mof_C 	C 	0.1008	0.0044	0.4474	0.1
Mof_C 	C 	0.0044	0.1008	0.4474	0.1
Mof_C 	C 	0.4474	0.4474	0.0044	0.093
Mof_C 	C 	0.4474	0.4474	0.1008	0.092
Mof_C 	C 	0.4474	0.0044	0.4474	0.093
Mof_C 	C 	0.4474	0.1008	0.4474	0.092
Mof_C 	C 	0.0044	0.4474	0.1008	0.1
Mof_C 	C 	0.1008	0.4474	0.0044	0.1
Mof_C 	C 	0.4474	0.0044	0.1008	0.1
Mof_C 	C 	0.4474	0.1008	0.0044	0.1
Mof_C 	C 	0.1008	0.4474	0.4474	0.092
Mof_C 	C 	0.0044	0.4474	0.4474	0.093
Mof_C 	C 	0.0998	0.9002	0.5	-0.21
Mof_C 	C 	0.9002	0.0998	0.5	-0.21
Mof_C 	C 	0.5	0.5	0.0998	-0.196
Mof_C 	C 	0.5	0.5	0.9002	-0.196
Mof_C 	C 	0.0998	0.5	0.5	-0.196
Mof_C 	C 	0.9002	0.5	0.5	-0.196
Mof_C 	C 	0.5	0.0998	0.9002	-0.21
Mof_C 	C 	0.5	0.9002	0.0998	-0.21
Mof_C 	C 	0.0998	0.5	0.9002	-0.21
Mof_C 	C 	0.9002	0.5	0.0998	-0.21
Mof_C 	C 	0.5	0.9002	0.5	-0.196
Mof_C 	C 	0.5	0.0998	0.5	-0.196
Mof_N 	N 	0.9603	0.8151	0.6123	-0.227
Mof_N 	N 	0.8151	0.9603	0.6123	-0.227
Mof_N 	N 	0.6123	0.6123	0.9603	-0.227
Mof_N 	N 	0.6123	0.6123	0.8151	-0.228
Mof_N 	N 	0.9603	0.6123	0.6123	-0.227
Mof_N 	N 	0.8151	0.6123	0.6123	-0.228
Mof_N 	N 	0.6123	0.9603	0.8151	-0.227
Mof_N 	N 	0.6123	0.8151	0.9603	-0.227
Mof_N 	N 	0.9603	0.6123	0.8151	-0.227
Mof_N 	N 	0.8151	0.6123	0.9603	-0.227
Mof_N 	N 	0.6123	0.8151	0.6123	-0.228
Mof_N 	N 	0.6123	0.9603	0.6123	-0.227
Mof_N 	N 	0.1849	0.0397	0.3877	-0.227
Mof_N 	N 	0.0397	0.1849	0.3877	-0.227
Mof_N 	N 	0.3877	0.3877	0.0397	-0.227
Mof_N 	N 	0.3877	0.3877	0.1849	-0.228
Mof_N 	N 	0.3877	0.0397	0.3877	-0.227
Mof_N 	N 	0.3877	0.1849	0.3877	-0.228
Mof_N 	N 	0.0397	0.3877	0.1849	-0.227
Mof_N 	N 	0.1849	0.3877	0.0397	-0.227
Mof_N 	N 	0.3877	0.0397	0.1849	-0.227
Mof_N 	N 	0.3877	0.1849	0.0397	-0.227
Mof_N 	N 	0.1849	0.3877	0.3877	-0.228
Mof_N 	N 	0.0397	0.3877	0.3877	-0.227
Mof_N 	N 	0.85536	0.85536	0.64464	-0.084
Mof_N 	N 	0.64464	0.64464	0.85536	-0.084
Mof_N 	N 	0.85536	0.64464	0.64464	-0.084
Mof_N 	N 	0.64464	0.85536	0.85536	-0.084
Mof_N 	N 	0.85536	0.64464	0.85536	-0.084
Mof_N 	N 	0.64464	0.85536	0.64464	-0.084
Mof_N 	N 	0.14464	0.14464	0.35536	-0.084
Mof_N 	N 	0.35536	0.35536	0.14464	-0.084
Mof_N 	N 	0.35536	0.14464	0.35536	-0.084
Mof_N 	N 	0.14464	0.35536	0.14464	-0.084
Mof_N 	N 	0.35536	0.14464	0.14464	-0.084
Mof_N 	N 	0.14464	0.35536	0.35536	-0.084
Mof_Cl	Cl	0.1838	0.6054	0.6054	-0.526
Mof_Cl	Cl	0.6054	0.1838	0.6054	-0.526
Mof_Cl	Cl	0.6054	0.6054	0.1838	-0.526
Mof_Cl	Cl	0.6054	0.6054	0.6054	-0.525
Mof_Cl	Cl	0.3946	0.8162	0.3946	-0.526
Mof_Cl	Cl	0.8162	0.3946	0.3946	-0.526
Mof_Cl	Cl	0.3946	0.3946	0.8162	-0.526
Mof_Cl	Cl	0.3946	0.3946	0.3946	-0.525
_end
