# CIF file generated by openbabel 3.1.0, see https://openbabel.org
data_I
_chemical_name_common 'image0'
_cell_length_a 25.8735
_cell_length_b 25.8735
_cell_length_c 6.8486
_cell_angle_alpha 90
_cell_angle_beta 90
_cell_angle_gamma 120
_space_group_name_H-M_alt 'P 1'
_space_group_name_Hall 'P 1'
loop_
    _symmetry_equiv_pos_as_xyz
    x,y,z
loop_
    _atom_site_label
    _atom_site_type_symbol
    _atom_site_fract_x
    _atom_site_fract_y
    _atom_site_fract_z
    _atom_site_occupancy
    Co1      Co       0.37860    0.34900    0.15100    1.000
    O1       O        0.32870    0.29590    0.36370    1.000
    O2       O        0.30260    0.22910    0.59870    1.000
    O3       O        0.35770    0.27580    0.00220    1.000
    C1       C        0.31910    0.24760    0.42860    1.000
    C2       C        0.32820    0.20690    0.28980    1.000
    C3       C        0.34650    0.22390    0.09080    1.000
    C4       C        0.35060    0.18160    0.97560    1.000
    H1       H        0.35770    0.19130    0.83200    1.000
    Co2      Co       0.04527    0.68233    0.48433    1.000
    O4       O        0.99537    0.62923    0.69703    1.000
    O5       O        0.96927    0.56243    0.93203    1.000
    O6       O        0.02437    0.60913    0.33553    1.000
    C5       C        0.98577    0.58093    0.76193    1.000
    C6       C        0.99487    0.54023    0.62313    1.000
    C7       C        0.01317    0.55723    0.42413    1.000
    C8       C        0.01727    0.51493    0.30893    1.000
    H2       H        0.02437    0.52463    0.16533    1.000
    Co3      Co       0.71193    0.01567    0.81767    1.000
    O7       O        0.66203    0.96257    0.03037    1.000
    O8       O        0.63593    0.89577    0.26537    1.000
    O9       O        0.69103    0.94247    0.66887    1.000
    C9       C        0.65243    0.91427    0.09527    1.000
    C10      C        0.66153    0.87357    0.95647    1.000
    C11      C        0.67983    0.89057    0.75747    1.000
    C12      C        0.68393    0.84827    0.64227    1.000
    H3       H        0.69103    0.85797    0.49867    1.000
    Co4      Co       0.65100    0.02960    0.15100    1.000
    O10      O        0.70410    0.03280    0.36370    1.000
    O11      O        0.77090    0.07350    0.59870    1.000
    O12      O        0.72420    0.08190    0.00220    1.000
    C13      C        0.75240    0.07150    0.42860    1.000
    C14      C        0.79310    0.12130    0.28980    1.000
    C15      C        0.77610    0.12260    0.09080    1.000
    C16      C        0.81840    0.16900    0.97560    1.000
    H4       H        0.80870    0.16640    0.83200    1.000
    Co5      Co       0.31767    0.36293    0.48433    1.000
    O13      O        0.37077    0.36613    0.69703    1.000
    O14      O        0.43757    0.40683    0.93203    1.000
    O15      O        0.39087    0.41523    0.33553    1.000
    C17      C        0.41907    0.40483    0.76193    1.000
    C18      C        0.45977    0.45463    0.62313    1.000
    C19      C        0.44277    0.45593    0.42413    1.000
    C20      C        0.48507    0.50233    0.30893    1.000
    H5       H        0.47537    0.49973    0.16533    1.000
    Co6      Co       0.98433    0.69627    0.81767    1.000
    O16      O        0.03743    0.69947    0.03037    1.000
    O17      O        0.10423    0.74017    0.26537    1.000
    O18      O        0.05753    0.74857    0.66887    1.000
    C21      C        0.08573    0.73817    0.09527    1.000
    C22      C        0.12643    0.78797    0.95647    1.000
    C23      C        0.10943    0.78927    0.75747    1.000
    C24      C        0.15173    0.83567    0.64227    1.000
    H6       H        0.14203    0.83307    0.49867    1.000
    Co7      Co       0.97040    0.62140    0.15100    1.000
    O19      O        0.96720    0.67130    0.36370    1.000
    O20      O        0.92650    0.69740    0.59870    1.000
    O21      O        0.91810    0.64230    0.00220    1.000
    C25      C        0.92850    0.68090    0.42860    1.000
    C26      C        0.87870    0.67180    0.28980    1.000
    C27      C        0.87740    0.65350    0.09080    1.000
    C28      C        0.83100    0.64940    0.97560    1.000
    H7       H        0.83360    0.64230    0.83200    1.000
    Co8      Co       0.63707    0.95473    0.48433    1.000
    O22      O        0.63387    0.00463    0.69703    1.000
    O23      O        0.59317    0.03073    0.93203    1.000
    O24      O        0.58477    0.97563    0.33553    1.000
    C29      C        0.59517    0.01423    0.76193    1.000
    C30      C        0.54537    0.00513    0.62313    1.000
    C31      C        0.54407    0.98683    0.42413    1.000
    C32      C        0.49767    0.98273    0.30893    1.000
    H8       H        0.50027    0.97563    0.16533    1.000
    Co9      Co       0.30373    0.28807    0.81767    1.000
    O25      O        0.30053    0.33797    0.03037    1.000
    O26      O        0.25983    0.36407    0.26537    1.000
    O27      O        0.25143    0.30897    0.66887    1.000
    C33      C        0.26183    0.34757    0.09527    1.000
    C34      C        0.21203    0.33847    0.95647    1.000
    C35      C        0.21073    0.32017    0.75747    1.000
    C36      C        0.16433    0.31607    0.64227    1.000
    H9       H        0.16693    0.30897    0.49867    1.000
    Co10     Co       0.62140    0.65100    0.84900    1.000
    O28      O        0.67130    0.70410    0.63630    1.000
    O29      O        0.69740    0.77090    0.40130    1.000
    O30      O        0.64230    0.72420    0.99780    1.000
    C37      C        0.68090    0.75240    0.57140    1.000
    C38      C        0.67180    0.79310    0.71020    1.000
    C39      C        0.65350    0.77610    0.90920    1.000
    C40      C        0.64940    0.81840    0.02440    1.000
    H10      H        0.64230    0.80870    0.16800    1.000
    Co11     Co       0.28807    0.98433    0.18233    1.000
    O31      O        0.33797    0.03743    0.96963    1.000
    O32      O        0.36407    0.10423    0.73463    1.000
    O33      O        0.30897    0.05753    0.33113    1.000
    C41      C        0.34757    0.08573    0.90473    1.000
    C42      C        0.33847    0.12643    0.04353    1.000
    C43      C        0.32017    0.10943    0.24253    1.000
    C44      C        0.31607    0.15173    0.35773    1.000
    H11      H        0.30897    0.14203    0.50133    1.000
    Co12     Co       0.95473    0.31767    0.51567    1.000
    O34      O        0.00463    0.37077    0.30297    1.000
    O35      O        0.03073    0.43757    0.06797    1.000
    O36      O        0.97563    0.39087    0.66447    1.000
    C45      C        0.01423    0.41907    0.23807    1.000
    C46      C        0.00513    0.45977    0.37687    1.000
    C47      C        0.98683    0.44277    0.57587    1.000
    C48      C        0.98273    0.48507    0.69107    1.000
    H12      H        0.97563    0.47537    0.83467    1.000
    Co13     Co       0.34900    0.97040    0.84900    1.000
    O37      O        0.29590    0.96720    0.63630    1.000
    O38      O        0.22910    0.92650    0.40130    1.000
    O39      O        0.27580    0.91810    0.99780    1.000
    C49      C        0.24760    0.92850    0.57140    1.000
    C50      C        0.20690    0.87870    0.71020    1.000
    C51      C        0.22390    0.87740    0.90920    1.000
    C52      C        0.18160    0.83100    0.02440    1.000
    H13      H        0.19130    0.83360    0.16800    1.000
    Co14     Co       0.01567    0.30373    0.18233    1.000
    O40      O        0.96257    0.30053    0.96963    1.000
    O41      O        0.89577    0.25983    0.73463    1.000
    O42      O        0.94247    0.25143    0.33113    1.000
    C53      C        0.91427    0.26183    0.90473    1.000
    C54      C        0.87357    0.21203    0.04353    1.000
    C55      C        0.89057    0.21073    0.24253    1.000
    C56      C        0.84827    0.16433    0.35773    1.000
    H14      H        0.85797    0.16693    0.50133    1.000
    Co15     Co       0.68233    0.63707    0.51567    1.000
    O43      O        0.62923    0.63387    0.30297    1.000
    O44      O        0.56243    0.59317    0.06797    1.000
    O45      O        0.60913    0.58477    0.66447    1.000
    C57      C        0.58093    0.59517    0.23807    1.000
    C58      C        0.54023    0.54537    0.37687    1.000
    C59      C        0.55723    0.54407    0.57587    1.000
    C60      C        0.51493    0.49767    0.69107    1.000
    H15      H        0.52463    0.50027    0.83467    1.000
    Co16     Co       0.02960    0.37860    0.84900    1.000
    O46      O        0.03280    0.32870    0.63630    1.000
    O47      O        0.07350    0.30260    0.40130    1.000
    O48      O        0.08190    0.35770    0.99780    1.000
    C61      C        0.07150    0.31910    0.57140    1.000
    C62      C        0.12130    0.32820    0.71020    1.000
    C63      C        0.12260    0.34650    0.90920    1.000
    C64      C        0.16900    0.35060    0.02440    1.000
    H16      H        0.16640    0.35770    0.16800    1.000
    Co17     Co       0.69627    0.71193    0.18233    1.000
    O49      O        0.69947    0.66203    0.96963    1.000
    O50      O        0.74017    0.63593    0.73463    1.000
    O51      O        0.74857    0.69103    0.33113    1.000
    C65      C        0.73817    0.65243    0.90473    1.000
    C66      C        0.78797    0.66153    0.04353    1.000
    C67      C        0.78927    0.67983    0.24253    1.000
    C68      C        0.83567    0.68393    0.35773    1.000
    H17      H        0.83307    0.69103    0.50133    1.000
    Co18     Co       0.36293    0.04527    0.51567    1.000
    O52      O        0.36613    0.99537    0.30297    1.000
    O53      O        0.40683    0.96927    0.06797    1.000
    O54      O        0.41523    0.02437    0.66447    1.000
    C69      C        0.40483    0.98577    0.23807    1.000
    C70      C        0.45463    0.99487    0.37687    1.000
    C71      C        0.45593    0.01317    0.57587    1.000
    C72      C        0.50233    0.01727    0.69107    1.000
    H18      H        0.49973    0.02437    0.83467    1.000
