data_functionalizedCrystal
_audit_creation_method	'EQeq! by Chris Wilmer'
_symmetry_space_group_name_H-M	'P1'
_symmetry_Int_Tables_number	1
_symmetry_cell_setting	triclinic
loop_
_symmetry_equiv_pos_as_xyz
  x,y,z
_cell_length_a	35.7365
_cell_length_b	15.061
_cell_length_c	30.9345
_cell_angle_alpha	90
_cell_angle_beta	104.141
_cell_angle_gamma	90
loop_
_atom_site_label
_atom_site_type_symbol
_atom_site_fract_x
_atom_site_fract_y
_atom_site_fract_z
_atom_site_charge
Mof_I 	I 	0.48926	0.8798	0.37707	-1.33
Mof_Zn	Zn	0.43111	0.8931	0.40568	0.627
Mof_I 	I 	0.39773	0.76742	0.43531	0.12
Mof_N 	N 	0.3903	0.9514	0.3534	-0.294
Mof_C 	C 	0.3564	0.9151	0.332	0.047
Mof_H 	H 	0.3501	0.857	0.3398	-0.019
Mof_C 	C 	0.3298	0.9622	0.2975	-0.111
Mof_H 	H 	0.3055	0.9373	0.2831	0.073
Mof_C 	C 	0.3405	0.0445	0.2862	0.052
Mof_C 	C 	0.3763	0.082	0.308	-0.111
Mof_H 	H 	0.384	0.139	0.3003	0.091
Mof_C 	C 	0.3998	0.0309	0.3417	0.079
Mof_H 	H 	0.4241	0.0548	0.357	-0.004
Mof_C 	C 	0.3128	0.1001	0.2524	0.108
Mof_N 	N 	0.2829	0.0575	0.2261	-0.141
Mof_C 	C 	0.2601	0.1096	0.1951	0.087
Mof_N 	N 	0.2646	0.1975	0.191	-0.138
Mof_C 	C 	0.2949	0.2325	0.2202	0.105
Mof_N 	N 	0.3204	0.1856	0.2502	-0.134
Mof_N 	N 	0.3138	0.5126	0.2264	-0.276
Mof_C 	C 	0.282	0.4778	0.1993	0.076
Mof_H 	H 	0.2634	0.5169	0.182	-0.012
Mof_C 	C 	0.2755	0.3902	0.1957	-0.125
Mof_H 	H 	0.253	0.3688	0.1752	0.08
Mof_C 	C 	0.3017	0.3289	0.2218	0.062
Mof_C 	C 	0.3336	0.3659	0.2503	-0.131
Mof_H 	H 	0.3521	0.3295	0.2697	0.09
Mof_C 	C 	0.3381	0.4555	0.2502	0.085
Mof_H 	H 	0.361	0.4791	0.2691	-0.02
Mof_I 	I 	0.37408	0.67253	0.30508	-0.423
Mof_Zn	Zn	0.32674	0.64804	0.22962	1.163
Mof_I 	I 	0.2643	0.73501	0.20083	-0.376
Mof_N 	N 	0.1659	0.9741	0.1078	-0.273
Mof_C 	C 	0.1721	0.0616	0.1031	0.07
Mof_H 	H 	0.1553	0.092	0.0791	0.007
Mof_C 	C 	0.201	0.1093	0.1306	-0.122
Mof_H 	H 	0.2031	0.1716	0.1271	0.088
Mof_C 	C 	0.227	0.0634	0.1638	0.054
Mof_C 	C 	0.2216	0.9758	0.1689	-0.13
Mof_H 	H 	0.2388	0.9436	0.1917	0.094
Mof_C 	C 	0.1908	0.9329	0.1406	0.073
Mof_H 	H 	0.1873	0.8713	0.145	-0.003
Mof_I 	I 	0.13739	0.91645	0.98812	-0.36
Mof_I 	I 	0.10866	0.76664	0.10353	-0.374
Mof_Zn	Zn	0.1218	0.90777	0.06417	1.163
Mof_N 	N 	0.0748	0.9886	0.0622	-0.274
Mof_C 	C 	0.0593	0.992	0.0969	0.074
Mof_H 	H 	0.0706	0.9575	0.1225	-0.014
Mof_C 	C 	0.0275	0.0436	0.0977	-0.125
Mof_H 	H 	0.0166	0.0418	0.1228	0.082
Mof_C 	C 	0.0118	0.0969	0.0624	0.044
Mof_C 	C 	0.028	0.0946	0.0258	-0.13
Mof_H 	H 	0.0179	0.1305	0.0004	0.077
Mof_C 	C 	0.0581	0.0409	0.027	0.075
Mof_H 	H 	0.0685	0.0393	0.0015	-0.002
Mof_C 	C 	0.9796	0.1583	0.0625	0.084
Mof_N 	N 	0.9597	0.1475	0.094	-0.133
Mof_C 	C 	0.9309	0.2042	0.0925	0.117
Mof_N 	N 	0.9229	0.2739	0.0649	-0.122
Mof_C 	C 	0.9451	0.28	0.0359	0.101
Mof_N 	N 	0.9723	0.2218	0.032	-0.157
Mof_N 	N 	0.9357	0.5086	0.9515	-0.289
Mof_C 	C 	0.9653	0.4531	0.9565	0.06
Mof_H 	H 	0.9846	0.4648	0.9408	0.007
Mof_C 	C 	0.9692	0.3788	0.9836	-0.106
Mof_H 	H 	0.9908	0.3407	0.9867	0.057
Mof_C 	C 	0.9401	0.3602	0.0071	0.05
Mof_C 	C 	0.9107	0.4178	0.0024	-0.107
Mof_H 	H 	0.8909	0.4089	0.0176	0.084
Mof_C 	C 	0.9097	0.4919	0.9743	0.068
Mof_H 	H 	0.8889	0.5326	0.9716	-0.018
Mof_N 	N 	0.8586	0.1628	0.1825	-0.274
Mof_C 	C 	0.8478	0.2136	0.1465	0.079
Mof_H 	H 	0.823	0.2404	0.1405	-0.01
Mof_C 	C 	0.8706	0.2293	0.1175	-0.117
Mof_H 	H 	0.8618	0.268	0.0929	0.089
Mof_C 	C 	0.9064	0.1889	0.1239	0.073
Mof_C 	C 	0.918	0.1343	0.1598	-0.117
Mof_H 	H 	0.9423	0.1055	0.1658	0.086
Mof_C 	C 	0.8931	0.122	0.1876	0.072
Mof_H 	H 	0.9009	0.0819	0.2119	-0.013
Mof_I 	I 	0.3855	0.7638	0.4431	-0.535
Mof_I 	I 	0.4737	0.8534	0.3837	0.915
Mof_Zn	Zn	0.4202	0.8763	0.4071	0.648
Mof_I 	I 	0.98926	0.3798	0.37707	-1.329
Mof_Zn	Zn	0.93111	0.3931	0.40568	0.628
Mof_I 	I 	0.89773	0.26742	0.43531	0.121
Mof_N 	N 	0.8903	0.4514	0.3534	-0.293
Mof_C 	C 	0.8564	0.4151	0.332	0.048
Mof_H 	H 	0.8501	0.357	0.3398	-0.018
Mof_C 	C 	0.8298	0.4622	0.2975	-0.11
Mof_H 	H 	0.8055	0.4373	0.2831	0.074
Mof_C 	C 	0.8405	0.5445	0.2862	0.053
Mof_C 	C 	0.8763	0.582	0.308	-0.11
Mof_H 	H 	0.884	0.639	0.3003	0.092
Mof_C 	C 	0.8998	0.5309	0.3417	0.08
Mof_H 	H 	0.9241	0.5548	0.357	-0.003
Mof_C 	C 	0.8128	0.6001	0.2524	0.109
Mof_N 	N 	0.7829	0.5575	0.2261	-0.14
Mof_C 	C 	0.7601	0.6096	0.1951	0.088
Mof_N 	N 	0.7646	0.6975	0.191	-0.138
Mof_C 	C 	0.7949	0.7325	0.2202	0.105
Mof_N 	N 	0.8204	0.6856	0.2502	-0.134
Mof_N 	N 	0.8138	0.0126	0.2264	-0.275
Mof_C 	C 	0.782	0.9778	0.1993	0.076
Mof_H 	H 	0.7634	0.0169	0.182	-0.012
Mof_C 	C 	0.7755	0.8902	0.1957	-0.125
Mof_H 	H 	0.753	0.8688	0.1752	0.08
Mof_C 	C 	0.8017	0.8289	0.2218	0.062
Mof_C 	C 	0.8336	0.8659	0.2503	-0.131
Mof_H 	H 	0.8521	0.8295	0.2697	0.09
Mof_C 	C 	0.8381	0.9555	0.2502	0.085
Mof_H 	H 	0.861	0.9791	0.2691	-0.02
Mof_I 	I 	0.87408	0.17253	0.30508	-0.423
Mof_Zn	Zn	0.82674	0.14804	0.22962	1.163
Mof_I 	I 	0.7643	0.23501	0.20083	-0.376
Mof_N 	N 	0.6659	0.4741	0.1078	-0.273
Mof_C 	C 	0.6721	0.5616	0.1031	0.069
Mof_H 	H 	0.6553	0.592	0.0791	0.007
Mof_C 	C 	0.701	0.6093	0.1306	-0.122
Mof_H 	H 	0.7031	0.6716	0.1271	0.088
Mof_C 	C 	0.727	0.5634	0.1638	0.054
Mof_C 	C 	0.7216	0.4758	0.1689	-0.129
Mof_H 	H 	0.7388	0.4436	0.1917	0.094
Mof_C 	C 	0.6908	0.4329	0.1406	0.072
Mof_H 	H 	0.6873	0.3713	0.145	-0.003
Mof_I 	I 	0.63739	0.41645	0.98812	-0.36
Mof_I 	I 	0.60866	0.26664	0.10353	-0.374
Mof_Zn	Zn	0.6218	0.40777	0.06417	1.164
Mof_N 	N 	0.5748	0.4886	0.0622	-0.274
Mof_C 	C 	0.5593	0.492	0.0969	0.074
Mof_H 	H 	0.5706	0.4575	0.1225	-0.014
Mof_C 	C 	0.5275	0.5436	0.0977	-0.125
Mof_H 	H 	0.5166	0.5418	0.1228	0.083
Mof_C 	C 	0.5118	0.5969	0.0624	0.044
Mof_C 	C 	0.528	0.5946	0.0258	-0.13
Mof_H 	H 	0.5179	0.6305	0.0004	0.077
Mof_C 	C 	0.5581	0.5409	0.027	0.075
Mof_H 	H 	0.5685	0.5393	0.0015	-0.002
Mof_C 	C 	0.4796	0.6583	0.0625	0.084
Mof_N 	N 	0.4597	0.6475	0.094	-0.133
Mof_C 	C 	0.4309	0.7042	0.0925	0.117
Mof_N 	N 	0.4229	0.7739	0.0649	-0.122
Mof_C 	C 	0.4451	0.78	0.0359	0.101
Mof_N 	N 	0.4723	0.7218	0.032	-0.157
Mof_N 	N 	0.4357	0.0086	0.9515	-0.289
Mof_C 	C 	0.4653	0.9531	0.9565	0.06
Mof_H 	H 	0.4846	0.9648	0.9408	0.007
Mof_C 	C 	0.4692	0.8788	0.9836	-0.106
Mof_H 	H 	0.4908	0.8407	0.9867	0.057
Mof_C 	C 	0.4401	0.8602	0.0071	0.05
Mof_C 	C 	0.4107	0.9178	0.0024	-0.107
Mof_H 	H 	0.3909	0.9089	0.0176	0.084
Mof_C 	C 	0.4097	0.9919	0.9743	0.069
Mof_H 	H 	0.3889	0.0326	0.9716	-0.019
Mof_N 	N 	0.3586	0.6628	0.1825	-0.274
Mof_C 	C 	0.3478	0.7136	0.1465	0.079
Mof_H 	H 	0.323	0.7404	0.1405	-0.01
Mof_C 	C 	0.3706	0.7293	0.1175	-0.117
Mof_H 	H 	0.3618	0.768	0.0929	0.089
Mof_C 	C 	0.4064	0.6889	0.1239	0.073
Mof_C 	C 	0.418	0.6343	0.1598	-0.117
Mof_H 	H 	0.4423	0.6055	0.1658	0.086
Mof_C 	C 	0.3931	0.622	0.1876	0.072
Mof_H 	H 	0.4009	0.5819	0.2119	-0.013
Mof_I 	I 	0.8855	0.2638	0.4431	-0.535
Mof_I 	I 	0.9737	0.3534	0.3837	0.915
Mof_Zn	Zn	0.9202	0.3763	0.4071	0.648
Mof_I 	I 	0.48926	0.1202	0.87707	-1.329
Mof_Zn	Zn	0.43111	0.1069	0.90568	0.628
Mof_I 	I 	0.39773	0.23258	0.93531	0.121
Mof_N 	N 	0.3903	0.0486	0.8534	-0.293
Mof_C 	C 	0.3564	0.0849	0.832	0.048
Mof_H 	H 	0.3501	0.143	0.8398	-0.018
Mof_C 	C 	0.3298	0.0378	0.7975	-0.11
Mof_H 	H 	0.3055	0.0627	0.7831	0.074
Mof_C 	C 	0.3405	0.9555	0.7862	0.053
Mof_C 	C 	0.3763	0.918	0.808	-0.11
Mof_H 	H 	0.384	0.861	0.8003	0.092
Mof_C 	C 	0.3998	0.9691	0.8417	0.08
Mof_H 	H 	0.4241	0.9452	0.857	-0.003
Mof_C 	C 	0.3128	0.8999	0.7524	0.109
Mof_N 	N 	0.2829	0.9425	0.7261	-0.14
Mof_C 	C 	0.2601	0.8904	0.6951	0.088
Mof_N 	N 	0.2646	0.8025	0.691	-0.138
Mof_C 	C 	0.2949	0.7675	0.7202	0.105
Mof_N 	N 	0.3204	0.8144	0.7502	-0.134
Mof_N 	N 	0.3138	0.4874	0.7264	-0.276
Mof_C 	C 	0.282	0.5222	0.6993	0.076
Mof_H 	H 	0.2634	0.4831	0.682	-0.012
Mof_C 	C 	0.2755	0.6098	0.6957	-0.125
Mof_H 	H 	0.253	0.6312	0.6752	0.08
Mof_C 	C 	0.3017	0.6711	0.7218	0.062
Mof_C 	C 	0.3336	0.6341	0.7503	-0.131
Mof_H 	H 	0.3521	0.6705	0.7697	0.09
Mof_C 	C 	0.3381	0.5445	0.7502	0.085
Mof_H 	H 	0.361	0.5209	0.7691	-0.02
Mof_I 	I 	0.37408	0.32747	0.80508	-0.423
Mof_Zn	Zn	0.32674	0.35196	0.72962	1.163
Mof_I 	I 	0.2643	0.26499	0.70083	-0.376
Mof_N 	N 	0.1659	0.0259	0.6078	-0.273
Mof_C 	C 	0.1721	0.9384	0.6031	0.069
Mof_H 	H 	0.1553	0.908	0.5791	0.007
Mof_C 	C 	0.201	0.8907	0.6306	-0.122
Mof_H 	H 	0.2031	0.8284	0.6271	0.088
Mof_C 	C 	0.227	0.9366	0.6638	0.054
Mof_C 	C 	0.2216	0.0242	0.6689	-0.129
Mof_H 	H 	0.2388	0.0564	0.6917	0.094
Mof_C 	C 	0.1908	0.0671	0.6406	0.073
Mof_H 	H 	0.1873	0.1287	0.645	-0.003
Mof_I 	I 	0.13739	0.08355	0.48812	-0.36
Mof_I 	I 	0.10866	0.23336	0.60353	-0.374
Mof_Zn	Zn	0.1218	0.09223	0.56417	1.163
Mof_N 	N 	0.0748	0.0114	0.5622	-0.274
Mof_C 	C 	0.0593	0.008	0.5969	0.074
Mof_H 	H 	0.0706	0.0425	0.6225	-0.014
Mof_C 	C 	0.0275	0.9564	0.5977	-0.125
Mof_H 	H 	0.0166	0.9582	0.6228	0.082
Mof_C 	C 	0.0118	0.9031	0.5624	0.044
Mof_C 	C 	0.028	0.9054	0.5258	-0.13
Mof_H 	H 	0.0179	0.8695	0.5004	0.077
Mof_C 	C 	0.0581	0.9591	0.527	0.074
Mof_H 	H 	0.0685	0.9607	0.5015	-0.002
Mof_C 	C 	0.9796	0.8417	0.5625	0.084
Mof_N 	N 	0.9597	0.8525	0.594	-0.133
Mof_C 	C 	0.9309	0.7958	0.5925	0.117
Mof_N 	N 	0.9229	0.7261	0.5649	-0.122
Mof_C 	C 	0.9451	0.72	0.5359	0.101
Mof_N 	N 	0.9723	0.7782	0.532	-0.157
Mof_N 	N 	0.9357	0.4914	0.4515	-0.289
Mof_C 	C 	0.9653	0.5469	0.4565	0.059
Mof_H 	H 	0.9846	0.5352	0.4408	0.007
Mof_C 	C 	0.9692	0.6212	0.4836	-0.106
Mof_H 	H 	0.9908	0.6593	0.4867	0.057
Mof_C 	C 	0.9401	0.6398	0.5071	0.05
Mof_C 	C 	0.9107	0.5822	0.5024	-0.107
Mof_H 	H 	0.8909	0.5911	0.5176	0.084
Mof_C 	C 	0.9097	0.5081	0.4743	0.068
Mof_H 	H 	0.8889	0.4674	0.4716	-0.018
Mof_N 	N 	0.8586	0.8372	0.6825	-0.274
Mof_C 	C 	0.8478	0.7864	0.6465	0.079
Mof_H 	H 	0.823	0.7596	0.6405	-0.01
Mof_C 	C 	0.8706	0.7707	0.6175	-0.117
Mof_H 	H 	0.8618	0.732	0.5929	0.089
Mof_C 	C 	0.9064	0.8111	0.6239	0.073
Mof_C 	C 	0.918	0.8657	0.6598	-0.117
Mof_H 	H 	0.9423	0.8945	0.6658	0.086
Mof_C 	C 	0.8931	0.878	0.6876	0.072
Mof_H 	H 	0.9009	0.9181	0.7119	-0.013
Mof_I 	I 	0.3855	0.2362	0.9431	-0.535
Mof_I 	I 	0.4737	0.1466	0.8837	0.915
Mof_Zn	Zn	0.4202	0.1237	0.9071	0.648
Mof_I 	I 	0.98926	0.6202	0.87707	-1.329
Mof_Zn	Zn	0.93111	0.6069	0.90568	0.628
Mof_I 	I 	0.89773	0.73258	0.93531	0.121
Mof_N 	N 	0.8903	0.5486	0.8534	-0.293
Mof_C 	C 	0.8564	0.5849	0.832	0.048
Mof_H 	H 	0.8501	0.643	0.8398	-0.018
Mof_C 	C 	0.8298	0.5378	0.7975	-0.11
Mof_H 	H 	0.8055	0.5627	0.7831	0.074
Mof_C 	C 	0.8405	0.4555	0.7862	0.053
Mof_C 	C 	0.8763	0.418	0.808	-0.11
Mof_H 	H 	0.884	0.361	0.8003	0.092
Mof_C 	C 	0.8998	0.4691	0.8417	0.08
Mof_H 	H 	0.9241	0.4452	0.857	-0.003
Mof_C 	C 	0.8128	0.3999	0.7524	0.109
Mof_N 	N 	0.7829	0.4425	0.7261	-0.14
Mof_C 	C 	0.7601	0.3904	0.6951	0.088
Mof_N 	N 	0.7646	0.3025	0.691	-0.138
Mof_C 	C 	0.7949	0.2675	0.7202	0.105
Mof_N 	N 	0.8204	0.3144	0.7502	-0.134
Mof_N 	N 	0.8138	0.9874	0.7264	-0.276
Mof_C 	C 	0.782	0.0222	0.6993	0.076
Mof_H 	H 	0.7634	0.9831	0.682	-0.012
Mof_C 	C 	0.7755	0.1098	0.6957	-0.125
Mof_H 	H 	0.753	0.1312	0.6752	0.08
Mof_C 	C 	0.8017	0.1711	0.7218	0.062
Mof_C 	C 	0.8336	0.1341	0.7503	-0.131
Mof_H 	H 	0.8521	0.1705	0.7697	0.09
Mof_C 	C 	0.8381	0.0445	0.7502	0.085
Mof_H 	H 	0.861	0.0209	0.7691	-0.02
Mof_I 	I 	0.87408	0.82747	0.80508	-0.423
Mof_Zn	Zn	0.82674	0.85196	0.72962	1.163
Mof_I 	I 	0.7643	0.76499	0.70083	-0.376
Mof_N 	N 	0.6659	0.5259	0.6078	-0.273
Mof_C 	C 	0.6721	0.4384	0.6031	0.069
Mof_H 	H 	0.6553	0.408	0.5791	0.007
Mof_C 	C 	0.701	0.3907	0.6306	-0.122
Mof_H 	H 	0.7031	0.3284	0.6271	0.088
Mof_C 	C 	0.727	0.4366	0.6638	0.054
Mof_C 	C 	0.7216	0.5242	0.6689	-0.129
Mof_H 	H 	0.7388	0.5564	0.6917	0.094
Mof_C 	C 	0.6908	0.5671	0.6406	0.072
Mof_H 	H 	0.6873	0.6287	0.645	-0.003
Mof_I 	I 	0.63739	0.58355	0.48812	-0.36
Mof_I 	I 	0.60866	0.73336	0.60353	-0.374
Mof_Zn	Zn	0.6218	0.59223	0.56417	1.163
Mof_N 	N 	0.5748	0.5114	0.5622	-0.274
Mof_C 	C 	0.5593	0.508	0.5969	0.074
Mof_H 	H 	0.5706	0.5425	0.6225	-0.014
Mof_C 	C 	0.5275	0.4564	0.5977	-0.125
Mof_H 	H 	0.5166	0.4582	0.6228	0.083
Mof_C 	C 	0.5118	0.4031	0.5624	0.044
Mof_C 	C 	0.528	0.4054	0.5258	-0.13
Mof_H 	H 	0.5179	0.3695	0.5004	0.078
Mof_C 	C 	0.5581	0.4591	0.527	0.075
Mof_H 	H 	0.5685	0.4607	0.5015	-0.002
Mof_C 	C 	0.4796	0.3417	0.5625	0.084
Mof_N 	N 	0.4597	0.3525	0.594	-0.133
Mof_C 	C 	0.4309	0.2958	0.5925	0.117
Mof_N 	N 	0.4229	0.2261	0.5649	-0.122
Mof_C 	C 	0.4451	0.22	0.5359	0.101
Mof_N 	N 	0.4723	0.2782	0.532	-0.157
Mof_N 	N 	0.4357	0.9914	0.4515	-0.289
Mof_C 	C 	0.4653	0.0469	0.4565	0.059
Mof_H 	H 	0.4846	0.0352	0.4408	0.007
Mof_C 	C 	0.4692	0.1212	0.4836	-0.106
Mof_H 	H 	0.4908	0.1593	0.4867	0.057
Mof_C 	C 	0.4401	0.1398	0.5071	0.05
Mof_C 	C 	0.4107	0.0822	0.5024	-0.107
Mof_H 	H 	0.3909	0.0911	0.5176	0.084
Mof_C 	C 	0.4097	0.0081	0.4743	0.068
Mof_H 	H 	0.3889	0.9674	0.4716	-0.018
Mof_N 	N 	0.3586	0.3372	0.6825	-0.274
Mof_C 	C 	0.3478	0.2864	0.6465	0.079
Mof_H 	H 	0.323	0.2596	0.6405	-0.01
Mof_C 	C 	0.3706	0.2707	0.6175	-0.117
Mof_H 	H 	0.3618	0.232	0.5929	0.089
Mof_C 	C 	0.4064	0.3111	0.6239	0.073
Mof_C 	C 	0.418	0.3657	0.6598	-0.117
Mof_H 	H 	0.4423	0.3945	0.6658	0.086
Mof_C 	C 	0.3931	0.378	0.6876	0.072
Mof_H 	H 	0.4009	0.4181	0.7119	-0.013
Mof_I 	I 	0.8855	0.7362	0.9431	-0.535
Mof_I 	I 	0.9737	0.6466	0.8837	0.915
Mof_Zn	Zn	0.9202	0.6237	0.9071	0.648
Mof_I 	I 	0.51074	0.8798	0.12293	-1.329
Mof_Zn	Zn	0.56889	0.8931	0.09432	0.628
Mof_I 	I 	0.60227	0.76742	0.06469	0.121
Mof_N 	N 	0.6097	0.9514	0.1466	-0.293
Mof_C 	C 	0.6436	0.9151	0.168	0.048
Mof_H 	H 	0.6499	0.857	0.1602	-0.018
Mof_C 	C 	0.6702	0.9622	0.2025	-0.11
Mof_H 	H 	0.6945	0.9373	0.2169	0.074
Mof_C 	C 	0.6595	0.0445	0.2138	0.053
Mof_C 	C 	0.6237	0.082	0.192	-0.11
Mof_H 	H 	0.616	0.139	0.1997	0.092
Mof_C 	C 	0.6002	0.0309	0.1583	0.08
Mof_H 	H 	0.5759	0.0548	0.143	-0.003
Mof_C 	C 	0.6872	0.1001	0.2476	0.109
Mof_N 	N 	0.7171	0.0575	0.2739	-0.14
Mof_C 	C 	0.7399	0.1096	0.3049	0.088
Mof_N 	N 	0.7354	0.1975	0.309	-0.138
Mof_C 	C 	0.7051	0.2325	0.2798	0.105
Mof_N 	N 	0.6796	0.1856	0.2498	-0.134
Mof_N 	N 	0.6862	0.5126	0.2736	-0.276
Mof_C 	C 	0.718	0.4778	0.3007	0.076
Mof_H 	H 	0.7366	0.5169	0.318	-0.012
Mof_C 	C 	0.7245	0.3902	0.3043	-0.125
Mof_H 	H 	0.747	0.3688	0.3248	0.08
Mof_C 	C 	0.6983	0.3289	0.2782	0.062
Mof_C 	C 	0.6664	0.3659	0.2497	-0.131
Mof_H 	H 	0.6479	0.3295	0.2303	0.09
Mof_C 	C 	0.6619	0.4555	0.2498	0.085
Mof_H 	H 	0.639	0.4791	0.2309	-0.02
Mof_I 	I 	0.62592	0.67253	0.19492	-0.423
Mof_Zn	Zn	0.67326	0.64804	0.27038	1.163
Mof_I 	I 	0.7357	0.73501	0.29917	-0.376
Mof_N 	N 	0.8341	0.9741	0.3922	-0.273
Mof_C 	C 	0.8279	0.0616	0.3969	0.069
Mof_H 	H 	0.8447	0.092	0.4209	0.007
Mof_C 	C 	0.799	0.1093	0.3694	-0.122
Mof_H 	H 	0.7969	0.1716	0.3729	0.088
Mof_C 	C 	0.773	0.0634	0.3362	0.054
Mof_C 	C 	0.7784	0.9758	0.3311	-0.129
Mof_H 	H 	0.7612	0.9436	0.3083	0.094
Mof_C 	C 	0.8092	0.9329	0.3594	0.073
Mof_H 	H 	0.8127	0.8713	0.355	-0.003
Mof_I 	I 	0.86261	0.91645	0.51188	-0.36
Mof_I 	I 	0.89134	0.76664	0.39647	-0.374
Mof_Zn	Zn	0.8782	0.90777	0.43583	1.163
Mof_N 	N 	0.9252	0.9886	0.4378	-0.274
Mof_C 	C 	0.9407	0.992	0.4031	0.074
Mof_H 	H 	0.9294	0.9575	0.3775	-0.014
Mof_C 	C 	0.9725	0.0436	0.4023	-0.125
Mof_H 	H 	0.9834	0.0418	0.3772	0.082
Mof_C 	C 	0.9882	0.0969	0.4376	0.044
Mof_C 	C 	0.972	0.0946	0.4742	-0.13
Mof_H 	H 	0.9821	0.1305	0.4996	0.077
Mof_C 	C 	0.9419	0.0409	0.473	0.074
Mof_H 	H 	0.9315	0.0393	0.4985	-0.002
Mof_C 	C 	0.0204	0.1583	0.4375	0.084
Mof_N 	N 	0.0403	0.1475	0.406	-0.133
Mof_C 	C 	0.0691	0.2042	0.4075	0.117
Mof_N 	N 	0.0771	0.2739	0.4351	-0.122
Mof_C 	C 	0.0549	0.28	0.4641	0.101
Mof_N 	N 	0.0277	0.2218	0.468	-0.157
Mof_N 	N 	0.0643	0.5086	0.5485	-0.289
Mof_C 	C 	0.0347	0.4531	0.5435	0.059
Mof_H 	H 	0.0154	0.4648	0.5592	0.007
Mof_C 	C 	0.0308	0.3788	0.5164	-0.106
Mof_H 	H 	0.0092	0.3407	0.5133	0.057
Mof_C 	C 	0.0599	0.3602	0.4929	0.05
Mof_C 	C 	0.0893	0.4178	0.4976	-0.107
Mof_H 	H 	0.1091	0.4089	0.4824	0.084
Mof_C 	C 	0.0903	0.4919	0.5257	0.068
Mof_H 	H 	0.1111	0.5326	0.5284	-0.018
Mof_N 	N 	0.1414	0.1628	0.3175	-0.274
Mof_C 	C 	0.1522	0.2136	0.3535	0.079
Mof_H 	H 	0.177	0.2404	0.3595	-0.01
Mof_C 	C 	0.1294	0.2293	0.3825	-0.117
Mof_H 	H 	0.1382	0.268	0.4071	0.089
Mof_C 	C 	0.0936	0.1889	0.3761	0.073
Mof_C 	C 	0.082	0.1343	0.3402	-0.117
Mof_H 	H 	0.0577	0.1055	0.3342	0.086
Mof_C 	C 	0.1069	0.122	0.3124	0.072
Mof_H 	H 	0.0991	0.0819	0.2881	-0.013
Mof_I 	I 	0.6145	0.7638	0.0569	-0.535
Mof_I 	I 	0.5263	0.8534	0.1163	0.915
Mof_Zn	Zn	0.5798	0.8763	0.0929	0.648
Mof_I 	I 	0.01074	0.3798	0.12293	-1.329
Mof_Zn	Zn	0.06889	0.3931	0.09432	0.628
Mof_I 	I 	0.10227	0.26742	0.06469	0.121
Mof_N 	N 	0.1097	0.4514	0.1466	-0.293
Mof_C 	C 	0.1436	0.4151	0.168	0.048
Mof_H 	H 	0.1499	0.357	0.1602	-0.018
Mof_C 	C 	0.1702	0.4622	0.2025	-0.11
Mof_H 	H 	0.1945	0.4373	0.2169	0.074
Mof_C 	C 	0.1595	0.5445	0.2138	0.053
Mof_C 	C 	0.1237	0.582	0.192	-0.11
Mof_H 	H 	0.116	0.639	0.1997	0.092
Mof_C 	C 	0.1002	0.5309	0.1583	0.08
Mof_H 	H 	0.0759	0.5548	0.143	-0.003
Mof_C 	C 	0.1872	0.6001	0.2476	0.109
Mof_N 	N 	0.2171	0.5575	0.2739	-0.14
Mof_C 	C 	0.2399	0.6096	0.3049	0.088
Mof_N 	N 	0.2354	0.6975	0.309	-0.138
Mof_C 	C 	0.2051	0.7325	0.2798	0.105
Mof_N 	N 	0.1796	0.6856	0.2498	-0.134
Mof_N 	N 	0.1862	0.0126	0.2736	-0.276
Mof_C 	C 	0.218	0.9778	0.3007	0.076
Mof_H 	H 	0.2366	0.0169	0.318	-0.012
Mof_C 	C 	0.2245	0.8902	0.3043	-0.125
Mof_H 	H 	0.247	0.8688	0.3248	0.08
Mof_C 	C 	0.1983	0.8289	0.2782	0.062
Mof_C 	C 	0.1664	0.8659	0.2497	-0.131
Mof_H 	H 	0.1479	0.8295	0.2303	0.09
Mof_C 	C 	0.1619	0.9555	0.2498	0.085
Mof_H 	H 	0.139	0.9791	0.2309	-0.02
Mof_I 	I 	0.12592	0.17253	0.19492	-0.423
Mof_Zn	Zn	0.17326	0.14804	0.27038	1.163
Mof_I 	I 	0.2357	0.23501	0.29917	-0.376
Mof_N 	N 	0.3341	0.4741	0.3922	-0.273
Mof_C 	C 	0.3279	0.5616	0.3969	0.069
Mof_H 	H 	0.3447	0.592	0.4209	0.007
Mof_C 	C 	0.299	0.6093	0.3694	-0.122
Mof_H 	H 	0.2969	0.6716	0.3729	0.088
Mof_C 	C 	0.273	0.5634	0.3362	0.054
Mof_C 	C 	0.2784	0.4758	0.3311	-0.129
Mof_H 	H 	0.2612	0.4436	0.3083	0.094
Mof_C 	C 	0.3092	0.4329	0.3594	0.072
Mof_H 	H 	0.3127	0.3713	0.355	-0.003
Mof_I 	I 	0.36261	0.41645	0.51188	-0.36
Mof_I 	I 	0.39134	0.26664	0.39647	-0.374
Mof_Zn	Zn	0.3782	0.40777	0.43583	1.163
Mof_N 	N 	0.4252	0.4886	0.4378	-0.274
Mof_C 	C 	0.4407	0.492	0.4031	0.074
Mof_H 	H 	0.4294	0.4575	0.3775	-0.014
Mof_C 	C 	0.4725	0.5436	0.4023	-0.125
Mof_H 	H 	0.4834	0.5418	0.3772	0.083
Mof_C 	C 	0.4882	0.5969	0.4376	0.044
Mof_C 	C 	0.472	0.5946	0.4742	-0.13
Mof_H 	H 	0.4821	0.6305	0.4996	0.078
Mof_C 	C 	0.4419	0.5409	0.473	0.075
Mof_H 	H 	0.4315	0.5393	0.4985	-0.002
Mof_C 	C 	0.5204	0.6583	0.4375	0.084
Mof_N 	N 	0.5403	0.6475	0.406	-0.133
Mof_C 	C 	0.5691	0.7042	0.4075	0.117
Mof_N 	N 	0.5771	0.7739	0.4351	-0.122
Mof_C 	C 	0.5549	0.78	0.4641	0.101
Mof_N 	N 	0.5277	0.7218	0.468	-0.157
Mof_N 	N 	0.5643	0.0086	0.5485	-0.289
Mof_C 	C 	0.5347	0.9531	0.5435	0.059
Mof_H 	H 	0.5154	0.9648	0.5592	0.007
Mof_C 	C 	0.5308	0.8788	0.5164	-0.106
Mof_H 	H 	0.5092	0.8407	0.5133	0.057
Mof_C 	C 	0.5599	0.8602	0.4929	0.05
Mof_C 	C 	0.5893	0.9178	0.4976	-0.107
Mof_H 	H 	0.6091	0.9089	0.4824	0.084
Mof_C 	C 	0.5903	0.9919	0.5257	0.068
Mof_H 	H 	0.6111	0.0326	0.5284	-0.018
Mof_N 	N 	0.6414	0.6628	0.3175	-0.274
Mof_C 	C 	0.6522	0.7136	0.3535	0.079
Mof_H 	H 	0.677	0.7404	0.3595	-0.01
Mof_C 	C 	0.6294	0.7293	0.3825	-0.117
Mof_H 	H 	0.6382	0.768	0.4071	0.089
Mof_C 	C 	0.5936	0.6889	0.3761	0.073
Mof_C 	C 	0.582	0.6343	0.3402	-0.117
Mof_H 	H 	0.5577	0.6055	0.3342	0.086
Mof_C 	C 	0.6069	0.622	0.3124	0.072
Mof_H 	H 	0.5991	0.5819	0.2881	-0.013
Mof_I 	I 	0.1145	0.2638	0.0569	-0.535
Mof_I 	I 	0.0263	0.3534	0.1163	0.915
Mof_Zn	Zn	0.0798	0.3763	0.0929	0.648
Mof_I 	I 	0.51074	0.1202	0.62293	-1.329
Mof_Zn	Zn	0.56889	0.1069	0.59432	0.628
Mof_I 	I 	0.60227	0.23258	0.56469	0.121
Mof_N 	N 	0.6097	0.0486	0.6466	-0.293
Mof_C 	C 	0.6436	0.0849	0.668	0.048
Mof_H 	H 	0.6499	0.143	0.6602	-0.018
Mof_C 	C 	0.6702	0.0378	0.7025	-0.11
Mof_H 	H 	0.6945	0.0627	0.7169	0.074
Mof_C 	C 	0.6595	0.9555	0.7138	0.053
Mof_C 	C 	0.6237	0.918	0.692	-0.11
Mof_H 	H 	0.616	0.861	0.6997	0.092
Mof_C 	C 	0.6002	0.9691	0.6583	0.08
Mof_H 	H 	0.5759	0.9452	0.643	-0.003
Mof_C 	C 	0.6872	0.8999	0.7476	0.109
Mof_N 	N 	0.7171	0.9425	0.7739	-0.14
Mof_C 	C 	0.7399	0.8904	0.8049	0.088
Mof_N 	N 	0.7354	0.8025	0.809	-0.138
Mof_C 	C 	0.7051	0.7675	0.7798	0.105
Mof_N 	N 	0.6796	0.8144	0.7498	-0.134
Mof_N 	N 	0.6862	0.4874	0.7736	-0.276
Mof_C 	C 	0.718	0.5222	0.8007	0.076
Mof_H 	H 	0.7366	0.4831	0.818	-0.012
Mof_C 	C 	0.7245	0.6098	0.8043	-0.125
Mof_H 	H 	0.747	0.6312	0.8248	0.08
Mof_C 	C 	0.6983	0.6711	0.7782	0.062
Mof_C 	C 	0.6664	0.6341	0.7497	-0.131
Mof_H 	H 	0.6479	0.6705	0.7303	0.09
Mof_C 	C 	0.6619	0.5445	0.7498	0.085
Mof_H 	H 	0.639	0.5209	0.7309	-0.02
Mof_I 	I 	0.62592	0.32747	0.69492	-0.423
Mof_Zn	Zn	0.67326	0.35196	0.77038	1.163
Mof_I 	I 	0.7357	0.26499	0.79917	-0.376
Mof_N 	N 	0.8341	0.0259	0.8922	-0.273
Mof_C 	C 	0.8279	0.9384	0.8969	0.07
Mof_H 	H 	0.8447	0.908	0.9209	0.007
Mof_C 	C 	0.799	0.8907	0.8694	-0.122
Mof_H 	H 	0.7969	0.8284	0.8729	0.088
Mof_C 	C 	0.773	0.9366	0.8362	0.054
Mof_C 	C 	0.7784	0.0242	0.8311	-0.13
Mof_H 	H 	0.7612	0.0564	0.8083	0.094
Mof_C 	C 	0.8092	0.0671	0.8594	0.073
Mof_H 	H 	0.8127	0.1287	0.855	-0.003
Mof_I 	I 	0.86261	0.08355	0.01188	-0.36
Mof_I 	I 	0.89134	0.23336	0.89647	-0.374
Mof_Zn	Zn	0.8782	0.09223	0.93583	1.163
Mof_N 	N 	0.9252	0.0114	0.9378	-0.274
Mof_C 	C 	0.9407	0.008	0.9031	0.074
Mof_H 	H 	0.9294	0.0425	0.8775	-0.014
Mof_C 	C 	0.9725	0.9564	0.9023	-0.125
Mof_H 	H 	0.9834	0.9582	0.8772	0.082
Mof_C 	C 	0.9882	0.9031	0.9376	0.044
Mof_C 	C 	0.972	0.9054	0.9742	-0.13
Mof_H 	H 	0.9821	0.8695	0.9996	0.077
Mof_C 	C 	0.9419	0.9591	0.973	0.075
Mof_H 	H 	0.9315	0.9607	0.9985	-0.002
Mof_C 	C 	0.0204	0.8417	0.9375	0.084
Mof_N 	N 	0.0403	0.8525	0.906	-0.133
Mof_C 	C 	0.0691	0.7958	0.9075	0.117
Mof_N 	N 	0.0771	0.7261	0.9351	-0.122
Mof_C 	C 	0.0549	0.72	0.9641	0.101
Mof_N 	N 	0.0277	0.7782	0.968	-0.157
Mof_N 	N 	0.0643	0.4914	0.0485	-0.289
Mof_C 	C 	0.0347	0.5469	0.0435	0.06
Mof_H 	H 	0.0154	0.5352	0.0592	0.007
Mof_C 	C 	0.0308	0.6212	0.0164	-0.106
Mof_H 	H 	0.0092	0.6593	0.0133	0.057
Mof_C 	C 	0.0599	0.6398	0.9929	0.05
Mof_C 	C 	0.0893	0.5822	0.9976	-0.107
Mof_H 	H 	0.1091	0.5911	0.9824	0.084
Mof_C 	C 	0.0903	0.5081	0.0257	0.068
Mof_H 	H 	0.1111	0.4674	0.0284	-0.018
Mof_N 	N 	0.1414	0.8372	0.8175	-0.274
Mof_C 	C 	0.1522	0.7864	0.8535	0.079
Mof_H 	H 	0.177	0.7596	0.8595	-0.01
Mof_C 	C 	0.1294	0.7707	0.8825	-0.117
Mof_H 	H 	0.1382	0.732	0.9071	0.089
Mof_C 	C 	0.0936	0.8111	0.8761	0.073
Mof_C 	C 	0.082	0.8657	0.8402	-0.117
Mof_H 	H 	0.0577	0.8945	0.8342	0.086
Mof_C 	C 	0.1069	0.878	0.8124	0.072
Mof_H 	H 	0.0991	0.9181	0.7881	-0.013
Mof_I 	I 	0.6145	0.2362	0.5569	-0.535
Mof_I 	I 	0.5263	0.1466	0.6163	0.915
Mof_Zn	Zn	0.5798	0.1237	0.5929	0.648
Mof_I 	I 	0.01074	0.6202	0.62293	-1.329
Mof_Zn	Zn	0.06889	0.6069	0.59432	0.628
Mof_I 	I 	0.10227	0.73258	0.56469	0.121
Mof_N 	N 	0.1097	0.5486	0.6466	-0.293
Mof_C 	C 	0.1436	0.5849	0.668	0.048
Mof_H 	H 	0.1499	0.643	0.6602	-0.018
Mof_C 	C 	0.1702	0.5378	0.7025	-0.11
Mof_H 	H 	0.1945	0.5627	0.7169	0.074
Mof_C 	C 	0.1595	0.4555	0.7138	0.053
Mof_C 	C 	0.1237	0.418	0.692	-0.11
Mof_H 	H 	0.116	0.361	0.6997	0.092
Mof_C 	C 	0.1002	0.4691	0.6583	0.08
Mof_H 	H 	0.0759	0.4452	0.643	-0.003
Mof_C 	C 	0.1872	0.3999	0.7476	0.109
Mof_N 	N 	0.2171	0.4425	0.7739	-0.14
Mof_C 	C 	0.2399	0.3904	0.8049	0.088
Mof_N 	N 	0.2354	0.3025	0.809	-0.138
Mof_C 	C 	0.2051	0.2675	0.7798	0.105
Mof_N 	N 	0.1796	0.3144	0.7498	-0.134
Mof_N 	N 	0.1862	0.9874	0.7736	-0.275
Mof_C 	C 	0.218	0.0222	0.8007	0.076
Mof_H 	H 	0.2366	0.9831	0.818	-0.012
Mof_C 	C 	0.2245	0.1098	0.8043	-0.125
Mof_H 	H 	0.247	0.1312	0.8248	0.08
Mof_C 	C 	0.1983	0.1711	0.7782	0.062
Mof_C 	C 	0.1664	0.1341	0.7497	-0.131
Mof_H 	H 	0.1479	0.1705	0.7303	0.09
Mof_C 	C 	0.1619	0.0445	0.7498	0.085
Mof_H 	H 	0.139	0.0209	0.7309	-0.02
Mof_I 	I 	0.12592	0.82747	0.69492	-0.423
Mof_Zn	Zn	0.17326	0.85196	0.77038	1.163
Mof_I 	I 	0.2357	0.76499	0.79917	-0.376
Mof_N 	N 	0.3341	0.5259	0.8922	-0.273
Mof_C 	C 	0.3279	0.4384	0.8969	0.069
Mof_H 	H 	0.3447	0.408	0.9209	0.007
Mof_C 	C 	0.299	0.3907	0.8694	-0.122
Mof_H 	H 	0.2969	0.3284	0.8729	0.088
Mof_C 	C 	0.273	0.4366	0.8362	0.054
Mof_C 	C 	0.2784	0.5242	0.8311	-0.129
Mof_H 	H 	0.2612	0.5564	0.8083	0.094
Mof_C 	C 	0.3092	0.5671	0.8594	0.072
Mof_H 	H 	0.3127	0.6287	0.855	-0.003
Mof_I 	I 	0.36261	0.58355	0.01188	-0.36
Mof_I 	I 	0.39134	0.73336	0.89647	-0.374
Mof_Zn	Zn	0.3782	0.59223	0.93583	1.164
Mof_N 	N 	0.4252	0.5114	0.9378	-0.274
Mof_C 	C 	0.4407	0.508	0.9031	0.074
Mof_H 	H 	0.4294	0.5425	0.8775	-0.014
Mof_C 	C 	0.4725	0.4564	0.9023	-0.125
Mof_H 	H 	0.4834	0.4582	0.8772	0.083
Mof_C 	C 	0.4882	0.4031	0.9376	0.044
Mof_C 	C 	0.472	0.4054	0.9742	-0.13
Mof_H 	H 	0.4821	0.3695	0.9996	0.077
Mof_C 	C 	0.4419	0.4591	0.973	0.075
Mof_H 	H 	0.4315	0.4607	0.9985	-0.002
Mof_C 	C 	0.5204	0.3417	0.9375	0.084
Mof_N 	N 	0.5403	0.3525	0.906	-0.133
Mof_C 	C 	0.5691	0.2958	0.9075	0.117
Mof_N 	N 	0.5771	0.2261	0.9351	-0.122
Mof_C 	C 	0.5549	0.22	0.9641	0.101
Mof_N 	N 	0.5277	0.2782	0.968	-0.157
Mof_N 	N 	0.5643	0.9914	0.0485	-0.289
Mof_C 	C 	0.5347	0.0469	0.0435	0.06
Mof_H 	H 	0.5154	0.0352	0.0592	0.007
Mof_C 	C 	0.5308	0.1212	0.0164	-0.106
Mof_H 	H 	0.5092	0.1593	0.0133	0.057
Mof_C 	C 	0.5599	0.1398	0.9929	0.05
Mof_C 	C 	0.5893	0.0822	0.9976	-0.107
Mof_H 	H 	0.6091	0.0911	0.9824	0.084
Mof_C 	C 	0.5903	0.0081	0.0257	0.069
Mof_H 	H 	0.6111	0.9674	0.0284	-0.019
Mof_N 	N 	0.6414	0.3372	0.8175	-0.274
Mof_C 	C 	0.6522	0.2864	0.8535	0.079
Mof_H 	H 	0.677	0.2596	0.8595	-0.01
Mof_C 	C 	0.6294	0.2707	0.8825	-0.117
Mof_H 	H 	0.6382	0.232	0.9071	0.089
Mof_C 	C 	0.5936	0.3111	0.8761	0.073
Mof_C 	C 	0.582	0.3657	0.8402	-0.117
Mof_H 	H 	0.5577	0.3945	0.8342	0.086
Mof_C 	C 	0.6069	0.378	0.8124	0.072
Mof_H 	H 	0.5991	0.4181	0.7881	-0.013
Mof_I 	I 	0.1145	0.7362	0.5569	-0.535
Mof_I 	I 	0.0263	0.6466	0.6163	0.915
Mof_Zn	Zn	0.0798	0.6237	0.5929	0.648
_end
