data_functionalizedCrystal
_audit_creation_method	'EQeq! by Chris Wilmer'
_symmetry_space_group_name_H-M	'P1'
_symmetry_Int_Tables_number	1
_symmetry_cell_setting	triclinic
loop_
_symmetry_equiv_pos_as_xyz
  x,y,z
_cell_length_a	19.869
_cell_length_b	28.259
_cell_length_c	48.027
_cell_angle_alpha	90
_cell_angle_beta	90
_cell_angle_gamma	90
loop_
_atom_site_label
_atom_site_type_symbol
_atom_site_fract_x
_atom_site_fract_y
_atom_site_fract_z
_atom_site_charge
Mof_C 	C 	0.6249	0.9584	0.28792	0.095
Mof_H 	H 	0.626	0.9437	0.3052	-0.057
Mof_N 	N 	0.6234	0.9367	0.26322	-0.301
Mof_C 	C 	0.622	0.9699	0.24345	0.068
Mof_H 	H 	0.6208	0.9646	0.2243	-0.04
Mof_N 	N 	0.6226	0.0122	0.2559	-0.121
Mof_N 	N 	0.6244	0.0051	0.2834	-0.263
Mof_N 	N 	0.7944	0.8966	0.2013	-0.265
Mof_N 	N 	0.8006	0.8495	0.2034	-0.245
Mof_C 	C 	0.7471	0.8331	0.2175	0.08
Mof_H 	H 	0.7386	0.8016	0.2219	-0.035
Mof_N 	N 	0.7079	0.8702	0.224	-0.286
Mof_C 	C 	0.7372	0.9094	0.214	0.072
Mof_H 	H 	0.7207	0.9401	0.2156	-0.051
Mof_N 	N 	0.7949	0.8972	0.0514	-0.265
Mof_N 	N 	0.8002	0.8496	0.0498	-0.243
Mof_C 	C 	0.7467	0.8333	0.0355	0.083
Mof_H 	H 	0.7378	0.8017	0.0313	-0.018
Mof_N 	N 	0.7083	0.8707	0.0282	-0.283
Mof_C 	C 	0.7381	0.9102	0.038	0.073
Mof_H 	H 	0.7223	0.941	0.036	-0.047
Mof_N 	N 	0.8822	0.9522	0.1503	-0.067
Mof_C 	C 	0.8505	0.9336	0.1277	0.064
Mof_H 	H 	0.8141	0.9129	0.128	-0.037
Mof_N 	N 	0.8813	0.9506	0.1044	-0.124
Mof_C 	C 	0.9322	0.9796	0.1127	0.052
Mof_H 	H 	0.9614	0.996	0.101	-0.011
Mof_N 	N 	0.9327	0.9806	0.141	-0.098
Mof_Zn	Zn	0.86915	0.94025	0.06422	1.165
Mof_Zn	Zn	0.86849	0.94104	0.18972	1.159
Mof_Zn	Zn	0.62236	0.87174	0.24758	1.173
Mof_C 	C 	0.8574	0.0297	0.0288	0.139
Mof_H 	H 	0.8162	0.0214	0.021	-0.035
Mof_N 	N 	0.8922	0.0042	0.0467	-0.148
Mof_N 	N 	0.9475	0.0277	0.0529	-0.119
Mof_C 	C 	0.9469	0.0678	0.0388	0.02
Mof_H 	H 	0.9799	0.0911	0.0392	-0.01
Mof_N 	N 	0.8912	0.069	0.0239	-0.19
Mof_N 	N 	0.8908	0.9438	0.1494	-0.17
Mof_C 	C 	0.8515	0.9442	0.1267	-0.006
Mof_H 	H 	0.8047	0.9451	0.1266	-0.034
Mof_N 	N 	0.8915	0.943	0.1042	-0.149
Mof_C 	C 	0.9555	0.9419	0.113	-0.004
Mof_H 	H 	0.9935	0.941	0.1017	0.002
Mof_N 	N 	0.9551	0.9424	0.1409	-0.087
Mof_C 	C 	0.8757	0.0221	0.9952	-0.007
Mof_H 	H 	0.8762	0.026	0.976	0.002
Mof_N 	N 	0.8745	0.9802	0.0089	-0.111
Mof_N 	N 	0.8742	0.9895	0.0366	-0.189
Mof_C 	C 	0.8753	0.0371	0.04	0.115
Mof_H 	H 	0.8754	0.0531	0.0569	-0.03
Mof_N 	N 	0.8763	0.0572	0.0144	-0.167
Mof_C 	C 	0.6249	0.4584	0.78792	0.096
Mof_H 	H 	0.626	0.4437	0.8052	-0.057
Mof_N 	N 	0.6234	0.4367	0.76322	-0.301
Mof_C 	C 	0.622	0.4699	0.74345	0.068
Mof_H 	H 	0.6208	0.4646	0.7243	-0.04
Mof_N 	N 	0.6226	0.5122	0.7559	-0.121
Mof_N 	N 	0.6244	0.5051	0.7834	-0.263
Mof_N 	N 	0.7944	0.3966	0.7013	-0.265
Mof_N 	N 	0.8006	0.3495	0.7034	-0.245
Mof_C 	C 	0.7471	0.3331	0.7175	0.08
Mof_H 	H 	0.7386	0.3016	0.7219	-0.035
Mof_N 	N 	0.7079	0.3702	0.724	-0.286
Mof_C 	C 	0.7372	0.4094	0.714	0.072
Mof_H 	H 	0.7207	0.4401	0.7156	-0.051
Mof_N 	N 	0.7949	0.3972	0.5514	-0.265
Mof_N 	N 	0.8002	0.3496	0.5498	-0.243
Mof_C 	C 	0.7467	0.3333	0.5355	0.082
Mof_H 	H 	0.7378	0.3017	0.5313	-0.019
Mof_N 	N 	0.7083	0.3707	0.5282	-0.284
Mof_C 	C 	0.7381	0.4102	0.538	0.072
Mof_H 	H 	0.7223	0.441	0.536	-0.048
Mof_N 	N 	0.8822	0.4522	0.6503	-0.068
Mof_C 	C 	0.8505	0.4336	0.6277	0.063
Mof_H 	H 	0.8141	0.4129	0.628	-0.038
Mof_N 	N 	0.8813	0.4506	0.6044	-0.125
Mof_C 	C 	0.9322	0.4796	0.6127	0.051
Mof_H 	H 	0.9614	0.496	0.601	-0.012
Mof_N 	N 	0.9327	0.4806	0.641	-0.099
Mof_Zn	Zn	0.86915	0.44025	0.56422	1.165
Mof_Zn	Zn	0.86849	0.44104	0.68972	1.158
Mof_Zn	Zn	0.62236	0.37174	0.74758	1.172
Mof_C 	C 	0.8574	0.5297	0.5288	0.138
Mof_H 	H 	0.8162	0.5214	0.521	-0.036
Mof_N 	N 	0.8922	0.5042	0.5467	-0.149
Mof_N 	N 	0.9475	0.5277	0.5529	-0.12
Mof_C 	C 	0.9469	0.5678	0.5388	0.019
Mof_H 	H 	0.9799	0.5911	0.5392	-0.011
Mof_N 	N 	0.8912	0.569	0.5239	-0.191
Mof_N 	N 	0.8908	0.4438	0.6494	-0.171
Mof_C 	C 	0.8515	0.4442	0.6267	-0.007
Mof_H 	H 	0.8047	0.4451	0.6266	-0.035
Mof_N 	N 	0.8915	0.443	0.6042	-0.15
Mof_C 	C 	0.9555	0.4419	0.613	-0.005
Mof_H 	H 	0.9935	0.441	0.6017	0.001
Mof_N 	N 	0.9551	0.4424	0.6409	-0.088
Mof_C 	C 	0.8757	0.5221	0.4952	-0.008
Mof_H 	H 	0.8762	0.526	0.476	0.001
Mof_N 	N 	0.8745	0.4802	0.5089	-0.112
Mof_N 	N 	0.8742	0.4895	0.5366	-0.19
Mof_C 	C 	0.8753	0.5371	0.54	0.114
Mof_H 	H 	0.8754	0.5531	0.5569	-0.031
Mof_N 	N 	0.8763	0.5572	0.5144	-0.168
Mof_C 	C 	0.1249	0.9584	0.78792	0.094
Mof_H 	H 	0.126	0.9437	0.8052	-0.058
Mof_N 	N 	0.1234	0.9367	0.76322	-0.302
Mof_C 	C 	0.122	0.9699	0.74345	0.067
Mof_H 	H 	0.1208	0.9646	0.7243	-0.041
Mof_N 	N 	0.1226	0.0122	0.7559	-0.122
Mof_N 	N 	0.1244	0.0051	0.7834	-0.264
Mof_N 	N 	0.2944	0.8966	0.7013	-0.266
Mof_N 	N 	0.3006	0.8495	0.7034	-0.246
Mof_C 	C 	0.2471	0.8331	0.7175	0.079
Mof_H 	H 	0.2386	0.8016	0.7219	-0.036
Mof_N 	N 	0.2079	0.8702	0.724	-0.287
Mof_C 	C 	0.2372	0.9094	0.714	0.071
Mof_H 	H 	0.2207	0.9401	0.7156	-0.052
Mof_N 	N 	0.2949	0.8972	0.5514	-0.266
Mof_N 	N 	0.3002	0.8496	0.5498	-0.244
Mof_C 	C 	0.2467	0.8333	0.5355	0.082
Mof_H 	H 	0.2378	0.8017	0.5313	-0.019
Mof_N 	N 	0.2083	0.8707	0.5282	-0.284
Mof_C 	C 	0.2381	0.9102	0.538	0.072
Mof_H 	H 	0.2223	0.941	0.536	-0.048
Mof_N 	N 	0.3822	0.9522	0.6503	-0.068
Mof_C 	C 	0.3505	0.9336	0.6277	0.063
Mof_H 	H 	0.3141	0.9129	0.628	-0.038
Mof_N 	N 	0.3813	0.9506	0.6044	-0.125
Mof_C 	C 	0.4322	0.9796	0.6127	0.051
Mof_H 	H 	0.4614	0.996	0.601	-0.012
Mof_N 	N 	0.4327	0.9806	0.641	-0.099
Mof_Zn	Zn	0.36915	0.94025	0.56422	1.164
Mof_Zn	Zn	0.36849	0.94104	0.68972	1.158
Mof_Zn	Zn	0.12236	0.87174	0.74758	1.171
Mof_C 	C 	0.3574	0.0297	0.5288	0.138
Mof_H 	H 	0.3162	0.0214	0.521	-0.036
Mof_N 	N 	0.3922	0.0042	0.5467	-0.149
Mof_N 	N 	0.4475	0.0277	0.5529	-0.12
Mof_C 	C 	0.4469	0.0678	0.5388	0.019
Mof_H 	H 	0.4799	0.0911	0.5392	-0.011
Mof_N 	N 	0.3912	0.069	0.5239	-0.191
Mof_N 	N 	0.3908	0.9438	0.6494	-0.171
Mof_C 	C 	0.3515	0.9442	0.6267	-0.007
Mof_H 	H 	0.3047	0.9451	0.6266	-0.035
Mof_N 	N 	0.3915	0.943	0.6042	-0.15
Mof_C 	C 	0.4555	0.9419	0.613	-0.005
Mof_H 	H 	0.4935	0.941	0.6017	0.001
Mof_N 	N 	0.4551	0.9424	0.6409	-0.088
Mof_C 	C 	0.3757	0.0221	0.4952	-0.008
Mof_H 	H 	0.3762	0.026	0.476	0.001
Mof_N 	N 	0.3745	0.9802	0.5089	-0.112
Mof_N 	N 	0.3742	0.9895	0.5366	-0.19
Mof_C 	C 	0.3753	0.0371	0.54	0.114
Mof_H 	H 	0.3754	0.0531	0.5569	-0.031
Mof_N 	N 	0.3763	0.0572	0.5144	-0.168
Mof_C 	C 	0.1249	0.4584	0.28792	0.095
Mof_H 	H 	0.126	0.4437	0.3052	-0.058
Mof_N 	N 	0.1234	0.4367	0.26322	-0.302
Mof_C 	C 	0.122	0.4699	0.24345	0.067
Mof_H 	H 	0.1208	0.4646	0.2243	-0.041
Mof_N 	N 	0.1226	0.5122	0.2559	-0.122
Mof_N 	N 	0.1244	0.5051	0.2834	-0.264
Mof_N 	N 	0.2944	0.3966	0.2013	-0.266
Mof_N 	N 	0.3006	0.3495	0.2034	-0.246
Mof_C 	C 	0.2471	0.3331	0.2175	0.079
Mof_H 	H 	0.2386	0.3016	0.2219	-0.036
Mof_N 	N 	0.2079	0.3702	0.224	-0.287
Mof_C 	C 	0.2372	0.4094	0.214	0.071
Mof_H 	H 	0.2207	0.4401	0.2156	-0.052
Mof_N 	N 	0.2949	0.3972	0.0514	-0.266
Mof_N 	N 	0.3002	0.3496	0.0498	-0.244
Mof_C 	C 	0.2467	0.3333	0.0355	0.082
Mof_H 	H 	0.2378	0.3017	0.0313	-0.019
Mof_N 	N 	0.2083	0.3707	0.0282	-0.284
Mof_C 	C 	0.2381	0.4102	0.038	0.072
Mof_H 	H 	0.2223	0.441	0.036	-0.048
Mof_N 	N 	0.3822	0.4522	0.1503	-0.068
Mof_C 	C 	0.3505	0.4336	0.1277	0.063
Mof_H 	H 	0.3141	0.4129	0.128	-0.038
Mof_N 	N 	0.3813	0.4506	0.1044	-0.125
Mof_C 	C 	0.4322	0.4796	0.1127	0.051
Mof_H 	H 	0.4614	0.496	0.101	-0.012
Mof_N 	N 	0.4327	0.4806	0.141	-0.099
Mof_Zn	Zn	0.36915	0.44025	0.06422	1.165
Mof_Zn	Zn	0.36849	0.44104	0.18972	1.158
Mof_Zn	Zn	0.12236	0.37174	0.24758	1.171
Mof_C 	C 	0.3574	0.5297	0.0288	0.138
Mof_H 	H 	0.3162	0.5214	0.021	-0.036
Mof_N 	N 	0.3922	0.5042	0.0467	-0.149
Mof_N 	N 	0.4475	0.5277	0.0529	-0.12
Mof_C 	C 	0.4469	0.5678	0.0388	0.019
Mof_H 	H 	0.4799	0.5911	0.0392	-0.011
Mof_N 	N 	0.3912	0.569	0.0239	-0.191
Mof_N 	N 	0.3908	0.4438	0.1494	-0.171
Mof_C 	C 	0.3515	0.4442	0.1267	-0.007
Mof_H 	H 	0.3047	0.4451	0.1266	-0.035
Mof_N 	N 	0.3915	0.443	0.1042	-0.15
Mof_C 	C 	0.4555	0.4419	0.113	-0.005
Mof_H 	H 	0.4935	0.441	0.1017	0.001
Mof_N 	N 	0.4551	0.4424	0.1409	-0.088
Mof_C 	C 	0.3757	0.5221	0.9952	-0.007
Mof_H 	H 	0.3762	0.526	0.976	0.001
Mof_N 	N 	0.3745	0.4802	0.0089	-0.112
Mof_N 	N 	0.3742	0.4895	0.0366	-0.19
Mof_C 	C 	0.3753	0.5371	0.04	0.114
Mof_H 	H 	0.3754	0.5531	0.0569	-0.031
Mof_N 	N 	0.3763	0.5572	0.0144	-0.168
Mof_C 	C 	0.1251	0.7916	0.28792	0.094
Mof_H 	H 	0.124	0.8063	0.3052	-0.058
Mof_N 	N 	0.1266	0.8133	0.26322	-0.302
Mof_C 	C 	0.128	0.7801	0.24345	0.067
Mof_H 	H 	0.1292	0.7854	0.2243	-0.041
Mof_N 	N 	0.1274	0.7378	0.2559	-0.122
Mof_N 	N 	0.1256	0.7449	0.2834	-0.264
Mof_N 	N 	0.9556	0.8534	0.2013	-0.266
Mof_N 	N 	0.9494	0.9005	0.2034	-0.246
Mof_C 	C 	0.0029	0.9169	0.2175	0.079
Mof_H 	H 	0.0114	0.9484	0.2219	-0.036
Mof_N 	N 	0.0421	0.8798	0.224	-0.287
Mof_C 	C 	0.0128	0.8406	0.214	0.071
Mof_H 	H 	0.0293	0.8099	0.2156	-0.052
Mof_N 	N 	0.9551	0.8528	0.0514	-0.266
Mof_N 	N 	0.9498	0.9004	0.0498	-0.244
Mof_C 	C 	0.0033	0.9167	0.0355	0.082
Mof_H 	H 	0.0122	0.9483	0.0313	-0.019
Mof_N 	N 	0.0417	0.8793	0.0282	-0.284
Mof_C 	C 	0.0119	0.8398	0.038	0.072
Mof_H 	H 	0.0277	0.809	0.036	-0.048
Mof_N 	N 	0.8678	0.7978	0.1503	-0.068
Mof_C 	C 	0.8995	0.8164	0.1277	0.063
Mof_H 	H 	0.9359	0.8371	0.128	-0.038
Mof_N 	N 	0.8687	0.7994	0.1044	-0.125
Mof_C 	C 	0.8178	0.7704	0.1127	0.051
Mof_H 	H 	0.7886	0.754	0.101	-0.012
Mof_N 	N 	0.8173	0.7694	0.141	-0.099
Mof_Zn	Zn	0.88085	0.80975	0.06422	1.164
Mof_Zn	Zn	0.88151	0.80896	0.18972	1.158
Mof_Zn	Zn	0.12764	0.87826	0.24758	1.171
Mof_C 	C 	0.8926	0.7203	0.0288	0.138
Mof_H 	H 	0.9338	0.7286	0.021	-0.036
Mof_N 	N 	0.8578	0.7458	0.0467	-0.149
Mof_N 	N 	0.8025	0.7223	0.0529	-0.12
Mof_C 	C 	0.8031	0.6822	0.0388	0.019
Mof_H 	H 	0.7701	0.6589	0.0392	-0.011
Mof_N 	N 	0.8588	0.681	0.0239	-0.191
Mof_N 	N 	0.8592	0.8062	0.1494	-0.171
Mof_C 	C 	0.8985	0.8058	0.1267	-0.007
Mof_H 	H 	0.9453	0.8049	0.1266	-0.035
Mof_N 	N 	0.8585	0.807	0.1042	-0.15
Mof_C 	C 	0.7945	0.8081	0.113	-0.005
Mof_H 	H 	0.7565	0.809	0.1017	0.001
Mof_N 	N 	0.7949	0.8076	0.1409	-0.088
Mof_C 	C 	0.8743	0.7279	0.9952	-0.008
Mof_H 	H 	0.8738	0.724	0.976	0.001
Mof_N 	N 	0.8755	0.7698	0.0089	-0.112
Mof_N 	N 	0.8758	0.7605	0.0366	-0.19
Mof_C 	C 	0.8747	0.7129	0.04	0.114
Mof_H 	H 	0.8746	0.6969	0.0569	-0.031
Mof_N 	N 	0.8737	0.6928	0.0144	-0.168
Mof_C 	C 	0.1251	0.2916	0.78792	0.095
Mof_H 	H 	0.124	0.3063	0.8052	-0.058
Mof_N 	N 	0.1266	0.3133	0.76322	-0.302
Mof_C 	C 	0.128	0.2801	0.74345	0.067
Mof_H 	H 	0.1292	0.2854	0.7243	-0.041
Mof_N 	N 	0.1274	0.2378	0.7559	-0.122
Mof_N 	N 	0.1256	0.2449	0.7834	-0.264
Mof_N 	N 	0.9556	0.3534	0.7013	-0.266
Mof_N 	N 	0.9494	0.4005	0.7034	-0.246
Mof_C 	C 	0.0029	0.4169	0.7175	0.079
Mof_H 	H 	0.0114	0.4484	0.7219	-0.036
Mof_N 	N 	0.0421	0.3798	0.724	-0.287
Mof_C 	C 	0.0128	0.3406	0.714	0.071
Mof_H 	H 	0.0293	0.3099	0.7156	-0.052
Mof_N 	N 	0.9551	0.3528	0.5514	-0.266
Mof_N 	N 	0.9498	0.4004	0.5498	-0.244
Mof_C 	C 	0.0033	0.4167	0.5355	0.082
Mof_H 	H 	0.0122	0.4483	0.5313	-0.019
Mof_N 	N 	0.0417	0.3793	0.5282	-0.284
Mof_C 	C 	0.0119	0.3398	0.538	0.072
Mof_H 	H 	0.0277	0.309	0.536	-0.048
Mof_N 	N 	0.8678	0.2978	0.6503	-0.068
Mof_C 	C 	0.8995	0.3164	0.6277	0.063
Mof_H 	H 	0.9359	0.3371	0.628	-0.038
Mof_N 	N 	0.8687	0.2994	0.6044	-0.125
Mof_C 	C 	0.8178	0.2704	0.6127	0.051
Mof_H 	H 	0.7886	0.254	0.601	-0.012
Mof_N 	N 	0.8173	0.2694	0.641	-0.099
Mof_Zn	Zn	0.88085	0.30975	0.56422	1.164
Mof_Zn	Zn	0.88151	0.30896	0.68972	1.158
Mof_Zn	Zn	0.12764	0.37826	0.74758	1.171
Mof_C 	C 	0.8926	0.2203	0.5288	0.138
Mof_H 	H 	0.9338	0.2286	0.521	-0.036
Mof_N 	N 	0.8578	0.2458	0.5467	-0.149
Mof_N 	N 	0.8025	0.2223	0.5529	-0.12
Mof_C 	C 	0.8031	0.1822	0.5388	0.019
Mof_H 	H 	0.7701	0.1589	0.5392	-0.011
Mof_N 	N 	0.8588	0.181	0.5239	-0.191
Mof_N 	N 	0.8592	0.3062	0.6494	-0.171
Mof_C 	C 	0.8985	0.3058	0.6267	-0.007
Mof_H 	H 	0.9453	0.3049	0.6266	-0.035
Mof_N 	N 	0.8585	0.307	0.6042	-0.15
Mof_C 	C 	0.7945	0.3081	0.613	-0.005
Mof_H 	H 	0.7565	0.309	0.6017	0.001
Mof_N 	N 	0.7949	0.3076	0.6409	-0.088
Mof_C 	C 	0.8743	0.2279	0.4952	-0.008
Mof_H 	H 	0.8738	0.224	0.476	0.001
Mof_N 	N 	0.8755	0.2698	0.5089	-0.112
Mof_N 	N 	0.8758	0.2605	0.5366	-0.19
Mof_C 	C 	0.8747	0.2129	0.54	0.114
Mof_H 	H 	0.8746	0.1969	0.5569	-0.031
Mof_N 	N 	0.8737	0.1928	0.5144	-0.168
Mof_C 	C 	0.6251	0.7916	0.78792	0.095
Mof_H 	H 	0.624	0.8063	0.8052	-0.058
Mof_N 	N 	0.6266	0.8133	0.76322	-0.302
Mof_C 	C 	0.628	0.7801	0.74345	0.067
Mof_H 	H 	0.6292	0.7854	0.7243	-0.041
Mof_N 	N 	0.6274	0.7378	0.7559	-0.122
Mof_N 	N 	0.6256	0.7449	0.7834	-0.264
Mof_N 	N 	0.4556	0.8534	0.7013	-0.266
Mof_N 	N 	0.4494	0.9005	0.7034	-0.246
Mof_C 	C 	0.5029	0.9169	0.7175	0.079
Mof_H 	H 	0.5114	0.9484	0.7219	-0.036
Mof_N 	N 	0.5421	0.8798	0.724	-0.287
Mof_C 	C 	0.5128	0.8406	0.714	0.071
Mof_H 	H 	0.5293	0.8099	0.7156	-0.052
Mof_N 	N 	0.4551	0.8528	0.5514	-0.266
Mof_N 	N 	0.4498	0.9004	0.5498	-0.244
Mof_C 	C 	0.5033	0.9167	0.5355	0.082
Mof_H 	H 	0.5122	0.9483	0.5313	-0.019
Mof_N 	N 	0.5417	0.8793	0.5282	-0.284
Mof_C 	C 	0.5119	0.8398	0.538	0.072
Mof_H 	H 	0.5277	0.809	0.536	-0.048
Mof_N 	N 	0.3678	0.7978	0.6503	-0.068
Mof_C 	C 	0.3995	0.8164	0.6277	0.063
Mof_H 	H 	0.4359	0.8371	0.628	-0.038
Mof_N 	N 	0.3687	0.7994	0.6044	-0.125
Mof_C 	C 	0.3178	0.7704	0.6127	0.051
Mof_H 	H 	0.2886	0.754	0.601	-0.012
Mof_N 	N 	0.3173	0.7694	0.641	-0.099
Mof_Zn	Zn	0.38085	0.80975	0.56422	1.165
Mof_Zn	Zn	0.38151	0.80896	0.68972	1.158
Mof_Zn	Zn	0.62764	0.87826	0.74758	1.172
Mof_C 	C 	0.3926	0.7203	0.5288	0.138
Mof_H 	H 	0.4338	0.7286	0.521	-0.036
Mof_N 	N 	0.3578	0.7458	0.5467	-0.149
Mof_N 	N 	0.3025	0.7223	0.5529	-0.12
Mof_C 	C 	0.3031	0.6822	0.5388	0.019
Mof_H 	H 	0.2701	0.6589	0.5392	-0.011
Mof_N 	N 	0.3588	0.681	0.5239	-0.191
Mof_N 	N 	0.3592	0.8062	0.6494	-0.171
Mof_C 	C 	0.3985	0.8058	0.6267	-0.007
Mof_H 	H 	0.4453	0.8049	0.6266	-0.035
Mof_N 	N 	0.3585	0.807	0.6042	-0.15
Mof_C 	C 	0.2945	0.8081	0.613	-0.005
Mof_H 	H 	0.2565	0.809	0.6017	0.001
Mof_N 	N 	0.2949	0.8076	0.6409	-0.088
Mof_C 	C 	0.3743	0.7279	0.4952	-0.008
Mof_H 	H 	0.3738	0.724	0.476	0.001
Mof_N 	N 	0.3755	0.7698	0.5089	-0.112
Mof_N 	N 	0.3758	0.7605	0.5366	-0.19
Mof_C 	C 	0.3747	0.7129	0.54	0.114
Mof_H 	H 	0.3746	0.6969	0.5569	-0.031
Mof_N 	N 	0.3737	0.6928	0.5144	-0.168
Mof_C 	C 	0.6251	0.2916	0.28792	0.095
Mof_H 	H 	0.624	0.3063	0.3052	-0.058
Mof_N 	N 	0.6266	0.3133	0.26322	-0.302
Mof_C 	C 	0.628	0.2801	0.24345	0.067
Mof_H 	H 	0.6292	0.2854	0.2243	-0.041
Mof_N 	N 	0.6274	0.2378	0.2559	-0.122
Mof_N 	N 	0.6256	0.2449	0.2834	-0.264
Mof_N 	N 	0.4556	0.3534	0.2013	-0.266
Mof_N 	N 	0.4494	0.4005	0.2034	-0.246
Mof_C 	C 	0.5029	0.4169	0.2175	0.079
Mof_H 	H 	0.5114	0.4484	0.2219	-0.036
Mof_N 	N 	0.5421	0.3798	0.224	-0.287
Mof_C 	C 	0.5128	0.3406	0.214	0.071
Mof_H 	H 	0.5293	0.3099	0.2156	-0.052
Mof_N 	N 	0.4551	0.3528	0.0514	-0.266
Mof_N 	N 	0.4498	0.4004	0.0498	-0.244
Mof_C 	C 	0.5033	0.4167	0.0355	0.082
Mof_H 	H 	0.5122	0.4483	0.0313	-0.019
Mof_N 	N 	0.5417	0.3793	0.0282	-0.284
Mof_C 	C 	0.5119	0.3398	0.038	0.072
Mof_H 	H 	0.5277	0.309	0.036	-0.048
Mof_N 	N 	0.3678	0.2978	0.1503	-0.068
Mof_C 	C 	0.3995	0.3164	0.1277	0.063
Mof_H 	H 	0.4359	0.3371	0.128	-0.038
Mof_N 	N 	0.3687	0.2994	0.1044	-0.125
Mof_C 	C 	0.3178	0.2704	0.1127	0.051
Mof_H 	H 	0.2886	0.254	0.101	-0.012
Mof_N 	N 	0.3173	0.2694	0.141	-0.099
Mof_Zn	Zn	0.38085	0.30975	0.06422	1.165
Mof_Zn	Zn	0.38151	0.30896	0.18972	1.158
Mof_Zn	Zn	0.62764	0.37826	0.24758	1.172
Mof_C 	C 	0.3926	0.2203	0.0288	0.138
Mof_H 	H 	0.4338	0.2286	0.021	-0.036
Mof_N 	N 	0.3578	0.2458	0.0467	-0.149
Mof_N 	N 	0.3025	0.2223	0.0529	-0.12
Mof_C 	C 	0.3031	0.1822	0.0388	0.019
Mof_H 	H 	0.2701	0.1589	0.0392	-0.011
Mof_N 	N 	0.3588	0.181	0.0239	-0.191
Mof_N 	N 	0.3592	0.3062	0.1494	-0.171
Mof_C 	C 	0.3985	0.3058	0.1267	-0.007
Mof_H 	H 	0.4453	0.3049	0.1266	-0.035
Mof_N 	N 	0.3585	0.307	0.1042	-0.15
Mof_C 	C 	0.2945	0.3081	0.113	-0.005
Mof_H 	H 	0.2565	0.309	0.1017	0.001
Mof_N 	N 	0.2949	0.3076	0.1409	-0.088
Mof_C 	C 	0.3743	0.2279	0.9952	-0.008
Mof_H 	H 	0.3738	0.224	0.976	0.001
Mof_N 	N 	0.3755	0.2698	0.0089	-0.112
Mof_N 	N 	0.3758	0.2605	0.0366	-0.19
Mof_C 	C 	0.3747	0.2129	0.04	0.114
Mof_H 	H 	0.3746	0.1969	0.0569	-0.031
Mof_N 	N 	0.3737	0.1928	0.0144	-0.168
Mof_C 	C 	0.1251	0.9584	0.46208	0.094
Mof_H 	H 	0.124	0.9437	0.4448	-0.058
Mof_N 	N 	0.1266	0.9367	0.48678	-0.302
Mof_C 	C 	0.128	0.9699	0.50655	0.067
Mof_H 	H 	0.1292	0.9646	0.5257	-0.041
Mof_N 	N 	0.1274	0.0122	0.4941	-0.122
Mof_N 	N 	0.1256	0.0051	0.4666	-0.264
Mof_N 	N 	0.9556	0.8966	0.5487	-0.266
Mof_N 	N 	0.9494	0.8495	0.5466	-0.246
Mof_C 	C 	0.0029	0.8331	0.5325	0.079
Mof_H 	H 	0.0114	0.8016	0.5281	-0.036
Mof_N 	N 	0.0421	0.8702	0.526	-0.287
Mof_C 	C 	0.0128	0.9094	0.536	0.071
Mof_H 	H 	0.0293	0.9401	0.5344	-0.052
Mof_N 	N 	0.9551	0.8972	0.6986	-0.266
Mof_N 	N 	0.9498	0.8496	0.7002	-0.244
Mof_C 	C 	0.0033	0.8333	0.7145	0.082
Mof_H 	H 	0.0122	0.8017	0.7187	-0.019
Mof_N 	N 	0.0417	0.8707	0.7218	-0.284
Mof_C 	C 	0.0119	0.9102	0.712	0.072
Mof_H 	H 	0.0277	0.941	0.714	-0.048
Mof_N 	N 	0.8678	0.9522	0.5997	-0.068
Mof_C 	C 	0.8995	0.9336	0.6223	0.063
Mof_H 	H 	0.9359	0.9129	0.622	-0.038
Mof_N 	N 	0.8687	0.9506	0.6456	-0.125
Mof_C 	C 	0.8178	0.9796	0.6373	0.051
Mof_H 	H 	0.7886	0.996	0.649	-0.012
Mof_N 	N 	0.8173	0.9806	0.609	-0.099
Mof_Zn	Zn	0.88085	0.94025	0.68578	1.164
Mof_Zn	Zn	0.88151	0.94104	0.56028	1.158
Mof_Zn	Zn	0.12764	0.87174	0.50242	1.171
Mof_C 	C 	0.8926	0.0297	0.7212	0.138
Mof_H 	H 	0.9338	0.0214	0.729	-0.036
Mof_N 	N 	0.8578	0.0042	0.7033	-0.149
Mof_N 	N 	0.8025	0.0277	0.6971	-0.12
Mof_C 	C 	0.8031	0.0678	0.7112	0.019
Mof_H 	H 	0.7701	0.0911	0.7108	-0.011
Mof_N 	N 	0.8588	0.069	0.7261	-0.191
Mof_N 	N 	0.8592	0.9438	0.6006	-0.171
Mof_C 	C 	0.8985	0.9442	0.6233	-0.007
Mof_H 	H 	0.9453	0.9451	0.6234	-0.035
Mof_N 	N 	0.8585	0.943	0.6458	-0.15
Mof_C 	C 	0.7945	0.9419	0.637	-0.005
Mof_H 	H 	0.7565	0.941	0.6483	0.001
Mof_N 	N 	0.7949	0.9424	0.6091	-0.088
Mof_C 	C 	0.8743	0.0221	0.7548	-0.008
Mof_H 	H 	0.8738	0.026	0.774	0.001
Mof_N 	N 	0.8755	0.9802	0.7411	-0.112
Mof_N 	N 	0.8758	0.9895	0.7134	-0.19
Mof_C 	C 	0.8747	0.0371	0.71	0.114
Mof_H 	H 	0.8746	0.0531	0.6931	-0.031
Mof_N 	N 	0.8737	0.0572	0.7356	-0.168
Mof_C 	C 	0.1251	0.4584	0.96208	0.095
Mof_H 	H 	0.124	0.4437	0.9448	-0.058
Mof_N 	N 	0.1266	0.4367	0.98678	-0.302
Mof_C 	C 	0.128	0.4699	0.00655	0.067
Mof_H 	H 	0.1292	0.4646	0.0257	-0.041
Mof_N 	N 	0.1274	0.5122	0.9941	-0.122
Mof_N 	N 	0.1256	0.5051	0.9666	-0.264
Mof_N 	N 	0.9556	0.3966	0.0487	-0.266
Mof_N 	N 	0.9494	0.3495	0.0466	-0.246
Mof_C 	C 	0.0029	0.3331	0.0325	0.079
Mof_H 	H 	0.0114	0.3016	0.0281	-0.036
Mof_N 	N 	0.0421	0.3702	0.026	-0.287
Mof_C 	C 	0.0128	0.4094	0.036	0.071
Mof_H 	H 	0.0293	0.4401	0.0344	-0.052
Mof_N 	N 	0.9551	0.3972	0.1986	-0.266
Mof_N 	N 	0.9498	0.3496	0.2002	-0.244
Mof_C 	C 	0.0033	0.3333	0.2145	0.082
Mof_H 	H 	0.0122	0.3017	0.2187	-0.019
Mof_N 	N 	0.0417	0.3707	0.2218	-0.284
Mof_C 	C 	0.0119	0.4102	0.212	0.072
Mof_H 	H 	0.0277	0.441	0.214	-0.048
Mof_N 	N 	0.8678	0.4522	0.0997	-0.068
Mof_C 	C 	0.8995	0.4336	0.1223	0.063
Mof_H 	H 	0.9359	0.4129	0.122	-0.038
Mof_N 	N 	0.8687	0.4506	0.1456	-0.125
Mof_C 	C 	0.8178	0.4796	0.1373	0.051
Mof_H 	H 	0.7886	0.496	0.149	-0.012
Mof_N 	N 	0.8173	0.4806	0.109	-0.099
Mof_Zn	Zn	0.88085	0.44025	0.18578	1.164
Mof_Zn	Zn	0.88151	0.44104	0.06028	1.158
Mof_Zn	Zn	0.12764	0.37174	0.00242	1.171
Mof_C 	C 	0.8926	0.5297	0.2212	0.138
Mof_H 	H 	0.9338	0.5214	0.229	-0.036
Mof_N 	N 	0.8578	0.5042	0.2033	-0.149
Mof_N 	N 	0.8025	0.5277	0.1971	-0.12
Mof_C 	C 	0.8031	0.5678	0.2112	0.019
Mof_H 	H 	0.7701	0.5911	0.2108	-0.011
Mof_N 	N 	0.8588	0.569	0.2261	-0.191
Mof_N 	N 	0.8592	0.4438	0.1006	-0.171
Mof_C 	C 	0.8985	0.4442	0.1233	-0.007
Mof_H 	H 	0.9453	0.4451	0.1234	-0.035
Mof_N 	N 	0.8585	0.443	0.1458	-0.15
Mof_C 	C 	0.7945	0.4419	0.137	-0.005
Mof_H 	H 	0.7565	0.441	0.1483	0.001
Mof_N 	N 	0.7949	0.4424	0.1091	-0.088
Mof_C 	C 	0.8743	0.5221	0.2548	-0.008
Mof_H 	H 	0.8738	0.526	0.274	0.001
Mof_N 	N 	0.8755	0.4802	0.2411	-0.112
Mof_N 	N 	0.8758	0.4895	0.2134	-0.19
Mof_C 	C 	0.8747	0.5371	0.21	0.114
Mof_H 	H 	0.8746	0.5531	0.1931	-0.031
Mof_N 	N 	0.8737	0.5572	0.2356	-0.168
Mof_C 	C 	0.6251	0.9584	0.96208	0.095
Mof_H 	H 	0.624	0.9437	0.9448	-0.058
Mof_N 	N 	0.6266	0.9367	0.98678	-0.302
Mof_C 	C 	0.628	0.9699	0.00655	0.067
Mof_H 	H 	0.6292	0.9646	0.0257	-0.041
Mof_N 	N 	0.6274	0.0122	0.9941	-0.122
Mof_N 	N 	0.6256	0.0051	0.9666	-0.264
Mof_N 	N 	0.4556	0.8966	0.0487	-0.266
Mof_N 	N 	0.4494	0.8495	0.0466	-0.246
Mof_C 	C 	0.5029	0.8331	0.0325	0.079
Mof_H 	H 	0.5114	0.8016	0.0281	-0.036
Mof_N 	N 	0.5421	0.8702	0.026	-0.287
Mof_C 	C 	0.5128	0.9094	0.036	0.071
Mof_H 	H 	0.5293	0.9401	0.0344	-0.052
Mof_N 	N 	0.4551	0.8972	0.1986	-0.266
Mof_N 	N 	0.4498	0.8496	0.2002	-0.244
Mof_C 	C 	0.5033	0.8333	0.2145	0.082
Mof_H 	H 	0.5122	0.8017	0.2187	-0.019
Mof_N 	N 	0.5417	0.8707	0.2218	-0.284
Mof_C 	C 	0.5119	0.9102	0.212	0.072
Mof_H 	H 	0.5277	0.941	0.214	-0.048
Mof_N 	N 	0.3678	0.9522	0.0997	-0.068
Mof_C 	C 	0.3995	0.9336	0.1223	0.063
Mof_H 	H 	0.4359	0.9129	0.122	-0.038
Mof_N 	N 	0.3687	0.9506	0.1456	-0.125
Mof_C 	C 	0.3178	0.9796	0.1373	0.051
Mof_H 	H 	0.2886	0.996	0.149	-0.012
Mof_N 	N 	0.3173	0.9806	0.109	-0.099
Mof_Zn	Zn	0.38085	0.94025	0.18578	1.164
Mof_Zn	Zn	0.38151	0.94104	0.06028	1.158
Mof_Zn	Zn	0.62764	0.87174	0.00242	1.172
Mof_C 	C 	0.3926	0.0297	0.2212	0.138
Mof_H 	H 	0.4338	0.0214	0.229	-0.036
Mof_N 	N 	0.3578	0.0042	0.2033	-0.149
Mof_N 	N 	0.3025	0.0277	0.1971	-0.12
Mof_C 	C 	0.3031	0.0678	0.2112	0.019
Mof_H 	H 	0.2701	0.0911	0.2108	-0.011
Mof_N 	N 	0.3588	0.069	0.2261	-0.191
Mof_N 	N 	0.3592	0.9438	0.1006	-0.171
Mof_C 	C 	0.3985	0.9442	0.1233	-0.007
Mof_H 	H 	0.4453	0.9451	0.1234	-0.035
Mof_N 	N 	0.3585	0.943	0.1458	-0.15
Mof_C 	C 	0.2945	0.9419	0.137	-0.005
Mof_H 	H 	0.2565	0.941	0.1483	0.001
Mof_N 	N 	0.2949	0.9424	0.1091	-0.088
Mof_C 	C 	0.3743	0.0221	0.2548	-0.008
Mof_H 	H 	0.3738	0.026	0.274	0.001
Mof_N 	N 	0.3755	0.9802	0.2411	-0.112
Mof_N 	N 	0.3758	0.9895	0.2134	-0.19
Mof_C 	C 	0.3747	0.0371	0.21	0.114
Mof_H 	H 	0.3746	0.0531	0.1931	-0.031
Mof_N 	N 	0.3737	0.0572	0.2356	-0.168
Mof_C 	C 	0.6251	0.4584	0.46208	0.095
Mof_H 	H 	0.624	0.4437	0.4448	-0.058
Mof_N 	N 	0.6266	0.4367	0.48678	-0.302
Mof_C 	C 	0.628	0.4699	0.50655	0.067
Mof_H 	H 	0.6292	0.4646	0.5257	-0.041
Mof_N 	N 	0.6274	0.5122	0.4941	-0.122
Mof_N 	N 	0.6256	0.5051	0.4666	-0.264
Mof_N 	N 	0.4556	0.3966	0.5487	-0.266
Mof_N 	N 	0.4494	0.3495	0.5466	-0.246
Mof_C 	C 	0.5029	0.3331	0.5325	0.079
Mof_H 	H 	0.5114	0.3016	0.5281	-0.036
Mof_N 	N 	0.5421	0.3702	0.526	-0.287
Mof_C 	C 	0.5128	0.4094	0.536	0.071
Mof_H 	H 	0.5293	0.4401	0.5344	-0.052
Mof_N 	N 	0.4551	0.3972	0.6986	-0.266
Mof_N 	N 	0.4498	0.3496	0.7002	-0.244
Mof_C 	C 	0.5033	0.3333	0.7145	0.082
Mof_H 	H 	0.5122	0.3017	0.7187	-0.019
Mof_N 	N 	0.5417	0.3707	0.7218	-0.284
Mof_C 	C 	0.5119	0.4102	0.712	0.072
Mof_H 	H 	0.5277	0.441	0.714	-0.048
Mof_N 	N 	0.3678	0.4522	0.5997	-0.068
Mof_C 	C 	0.3995	0.4336	0.6223	0.063
Mof_H 	H 	0.4359	0.4129	0.622	-0.038
Mof_N 	N 	0.3687	0.4506	0.6456	-0.125
Mof_C 	C 	0.3178	0.4796	0.6373	0.051
Mof_H 	H 	0.2886	0.496	0.649	-0.012
Mof_N 	N 	0.3173	0.4806	0.609	-0.099
Mof_Zn	Zn	0.38085	0.44025	0.68578	1.165
Mof_Zn	Zn	0.38151	0.44104	0.56028	1.158
Mof_Zn	Zn	0.62764	0.37174	0.50242	1.172
Mof_C 	C 	0.3926	0.5297	0.7212	0.138
Mof_H 	H 	0.4338	0.5214	0.729	-0.036
Mof_N 	N 	0.3578	0.5042	0.7033	-0.149
Mof_N 	N 	0.3025	0.5277	0.6971	-0.12
Mof_C 	C 	0.3031	0.5678	0.7112	0.019
Mof_H 	H 	0.2701	0.5911	0.7108	-0.011
Mof_N 	N 	0.3588	0.569	0.7261	-0.191
Mof_N 	N 	0.3592	0.4438	0.6006	-0.171
Mof_C 	C 	0.3985	0.4442	0.6233	-0.007
Mof_H 	H 	0.4453	0.4451	0.6234	-0.035
Mof_N 	N 	0.3585	0.443	0.6458	-0.15
Mof_C 	C 	0.2945	0.4419	0.637	-0.005
Mof_H 	H 	0.2565	0.441	0.6483	0.001
Mof_N 	N 	0.2949	0.4424	0.6091	-0.088
Mof_C 	C 	0.3743	0.5221	0.7548	-0.008
Mof_H 	H 	0.3738	0.526	0.774	0.001
Mof_N 	N 	0.3755	0.4802	0.7411	-0.112
Mof_N 	N 	0.3758	0.4895	0.7134	-0.19
Mof_C 	C 	0.3747	0.5371	0.71	0.114
Mof_H 	H 	0.3746	0.5531	0.6931	-0.031
Mof_N 	N 	0.3737	0.5572	0.7356	-0.168
Mof_C 	C 	0.6249	0.7916	0.46208	0.095
Mof_H 	H 	0.626	0.8063	0.4448	-0.058
Mof_N 	N 	0.6234	0.8133	0.48678	-0.302
Mof_C 	C 	0.622	0.7801	0.50655	0.067
Mof_H 	H 	0.6208	0.7854	0.5257	-0.041
Mof_N 	N 	0.6226	0.7378	0.4941	-0.122
Mof_N 	N 	0.6244	0.7449	0.4666	-0.264
Mof_N 	N 	0.7944	0.8534	0.5487	-0.266
Mof_N 	N 	0.8006	0.9005	0.5466	-0.246
Mof_C 	C 	0.7471	0.9169	0.5325	0.079
Mof_H 	H 	0.7386	0.9484	0.5281	-0.036
Mof_N 	N 	0.7079	0.8798	0.526	-0.287
Mof_C 	C 	0.7372	0.8406	0.536	0.071
Mof_H 	H 	0.7207	0.8099	0.5344	-0.052
Mof_N 	N 	0.7949	0.8528	0.6986	-0.266
Mof_N 	N 	0.8002	0.9004	0.7002	-0.244
Mof_C 	C 	0.7467	0.9167	0.7145	0.082
Mof_H 	H 	0.7378	0.9483	0.7187	-0.019
Mof_N 	N 	0.7083	0.8793	0.7218	-0.284
Mof_C 	C 	0.7381	0.8398	0.712	0.072
Mof_H 	H 	0.7223	0.809	0.714	-0.048
Mof_N 	N 	0.8822	0.7978	0.5997	-0.068
Mof_C 	C 	0.8505	0.8164	0.6223	0.063
Mof_H 	H 	0.8141	0.8371	0.622	-0.038
Mof_N 	N 	0.8813	0.7994	0.6456	-0.125
Mof_C 	C 	0.9322	0.7704	0.6373	0.051
Mof_H 	H 	0.9614	0.754	0.649	-0.012
Mof_N 	N 	0.9327	0.7694	0.609	-0.099
Mof_Zn	Zn	0.86915	0.80975	0.68578	1.165
Mof_Zn	Zn	0.86849	0.80896	0.56028	1.158
Mof_Zn	Zn	0.62236	0.87826	0.50242	1.172
Mof_C 	C 	0.8574	0.7203	0.7212	0.138
Mof_H 	H 	0.8162	0.7286	0.729	-0.036
Mof_N 	N 	0.8922	0.7458	0.7033	-0.149
Mof_N 	N 	0.9475	0.7223	0.6971	-0.12
Mof_C 	C 	0.9469	0.6822	0.7112	0.019
Mof_H 	H 	0.9799	0.6589	0.7108	-0.011
Mof_N 	N 	0.8912	0.681	0.7261	-0.191
Mof_N 	N 	0.8908	0.8062	0.6006	-0.171
Mof_C 	C 	0.8515	0.8058	0.6233	-0.007
Mof_H 	H 	0.8047	0.8049	0.6234	-0.035
Mof_N 	N 	0.8915	0.807	0.6458	-0.15
Mof_C 	C 	0.9555	0.8081	0.637	-0.005
Mof_H 	H 	0.9935	0.809	0.6483	0.001
Mof_N 	N 	0.9551	0.8076	0.6091	-0.088
Mof_C 	C 	0.8757	0.7279	0.7548	-0.008
Mof_H 	H 	0.8762	0.724	0.774	0.001
Mof_N 	N 	0.8745	0.7698	0.7411	-0.112
Mof_N 	N 	0.8742	0.7605	0.7134	-0.19
Mof_C 	C 	0.8753	0.7129	0.71	0.114
Mof_H 	H 	0.8754	0.6969	0.6931	-0.031
Mof_N 	N 	0.8763	0.6928	0.7356	-0.168
Mof_C 	C 	0.6249	0.2916	0.96208	0.095
Mof_H 	H 	0.626	0.3063	0.9448	-0.058
Mof_N 	N 	0.6234	0.3133	0.98678	-0.302
Mof_C 	C 	0.622	0.2801	0.00655	0.067
Mof_H 	H 	0.6208	0.2854	0.0257	-0.041
Mof_N 	N 	0.6226	0.2378	0.9941	-0.122
Mof_N 	N 	0.6244	0.2449	0.9666	-0.264
Mof_N 	N 	0.7944	0.3534	0.0487	-0.266
Mof_N 	N 	0.8006	0.4005	0.0466	-0.246
Mof_C 	C 	0.7471	0.4169	0.0325	0.079
Mof_H 	H 	0.7386	0.4484	0.0281	-0.036
Mof_N 	N 	0.7079	0.3798	0.026	-0.287
Mof_C 	C 	0.7372	0.3406	0.036	0.071
Mof_H 	H 	0.7207	0.3099	0.0344	-0.052
Mof_N 	N 	0.7949	0.3528	0.1986	-0.266
Mof_N 	N 	0.8002	0.4004	0.2002	-0.244
Mof_C 	C 	0.7467	0.4167	0.2145	0.082
Mof_H 	H 	0.7378	0.4483	0.2187	-0.019
Mof_N 	N 	0.7083	0.3793	0.2218	-0.284
Mof_C 	C 	0.7381	0.3398	0.212	0.072
Mof_H 	H 	0.7223	0.309	0.214	-0.048
Mof_N 	N 	0.8822	0.2978	0.0997	-0.068
Mof_C 	C 	0.8505	0.3164	0.1223	0.063
Mof_H 	H 	0.8141	0.3371	0.122	-0.038
Mof_N 	N 	0.8813	0.2994	0.1456	-0.125
Mof_C 	C 	0.9322	0.2704	0.1373	0.051
Mof_H 	H 	0.9614	0.254	0.149	-0.012
Mof_N 	N 	0.9327	0.2694	0.109	-0.099
Mof_Zn	Zn	0.86915	0.30975	0.18578	1.165
Mof_Zn	Zn	0.86849	0.30896	0.06028	1.158
Mof_Zn	Zn	0.62236	0.37826	0.00242	1.172
Mof_C 	C 	0.8574	0.2203	0.2212	0.138
Mof_H 	H 	0.8162	0.2286	0.229	-0.036
Mof_N 	N 	0.8922	0.2458	0.2033	-0.149
Mof_N 	N 	0.9475	0.2223	0.1971	-0.12
Mof_C 	C 	0.9469	0.1822	0.2112	0.019
Mof_H 	H 	0.9799	0.1589	0.2108	-0.011
Mof_N 	N 	0.8912	0.181	0.2261	-0.191
Mof_N 	N 	0.8908	0.3062	0.1006	-0.171
Mof_C 	C 	0.8515	0.3058	0.1233	-0.007
Mof_H 	H 	0.8047	0.3049	0.1234	-0.035
Mof_N 	N 	0.8915	0.307	0.1458	-0.15
Mof_C 	C 	0.9555	0.3081	0.137	-0.005
Mof_H 	H 	0.9935	0.309	0.1483	0.001
Mof_N 	N 	0.9551	0.3076	0.1091	-0.088
Mof_C 	C 	0.8757	0.2279	0.2548	-0.008
Mof_H 	H 	0.8762	0.224	0.274	0.001
Mof_N 	N 	0.8745	0.2698	0.2411	-0.112
Mof_N 	N 	0.8742	0.2605	0.2134	-0.19
Mof_C 	C 	0.8753	0.2129	0.21	0.114
Mof_H 	H 	0.8754	0.1969	0.1931	-0.031
Mof_N 	N 	0.8763	0.1928	0.2356	-0.168
Mof_C 	C 	0.1249	0.7916	0.96208	0.095
Mof_H 	H 	0.126	0.8063	0.9448	-0.058
Mof_N 	N 	0.1234	0.8133	0.98678	-0.302
Mof_C 	C 	0.122	0.7801	0.00655	0.067
Mof_H 	H 	0.1208	0.7854	0.0257	-0.041
Mof_N 	N 	0.1226	0.7378	0.9941	-0.122
Mof_N 	N 	0.1244	0.7449	0.9666	-0.264
Mof_N 	N 	0.2944	0.8534	0.0487	-0.266
Mof_N 	N 	0.3006	0.9005	0.0466	-0.246
Mof_C 	C 	0.2471	0.9169	0.0325	0.079
Mof_H 	H 	0.2386	0.9484	0.0281	-0.036
Mof_N 	N 	0.2079	0.8798	0.026	-0.287
Mof_C 	C 	0.2372	0.8406	0.036	0.071
Mof_H 	H 	0.2207	0.8099	0.0344	-0.052
Mof_N 	N 	0.2949	0.8528	0.1986	-0.266
Mof_N 	N 	0.3002	0.9004	0.2002	-0.244
Mof_C 	C 	0.2467	0.9167	0.2145	0.082
Mof_H 	H 	0.2378	0.9483	0.2187	-0.019
Mof_N 	N 	0.2083	0.8793	0.2218	-0.284
Mof_C 	C 	0.2381	0.8398	0.212	0.072
Mof_H 	H 	0.2223	0.809	0.214	-0.048
Mof_N 	N 	0.3822	0.7978	0.0997	-0.068
Mof_C 	C 	0.3505	0.8164	0.1223	0.063
Mof_H 	H 	0.3141	0.8371	0.122	-0.038
Mof_N 	N 	0.3813	0.7994	0.1456	-0.125
Mof_C 	C 	0.4322	0.7704	0.1373	0.051
Mof_H 	H 	0.4614	0.754	0.149	-0.012
Mof_N 	N 	0.4327	0.7694	0.109	-0.099
Mof_Zn	Zn	0.36915	0.80975	0.18578	1.165
Mof_Zn	Zn	0.36849	0.80896	0.06028	1.158
Mof_Zn	Zn	0.12236	0.87826	0.00242	1.171
Mof_C 	C 	0.3574	0.7203	0.2212	0.138
Mof_H 	H 	0.3162	0.7286	0.229	-0.036
Mof_N 	N 	0.3922	0.7458	0.2033	-0.149
Mof_N 	N 	0.4475	0.7223	0.1971	-0.12
Mof_C 	C 	0.4469	0.6822	0.2112	0.019
Mof_H 	H 	0.4799	0.6589	0.2108	-0.011
Mof_N 	N 	0.3912	0.681	0.2261	-0.191
Mof_N 	N 	0.3908	0.8062	0.1006	-0.171
Mof_C 	C 	0.3515	0.8058	0.1233	-0.007
Mof_H 	H 	0.3047	0.8049	0.1234	-0.035
Mof_N 	N 	0.3915	0.807	0.1458	-0.15
Mof_C 	C 	0.4555	0.8081	0.137	-0.005
Mof_H 	H 	0.4935	0.809	0.1483	0.001
Mof_N 	N 	0.4551	0.8076	0.1091	-0.088
Mof_C 	C 	0.3757	0.7279	0.2548	-0.008
Mof_H 	H 	0.3762	0.724	0.274	0.001
Mof_N 	N 	0.3745	0.7698	0.2411	-0.112
Mof_N 	N 	0.3742	0.7605	0.2134	-0.19
Mof_C 	C 	0.3753	0.7129	0.21	0.114
Mof_H 	H 	0.3754	0.6969	0.1931	-0.031
Mof_N 	N 	0.3763	0.6928	0.2356	-0.168
Mof_C 	C 	0.1249	0.2916	0.46208	0.095
Mof_H 	H 	0.126	0.3063	0.4448	-0.058
Mof_N 	N 	0.1234	0.3133	0.48678	-0.302
Mof_C 	C 	0.122	0.2801	0.50655	0.067
Mof_H 	H 	0.1208	0.2854	0.5257	-0.041
Mof_N 	N 	0.1226	0.2378	0.4941	-0.122
Mof_N 	N 	0.1244	0.2449	0.4666	-0.264
Mof_N 	N 	0.2944	0.3534	0.5487	-0.266
Mof_N 	N 	0.3006	0.4005	0.5466	-0.246
Mof_C 	C 	0.2471	0.4169	0.5325	0.079
Mof_H 	H 	0.2386	0.4484	0.5281	-0.036
Mof_N 	N 	0.2079	0.3798	0.526	-0.287
Mof_C 	C 	0.2372	0.3406	0.536	0.071
Mof_H 	H 	0.2207	0.3099	0.5344	-0.052
Mof_N 	N 	0.2949	0.3528	0.6986	-0.266
Mof_N 	N 	0.3002	0.4004	0.7002	-0.244
Mof_C 	C 	0.2467	0.4167	0.7145	0.082
Mof_H 	H 	0.2378	0.4483	0.7187	-0.019
Mof_N 	N 	0.2083	0.3793	0.7218	-0.284
Mof_C 	C 	0.2381	0.3398	0.712	0.072
Mof_H 	H 	0.2223	0.309	0.714	-0.048
Mof_N 	N 	0.3822	0.2978	0.5997	-0.068
Mof_C 	C 	0.3505	0.3164	0.6223	0.063
Mof_H 	H 	0.3141	0.3371	0.622	-0.038
Mof_N 	N 	0.3813	0.2994	0.6456	-0.125
Mof_C 	C 	0.4322	0.2704	0.6373	0.051
Mof_H 	H 	0.4614	0.254	0.649	-0.012
Mof_N 	N 	0.4327	0.2694	0.609	-0.099
Mof_Zn	Zn	0.36915	0.30975	0.68578	1.165
Mof_Zn	Zn	0.36849	0.30896	0.56028	1.158
Mof_Zn	Zn	0.12236	0.37826	0.50242	1.171
Mof_C 	C 	0.3574	0.2203	0.7212	0.138
Mof_H 	H 	0.3162	0.2286	0.729	-0.036
Mof_N 	N 	0.3922	0.2458	0.7033	-0.149
Mof_N 	N 	0.4475	0.2223	0.6971	-0.12
Mof_C 	C 	0.4469	0.1822	0.7112	0.019
Mof_H 	H 	0.4799	0.1589	0.7108	-0.011
Mof_N 	N 	0.3912	0.181	0.7261	-0.191
Mof_N 	N 	0.3908	0.3062	0.6006	-0.171
Mof_C 	C 	0.3515	0.3058	0.6233	-0.007
Mof_H 	H 	0.3047	0.3049	0.6234	-0.035
Mof_N 	N 	0.3915	0.307	0.6458	-0.15
Mof_C 	C 	0.4555	0.3081	0.637	-0.005
Mof_H 	H 	0.4935	0.309	0.6483	0.001
Mof_N 	N 	0.4551	0.3076	0.6091	-0.088
Mof_C 	C 	0.3757	0.2279	0.7548	-0.008
Mof_H 	H 	0.3762	0.224	0.774	0.001
Mof_N 	N 	0.3745	0.2698	0.7411	-0.112
Mof_N 	N 	0.3742	0.2605	0.7134	-0.19
Mof_C 	C 	0.3753	0.2129	0.71	0.114
Mof_H 	H 	0.3754	0.1969	0.6931	-0.031
Mof_N 	N 	0.3763	0.1928	0.7356	-0.168
Mof_C 	C 	0.3751	0.0416	0.71208	0.094
Mof_H 	H 	0.374	0.0563	0.6948	-0.058
Mof_N 	N 	0.3766	0.0633	0.73678	-0.302
Mof_C 	C 	0.378	0.0301	0.75655	0.067
Mof_H 	H 	0.3792	0.0354	0.7757	-0.041
Mof_N 	N 	0.3774	0.9878	0.7441	-0.122
Mof_N 	N 	0.3756	0.9949	0.7166	-0.264
Mof_N 	N 	0.2056	0.1034	0.7987	-0.266
Mof_N 	N 	0.1994	0.1505	0.7966	-0.246
Mof_C 	C 	0.2529	0.1669	0.7825	0.079
Mof_H 	H 	0.2614	0.1984	0.7781	-0.036
Mof_N 	N 	0.2921	0.1298	0.776	-0.287
Mof_C 	C 	0.2628	0.0906	0.786	0.071
Mof_H 	H 	0.2793	0.0599	0.7844	-0.052
Mof_N 	N 	0.2051	0.1028	0.9486	-0.266
Mof_N 	N 	0.1998	0.1504	0.9502	-0.244
Mof_C 	C 	0.2533	0.1667	0.9645	0.082
Mof_H 	H 	0.2622	0.1983	0.9687	-0.019
Mof_N 	N 	0.2917	0.1293	0.9718	-0.284
Mof_C 	C 	0.2619	0.0898	0.962	0.072
Mof_H 	H 	0.2777	0.059	0.964	-0.048
Mof_N 	N 	0.1178	0.0478	0.8497	-0.068
Mof_C 	C 	0.1495	0.0664	0.8723	0.063
Mof_H 	H 	0.1859	0.0871	0.872	-0.038
Mof_N 	N 	0.1187	0.0494	0.8956	-0.125
Mof_C 	C 	0.0678	0.0204	0.8873	0.051
Mof_H 	H 	0.0386	0.004	0.899	-0.012
Mof_N 	N 	0.0673	0.0194	0.859	-0.099
Mof_Zn	Zn	0.13085	0.05975	0.93578	1.164
Mof_Zn	Zn	0.13151	0.05896	0.81028	1.158
Mof_Zn	Zn	0.37764	0.12826	0.75242	1.172
Mof_C 	C 	0.1426	0.9703	0.9712	0.138
Mof_H 	H 	0.1838	0.9786	0.979	-0.036
Mof_N 	N 	0.1078	0.9958	0.9533	-0.149
Mof_N 	N 	0.0525	0.9723	0.9471	-0.12
Mof_C 	C 	0.0531	0.9322	0.9612	0.019
Mof_H 	H 	0.0201	0.9089	0.9608	-0.011
Mof_N 	N 	0.1088	0.931	0.9761	-0.191
Mof_N 	N 	0.1092	0.0562	0.8506	-0.171
Mof_C 	C 	0.1485	0.0558	0.8733	-0.007
Mof_H 	H 	0.1953	0.0549	0.8734	-0.035
Mof_N 	N 	0.1085	0.057	0.8958	-0.15
Mof_C 	C 	0.0445	0.0581	0.887	-0.005
Mof_H 	H 	0.0065	0.059	0.8983	0.001
Mof_N 	N 	0.0449	0.0576	0.8591	-0.088
Mof_C 	C 	0.1243	0.9779	0.0048	-0.008
Mof_H 	H 	0.1238	0.974	0.024	0.001
Mof_N 	N 	0.1255	0.0198	0.9911	-0.112
Mof_N 	N 	0.1258	0.0105	0.9634	-0.19
Mof_C 	C 	0.1247	0.9629	0.96	0.114
Mof_H 	H 	0.1246	0.9469	0.9431	-0.031
Mof_N 	N 	0.1237	0.9428	0.9856	-0.168
Mof_C 	C 	0.3751	0.5416	0.21208	0.095
Mof_H 	H 	0.374	0.5563	0.1948	-0.058
Mof_N 	N 	0.3766	0.5633	0.23678	-0.302
Mof_C 	C 	0.378	0.5301	0.25655	0.067
Mof_H 	H 	0.3792	0.5354	0.2757	-0.041
Mof_N 	N 	0.3774	0.4878	0.2441	-0.122
Mof_N 	N 	0.3756	0.4949	0.2166	-0.264
Mof_N 	N 	0.2056	0.6034	0.2987	-0.266
Mof_N 	N 	0.1994	0.6505	0.2966	-0.246
Mof_C 	C 	0.2529	0.6669	0.2825	0.079
Mof_H 	H 	0.2614	0.6984	0.2781	-0.036
Mof_N 	N 	0.2921	0.6298	0.276	-0.287
Mof_C 	C 	0.2628	0.5906	0.286	0.071
Mof_H 	H 	0.2793	0.5599	0.2844	-0.052
Mof_N 	N 	0.2051	0.6028	0.4486	-0.266
Mof_N 	N 	0.1998	0.6504	0.4502	-0.244
Mof_C 	C 	0.2533	0.6667	0.4645	0.082
Mof_H 	H 	0.2622	0.6983	0.4687	-0.019
Mof_N 	N 	0.2917	0.6293	0.4718	-0.284
Mof_C 	C 	0.2619	0.5898	0.462	0.072
Mof_H 	H 	0.2777	0.559	0.464	-0.048
Mof_N 	N 	0.1178	0.5478	0.3497	-0.068
Mof_C 	C 	0.1495	0.5664	0.3723	0.063
Mof_H 	H 	0.1859	0.5871	0.372	-0.038
Mof_N 	N 	0.1187	0.5494	0.3956	-0.125
Mof_C 	C 	0.0678	0.5204	0.3873	0.051
Mof_H 	H 	0.0386	0.504	0.399	-0.012
Mof_N 	N 	0.0673	0.5194	0.359	-0.099
Mof_Zn	Zn	0.13085	0.55975	0.43578	1.165
Mof_Zn	Zn	0.13151	0.55896	0.31028	1.158
Mof_Zn	Zn	0.37764	0.62826	0.25242	1.172
Mof_C 	C 	0.1426	0.4703	0.4712	0.138
Mof_H 	H 	0.1838	0.4786	0.479	-0.036
Mof_N 	N 	0.1078	0.4958	0.4533	-0.149
Mof_N 	N 	0.0525	0.4723	0.4471	-0.12
Mof_C 	C 	0.0531	0.4322	0.4612	0.019
Mof_H 	H 	0.0201	0.4089	0.4608	-0.011
Mof_N 	N 	0.1088	0.431	0.4761	-0.191
Mof_N 	N 	0.1092	0.5562	0.3506	-0.171
Mof_C 	C 	0.1485	0.5558	0.3733	-0.007
Mof_H 	H 	0.1953	0.5549	0.3734	-0.035
Mof_N 	N 	0.1085	0.557	0.3958	-0.15
Mof_C 	C 	0.0445	0.5581	0.387	-0.005
Mof_H 	H 	0.0065	0.559	0.3983	0.001
Mof_N 	N 	0.0449	0.5576	0.3591	-0.088
Mof_C 	C 	0.1243	0.4779	0.5048	-0.008
Mof_H 	H 	0.1238	0.474	0.524	0.001
Mof_N 	N 	0.1255	0.5198	0.4911	-0.112
Mof_N 	N 	0.1258	0.5105	0.4634	-0.19
Mof_C 	C 	0.1247	0.4629	0.46	0.114
Mof_H 	H 	0.1246	0.4469	0.4431	-0.031
Mof_N 	N 	0.1237	0.4428	0.4856	-0.168
Mof_C 	C 	0.8751	0.0416	0.21208	0.094
Mof_H 	H 	0.874	0.0563	0.1948	-0.058
Mof_N 	N 	0.8766	0.0633	0.23678	-0.302
Mof_C 	C 	0.878	0.0301	0.25655	0.067
Mof_H 	H 	0.8792	0.0354	0.2757	-0.041
Mof_N 	N 	0.8774	0.9878	0.2441	-0.122
Mof_N 	N 	0.8756	0.9949	0.2166	-0.264
Mof_N 	N 	0.7056	0.1034	0.2987	-0.266
Mof_N 	N 	0.6994	0.1505	0.2966	-0.246
Mof_C 	C 	0.7529	0.1669	0.2825	0.079
Mof_H 	H 	0.7614	0.1984	0.2781	-0.036
Mof_N 	N 	0.7921	0.1298	0.276	-0.287
Mof_C 	C 	0.7628	0.0906	0.286	0.071
Mof_H 	H 	0.7793	0.0599	0.2844	-0.052
Mof_N 	N 	0.7051	0.1028	0.4486	-0.266
Mof_N 	N 	0.6998	0.1504	0.4502	-0.244
Mof_C 	C 	0.7533	0.1667	0.4645	0.082
Mof_H 	H 	0.7622	0.1983	0.4687	-0.019
Mof_N 	N 	0.7917	0.1293	0.4718	-0.284
Mof_C 	C 	0.7619	0.0898	0.462	0.072
Mof_H 	H 	0.7777	0.059	0.464	-0.048
Mof_N 	N 	0.6178	0.0478	0.3497	-0.068
Mof_C 	C 	0.6495	0.0664	0.3723	0.063
Mof_H 	H 	0.6859	0.0871	0.372	-0.038
Mof_N 	N 	0.6187	0.0494	0.3956	-0.125
Mof_C 	C 	0.5678	0.0204	0.3873	0.051
Mof_H 	H 	0.5386	0.004	0.399	-0.012
Mof_N 	N 	0.5673	0.0194	0.359	-0.099
Mof_Zn	Zn	0.63085	0.05975	0.43578	1.164
Mof_Zn	Zn	0.63151	0.05896	0.31028	1.158
Mof_Zn	Zn	0.87764	0.12826	0.25242	1.171
Mof_C 	C 	0.6426	0.9703	0.4712	0.138
Mof_H 	H 	0.6838	0.9786	0.479	-0.036
Mof_N 	N 	0.6078	0.9958	0.4533	-0.149
Mof_N 	N 	0.5525	0.9723	0.4471	-0.12
Mof_C 	C 	0.5531	0.9322	0.4612	0.019
Mof_H 	H 	0.5201	0.9089	0.4608	-0.011
Mof_N 	N 	0.6088	0.931	0.4761	-0.191
Mof_N 	N 	0.6092	0.0562	0.3506	-0.171
Mof_C 	C 	0.6485	0.0558	0.3733	-0.007
Mof_H 	H 	0.6953	0.0549	0.3734	-0.035
Mof_N 	N 	0.6085	0.057	0.3958	-0.15
Mof_C 	C 	0.5445	0.0581	0.387	-0.005
Mof_H 	H 	0.5065	0.059	0.3983	0.001
Mof_N 	N 	0.5449	0.0576	0.3591	-0.088
Mof_C 	C 	0.6243	0.9779	0.5048	-0.008
Mof_H 	H 	0.6238	0.974	0.524	0.001
Mof_N 	N 	0.6255	0.0198	0.4911	-0.112
Mof_N 	N 	0.6258	0.0105	0.4634	-0.19
Mof_C 	C 	0.6247	0.9629	0.46	0.114
Mof_H 	H 	0.6246	0.9469	0.4431	-0.031
Mof_N 	N 	0.6237	0.9428	0.4856	-0.168
Mof_C 	C 	0.8751	0.5416	0.71208	0.095
Mof_H 	H 	0.874	0.5563	0.6948	-0.058
Mof_N 	N 	0.8766	0.5633	0.73678	-0.302
Mof_C 	C 	0.878	0.5301	0.75655	0.067
Mof_H 	H 	0.8792	0.5354	0.7757	-0.041
Mof_N 	N 	0.8774	0.4878	0.7441	-0.122
Mof_N 	N 	0.8756	0.4949	0.7166	-0.264
Mof_N 	N 	0.7056	0.6034	0.7987	-0.266
Mof_N 	N 	0.6994	0.6505	0.7966	-0.246
Mof_C 	C 	0.7529	0.6669	0.7825	0.079
Mof_H 	H 	0.7614	0.6984	0.7781	-0.036
Mof_N 	N 	0.7921	0.6298	0.776	-0.287
Mof_C 	C 	0.7628	0.5906	0.786	0.071
Mof_H 	H 	0.7793	0.5599	0.7844	-0.052
Mof_N 	N 	0.7051	0.6028	0.9486	-0.266
Mof_N 	N 	0.6998	0.6504	0.9502	-0.244
Mof_C 	C 	0.7533	0.6667	0.9645	0.082
Mof_H 	H 	0.7622	0.6983	0.9687	-0.019
Mof_N 	N 	0.7917	0.6293	0.9718	-0.284
Mof_C 	C 	0.7619	0.5898	0.962	0.072
Mof_H 	H 	0.7777	0.559	0.964	-0.048
Mof_N 	N 	0.6178	0.5478	0.8497	-0.068
Mof_C 	C 	0.6495	0.5664	0.8723	0.063
Mof_H 	H 	0.6859	0.5871	0.872	-0.038
Mof_N 	N 	0.6187	0.5494	0.8956	-0.125
Mof_C 	C 	0.5678	0.5204	0.8873	0.051
Mof_H 	H 	0.5386	0.504	0.899	-0.012
Mof_N 	N 	0.5673	0.5194	0.859	-0.099
Mof_Zn	Zn	0.63085	0.55975	0.93578	1.165
Mof_Zn	Zn	0.63151	0.55896	0.81028	1.158
Mof_Zn	Zn	0.87764	0.62826	0.75242	1.171
Mof_C 	C 	0.6426	0.4703	0.9712	0.138
Mof_H 	H 	0.6838	0.4786	0.979	-0.036
Mof_N 	N 	0.6078	0.4958	0.9533	-0.149
Mof_N 	N 	0.5525	0.4723	0.9471	-0.12
Mof_C 	C 	0.5531	0.4322	0.9612	0.019
Mof_H 	H 	0.5201	0.4089	0.9608	-0.011
Mof_N 	N 	0.6088	0.431	0.9761	-0.191
Mof_N 	N 	0.6092	0.5562	0.8506	-0.171
Mof_C 	C 	0.6485	0.5558	0.8733	-0.007
Mof_H 	H 	0.6953	0.5549	0.8734	-0.035
Mof_N 	N 	0.6085	0.557	0.8958	-0.15
Mof_C 	C 	0.5445	0.5581	0.887	-0.005
Mof_H 	H 	0.5065	0.559	0.8983	0.001
Mof_N 	N 	0.5449	0.5576	0.8591	-0.088
Mof_C 	C 	0.6243	0.4779	0.0048	-0.007
Mof_H 	H 	0.6238	0.474	0.024	0.001
Mof_N 	N 	0.6255	0.5198	0.9911	-0.112
Mof_N 	N 	0.6258	0.5105	0.9634	-0.19
Mof_C 	C 	0.6247	0.4629	0.96	0.114
Mof_H 	H 	0.6246	0.4469	0.9431	-0.031
Mof_N 	N 	0.6237	0.4428	0.9856	-0.168
Mof_C 	C 	0.8749	0.2084	0.71208	0.094
Mof_H 	H 	0.876	0.1937	0.6948	-0.058
Mof_N 	N 	0.8734	0.1867	0.73678	-0.302
Mof_C 	C 	0.872	0.2199	0.75655	0.067
Mof_H 	H 	0.8708	0.2146	0.7757	-0.041
Mof_N 	N 	0.8726	0.2622	0.7441	-0.122
Mof_N 	N 	0.8744	0.2551	0.7166	-0.264
Mof_N 	N 	0.0444	0.1466	0.7987	-0.266
Mof_N 	N 	0.0506	0.0995	0.7966	-0.246
Mof_C 	C 	0.9971	0.0831	0.7825	0.079
Mof_H 	H 	0.9886	0.0516	0.7781	-0.036
Mof_N 	N 	0.9579	0.1202	0.776	-0.287
Mof_C 	C 	0.9872	0.1594	0.786	0.071
Mof_H 	H 	0.9707	0.1901	0.7844	-0.052
Mof_N 	N 	0.0449	0.1472	0.9486	-0.266
Mof_N 	N 	0.0502	0.0996	0.9502	-0.244
Mof_C 	C 	0.9967	0.0833	0.9645	0.082
Mof_H 	H 	0.9878	0.0517	0.9687	-0.019
Mof_N 	N 	0.9583	0.1207	0.9718	-0.284
Mof_C 	C 	0.9881	0.1602	0.962	0.072
Mof_H 	H 	0.9723	0.191	0.964	-0.048
Mof_N 	N 	0.1322	0.2022	0.8497	-0.068
Mof_C 	C 	0.1005	0.1836	0.8723	0.063
Mof_H 	H 	0.0641	0.1629	0.872	-0.038
Mof_N 	N 	0.1313	0.2006	0.8956	-0.125
Mof_C 	C 	0.1822	0.2296	0.8873	0.051
Mof_H 	H 	0.2114	0.246	0.899	-0.012
Mof_N 	N 	0.1827	0.2306	0.859	-0.099
Mof_Zn	Zn	0.11915	0.19025	0.93578	1.164
Mof_Zn	Zn	0.11849	0.19104	0.81028	1.158
Mof_Zn	Zn	0.87236	0.12174	0.75242	1.171
Mof_C 	C 	0.1074	0.2797	0.9712	0.138
Mof_H 	H 	0.0662	0.2714	0.979	-0.036
Mof_N 	N 	0.1422	0.2542	0.9533	-0.149
Mof_N 	N 	0.1975	0.2777	0.9471	-0.12
Mof_C 	C 	0.1969	0.3178	0.9612	0.019
Mof_H 	H 	0.2299	0.3411	0.9608	-0.011
Mof_N 	N 	0.1412	0.319	0.9761	-0.191
Mof_N 	N 	0.1408	0.1938	0.8506	-0.171
Mof_C 	C 	0.1015	0.1942	0.8733	-0.007
Mof_H 	H 	0.0547	0.1951	0.8734	-0.035
Mof_N 	N 	0.1415	0.193	0.8958	-0.15
Mof_C 	C 	0.2055	0.1919	0.887	-0.005
Mof_H 	H 	0.2435	0.191	0.8983	0.001
Mof_N 	N 	0.2051	0.1924	0.8591	-0.088
Mof_C 	C 	0.1257	0.2721	0.0048	-0.008
Mof_H 	H 	0.1262	0.276	0.024	0.001
Mof_N 	N 	0.1245	0.2302	0.9911	-0.112
Mof_N 	N 	0.1242	0.2395	0.9634	-0.19
Mof_C 	C 	0.1253	0.2871	0.96	0.114
Mof_H 	H 	0.1254	0.3031	0.9431	-0.031
Mof_N 	N 	0.1263	0.3072	0.9856	-0.168
Mof_C 	C 	0.8749	0.7084	0.21208	0.095
Mof_H 	H 	0.876	0.6937	0.1948	-0.058
Mof_N 	N 	0.8734	0.6867	0.23678	-0.302
Mof_C 	C 	0.872	0.7199	0.25655	0.067
Mof_H 	H 	0.8708	0.7146	0.2757	-0.041
Mof_N 	N 	0.8726	0.7622	0.2441	-0.122
Mof_N 	N 	0.8744	0.7551	0.2166	-0.264
Mof_N 	N 	0.0444	0.6466	0.2987	-0.266
Mof_N 	N 	0.0506	0.5995	0.2966	-0.246
Mof_C 	C 	0.9971	0.5831	0.2825	0.079
Mof_H 	H 	0.9886	0.5516	0.2781	-0.036
Mof_N 	N 	0.9579	0.6202	0.276	-0.287
Mof_C 	C 	0.9872	0.6594	0.286	0.071
Mof_H 	H 	0.9707	0.6901	0.2844	-0.052
Mof_N 	N 	0.0449	0.6472	0.4486	-0.266
Mof_N 	N 	0.0502	0.5996	0.4502	-0.244
Mof_C 	C 	0.9967	0.5833	0.4645	0.082
Mof_H 	H 	0.9878	0.5517	0.4687	-0.019
Mof_N 	N 	0.9583	0.6207	0.4718	-0.284
Mof_C 	C 	0.9881	0.6602	0.462	0.072
Mof_H 	H 	0.9723	0.691	0.464	-0.048
Mof_N 	N 	0.1322	0.7022	0.3497	-0.068
Mof_C 	C 	0.1005	0.6836	0.3723	0.063
Mof_H 	H 	0.0641	0.6629	0.372	-0.038
Mof_N 	N 	0.1313	0.7006	0.3956	-0.125
Mof_C 	C 	0.1822	0.7296	0.3873	0.051
Mof_H 	H 	0.2114	0.746	0.399	-0.012
Mof_N 	N 	0.1827	0.7306	0.359	-0.099
Mof_Zn	Zn	0.11915	0.69025	0.43578	1.164
Mof_Zn	Zn	0.11849	0.69104	0.31028	1.158
Mof_Zn	Zn	0.87236	0.62174	0.25242	1.171
Mof_C 	C 	0.1074	0.7797	0.4712	0.138
Mof_H 	H 	0.0662	0.7714	0.479	-0.036
Mof_N 	N 	0.1422	0.7542	0.4533	-0.149
Mof_N 	N 	0.1975	0.7777	0.4471	-0.12
Mof_C 	C 	0.1969	0.8178	0.4612	0.019
Mof_H 	H 	0.2299	0.8411	0.4608	-0.011
Mof_N 	N 	0.1412	0.819	0.4761	-0.191
Mof_N 	N 	0.1408	0.6938	0.3506	-0.171
Mof_C 	C 	0.1015	0.6942	0.3733	-0.007
Mof_H 	H 	0.0547	0.6951	0.3734	-0.035
Mof_N 	N 	0.1415	0.693	0.3958	-0.15
Mof_C 	C 	0.2055	0.6919	0.387	-0.005
Mof_H 	H 	0.2435	0.691	0.3983	0.001
Mof_N 	N 	0.2051	0.6924	0.3591	-0.088
Mof_C 	C 	0.1257	0.7721	0.5048	-0.008
Mof_H 	H 	0.1262	0.776	0.524	0.001
Mof_N 	N 	0.1245	0.7302	0.4911	-0.112
Mof_N 	N 	0.1242	0.7395	0.4634	-0.19
Mof_C 	C 	0.1253	0.7871	0.46	0.114
Mof_H 	H 	0.1254	0.8031	0.4431	-0.031
Mof_N 	N 	0.1263	0.8072	0.4856	-0.168
Mof_C 	C 	0.3749	0.2084	0.21208	0.095
Mof_H 	H 	0.376	0.1937	0.1948	-0.058
Mof_N 	N 	0.3734	0.1867	0.23678	-0.302
Mof_C 	C 	0.372	0.2199	0.25655	0.067
Mof_H 	H 	0.3708	0.2146	0.2757	-0.041
Mof_N 	N 	0.3726	0.2622	0.2441	-0.122
Mof_N 	N 	0.3744	0.2551	0.2166	-0.264
Mof_N 	N 	0.5444	0.1466	0.2987	-0.266
Mof_N 	N 	0.5506	0.0995	0.2966	-0.246
Mof_C 	C 	0.4971	0.0831	0.2825	0.079
Mof_H 	H 	0.4886	0.0516	0.2781	-0.036
Mof_N 	N 	0.4579	0.1202	0.276	-0.287
Mof_C 	C 	0.4872	0.1594	0.286	0.071
Mof_H 	H 	0.4707	0.1901	0.2844	-0.052
Mof_N 	N 	0.5449	0.1472	0.4486	-0.266
Mof_N 	N 	0.5502	0.0996	0.4502	-0.244
Mof_C 	C 	0.4967	0.0833	0.4645	0.082
Mof_H 	H 	0.4878	0.0517	0.4687	-0.019
Mof_N 	N 	0.4583	0.1207	0.4718	-0.284
Mof_C 	C 	0.4881	0.1602	0.462	0.072
Mof_H 	H 	0.4723	0.191	0.464	-0.048
Mof_N 	N 	0.6322	0.2022	0.3497	-0.068
Mof_C 	C 	0.6005	0.1836	0.3723	0.063
Mof_H 	H 	0.5641	0.1629	0.372	-0.038
Mof_N 	N 	0.6313	0.2006	0.3956	-0.125
Mof_C 	C 	0.6822	0.2296	0.3873	0.051
Mof_H 	H 	0.7114	0.246	0.399	-0.012
Mof_N 	N 	0.6827	0.2306	0.359	-0.099
Mof_Zn	Zn	0.61915	0.19025	0.43578	1.165
Mof_Zn	Zn	0.61849	0.19104	0.31028	1.158
Mof_Zn	Zn	0.37236	0.12174	0.25242	1.172
Mof_C 	C 	0.6074	0.2797	0.4712	0.138
Mof_H 	H 	0.5662	0.2714	0.479	-0.036
Mof_N 	N 	0.6422	0.2542	0.4533	-0.149
Mof_N 	N 	0.6975	0.2777	0.4471	-0.12
Mof_C 	C 	0.6969	0.3178	0.4612	0.019
Mof_H 	H 	0.7299	0.3411	0.4608	-0.011
Mof_N 	N 	0.6412	0.319	0.4761	-0.191
Mof_N 	N 	0.6408	0.1938	0.3506	-0.171
Mof_C 	C 	0.6015	0.1942	0.3733	-0.007
Mof_H 	H 	0.5547	0.1951	0.3734	-0.035
Mof_N 	N 	0.6415	0.193	0.3958	-0.15
Mof_C 	C 	0.7055	0.1919	0.387	-0.005
Mof_H 	H 	0.7435	0.191	0.3983	0.001
Mof_N 	N 	0.7051	0.1924	0.3591	-0.088
Mof_C 	C 	0.6257	0.2721	0.5048	-0.008
Mof_H 	H 	0.6262	0.276	0.524	0.001
Mof_N 	N 	0.6245	0.2302	0.4911	-0.112
Mof_N 	N 	0.6242	0.2395	0.4634	-0.19
Mof_C 	C 	0.6253	0.2871	0.46	0.114
Mof_H 	H 	0.6254	0.3031	0.4431	-0.031
Mof_N 	N 	0.6263	0.3072	0.4856	-0.168
Mof_C 	C 	0.3749	0.7084	0.71208	0.095
Mof_H 	H 	0.376	0.6937	0.6948	-0.058
Mof_N 	N 	0.3734	0.6867	0.73678	-0.302
Mof_C 	C 	0.372	0.7199	0.75655	0.067
Mof_H 	H 	0.3708	0.7146	0.7757	-0.041
Mof_N 	N 	0.3726	0.7622	0.7441	-0.122
Mof_N 	N 	0.3744	0.7551	0.7166	-0.264
Mof_N 	N 	0.5444	0.6466	0.7987	-0.266
Mof_N 	N 	0.5506	0.5995	0.7966	-0.246
Mof_C 	C 	0.4971	0.5831	0.7825	0.079
Mof_H 	H 	0.4886	0.5516	0.7781	-0.036
Mof_N 	N 	0.4579	0.6202	0.776	-0.287
Mof_C 	C 	0.4872	0.6594	0.786	0.071
Mof_H 	H 	0.4707	0.6901	0.7844	-0.052
Mof_N 	N 	0.5449	0.6472	0.9486	-0.266
Mof_N 	N 	0.5502	0.5996	0.9502	-0.244
Mof_C 	C 	0.4967	0.5833	0.9645	0.082
Mof_H 	H 	0.4878	0.5517	0.9687	-0.019
Mof_N 	N 	0.4583	0.6207	0.9718	-0.284
Mof_C 	C 	0.4881	0.6602	0.962	0.072
Mof_H 	H 	0.4723	0.691	0.964	-0.048
Mof_N 	N 	0.6322	0.7022	0.8497	-0.068
Mof_C 	C 	0.6005	0.6836	0.8723	0.063
Mof_H 	H 	0.5641	0.6629	0.872	-0.038
Mof_N 	N 	0.6313	0.7006	0.8956	-0.125
Mof_C 	C 	0.6822	0.7296	0.8873	0.051
Mof_H 	H 	0.7114	0.746	0.899	-0.012
Mof_N 	N 	0.6827	0.7306	0.859	-0.099
Mof_Zn	Zn	0.61915	0.69025	0.93578	1.165
Mof_Zn	Zn	0.61849	0.69104	0.81028	1.158
Mof_Zn	Zn	0.37236	0.62174	0.75242	1.172
Mof_C 	C 	0.6074	0.7797	0.9712	0.138
Mof_H 	H 	0.5662	0.7714	0.979	-0.036
Mof_N 	N 	0.6422	0.7542	0.9533	-0.149
Mof_N 	N 	0.6975	0.7777	0.9471	-0.12
Mof_C 	C 	0.6969	0.8178	0.9612	0.019
Mof_H 	H 	0.7299	0.8411	0.9608	-0.011
Mof_N 	N 	0.6412	0.819	0.9761	-0.191
Mof_N 	N 	0.6408	0.6938	0.8506	-0.171
Mof_C 	C 	0.6015	0.6942	0.8733	-0.007
Mof_H 	H 	0.5547	0.6951	0.8734	-0.035
Mof_N 	N 	0.6415	0.693	0.8958	-0.15
Mof_C 	C 	0.7055	0.6919	0.887	-0.005
Mof_H 	H 	0.7435	0.691	0.8983	0.001
Mof_N 	N 	0.7051	0.6924	0.8591	-0.088
Mof_C 	C 	0.6257	0.7721	0.0048	-0.008
Mof_H 	H 	0.6262	0.776	0.024	0.001
Mof_N 	N 	0.6245	0.7302	0.9911	-0.112
Mof_N 	N 	0.6242	0.7395	0.9634	-0.19
Mof_C 	C 	0.6253	0.7871	0.96	0.114
Mof_H 	H 	0.6254	0.8031	0.9431	-0.031
Mof_N 	N 	0.6263	0.8072	0.9856	-0.168
Mof_C 	C 	0.8749	0.0416	0.53792	0.094
Mof_H 	H 	0.876	0.0563	0.5552	-0.058
Mof_N 	N 	0.8734	0.0633	0.51322	-0.302
Mof_C 	C 	0.872	0.0301	0.49345	0.067
Mof_H 	H 	0.8708	0.0354	0.4743	-0.041
Mof_N 	N 	0.8726	0.9878	0.5059	-0.122
Mof_N 	N 	0.8744	0.9949	0.5334	-0.264
Mof_N 	N 	0.0444	0.1034	0.4513	-0.266
Mof_N 	N 	0.0506	0.1505	0.4534	-0.246
Mof_C 	C 	0.9971	0.1669	0.4675	0.079
Mof_H 	H 	0.9886	0.1984	0.4719	-0.036
Mof_N 	N 	0.9579	0.1298	0.474	-0.287
Mof_C 	C 	0.9872	0.0906	0.464	0.071
Mof_H 	H 	0.9707	0.0599	0.4656	-0.052
Mof_N 	N 	0.0449	0.1028	0.3014	-0.266
Mof_N 	N 	0.0502	0.1504	0.2998	-0.244
Mof_C 	C 	0.9967	0.1667	0.2855	0.082
Mof_H 	H 	0.9878	0.1983	0.2813	-0.019
Mof_N 	N 	0.9583	0.1293	0.2782	-0.284
Mof_C 	C 	0.9881	0.0898	0.288	0.072
Mof_H 	H 	0.9723	0.059	0.286	-0.048
Mof_N 	N 	0.1322	0.0478	0.4003	-0.068
Mof_C 	C 	0.1005	0.0664	0.3777	0.063
Mof_H 	H 	0.0641	0.0871	0.378	-0.038
Mof_N 	N 	0.1313	0.0494	0.3544	-0.125
Mof_C 	C 	0.1822	0.0204	0.3627	0.051
Mof_H 	H 	0.2114	0.004	0.351	-0.012
Mof_N 	N 	0.1827	0.0194	0.391	-0.099
Mof_Zn	Zn	0.11915	0.05975	0.31422	1.164
Mof_Zn	Zn	0.11849	0.05896	0.43972	1.158
Mof_Zn	Zn	0.87236	0.12826	0.49758	1.171
Mof_C 	C 	0.1074	0.9703	0.2788	0.138
Mof_H 	H 	0.0662	0.9786	0.271	-0.036
Mof_N 	N 	0.1422	0.9958	0.2967	-0.149
Mof_N 	N 	0.1975	0.9723	0.3029	-0.12
Mof_C 	C 	0.1969	0.9322	0.2888	0.019
Mof_H 	H 	0.2299	0.9089	0.2892	-0.011
Mof_N 	N 	0.1412	0.931	0.2739	-0.191
Mof_N 	N 	0.1408	0.0562	0.3994	-0.171
Mof_C 	C 	0.1015	0.0558	0.3767	-0.007
Mof_H 	H 	0.0547	0.0549	0.3766	-0.035
Mof_N 	N 	0.1415	0.057	0.3542	-0.15
Mof_C 	C 	0.2055	0.0581	0.363	-0.005
Mof_H 	H 	0.2435	0.059	0.3517	0.001
Mof_N 	N 	0.2051	0.0576	0.3909	-0.088
Mof_C 	C 	0.1257	0.9779	0.2452	-0.008
Mof_H 	H 	0.1262	0.974	0.226	0.001
Mof_N 	N 	0.1245	0.0198	0.2589	-0.112
Mof_N 	N 	0.1242	0.0105	0.2866	-0.19
Mof_C 	C 	0.1253	0.9629	0.29	0.114
Mof_H 	H 	0.1254	0.9469	0.3069	-0.031
Mof_N 	N 	0.1263	0.9428	0.2644	-0.168
Mof_C 	C 	0.8749	0.5416	0.03792	0.095
Mof_H 	H 	0.876	0.5563	0.0552	-0.058
Mof_N 	N 	0.8734	0.5633	0.01322	-0.302
Mof_C 	C 	0.872	0.5301	0.99345	0.067
Mof_H 	H 	0.8708	0.5354	0.9743	-0.041
Mof_N 	N 	0.8726	0.4878	0.0059	-0.122
Mof_N 	N 	0.8744	0.4949	0.0334	-0.264
Mof_N 	N 	0.0444	0.6034	0.9513	-0.266
Mof_N 	N 	0.0506	0.6505	0.9534	-0.246
Mof_C 	C 	0.9971	0.6669	0.9675	0.079
Mof_H 	H 	0.9886	0.6984	0.9719	-0.036
Mof_N 	N 	0.9579	0.6298	0.974	-0.287
Mof_C 	C 	0.9872	0.5906	0.964	0.071
Mof_H 	H 	0.9707	0.5599	0.9656	-0.052
Mof_N 	N 	0.0449	0.6028	0.8014	-0.266
Mof_N 	N 	0.0502	0.6504	0.7998	-0.244
Mof_C 	C 	0.9967	0.6667	0.7855	0.082
Mof_H 	H 	0.9878	0.6983	0.7813	-0.019
Mof_N 	N 	0.9583	0.6293	0.7782	-0.284
Mof_C 	C 	0.9881	0.5898	0.788	0.072
Mof_H 	H 	0.9723	0.559	0.786	-0.048
Mof_N 	N 	0.1322	0.5478	0.9003	-0.068
Mof_C 	C 	0.1005	0.5664	0.8777	0.063
Mof_H 	H 	0.0641	0.5871	0.878	-0.038
Mof_N 	N 	0.1313	0.5494	0.8544	-0.125
Mof_C 	C 	0.1822	0.5204	0.8627	0.051
Mof_H 	H 	0.2114	0.504	0.851	-0.012
Mof_N 	N 	0.1827	0.5194	0.891	-0.099
Mof_Zn	Zn	0.11915	0.55975	0.81422	1.164
Mof_Zn	Zn	0.11849	0.55896	0.93972	1.158
Mof_Zn	Zn	0.87236	0.62826	0.99758	1.171
Mof_C 	C 	0.1074	0.4703	0.7788	0.138
Mof_H 	H 	0.0662	0.4786	0.771	-0.036
Mof_N 	N 	0.1422	0.4958	0.7967	-0.149
Mof_N 	N 	0.1975	0.4723	0.8029	-0.12
Mof_C 	C 	0.1969	0.4322	0.7888	0.019
Mof_H 	H 	0.2299	0.4089	0.7892	-0.011
Mof_N 	N 	0.1412	0.431	0.7739	-0.191
Mof_N 	N 	0.1408	0.5562	0.8994	-0.171
Mof_C 	C 	0.1015	0.5558	0.8767	-0.007
Mof_H 	H 	0.0547	0.5549	0.8766	-0.035
Mof_N 	N 	0.1415	0.557	0.8542	-0.15
Mof_C 	C 	0.2055	0.5581	0.863	-0.005
Mof_H 	H 	0.2435	0.559	0.8517	0.001
Mof_N 	N 	0.2051	0.5576	0.8909	-0.088
Mof_C 	C 	0.1257	0.4779	0.7452	-0.008
Mof_H 	H 	0.1262	0.474	0.726	0.001
Mof_N 	N 	0.1245	0.5198	0.7589	-0.112
Mof_N 	N 	0.1242	0.5105	0.7866	-0.19
Mof_C 	C 	0.1253	0.4629	0.79	0.114
Mof_H 	H 	0.1254	0.4469	0.8069	-0.031
Mof_N 	N 	0.1263	0.4428	0.7644	-0.168
Mof_C 	C 	0.3749	0.0416	0.03792	0.095
Mof_H 	H 	0.376	0.0563	0.0552	-0.058
Mof_N 	N 	0.3734	0.0633	0.01322	-0.302
Mof_C 	C 	0.372	0.0301	0.99345	0.067
Mof_H 	H 	0.3708	0.0354	0.9743	-0.041
Mof_N 	N 	0.3726	0.9878	0.0059	-0.122
Mof_N 	N 	0.3744	0.9949	0.0334	-0.264
Mof_N 	N 	0.5444	0.1034	0.9513	-0.266
Mof_N 	N 	0.5506	0.1505	0.9534	-0.246
Mof_C 	C 	0.4971	0.1669	0.9675	0.079
Mof_H 	H 	0.4886	0.1984	0.9719	-0.036
Mof_N 	N 	0.4579	0.1298	0.974	-0.287
Mof_C 	C 	0.4872	0.0906	0.964	0.071
Mof_H 	H 	0.4707	0.0599	0.9656	-0.052
Mof_N 	N 	0.5449	0.1028	0.8014	-0.266
Mof_N 	N 	0.5502	0.1504	0.7998	-0.244
Mof_C 	C 	0.4967	0.1667	0.7855	0.082
Mof_H 	H 	0.4878	0.1983	0.7813	-0.019
Mof_N 	N 	0.4583	0.1293	0.7782	-0.284
Mof_C 	C 	0.4881	0.0898	0.788	0.072
Mof_H 	H 	0.4723	0.059	0.786	-0.048
Mof_N 	N 	0.6322	0.0478	0.9003	-0.068
Mof_C 	C 	0.6005	0.0664	0.8777	0.063
Mof_H 	H 	0.5641	0.0871	0.878	-0.038
Mof_N 	N 	0.6313	0.0494	0.8544	-0.125
Mof_C 	C 	0.6822	0.0204	0.8627	0.051
Mof_H 	H 	0.7114	0.004	0.851	-0.012
Mof_N 	N 	0.6827	0.0194	0.891	-0.099
Mof_Zn	Zn	0.61915	0.05975	0.81422	1.164
Mof_Zn	Zn	0.61849	0.05896	0.93972	1.158
Mof_Zn	Zn	0.37236	0.12826	0.99758	1.172
Mof_C 	C 	0.6074	0.9703	0.7788	0.138
Mof_H 	H 	0.5662	0.9786	0.771	-0.036
Mof_N 	N 	0.6422	0.9958	0.7967	-0.149
Mof_N 	N 	0.6975	0.9723	0.8029	-0.12
Mof_C 	C 	0.6969	0.9322	0.7888	0.019
Mof_H 	H 	0.7299	0.9089	0.7892	-0.011
Mof_N 	N 	0.6412	0.931	0.7739	-0.191
Mof_N 	N 	0.6408	0.0562	0.8994	-0.171
Mof_C 	C 	0.6015	0.0558	0.8767	-0.007
Mof_H 	H 	0.5547	0.0549	0.8766	-0.035
Mof_N 	N 	0.6415	0.057	0.8542	-0.15
Mof_C 	C 	0.7055	0.0581	0.863	-0.005
Mof_H 	H 	0.7435	0.059	0.8517	0.001
Mof_N 	N 	0.7051	0.0576	0.8909	-0.088
Mof_C 	C 	0.6257	0.9779	0.7452	-0.008
Mof_H 	H 	0.6262	0.974	0.726	0.001
Mof_N 	N 	0.6245	0.0198	0.7589	-0.112
Mof_N 	N 	0.6242	0.0105	0.7866	-0.19
Mof_C 	C 	0.6253	0.9629	0.79	0.114
Mof_H 	H 	0.6254	0.9469	0.8069	-0.031
Mof_N 	N 	0.6263	0.9428	0.7644	-0.168
Mof_C 	C 	0.3749	0.5416	0.53792	0.095
Mof_H 	H 	0.376	0.5563	0.5552	-0.058
Mof_N 	N 	0.3734	0.5633	0.51322	-0.302
Mof_C 	C 	0.372	0.5301	0.49345	0.067
Mof_H 	H 	0.3708	0.5354	0.4743	-0.041
Mof_N 	N 	0.3726	0.4878	0.5059	-0.122
Mof_N 	N 	0.3744	0.4949	0.5334	-0.264
Mof_N 	N 	0.5444	0.6034	0.4513	-0.266
Mof_N 	N 	0.5506	0.6505	0.4534	-0.246
Mof_C 	C 	0.4971	0.6669	0.4675	0.079
Mof_H 	H 	0.4886	0.6984	0.4719	-0.036
Mof_N 	N 	0.4579	0.6298	0.474	-0.287
Mof_C 	C 	0.4872	0.5906	0.464	0.071
Mof_H 	H 	0.4707	0.5599	0.4656	-0.052
Mof_N 	N 	0.5449	0.6028	0.3014	-0.266
Mof_N 	N 	0.5502	0.6504	0.2998	-0.244
Mof_C 	C 	0.4967	0.6667	0.2855	0.082
Mof_H 	H 	0.4878	0.6983	0.2813	-0.019
Mof_N 	N 	0.4583	0.6293	0.2782	-0.284
Mof_C 	C 	0.4881	0.5898	0.288	0.072
Mof_H 	H 	0.4723	0.559	0.286	-0.048
Mof_N 	N 	0.6322	0.5478	0.4003	-0.068
Mof_C 	C 	0.6005	0.5664	0.3777	0.063
Mof_H 	H 	0.5641	0.5871	0.378	-0.038
Mof_N 	N 	0.6313	0.5494	0.3544	-0.125
Mof_C 	C 	0.6822	0.5204	0.3627	0.051
Mof_H 	H 	0.7114	0.504	0.351	-0.012
Mof_N 	N 	0.6827	0.5194	0.391	-0.099
Mof_Zn	Zn	0.61915	0.55975	0.31422	1.165
Mof_Zn	Zn	0.61849	0.55896	0.43972	1.158
Mof_Zn	Zn	0.37236	0.62826	0.49758	1.172
Mof_C 	C 	0.6074	0.4703	0.2788	0.138
Mof_H 	H 	0.5662	0.4786	0.271	-0.036
Mof_N 	N 	0.6422	0.4958	0.2967	-0.149
Mof_N 	N 	0.6975	0.4723	0.3029	-0.12
Mof_C 	C 	0.6969	0.4322	0.2888	0.019
Mof_H 	H 	0.7299	0.4089	0.2892	-0.011
Mof_N 	N 	0.6412	0.431	0.2739	-0.191
Mof_N 	N 	0.6408	0.5562	0.3994	-0.171
Mof_C 	C 	0.6015	0.5558	0.3767	-0.007
Mof_H 	H 	0.5547	0.5549	0.3766	-0.035
Mof_N 	N 	0.6415	0.557	0.3542	-0.15
Mof_C 	C 	0.7055	0.5581	0.363	-0.005
Mof_H 	H 	0.7435	0.559	0.3517	0.001
Mof_N 	N 	0.7051	0.5576	0.3909	-0.088
Mof_C 	C 	0.6257	0.4779	0.2452	-0.008
Mof_H 	H 	0.6262	0.474	0.226	0.001
Mof_N 	N 	0.6245	0.5198	0.2589	-0.112
Mof_N 	N 	0.6242	0.5105	0.2866	-0.19
Mof_C 	C 	0.6253	0.4629	0.29	0.114
Mof_H 	H 	0.6254	0.4469	0.3069	-0.031
Mof_N 	N 	0.6263	0.4428	0.2644	-0.168
Mof_C 	C 	0.3751	0.2084	0.53792	0.095
Mof_H 	H 	0.374	0.1937	0.5552	-0.058
Mof_N 	N 	0.3766	0.1867	0.51322	-0.302
Mof_C 	C 	0.378	0.2199	0.49345	0.067
Mof_H 	H 	0.3792	0.2146	0.4743	-0.041
Mof_N 	N 	0.3774	0.2622	0.5059	-0.122
Mof_N 	N 	0.3756	0.2551	0.5334	-0.264
Mof_N 	N 	0.2056	0.1466	0.4513	-0.266
Mof_N 	N 	0.1994	0.0995	0.4534	-0.246
Mof_C 	C 	0.2529	0.0831	0.4675	0.079
Mof_H 	H 	0.2614	0.0516	0.4719	-0.036
Mof_N 	N 	0.2921	0.1202	0.474	-0.287
Mof_C 	C 	0.2628	0.1594	0.464	0.071
Mof_H 	H 	0.2793	0.1901	0.4656	-0.052
Mof_N 	N 	0.2051	0.1472	0.3014	-0.266
Mof_N 	N 	0.1998	0.0996	0.2998	-0.244
Mof_C 	C 	0.2533	0.0833	0.2855	0.082
Mof_H 	H 	0.2622	0.0517	0.2813	-0.019
Mof_N 	N 	0.2917	0.1207	0.2782	-0.284
Mof_C 	C 	0.2619	0.1602	0.288	0.072
Mof_H 	H 	0.2777	0.191	0.286	-0.048
Mof_N 	N 	0.1178	0.2022	0.4003	-0.068
Mof_C 	C 	0.1495	0.1836	0.3777	0.063
Mof_H 	H 	0.1859	0.1629	0.378	-0.038
Mof_N 	N 	0.1187	0.2006	0.3544	-0.125
Mof_C 	C 	0.0678	0.2296	0.3627	0.051
Mof_H 	H 	0.0386	0.246	0.351	-0.012
Mof_N 	N 	0.0673	0.2306	0.391	-0.099
Mof_Zn	Zn	0.13085	0.19025	0.31422	1.165
Mof_Zn	Zn	0.13151	0.19104	0.43972	1.158
Mof_Zn	Zn	0.37764	0.12174	0.49758	1.172
Mof_C 	C 	0.1426	0.2797	0.2788	0.138
Mof_H 	H 	0.1838	0.2714	0.271	-0.036
Mof_N 	N 	0.1078	0.2542	0.2967	-0.149
Mof_N 	N 	0.0525	0.2777	0.3029	-0.12
Mof_C 	C 	0.0531	0.3178	0.2888	0.019
Mof_H 	H 	0.0201	0.3411	0.2892	-0.011
Mof_N 	N 	0.1088	0.319	0.2739	-0.191
Mof_N 	N 	0.1092	0.1938	0.3994	-0.171
Mof_C 	C 	0.1485	0.1942	0.3767	-0.007
Mof_H 	H 	0.1953	0.1951	0.3766	-0.035
Mof_N 	N 	0.1085	0.193	0.3542	-0.15
Mof_C 	C 	0.0445	0.1919	0.363	-0.005
Mof_H 	H 	0.0065	0.191	0.3517	0.001
Mof_N 	N 	0.0449	0.1924	0.3909	-0.088
Mof_C 	C 	0.1243	0.2721	0.2452	-0.008
Mof_H 	H 	0.1238	0.276	0.226	0.001
Mof_N 	N 	0.1255	0.2302	0.2589	-0.112
Mof_N 	N 	0.1258	0.2395	0.2866	-0.19
Mof_C 	C 	0.1247	0.2871	0.29	0.114
Mof_H 	H 	0.1246	0.3031	0.3069	-0.031
Mof_N 	N 	0.1237	0.3072	0.2644	-0.168
Mof_C 	C 	0.3751	0.7084	0.03792	0.095
Mof_H 	H 	0.374	0.6937	0.0552	-0.058
Mof_N 	N 	0.3766	0.6867	0.01322	-0.302
Mof_C 	C 	0.378	0.7199	0.99345	0.067
Mof_H 	H 	0.3792	0.7146	0.9743	-0.041
Mof_N 	N 	0.3774	0.7622	0.0059	-0.122
Mof_N 	N 	0.3756	0.7551	0.0334	-0.264
Mof_N 	N 	0.2056	0.6466	0.9513	-0.266
Mof_N 	N 	0.1994	0.5995	0.9534	-0.246
Mof_C 	C 	0.2529	0.5831	0.9675	0.079
Mof_H 	H 	0.2614	0.5516	0.9719	-0.036
Mof_N 	N 	0.2921	0.6202	0.974	-0.287
Mof_C 	C 	0.2628	0.6594	0.964	0.071
Mof_H 	H 	0.2793	0.6901	0.9656	-0.052
Mof_N 	N 	0.2051	0.6472	0.8014	-0.266
Mof_N 	N 	0.1998	0.5996	0.7998	-0.244
Mof_C 	C 	0.2533	0.5833	0.7855	0.082
Mof_H 	H 	0.2622	0.5517	0.7813	-0.019
Mof_N 	N 	0.2917	0.6207	0.7782	-0.284
Mof_C 	C 	0.2619	0.6602	0.788	0.072
Mof_H 	H 	0.2777	0.691	0.786	-0.048
Mof_N 	N 	0.1178	0.7022	0.9003	-0.068
Mof_C 	C 	0.1495	0.6836	0.8777	0.063
Mof_H 	H 	0.1859	0.6629	0.878	-0.038
Mof_N 	N 	0.1187	0.7006	0.8544	-0.125
Mof_C 	C 	0.0678	0.7296	0.8627	0.051
Mof_H 	H 	0.0386	0.746	0.851	-0.012
Mof_N 	N 	0.0673	0.7306	0.891	-0.099
Mof_Zn	Zn	0.13085	0.69025	0.81422	1.165
Mof_Zn	Zn	0.13151	0.69104	0.93972	1.158
Mof_Zn	Zn	0.37764	0.62174	0.99758	1.172
Mof_C 	C 	0.1426	0.7797	0.7788	0.138
Mof_H 	H 	0.1838	0.7714	0.771	-0.036
Mof_N 	N 	0.1078	0.7542	0.7967	-0.149
Mof_N 	N 	0.0525	0.7777	0.8029	-0.12
Mof_C 	C 	0.0531	0.8178	0.7888	0.019
Mof_H 	H 	0.0201	0.8411	0.7892	-0.011
Mof_N 	N 	0.1088	0.819	0.7739	-0.191
Mof_N 	N 	0.1092	0.6938	0.8994	-0.171
Mof_C 	C 	0.1485	0.6942	0.8767	-0.007
Mof_H 	H 	0.1953	0.6951	0.8766	-0.035
Mof_N 	N 	0.1085	0.693	0.8542	-0.15
Mof_C 	C 	0.0445	0.6919	0.863	-0.005
Mof_H 	H 	0.0065	0.691	0.8517	0.001
Mof_N 	N 	0.0449	0.6924	0.8909	-0.088
Mof_C 	C 	0.1243	0.7721	0.7452	-0.008
Mof_H 	H 	0.1238	0.776	0.726	0.001
Mof_N 	N 	0.1255	0.7302	0.7589	-0.112
Mof_N 	N 	0.1258	0.7395	0.7866	-0.19
Mof_C 	C 	0.1247	0.7871	0.79	0.114
Mof_H 	H 	0.1246	0.8031	0.8069	-0.031
Mof_N 	N 	0.1237	0.8072	0.7644	-0.168
Mof_C 	C 	0.8751	0.2084	0.03792	0.095
Mof_H 	H 	0.874	0.1937	0.0552	-0.058
Mof_N 	N 	0.8766	0.1867	0.01322	-0.302
Mof_C 	C 	0.878	0.2199	0.99345	0.067
Mof_H 	H 	0.8792	0.2146	0.9743	-0.041
Mof_N 	N 	0.8774	0.2622	0.0059	-0.122
Mof_N 	N 	0.8756	0.2551	0.0334	-0.264
Mof_N 	N 	0.7056	0.1466	0.9513	-0.266
Mof_N 	N 	0.6994	0.0995	0.9534	-0.246
Mof_C 	C 	0.7529	0.0831	0.9675	0.079
Mof_H 	H 	0.7614	0.0516	0.9719	-0.036
Mof_N 	N 	0.7921	0.1202	0.974	-0.287
Mof_C 	C 	0.7628	0.1594	0.964	0.071
Mof_H 	H 	0.7793	0.1901	0.9656	-0.052
Mof_N 	N 	0.7051	0.1472	0.8014	-0.266
Mof_N 	N 	0.6998	0.0996	0.7998	-0.244
Mof_C 	C 	0.7533	0.0833	0.7855	0.082
Mof_H 	H 	0.7622	0.0517	0.7813	-0.019
Mof_N 	N 	0.7917	0.1207	0.7782	-0.284
Mof_C 	C 	0.7619	0.1602	0.788	0.072
Mof_H 	H 	0.7777	0.191	0.786	-0.048
Mof_N 	N 	0.6178	0.2022	0.9003	-0.068
Mof_C 	C 	0.6495	0.1836	0.8777	0.063
Mof_H 	H 	0.6859	0.1629	0.878	-0.038
Mof_N 	N 	0.6187	0.2006	0.8544	-0.125
Mof_C 	C 	0.5678	0.2296	0.8627	0.051
Mof_H 	H 	0.5386	0.246	0.851	-0.012
Mof_N 	N 	0.5673	0.2306	0.891	-0.099
Mof_Zn	Zn	0.63085	0.19025	0.81422	1.165
Mof_Zn	Zn	0.63151	0.19104	0.93972	1.158
Mof_Zn	Zn	0.87764	0.12174	0.99758	1.171
Mof_C 	C 	0.6426	0.2797	0.7788	0.138
Mof_H 	H 	0.6838	0.2714	0.771	-0.036
Mof_N 	N 	0.6078	0.2542	0.7967	-0.149
Mof_N 	N 	0.5525	0.2777	0.8029	-0.12
Mof_C 	C 	0.5531	0.3178	0.7888	0.019
Mof_H 	H 	0.5201	0.3411	0.7892	-0.011
Mof_N 	N 	0.6088	0.319	0.7739	-0.191
Mof_N 	N 	0.6092	0.1938	0.8994	-0.171
Mof_C 	C 	0.6485	0.1942	0.8767	-0.007
Mof_H 	H 	0.6953	0.1951	0.8766	-0.035
Mof_N 	N 	0.6085	0.193	0.8542	-0.15
Mof_C 	C 	0.5445	0.1919	0.863	-0.005
Mof_H 	H 	0.5065	0.191	0.8517	0.001
Mof_N 	N 	0.5449	0.1924	0.8909	-0.088
Mof_C 	C 	0.6243	0.2721	0.7452	-0.008
Mof_H 	H 	0.6238	0.276	0.726	0.001
Mof_N 	N 	0.6255	0.2302	0.7589	-0.112
Mof_N 	N 	0.6258	0.2395	0.7866	-0.19
Mof_C 	C 	0.6247	0.2871	0.79	0.114
Mof_H 	H 	0.6246	0.3031	0.8069	-0.031
Mof_N 	N 	0.6237	0.3072	0.7644	-0.168
Mof_C 	C 	0.8751	0.7084	0.53792	0.095
Mof_H 	H 	0.874	0.6937	0.5552	-0.058
Mof_N 	N 	0.8766	0.6867	0.51322	-0.302
Mof_C 	C 	0.878	0.7199	0.49345	0.067
Mof_H 	H 	0.8792	0.7146	0.4743	-0.041
Mof_N 	N 	0.8774	0.7622	0.5059	-0.122
Mof_N 	N 	0.8756	0.7551	0.5334	-0.264
Mof_N 	N 	0.7056	0.6466	0.4513	-0.266
Mof_N 	N 	0.6994	0.5995	0.4534	-0.246
Mof_C 	C 	0.7529	0.5831	0.4675	0.079
Mof_H 	H 	0.7614	0.5516	0.4719	-0.036
Mof_N 	N 	0.7921	0.6202	0.474	-0.287
Mof_C 	C 	0.7628	0.6594	0.464	0.071
Mof_H 	H 	0.7793	0.6901	0.4656	-0.052
Mof_N 	N 	0.7051	0.6472	0.3014	-0.266
Mof_N 	N 	0.6998	0.5996	0.2998	-0.244
Mof_C 	C 	0.7533	0.5833	0.2855	0.082
Mof_H 	H 	0.7622	0.5517	0.2813	-0.019
Mof_N 	N 	0.7917	0.6207	0.2782	-0.284
Mof_C 	C 	0.7619	0.6602	0.288	0.072
Mof_H 	H 	0.7777	0.691	0.286	-0.048
Mof_N 	N 	0.6178	0.7022	0.4003	-0.068
Mof_C 	C 	0.6495	0.6836	0.3777	0.063
Mof_H 	H 	0.6859	0.6629	0.378	-0.038
Mof_N 	N 	0.6187	0.7006	0.3544	-0.125
Mof_C 	C 	0.5678	0.7296	0.3627	0.051
Mof_H 	H 	0.5386	0.746	0.351	-0.012
Mof_N 	N 	0.5673	0.7306	0.391	-0.099
Mof_Zn	Zn	0.63085	0.69025	0.31422	1.165
Mof_Zn	Zn	0.63151	0.69104	0.43972	1.158
Mof_Zn	Zn	0.87764	0.62174	0.49758	1.171
Mof_C 	C 	0.6426	0.7797	0.2788	0.138
Mof_H 	H 	0.6838	0.7714	0.271	-0.036
Mof_N 	N 	0.6078	0.7542	0.2967	-0.149
Mof_N 	N 	0.5525	0.7777	0.3029	-0.12
Mof_C 	C 	0.5531	0.8178	0.2888	0.019
Mof_H 	H 	0.5201	0.8411	0.2892	-0.011
Mof_N 	N 	0.6088	0.819	0.2739	-0.191
Mof_N 	N 	0.6092	0.6938	0.3994	-0.171
Mof_C 	C 	0.6485	0.6942	0.3767	-0.007
Mof_H 	H 	0.6953	0.6951	0.3766	-0.035
Mof_N 	N 	0.6085	0.693	0.3542	-0.15
Mof_C 	C 	0.5445	0.6919	0.363	-0.005
Mof_H 	H 	0.5065	0.691	0.3517	0.001
Mof_N 	N 	0.5449	0.6924	0.3909	-0.088
Mof_C 	C 	0.6243	0.7721	0.2452	-0.008
Mof_H 	H 	0.6238	0.776	0.226	0.001
Mof_N 	N 	0.6255	0.7302	0.2589	-0.112
Mof_N 	N 	0.6258	0.7395	0.2866	-0.19
Mof_C 	C 	0.6247	0.7871	0.29	0.114
Mof_H 	H 	0.6246	0.8031	0.3069	-0.031
Mof_N 	N 	0.6237	0.8072	0.2644	-0.168
_end
