data_functionalizedCrystal
_audit_creation_method	'EQeq! by Chris Wilmer'
_symmetry_space_group_name_H-M	'P1'
_symmetry_Int_Tables_number	1
_symmetry_cell_setting	triclinic
loop_
_symmetry_equiv_pos_as_xyz
  x,y,z
_cell_length_a	8.8041
_cell_length_b	20.625
_cell_length_c	34.062
_cell_angle_alpha	90
_cell_angle_beta	90
_cell_angle_gamma	90
loop_
_atom_site_label
_atom_site_type_symbol
_atom_site_fract_x
_atom_site_fract_y
_atom_site_fract_z
_atom_site_charge
Mof_O 	O 	0.2445	0.3319	0.6788	-0.564
Mof_C 	C 	0.1046	0.3199	0.6819	0.558
Mof_O 	O 	0.0077	0.3364	0.6571	-0.614
Mof_C 	C 	0.0502	0.2839	0.7176	-0.155
Mof_C 	C 	0.1504	0.2661	0.7462	0.008
Mof_C 	C 	0.1016	0.2297	0.7778	0.009
Mof_O 	O 	0.2455	0.4581	0.6345	-0.586
Mof_C 	C 	0.2598	0.5916	0.6244	0.012
Mof_H 	H 	0.2541	0.2769	0.7436	0.042
Mof_H 	H 	0.1727	0.2153	0.7967	0.03
Mof_H 	H 	0.3527	0.5688	0.6257	0.036
Mof_O 	O 	0.2445	0.8319	0.1788	-0.564
Mof_C 	C 	0.1046	0.8199	0.1819	0.553
Mof_O 	O 	0.0077	0.8364	0.1571	-0.612
Mof_C 	C 	0.0502	0.7839	0.2176	-0.145
Mof_C 	C 	0.1504	0.7661	0.2462	-0.002
Mof_C 	C 	0.1016	0.7297	0.2778	0.02
Mof_O 	O 	0.2455	0.9581	0.1345	-0.587
Mof_C 	C 	0.2598	0.0916	0.1244	0.013
Mof_H 	H 	0.2541	0.7769	0.2436	0.045
Mof_H 	H 	0.1727	0.7153	0.2967	0.026
Mof_H 	H 	0.3527	0.0688	0.1257	0.035
Mof_O 	O 	0.7445	0.3319	0.1788	-0.564
Mof_C 	C 	0.6046	0.3199	0.1819	0.556
Mof_O 	O 	0.5077	0.3364	0.1571	-0.615
Mof_C 	C 	0.5502	0.2839	0.2176	-0.151
Mof_C 	C 	0.6504	0.2661	0.2462	0.002
Mof_C 	C 	0.6016	0.2297	0.2778	0.015
Mof_O 	O 	0.7455	0.4581	0.1345	-0.587
Mof_C 	C 	0.7598	0.5916	0.1244	0.011
Mof_H 	H 	0.7541	0.2769	0.2436	0.044
Mof_H 	H 	0.6727	0.2153	0.2967	0.028
Mof_H 	H 	0.8527	0.5688	0.1257	0.035
Mof_O 	O 	0.7445	0.8319	0.6788	-0.564
Mof_C 	C 	0.6046	0.8199	0.6819	0.556
Mof_O 	O 	0.5077	0.8364	0.6571	-0.614
Mof_C 	C 	0.5502	0.7839	0.7176	-0.151
Mof_C 	C 	0.6504	0.7661	0.7462	0.003
Mof_C 	C 	0.6016	0.7297	0.7778	0.015
Mof_O 	O 	0.7455	0.9581	0.6345	-0.587
Mof_C 	C 	0.7598	0.0916	0.6244	0.01
Mof_H 	H 	0.7541	0.7769	0.7436	0.044
Mof_H 	H 	0.6727	0.7153	0.7967	0.028
Mof_H 	H 	0.8527	0.0688	0.6257	0.036
Mof_O 	O 	0.5055	0.4181	0.6788	-0.565
Mof_C 	C 	0.6454	0.4301	0.6819	0.556
Mof_O 	O 	0.7423	0.4136	0.6571	-0.615
Mof_C 	C 	0.6998	0.4661	0.7176	-0.151
Mof_C 	C 	0.5996	0.4839	0.7462	0.002
Mof_C 	C 	0.6484	0.5203	0.7778	0.015
Mof_O 	O 	0.5045	0.2919	0.6345	-0.587
Mof_C 	C 	0.4902	0.1584	0.6244	0.011
Mof_H 	H 	0.4959	0.4731	0.7436	0.044
Mof_H 	H 	0.5773	0.5347	0.7967	0.028
Mof_H 	H 	0.3973	0.1812	0.6257	0.036
Mof_O 	O 	0.5055	0.9181	0.1788	-0.564
Mof_C 	C 	0.6454	0.9301	0.1819	0.553
Mof_O 	O 	0.7423	0.9136	0.1571	-0.614
Mof_C 	C 	0.6998	0.9661	0.2176	-0.145
Mof_C 	C 	0.5996	0.9839	0.2462	-0.005
Mof_C 	C 	0.6484	0.0203	0.2778	0.022
Mof_O 	O 	0.5045	0.7919	0.1345	-0.587
Mof_C 	C 	0.4902	0.6584	0.1244	0.011
Mof_H 	H 	0.4959	0.9731	0.2436	0.046
Mof_H 	H 	0.5773	0.0347	0.2967	0.026
Mof_H 	H 	0.3973	0.6812	0.1257	0.036
Mof_O 	O 	0.0055	0.4181	0.1788	-0.564
Mof_C 	C 	0.1454	0.4301	0.1819	0.556
Mof_O 	O 	0.2423	0.4136	0.1571	-0.615
Mof_C 	C 	0.1998	0.4661	0.2176	-0.151
Mof_C 	C 	0.0996	0.4839	0.2462	0.003
Mof_C 	C 	0.1484	0.5203	0.2778	0.014
Mof_O 	O 	0.0045	0.2919	0.1345	-0.587
Mof_C 	C 	0.9902	0.1584	0.1244	0.009
Mof_H 	H 	0.9959	0.4731	0.2436	0.043
Mof_H 	H 	0.0773	0.5347	0.2967	0.028
Mof_H 	H 	0.8973	0.1812	0.1257	0.037
Mof_O 	O 	0.0055	0.9181	0.6788	-0.563
Mof_C 	C 	0.1454	0.9301	0.6819	0.558
Mof_O 	O 	0.2423	0.9136	0.6571	-0.615
Mof_C 	C 	0.1998	0.9661	0.7176	-0.158
Mof_C 	C 	0.0996	0.9839	0.7462	0.016
Mof_C 	C 	0.1484	0.0203	0.7778	0.004
Mof_O 	O 	0.0045	0.7919	0.6345	-0.585
Mof_C 	C 	0.9902	0.6584	0.6244	0.008
Mof_H 	H 	0.9959	0.9731	0.7436	0.038
Mof_H 	H 	0.0773	0.0347	0.7967	0.031
Mof_H 	H 	0.8973	0.6812	0.6257	0.036
Mof_O 	O 	0.5055	0.3319	0.0712	-0.564
Mof_C 	C 	0.6454	0.3199	0.0681	0.555
Mof_O 	O 	0.7423	0.3364	0.0929	-0.614
Mof_C 	C 	0.6998	0.2839	0.0324	-0.148
Mof_C 	C 	0.5996	0.2661	0.0038	-0.001
Mof_C 	C 	0.6484	0.2297	0.9722	0.018
Mof_O 	O 	0.5045	0.4581	0.1155	-0.587
Mof_C 	C 	0.4902	0.5916	0.1256	0.011
Mof_H 	H 	0.4959	0.2769	0.0064	0.045
Mof_H 	H 	0.5773	0.2153	0.9533	0.027
Mof_H 	H 	0.3973	0.5688	0.1243	0.036
Mof_O 	O 	0.5055	0.8319	0.5712	-0.565
Mof_C 	C 	0.6454	0.8199	0.5681	0.556
Mof_O 	O 	0.7423	0.8364	0.5929	-0.614
Mof_C 	C 	0.6998	0.7839	0.5324	-0.152
Mof_C 	C 	0.5996	0.7661	0.5038	0.004
Mof_C 	C 	0.6484	0.7297	0.4722	0.013
Mof_O 	O 	0.5045	0.9581	0.6155	-0.587
Mof_C 	C 	0.4902	0.0916	0.6256	0.01
Mof_H 	H 	0.4959	0.7769	0.5064	0.043
Mof_H 	H 	0.5773	0.7153	0.4533	0.028
Mof_H 	H 	0.3973	0.0688	0.6243	0.036
Mof_O 	O 	0.0055	0.3319	0.5712	-0.565
Mof_C 	C 	0.1454	0.3199	0.5681	0.555
Mof_O 	O 	0.2423	0.3364	0.5929	-0.615
Mof_C 	C 	0.1998	0.2839	0.5324	-0.15
Mof_C 	C 	0.0996	0.2661	0.5038	-0.001
Mof_C 	C 	0.1484	0.2297	0.4722	0.017
Mof_O 	O 	0.0045	0.4581	0.6155	-0.587
Mof_C 	C 	0.9902	0.5916	0.6256	0.011
Mof_H 	H 	0.9959	0.2769	0.5064	0.045
Mof_H 	H 	0.0773	0.2153	0.4533	0.027
Mof_H 	H 	0.8973	0.5688	0.6243	0.036
Mof_O 	O 	0.0055	0.8319	0.0712	-0.562
Mof_C 	C 	0.1454	0.8199	0.0681	0.557
Mof_O 	O 	0.2423	0.8364	0.0929	-0.615
Mof_C 	C 	0.1998	0.7839	0.0324	-0.155
Mof_C 	C 	0.0996	0.7661	0.0038	0.011
Mof_C 	C 	0.1484	0.7297	0.9722	0.009
Mof_O 	O 	0.0045	0.9581	0.1155	-0.585
Mof_C 	C 	0.9902	0.0916	0.1256	0.014
Mof_H 	H 	0.9959	0.7769	0.0064	0.039
Mof_H 	H 	0.0773	0.7153	0.9533	0.03
Mof_H 	H 	0.8973	0.0688	0.1243	0.035
Mof_O 	O 	0.2445	0.4181	0.0712	-0.564
Mof_C 	C 	0.1046	0.4301	0.0681	0.555
Mof_O 	O 	0.0077	0.4136	0.0929	-0.614
Mof_C 	C 	0.0502	0.4661	0.0324	-0.15
Mof_C 	C 	0.1504	0.4839	0.0038	0.003
Mof_C 	C 	0.1016	0.5203	0.9722	0.013
Mof_O 	O 	0.2455	0.2919	0.1155	-0.587
Mof_C 	C 	0.2598	0.1584	0.1256	0.009
Mof_H 	H 	0.2541	0.4731	0.0064	0.044
Mof_H 	H 	0.1727	0.5347	0.9533	0.029
Mof_H 	H 	0.3527	0.1812	0.1243	0.036
Mof_O 	O 	0.2445	0.9181	0.5712	-0.564
Mof_C 	C 	0.1046	0.9301	0.5681	0.555
Mof_O 	O 	0.0077	0.9136	0.5929	-0.612
Mof_C 	C 	0.0502	0.9661	0.5324	-0.148
Mof_C 	C 	0.1504	0.9839	0.5038	0.006
Mof_C 	C 	0.1016	0.0203	0.4722	0.008
Mof_O 	O 	0.2455	0.7919	0.6155	-0.586
Mof_C 	C 	0.2598	0.6584	0.6256	0.01
Mof_H 	H 	0.2541	0.9731	0.5064	0.043
Mof_H 	H 	0.1727	0.0347	0.4533	0.03
Mof_H 	H 	0.3527	0.6812	0.6243	0.036
Mof_O 	O 	0.7445	0.4181	0.5712	-0.565
Mof_C 	C 	0.6046	0.4301	0.5681	0.556
Mof_O 	O 	0.5077	0.4136	0.5929	-0.615
Mof_C 	C 	0.5502	0.4661	0.5324	-0.151
Mof_C 	C 	0.6504	0.4839	0.5038	0.003
Mof_C 	C 	0.6016	0.5203	0.4722	0.015
Mof_O 	O 	0.7455	0.2919	0.6155	-0.587
Mof_C 	C 	0.7598	0.1584	0.6256	0.011
Mof_H 	H 	0.7541	0.4731	0.5064	0.044
Mof_H 	H 	0.6727	0.5347	0.4533	0.028
Mof_H 	H 	0.8527	0.1812	0.6243	0.036
Mof_O 	O 	0.7445	0.9181	0.0712	-0.564
Mof_C 	C 	0.6046	0.9301	0.0681	0.556
Mof_O 	O 	0.5077	0.9136	0.0929	-0.614
Mof_C 	C 	0.5502	0.9661	0.0324	-0.151
Mof_C 	C 	0.6504	0.9839	0.0038	0.002
Mof_C 	C 	0.6016	0.0203	0.9722	0.016
Mof_O 	O 	0.7455	0.7919	0.1155	-0.587
Mof_C 	C 	0.7598	0.6584	0.1256	0.011
Mof_H 	H 	0.7541	0.9731	0.0064	0.043
Mof_H 	H 	0.6727	0.0347	0.9533	0.028
Mof_H 	H 	0.8527	0.6812	0.1243	0.035
Mof_O 	O 	0.7555	0.6681	0.3212	-0.565
Mof_C 	C 	0.8954	0.6801	0.3181	0.557
Mof_O 	O 	0.9923	0.6636	0.3429	-0.615
Mof_C 	C 	0.9498	0.7161	0.2824	-0.156
Mof_C 	C 	0.8496	0.7339	0.2538	0.007
Mof_C 	C 	0.8984	0.7703	0.2222	0.008
Mof_O 	O 	0.7545	0.5419	0.3655	-0.587
Mof_C 	C 	0.7402	0.4084	0.3756	0.011
Mof_H 	H 	0.7459	0.7231	0.2564	0.042
Mof_H 	H 	0.8273	0.7847	0.2033	0.03
Mof_H 	H 	0.6473	0.4312	0.3743	0.036
Mof_O 	O 	0.7555	0.1681	0.8212	-0.564
Mof_C 	C 	0.8954	0.1801	0.8181	0.553
Mof_O 	O 	0.9923	0.1636	0.8429	-0.612
Mof_C 	C 	0.9498	0.2161	0.7824	-0.145
Mof_C 	C 	0.8496	0.2339	0.7538	-0.002
Mof_C 	C 	0.8984	0.2703	0.7222	0.02
Mof_O 	O 	0.7545	0.0419	0.8655	-0.587
Mof_C 	C 	0.7402	0.9084	0.8756	0.013
Mof_H 	H 	0.7459	0.2231	0.7564	0.045
Mof_H 	H 	0.8273	0.2847	0.7033	0.026
Mof_H 	H 	0.6473	0.9312	0.8743	0.035
Mof_O 	O 	0.2555	0.6681	0.8212	-0.564
Mof_C 	C 	0.3954	0.6801	0.8181	0.556
Mof_O 	O 	0.4923	0.6636	0.8429	-0.615
Mof_C 	C 	0.4498	0.7161	0.7824	-0.151
Mof_C 	C 	0.3496	0.7339	0.7538	0.002
Mof_C 	C 	0.3984	0.7703	0.7222	0.015
Mof_O 	O 	0.2545	0.5419	0.8655	-0.587
Mof_C 	C 	0.2402	0.4084	0.8756	0.011
Mof_H 	H 	0.2459	0.7231	0.7564	0.044
Mof_H 	H 	0.3273	0.7847	0.7033	0.028
Mof_H 	H 	0.1473	0.4312	0.8743	0.035
Mof_O 	O 	0.2555	0.1681	0.3212	-0.564
Mof_C 	C 	0.3954	0.1801	0.3181	0.556
Mof_O 	O 	0.4923	0.1636	0.3429	-0.614
Mof_C 	C 	0.4498	0.2161	0.2824	-0.151
Mof_C 	C 	0.3496	0.2339	0.2538	0.003
Mof_C 	C 	0.3984	0.2703	0.2222	0.015
Mof_O 	O 	0.2545	0.0419	0.3655	-0.587
Mof_C 	C 	0.2402	0.9084	0.3756	0.01
Mof_H 	H 	0.2459	0.2231	0.2564	0.044
Mof_H 	H 	0.3273	0.2847	0.2033	0.028
Mof_H 	H 	0.1473	0.9312	0.3743	0.036
Mof_O 	O 	0.4945	0.5819	0.3212	-0.565
Mof_C 	C 	0.3546	0.5699	0.3181	0.556
Mof_O 	O 	0.2577	0.5864	0.3429	-0.615
Mof_C 	C 	0.3002	0.5339	0.2824	-0.151
Mof_C 	C 	0.4004	0.5161	0.2538	0.002
Mof_C 	C 	0.3516	0.4797	0.2222	0.015
Mof_O 	O 	0.4955	0.7081	0.3655	-0.587
Mof_C 	C 	0.5098	0.8416	0.3756	0.011
Mof_H 	H 	0.5041	0.5269	0.2564	0.044
Mof_H 	H 	0.4227	0.4653	0.2033	0.028
Mof_H 	H 	0.6027	0.8188	0.3743	0.036
Mof_O 	O 	0.4945	0.0819	0.8212	-0.564
Mof_C 	C 	0.3546	0.0699	0.8181	0.553
Mof_O 	O 	0.2577	0.0864	0.8429	-0.614
Mof_C 	C 	0.3002	0.0339	0.7824	-0.145
Mof_C 	C 	0.4004	0.0161	0.7538	-0.005
Mof_C 	C 	0.3516	0.9797	0.7222	0.022
Mof_O 	O 	0.4955	0.2081	0.8655	-0.587
Mof_C 	C 	0.5098	0.3416	0.8756	0.011
Mof_H 	H 	0.5041	0.0269	0.7564	0.046
Mof_H 	H 	0.4227	0.9653	0.7033	0.026
Mof_H 	H 	0.6027	0.3188	0.8743	0.036
Mof_O 	O 	0.9945	0.5819	0.8212	-0.564
Mof_C 	C 	0.8546	0.5699	0.8181	0.556
Mof_O 	O 	0.7577	0.5864	0.8429	-0.615
Mof_C 	C 	0.8002	0.5339	0.7824	-0.151
Mof_C 	C 	0.9004	0.5161	0.7538	0.003
Mof_C 	C 	0.8516	0.4797	0.7222	0.014
Mof_O 	O 	0.9955	0.7081	0.8655	-0.587
Mof_C 	C 	0.0098	0.8416	0.8756	0.009
Mof_H 	H 	0.0041	0.5269	0.7564	0.043
Mof_H 	H 	0.9227	0.4653	0.7033	0.028
Mof_H 	H 	0.1027	0.8188	0.8743	0.037
Mof_O 	O 	0.9945	0.0819	0.3212	-0.563
Mof_C 	C 	0.8546	0.0699	0.3181	0.558
Mof_O 	O 	0.7577	0.0864	0.3429	-0.615
Mof_C 	C 	0.8002	0.0339	0.2824	-0.158
Mof_C 	C 	0.9004	0.0161	0.2538	0.016
Mof_C 	C 	0.8516	0.9797	0.2222	0.004
Mof_O 	O 	0.9955	0.2081	0.3655	-0.585
Mof_C 	C 	0.0098	0.3416	0.3756	0.008
Mof_H 	H 	0.0041	0.0269	0.2564	0.038
Mof_H 	H 	0.9227	0.9653	0.2033	0.031
Mof_H 	H 	0.1027	0.3188	0.3743	0.036
Mof_O 	O 	0.4945	0.6681	0.9288	-0.564
Mof_C 	C 	0.3546	0.6801	0.9319	0.555
Mof_O 	O 	0.2577	0.6636	0.9071	-0.614
Mof_C 	C 	0.3002	0.7161	0.9676	-0.148
Mof_C 	C 	0.4004	0.7339	0.9962	-0.001
Mof_C 	C 	0.3516	0.7703	0.0278	0.018
Mof_O 	O 	0.4955	0.5419	0.8845	-0.587
Mof_C 	C 	0.5098	0.4084	0.8744	0.011
Mof_H 	H 	0.5041	0.7231	0.9936	0.045
Mof_H 	H 	0.4227	0.7847	0.0467	0.027
Mof_H 	H 	0.6027	0.4312	0.8757	0.036
Mof_O 	O 	0.4945	0.1681	0.4288	-0.565
Mof_C 	C 	0.3546	0.1801	0.4319	0.556
Mof_O 	O 	0.2577	0.1636	0.4071	-0.614
Mof_C 	C 	0.3002	0.2161	0.4676	-0.152
Mof_C 	C 	0.4004	0.2339	0.4962	0.004
Mof_C 	C 	0.3516	0.2703	0.5278	0.013
Mof_O 	O 	0.4955	0.0419	0.3845	-0.587
Mof_C 	C 	0.5098	0.9084	0.3744	0.01
Mof_H 	H 	0.5041	0.2231	0.4936	0.043
Mof_H 	H 	0.4227	0.2847	0.5467	0.028
Mof_H 	H 	0.6027	0.9312	0.3757	0.036
Mof_O 	O 	0.9945	0.6681	0.4288	-0.565
Mof_C 	C 	0.8546	0.6801	0.4319	0.555
Mof_O 	O 	0.7577	0.6636	0.4071	-0.615
Mof_C 	C 	0.8002	0.7161	0.4676	-0.15
Mof_C 	C 	0.9004	0.7339	0.4962	-0.001
Mof_C 	C 	0.8516	0.7703	0.5278	0.017
Mof_O 	O 	0.9955	0.5419	0.3845	-0.587
Mof_C 	C 	0.0098	0.4084	0.3744	0.011
Mof_H 	H 	0.0041	0.7231	0.4936	0.045
Mof_H 	H 	0.9227	0.7847	0.5467	0.027
Mof_H 	H 	0.1027	0.4312	0.3757	0.036
Mof_O 	O 	0.9945	0.1681	0.9288	-0.562
Mof_C 	C 	0.8546	0.1801	0.9319	0.557
Mof_O 	O 	0.7577	0.1636	0.9071	-0.615
Mof_C 	C 	0.8002	0.2161	0.9676	-0.155
Mof_C 	C 	0.9004	0.2339	0.9962	0.011
Mof_C 	C 	0.8516	0.2703	0.0278	0.009
Mof_O 	O 	0.9955	0.0419	0.8845	-0.585
Mof_C 	C 	0.0098	0.9084	0.8744	0.014
Mof_H 	H 	0.0041	0.2231	0.9936	0.039
Mof_H 	H 	0.9227	0.2847	0.0467	0.03
Mof_H 	H 	0.1027	0.9312	0.8757	0.035
Mof_O 	O 	0.7555	0.5819	0.9288	-0.564
Mof_C 	C 	0.8954	0.5699	0.9319	0.555
Mof_O 	O 	0.9923	0.5864	0.9071	-0.614
Mof_C 	C 	0.9498	0.5339	0.9676	-0.15
Mof_C 	C 	0.8496	0.5161	0.9962	0.003
Mof_C 	C 	0.8984	0.4797	0.0278	0.013
Mof_O 	O 	0.7545	0.7081	0.8845	-0.587
Mof_C 	C 	0.7402	0.8416	0.8744	0.009
Mof_H 	H 	0.7459	0.5269	0.9936	0.044
Mof_H 	H 	0.8273	0.4653	0.0467	0.029
Mof_H 	H 	0.6473	0.8188	0.8757	0.036
Mof_O 	O 	0.7555	0.0819	0.4288	-0.564
Mof_C 	C 	0.8954	0.0699	0.4319	0.555
Mof_O 	O 	0.9923	0.0864	0.4071	-0.612
Mof_C 	C 	0.9498	0.0339	0.4676	-0.148
Mof_C 	C 	0.8496	0.0161	0.4962	0.006
Mof_C 	C 	0.8984	0.9797	0.5278	0.008
Mof_O 	O 	0.7545	0.2081	0.3845	-0.586
Mof_C 	C 	0.7402	0.3416	0.3744	0.01
Mof_H 	H 	0.7459	0.0269	0.4936	0.043
Mof_H 	H 	0.8273	0.9653	0.5467	0.03
Mof_H 	H 	0.6473	0.3188	0.3757	0.036
Mof_O 	O 	0.2555	0.5819	0.4288	-0.565
Mof_C 	C 	0.3954	0.5699	0.4319	0.556
Mof_O 	O 	0.4923	0.5864	0.4071	-0.615
Mof_C 	C 	0.4498	0.5339	0.4676	-0.151
Mof_C 	C 	0.3496	0.5161	0.4962	0.003
Mof_C 	C 	0.3984	0.4797	0.5278	0.015
Mof_O 	O 	0.2545	0.7081	0.3845	-0.587
Mof_C 	C 	0.2402	0.8416	0.3744	0.011
Mof_H 	H 	0.2459	0.5269	0.4936	0.044
Mof_H 	H 	0.3273	0.4653	0.5467	0.028
Mof_H 	H 	0.1473	0.8188	0.3757	0.036
Mof_O 	O 	0.2555	0.0819	0.9288	-0.564
Mof_C 	C 	0.3954	0.0699	0.9319	0.556
Mof_O 	O 	0.4923	0.0864	0.9071	-0.614
Mof_C 	C 	0.4498	0.0339	0.9676	-0.151
Mof_C 	C 	0.3496	0.0161	0.9962	0.002
Mof_C 	C 	0.3984	0.9797	0.0278	0.016
Mof_O 	O 	0.2545	0.2081	0.8845	-0.587
Mof_C 	C 	0.2402	0.3416	0.8744	0.011
Mof_H 	H 	0.2459	0.0269	0.9936	0.043
Mof_H 	H 	0.3273	0.9653	0.0467	0.028
Mof_H 	H 	0.1473	0.3188	0.8757	0.035
Mof_Sc	Sc	0.375	0.375	0.63509	2.046
Mof_Sc	Sc	0.375	0.875	0.13509	2.046
Mof_Sc	Sc	0.875	0.375	0.13509	2.044
Mof_Sc	Sc	0.875	0.875	0.63509	2.04
Mof_Sc	Sc	0.375	0.375	0.11491	2.046
Mof_Sc	Sc	0.375	0.875	0.61491	2.046
Mof_Sc	Sc	0.875	0.375	0.61491	2.046
Mof_Sc	Sc	0.875	0.875	0.11491	2.039
Mof_Sc	Sc	0.625	0.625	0.36491	2.046
Mof_Sc	Sc	0.625	0.125	0.86491	2.046
Mof_Sc	Sc	0.125	0.625	0.86491	2.044
Mof_Sc	Sc	0.125	0.125	0.36491	2.04
Mof_Sc	Sc	0.625	0.625	0.88509	2.046
Mof_Sc	Sc	0.625	0.125	0.38509	2.046
Mof_Sc	Sc	0.125	0.625	0.38509	2.046
Mof_Sc	Sc	0.125	0.125	0.88509	2.039
Mof_C 	C 	0.125	0.4864	0.625	0.563
Mof_C 	C 	0.125	0.5583	0.625	-0.157
Mof_C 	C 	0.125	0.9864	0.125	0.565
Mof_C 	C 	0.125	0.0583	0.125	-0.162
Mof_C 	C 	0.625	0.9864	0.625	0.562
Mof_C 	C 	0.625	0.0583	0.625	-0.156
Mof_C 	C 	0.625	0.2636	0.625	0.563
Mof_C 	C 	0.625	0.1917	0.625	-0.158
Mof_C 	C 	0.625	0.7636	0.125	0.562
Mof_C 	C 	0.625	0.6917	0.125	-0.157
Mof_C 	C 	0.625	0.4864	0.125	0.563
Mof_C 	C 	0.625	0.5583	0.125	-0.157
Mof_C 	C 	0.125	0.2636	0.125	0.562
Mof_C 	C 	0.125	0.1917	0.125	-0.156
Mof_C 	C 	0.125	0.7636	0.625	0.562
Mof_C 	C 	0.125	0.6917	0.625	-0.155
Mof_C 	C 	0.875	0.5136	0.375	0.563
Mof_C 	C 	0.875	0.4417	0.375	-0.157
Mof_C 	C 	0.875	0.0136	0.875	0.565
Mof_C 	C 	0.875	0.9417	0.875	-0.162
Mof_C 	C 	0.375	0.7364	0.375	0.563
Mof_C 	C 	0.375	0.8083	0.375	-0.158
Mof_C 	C 	0.375	0.2364	0.875	0.562
Mof_C 	C 	0.375	0.3083	0.875	-0.157
Mof_C 	C 	0.375	0.5136	0.875	0.563
Mof_C 	C 	0.375	0.4417	0.875	-0.157
Mof_C 	C 	0.375	0.0136	0.375	0.562
Mof_C 	C 	0.375	0.9417	0.375	-0.156
Mof_C 	C 	0.875	0.7364	0.875	0.562
Mof_C 	C 	0.875	0.8083	0.875	-0.156
Mof_C 	C 	0.875	0.2364	0.375	0.562
Mof_C 	C 	0.875	0.3083	0.375	-0.155
_end
