data_functionalizedCrystal
_audit_creation_method	'EQeq! by Chris Wilmer'
_symmetry_space_group_name_H-M	'P1'
_symmetry_Int_Tables_number	1
_symmetry_cell_setting	triclinic
loop_
_symmetry_equiv_pos_as_xyz
  x,y,z
_cell_length_a	14.7307
_cell_length_b	14.7307
_cell_length_c	14.7307
_cell_angle_alpha	109.471
_cell_angle_beta	109.471
_cell_angle_gamma	109.471
loop_
_atom_site_label
_atom_site_type_symbol
_atom_site_fract_x
_atom_site_fract_y
_atom_site_fract_z
_atom_site_charge
Mof_Zn	Zn	0.25	0.75	0.5	1.175
Mof_Zn	Zn	0.75	0.25	0.5	1.175
Mof_Zn	Zn	0.5	0.75	0.25	1.175
Mof_Zn	Zn	0.5	0.25	0.75	1.175
Mof_Zn	Zn	0.75	0.5	0.25	1.175
Mof_Zn	Zn	0.25	0.5	0.75	1.175
Mof_H 	H 	0.10249	0.88103	0.52632	-0.003
Mof_H 	H 	0.35471	0.57617	0.47368	-0.001
Mof_H 	H 	0.64529	0.11897	0.22146	0
Mof_H 	H 	0.89751	0.42383	0.77854	0
Mof_H 	H 	0.22146	0.64529	0.11897	0.001
Mof_H 	H 	0.77854	0.89751	0.42383	-0.001
Mof_H 	H 	0.52632	0.10249	0.88103	-0.003
Mof_H 	H 	0.47368	0.35471	0.57617	-0
Mof_H 	H 	0.57617	0.47368	0.35471	-0.001
Mof_H 	H 	0.88103	0.52632	0.10249	-0.002
Mof_H 	H 	0.42383	0.77854	0.89751	-0.001
Mof_H 	H 	0.11897	0.22146	0.64529	-0
Mof_H 	H 	0.57617	0.35471	0.47368	-0.001
Mof_H 	H 	0.88103	0.10249	0.52632	-0.001
Mof_H 	H 	0.42383	0.89751	0.77854	-0.001
Mof_H 	H 	0.11897	0.64529	0.22146	0
Mof_H 	H 	0.10249	0.52632	0.88103	-0.002
Mof_H 	H 	0.35471	0.47368	0.57617	-0.001
Mof_H 	H 	0.64529	0.22146	0.11897	0.001
Mof_H 	H 	0.89751	0.77854	0.42383	-0.001
Mof_H 	H 	0.22146	0.11897	0.64529	-0
Mof_H 	H 	0.77854	0.42383	0.89751	-0
Mof_H 	H 	0.52632	0.88103	0.10249	-0.002
Mof_H 	H 	0.47368	0.57617	0.35471	-0.001
Mof_C 	C 	0.0551	0.7873	0.4678	-0.004
Mof_C 	C 	0.3195	0.5873	0.5322	-0.009
Mof_C 	C 	0.6805	0.2127	0.2678	-0.008
Mof_C 	C 	0.9449	0.4127	0.7322	-0.013
Mof_C 	C 	0.2678	0.6805	0.2127	-0.009
Mof_C 	C 	0.7322	0.9449	0.4127	-0.014
Mof_C 	C 	0.4678	0.0551	0.7873	-0.004
Mof_C 	C 	0.5322	0.3195	0.5873	-0.008
Mof_C 	C 	0.5873	0.5322	0.3195	-0.008
Mof_C 	C 	0.7873	0.4678	0.0551	0.002
Mof_C 	C 	0.4127	0.7322	0.9449	-0.019
Mof_C 	C 	0.2127	0.2678	0.6805	-0.009
Mof_C 	C 	0.5873	0.3195	0.5322	-0.009
Mof_C 	C 	0.7873	0.0551	0.4678	-0.003
Mof_C 	C 	0.4127	0.9449	0.7322	-0.014
Mof_C 	C 	0.2127	0.6805	0.2678	-0.008
Mof_C 	C 	0.0551	0.4678	0.7873	-0.004
Mof_C 	C 	0.3195	0.5322	0.5873	-0.009
Mof_C 	C 	0.6805	0.2678	0.2127	-0.007
Mof_C 	C 	0.9449	0.7322	0.4127	-0.013
Mof_C 	C 	0.2678	0.2127	0.6805	-0.008
Mof_C 	C 	0.7322	0.4127	0.9449	-0.02
Mof_C 	C 	0.4678	0.7873	0.0551	0.001
Mof_C 	C 	0.5322	0.5873	0.3195	-0.009
Mof_C 	C 	1.15504e-17	0.6147	0.3681	0.132
Mof_C 	C 	-5.77522e-17	0.5077	0.3179	-0.235
Mof_C 	C 	0.2466	0.6319	0.6319	0.129
Mof_C 	C 	0.1898	0.6821	0.6821	-0.238
Mof_C 	C 	0.7534	0.3853	0.3853	0.13
Mof_C 	C 	0.8102	0.4923	0.4923	-0.239
Mof_C 	C 	-1.15504e-17	0.3681	0.6147	0.131
Mof_C 	C 	-3.46513e-17	0.3179	0.5077	-0.234
Mof_C 	C 	0.3853	0.7534	0.3853	0.13
Mof_C 	C 	0.4923	0.8102	0.4923	-0.238
Mof_C 	C 	0.6147	-2.31009e-17	0.3681	0.133
Mof_C 	C 	0.5077	-4.62017e-17	0.3179	-0.235
Mof_C 	C 	0.3681	0	0.6147	0.132
Mof_C 	C 	0.3179	0	0.5077	-0.235
Mof_C 	C 	0.6319	0.2466	0.6319	0.129
Mof_C 	C 	0.6821	0.1898	0.6821	-0.236
Mof_C 	C 	0.6319	0.6319	0.2466	0.129
Mof_C 	C 	0.6821	0.6821	0.1898	-0.239
Mof_C 	C 	0.6147	0.3681	-0	0.133
Mof_C 	C 	0.5077	0.3179	-0	-0.222
Mof_C 	C 	0.3681	0.6147	-0	0.134
Mof_C 	C 	0.3179	0.5077	-0	-0.229
Mof_C 	C 	0.3853	0.3853	0.7534	0.129
Mof_C 	C 	0.4923	0.4923	0.8102	-0.238
Mof_N 	N 	0.0923	0.7136	0.4405	-0.293
Mof_N 	N 	0.2731	0.6518	0.5595	-0.292
Mof_N 	N 	0.7269	0.2864	0.3787	-0.292
Mof_N 	N 	0.9077	0.3482	0.6213	-0.293
Mof_N 	N 	0.3787	0.7269	0.2864	-0.292
Mof_N 	N 	0.6213	0.9077	0.3482	-0.293
Mof_N 	N 	0.4405	0.0923	0.7136	-0.293
Mof_N 	N 	0.5595	0.2731	0.6518	-0.293
Mof_N 	N 	0.6518	0.5595	0.2731	-0.292
Mof_N 	N 	0.7136	0.4405	0.0923	-0.294
Mof_N 	N 	0.3482	0.6213	0.9077	-0.294
Mof_N 	N 	0.2864	0.3787	0.7269	-0.292
Mof_N 	N 	0.6518	0.2731	0.5595	-0.292
Mof_N 	N 	0.7136	0.0923	0.4405	-0.293
Mof_N 	N 	0.3482	0.9077	0.6213	-0.293
Mof_N 	N 	0.2864	0.7269	0.3787	-0.292
Mof_N 	N 	0.0923	0.4405	0.7136	-0.294
Mof_N 	N 	0.2731	0.5595	0.6518	-0.293
Mof_N 	N 	0.7269	0.3787	0.2864	-0.292
Mof_N 	N 	0.9077	0.6213	0.3482	-0.293
Mof_N 	N 	0.3787	0.2864	0.7269	-0.292
Mof_N 	N 	0.6213	0.3482	0.9077	-0.294
Mof_N 	N 	0.4405	0.7136	0.0923	-0.294
Mof_N 	N 	0.5595	0.6518	0.2731	-0.292
Mof_H 	H 	0.02357	0.50305	0.25087	0.049
Mof_H 	H 	0.91357	0.4346	0.27938	0.03
Mof_H 	H 	0.06286	0.50421	0.38534	0.043
Mof_H 	H 	0.13039	0.61918	0.69286	0.039
Mof_H 	H 	0.14112	0.70558	0.62494	0.036
Mof_H 	H 	0.25476	0.75966	0.76661	0.048
Mof_H 	H 	0.85888	0.56445	0.48382	0.036
Mof_H 	H 	0.86961	0.48879	0.56246	0.039
Mof_H 	H 	0.74524	0.5049	0.51186	0.049
Mof_H 	H 	0.05137	0.38696	0.49727	0.046
Mof_H 	H 	0.91099	0.26677	0.43514	0.028
Mof_H 	H 	0.03764	0.26185	0.50945	0.047
Mof_H 	H 	0.56183	0.87202	0.49009	0.039
Mof_H 	H 	0.51355	0.74553	0.50329	0.049
Mof_H 	H 	0.48276	0.85618	0.56477	0.034
Mof_H 	H 	0.50165	0.02058	0.24879	0.05
Mof_H 	H 	0.29874	0.92152	0.4361	0.035
Mof_H 	H 	0.37906	0.07625	0.51299	0.038
Mof_H 	H 	0.23779	0.00222	0.49276	0.05
Mof_H 	H 	0.7412	0.17743	0.65186	0.029
Mof_H 	H 	0.61325	0.10553	0.65597	0.048
Mof_H 	H 	0.72997	0.24331	0.77659	0.044
Mof_H 	H 	0.62094	0.6972	0.13394	0.039
Mof_H 	H 	0.70126	0.62278	0.13736	0.038
Mof_H 	H 	0.76221	0.76443	0.25497	0.049
Mof_H 	H 	0.48645	0.23197	0.98973	0.041
Mof_H 	H 	0.43817	0.31019	0.92826	0.033
Mof_H 	H 	0.51724	0.37342	0.08201	0.033
Mof_H 	H 	0.38675	0.49229	0.04272	0.048
Mof_H 	H 	0.25881	0.43623	0.91067	0.024
Mof_H 	H 	0.27002	0.51334	0.04661	0.045
Mof_H 	H 	0.49835	0.51893	0.74714	0.048
Mof_H 	H 	0.56535	0.47975	0.84742	0.031
Mof_H 	H 	0.49444	0.55946	0.87917	0.041
Mof_H 	H 	0.50556	0.06502	0.38472	0.043
Mof_H 	H 	0.43465	0.9144	0.28207	0.031
_end
