# CIF file generated by openbabel 3.1.0, see https://openbabel.org
data_I
_chemical_name_common 'image0'
_cell_length_a 26.6396
_cell_length_b 12.9853
_cell_length_c 23.2326
_cell_angle_alpha 90
_cell_angle_beta 108.696
_cell_angle_gamma 90
_space_group_name_H-M_alt 'P 1'
_space_group_name_Hall 'P 1'
loop_
    _symmetry_equiv_pos_as_xyz
    x,y,z
loop_
    _atom_site_label
    _atom_site_type_symbol
    _atom_site_fract_x
    _atom_site_fract_y
    _atom_site_fract_z
    _atom_site_occupancy
    C1       C        0.60244    0.35860    0.60941    1.000
    C2       C        0.57244    0.28600    0.56016    1.000
    C3       C        0.59484    0.19280    0.55209    1.000
    H1       H        0.62980    0.17610    0.57690    1.000
    C4       C        0.56647    0.12370    0.50800    1.000
    H2       H        0.58230    0.06040    0.50270    1.000
    C5       C        0.51525    0.14660    0.47165    1.000
    C6       C        0.49341    0.24110    0.47997    1.000
    H3       H        0.45840    0.25800    0.45530    1.000
    C7       C        0.52148    0.30960    0.52296    1.000
    H4       H        0.50600    0.37380    0.52740    1.000
    C8       C        0.48572    0.07330    0.42392    1.000
    C9       C        0.43125    0.07730    0.39712    1.000
    H5       H        0.41120    0.12780    0.40960    1.000
    C10      C        0.40595    0.00700    0.35177    1.000
    C11      C        0.43732    0.93270    0.33699    1.000
    H6       H        0.42160    0.88240    0.30690    1.000
    C12      C        0.49143    0.93210    0.36618    1.000
    C13      C        0.52608    0.85650    0.34994    1.000
    C14      C        0.57489    0.88710    0.34588    1.000
    H7       H        0.58760    0.95470    0.35780    1.000
    C15      C        0.60491    0.81990    0.32468    1.000
    H8       H        0.63800    0.84200    0.32160    1.000
    C16      C        0.58758    0.72110    0.30785    1.000
    C17      C        0.54046    0.68880    0.31473    1.000
    H9       H        0.52910    0.61970    0.30520    1.000
    C18      C        0.50987    0.75530    0.33512    1.000
    H10      H        0.47730    0.73210    0.33920    1.000
    C19      C        0.61660    0.65350    0.27726    1.000
    C20      C        0.34825    0.01170    0.32027    1.000
    C21      C        0.31961    0.92470    0.29198    1.000
    H11      H        0.33680    0.86000    0.29430    1.000
    C22      C        0.26630    0.93430    0.26079    1.000
    H12      H        0.24750    0.87480    0.24180    1.000
    C23      C        0.26692    0.10560    0.28296    1.000
    H13      H        0.24860    0.16910    0.27990    1.000
    C24      C        0.32012    0.10330    0.31498    1.000
    H14      H        0.33770    0.16430    0.33350    1.000
    N1       N        0.51581    0.00150    0.40859    1.000
    N2       N        0.23962    0.02260    0.25578    1.000
    O1       O        0.58121    0.44425    0.61444    1.000
    O2       O        0.64591    0.33300    0.64400    1.000
    O3       O        0.59490    0.57250    0.25190    1.000
    O4       O        0.65938    0.68200    0.27336    1.000
    Mn1      Mn       0.15272    0.03181    0.20581    1.000
    C25      C        0.10244    0.85860    0.60941    1.000
    C26      C        0.07244    0.78600    0.56016    1.000
    C27      C        0.09484    0.69280    0.55209    1.000
    H15      H        0.12980    0.67610    0.57690    1.000
    C28      C        0.06647    0.62370    0.50800    1.000
    H16      H        0.08230    0.56040    0.50270    1.000
    C29      C        0.01525    0.64660    0.47165    1.000
    C30      C        0.99341    0.74110    0.47997    1.000
    H17      H        0.95840    0.75800    0.45530    1.000
    C31      C        0.02148    0.80960    0.52296    1.000
    H18      H        0.00600    0.87380    0.52740    1.000
    C32      C        0.98572    0.57330    0.42392    1.000
    C33      C        0.93125    0.57730    0.39712    1.000
    H19      H        0.91120    0.62780    0.40960    1.000
    C34      C        0.90595    0.50700    0.35177    1.000
    C35      C        0.93732    0.43270    0.33699    1.000
    H20      H        0.92160    0.38240    0.30690    1.000
    C36      C        0.99143    0.43210    0.36618    1.000
    C37      C        0.02608    0.35650    0.34994    1.000
    C38      C        0.07489    0.38710    0.34588    1.000
    H21      H        0.08760    0.45470    0.35780    1.000
    C39      C        0.10491    0.31990    0.32468    1.000
    H22      H        0.13800    0.34200    0.32160    1.000
    C40      C        0.08758    0.22110    0.30785    1.000
    C41      C        0.04046    0.18880    0.31473    1.000
    H23      H        0.02910    0.11970    0.30520    1.000
    C42      C        0.00987    0.25530    0.33512    1.000
    H24      H        0.97730    0.23210    0.33920    1.000
    C43      C        0.11660    0.15350    0.27726    1.000
    C44      C        0.84825    0.51170    0.32027    1.000
    C45      C        0.81961    0.42470    0.29198    1.000
    H25      H        0.83680    0.36000    0.29430    1.000
    C46      C        0.76630    0.43430    0.26079    1.000
    H26      H        0.74750    0.37480    0.24180    1.000
    C47      C        0.76692    0.60560    0.28296    1.000
    H27      H        0.74860    0.66910    0.27990    1.000
    C48      C        0.82012    0.60330    0.31498    1.000
    H28      H        0.83770    0.66430    0.33350    1.000
    N3       N        0.01581    0.50150    0.40859    1.000
    N4       N        0.73962    0.52260    0.25578    1.000
    O5       O        0.08121    0.94425    0.61444    1.000
    O6       O        0.14591    0.83300    0.64400    1.000
    O7       O        0.09490    0.07250    0.25190    1.000
    O8       O        0.15938    0.18200    0.27336    1.000
    Mn2      Mn       0.65272    0.53181    0.20581    1.000
    C49      C        0.60244    0.64140    0.10941    1.000
    C50      C        0.57244    0.71400    0.06016    1.000
    C51      C        0.59484    0.80720    0.05209    1.000
    H29      H        0.62980    0.82390    0.07690    1.000
    C52      C        0.56647    0.87630    0.00800    1.000
    H30      H        0.58230    0.93960    0.00270    1.000
    C53      C        0.51525    0.85340    0.97165    1.000
    C54      C        0.49341    0.75890    0.97997    1.000
    H31      H        0.45840    0.74200    0.95530    1.000
    C55      C        0.52148    0.69040    0.02296    1.000
    H32      H        0.50600    0.62620    0.02740    1.000
    C56      C        0.48572    0.92670    0.92392    1.000
    C57      C        0.43125    0.92270    0.89712    1.000
    H33      H        0.41120    0.87220    0.90960    1.000
    C58      C        0.40595    0.99300    0.85177    1.000
    C59      C        0.43732    0.06730    0.83699    1.000
    H34      H        0.42160    0.11760    0.80690    1.000
    C60      C        0.49143    0.06790    0.86618    1.000
    C61      C        0.52608    0.14350    0.84994    1.000
    C62      C        0.57489    0.11290    0.84588    1.000
    H35      H        0.58760    0.04530    0.85780    1.000
    C63      C        0.60491    0.18010    0.82468    1.000
    H36      H        0.63800    0.15800    0.82160    1.000
    C64      C        0.58758    0.27890    0.80785    1.000
    C65      C        0.54046    0.31120    0.81473    1.000
    H37      H        0.52910    0.38030    0.80520    1.000
    C66      C        0.50987    0.24470    0.83512    1.000
    H38      H        0.47730    0.26790    0.83920    1.000
    C67      C        0.61660    0.34650    0.77726    1.000
    C68      C        0.34825    0.98830    0.82027    1.000
    C69      C        0.31961    0.07530    0.79198    1.000
    H39      H        0.33680    0.14000    0.79430    1.000
    C70      C        0.26630    0.06570    0.76079    1.000
    H40      H        0.24750    0.12520    0.74180    1.000
    C71      C        0.26692    0.89440    0.78296    1.000
    H41      H        0.24860    0.83090    0.77990    1.000
    C72      C        0.32012    0.89670    0.81498    1.000
    H42      H        0.33770    0.83570    0.83350    1.000
    N5       N        0.51581    0.99850    0.90859    1.000
    N6       N        0.23962    0.97740    0.75578    1.000
    O9       O        0.58121    0.55575    0.11444    1.000
    O10      O        0.64591    0.66700    0.14400    1.000
    O11      O        0.59490    0.42750    0.75190    1.000
    O12      O        0.65938    0.31800    0.77336    1.000
    Mn3      Mn       0.15272    0.96819    0.70581    1.000
    C73      C        0.10244    0.14140    0.10941    1.000
    C74      C        0.07244    0.21400    0.06016    1.000
    C75      C        0.09484    0.30720    0.05209    1.000
    H43      H        0.12980    0.32390    0.07690    1.000
    C76      C        0.06647    0.37630    0.00800    1.000
    H44      H        0.08230    0.43960    0.00270    1.000
    C77      C        0.01525    0.35340    0.97165    1.000
    C78      C        0.99341    0.25890    0.97997    1.000
    H45      H        0.95840    0.24200    0.95530    1.000
    C79      C        0.02148    0.19040    0.02296    1.000
    H46      H        0.00600    0.12620    0.02740    1.000
    C80      C        0.98572    0.42670    0.92392    1.000
    C81      C        0.93125    0.42270    0.89712    1.000
    H47      H        0.91120    0.37220    0.90960    1.000
    C82      C        0.90595    0.49300    0.85177    1.000
    C83      C        0.93732    0.56730    0.83699    1.000
    H48      H        0.92160    0.61760    0.80690    1.000
    C84      C        0.99143    0.56790    0.86618    1.000
    C85      C        0.02608    0.64350    0.84994    1.000
    C86      C        0.07489    0.61290    0.84588    1.000
    H49      H        0.08760    0.54530    0.85780    1.000
    C87      C        0.10491    0.68010    0.82468    1.000
    H50      H        0.13800    0.65800    0.82160    1.000
    C88      C        0.08758    0.77890    0.80785    1.000
    C89      C        0.04046    0.81120    0.81473    1.000
    H51      H        0.02910    0.88030    0.80520    1.000
    C90      C        0.00987    0.74470    0.83512    1.000
    H52      H        0.97730    0.76790    0.83920    1.000
    C91      C        0.11660    0.84650    0.77726    1.000
    C92      C        0.84825    0.48830    0.82027    1.000
    C93      C        0.81961    0.57530    0.79198    1.000
    H53      H        0.83680    0.64000    0.79430    1.000
    C94      C        0.76630    0.56570    0.76079    1.000
    H54      H        0.74750    0.62520    0.74180    1.000
    C95      C        0.76692    0.39440    0.78296    1.000
    H55      H        0.74860    0.33090    0.77990    1.000
    C96      C        0.82012    0.39670    0.81498    1.000
    H56      H        0.83770    0.33570    0.83350    1.000
    N7       N        0.01581    0.49850    0.90859    1.000
    N8       N        0.73962    0.47740    0.75578    1.000
    O13      O        0.08121    0.05575    0.11444    1.000
    O14      O        0.14591    0.16700    0.14400    1.000
    O15      O        0.09490    0.92750    0.75190    1.000
    O16      O        0.15938    0.81800    0.77336    1.000
    Mn4      Mn       0.65272    0.46819    0.70581    1.000
    C97      C        0.39756    0.35860    0.89059    1.000
    C98      C        0.42756    0.28600    0.93984    1.000
    C99      C        0.40516    0.19280    0.94791    1.000
    H57      H        0.37020    0.17610    0.92310    1.000
    C100     C        0.43353    0.12370    0.99200    1.000
    H58      H        0.41770    0.06040    0.99730    1.000
    C101     C        0.48475    0.14660    0.02835    1.000
    C102     C        0.50659    0.24110    0.02003    1.000
    H59      H        0.54160    0.25800    0.04470    1.000
    C103     C        0.47852    0.30960    0.97704    1.000
    H60      H        0.49400    0.37380    0.97260    1.000
    C104     C        0.51428    0.07330    0.07608    1.000
    C105     C        0.56875    0.07730    0.10288    1.000
    H61      H        0.58880    0.12780    0.09040    1.000
    C106     C        0.59405    0.00700    0.14823    1.000
    C107     C        0.56268    0.93270    0.16301    1.000
    H62      H        0.57840    0.88240    0.19310    1.000
    C108     C        0.50857    0.93210    0.13382    1.000
    C109     C        0.47392    0.85650    0.15006    1.000
    C110     C        0.42511    0.88710    0.15412    1.000
    H63      H        0.41240    0.95470    0.14220    1.000
    C111     C        0.39509    0.81990    0.17532    1.000
    H64      H        0.36200    0.84200    0.17840    1.000
    C112     C        0.41242    0.72110    0.19215    1.000
    C113     C        0.45954    0.68880    0.18527    1.000
    H65      H        0.47090    0.61970    0.19480    1.000
    C114     C        0.49013    0.75530    0.16488    1.000
    H66      H        0.52270    0.73210    0.16080    1.000
    C115     C        0.38340    0.65350    0.22274    1.000
    C116     C        0.65175    0.01170    0.17973    1.000
    C117     C        0.68039    0.92470    0.20802    1.000
    H67      H        0.66320    0.86000    0.20570    1.000
    C118     C        0.73370    0.93430    0.23921    1.000
    H68      H        0.75250    0.87480    0.25820    1.000
    C119     C        0.73308    0.10560    0.21704    1.000
    H69      H        0.75140    0.16910    0.22010    1.000
    C120     C        0.67988    0.10330    0.18502    1.000
    H70      H        0.66230    0.16430    0.16650    1.000
    N9       N        0.48419    0.00150    0.09141    1.000
    N10      N        0.76038    0.02260    0.24422    1.000
    O17      O        0.41879    0.44425    0.88556    1.000
    O18      O        0.35409    0.33300    0.85600    1.000
    O19      O        0.40510    0.57250    0.24810    1.000
    O20      O        0.34062    0.68200    0.22664    1.000
    Mn5      Mn       0.84728    0.03181    0.29419    1.000
    C121     C        0.89756    0.85860    0.89059    1.000
    C122     C        0.92756    0.78600    0.93984    1.000
    C123     C        0.90516    0.69280    0.94791    1.000
    H71      H        0.87020    0.67610    0.92310    1.000
    C124     C        0.93353    0.62370    0.99200    1.000
    H72      H        0.91770    0.56040    0.99730    1.000
    C125     C        0.98475    0.64660    0.02835    1.000
    C126     C        0.00659    0.74110    0.02003    1.000
    H73      H        0.04160    0.75800    0.04470    1.000
    C127     C        0.97852    0.80960    0.97704    1.000
    H74      H        0.99400    0.87380    0.97260    1.000
    C128     C        0.01428    0.57330    0.07608    1.000
    C129     C        0.06875    0.57730    0.10288    1.000
    H75      H        0.08880    0.62780    0.09040    1.000
    C130     C        0.09405    0.50700    0.14823    1.000
    C131     C        0.06268    0.43270    0.16301    1.000
    H76      H        0.07840    0.38240    0.19310    1.000
    C132     C        0.00857    0.43210    0.13382    1.000
    C133     C        0.97392    0.35650    0.15006    1.000
    C134     C        0.92511    0.38710    0.15412    1.000
    H77      H        0.91240    0.45470    0.14220    1.000
    C135     C        0.89509    0.31990    0.17532    1.000
    H78      H        0.86200    0.34200    0.17840    1.000
    C136     C        0.91242    0.22110    0.19215    1.000
    C137     C        0.95954    0.18880    0.18527    1.000
    H79      H        0.97090    0.11970    0.19480    1.000
    C138     C        0.99013    0.25530    0.16488    1.000
    H80      H        0.02270    0.23210    0.16080    1.000
    C139     C        0.88340    0.15350    0.22274    1.000
    C140     C        0.15175    0.51170    0.17973    1.000
    C141     C        0.18039    0.42470    0.20802    1.000
    H81      H        0.16320    0.36000    0.20570    1.000
    C142     C        0.23370    0.43430    0.23921    1.000
    H82      H        0.25250    0.37480    0.25820    1.000
    C143     C        0.23308    0.60560    0.21704    1.000
    H83      H        0.25140    0.66910    0.22010    1.000
    C144     C        0.17988    0.60330    0.18502    1.000
    H84      H        0.16230    0.66430    0.16650    1.000
    N11      N        0.98419    0.50150    0.09141    1.000
    N12      N        0.26038    0.52260    0.24422    1.000
    O21      O        0.91879    0.94425    0.88556    1.000
    O22      O        0.85409    0.83300    0.85600    1.000
    O23      O        0.90510    0.07250    0.24810    1.000
    O24      O        0.84062    0.18200    0.22664    1.000
    Mn6      Mn       0.34728    0.53181    0.29419    1.000
    C145     C        0.39756    0.64140    0.39059    1.000
    C146     C        0.42756    0.71400    0.43984    1.000
    C147     C        0.40516    0.80720    0.44791    1.000
    H85      H        0.37020    0.82390    0.42310    1.000
    C148     C        0.43353    0.87630    0.49200    1.000
    H86      H        0.41770    0.93960    0.49730    1.000
    C149     C        0.48475    0.85340    0.52835    1.000
    C150     C        0.50659    0.75890    0.52003    1.000
    H87      H        0.54160    0.74200    0.54470    1.000
    C151     C        0.47852    0.69040    0.47704    1.000
    H88      H        0.49400    0.62620    0.47260    1.000
    C152     C        0.51428    0.92670    0.57608    1.000
    C153     C        0.56875    0.92270    0.60288    1.000
    H89      H        0.58880    0.87220    0.59040    1.000
    C154     C        0.59405    0.99300    0.64823    1.000
    C155     C        0.56268    0.06730    0.66301    1.000
    H90      H        0.57840    0.11760    0.69310    1.000
    C156     C        0.50857    0.06790    0.63382    1.000
    C157     C        0.47392    0.14350    0.65006    1.000
    C158     C        0.42511    0.11290    0.65412    1.000
    H91      H        0.41240    0.04530    0.64220    1.000
    C159     C        0.39509    0.18010    0.67532    1.000
    H92      H        0.36200    0.15800    0.67840    1.000
    C160     C        0.41242    0.27890    0.69215    1.000
    C161     C        0.45954    0.31120    0.68527    1.000
    H93      H        0.47090    0.38030    0.69480    1.000
    C162     C        0.49013    0.24470    0.66488    1.000
    H94      H        0.52270    0.26790    0.66080    1.000
    C163     C        0.38340    0.34650    0.72274    1.000
    C164     C        0.65175    0.98830    0.67973    1.000
    C165     C        0.68039    0.07530    0.70802    1.000
    H95      H        0.66320    0.14000    0.70570    1.000
    C166     C        0.73370    0.06570    0.73921    1.000
    H96      H        0.75250    0.12520    0.75820    1.000
    C167     C        0.73308    0.89440    0.71704    1.000
    H97      H        0.75140    0.83090    0.72010    1.000
    C168     C        0.67988    0.89670    0.68502    1.000
    H98      H        0.66230    0.83570    0.66650    1.000
    N13      N        0.48419    0.99850    0.59141    1.000
    N14      N        0.76038    0.97740    0.74422    1.000
    O25      O        0.41879    0.55575    0.38556    1.000
    O26      O        0.35409    0.66700    0.35600    1.000
    O27      O        0.40510    0.42750    0.74810    1.000
    O28      O        0.34062    0.31800    0.72664    1.000
    Mn7      Mn       0.84728    0.96819    0.79419    1.000
    C169     C        0.89756    0.14140    0.39059    1.000
    C170     C        0.92756    0.21400    0.43984    1.000
    C171     C        0.90516    0.30720    0.44791    1.000
    H99      H        0.87020    0.32390    0.42310    1.000
    C172     C        0.93353    0.37630    0.49200    1.000
    H100     H        0.91770    0.43960    0.49730    1.000
    C173     C        0.98475    0.35340    0.52835    1.000
    C174     C        0.00659    0.25890    0.52003    1.000
    H101     H        0.04160    0.24200    0.54470    1.000
    C175     C        0.97852    0.19040    0.47704    1.000
    H102     H        0.99400    0.12620    0.47260    1.000
    C176     C        0.01428    0.42670    0.57608    1.000
    C177     C        0.06875    0.42270    0.60288    1.000
    H103     H        0.08880    0.37220    0.59040    1.000
    C178     C        0.09405    0.49300    0.64823    1.000
    C179     C        0.06268    0.56730    0.66301    1.000
    H104     H        0.07840    0.61760    0.69310    1.000
    C180     C        0.00857    0.56790    0.63382    1.000
    C181     C        0.97392    0.64350    0.65006    1.000
    C182     C        0.92511    0.61290    0.65412    1.000
    H105     H        0.91240    0.54530    0.64220    1.000
    C183     C        0.89509    0.68010    0.67532    1.000
    H106     H        0.86200    0.65800    0.67840    1.000
    C184     C        0.91242    0.77890    0.69215    1.000
    C185     C        0.95954    0.81120    0.68527    1.000
    H107     H        0.97090    0.88030    0.69480    1.000
    C186     C        0.99013    0.74470    0.66488    1.000
    H108     H        0.02270    0.76790    0.66080    1.000
    C187     C        0.88340    0.84650    0.72274    1.000
    C188     C        0.15175    0.48830    0.67973    1.000
    C189     C        0.18039    0.57530    0.70802    1.000
    H109     H        0.16320    0.64000    0.70570    1.000
    C190     C        0.23370    0.56570    0.73921    1.000
    H110     H        0.25250    0.62520    0.75820    1.000
    C191     C        0.23308    0.39440    0.71704    1.000
    H111     H        0.25140    0.33090    0.72010    1.000
    C192     C        0.17988    0.39670    0.68502    1.000
    H112     H        0.16230    0.33570    0.66650    1.000
    N15      N        0.98419    0.49850    0.59141    1.000
    N16      N        0.26038    0.47740    0.74422    1.000
    O29      O        0.91879    0.05575    0.38556    1.000
    O30      O        0.85409    0.16700    0.35600    1.000
    O31      O        0.90510    0.92750    0.74810    1.000
    O32      O        0.84062    0.81800    0.72664    1.000
    Mn8      Mn       0.34728    0.46819    0.79419    1.000
