# CIF file generated by openbabel 3.1.0, see https://openbabel.org
data_I
_chemical_name_common 'image0'
_cell_length_a 32.249
_cell_length_b 7.77
_cell_length_c 30.641
_cell_angle_alpha 90
_cell_angle_beta 116.03
_cell_angle_gamma 90
_space_group_name_H-M_alt 'P 1'
_space_group_name_Hall 'P 1'
loop_
    _symmetry_equiv_pos_as_xyz
    x,y,z
loop_
    _atom_site_label
    _atom_site_type_symbol
    _atom_site_fract_x
    _atom_site_fract_y
    _atom_site_fract_z
    _atom_site_occupancy
    Cu1      Cu       0.24276    0.27341    0.37707    1.000
    Br1      Br       0.26295    0.96862    0.38720    1.000
    N1       N        0.27374    0.38540    0.44299    1.000
    C1       C        0.29371    0.29650    0.48455    1.000
    H1       H        0.29189    0.17444    0.48305    1.000
    C2       C        0.31695    0.37390    0.52970    1.000
    H2       H        0.33020    0.30622    0.55840    1.000
    C3       C        0.32047    0.55220    0.53210    1.000
    C4       C        0.30067    0.64490    0.48929    1.000
    H3       H        0.30304    0.76684    0.48967    1.000
    C5       C        0.27750    0.55830    0.44617    1.000
    H4       H        0.26339    0.62365    0.41710    1.000
    C6       C        0.34395    0.65110    0.57838    1.000
    O1       O        0.36293    0.54690    0.61749    1.000
    O2       O        0.34583    0.80450    0.58055    1.000
    C7       C        0.38540    0.62920    0.66291    1.000
    C8       C        0.35927    0.70400    0.68357    1.000
    H5       H        0.32651    0.70602    0.66727    1.000
    C9       C        0.38356    0.77630    0.72959    1.000
    C10      C        0.43111    0.77170    0.75425    1.000
    H6       H        0.44693    0.82071    0.78570    1.000
    C11      C        0.45495    0.69310    0.73149    1.000
    C12      C        0.43305    0.62080    0.68564    1.000
    H7       H        0.44996    0.56798    0.67052    1.000
    O3       O        0.36005    0.86920    0.75133    1.000
    C13      C        0.33299    0.77980    0.76699    1.000
    O4       O        0.32695    0.62770    0.76244    1.000
    C14      C        0.31127    0.89680    0.78981    1.000
    C15      C        0.27944    0.82590    0.80392    1.000
    H8       H        0.27178    0.70717    0.79910    1.000
    C16      C        0.25919    0.93320    0.82521    1.000
    H9       H        0.23711    0.88483    0.83436    1.000
    N2       N        0.26891    0.10130    0.83365    1.000
    C17      C        0.29947    0.16810    0.81961    1.000
    H10      H        0.30658    0.28716    0.82498    1.000
    C18      C        0.32127    0.07120    0.79753    1.000
    H11      H        0.34261    0.12334    0.78792    1.000
    O5       O        0.50296    0.68210    0.75847    1.000
    C19      C        0.52973    0.75310    0.73937    1.000
    O6       O        0.51531    0.82530    0.70141    1.000
    C20      C        0.57977    0.73080    0.77347    1.000
    C21      C        0.59466    0.63820    0.81633    1.000
    H12      H        0.57318    0.58167    0.82492    1.000
    C22      C        0.64182    0.62990    0.84653    1.000
    H13      H        0.65209    0.56461    0.87562    1.000
    N3       N        0.67360    0.71050    0.83629    1.000
    C23      C        0.65845    0.80030    0.79464    1.000
    H14      H        0.68055    0.85784    0.78719    1.000
    C24      C        0.61223    0.81330    0.76199    1.000
    H15      H        0.60290    0.87648    0.73265    1.000
    Cu2      Cu       0.74214    0.72015    0.88170    1.000
    Br2      Br       0.76259    0.02415    0.89332    1.000
    N4       N        0.76526    0.60780    0.94804    1.000
    C25      C        0.76102    0.43690    0.95153    1.000
    H16      H        0.74220    0.37473    0.92293    1.000
    C26      C        0.78253    0.34750    0.99434    1.000
    H17      H        0.77925    0.22617    0.99493    1.000
    C27      C        0.80908    0.43660    0.03669    1.000
    C28      C        0.81330    0.61350    0.03390    1.000
    H18      H        0.83118    0.67864    0.06221    1.000
    C29      C        0.79098    0.69360    0.98904    1.000
    H19      H        0.79406    0.81470    0.98733    1.000
    C30      C        0.83144    0.33570    0.08239    1.000
    O7       O        0.86066    0.43440    0.12015    1.000
    O8       O        0.82546    0.18470    0.08543    1.000
    C31      C        0.88393    0.35290    0.16510    1.000
    C32      C        0.85934    0.27890    0.18788    1.000
    H20      H        0.82656    0.27724    0.17304    1.000
    C33      C        0.88522    0.20720    0.23363    1.000
    C34      C        0.93299    0.21090    0.25660    1.000
    H21      H        0.94983    0.16256    0.28799    1.000
    C35      C        0.95521    0.28790    0.23194    1.000
    C36      C        0.93181    0.36040    0.18593    1.000
    H22      H        0.94778    0.41224    0.16963    1.000
    O9       O        0.86276    0.11700    0.25698    1.000
    C37      C        0.84046    0.21060    0.27727    1.000
    O10      O        0.83845    0.36450    0.27604    1.000
    C38      C        0.81876    0.09800    0.30119    1.000
    C39      C        0.79154    0.17730    0.31998    1.000
    H23      H        0.78752    0.29863    0.31823    1.000
    C40      C        0.77039    0.07500    0.34136    1.000
    H24      H        0.75150    0.12969    0.35385    1.000
    N5       N        0.77493    0.90410    0.34547    1.000
    C41      C        0.80065    0.82910    0.32666    1.000
    H25      H        0.80377    0.70740    0.32861    1.000
    C42      C        0.82324    0.92120    0.30419    1.000
    H26      H        0.84131    0.86324    0.29125    1.000
    O11      O        0.00331    0.30150    0.25708    1.000
    C43      C        0.02953    0.22660    0.23770    1.000
    O12      O        0.01465    0.15100    0.20024    1.000
    C44      C        0.07972    0.25100    0.27130    1.000
    C45      C        0.11206    0.17280    0.25911    1.000
    H27      H        0.10261    0.11065    0.22959    1.000
    C46      C        0.15849    0.18790    0.29119    1.000
    H28      H        0.18059    0.13301    0.28321    1.000
    N6       N        0.17364    0.27700    0.33313    1.000
    C47      C        0.14181    0.35320    0.34401    1.000
    H29      H        0.15209    0.41779    0.37322    1.000
    C48      C        0.09472    0.34180    0.31454    1.000
    H30      H        0.07324    0.39495    0.32377    1.000
    Cu3      Cu       0.24276    0.22659    0.87707    1.000
    Br3      Br       0.26295    0.53138    0.88720    1.000
    N7       N        0.27374    0.11460    0.94299    1.000
    C49      C        0.29371    0.20350    0.98455    1.000
    H31      H        0.29189    0.32556    0.98305    1.000
    C50      C        0.31695    0.12610    0.02970    1.000
    H32      H        0.33020    0.19378    0.05840    1.000
    C51      C        0.32047    0.94780    0.03210    1.000
    C52      C        0.30067    0.85510    0.98929    1.000
    H33      H        0.30304    0.73316    0.98967    1.000
    C53      C        0.27750    0.94170    0.94617    1.000
    H34      H        0.26339    0.87635    0.91710    1.000
    C54      C        0.34395    0.84890    0.07838    1.000
    O13      O        0.36293    0.95310    0.11749    1.000
    O14      O        0.34583    0.69550    0.08055    1.000
    C55      C        0.38540    0.87080    0.16291    1.000
    C56      C        0.35927    0.79600    0.18357    1.000
    H35      H        0.32651    0.79398    0.16727    1.000
    C57      C        0.38356    0.72370    0.22959    1.000
    C58      C        0.43111    0.72830    0.25425    1.000
    H36      H        0.44693    0.67929    0.28570    1.000
    C59      C        0.45495    0.80690    0.23149    1.000
    C60      C        0.43305    0.87920    0.18564    1.000
    H37      H        0.44996    0.93202    0.17052    1.000
    O15      O        0.36005    0.63080    0.25133    1.000
    C61      C        0.33299    0.72020    0.26699    1.000
    O16      O        0.32695    0.87230    0.26244    1.000
    C62      C        0.31127    0.60320    0.28981    1.000
    C63      C        0.27944    0.67410    0.30392    1.000
    H38      H        0.27178    0.79283    0.29910    1.000
    C64      C        0.25919    0.56680    0.32521    1.000
    H39      H        0.23711    0.61517    0.33436    1.000
    N8       N        0.26891    0.39870    0.33365    1.000
    C65      C        0.29947    0.33190    0.31961    1.000
    H40      H        0.30658    0.21284    0.32498    1.000
    C66      C        0.32127    0.42880    0.29753    1.000
    H41      H        0.34261    0.37666    0.28792    1.000
    O17      O        0.50296    0.81790    0.25847    1.000
    C67      C        0.52973    0.74690    0.23937    1.000
    O18      O        0.51531    0.67470    0.20141    1.000
    C68      C        0.57977    0.76920    0.27347    1.000
    C69      C        0.59466    0.86180    0.31633    1.000
    H42      H        0.57318    0.91833    0.32492    1.000
    C70      C        0.64182    0.87010    0.34653    1.000
    H43      H        0.65209    0.93539    0.37562    1.000
    N9       N        0.67360    0.78950    0.33629    1.000
    C71      C        0.65845    0.69970    0.29464    1.000
    H44      H        0.68055    0.64216    0.28719    1.000
    C72      C        0.61223    0.68670    0.26199    1.000
    H45      H        0.60290    0.62352    0.23265    1.000
    Cu4      Cu       0.74214    0.77985    0.38170    1.000
    Br4      Br       0.76259    0.47585    0.39332    1.000
    N10      N        0.76526    0.89220    0.44804    1.000
    C73      C        0.76102    0.06310    0.45153    1.000
    H46      H        0.74220    0.12527    0.42293    1.000
    C74      C        0.78253    0.15250    0.49434    1.000
    H47      H        0.77925    0.27383    0.49493    1.000
    C75      C        0.80908    0.06340    0.53669    1.000
    C76      C        0.81330    0.88650    0.53390    1.000
    H48      H        0.83118    0.82136    0.56221    1.000
    C77      C        0.79098    0.80640    0.48904    1.000
    H49      H        0.79406    0.68530    0.48733    1.000
    C78      C        0.83144    0.16430    0.58239    1.000
    O19      O        0.86066    0.06560    0.62015    1.000
    O20      O        0.82546    0.31530    0.58543    1.000
    C79      C        0.88393    0.14710    0.66510    1.000
    C80      C        0.85934    0.22110    0.68788    1.000
    H50      H        0.82656    0.22276    0.67304    1.000
    C81      C        0.88522    0.29280    0.73363    1.000
    C82      C        0.93299    0.28910    0.75660    1.000
    H51      H        0.94983    0.33744    0.78799    1.000
    C83      C        0.95521    0.21210    0.73194    1.000
    C84      C        0.93181    0.13960    0.68593    1.000
    H52      H        0.94778    0.08776    0.66963    1.000
    O21      O        0.86276    0.38300    0.75698    1.000
    C85      C        0.84046    0.28940    0.77727    1.000
    O22      O        0.83845    0.13550    0.77604    1.000
    C86      C        0.81876    0.40200    0.80119    1.000
    C87      C        0.79154    0.32270    0.81998    1.000
    H53      H        0.78752    0.20137    0.81823    1.000
    C88      C        0.77039    0.42500    0.84136    1.000
    H54      H        0.75150    0.37031    0.85385    1.000
    N11      N        0.77493    0.59590    0.84547    1.000
    C89      C        0.80065    0.67090    0.82666    1.000
    H55      H        0.80377    0.79260    0.82861    1.000
    C90      C        0.82324    0.57880    0.80419    1.000
    H56      H        0.84131    0.63676    0.79125    1.000
    O23      O        0.00331    0.19850    0.75708    1.000
    C91      C        0.02953    0.27340    0.73770    1.000
    O24      O        0.01465    0.34900    0.70024    1.000
    C92      C        0.07972    0.24900    0.77130    1.000
    C93      C        0.11206    0.32720    0.75911    1.000
    H57      H        0.10261    0.38935    0.72959    1.000
    C94      C        0.15849    0.31210    0.79119    1.000
    H58      H        0.18059    0.36699    0.78321    1.000
    N12      N        0.17364    0.22300    0.83313    1.000
    C95      C        0.14181    0.14680    0.84401    1.000
    H59      H        0.15209    0.08221    0.87322    1.000
    C96      C        0.09472    0.15820    0.81454    1.000
    H60      H        0.07324    0.10505    0.82377    1.000
    Cu5      Cu       0.75724    0.77341    0.12293    1.000
    Br5      Br       0.73705    0.46862    0.11280    1.000
    N13      N        0.72626    0.88540    0.05701    1.000
    C97      C        0.70629    0.79650    0.01545    1.000
    H61      H        0.70811    0.67444    0.01695    1.000
    C98      C        0.68305    0.87390    0.97030    1.000
    H62      H        0.66980    0.80622    0.94160    1.000
    C99      C        0.67953    0.05220    0.96790    1.000
    C100     C        0.69933    0.14490    0.01071    1.000
    H63      H        0.69696    0.26684    0.01033    1.000
    C101     C        0.72250    0.05830    0.05383    1.000
    H64      H        0.73661    0.12365    0.08290    1.000
    C102     C        0.65605    0.15110    0.92162    1.000
    O25      O        0.63707    0.04690    0.88251    1.000
    O26      O        0.65417    0.30450    0.91945    1.000
    C103     C        0.61460    0.12920    0.83709    1.000
    C104     C        0.64073    0.20400    0.81643    1.000
    H65      H        0.67349    0.20602    0.83273    1.000
    C105     C        0.61644    0.27630    0.77041    1.000
    C106     C        0.56889    0.27170    0.74575    1.000
    H66      H        0.55307    0.32071    0.71430    1.000
    C107     C        0.54505    0.19310    0.76851    1.000
    C108     C        0.56695    0.12080    0.81436    1.000
    H67      H        0.55004    0.06798    0.82948    1.000
    O27      O        0.63995    0.36920    0.74867    1.000
    C109     C        0.66701    0.27980    0.73301    1.000
    O28      O        0.67305    0.12770    0.73756    1.000
    C110     C        0.68873    0.39680    0.71019    1.000
    C111     C        0.72056    0.32590    0.69608    1.000
    H68      H        0.72822    0.20717    0.70090    1.000
    C112     C        0.74081    0.43320    0.67479    1.000
    H69      H        0.76289    0.38483    0.66564    1.000
    N14      N        0.73109    0.60130    0.66635    1.000
    C113     C        0.70053    0.66810    0.68039    1.000
    H70      H        0.69342    0.78716    0.67502    1.000
    C114     C        0.67873    0.57120    0.70247    1.000
    H71      H        0.65739    0.62334    0.71208    1.000
    O29      O        0.49704    0.18210    0.74153    1.000
    C115     C        0.47027    0.25310    0.76063    1.000
    O30      O        0.48469    0.32530    0.79859    1.000
    C116     C        0.42023    0.23080    0.72653    1.000
    C117     C        0.40534    0.13820    0.68367    1.000
    H72      H        0.42682    0.08167    0.67508    1.000
    C118     C        0.35818    0.12990    0.65347    1.000
    H73      H        0.34791    0.06461    0.62438    1.000
    N15      N        0.32640    0.21050    0.66371    1.000
    C119     C        0.34155    0.30030    0.70536    1.000
    H74      H        0.31945    0.35784    0.71281    1.000
    C120     C        0.38777    0.31330    0.73801    1.000
    H75      H        0.39710    0.37648    0.76735    1.000
    Cu6      Cu       0.25786    0.22015    0.61830    1.000
    Br6      Br       0.23741    0.52415    0.60668    1.000
    N16      N        0.23474    0.10780    0.55196    1.000
    C121     C        0.23898    0.93690    0.54847    1.000
    H76      H        0.25780    0.87473    0.57707    1.000
    C122     C        0.21747    0.84750    0.50566    1.000
    H77      H        0.22075    0.72617    0.50507    1.000
    C123     C        0.19092    0.93660    0.46331    1.000
    C124     C        0.18670    0.11350    0.46610    1.000
    H78      H        0.16882    0.17864    0.43779    1.000
    C125     C        0.20902    0.19360    0.51096    1.000
    H79      H        0.20594    0.31470    0.51267    1.000
    C126     C        0.16856    0.83570    0.41761    1.000
    O31      O        0.13934    0.93440    0.37985    1.000
    O32      O        0.17454    0.68470    0.41457    1.000
    C127     C        0.11607    0.85290    0.33490    1.000
    C128     C        0.14066    0.77890    0.31212    1.000
    H80      H        0.17344    0.77724    0.32696    1.000
    C129     C        0.11478    0.70720    0.26637    1.000
    C130     C        0.06701    0.71090    0.24340    1.000
    H81      H        0.05017    0.66256    0.21201    1.000
    C131     C        0.04479    0.78790    0.26806    1.000
    C132     C        0.06819    0.86040    0.31407    1.000
    H82      H        0.05222    0.91224    0.33037    1.000
    O33      O        0.13724    0.61700    0.24302    1.000
    C133     C        0.15954    0.71060    0.22273    1.000
    O34      O        0.16155    0.86450    0.22396    1.000
    C134     C        0.18124    0.59800    0.19881    1.000
    C135     C        0.20846    0.67730    0.18002    1.000
    H83      H        0.21248    0.79863    0.18177    1.000
    C136     C        0.22961    0.57500    0.15864    1.000
    H84      H        0.24850    0.62969    0.14615    1.000
    N17      N        0.22507    0.40410    0.15453    1.000
    C137     C        0.19935    0.32910    0.17334    1.000
    H85      H        0.19623    0.20740    0.17139    1.000
    C138     C        0.17676    0.42120    0.19581    1.000
    H86      H        0.15869    0.36324    0.20875    1.000
    O35      O        0.99669    0.80150    0.24292    1.000
    C139     C        0.97047    0.72660    0.26230    1.000
    O36      O        0.98535    0.65100    0.29976    1.000
    C140     C        0.92028    0.75100    0.22870    1.000
    C141     C        0.88794    0.67280    0.24089    1.000
    H87      H        0.89739    0.61065    0.27041    1.000
    C142     C        0.84151    0.68790    0.20881    1.000
    H88      H        0.81941    0.63301    0.21679    1.000
    N18      N        0.82636    0.77700    0.16687    1.000
    C143     C        0.85819    0.85320    0.15599    1.000
    H89      H        0.84791    0.91779    0.12678    1.000
    C144     C        0.90528    0.84180    0.18546    1.000
    H90      H        0.92676    0.89495    0.17623    1.000
    Cu7      Cu       0.75724    0.72659    0.62293    1.000
    Br7      Br       0.73705    0.03138    0.61280    1.000
    N19      N        0.72626    0.61460    0.55701    1.000
    C145     C        0.70629    0.70350    0.51545    1.000
    H91      H        0.70811    0.82556    0.51695    1.000
    C146     C        0.68305    0.62610    0.47030    1.000
    H92      H        0.66980    0.69378    0.44160    1.000
    C147     C        0.67953    0.44780    0.46790    1.000
    C148     C        0.69933    0.35510    0.51071    1.000
    H93      H        0.69696    0.23316    0.51033    1.000
    C149     C        0.72250    0.44170    0.55383    1.000
    H94      H        0.73661    0.37635    0.58290    1.000
    C150     C        0.65605    0.34890    0.42162    1.000
    O37      O        0.63707    0.45310    0.38251    1.000
    O38      O        0.65417    0.19550    0.41945    1.000
    C151     C        0.61460    0.37080    0.33709    1.000
    C152     C        0.64073    0.29600    0.31643    1.000
    H95      H        0.67349    0.29398    0.33273    1.000
    C153     C        0.61644    0.22370    0.27041    1.000
    C154     C        0.56889    0.22830    0.24575    1.000
    H96      H        0.55307    0.17929    0.21430    1.000
    C155     C        0.54505    0.30690    0.26851    1.000
    C156     C        0.56695    0.37920    0.31436    1.000
    H97      H        0.55004    0.43202    0.32948    1.000
    O39      O        0.63995    0.13080    0.24867    1.000
    C157     C        0.66701    0.22020    0.23301    1.000
    O40      O        0.67305    0.37230    0.23756    1.000
    C158     C        0.68873    0.10320    0.21019    1.000
    C159     C        0.72056    0.17410    0.19608    1.000
    H98      H        0.72822    0.29283    0.20090    1.000
    C160     C        0.74081    0.06680    0.17479    1.000
    H99      H        0.76289    0.11517    0.16564    1.000
    N20      N        0.73109    0.89870    0.16635    1.000
    C161     C        0.70053    0.83190    0.18039    1.000
    H100     H        0.69342    0.71284    0.17502    1.000
    C162     C        0.67873    0.92880    0.20247    1.000
    H101     H        0.65739    0.87666    0.21208    1.000
    O41      O        0.49704    0.31790    0.24153    1.000
    C163     C        0.47027    0.24690    0.26063    1.000
    O42      O        0.48469    0.17470    0.29859    1.000
    C164     C        0.42023    0.26920    0.22653    1.000
    C165     C        0.40534    0.36180    0.18367    1.000
    H102     H        0.42682    0.41833    0.17508    1.000
    C166     C        0.35818    0.37010    0.15347    1.000
    H103     H        0.34791    0.43539    0.12438    1.000
    N21      N        0.32640    0.28950    0.16371    1.000
    C167     C        0.34155    0.19970    0.20536    1.000
    H104     H        0.31945    0.14216    0.21281    1.000
    C168     C        0.38777    0.18670    0.23801    1.000
    H105     H        0.39710    0.12352    0.26735    1.000
    Cu8      Cu       0.25786    0.27985    0.11830    1.000
    Br8      Br       0.23741    0.97585    0.10668    1.000
    N22      N        0.23474    0.39220    0.05196    1.000
    C169     C        0.23898    0.56310    0.04847    1.000
    H106     H        0.25780    0.62527    0.07707    1.000
    C170     C        0.21747    0.65250    0.00566    1.000
    H107     H        0.22075    0.77383    0.00507    1.000
    C171     C        0.19092    0.56340    0.96331    1.000
    C172     C        0.18670    0.38650    0.96610    1.000
    H108     H        0.16882    0.32136    0.93779    1.000
    C173     C        0.20902    0.30640    0.01096    1.000
    H109     H        0.20594    0.18530    0.01267    1.000
    C174     C        0.16856    0.66430    0.91761    1.000
    O43      O        0.13934    0.56560    0.87985    1.000
    O44      O        0.17454    0.81530    0.91457    1.000
    C175     C        0.11607    0.64710    0.83490    1.000
    C176     C        0.14066    0.72110    0.81212    1.000
    H110     H        0.17344    0.72276    0.82696    1.000
    C177     C        0.11478    0.79280    0.76637    1.000
    C178     C        0.06701    0.78910    0.74340    1.000
    H111     H        0.05017    0.83744    0.71201    1.000
    C179     C        0.04479    0.71210    0.76806    1.000
    C180     C        0.06819    0.63960    0.81407    1.000
    H112     H        0.05222    0.58776    0.83037    1.000
    O45      O        0.13724    0.88300    0.74302    1.000
    C181     C        0.15954    0.78940    0.72273    1.000
    O46      O        0.16155    0.63550    0.72396    1.000
    C182     C        0.18124    0.90200    0.69881    1.000
    C183     C        0.20846    0.82270    0.68002    1.000
    H113     H        0.21248    0.70137    0.68177    1.000
    C184     C        0.22961    0.92500    0.65864    1.000
    H114     H        0.24850    0.87031    0.64615    1.000
    N23      N        0.22507    0.09590    0.65453    1.000
    C185     C        0.19935    0.17090    0.67334    1.000
    H115     H        0.19623    0.29260    0.67139    1.000
    C186     C        0.17676    0.07880    0.69581    1.000
    H116     H        0.15869    0.13676    0.70875    1.000
    O47      O        0.99669    0.69850    0.74292    1.000
    C187     C        0.97047    0.77340    0.76230    1.000
    O48      O        0.98535    0.84900    0.79976    1.000
    C188     C        0.92028    0.74900    0.72870    1.000
    C189     C        0.88794    0.82720    0.74089    1.000
    H117     H        0.89739    0.88935    0.77041    1.000
    C190     C        0.84151    0.81210    0.70881    1.000
    H118     H        0.81941    0.86699    0.71679    1.000
    N24      N        0.82636    0.72300    0.66687    1.000
    C191     C        0.85819    0.64680    0.65599    1.000
    H119     H        0.84791    0.58221    0.62678    1.000
    C192     C        0.90528    0.65820    0.68546    1.000
    H120     H        0.92676    0.60505    0.67623    1.000
