data_functionalizedCrystal
_audit_creation_method	'EQeq! by Chris Wilmer'
_symmetry_space_group_name_H-M	'P1'
_symmetry_Int_Tables_number	1
_symmetry_cell_setting	triclinic
loop_
_symmetry_equiv_pos_as_xyz
  x,y,z
_cell_length_a	15.822
_cell_length_b	10.0614
_cell_length_c	18.6103
_cell_angle_alpha	90
_cell_angle_beta	104.292
_cell_angle_gamma	90
loop_
_atom_site_label
_atom_site_type_symbol
_atom_site_fract_x
_atom_site_fract_y
_atom_site_fract_z
_atom_site_charge
Mof_V 	V 	0.16162	0.12474	0.08518	1.752
Mof_V 	V 	0.74245	0.44856	0.78521	1.321
Mof_V 	V 	0.1914	0.9149	0.7809	1.247
Mof_P 	P 	0.84231	0.16633	0.83475	0.553
Mof_P 	P 	0.20657	0.11775	0.92207	0.557
Mof_O 	O 	0.77403	0.2739	0.83275	-0.637
Mof_O 	O 	0.83535	0.5112	0.78992	-0.605
Mof_O 	O 	0.8331	0.0958	0.76066	-0.653
Mof_O 	O 	0.20289	0.9909	0.87543	-0.66
Mof_O 	O 	0.20314	0.0706	0.99957	-0.52
Mof_O 	O 	0.83721	0.0691	0.89728	-0.501
Mof_O 	O 	0.28742	0.1985	0.92214	-0.595
Mof_O 	O 	0.204	0.1481	0.19204	-2.377
Mof_C 	C 	0.9485	0.2425	0.85697	-0.43
Mof_H 	H 	0.9528	0.3023	0.8157	0.144
Mof_H 	H 	0.9541	0.2981	0.9018	0.131
Mof_C 	C 	0.1123	0.2188	0.8859	-0.464
Mof_H 	H 	0.1112	0.2915	0.9215	0.125
Mof_H 	H 	0.1181	0.26	0.8391	0.138
Mof_C 	C 	0.0249	0.1449	0.87076	0.25
Mof_H 	H 	0.0191	0.0869	0.8269	-0.088
Mof_H 	H 	0.0234	0.0879	0.9138	-0.112
Mof_H 	H 	0.215	0.205	0.196	1.437
Mof_V 	V 	0.66162	0.62474	0.08518	1.755
Mof_V 	V 	0.24245	0.94856	0.78521	1.318
Mof_V 	V 	0.6914	0.4149	0.7809	1.246
Mof_P 	P 	0.34231	0.66633	0.83475	0.551
Mof_P 	P 	0.70657	0.61775	0.92207	0.55
Mof_O 	O 	0.27403	0.7739	0.83275	-0.64
Mof_O 	O 	0.33535	0.0112	0.78992	-0.601
Mof_O 	O 	0.3331	0.5958	0.76066	-0.656
Mof_O 	O 	0.70289	0.4909	0.87543	-0.651
Mof_O 	O 	0.70314	0.5706	0.99957	-0.526
Mof_O 	O 	0.33721	0.5691	0.89728	-0.504
Mof_O 	O 	0.78742	0.6985	0.92214	-0.599
Mof_O 	O 	0.704	0.6481	0.19204	-2.371
Mof_C 	C 	0.4485	0.7425	0.85697	-0.428
Mof_H 	H 	0.4528	0.8023	0.8157	0.143
Mof_H 	H 	0.4541	0.7981	0.9018	0.129
Mof_C 	C 	0.6123	0.7188	0.8859	-0.462
Mof_H 	H 	0.6112	0.7915	0.9215	0.122
Mof_H 	H 	0.6181	0.76	0.8391	0.136
Mof_C 	C 	0.5249	0.6449	0.87076	0.248
Mof_H 	H 	0.5191	0.5869	0.8269	-0.089
Mof_H 	H 	0.5234	0.5879	0.9138	-0.113
Mof_H 	H 	0.715	0.705	0.196	1.434
Mof_V 	V 	0.83838	0.12474	0.41482	1.754
Mof_V 	V 	0.25755	0.44856	0.71479	1.32
Mof_V 	V 	0.8086	0.9149	0.7191	1.246
Mof_P 	P 	0.15769	0.16633	0.66525	0.551
Mof_P 	P 	0.79343	0.11775	0.57793	0.552
Mof_O 	O 	0.22597	0.2739	0.66725	-0.638
Mof_O 	O 	0.16465	0.5112	0.71008	-0.606
Mof_O 	O 	0.1669	0.0958	0.73934	-0.653
Mof_O 	O 	0.79711	0.9909	0.62457	-0.654
Mof_O 	O 	0.79686	0.0706	0.50043	-0.525
Mof_O 	O 	0.16279	0.0691	0.60272	-0.502
Mof_O 	O 	0.71258	0.1985	0.57786	-0.596
Mof_O 	O 	0.796	0.1481	0.30796	-2.375
Mof_C 	C 	0.0515	0.2425	0.64303	-0.428
Mof_H 	H 	0.0472	0.3023	0.6843	0.144
Mof_H 	H 	0.0459	0.2981	0.5982	0.131
Mof_C 	C 	0.8877	0.2188	0.6141	-0.463
Mof_H 	H 	0.8888	0.2915	0.5785	0.124
Mof_H 	H 	0.8819	0.26	0.6609	0.137
Mof_C 	C 	0.9751	0.1449	0.62924	0.248
Mof_H 	H 	0.9809	0.0869	0.6731	-0.089
Mof_H 	H 	0.9766	0.0879	0.5862	-0.113
Mof_H 	H 	0.785	0.205	0.304	1.435
Mof_V 	V 	0.33838	0.62474	0.41482	1.754
Mof_V 	V 	0.75755	0.94856	0.71479	1.318
Mof_V 	V 	0.3086	0.4149	0.7191	1.246
Mof_P 	P 	0.65769	0.66633	0.66525	0.551
Mof_P 	P 	0.29343	0.61775	0.57793	0.551
Mof_O 	O 	0.72597	0.7739	0.66725	-0.639
Mof_O 	O 	0.66465	0.0112	0.71008	-0.602
Mof_O 	O 	0.6669	0.5958	0.73934	-0.656
Mof_O 	O 	0.29711	0.4909	0.62457	-0.652
Mof_O 	O 	0.29686	0.5706	0.50043	-0.524
Mof_O 	O 	0.66279	0.5691	0.60272	-0.503
Mof_O 	O 	0.21258	0.6985	0.57786	-0.597
Mof_O 	O 	0.296	0.6481	0.30796	-2.371
Mof_C 	C 	0.5515	0.7425	0.64303	-0.429
Mof_H 	H 	0.5472	0.8023	0.6843	0.143
Mof_H 	H 	0.5459	0.7981	0.5982	0.131
Mof_C 	C 	0.3877	0.7188	0.6141	-0.463
Mof_H 	H 	0.3888	0.7915	0.5785	0.124
Mof_H 	H 	0.3819	0.76	0.6609	0.137
Mof_C 	C 	0.4751	0.6449	0.62924	0.249
Mof_H 	H 	0.4809	0.5869	0.6731	-0.09
Mof_H 	H 	0.4766	0.5879	0.5862	-0.113
Mof_H 	H 	0.285	0.705	0.304	1.434
Mof_V 	V 	0.83838	0.87526	0.91482	1.751
Mof_V 	V 	0.25755	0.55144	0.21479	1.32
Mof_V 	V 	0.8086	0.0851	0.2191	1.246
Mof_P 	P 	0.15769	0.83367	0.16525	0.552
Mof_P 	P 	0.79343	0.88225	0.07793	0.556
Mof_O 	O 	0.22597	0.7261	0.16725	-0.638
Mof_O 	O 	0.16465	0.4888	0.21008	-0.606
Mof_O 	O 	0.1669	0.9042	0.23934	-0.654
Mof_O 	O 	0.79711	0.0091	0.12457	-0.66
Mof_O 	O 	0.79686	0.9294	0.00043	-0.52
Mof_O 	O 	0.16279	0.9309	0.10272	-0.501
Mof_O 	O 	0.71258	0.8015	0.07786	-0.595
Mof_O 	O 	0.796	0.8519	0.80796	-2.377
Mof_C 	C 	0.0515	0.7575	0.14303	-0.43
Mof_H 	H 	0.0472	0.6977	0.1843	0.144
Mof_H 	H 	0.0459	0.7019	0.0982	0.131
Mof_C 	C 	0.8877	0.7812	0.1141	-0.464
Mof_H 	H 	0.8888	0.7085	0.0785	0.125
Mof_H 	H 	0.8819	0.74	0.1609	0.138
Mof_C 	C 	0.9751	0.8551	0.12924	0.25
Mof_H 	H 	0.9809	0.9131	0.1731	-0.088
Mof_H 	H 	0.9766	0.9121	0.0862	-0.112
Mof_H 	H 	0.785	0.795	0.804	1.437
Mof_V 	V 	0.33838	0.37526	0.91482	1.755
Mof_V 	V 	0.75755	0.05144	0.21479	1.318
Mof_V 	V 	0.3086	0.5851	0.2191	1.246
Mof_P 	P 	0.65769	0.33367	0.16525	0.551
Mof_P 	P 	0.29343	0.38225	0.07793	0.55
Mof_O 	O 	0.72597	0.2261	0.16725	-0.64
Mof_O 	O 	0.66465	0.9888	0.21008	-0.601
Mof_O 	O 	0.6669	0.4042	0.23934	-0.656
Mof_O 	O 	0.29711	0.5091	0.12457	-0.651
Mof_O 	O 	0.29686	0.4294	0.00043	-0.526
Mof_O 	O 	0.66279	0.4309	0.10272	-0.504
Mof_O 	O 	0.21258	0.3015	0.07786	-0.599
Mof_O 	O 	0.296	0.3519	0.80796	-2.371
Mof_C 	C 	0.5515	0.2575	0.14303	-0.428
Mof_H 	H 	0.5472	0.1977	0.1843	0.143
Mof_H 	H 	0.5459	0.2019	0.0982	0.129
Mof_C 	C 	0.3877	0.2812	0.1141	-0.462
Mof_H 	H 	0.3888	0.2085	0.0785	0.122
Mof_H 	H 	0.3819	0.24	0.1609	0.136
Mof_C 	C 	0.4751	0.3551	0.12924	0.248
Mof_H 	H 	0.4809	0.4131	0.1731	-0.089
Mof_H 	H 	0.4766	0.4121	0.0862	-0.113
Mof_H 	H 	0.285	0.295	0.804	1.434
Mof_V 	V 	0.16162	0.87526	0.58518	1.754
Mof_V 	V 	0.74245	0.55144	0.28521	1.32
Mof_V 	V 	0.1914	0.0851	0.2809	1.246
Mof_P 	P 	0.84231	0.83367	0.33475	0.551
Mof_P 	P 	0.20657	0.88225	0.42207	0.552
Mof_O 	O 	0.77403	0.7261	0.33275	-0.638
Mof_O 	O 	0.83535	0.4888	0.28992	-0.606
Mof_O 	O 	0.8331	0.9042	0.26066	-0.653
Mof_O 	O 	0.20289	0.0091	0.37543	-0.654
Mof_O 	O 	0.20314	0.9294	0.49957	-0.525
Mof_O 	O 	0.83721	0.9309	0.39728	-0.502
Mof_O 	O 	0.28742	0.8015	0.42214	-0.596
Mof_O 	O 	0.204	0.8519	0.69204	-2.375
Mof_C 	C 	0.9485	0.7575	0.35697	-0.428
Mof_H 	H 	0.9528	0.6977	0.3157	0.144
Mof_H 	H 	0.9541	0.7019	0.4018	0.131
Mof_C 	C 	0.1123	0.7812	0.3859	-0.463
Mof_H 	H 	0.1112	0.7085	0.4215	0.124
Mof_H 	H 	0.1181	0.74	0.3391	0.137
Mof_C 	C 	0.0249	0.8551	0.37076	0.248
Mof_H 	H 	0.0191	0.9131	0.3269	-0.089
Mof_H 	H 	0.0234	0.9121	0.4138	-0.113
Mof_H 	H 	0.215	0.795	0.696	1.435
Mof_V 	V 	0.66162	0.37526	0.58518	1.754
Mof_V 	V 	0.24245	0.05144	0.28521	1.318
Mof_V 	V 	0.6914	0.5851	0.2809	1.246
Mof_P 	P 	0.34231	0.33367	0.33475	0.551
Mof_P 	P 	0.70657	0.38225	0.42207	0.551
Mof_O 	O 	0.27403	0.2261	0.33275	-0.639
Mof_O 	O 	0.33535	0.9888	0.28992	-0.602
Mof_O 	O 	0.3331	0.4042	0.26066	-0.656
Mof_O 	O 	0.70289	0.5091	0.37543	-0.652
Mof_O 	O 	0.70314	0.4294	0.49957	-0.524
Mof_O 	O 	0.33721	0.4309	0.39728	-0.503
Mof_O 	O 	0.78742	0.3015	0.42214	-0.597
Mof_O 	O 	0.704	0.3519	0.69204	-2.371
Mof_C 	C 	0.4485	0.2575	0.35697	-0.429
Mof_H 	H 	0.4528	0.1977	0.3157	0.143
Mof_H 	H 	0.4541	0.2019	0.4018	0.131
Mof_C 	C 	0.6123	0.2812	0.3859	-0.463
Mof_H 	H 	0.6112	0.2085	0.4215	0.124
Mof_H 	H 	0.6181	0.24	0.3391	0.137
Mof_C 	C 	0.5249	0.3551	0.37076	0.249
Mof_H 	H 	0.5191	0.4131	0.3269	-0.09
Mof_H 	H 	0.5234	0.4121	0.4138	-0.113
Mof_H 	H 	0.715	0.295	0.696	1.434
_end
