# CIF file generated by openbabel 3.1.0, see https://openbabel.org
data_I
_chemical_name_common 'ECUCUB_clean'
_cell_length_a 6.044
_cell_length_b 10.78
_cell_length_c 11.486
_cell_angle_alpha 68.71
_cell_angle_beta 75.01
_cell_angle_gamma 87.61
_space_group_name_H-M_alt 'P 1'
_space_group_name_Hall 'P 1'
loop_
    _symmetry_equiv_pos_as_xyz
    x,y,z
loop_
    _atom_site_label
    _atom_site_type_symbol
    _atom_site_fract_x
    _atom_site_fract_y
    _atom_site_fract_z
    _atom_site_occupancy
    Yb1      Yb       0.73908    0.87773    0.54479    1.000
    Yb2      Yb       0.26092    0.12227    0.45521    1.000
    H1       H        0.23150    0.97050    0.01090    1.000
    H2       H        0.30170    0.62350    0.28550    1.000
    H3       H        0.14240    0.62430    0.96860    1.000
    H4       H        0.10580    0.97510    0.83020    1.000
    H5       H        0.01010    0.83900    0.82970    1.000
    H6       H        0.38060    0.97860    0.18000    1.000
    H7       H        0.45400    0.84400    0.27660    1.000
    H8       H        0.36560    0.43030    0.22580    1.000
    H9       H        0.27670    0.42420    0.10850    1.000
    H10      H        0.76850    0.02950    0.98910    1.000
    H11      H        0.69830    0.37650    0.71450    1.000
    H12      H        0.85760    0.37570    0.03140    1.000
    H13      H        0.89420    0.02490    0.16980    1.000
    H14      H        0.98990    0.16100    0.17030    1.000
    H15      H        0.61940    0.02140    0.82000    1.000
    H16      H        0.54600    0.15600    0.72340    1.000
    H17      H        0.63440    0.56970    0.77420    1.000
    H18      H        0.72330    0.57580    0.89150    1.000
    C1       C        0.18200    0.80810    0.97060    1.000
    C2       C        0.22900    0.87580    0.04300    1.000
    C3       C        0.27300    0.80970    0.16040    1.000
    C4       C        0.27100    0.67130    0.20420    1.000
    C5       C        0.22600    0.60280    0.13370    1.000
    C6       C        0.17800    0.67180    0.01730    1.000
    C7       C        0.14200    0.88240    0.83870    1.000
    C8       C        0.35200    0.88380    0.73300    1.000
    C9       C        0.32800    0.88570    0.23810    1.000
    C10      C        0.12100    0.88680    0.34450    1.000
    C11      C        0.23800    0.45340    0.18340    1.000
    C12      C        0.02600    0.37690    0.27650    1.000
    C13      C        0.81800    0.19190    0.02940    1.000
    C14      C        0.77100    0.12420    0.95700    1.000
    C15      C        0.72700    0.19030    0.83960    1.000
    C16      C        0.72900    0.32870    0.79580    1.000
    C17      C        0.77400    0.39720    0.86630    1.000
    C18      C        0.82200    0.32820    0.98270    1.000
    C19      C        0.85800    0.11760    0.16130    1.000
    C20      C        0.64800    0.11620    0.26700    1.000
    C21      C        0.67200    0.11430    0.76190    1.000
    C22      C        0.87900    0.11320    0.65550    1.000
    C23      C        0.76200    0.54660    0.81660    1.000
    C24      C        0.97400    0.62310    0.72350    1.000
    O1       O        0.51020    0.81110    0.75470    1.000
    O2       O        0.36310    0.96120    0.61810    1.000
    O3       O        0.12600    0.96430    0.40370    1.000
    O4       O        0.94500    0.81540    0.37540    1.000
    O5       O        0.05100    0.26060    0.35250    1.000
    O6       O        0.83500    0.42040    0.27480    1.000
    O7       O        0.48980    0.18890    0.24530    1.000
    O8       O        0.63690    0.03880    0.38190    1.000
    O9       O        0.87400    0.03570    0.59630    1.000
    O10      O        0.05500    0.18460    0.62460    1.000
    O11      O        0.94900    0.73940    0.64750    1.000
    O12      O        0.16500    0.57960    0.72520    1.000
