data_functionalizedCrystal
_audit_creation_method	'EQeq! by Chris Wilmer'
_symmetry_space_group_name_H-M	'P1'
_symmetry_Int_Tables_number	1
_symmetry_cell_setting	triclinic
loop_
_symmetry_equiv_pos_as_xyz
  x,y,z
_cell_length_a	12.1005
_cell_length_b	18.2101
_cell_length_c	18.2101
_cell_angle_alpha	64.7602
_cell_angle_beta	77.2029
_cell_angle_gamma	102.797
loop_
_atom_site_label
_atom_site_type_symbol
_atom_site_fract_x
_atom_site_fract_y
_atom_site_fract_z
_atom_site_charge
Mof_Cd	Cd	-0	0.5	-0	0.353
Mof_Cd	Cd	-0	0	-0	0.295
Mof_Cd	Cd	-0	0	0.5	0.359
Mof_Cd	Cd	0.5	0.5	0.5	0.402
Mof_H 	H 	0.8624	0.7202	0.7614	0.139
Mof_H 	H 	0.7425	0.6102	0.5122	-0.006
Mof_H 	H 	0.7396	0.9333	0.9726	0.006
Mof_H 	H 	0.0074	0.3252	0.0731	0.322
Mof_H 	H 	0.5456	0.4033	0.2014	0.088
Mof_H 	H 	0.2214	0.7762	0.1221	0.081
Mof_H 	H 	0.2629	0.865	0.3627	0.08
Mof_H 	H 	0.4452	0.1017	0.7762	0.089
Mof_H 	H 	0.7967	0.9129	0.3819	0.322
Mof_H 	H 	0.7515	0.7598	0.325	0.096
Mof_H 	H 	0.5998	0.774	0.8694	0.041
Mof_H 	H 	0.9235	0.675	0.0848	0.082
Mof_H 	H 	0.9022	0.8381	0.1915	0.005
Mof_H 	H 	0.1786	0.3819	0.7052	0.295
Mof_H 	H 	0.0083	0.0848	0.2402	0.075
Mof_H 	H 	0.8838	0.7052	0.9129	0.286
Mof_H 	H 	0.8526	0.8398	0.4033	0.316
Mof_H 	H 	0.0641	0.9704	0.8381	-0.021
Mof_H 	H 	0.8258	0.3566	0.774	0.033
Mof_H 	H 	0.1742	0.6434	0.226	0.039
Mof_H 	H 	0.2033	0.0871	0.6181	0.281
Mof_H 	H 	0.0765	0.325	0.9152	0.107
Mof_H 	H 	0.8079	0.6305	0.7083	0.004
Mof_H 	H 	0.5308	0.1306	0.6434	0.033
Mof_H 	H 	0.8677	0.1224	0.3898	-0.004
Mof_H 	H 	0.253	0.7986	0.6047	0.089
Mof_H 	H 	0.4789	0.6245	0.3202	0.004
Mof_H 	H 	0.1422	0.5184	0.7202	0.137
Mof_H 	H 	0.1423	0.3953	0.4033	0.084
Mof_H 	H 	0.9063	0.8085	0.0296	-0.01
Mof_H 	H 	0.7371	0.135	0.6373	0.079
Mof_H 	H 	0.4002	0.226	0.1306	0.032
Mof_H 	H 	0.0128	0.7569	0.8398	0.261
Mof_H 	H 	0.2559	0.4033	0.7569	0.296
Mof_H 	H 	0.0805	0.0731	0.6017	0.284
Mof_H 	H 	0.7991	0.3202	0.0553	0
Mof_H 	H 	0.1456	0.9447	0.3755	0.01
Mof_H 	H 	0.9926	0.6748	0.9269	0.301
Mof_H 	H 	0.8214	0.6181	0.2948	0.305
Mof_H 	H 	0.8578	0.4816	0.2798	0.149
Mof_H 	H 	0.6565	0.8779	0.8983	0.099
Mof_H 	H 	0.8063	0.0941	0.9333	-0.011
Mof_H 	H 	0.4838	0.2917	0.3388	0.002
Mof_H 	H 	0.1921	0.3695	0.2917	-0.007
Mof_H 	H 	0.9359	0.0296	0.1619	0.017
Mof_H 	H 	0.6822	0.6017	0.3252	0.31
Mof_H 	H 	0.1162	0.2948	0.0871	0.317
Mof_H 	H 	0.0978	0.1619	0.8085	-0.009
Mof_H 	H 	0.3762	0.2386	0.4816	0.138
Mof_H 	H 	0.4544	0.5967	0.7986	0.09
Mof_H 	H 	0.9872	0.2431	0.1602	0.335
Mof_H 	H 	0.2878	0.0274	0.9059	-0.003
Mof_H 	H 	0.2575	0.3898	0.4878	-0.007
Mof_H 	H 	0.3979	0.7723	0.865	0.084
Mof_H 	H 	0.2485	0.2402	0.675	0.094
Mof_H 	H 	0.1474	0.1602	0.5967	0.28
Mof_H 	H 	0.7786	0.2238	0.8779	0.098
Mof_H 	H 	0.2547	0.5122	0.8776	-0.003
Mof_H 	H 	0.7453	0.4878	0.1224	-0.007
Mof_H 	H 	0.0937	0.1915	0.9704	0.006
Mof_H 	H 	0.7122	0.9726	0.0941	-0.005
Mof_H 	H 	0.2604	0.0667	0.0274	-0.016
Mof_H 	H 	0.8544	0.0553	0.6245	0.001
Mof_H 	H 	0.3744	0.6373	0.2277	0.076
Mof_H 	H 	0.1323	0.8776	0.6102	-0.006
Mof_H 	H 	0.1376	0.2798	0.2386	0.148
Mof_H 	H 	0.7441	0.5967	0.2431	0.298
Mof_H 	H 	0.5548	0.8983	0.2238	0.091
Mof_H 	H 	0.6256	0.3627	0.7723	0.084
Mof_H 	H 	0.1937	0.9059	0.0667	0.002
Mof_H 	H 	0.1774	0.6612	0.6305	-0.004
Mof_H 	H 	0.8577	0.6047	0.5967	0.094
Mof_H 	H 	0.5162	0.7083	0.6612	-0.004
Mof_H 	H 	0.8226	0.3388	0.3695	0.002
Mof_H 	H 	0.3178	0.3983	0.6748	0.307
Mof_H 	H 	0.3435	0.1221	0.1017	0.081
Mof_H 	H 	0.6021	0.2277	0.135	0.075
Mof_H 	H 	0.4692	0.8694	0.3566	0.039
Mof_H 	H 	0.5211	0.3755	0.6798	0.004
Mof_H 	H 	0.2009	0.6798	0.9447	0.011
Mof_H 	H 	0.6238	0.7614	0.5184	0.148
Mof_H 	H 	0.747	0.2014	0.3953	0.089
Mof_H 	H 	0.9917	0.9152	0.7598	0.114
Mof_H 	H 	0.9195	0.9269	0.3983	0.339
Mof_C 	C 	0.13582	0.46473	0.22007	-0.062
Mof_C 	C 	0.15837	0.11498	0.58517	-0.87
Mof_C 	C 	0.94742	0.4372	0.8786	0.165
Mof_C 	C 	0.46846	0.22881	0.62272	-0.093
Mof_C 	C 	0.79137	0.93008	0.92897	0.109
Mof_C 	C 	0.35589	0.22007	0.3152	-0.044
Mof_C 	C 	0.25982	0.10389	0.11553	-0.18
Mof_C 	C 	0.79257	0.44979	0.33238	-0.31
Mof_C 	C 	0.76279	0.84303	0.64026	0.04
Mof_C 	C 	0.64482	0.22675	0.52709	-0.028
Mof_C 	C 	0.37535	0.11553	0.78058	-0.185
Mof_C 	C 	0.17398	0.1214	0.3158	0.132
Mof_C 	C 	0.02931	0.1981	0.95156	0.087
Mof_C 	C 	0.7406	0.80276	0.27901	-0.188
Mof_C 	C 	0.81354	0.88896	0.81882	0.143
Mof_C 	C 	0.95661	0.70015	0.88502	-0.834
Mof_C 	C 	0.41807	0.24616	0.22675	-0.031
Mof_C 	C 	0.32891	0.6848	0.53527	-0.048
Mof_C 	C 	0.25646	0.41483	0.70015	-0.906
Mof_C 	C 	0.20863	0.06992	0.07103	0.086
Mof_C 	C 	0.40629	0.24979	0.36472	0.087
Mof_C 	C 	0.06216	0.08177	0.19724	-0.168
Mof_C 	C 	0.62465	0.88447	0.21942	-0.184
Mof_C 	C 	0.40565	0.61592	0.82787	-0.168
Mof_C 	C 	0.45431	0.69346	0.82243	0.094
Mof_C 	C 	0.16879	0.14966	0.8019	0.09
Mof_C 	C 	0.90882	0.37728	0.85153	-0.106
Mof_C 	C 	0.23352	0.82787	0.55621	-0.17
Mof_C 	C 	0.2594	0.19724	0.72099	-0.191
Mof_C 	C 	0.77321	0.84654	0.50991	0.386
Mof_C 	C 	0.25356	0.6633	0.91482	0.079
Mof_C 	C 	0.91976	0.51671	0.84303	0.028
Mof_C 	C 	0.72326	0.17757	0.51589	0.093
Mof_C 	C 	0.54674	0.18799	0.60257	-0.028
Mof_C 	C 	0.92458	0.29222	0.88896	0.165
Mof_C 	C 	0.48978	0.3158	0.5628	0.134
Mof_C 	C 	0.27674	0.82243	0.48411	0.093
Mof_C 	C 	0.76035	0.85153	0.77119	-0.089
Mof_C 	C 	0.16838	0.91482	0.42188	0.076
Mof_C 	C 	0.72034	0.92897	0.14095	0.099
Mof_C 	C 	0.36764	0.18118	0.70778	0.127
Mof_C 	C 	0.83162	0.08518	0.57812	0.077
Mof_C 	C 	0.14931	0.60257	0.20944	-0.045
Mof_C 	C 	0.59435	0.38408	0.17213	-0.172
Mof_C 	C 	0.92667	0.64355	0.84654	0.347
Mof_C 	C 	0.67109	0.3152	0.46473	-0.047
Mof_C 	C 	0.64411	0.77993	0.6848	-0.052
Mof_C 	C 	0.58193	0.75384	0.77325	-0.022
Mof_C 	C 	0.62826	0.28111	0.13243	-0.153
Mof_C 	C 	0.74354	0.58517	0.29985	-0.918
Mof_C 	C 	0.78973	0.55621	0.61592	-0.175
Mof_C 	C 	0.23965	0.14847	0.22881	-0.093
Mof_C 	C 	0.74018	0.89611	0.88447	-0.188
Mof_C 	C 	0.83121	0.85034	0.1981	0.093
Mof_C 	C 	0.15593	0.78058	0.10389	-0.169
Mof_C 	C 	0.09118	0.62272	0.14847	-0.075
Mof_C 	C 	0.35518	0.77325	0.47291	-0.026
Mof_C 	C 	0.65722	0.78217	0.55021	-0.322
Mof_C 	C 	0.82809	0.47291	0.75384	-0.033
Mof_C 	C 	0.23721	0.15697	0.35974	0.026
Mof_C 	C 	0.64125	0.79056	0.81201	-0.029
Mof_C 	C 	0.71587	0.43545	0.12354	0.103
Mof_C 	C 	0.1565	0.38549	0.24979	0.109
Mof_C 	C 	0.23915	0.51589	0.30654	0.086
Mof_C 	C 	0.28413	0.56455	0.87646	0.107
Mof_C 	C 	0.76069	0.13243	0.58646	-0.152
Mof_C 	C 	0.83941	0.12354	0.44101	0.105
Mof_C 	C 	0.86418	0.53527	0.77993	-0.035
Mof_C 	C 	0.74644	0.3367	0.08518	0.074
Mof_C 	C 	0.34278	0.21783	0.44979	-0.297
Mof_C 	C 	0.98039	0.72099	0.08177	-0.158
Mof_C 	C 	0.28042	0.44101	0.43545	0.102
Mof_C 	C 	0.12495	0.33238	0.21783	-0.332
Mof_C 	C 	0.22679	0.15346	0.49009	0.346
Mof_C 	C 	0.59026	0.42188	0.6633	0.08
Mof_C 	C 	0.04339	0.29985	0.11498	-0.997
Mof_C 	C 	0.07542	0.70778	0.11104	0.087
Mof_C 	C 	0.87505	0.66762	0.78217	-0.288
Mof_C 	C 	0.01961	0.27901	0.91823	-0.22
Mof_C 	C 	0.20743	0.55021	0.66762	-0.307
Mof_C 	C 	0.18646	0.11104	0.18118	0.11
Mof_C 	C 	0.84407	0.21942	0.89611	-0.199
Mof_C 	C 	0.76085	0.48411	0.69346	0.101
Mof_C 	C 	0.82602	0.8786	0.6842	0.133
Mof_C 	C 	0.98087	0.95156	0.85034	0.145
Mof_C 	C 	0.37174	0.71889	0.86757	-0.149
Mof_C 	C 	0.54569	0.30654	0.17757	0.092
Mof_C 	C 	0.21027	0.44379	0.38408	-0.167
Mof_C 	C 	0.08024	0.48329	0.15697	0.039
Mof_C 	C 	0.35875	0.20944	0.18799	-0.03
Mof_C 	C 	0.59371	0.75021	0.63528	0.107
Mof_C 	C 	0.07333	0.35645	0.15346	0.385
Mof_C 	C 	0.23931	0.86757	0.41354	-0.15
Mof_C 	C 	0.8435	0.61451	0.75021	0.086
Mof_C 	C 	0.17191	0.52709	0.24616	-0.019
Mof_C 	C 	0.86129	0.14095	0.93008	0.114
Mof_C 	C 	0.01913	0.04844	0.14966	0.036
Mof_C 	C 	0.84163	0.88502	0.41483	-0.959
Mof_C 	C 	0.51022	0.6842	0.4372	0.133
Mof_C 	C 	0.05258	0.5628	0.1214	0.099
Mof_C 	C 	0.85069	0.39743	0.79056	-0.013
Mof_C 	C 	0.22899	0.63528	0.61451	0.094
Mof_C 	C 	0.97069	0.8019	0.04844	0.096
Mof_C 	C 	0.27966	0.07103	0.85905	0.097
Mof_C 	C 	0.76648	0.17213	0.44379	-0.17
Mof_C 	C 	0.45326	0.81201	0.39743	-0.03
Mof_C 	C 	0.77101	0.36472	0.38549	0.099
Mof_C 	C 	0.71688	0.49009	0.35645	0.368
Mof_C 	C 	0.63236	0.81882	0.29222	0.127
Mof_C 	C 	0.93784	0.91823	0.80276	-0.211
Mof_C 	C 	0.59695	0.35974	0.48329	0.032
Mof_C 	C 	0.40305	0.64026	0.51671	0.031
Mof_C 	C 	0.71958	0.55899	0.56455	0.11
Mof_C 	C 	0.34715	0.58646	0.28111	-0.149
Mof_C 	C 	0.40974	0.57812	0.3367	0.073
Mof_C 	C 	0.13871	0.85905	0.06992	0.082
Mof_C 	C 	0.28312	0.50991	0.64355	0.36
Mof_C 	C 	0.53154	0.77119	0.37728	-0.091
Mof_C 	C 	0.65285	0.41354	0.71889	-0.155
Mof_C 	C 	0.16059	0.87646	0.55899	0.106
Mof_N 	N 	0.04902	0.87215	0.0415	-0.169
Mof_N 	N 	0.90948	0.9585	0.91365	-0.153
Mof_N 	N 	0.95098	0.12785	0.9585	-0.147
Mof_N 	N 	0.3779	0.55414	0.57	-0.198
Mof_N 	N 	0.09052	0.0415	0.08635	-0.164
Mof_N 	N 	0.62524	0.49554	0.58468	-0.161
Mof_N 	N 	0.17624	0.12414	0.44586	-0.197
Mof_N 	N 	0.1297	0.91978	0.49554	-0.155
Mof_N 	N 	0.8703	0.08022	0.50446	-0.157
Mof_N 	N 	0.37476	0.50446	0.41532	-0.16
Mof_N 	N 	0.17687	0.08635	0.87215	-0.16
Mof_N 	N 	0.82376	0.87586	0.55414	-0.194
Mof_N 	N 	0.9479	0.57	0.87586	-0.182
Mof_N 	N 	0.20992	0.58468	0.91978	-0.153
Mof_N 	N 	0.82313	0.91365	0.12785	-0.156
Mof_N 	N 	0.0521	0.43	0.12414	-0.209
Mof_N 	N 	0.6221	0.44586	0.43	-0.199
Mof_N 	N 	0.79008	0.41532	0.08022	-0.158
Mof_O 	O 	0.99778	0.57667	0.06654	-0.245
Mof_O 	O 	0.42111	0.35679	0.57667	-0.266
Mof_O 	O 	0.57889	0.64321	0.42333	-0.266
Mof_O 	O 	0.00222	0.42333	0.93346	-0.272
Mof_O 	O 	0.06432	0.06654	0.35679	-0.278
Mof_O 	O 	0.93568	0.93346	0.64321	-0.241
_end
