# CIF file generated by openbabel 3.1.0, see https://openbabel.org
data_I
_chemical_name_common 'image0'
_cell_length_a 12.145
_cell_length_b 30.72
_cell_length_c 22.75
_cell_angle_alpha 90
_cell_angle_beta 94
_cell_angle_gamma 90
_space_group_name_H-M_alt 'P 1'
_space_group_name_Hall 'P 1'
loop_
    _symmetry_equiv_pos_as_xyz
    x,y,z
loop_
    _atom_site_label
    _atom_site_type_symbol
    _atom_site_fract_x
    _atom_site_fract_y
    _atom_site_fract_z
    _atom_site_occupancy
    Zn1      Zn       0.31427    0.13252    0.48747    1.000
    Zn2      Zn       0.25880    0.08310    0.34284    1.000
    O1       O        0.26060    0.17288    0.42348    1.000
    O2       O        0.17560    0.13581    0.34893    1.000
    O3       O        0.15940    0.32299    0.45454    1.000
    O4       O        0.06910    0.36042    0.38530    1.000
    O5       O        0.22460    0.02983    0.38104    1.000
    O6       O        0.05230    0.03438    0.34154    1.000
    O7       O        0.76250    0.93940    0.42700    1.000
    O8       O        0.81630    0.90119    0.50493    1.000
    O9       O        0.12230    0.92340    0.72850    1.000
    O10      O        0.29790    0.92036    0.76138    1.000
    O11      O        0.58900    0.90365    0.62561    1.000
    O12      O        0.54600    0.89388    0.53066    1.000
    C1       C        0.19770    0.17015    0.37800    1.000
    C2       C        0.14300    0.21065    0.35510    1.000
    C3       C        0.15130    0.24828    0.38870    1.000
    H1       H        0.19020    0.24790    0.42540    1.000
    C4       C        0.10190    0.28647    0.36790    1.000
    C5       C        0.04170    0.28636    0.31360    1.000
    H2       H        0.00700    0.31180    0.30000    1.000
    C6       C        0.03260    0.24882    0.27930    1.000
    C7       C        0.08310    0.21121    0.30080    1.000
    H3       H        0.07690    0.18580    0.27860    1.000
    C8       C        0.10970    0.32700    0.40450    1.000
    C9       C        0.12250    0.01769    0.37660    1.000
    C10      C        0.09080    0.98446    0.41900    1.000
    C11      C        0.98320    0.97038    0.41880    1.000
    H4       H        0.93120    0.98020    0.38990    1.000
    C12      C        0.95160    0.94147    0.46190    1.000
    C13      C        0.02850    0.92735    0.50540    1.000
    H5       H        0.00730    0.90830    0.53430    1.000
    C14      C        0.13830    0.94165    0.50630    1.000
    C15      C        0.16800    0.96951    0.46270    1.000
    H6       H        0.24100    0.97860    0.46230    1.000
    C16      C        0.21860    0.92911    0.55540    1.000
    C17      C        0.18580    0.92970    0.61280    1.000
    H7       H        0.11260    0.93550    0.61960    1.000
    C18      C        0.26240    0.92160    0.66030    1.000
    C19      C        0.37310    0.91332    0.65010    1.000
    H8       H        0.42490    0.90900    0.68160    1.000
    C20      C        0.40470    0.91151    0.59240    1.000
    C21      C        0.32790    0.91904    0.54530    1.000
    H9       H        0.34940    0.91740    0.50700    1.000
    C22      C        0.83340    0.92630    0.46360    1.000
    C23      C        0.22610    0.92450    0.72150    1.000
    C24      C        0.52230    0.90234    0.58220    1.000
    O13      O        0.16330    0.96070    0.72820    1.000
    Zn3      Zn       0.81427    0.63252    0.48747    1.000
    Zn4      Zn       0.75880    0.58310    0.34284    1.000
    O14      O        0.76060    0.67288    0.42348    1.000
    O15      O        0.67560    0.63581    0.34893    1.000
    O16      O        0.65940    0.82299    0.45454    1.000
    O17      O        0.56910    0.86042    0.38530    1.000
    O18      O        0.72460    0.52983    0.38104    1.000
    O19      O        0.55230    0.53438    0.34154    1.000
    O20      O        0.26250    0.43940    0.42700    1.000
    O21      O        0.31630    0.40119    0.50493    1.000
    O22      O        0.62230    0.42340    0.72850    1.000
    O23      O        0.79790    0.42036    0.76138    1.000
    O24      O        0.08900    0.40365    0.62561    1.000
    O25      O        0.04600    0.39388    0.53066    1.000
    C25      C        0.69770    0.67015    0.37800    1.000
    C26      C        0.64300    0.71065    0.35510    1.000
    C27      C        0.65130    0.74828    0.38870    1.000
    H10      H        0.69020    0.74790    0.42540    1.000
    C28      C        0.60190    0.78647    0.36790    1.000
    C29      C        0.54170    0.78636    0.31360    1.000
    H11      H        0.50700    0.81180    0.30000    1.000
    C30      C        0.53260    0.74882    0.27930    1.000
    C31      C        0.58310    0.71121    0.30080    1.000
    H12      H        0.57690    0.68580    0.27860    1.000
    C32      C        0.60970    0.82700    0.40450    1.000
    C33      C        0.62250    0.51769    0.37660    1.000
    C34      C        0.59080    0.48446    0.41900    1.000
    C35      C        0.48320    0.47038    0.41880    1.000
    H13      H        0.43120    0.48020    0.38990    1.000
    C36      C        0.45160    0.44147    0.46190    1.000
    C37      C        0.52850    0.42735    0.50540    1.000
    H14      H        0.50730    0.40830    0.53430    1.000
    C38      C        0.63830    0.44165    0.50630    1.000
    C39      C        0.66800    0.46951    0.46270    1.000
    H15      H        0.74100    0.47860    0.46230    1.000
    C40      C        0.71860    0.42911    0.55540    1.000
    C41      C        0.68580    0.42970    0.61280    1.000
    H16      H        0.61260    0.43550    0.61960    1.000
    C42      C        0.76240    0.42160    0.66030    1.000
    C43      C        0.87310    0.41332    0.65010    1.000
    H17      H        0.92490    0.40900    0.68160    1.000
    C44      C        0.90470    0.41151    0.59240    1.000
    C45      C        0.82790    0.41904    0.54530    1.000
    H18      H        0.84940    0.41740    0.50700    1.000
    C46      C        0.33340    0.42630    0.46360    1.000
    C47      C        0.72610    0.42450    0.72150    1.000
    C48      C        0.02230    0.40234    0.58220    1.000
    O26      O        0.66330    0.46070    0.72820    1.000
    Zn5      Zn       0.68573    0.13252    0.01253    1.000
    Zn6      Zn       0.74120    0.08310    0.15716    1.000
    O27      O        0.73940    0.17288    0.07652    1.000
    O28      O        0.82440    0.13581    0.15107    1.000
    O29      O        0.84060    0.32299    0.04546    1.000
    O30      O        0.93090    0.36042    0.11470    1.000
    O31      O        0.77540    0.02983    0.11896    1.000
    O32      O        0.94770    0.03438    0.15846    1.000
    O33      O        0.23750    0.93940    0.07300    1.000
    O34      O        0.18370    0.90119    0.99507    1.000
    O35      O        0.87770    0.92340    0.77150    1.000
    O36      O        0.70210    0.92036    0.73862    1.000
    O37      O        0.41100    0.90365    0.87439    1.000
    O38      O        0.45400    0.89388    0.96934    1.000
    C49      C        0.80230    0.17015    0.12200    1.000
    C50      C        0.85700    0.21065    0.14490    1.000
    C51      C        0.84870    0.24828    0.11130    1.000
    H19      H        0.80980    0.24790    0.07460    1.000
    C52      C        0.89810    0.28647    0.13210    1.000
    C53      C        0.95830    0.28636    0.18640    1.000
    H20      H        0.99300    0.31180    0.20000    1.000
    C54      C        0.96740    0.24882    0.22070    1.000
    C55      C        0.91690    0.21121    0.19920    1.000
    H21      H        0.92310    0.18580    0.22140    1.000
    C56      C        0.89030    0.32700    0.09550    1.000
    C57      C        0.87750    0.01769    0.12340    1.000
    C58      C        0.90920    0.98446    0.08100    1.000
    C59      C        0.01680    0.97038    0.08120    1.000
    H22      H        0.06880    0.98020    0.11010    1.000
    C60      C        0.04840    0.94147    0.03810    1.000
    C61      C        0.97150    0.92735    0.99460    1.000
    H23      H        0.99270    0.90830    0.96570    1.000
    C62      C        0.86170    0.94165    0.99370    1.000
    C63      C        0.83200    0.96951    0.03730    1.000
    H24      H        0.75900    0.97860    0.03770    1.000
    C64      C        0.78140    0.92911    0.94460    1.000
    C65      C        0.81420    0.92970    0.88720    1.000
    H25      H        0.88740    0.93550    0.88040    1.000
    C66      C        0.73760    0.92160    0.83970    1.000
    C67      C        0.62690    0.91332    0.84990    1.000
    H26      H        0.57510    0.90900    0.81840    1.000
    C68      C        0.59530    0.91151    0.90760    1.000
    C69      C        0.67210    0.91904    0.95470    1.000
    H27      H        0.65060    0.91740    0.99300    1.000
    C70      C        0.16660    0.92630    0.03640    1.000
    C71      C        0.77390    0.92450    0.77850    1.000
    C72      C        0.47770    0.90234    0.91780    1.000
    O39      O        0.83670    0.96070    0.77180    1.000
    Zn7      Zn       0.18573    0.63252    0.01253    1.000
    Zn8      Zn       0.24120    0.58310    0.15716    1.000
    O40      O        0.23940    0.67288    0.07652    1.000
    O41      O        0.32440    0.63581    0.15107    1.000
    O42      O        0.34060    0.82299    0.04546    1.000
    O43      O        0.43090    0.86042    0.11470    1.000
    O44      O        0.27540    0.52983    0.11896    1.000
    O45      O        0.44770    0.53438    0.15846    1.000
    O46      O        0.73750    0.43940    0.07300    1.000
    O47      O        0.68370    0.40119    0.99507    1.000
    O48      O        0.37770    0.42340    0.77150    1.000
    O49      O        0.20210    0.42036    0.73862    1.000
    O50      O        0.91100    0.40365    0.87439    1.000
    O51      O        0.95400    0.39388    0.96934    1.000
    C73      C        0.30230    0.67015    0.12200    1.000
    C74      C        0.35700    0.71065    0.14490    1.000
    C75      C        0.34870    0.74828    0.11130    1.000
    H28      H        0.30980    0.74790    0.07460    1.000
    C76      C        0.39810    0.78647    0.13210    1.000
    C77      C        0.45830    0.78636    0.18640    1.000
    H29      H        0.49300    0.81180    0.20000    1.000
    C78      C        0.46740    0.74882    0.22070    1.000
    C79      C        0.41690    0.71121    0.19920    1.000
    H30      H        0.42310    0.68580    0.22140    1.000
    C80      C        0.39030    0.82700    0.09550    1.000
    C81      C        0.37750    0.51769    0.12340    1.000
    C82      C        0.40920    0.48446    0.08100    1.000
    C83      C        0.51680    0.47038    0.08120    1.000
    H31      H        0.56880    0.48020    0.11010    1.000
    C84      C        0.54840    0.44147    0.03810    1.000
    C85      C        0.47150    0.42735    0.99460    1.000
    H32      H        0.49270    0.40830    0.96570    1.000
    C86      C        0.36170    0.44165    0.99370    1.000
    C87      C        0.33200    0.46951    0.03730    1.000
    H33      H        0.25900    0.47860    0.03770    1.000
    C88      C        0.28140    0.42911    0.94460    1.000
    C89      C        0.31420    0.42970    0.88720    1.000
    H34      H        0.38740    0.43550    0.88040    1.000
    C90      C        0.23760    0.42160    0.83970    1.000
    C91      C        0.12690    0.41332    0.84990    1.000
    H35      H        0.07510    0.40900    0.81840    1.000
    C92      C        0.09530    0.41151    0.90760    1.000
    C93      C        0.17210    0.41904    0.95470    1.000
    H36      H        0.15060    0.41740    0.99300    1.000
    C94      C        0.66660    0.42630    0.03640    1.000
    C95      C        0.27390    0.42450    0.77850    1.000
    C96      C        0.97770    0.40234    0.91780    1.000
    O52      O        0.33670    0.46070    0.77180    1.000
    Zn9      Zn       0.68573    0.86748    0.51253    1.000
    Zn10     Zn       0.74120    0.91690    0.65716    1.000
    O53      O        0.73940    0.82712    0.57652    1.000
    O54      O        0.82440    0.86419    0.65107    1.000
    O55      O        0.84060    0.67701    0.54546    1.000
    O56      O        0.93090    0.63958    0.61470    1.000
    O57      O        0.77540    0.97017    0.61896    1.000
    O58      O        0.94770    0.96562    0.65846    1.000
    O59      O        0.23750    0.06060    0.57300    1.000
    O60      O        0.18370    0.09881    0.49507    1.000
    O61      O        0.87770    0.07660    0.27150    1.000
    O62      O        0.70210    0.07964    0.23862    1.000
    O63      O        0.41100    0.09635    0.37439    1.000
    O64      O        0.45400    0.10612    0.46934    1.000
    C97      C        0.80230    0.82985    0.62200    1.000
    C98      C        0.85700    0.78935    0.64490    1.000
    C99      C        0.84870    0.75172    0.61130    1.000
    H37      H        0.80980    0.75210    0.57460    1.000
    C100     C        0.89810    0.71353    0.63210    1.000
    C101     C        0.95830    0.71364    0.68640    1.000
    H38      H        0.99300    0.68820    0.70000    1.000
    C102     C        0.96740    0.75118    0.72070    1.000
    C103     C        0.91690    0.78879    0.69920    1.000
    H39      H        0.92310    0.81420    0.72140    1.000
    C104     C        0.89030    0.67300    0.59550    1.000
    C105     C        0.87750    0.98231    0.62340    1.000
    C106     C        0.90920    0.01554    0.58100    1.000
    C107     C        0.01680    0.02962    0.58120    1.000
    H40      H        0.06880    0.01980    0.61010    1.000
    C108     C        0.04840    0.05853    0.53810    1.000
    C109     C        0.97150    0.07265    0.49460    1.000
    H41      H        0.99270    0.09170    0.46570    1.000
    C110     C        0.86170    0.05835    0.49370    1.000
    C111     C        0.83200    0.03049    0.53730    1.000
    H42      H        0.75900    0.02140    0.53770    1.000
    C112     C        0.78140    0.07089    0.44460    1.000
    C113     C        0.81420    0.07030    0.38720    1.000
    H43      H        0.88740    0.06450    0.38040    1.000
    C114     C        0.73760    0.07840    0.33970    1.000
    C115     C        0.62690    0.08668    0.34990    1.000
    H44      H        0.57510    0.09100    0.31840    1.000
    C116     C        0.59530    0.08849    0.40760    1.000
    C117     C        0.67210    0.08096    0.45470    1.000
    H45      H        0.65060    0.08260    0.49300    1.000
    C118     C        0.16660    0.07370    0.53640    1.000
    C119     C        0.77390    0.07550    0.27850    1.000
    C120     C        0.47770    0.09766    0.41780    1.000
    O65      O        0.83670    0.03930    0.27180    1.000
    Zn11     Zn       0.18573    0.36748    0.51253    1.000
    Zn12     Zn       0.24120    0.41690    0.65716    1.000
    O66      O        0.23940    0.32712    0.57652    1.000
    O67      O        0.32440    0.36419    0.65107    1.000
    O68      O        0.34060    0.17701    0.54546    1.000
    O69      O        0.43090    0.13958    0.61470    1.000
    O70      O        0.27540    0.47017    0.61896    1.000
    O71      O        0.44770    0.46562    0.65846    1.000
    O72      O        0.73750    0.56060    0.57300    1.000
    O73      O        0.68370    0.59881    0.49507    1.000
    O74      O        0.37770    0.57660    0.27150    1.000
    O75      O        0.20210    0.57964    0.23862    1.000
    O76      O        0.91100    0.59635    0.37439    1.000
    O77      O        0.95400    0.60612    0.46934    1.000
    C121     C        0.30230    0.32985    0.62200    1.000
    C122     C        0.35700    0.28935    0.64490    1.000
    C123     C        0.34870    0.25172    0.61130    1.000
    H46      H        0.30980    0.25210    0.57460    1.000
    C124     C        0.39810    0.21353    0.63210    1.000
    C125     C        0.45830    0.21364    0.68640    1.000
    H47      H        0.49300    0.18820    0.70000    1.000
    C126     C        0.46740    0.25118    0.72070    1.000
    C127     C        0.41690    0.28879    0.69920    1.000
    H48      H        0.42310    0.31420    0.72140    1.000
    C128     C        0.39030    0.17300    0.59550    1.000
    C129     C        0.37750    0.48231    0.62340    1.000
    C130     C        0.40920    0.51554    0.58100    1.000
    C131     C        0.51680    0.52962    0.58120    1.000
    H49      H        0.56880    0.51980    0.61010    1.000
    C132     C        0.54840    0.55853    0.53810    1.000
    C133     C        0.47150    0.57265    0.49460    1.000
    H50      H        0.49270    0.59170    0.46570    1.000
    C134     C        0.36170    0.55835    0.49370    1.000
    C135     C        0.33200    0.53049    0.53730    1.000
    H51      H        0.25900    0.52140    0.53770    1.000
    C136     C        0.28140    0.57089    0.44460    1.000
    C137     C        0.31420    0.57030    0.38720    1.000
    H52      H        0.38740    0.56450    0.38040    1.000
    C138     C        0.23760    0.57840    0.33970    1.000
    C139     C        0.12690    0.58668    0.34990    1.000
    H53      H        0.07510    0.59100    0.31840    1.000
    C140     C        0.09530    0.58849    0.40760    1.000
    C141     C        0.17210    0.58096    0.45470    1.000
    H54      H        0.15060    0.58260    0.49300    1.000
    C142     C        0.66660    0.57370    0.53640    1.000
    C143     C        0.27390    0.57550    0.27850    1.000
    C144     C        0.97770    0.59766    0.41780    1.000
    O78      O        0.33670    0.53930    0.27180    1.000
    Zn13     Zn       0.31427    0.86748    0.98747    1.000
    Zn14     Zn       0.25880    0.91690    0.84284    1.000
    O79      O        0.26060    0.82712    0.92348    1.000
    O80      O        0.17560    0.86419    0.84893    1.000
    O81      O        0.15940    0.67701    0.95454    1.000
    O82      O        0.06910    0.63958    0.88530    1.000
    O83      O        0.22460    0.97017    0.88104    1.000
    O84      O        0.05230    0.96562    0.84154    1.000
    O85      O        0.76250    0.06060    0.92700    1.000
    O86      O        0.81630    0.09881    0.00493    1.000
    O87      O        0.12230    0.07660    0.22850    1.000
    O88      O        0.29790    0.07964    0.26138    1.000
    O89      O        0.58900    0.09635    0.12561    1.000
    O90      O        0.54600    0.10612    0.03066    1.000
    C145     C        0.19770    0.82985    0.87800    1.000
    C146     C        0.14300    0.78935    0.85510    1.000
    C147     C        0.15130    0.75172    0.88870    1.000
    H55      H        0.19020    0.75210    0.92540    1.000
    C148     C        0.10190    0.71353    0.86790    1.000
    C149     C        0.04170    0.71364    0.81360    1.000
    H56      H        0.00700    0.68820    0.80000    1.000
    C150     C        0.03260    0.75118    0.77930    1.000
    C151     C        0.08310    0.78879    0.80080    1.000
    H57      H        0.07690    0.81420    0.77860    1.000
    C152     C        0.10970    0.67300    0.90450    1.000
    C153     C        0.12250    0.98231    0.87660    1.000
    C154     C        0.09080    0.01554    0.91900    1.000
    C155     C        0.98320    0.02962    0.91880    1.000
    H58      H        0.93120    0.01980    0.88990    1.000
    C156     C        0.95160    0.05853    0.96190    1.000
    C157     C        0.02850    0.07265    0.00540    1.000
    H59      H        0.00730    0.09170    0.03430    1.000
    C158     C        0.13830    0.05835    0.00630    1.000
    C159     C        0.16800    0.03049    0.96270    1.000
    H60      H        0.24100    0.02140    0.96230    1.000
    C160     C        0.21860    0.07089    0.05540    1.000
    C161     C        0.18580    0.07030    0.11280    1.000
    H61      H        0.11260    0.06450    0.11960    1.000
    C162     C        0.26240    0.07840    0.16030    1.000
    C163     C        0.37310    0.08668    0.15010    1.000
    H62      H        0.42490    0.09100    0.18160    1.000
    C164     C        0.40470    0.08849    0.09240    1.000
    C165     C        0.32790    0.08096    0.04530    1.000
    H63      H        0.34940    0.08260    0.00700    1.000
    C166     C        0.83340    0.07370    0.96360    1.000
    C167     C        0.22610    0.07550    0.22150    1.000
    C168     C        0.52230    0.09766    0.08220    1.000
    O91      O        0.16330    0.03930    0.22820    1.000
    Zn15     Zn       0.81427    0.36748    0.98747    1.000
    Zn16     Zn       0.75880    0.41690    0.84284    1.000
    O92      O        0.76060    0.32712    0.92348    1.000
    O93      O        0.67560    0.36419    0.84893    1.000
    O94      O        0.65940    0.17701    0.95454    1.000
    O95      O        0.56910    0.13958    0.88530    1.000
    O96      O        0.72460    0.47017    0.88104    1.000
    O97      O        0.55230    0.46562    0.84154    1.000
    O98      O        0.26250    0.56060    0.92700    1.000
    O99      O        0.31630    0.59881    0.00493    1.000
    O100     O        0.62230    0.57660    0.22850    1.000
    O101     O        0.79790    0.57964    0.26138    1.000
    O102     O        0.08900    0.59635    0.12561    1.000
    O103     O        0.04600    0.60612    0.03066    1.000
    C169     C        0.69770    0.32985    0.87800    1.000
    C170     C        0.64300    0.28935    0.85510    1.000
    C171     C        0.65130    0.25172    0.88870    1.000
    H64      H        0.69020    0.25210    0.92540    1.000
    C172     C        0.60190    0.21353    0.86790    1.000
    C173     C        0.54170    0.21364    0.81360    1.000
    H65      H        0.50700    0.18820    0.80000    1.000
    C174     C        0.53260    0.25118    0.77930    1.000
    C175     C        0.58310    0.28879    0.80080    1.000
    H66      H        0.57690    0.31420    0.77860    1.000
    C176     C        0.60970    0.17300    0.90450    1.000
    C177     C        0.62250    0.48231    0.87660    1.000
    C178     C        0.59080    0.51554    0.91900    1.000
    C179     C        0.48320    0.52962    0.91880    1.000
    H67      H        0.43120    0.51980    0.88990    1.000
    C180     C        0.45160    0.55853    0.96190    1.000
    C181     C        0.52850    0.57265    0.00540    1.000
    H68      H        0.50730    0.59170    0.03430    1.000
    C182     C        0.63830    0.55835    0.00630    1.000
    C183     C        0.66800    0.53049    0.96270    1.000
    H69      H        0.74100    0.52140    0.96230    1.000
    C184     C        0.71860    0.57089    0.05540    1.000
    C185     C        0.68580    0.57030    0.11280    1.000
    H70      H        0.61260    0.56450    0.11960    1.000
    C186     C        0.76240    0.57840    0.16030    1.000
    C187     C        0.87310    0.58668    0.15010    1.000
    H71      H        0.92490    0.59100    0.18160    1.000
    C188     C        0.90470    0.58849    0.09240    1.000
    C189     C        0.82790    0.58096    0.04530    1.000
    H72      H        0.84940    0.58260    0.00700    1.000
    C190     C        0.33340    0.57370    0.96360    1.000
    C191     C        0.72610    0.57550    0.22150    1.000
    C192     C        0.02230    0.59766    0.08220    1.000
    O104     O        0.66330    0.53930    0.22820    1.000
    Zn17     Zn       0.00000    0.03794    0.25000    1.000
    Zn18     Zn       0.50000    0.53794    0.25000    1.000
    Zn19     Zn       0.00000    0.96206    0.75000    1.000
    Zn20     Zn       0.50000    0.46206    0.75000    1.000
