# CIF file generated by openbabel 3.1.0, see https://openbabel.org
data_I
_chemical_name_common 'image0'
_cell_length_a 16.135
_cell_length_b 26.792
_cell_length_c 18.63
_cell_angle_alpha 90
_cell_angle_beta 110.57
_cell_angle_gamma 90
_space_group_name_H-M_alt 'P 1'
_space_group_name_Hall 'P 1'
loop_
    _symmetry_equiv_pos_as_xyz
    x,y,z
loop_
    _atom_site_label
    _atom_site_type_symbol
    _atom_site_fract_x
    _atom_site_fract_y
    _atom_site_fract_z
    _atom_site_occupancy
    Ca1      Ca       0.95226    0.43205    0.97084    1.000
    Ca2      Ca       0.27871    0.93699    0.44478    1.000
    O1       O        0.06307    0.49387    0.95642    1.000
    H1       H        0.11410    0.48170    0.97620    1.000
    H2       H        0.05450    0.49730    0.90950    1.000
    O2       O        0.85245    0.36484    0.90870    1.000
    O3       O        0.78752    0.41468    0.96482    1.000
    O4       O        0.02382    0.38481    0.89772    1.000
    O5       O        0.93898    0.32073    0.83680    1.000
    H3       H        0.91080    0.33340    0.86200    1.000
    O6       O        0.24076    0.01694    0.48378    1.000
    O7       O        0.38053    0.99525    0.54573    1.000
    O8       O        0.37590    0.99385    0.38663    1.000
    O9       O        0.23427    0.97678    0.32494    1.000
    O10      O        0.97041    0.11738    0.58757    1.000
    O11      O        0.08430    0.07399    0.58407    1.000
    O12      O        0.50263    0.41519    0.99554    1.000
    O13      O        0.62665    0.37679    0.06676    1.000
    C1       C        0.45210    0.27240    0.78950    1.000
    C2       C        0.37740    0.29126    0.80170    1.000
    H4       H        0.38360    0.31970    0.83360    1.000
    C3       C        0.29420    0.26948    0.76840    1.000
    C4       C        0.28660    0.22717    0.72320    1.000
    H5       H        0.23030    0.21210    0.69980    1.000
    C5       C        0.36040    0.20651    0.71160    1.000
    C6       C        0.44240    0.22993    0.74430    1.000
    H6       H        0.49260    0.21660    0.73570    1.000
    C7       C        0.53890    0.29910    0.82360    1.000
    C8       C        0.61840    0.27674    0.82700    1.000
    H7       H        0.61820    0.24380    0.80820    1.000
    C9       C        0.69770    0.30259    0.85770    1.000
    H8       H        0.75110    0.28740    0.85830    1.000
    C10      C        0.70010    0.34999    0.88730    1.000
    C11      C        0.62100    0.37187    0.88400    1.000
    H9       H        0.62130    0.40450    0.90390    1.000
    C12      C        0.54230    0.34685    0.85240    1.000
    H10      H        0.48880    0.36280    0.85030    1.000
    C13      C        0.78480    0.37835    0.92270    1.000
    C14      C        0.21740    0.29015    0.78530    1.000
    C15      C        0.21560    0.34047    0.80450    1.000
    H11      H        0.26080    0.36220    0.80150    1.000
    C16      C        0.14900    0.35922    0.82790    1.000
    H12      H        0.14990    0.39320    0.84290    1.000
    C17      C        0.08050    0.32774    0.82910    1.000
    C18      C        0.07910    0.27795    0.80560    1.000
    H13      H        0.03120    0.25680    0.80420    1.000
    C19      C        0.14730    0.25958    0.78450    1.000
    H14      H        0.14630    0.22570    0.76920    1.000
    C20      C        0.01230    0.34747    0.85790    1.000
    C21      C        0.35040    0.16058    0.66470    1.000
    C22      C        0.27260    0.15167    0.60200    1.000
    H15      H        0.22670    0.17590    0.58820    1.000
    C23      C        0.26180    0.10813    0.56020    1.000
    H16      H        0.20870    0.10260    0.51790    1.000
    C24      C        0.32830    0.07221    0.57960    1.000
    C25      C        0.40680    0.08100    0.64140    1.000
    H17      H        0.45320    0.05710    0.65410    1.000
    C26      C        0.41720    0.12438    0.68390    1.000
    H18      H        0.47010    0.12970    0.72650    1.000
    C27      C        0.31560    0.02585    0.53350    1.000
    C28      C        0.29530    0.12610    0.07650    1.000
    C29      C        0.24140    0.11279    0.00280    1.000
    H19      H        0.20450    0.08420    0.99530    1.000
    C30      C        0.24080    0.14091    0.93930    1.000
    C31      C        0.29340    0.18259    0.95090    1.000
    H20      H        0.29410    0.20130    0.90780    1.000
    C32      C        0.34610    0.19827    0.02470    1.000
    C33      C        0.34730    0.16940    0.08690    1.000
    H21      H        0.38380    0.17910    0.13720    1.000
    C34      C        0.29780    0.09477    0.14240    1.000
    C35      C        0.37640    0.08721    0.20470    1.000
    H22      H        0.42910    0.10320    0.20500    1.000
    C36      C        0.37920    0.05730    0.26550    1.000
    H23      H        0.43320    0.05350    0.30750    1.000
    C37      C        0.30360    0.03261    0.26580    1.000
    C38      C        0.22370    0.04046    0.20390    1.000
    H24      H        0.17110    0.02450    0.20380    1.000
    C39      C        0.22100    0.07063    0.14440    1.000
    H25      H        0.16640    0.07550    0.10340    1.000
    C40      C        0.30410    0.99879    0.32980    1.000
    C41      C        0.18890    0.12608    0.85940    1.000
    C42      C        0.09750    0.13069    0.83060    1.000
    H26      H        0.06680    0.13980    0.86370    1.000
    C43      C        0.05060    0.12196    0.75310    1.000
    H27      H        0.98810    0.12550    0.73340    1.000
    C44      C        0.09500    0.10815    0.70460    1.000
    C45      C        0.18520    0.10246    0.73360    1.000
    H28      H        0.21550    0.09130    0.70110    1.000
    C46      C        0.23240    0.11287    0.81010    1.000
    H29      H        0.29520    0.11090    0.82880    1.000
    C47      C        0.04650    0.09917    0.62050    1.000
    C48      C        0.39790    0.24495    0.03200    1.000
    C49      C        0.35710    0.28630    0.98860    1.000
    H30      H        0.29630    0.28450    0.95730    1.000
    C50      C        0.40340    0.32957    0.99040    1.000
    H31      H        0.37420    0.35770    0.96140    1.000
    C51      C        0.49360    0.33233    0.03500    1.000
    C52      C        0.53420    0.29118    0.07940    1.000
    H32      H        0.59510    0.29290    0.11050    1.000
    C53      C        0.48750    0.24818    0.07880    1.000
    H33      H        0.51580    0.22070    0.11000    1.000
    C54      C        0.54460    0.37820    0.03240    1.000
    Ca3      Ca       0.04774    0.93205    0.52916    1.000
    Ca4      Ca       0.72129    0.43699    0.05522    1.000
    O14      O        0.93693    0.99387    0.54358    1.000
    H34      H        0.88590    0.98170    0.52380    1.000
    H35      H        0.94550    0.99730    0.59050    1.000
    O15      O        0.14755    0.86484    0.59130    1.000
    O16      O        0.21248    0.91468    0.53518    1.000
    O17      O        0.97618    0.88481    0.60228    1.000
    O18      O        0.06102    0.82073    0.66320    1.000
    H36      H        0.08920    0.83340    0.63800    1.000
    O19      O        0.75924    0.51694    0.01622    1.000
    O20      O        0.61947    0.49525    0.95427    1.000
    O21      O        0.62410    0.49385    0.11337    1.000
    O22      O        0.76573    0.47678    0.17506    1.000
    O23      O        0.02959    0.61738    0.91243    1.000
    O24      O        0.91570    0.57399    0.91593    1.000
    O25      O        0.49737    0.91519    0.50446    1.000
    O26      O        0.37335    0.87679    0.43324    1.000
    C55      C        0.54790    0.77240    0.71050    1.000
    C56      C        0.62260    0.79126    0.69830    1.000
    H37      H        0.61640    0.81970    0.66640    1.000
    C57      C        0.70580    0.76948    0.73160    1.000
    C58      C        0.71340    0.72717    0.77680    1.000
    H38      H        0.76970    0.71210    0.80020    1.000
    C59      C        0.63960    0.70651    0.78840    1.000
    C60      C        0.55760    0.72993    0.75570    1.000
    H39      H        0.50740    0.71660    0.76430    1.000
    C61      C        0.46110    0.79910    0.67640    1.000
    C62      C        0.38160    0.77674    0.67300    1.000
    H40      H        0.38180    0.74380    0.69180    1.000
    C63      C        0.30230    0.80259    0.64230    1.000
    H41      H        0.24890    0.78740    0.64170    1.000
    C64      C        0.29990    0.84999    0.61270    1.000
    C65      C        0.37900    0.87187    0.61600    1.000
    H42      H        0.37870    0.90450    0.59610    1.000
    C66      C        0.45770    0.84685    0.64760    1.000
    H43      H        0.51120    0.86280    0.64970    1.000
    C67      C        0.21520    0.87835    0.57730    1.000
    C68      C        0.78260    0.79015    0.71470    1.000
    C69      C        0.78440    0.84047    0.69550    1.000
    H44      H        0.73920    0.86220    0.69850    1.000
    C70      C        0.85100    0.85922    0.67210    1.000
    H45      H        0.85010    0.89320    0.65710    1.000
    C71      C        0.91950    0.82774    0.67090    1.000
    C72      C        0.92090    0.77795    0.69440    1.000
    H46      H        0.96880    0.75680    0.69580    1.000
    C73      C        0.85270    0.75958    0.71550    1.000
    H47      H        0.85370    0.72570    0.73080    1.000
    C74      C        0.98770    0.84747    0.64210    1.000
    C75      C        0.64960    0.66058    0.83530    1.000
    C76      C        0.72740    0.65167    0.89800    1.000
    H48      H        0.77330    0.67590    0.91180    1.000
    C77      C        0.73820    0.60813    0.93980    1.000
    H49      H        0.79130    0.60260    0.98210    1.000
    C78      C        0.67170    0.57221    0.92040    1.000
    C79      C        0.59320    0.58100    0.85860    1.000
    H50      H        0.54680    0.55710    0.84590    1.000
    C80      C        0.58280    0.62438    0.81610    1.000
    H51      H        0.52990    0.62970    0.77350    1.000
    C81      C        0.68440    0.52585    0.96650    1.000
    C82      C        0.70470    0.62610    0.42350    1.000
    C83      C        0.75860    0.61279    0.49720    1.000
    H52      H        0.79550    0.58420    0.50470    1.000
    C84      C        0.75920    0.64091    0.56070    1.000
    C85      C        0.70660    0.68259    0.54910    1.000
    H53      H        0.70590    0.70130    0.59220    1.000
    C86      C        0.65390    0.69827    0.47530    1.000
    C87      C        0.65270    0.66940    0.41310    1.000
    H54      H        0.61620    0.67910    0.36280    1.000
    C88      C        0.70220    0.59477    0.35760    1.000
    C89      C        0.62360    0.58721    0.29530    1.000
    H55      H        0.57090    0.60320    0.29500    1.000
    C90      C        0.62080    0.55730    0.23450    1.000
    H56      H        0.56680    0.55350    0.19250    1.000
    C91      C        0.69640    0.53261    0.23420    1.000
    C92      C        0.77630    0.54046    0.29610    1.000
    H57      H        0.82890    0.52450    0.29620    1.000
    C93      C        0.77900    0.57063    0.35560    1.000
    H58      H        0.83360    0.57550    0.39660    1.000
    C94      C        0.69590    0.49879    0.17020    1.000
    C95      C        0.81110    0.62608    0.64060    1.000
    C96      C        0.90250    0.63069    0.66940    1.000
    H59      H        0.93320    0.63980    0.63630    1.000
    C97      C        0.94940    0.62196    0.74690    1.000
    H60      H        0.01190    0.62550    0.76660    1.000
    C98      C        0.90500    0.60815    0.79540    1.000
    C99      C        0.81480    0.60246    0.76640    1.000
    H61      H        0.78450    0.59130    0.79890    1.000
    C100     C        0.76760    0.61287    0.68990    1.000
    H62      H        0.70480    0.61090    0.67120    1.000
    C101     C        0.95350    0.59917    0.87950    1.000
    C102     C        0.60210    0.74495    0.46800    1.000
    C103     C        0.64290    0.78630    0.51140    1.000
    H63      H        0.70370    0.78450    0.54270    1.000
    C104     C        0.59660    0.82957    0.50960    1.000
    H64      H        0.62580    0.85770    0.53860    1.000
    C105     C        0.50640    0.83233    0.46500    1.000
    C106     C        0.46580    0.79118    0.42060    1.000
    H65      H        0.40490    0.79290    0.38950    1.000
    C107     C        0.51250    0.74818    0.42120    1.000
    H66      H        0.48420    0.72070    0.39000    1.000
    C108     C        0.45540    0.87820    0.46760    1.000
    Ca5      Ca       0.04774    0.56795    0.02916    1.000
    Ca6      Ca       0.72129    0.06301    0.55522    1.000
    O27      O        0.93693    0.50613    0.04358    1.000
    H67      H        0.88590    0.51830    0.02380    1.000
    H68      H        0.94550    0.50270    0.09050    1.000
    O28      O        0.14755    0.63516    0.09130    1.000
    O29      O        0.21248    0.58532    0.03518    1.000
    O30      O        0.97618    0.61519    0.10228    1.000
    O31      O        0.06102    0.67927    0.16320    1.000
    H69      H        0.08920    0.66660    0.13800    1.000
    O32      O        0.75924    0.98306    0.51622    1.000
    O33      O        0.61947    0.00475    0.45427    1.000
    O34      O        0.62410    0.00615    0.61337    1.000
    O35      O        0.76573    0.02322    0.67506    1.000
    O36      O        0.02959    0.88262    0.41243    1.000
    O37      O        0.91570    0.92601    0.41593    1.000
    O38      O        0.49737    0.58481    0.00446    1.000
    O39      O        0.37335    0.62321    0.93324    1.000
    C109     C        0.54790    0.72760    0.21050    1.000
    C110     C        0.62260    0.70874    0.19830    1.000
    H70      H        0.61640    0.68030    0.16640    1.000
    C111     C        0.70580    0.73052    0.23160    1.000
    C112     C        0.71340    0.77283    0.27680    1.000
    H71      H        0.76970    0.78790    0.30020    1.000
    C113     C        0.63960    0.79349    0.28840    1.000
    C114     C        0.55760    0.77007    0.25570    1.000
    H72      H        0.50740    0.78340    0.26430    1.000
    C115     C        0.46110    0.70090    0.17640    1.000
    C116     C        0.38160    0.72326    0.17300    1.000
    H73      H        0.38180    0.75620    0.19180    1.000
    C117     C        0.30230    0.69741    0.14230    1.000
    H74      H        0.24890    0.71260    0.14170    1.000
    C118     C        0.29990    0.65001    0.11270    1.000
    C119     C        0.37900    0.62813    0.11600    1.000
    H75      H        0.37870    0.59550    0.09610    1.000
    C120     C        0.45770    0.65315    0.14760    1.000
    H76      H        0.51120    0.63720    0.14970    1.000
    C121     C        0.21520    0.62165    0.07730    1.000
    C122     C        0.78260    0.70985    0.21470    1.000
    C123     C        0.78440    0.65953    0.19550    1.000
    H77      H        0.73920    0.63780    0.19850    1.000
    C124     C        0.85100    0.64078    0.17210    1.000
    H78      H        0.85010    0.60680    0.15710    1.000
    C125     C        0.91950    0.67226    0.17090    1.000
    C126     C        0.92090    0.72205    0.19440    1.000
    H79      H        0.96880    0.74320    0.19580    1.000
    C127     C        0.85270    0.74042    0.21550    1.000
    H80      H        0.85370    0.77430    0.23080    1.000
    C128     C        0.98770    0.65253    0.14210    1.000
    C129     C        0.64960    0.83942    0.33530    1.000
    C130     C        0.72740    0.84833    0.39800    1.000
    H81      H        0.77330    0.82410    0.41180    1.000
    C131     C        0.73820    0.89187    0.43980    1.000
    H82      H        0.79130    0.89740    0.48210    1.000
    C132     C        0.67170    0.92779    0.42040    1.000
    C133     C        0.59320    0.91900    0.35860    1.000
    H83      H        0.54680    0.94290    0.34590    1.000
    C134     C        0.58280    0.87562    0.31610    1.000
    H84      H        0.52990    0.87030    0.27350    1.000
    C135     C        0.68440    0.97415    0.46650    1.000
    C136     C        0.70470    0.87390    0.92350    1.000
    C137     C        0.75860    0.88721    0.99720    1.000
    H85      H        0.79550    0.91580    0.00470    1.000
    C138     C        0.75920    0.85909    0.06070    1.000
    C139     C        0.70660    0.81741    0.04910    1.000
    H86      H        0.70590    0.79870    0.09220    1.000
    C140     C        0.65390    0.80173    0.97530    1.000
    C141     C        0.65270    0.83060    0.91310    1.000
    H87      H        0.61620    0.82090    0.86280    1.000
    C142     C        0.70220    0.90523    0.85760    1.000
    C143     C        0.62360    0.91279    0.79530    1.000
    H88      H        0.57090    0.89680    0.79500    1.000
    C144     C        0.62080    0.94270    0.73450    1.000
    H89      H        0.56680    0.94650    0.69250    1.000
    C145     C        0.69640    0.96739    0.73420    1.000
    C146     C        0.77630    0.95954    0.79610    1.000
    H90      H        0.82890    0.97550    0.79620    1.000
    C147     C        0.77900    0.92937    0.85560    1.000
    H91      H        0.83360    0.92450    0.89660    1.000
    C148     C        0.69590    0.00121    0.67020    1.000
    C149     C        0.81110    0.87392    0.14060    1.000
    C150     C        0.90250    0.86931    0.16940    1.000
    H92      H        0.93320    0.86020    0.13630    1.000
    C151     C        0.94940    0.87804    0.24690    1.000
    H93      H        0.01190    0.87450    0.26660    1.000
    C152     C        0.90500    0.89185    0.29540    1.000
    C153     C        0.81480    0.89754    0.26640    1.000
    H94      H        0.78450    0.90870    0.29890    1.000
    C154     C        0.76760    0.88713    0.18990    1.000
    H95      H        0.70480    0.88910    0.17120    1.000
    C155     C        0.95350    0.90083    0.37950    1.000
    C156     C        0.60210    0.75505    0.96800    1.000
    C157     C        0.64290    0.71370    0.01140    1.000
    H96      H        0.70370    0.71550    0.04270    1.000
    C158     C        0.59660    0.67043    0.00960    1.000
    H97      H        0.62580    0.64230    0.03860    1.000
    C159     C        0.50640    0.66767    0.96500    1.000
    C160     C        0.46580    0.70882    0.92060    1.000
    H98      H        0.40490    0.70710    0.88950    1.000
    C161     C        0.51250    0.75182    0.92120    1.000
    H99      H        0.48420    0.77930    0.89000    1.000
    C162     C        0.45540    0.62180    0.96760    1.000
    Ca7      Ca       0.95226    0.06795    0.47084    1.000
    Ca8      Ca       0.27871    0.56301    0.94478    1.000
    O40      O        0.06307    0.00613    0.45642    1.000
    H100     H        0.11410    0.01830    0.47620    1.000
    H101     H        0.05450    0.00270    0.40950    1.000
    O41      O        0.85245    0.13516    0.40870    1.000
    O42      O        0.78752    0.08532    0.46482    1.000
    O43      O        0.02382    0.11519    0.39772    1.000
    O44      O        0.93898    0.17927    0.33680    1.000
    H102     H        0.91080    0.16660    0.36200    1.000
    O45      O        0.24076    0.48306    0.98378    1.000
    O46      O        0.38053    0.50475    0.04573    1.000
    O47      O        0.37590    0.50615    0.88663    1.000
    O48      O        0.23427    0.52322    0.82494    1.000
    O49      O        0.97041    0.38262    0.08757    1.000
    O50      O        0.08430    0.42601    0.08407    1.000
    O51      O        0.50263    0.08481    0.49554    1.000
    O52      O        0.62665    0.12321    0.56676    1.000
    C163     C        0.45210    0.22760    0.28950    1.000
    C164     C        0.37740    0.20874    0.30170    1.000
    H103     H        0.38360    0.18030    0.33360    1.000
    C165     C        0.29420    0.23052    0.26840    1.000
    C166     C        0.28660    0.27283    0.22320    1.000
    H104     H        0.23030    0.28790    0.19980    1.000
    C167     C        0.36040    0.29349    0.21160    1.000
    C168     C        0.44240    0.27007    0.24430    1.000
    H105     H        0.49260    0.28340    0.23570    1.000
    C169     C        0.53890    0.20090    0.32360    1.000
    C170     C        0.61840    0.22326    0.32700    1.000
    H106     H        0.61820    0.25620    0.30820    1.000
    C171     C        0.69770    0.19741    0.35770    1.000
    H107     H        0.75110    0.21260    0.35830    1.000
    C172     C        0.70010    0.15001    0.38730    1.000
    C173     C        0.62100    0.12813    0.38400    1.000
    H108     H        0.62130    0.09550    0.40390    1.000
    C174     C        0.54230    0.15315    0.35240    1.000
    H109     H        0.48880    0.13720    0.35030    1.000
    C175     C        0.78480    0.12165    0.42270    1.000
    C176     C        0.21740    0.20985    0.28530    1.000
    C177     C        0.21560    0.15953    0.30450    1.000
    H110     H        0.26080    0.13780    0.30150    1.000
    C178     C        0.14900    0.14078    0.32790    1.000
    H111     H        0.14990    0.10680    0.34290    1.000
    C179     C        0.08050    0.17226    0.32910    1.000
    C180     C        0.07910    0.22205    0.30560    1.000
    H112     H        0.03120    0.24320    0.30420    1.000
    C181     C        0.14730    0.24042    0.28450    1.000
    H113     H        0.14630    0.27430    0.26920    1.000
    C182     C        0.01230    0.15253    0.35790    1.000
    C183     C        0.35040    0.33942    0.16470    1.000
    C184     C        0.27260    0.34833    0.10200    1.000
    H114     H        0.22670    0.32410    0.08820    1.000
    C185     C        0.26180    0.39187    0.06020    1.000
    H115     H        0.20870    0.39740    0.01790    1.000
    C186     C        0.32830    0.42779    0.07960    1.000
    C187     C        0.40680    0.41900    0.14140    1.000
    H116     H        0.45320    0.44290    0.15410    1.000
    C188     C        0.41720    0.37562    0.18390    1.000
    H117     H        0.47010    0.37030    0.22650    1.000
    C189     C        0.31560    0.47415    0.03350    1.000
    C190     C        0.29530    0.37390    0.57650    1.000
    C191     C        0.24140    0.38721    0.50280    1.000
    H118     H        0.20450    0.41580    0.49530    1.000
    C192     C        0.24080    0.35909    0.43930    1.000
    C193     C        0.29340    0.31741    0.45090    1.000
    H119     H        0.29410    0.29870    0.40780    1.000
    C194     C        0.34610    0.30173    0.52470    1.000
    C195     C        0.34730    0.33060    0.58690    1.000
    H120     H        0.38380    0.32090    0.63720    1.000
    C196     C        0.29780    0.40523    0.64240    1.000
    C197     C        0.37640    0.41279    0.70470    1.000
    H121     H        0.42910    0.39680    0.70500    1.000
    C198     C        0.37920    0.44270    0.76550    1.000
    H122     H        0.43320    0.44650    0.80750    1.000
    C199     C        0.30360    0.46739    0.76580    1.000
    C200     C        0.22370    0.45954    0.70390    1.000
    H123     H        0.17110    0.47550    0.70380    1.000
    C201     C        0.22100    0.42937    0.64440    1.000
    H124     H        0.16640    0.42450    0.60340    1.000
    C202     C        0.30410    0.50121    0.82980    1.000
    C203     C        0.18890    0.37392    0.35940    1.000
    C204     C        0.09750    0.36931    0.33060    1.000
    H125     H        0.06680    0.36020    0.36370    1.000
    C205     C        0.05060    0.37804    0.25310    1.000
    H126     H        0.98810    0.37450    0.23340    1.000
    C206     C        0.09500    0.39185    0.20460    1.000
    C207     C        0.18520    0.39754    0.23360    1.000
    H127     H        0.21550    0.40870    0.20110    1.000
    C208     C        0.23240    0.38713    0.31010    1.000
    H128     H        0.29520    0.38910    0.32880    1.000
    C209     C        0.04650    0.40083    0.12050    1.000
    C210     C        0.39790    0.25505    0.53200    1.000
    C211     C        0.35710    0.21370    0.48860    1.000
    H129     H        0.29630    0.21550    0.45730    1.000
    C212     C        0.40340    0.17043    0.49040    1.000
    H130     H        0.37420    0.14230    0.46140    1.000
    C213     C        0.49360    0.16767    0.53500    1.000
    C214     C        0.53420    0.20882    0.57940    1.000
    H131     H        0.59510    0.20710    0.61050    1.000
    C215     C        0.48750    0.25182    0.57880    1.000
    H132     H        0.51580    0.27930    0.61000    1.000
    C216     C        0.54460    0.12180    0.53240    1.000
    Ca9      Ca       0.50000    0.00000    0.50000    1.000
    Ca10     Ca       0.50000    0.50000    0.00000    1.000
