data_functionalizedCrystal
_audit_creation_method	'EQeq! by Chris Wilmer'
_symmetry_space_group_name_H-M	'P1'
_symmetry_Int_Tables_number	1
_symmetry_cell_setting	triclinic
loop_
_symmetry_equiv_pos_as_xyz
  x,y,z
_cell_length_a	46.072
_cell_length_b	35.831
_cell_length_c	28.608
_cell_angle_alpha	90
_cell_angle_beta	90
_cell_angle_gamma	90
loop_
_atom_site_label
_atom_site_type_symbol
_atom_site_fract_x
_atom_site_fract_y
_atom_site_fract_z
_atom_site_charge
Mof_Ce	Ce	0.16935	0.11522	0.23585	2.061
Mof_C 	C 	0.1928	0.14	0.9583	0.019
Mof_C 	C 	0.1923	0.172	0.9322	-0.09
Mof_H 	H 	0.1968	0.1946	0.9464	0.052
Mof_C 	C 	0.1849	0.1715	0.8845	-0.006
Mof_C 	C 	0.1776	0.1376	0.8637	-0.092
Mof_H 	H 	0.1725	0.1368	0.8323	0.049
Mof_C 	C 	0.178	0.105	0.8901	0.023
Mof_C 	C 	0.1859	0.1065	0.936	-0.103
Mof_H 	H 	0.1867	0.0844	0.953	0.068
Mof_C 	C 	0.2011	0.1408	0.0077	0.062
Mof_C 	C 	0.2241	0.1628	0.0231	-0.154
Mof_H 	H 	0.2345	0.1771	0.0017	0.073
Mof_C 	C 	0.2319	0.1637	0.0707	0.092
Mof_H 	H 	0.2475	0.1782	0.0803	0.002
Mof_C 	C 	0.2167	0.1436	0.1028	-0.212
Mof_C 	C 	0.1949	0.1211	0.0888	0.098
Mof_H 	H 	0.1856	0.106	0.1106	-0.027
Mof_C 	C 	0.186	0.12	0.042	-0.161
Mof_H 	H 	0.1701	0.1056	0.0335	0.068
Mof_C 	C 	0.1832	0.2079	0.8573	0.12
Mof_C 	C 	0.2048	0.2331	0.8609	-0.222
Mof_H 	H 	0.2209	0.2285	0.8795	0.095
Mof_C 	C 	0.2022	0.2667	0.8358	0.146
Mof_H 	H 	0.2168	0.2844	0.8388	-0.041
Mof_C 	C 	0.1791	0.2744	0.807	-0.275
Mof_C 	C 	0.1578	0.2487	0.8046	0.156
Mof_H 	H 	0.1413	0.2535	0.7868	-0.043
Mof_C 	C 	0.1603	0.2149	0.8284	-0.222
Mof_H 	H 	0.146	0.1968	0.8245	0.09
Mof_C 	C 	0.1727	0.0677	0.867	0.048
Mof_C 	C 	0.1843	0.0615	0.8232	-0.114
Mof_H 	H 	0.1939	0.0808	0.808	0.063
Mof_C 	C 	0.1819	0.0264	0.8004	0.024
Mof_H 	H 	0.1895	0.0228	0.7706	0.027
Mof_C 	C 	0.1682	0.9977	0.8237	-0.114
Mof_C 	C 	0.1558	0.0052	0.8675	0.028
Mof_H 	H 	0.1455	0.9866	0.8829	0.019
Mof_C 	C 	0.1587	0.0397	0.888	-0.124
Mof_H 	H 	0.1507	0.0437	0.9174	0.07
Mof_C 	C 	0.2248	0.1462	0.1527	0.44
Mof_C 	C 	0.1786	0.3108	0.7814	0.513
Mof_C 	C 	0.1685	0.9596	0.8036	0.323
Mof_C 	C 	0.2236	0.0737	0.3539	-0.184
Mof_C 	C 	0.2502	0.0585	0.3461	0.117
Mof_H 	H 	0.2584	0.0604	0.3165	-0.013
Mof_C 	C 	0.2658	0.0399	0.3816	-0.173
Mof_H 	H 	0.2838	0.0292	0.3756	0.093
Mof_C 	C 	0.2535	0.0381	0.4253	0.093
Mof_C 	C 	0.2266	0.0538	0.4333	-0.168
Mof_H 	H 	0.2184	0.052	0.4629	0.082
Mof_C 	C 	0.2117	0.0718	0.3988	0.095
Mof_H 	H 	0.1938	0.0827	0.405	-0.004
Mof_C 	C 	0.2704	0.0184	0.4641	0.002
Mof_C 	C 	0.2995	0.018	0.4655	-0.061
Mof_H 	H 	0.3098	0.0305	0.4423	0.049
Mof_C 	C 	0.3623	0.0293	0.482	-0.261
Mof_H 	H 	0.3524	0.0495	0.4693	0.107
Mof_C 	C 	0.3909	0.0297	0.4821	0.183
Mof_H 	H 	0.4004	0.0504	0.4699	-0.061
Mof_C 	C 	0.2065	0.0927	0.3163	0.424
Mof_O 	O 	0.2113	0.129	0.185	-0.665
Mof_O 	O 	0.2468	0.1654	0.163	-0.538
Mof_O 	O 	0.1579	0.9332	0.8272	-0.49
Mof_O 	O 	0.1781	0.9542	0.7628	-0.455
Mof_O 	O 	0.1522	0.3243	0.7768	-0.53
Mof_O 	O 	0.1994	0.3272	0.768	-0.756
Mof_O 	O 	0.2209	0.1003	0.2773	-0.615
Mof_O 	O 	0.1806	0.0989	0.3202	-0.501
Mof_O 	O 	0.4533	0.972	0.5169	-0.566
Mof_Ce	Ce	0.66935	0.61522	0.23585	2.062
Mof_C 	C 	0.6928	0.64	0.9583	0.018
Mof_C 	C 	0.6923	0.672	0.9322	-0.088
Mof_H 	H 	0.6968	0.6946	0.9464	0.052
Mof_C 	C 	0.6849	0.6715	0.8845	-0.006
Mof_C 	C 	0.6776	0.6376	0.8637	-0.089
Mof_H 	H 	0.6725	0.6368	0.8323	0.049
Mof_C 	C 	0.678	0.605	0.8901	0.02
Mof_C 	C 	0.6859	0.6065	0.936	-0.099
Mof_H 	H 	0.6867	0.5844	0.953	0.067
Mof_C 	C 	0.7011	0.6408	0.0077	0.063
Mof_C 	C 	0.7241	0.6628	0.0231	-0.154
Mof_H 	H 	0.7345	0.6771	0.0017	0.073
Mof_C 	C 	0.7319	0.6637	0.0707	0.092
Mof_H 	H 	0.7475	0.6782	0.0803	0.001
Mof_C 	C 	0.7167	0.6436	0.1028	-0.212
Mof_C 	C 	0.6949	0.6211	0.0888	0.099
Mof_H 	H 	0.6856	0.606	0.1106	-0.027
Mof_C 	C 	0.686	0.62	0.042	-0.162
Mof_H 	H 	0.6701	0.6056	0.0335	0.068
Mof_C 	C 	0.6832	0.7079	0.8573	0.121
Mof_C 	C 	0.7048	0.7331	0.8609	-0.222
Mof_H 	H 	0.7209	0.7285	0.8795	0.095
Mof_C 	C 	0.7022	0.7667	0.8358	0.146
Mof_H 	H 	0.7168	0.7844	0.8388	-0.041
Mof_C 	C 	0.6791	0.7744	0.807	-0.275
Mof_C 	C 	0.6578	0.7487	0.8046	0.156
Mof_H 	H 	0.6413	0.7535	0.7868	-0.043
Mof_C 	C 	0.6603	0.7149	0.8284	-0.223
Mof_H 	H 	0.646	0.6968	0.8245	0.09
Mof_C 	C 	0.6727	0.5677	0.867	0.055
Mof_C 	C 	0.6843	0.5615	0.8232	-0.121
Mof_H 	H 	0.6939	0.5808	0.808	0.066
Mof_C 	C 	0.6819	0.5264	0.8004	0.033
Mof_H 	H 	0.6895	0.5228	0.7706	0.025
Mof_C 	C 	0.6682	0.4977	0.8237	-0.124
Mof_C 	C 	0.6558	0.5052	0.8675	0.042
Mof_H 	H 	0.6455	0.4866	0.8829	0.013
Mof_C 	C 	0.6587	0.5397	0.888	-0.134
Mof_H 	H 	0.6507	0.5437	0.9174	0.073
Mof_C 	C 	0.7248	0.6462	0.1527	0.44
Mof_C 	C 	0.6786	0.8108	0.7814	0.513
Mof_C 	C 	0.6685	0.4596	0.8036	0.327
Mof_C 	C 	0.7236	0.5737	0.3539	-0.184
Mof_C 	C 	0.7502	0.5585	0.3461	0.118
Mof_H 	H 	0.7584	0.5604	0.3165	-0.013
Mof_C 	C 	0.7658	0.5399	0.3816	-0.173
Mof_H 	H 	0.7838	0.5292	0.3756	0.093
Mof_C 	C 	0.7535	0.5381	0.4253	0.094
Mof_C 	C 	0.7266	0.5538	0.4333	-0.168
Mof_H 	H 	0.7184	0.552	0.4629	0.082
Mof_C 	C 	0.7117	0.5718	0.3988	0.096
Mof_H 	H 	0.6938	0.5827	0.405	-0.003
Mof_C 	C 	0.7704	0.5184	0.4641	0.002
Mof_C 	C 	0.7995	0.518	0.4655	-0.061
Mof_H 	H 	0.8098	0.5305	0.4423	0.049
Mof_C 	C 	0.8623	0.5293	0.482	-0.261
Mof_H 	H 	0.8524	0.5495	0.4693	0.107
Mof_C 	C 	0.8909	0.5297	0.4821	0.183
Mof_H 	H 	0.9004	0.5504	0.4699	-0.061
Mof_C 	C 	0.7065	0.5927	0.3163	0.424
Mof_O 	O 	0.7113	0.629	0.185	-0.665
Mof_O 	O 	0.7468	0.6654	0.163	-0.538
Mof_O 	O 	0.6579	0.4332	0.8272	-0.491
Mof_O 	O 	0.6781	0.4542	0.7628	-0.456
Mof_O 	O 	0.6522	0.8243	0.7768	-0.53
Mof_O 	O 	0.6994	0.8272	0.768	-0.756
Mof_O 	O 	0.7209	0.6003	0.2773	-0.615
Mof_O 	O 	0.6806	0.5989	0.3202	-0.501
Mof_O 	O 	0.9533	0.472	0.5169	-0.566
Mof_Ce	Ce	0.83065	0.38478	0.73585	2.064
Mof_C 	C 	0.8072	0.36	0.4583	0.009
Mof_C 	C 	0.8077	0.328	0.4322	-0.083
Mof_H 	H 	0.8032	0.3054	0.4464	0.049
Mof_C 	C 	0.8151	0.3285	0.3845	-0.01
Mof_C 	C 	0.8224	0.3624	0.3637	-0.086
Mof_H 	H 	0.8275	0.3632	0.3323	0.048
Mof_C 	C 	0.822	0.395	0.3901	0.017
Mof_C 	C 	0.8141	0.3935	0.436	-0.094
Mof_H 	H 	0.8133	0.4156	0.453	0.064
Mof_C 	C 	0.7989	0.3592	0.5077	0.072
Mof_C 	C 	0.7759	0.3372	0.5231	-0.159
Mof_H 	H 	0.7655	0.3229	0.5017	0.077
Mof_C 	C 	0.7681	0.3363	0.5707	0.097
Mof_H 	H 	0.7525	0.3218	0.5803	0
Mof_C 	C 	0.7833	0.3564	0.6028	-0.216
Mof_C 	C 	0.8051	0.3789	0.5888	0.103
Mof_H 	H 	0.8144	0.394	0.6106	-0.029
Mof_C 	C 	0.814	0.38	0.542	-0.167
Mof_H 	H 	0.8299	0.3944	0.5335	0.071
Mof_C 	C 	0.8168	0.2921	0.3573	0.122
Mof_C 	C 	0.7952	0.2669	0.3609	-0.224
Mof_H 	H 	0.7791	0.2715	0.3795	0.095
Mof_C 	C 	0.7978	0.2333	0.3358	0.147
Mof_H 	H 	0.7832	0.2156	0.3388	-0.042
Mof_C 	C 	0.8209	0.2256	0.307	-0.276
Mof_C 	C 	0.8422	0.2513	0.3046	0.157
Mof_H 	H 	0.8587	0.2465	0.2868	-0.043
Mof_C 	C 	0.8397	0.2851	0.3284	-0.224
Mof_H 	H 	0.854	0.3032	0.3245	0.09
Mof_C 	C 	0.8273	0.4323	0.367	0.056
Mof_C 	C 	0.8157	0.4385	0.3232	-0.122
Mof_H 	H 	0.8061	0.4192	0.308	0.066
Mof_C 	C 	0.8181	0.4736	0.3004	0.034
Mof_H 	H 	0.8105	0.4772	0.2706	0.024
Mof_C 	C 	0.8318	0.5023	0.3237	-0.124
Mof_C 	C 	0.8442	0.4948	0.3675	0.042
Mof_H 	H 	0.8545	0.5134	0.3829	0.013
Mof_C 	C 	0.8413	0.4603	0.388	-0.135
Mof_H 	H 	0.8493	0.4563	0.4174	0.073
Mof_C 	C 	0.7752	0.3538	0.6527	0.441
Mof_C 	C 	0.8214	0.1892	0.2814	0.513
Mof_C 	C 	0.8315	0.5404	0.3036	0.327
Mof_C 	C 	0.7764	0.4263	0.8539	-0.184
Mof_C 	C 	0.7498	0.4415	0.8461	0.117
Mof_H 	H 	0.7416	0.4396	0.8165	-0.013
Mof_C 	C 	0.7342	0.4601	0.8816	-0.173
Mof_H 	H 	0.7162	0.4708	0.8756	0.093
Mof_C 	C 	0.7465	0.4619	0.9253	0.093
Mof_C 	C 	0.7734	0.4462	0.9333	-0.167
Mof_H 	H 	0.7816	0.448	0.9629	0.083
Mof_C 	C 	0.7883	0.4282	0.8988	0.095
Mof_H 	H 	0.8062	0.4173	0.905	-0.003
Mof_C 	C 	0.7296	0.4816	0.9641	0.006
Mof_C 	C 	0.7005	0.482	0.9655	-0.058
Mof_H 	H 	0.6902	0.4695	0.9423	0.049
Mof_C 	C 	0.6377	0.4707	0.982	-0.256
Mof_H 	H 	0.6476	0.4505	0.9693	0.106
Mof_C 	C 	0.6091	0.4703	0.9821	0.186
Mof_H 	H 	0.5996	0.4496	0.9699	-0.062
Mof_C 	C 	0.7935	0.4073	0.8163	0.424
Mof_O 	O 	0.7887	0.371	0.685	-0.665
Mof_O 	O 	0.7532	0.3346	0.663	-0.538
Mof_O 	O 	0.8421	0.5668	0.3272	-0.491
Mof_O 	O 	0.8219	0.5458	0.2628	-0.456
Mof_O 	O 	0.8478	0.1757	0.2768	-0.53
Mof_O 	O 	0.8006	0.1728	0.268	-0.756
Mof_O 	O 	0.7791	0.3997	0.7773	-0.615
Mof_O 	O 	0.8194	0.4011	0.8202	-0.501
Mof_O 	O 	0.5467	0.528	0.0169	-0.567
Mof_Ce	Ce	0.33065	0.88478	0.73585	2.063
Mof_C 	C 	0.3072	0.86	0.4583	0.008
Mof_C 	C 	0.3077	0.828	0.4322	-0.082
Mof_H 	H 	0.3032	0.8054	0.4464	0.049
Mof_C 	C 	0.3151	0.8285	0.3845	-0.011
Mof_C 	C 	0.3224	0.8624	0.3637	-0.084
Mof_H 	H 	0.3275	0.8632	0.3323	0.047
Mof_C 	C 	0.322	0.895	0.3901	0.014
Mof_C 	C 	0.3141	0.8935	0.436	-0.092
Mof_H 	H 	0.3133	0.9156	0.453	0.063
Mof_C 	C 	0.2989	0.8592	0.5077	0.073
Mof_C 	C 	0.2759	0.8372	0.5231	-0.16
Mof_H 	H 	0.2655	0.8229	0.5017	0.077
Mof_C 	C 	0.2681	0.8363	0.5707	0.097
Mof_H 	H 	0.2525	0.8218	0.5803	0
Mof_C 	C 	0.2833	0.8564	0.6028	-0.216
Mof_C 	C 	0.3051	0.8789	0.5888	0.103
Mof_H 	H 	0.3144	0.894	0.6106	-0.029
Mof_C 	C 	0.314	0.88	0.542	-0.167
Mof_H 	H 	0.3299	0.8944	0.5335	0.071
Mof_C 	C 	0.3168	0.7921	0.3573	0.123
Mof_C 	C 	0.2952	0.7669	0.3609	-0.224
Mof_H 	H 	0.2791	0.7715	0.3795	0.096
Mof_C 	C 	0.2978	0.7333	0.3358	0.147
Mof_H 	H 	0.2832	0.7156	0.3388	-0.042
Mof_C 	C 	0.3209	0.7256	0.307	-0.276
Mof_C 	C 	0.3422	0.7513	0.3046	0.158
Mof_H 	H 	0.3587	0.7465	0.2868	-0.043
Mof_C 	C 	0.3397	0.7851	0.3284	-0.224
Mof_H 	H 	0.354	0.8032	0.3245	0.09
Mof_C 	C 	0.3273	0.9323	0.367	0.063
Mof_C 	C 	0.3157	0.9385	0.3232	-0.129
Mof_H 	H 	0.3061	0.9192	0.308	0.068
Mof_C 	C 	0.3181	0.9736	0.3004	0.044
Mof_H 	H 	0.3105	0.9772	0.2706	0.022
Mof_C 	C 	0.3318	0.0023	0.3237	-0.135
Mof_C 	C 	0.3442	0.9948	0.3675	0.056
Mof_H 	H 	0.3545	0.0134	0.3829	0.007
Mof_C 	C 	0.3413	0.9603	0.388	-0.145
Mof_H 	H 	0.3493	0.9563	0.4174	0.076
Mof_C 	C 	0.2752	0.8538	0.6527	0.441
Mof_C 	C 	0.3214	0.6892	0.2814	0.514
Mof_C 	C 	0.3315	0.0404	0.3036	0.33
Mof_C 	C 	0.2764	0.9263	0.8539	-0.184
Mof_C 	C 	0.2498	0.9415	0.8461	0.117
Mof_H 	H 	0.2416	0.9396	0.8165	-0.013
Mof_C 	C 	0.2342	0.9601	0.8816	-0.172
Mof_H 	H 	0.2162	0.9708	0.8756	0.093
Mof_C 	C 	0.2465	0.9619	0.9253	0.093
Mof_C 	C 	0.2734	0.9462	0.9333	-0.167
Mof_H 	H 	0.2816	0.948	0.9629	0.083
Mof_C 	C 	0.2883	0.9282	0.8988	0.095
Mof_H 	H 	0.3062	0.9173	0.905	-0.003
Mof_C 	C 	0.2296	0.9816	0.9641	0.007
Mof_C 	C 	0.2005	0.982	0.9655	-0.056
Mof_H 	H 	0.1902	0.9695	0.9423	0.048
Mof_C 	C 	0.1377	0.9707	0.982	-0.255
Mof_H 	H 	0.1476	0.9505	0.9693	0.105
Mof_C 	C 	0.1091	0.9703	0.9821	0.187
Mof_H 	H 	0.0996	0.9496	0.9699	-0.062
Mof_C 	C 	0.2935	0.9073	0.8163	0.424
Mof_O 	O 	0.2887	0.871	0.685	-0.665
Mof_O 	O 	0.2532	0.8346	0.663	-0.538
Mof_O 	O 	0.3421	0.0668	0.3272	-0.492
Mof_O 	O 	0.3219	0.0458	0.2628	-0.457
Mof_O 	O 	0.3478	0.6757	0.2768	-0.53
Mof_O 	O 	0.3006	0.6728	0.268	-0.756
Mof_O 	O 	0.2791	0.8997	0.7773	-0.615
Mof_O 	O 	0.3194	0.9011	0.8202	-0.501
Mof_O 	O 	0.0467	0.028	0.0169	-0.566
Mof_Ce	Ce	0.83065	0.61522	0.26415	2.063
Mof_C 	C 	0.8072	0.64	0.5417	0.009
Mof_C 	C 	0.8077	0.672	0.5678	-0.083
Mof_H 	H 	0.8032	0.6946	0.5536	0.049
Mof_C 	C 	0.8151	0.6715	0.6155	-0.009
Mof_C 	C 	0.8224	0.6376	0.6363	-0.086
Mof_H 	H 	0.8275	0.6368	0.6677	0.049
Mof_C 	C 	0.822	0.605	0.6099	0.017
Mof_C 	C 	0.8141	0.6065	0.564	-0.094
Mof_H 	H 	0.8133	0.5844	0.547	0.064
Mof_C 	C 	0.7989	0.6408	0.4923	0.072
Mof_C 	C 	0.7759	0.6628	0.4769	-0.159
Mof_H 	H 	0.7655	0.6771	0.4983	0.077
Mof_C 	C 	0.7681	0.6637	0.4293	0.097
Mof_H 	H 	0.7525	0.6782	0.4197	0
Mof_C 	C 	0.7833	0.6436	0.3972	-0.216
Mof_C 	C 	0.8051	0.6211	0.4112	0.103
Mof_H 	H 	0.8144	0.606	0.3894	-0.029
Mof_C 	C 	0.814	0.62	0.458	-0.167
Mof_H 	H 	0.8299	0.6056	0.4665	0.071
Mof_C 	C 	0.8168	0.7079	0.6427	0.122
Mof_C 	C 	0.7952	0.7331	0.6391	-0.224
Mof_H 	H 	0.7791	0.7285	0.6205	0.095
Mof_C 	C 	0.7978	0.7667	0.6642	0.147
Mof_H 	H 	0.7832	0.7844	0.6612	-0.042
Mof_C 	C 	0.8209	0.7744	0.693	-0.275
Mof_C 	C 	0.8422	0.7487	0.6954	0.157
Mof_H 	H 	0.8587	0.7535	0.7132	-0.043
Mof_C 	C 	0.8397	0.7149	0.6716	-0.224
Mof_H 	H 	0.854	0.6968	0.6755	0.09
Mof_C 	C 	0.8273	0.5677	0.633	0.056
Mof_C 	C 	0.8157	0.5615	0.6768	-0.122
Mof_H 	H 	0.8061	0.5808	0.692	0.066
Mof_C 	C 	0.8181	0.5264	0.6996	0.034
Mof_H 	H 	0.8105	0.5228	0.7294	0.025
Mof_C 	C 	0.8318	0.4977	0.6763	-0.124
Mof_C 	C 	0.8442	0.5052	0.6325	0.042
Mof_H 	H 	0.8545	0.4866	0.6171	0.013
Mof_C 	C 	0.8413	0.5397	0.612	-0.134
Mof_H 	H 	0.8493	0.5437	0.5826	0.073
Mof_C 	C 	0.7752	0.6462	0.3473	0.441
Mof_C 	C 	0.8214	0.8108	0.7186	0.514
Mof_C 	C 	0.8315	0.4596	0.6964	0.327
Mof_C 	C 	0.7764	0.5737	0.1461	-0.184
Mof_C 	C 	0.7498	0.5585	0.1539	0.117
Mof_H 	H 	0.7416	0.5604	0.1835	-0.013
Mof_C 	C 	0.7342	0.5399	0.1184	-0.173
Mof_H 	H 	0.7162	0.5292	0.1244	0.093
Mof_C 	C 	0.7465	0.5381	0.0747	0.093
Mof_C 	C 	0.7734	0.5538	0.0667	-0.168
Mof_H 	H 	0.7816	0.552	0.0371	0.081
Mof_C 	C 	0.7883	0.5718	0.1012	0.095
Mof_H 	H 	0.8062	0.5827	0.095	-0.004
Mof_C 	C 	0.7296	0.5184	0.0359	0.003
Mof_C 	C 	0.7005	0.518	0.0345	-0.062
Mof_H 	H 	0.6902	0.5305	0.0577	0.049
Mof_C 	C 	0.6377	0.5293	0.018	-0.26
Mof_H 	H 	0.6476	0.5495	0.0307	0.106
Mof_C 	C 	0.6091	0.5297	0.0179	0.183
Mof_H 	H 	0.5996	0.5504	0.0301	-0.061
Mof_C 	C 	0.7935	0.5927	0.1837	0.424
Mof_O 	O 	0.7887	0.629	0.315	-0.665
Mof_O 	O 	0.7532	0.6654	0.337	-0.538
Mof_O 	O 	0.8421	0.4332	0.6728	-0.491
Mof_O 	O 	0.8219	0.4542	0.7372	-0.456
Mof_O 	O 	0.8478	0.8243	0.7232	-0.53
Mof_O 	O 	0.8006	0.8272	0.732	-0.756
Mof_O 	O 	0.7791	0.6003	0.2227	-0.615
Mof_O 	O 	0.8194	0.5989	0.1798	-0.501
Mof_O 	O 	0.5467	0.472	0.9831	-0.564
Mof_Ce	Ce	0.33065	0.11522	0.26415	2.062
Mof_C 	C 	0.3072	0.14	0.5417	0.011
Mof_C 	C 	0.3077	0.172	0.5678	-0.084
Mof_H 	H 	0.3032	0.1946	0.5536	0.05
Mof_C 	C 	0.3151	0.1715	0.6155	-0.008
Mof_C 	C 	0.3224	0.1376	0.6363	-0.088
Mof_H 	H 	0.3275	0.1368	0.6677	0.049
Mof_C 	C 	0.322	0.105	0.6099	0.02
Mof_C 	C 	0.3141	0.1065	0.564	-0.097
Mof_H 	H 	0.3133	0.0844	0.547	0.064
Mof_C 	C 	0.2989	0.1408	0.4923	0.071
Mof_C 	C 	0.2759	0.1628	0.4769	-0.159
Mof_H 	H 	0.2655	0.1771	0.4983	0.076
Mof_C 	C 	0.2681	0.1637	0.4293	0.096
Mof_H 	H 	0.2525	0.1782	0.4197	0
Mof_C 	C 	0.2833	0.1436	0.3972	-0.215
Mof_C 	C 	0.3051	0.1211	0.4112	0.103
Mof_H 	H 	0.3144	0.106	0.3894	-0.028
Mof_C 	C 	0.314	0.12	0.458	-0.166
Mof_H 	H 	0.3299	0.1056	0.4665	0.07
Mof_C 	C 	0.3168	0.2079	0.6427	0.122
Mof_C 	C 	0.2952	0.2331	0.6391	-0.223
Mof_H 	H 	0.2791	0.2285	0.6205	0.095
Mof_C 	C 	0.2978	0.2667	0.6642	0.146
Mof_H 	H 	0.2832	0.2844	0.6612	-0.041
Mof_C 	C 	0.3209	0.2744	0.693	-0.275
Mof_C 	C 	0.3422	0.2487	0.6954	0.157
Mof_H 	H 	0.3587	0.2535	0.7132	-0.043
Mof_C 	C 	0.3397	0.2149	0.6716	-0.223
Mof_H 	H 	0.354	0.1968	0.6755	0.09
Mof_C 	C 	0.3273	0.0677	0.633	0.049
Mof_C 	C 	0.3157	0.0615	0.6768	-0.115
Mof_H 	H 	0.3061	0.0808	0.692	0.063
Mof_C 	C 	0.3181	0.0264	0.6996	0.024
Mof_H 	H 	0.3105	0.0228	0.7294	0.027
Mof_C 	C 	0.3318	0.9977	0.6763	-0.114
Mof_C 	C 	0.3442	0.0052	0.6325	0.028
Mof_H 	H 	0.3545	0.9866	0.6171	0.018
Mof_C 	C 	0.3413	0.0397	0.612	-0.125
Mof_H 	H 	0.3493	0.0437	0.5826	0.069
Mof_C 	C 	0.2752	0.1462	0.3473	0.441
Mof_C 	C 	0.3214	0.3108	0.7186	0.513
Mof_C 	C 	0.3315	0.9596	0.6964	0.323
Mof_C 	C 	0.2764	0.0737	0.1461	-0.184
Mof_C 	C 	0.2498	0.0585	0.1539	0.117
Mof_H 	H 	0.2416	0.0604	0.1835	-0.013
Mof_C 	C 	0.2342	0.0399	0.1184	-0.173
Mof_H 	H 	0.2162	0.0292	0.1244	0.093
Mof_C 	C 	0.2465	0.0381	0.0747	0.092
Mof_C 	C 	0.2734	0.0538	0.0667	-0.168
Mof_H 	H 	0.2816	0.052	0.0371	0.081
Mof_C 	C 	0.2883	0.0718	0.1012	0.095
Mof_H 	H 	0.3062	0.0827	0.095	-0.004
Mof_C 	C 	0.2296	0.0184	0.0359	0.003
Mof_C 	C 	0.2005	0.018	0.0345	-0.062
Mof_H 	H 	0.1902	0.0305	0.0577	0.049
Mof_C 	C 	0.1377	0.0293	0.018	-0.26
Mof_H 	H 	0.1476	0.0495	0.0307	0.106
Mof_C 	C 	0.1091	0.0297	0.0179	0.182
Mof_H 	H 	0.0996	0.0504	0.0301	-0.061
Mof_C 	C 	0.2935	0.0927	0.1837	0.424
Mof_O 	O 	0.2887	0.129	0.315	-0.665
Mof_O 	O 	0.2532	0.1654	0.337	-0.538
Mof_O 	O 	0.3421	0.9332	0.6728	-0.49
Mof_O 	O 	0.3219	0.9542	0.7372	-0.455
Mof_O 	O 	0.3478	0.3243	0.7232	-0.53
Mof_O 	O 	0.3006	0.3272	0.732	-0.756
Mof_O 	O 	0.2791	0.1003	0.2227	-0.615
Mof_O 	O 	0.3194	0.0989	0.1798	-0.502
Mof_O 	O 	0.0467	0.972	0.9831	-0.562
Mof_Ce	Ce	0.16935	0.88478	0.76415	2.063
Mof_C 	C 	0.1928	0.86	0.0417	-0.001
Mof_C 	C 	0.1923	0.828	0.0678	-0.077
Mof_H 	H 	0.1968	0.8054	0.0536	0.046
Mof_C 	C 	0.1849	0.8285	0.1155	-0.014
Mof_C 	C 	0.1776	0.8624	0.1363	-0.081
Mof_H 	H 	0.1725	0.8632	0.1677	0.046
Mof_C 	C 	0.178	0.895	0.1099	0.01
Mof_C 	C 	0.1859	0.8935	0.064	-0.087
Mof_H 	H 	0.1867	0.9156	0.047	0.06
Mof_C 	C 	0.2011	0.8592	0.9923	0.081
Mof_C 	C 	0.2241	0.8372	0.9769	-0.165
Mof_H 	H 	0.2345	0.8229	0.9983	0.08
Mof_C 	C 	0.2319	0.8363	0.9293	0.101
Mof_H 	H 	0.2475	0.8218	0.9197	-0.001
Mof_C 	C 	0.2167	0.8564	0.8972	-0.219
Mof_C 	C 	0.1949	0.8789	0.9112	0.108
Mof_H 	H 	0.1856	0.894	0.8894	-0.03
Mof_C 	C 	0.186	0.88	0.958	-0.173
Mof_H 	H 	0.1701	0.8944	0.9665	0.074
Mof_C 	C 	0.1832	0.7921	0.1427	0.125
Mof_C 	C 	0.2048	0.7669	0.1391	-0.225
Mof_H 	H 	0.2209	0.7715	0.1205	0.096
Mof_C 	C 	0.2022	0.7333	0.1642	0.148
Mof_H 	H 	0.2168	0.7156	0.1612	-0.042
Mof_C 	C 	0.1791	0.7256	0.193	-0.277
Mof_C 	C 	0.1578	0.7513	0.1954	0.158
Mof_H 	H 	0.1413	0.7465	0.2132	-0.044
Mof_C 	C 	0.1603	0.7851	0.1716	-0.226
Mof_H 	H 	0.146	0.8032	0.1755	0.091
Mof_C 	C 	0.1727	0.9323	0.133	0.065
Mof_C 	C 	0.1843	0.9385	0.1768	-0.13
Mof_H 	H 	0.1939	0.9192	0.192	0.069
Mof_C 	C 	0.1819	0.9736	0.1996	0.044
Mof_H 	H 	0.1895	0.9772	0.2294	0.022
Mof_C 	C 	0.1682	0.0023	0.1763	-0.136
Mof_C 	C 	0.1558	0.9948	0.1325	0.057
Mof_H 	H 	0.1455	0.0134	0.1171	0.006
Mof_C 	C 	0.1587	0.9603	0.112	-0.146
Mof_H 	H 	0.1507	0.9563	0.0826	0.076
Mof_C 	C 	0.2248	0.8538	0.8473	0.442
Mof_C 	C 	0.1786	0.6892	0.2186	0.514
Mof_C 	C 	0.1685	0.0404	0.1964	0.331
Mof_C 	C 	0.2236	0.9263	0.6461	-0.184
Mof_C 	C 	0.2502	0.9415	0.6539	0.118
Mof_H 	H 	0.2584	0.9396	0.6835	-0.013
Mof_C 	C 	0.2658	0.9601	0.6184	-0.173
Mof_H 	H 	0.2838	0.9708	0.6244	0.094
Mof_C 	C 	0.2535	0.9619	0.5747	0.094
Mof_C 	C 	0.2266	0.9462	0.5667	-0.168
Mof_H 	H 	0.2184	0.948	0.5371	0.082
Mof_C 	C 	0.2117	0.9282	0.6012	0.095
Mof_H 	H 	0.1938	0.9173	0.595	-0.003
Mof_C 	C 	0.2704	0.9816	0.5359	0.003
Mof_C 	C 	0.2995	0.982	0.5345	-0.059
Mof_H 	H 	0.3098	0.9695	0.5577	0.049
Mof_C 	C 	0.3623	0.9707	0.518	-0.259
Mof_H 	H 	0.3524	0.9505	0.5307	0.106
Mof_C 	C 	0.3909	0.9703	0.5179	0.185
Mof_H 	H 	0.4004	0.9496	0.5301	-0.062
Mof_C 	C 	0.2065	0.9073	0.6837	0.424
Mof_O 	O 	0.2113	0.871	0.815	-0.666
Mof_O 	O 	0.2468	0.8346	0.837	-0.538
Mof_O 	O 	0.1579	0.0668	0.1728	-0.492
Mof_O 	O 	0.1781	0.0458	0.2372	-0.457
Mof_O 	O 	0.1522	0.6757	0.2232	-0.531
Mof_O 	O 	0.1994	0.6728	0.232	-0.756
Mof_O 	O 	0.2209	0.8997	0.7227	-0.615
Mof_O 	O 	0.1806	0.9011	0.6798	-0.501
Mof_O 	O 	0.4533	0.028	0.4831	-0.567
Mof_Ce	Ce	0.66935	0.38478	0.76415	2.063
Mof_C 	C 	0.6928	0.36	0.0417	0
Mof_C 	C 	0.6923	0.328	0.0678	-0.078
Mof_H 	H 	0.6968	0.3054	0.0536	0.046
Mof_C 	C 	0.6849	0.3285	0.1155	-0.013
Mof_C 	C 	0.6776	0.3624	0.1363	-0.083
Mof_H 	H 	0.6725	0.3632	0.1677	0.047
Mof_C 	C 	0.678	0.395	0.1099	0.014
Mof_C 	C 	0.6859	0.3935	0.064	-0.089
Mof_H 	H 	0.6867	0.4156	0.047	0.061
Mof_C 	C 	0.7011	0.3592	0.9923	0.081
Mof_C 	C 	0.7241	0.3372	0.9769	-0.165
Mof_H 	H 	0.7345	0.3229	0.9983	0.08
Mof_C 	C 	0.7319	0.3363	0.9293	0.101
Mof_H 	H 	0.7475	0.3218	0.9197	-0.001
Mof_C 	C 	0.7167	0.3564	0.8972	-0.219
Mof_C 	C 	0.6949	0.3789	0.9112	0.107
Mof_H 	H 	0.6856	0.394	0.8894	-0.03
Mof_C 	C 	0.686	0.38	0.958	-0.172
Mof_H 	H 	0.6701	0.3944	0.9665	0.073
Mof_C 	C 	0.6832	0.2921	0.1427	0.124
Mof_C 	C 	0.7048	0.2669	0.1391	-0.225
Mof_H 	H 	0.7209	0.2715	0.1205	0.096
Mof_C 	C 	0.7022	0.2333	0.1642	0.147
Mof_H 	H 	0.7168	0.2156	0.1612	-0.042
Mof_C 	C 	0.6791	0.2256	0.193	-0.276
Mof_C 	C 	0.6578	0.2513	0.1954	0.158
Mof_H 	H 	0.6413	0.2465	0.2132	-0.043
Mof_C 	C 	0.6603	0.2851	0.1716	-0.225
Mof_H 	H 	0.646	0.3032	0.1755	0.09
Mof_C 	C 	0.6727	0.4323	0.133	0.058
Mof_C 	C 	0.6843	0.4385	0.1768	-0.123
Mof_H 	H 	0.6939	0.4192	0.192	0.066
Mof_C 	C 	0.6819	0.4736	0.1996	0.034
Mof_H 	H 	0.6895	0.4772	0.2294	0.024
Mof_C 	C 	0.6682	0.5023	0.1763	-0.125
Mof_C 	C 	0.6558	0.4948	0.1325	0.043
Mof_H 	H 	0.6455	0.5134	0.1171	0.012
Mof_C 	C 	0.6587	0.4603	0.112	-0.136
Mof_H 	H 	0.6507	0.4563	0.0826	0.072
Mof_C 	C 	0.7248	0.3538	0.8473	0.442
Mof_C 	C 	0.6786	0.1892	0.2186	0.514
Mof_C 	C 	0.6685	0.5404	0.1964	0.327
Mof_C 	C 	0.7236	0.4263	0.6461	-0.184
Mof_C 	C 	0.7502	0.4415	0.6539	0.118
Mof_H 	H 	0.7584	0.4396	0.6835	-0.013
Mof_C 	C 	0.7658	0.4601	0.6184	-0.173
Mof_H 	H 	0.7838	0.4708	0.6244	0.093
Mof_C 	C 	0.7535	0.4619	0.5747	0.094
Mof_C 	C 	0.7266	0.4462	0.5667	-0.168
Mof_H 	H 	0.7184	0.448	0.5371	0.082
Mof_C 	C 	0.7117	0.4282	0.6012	0.096
Mof_H 	H 	0.6938	0.4173	0.595	-0.003
Mof_C 	C 	0.7704	0.4816	0.5359	0.002
Mof_C 	C 	0.7995	0.482	0.5345	-0.061
Mof_H 	H 	0.8098	0.4695	0.5577	0.049
Mof_C 	C 	0.8623	0.4707	0.518	-0.261
Mof_H 	H 	0.8524	0.4505	0.5307	0.107
Mof_C 	C 	0.8909	0.4703	0.5179	0.183
Mof_H 	H 	0.9004	0.4496	0.5301	-0.061
Mof_C 	C 	0.7065	0.4073	0.6837	0.424
Mof_O 	O 	0.7113	0.371	0.815	-0.666
Mof_O 	O 	0.7468	0.3346	0.837	-0.538
Mof_O 	O 	0.6579	0.5668	0.1728	-0.491
Mof_O 	O 	0.6781	0.5458	0.2372	-0.456
Mof_O 	O 	0.6522	0.1757	0.2232	-0.531
Mof_O 	O 	0.6994	0.1728	0.232	-0.756
Mof_O 	O 	0.7209	0.3997	0.7227	-0.615
Mof_O 	O 	0.6806	0.4011	0.6798	-0.501
Mof_O 	O 	0.9533	0.528	0.4831	-0.566
Mof_Ce	Ce	0.83065	0.88478	0.76415	2.064
Mof_C 	C 	0.8072	0.86	0.0417	-0.001
Mof_C 	C 	0.8077	0.828	0.0678	-0.077
Mof_H 	H 	0.8032	0.8054	0.0536	0.046
Mof_C 	C 	0.8151	0.8285	0.1155	-0.014
Mof_C 	C 	0.8224	0.8624	0.1363	-0.081
Mof_H 	H 	0.8275	0.8632	0.1677	0.047
Mof_C 	C 	0.822	0.895	0.1099	0.01
Mof_C 	C 	0.8141	0.8935	0.064	-0.087
Mof_H 	H 	0.8133	0.9156	0.047	0.06
Mof_C 	C 	0.7989	0.8592	0.9923	0.081
Mof_C 	C 	0.7759	0.8372	0.9769	-0.165
Mof_H 	H 	0.7655	0.8229	0.9983	0.08
Mof_C 	C 	0.7681	0.8363	0.9293	0.101
Mof_H 	H 	0.7525	0.8218	0.9197	-0.001
Mof_C 	C 	0.7833	0.8564	0.8972	-0.219
Mof_C 	C 	0.8051	0.8789	0.9112	0.108
Mof_H 	H 	0.8144	0.894	0.8894	-0.03
Mof_C 	C 	0.814	0.88	0.958	-0.173
Mof_H 	H 	0.8299	0.8944	0.9665	0.074
Mof_C 	C 	0.8168	0.7921	0.1427	0.125
Mof_C 	C 	0.7952	0.7669	0.1391	-0.225
Mof_H 	H 	0.7791	0.7715	0.1205	0.096
Mof_C 	C 	0.7978	0.7333	0.1642	0.148
Mof_H 	H 	0.7832	0.7156	0.1612	-0.042
Mof_C 	C 	0.8209	0.7256	0.193	-0.276
Mof_C 	C 	0.8422	0.7513	0.1954	0.158
Mof_H 	H 	0.8587	0.7465	0.2132	-0.043
Mof_C 	C 	0.8397	0.7851	0.1716	-0.226
Mof_H 	H 	0.854	0.8032	0.1755	0.091
Mof_C 	C 	0.8273	0.9323	0.133	0.065
Mof_C 	C 	0.8157	0.9385	0.1768	-0.13
Mof_H 	H 	0.8061	0.9192	0.192	0.069
Mof_C 	C 	0.8181	0.9736	0.1996	0.044
Mof_H 	H 	0.8105	0.9772	0.2294	0.022
Mof_C 	C 	0.8318	0.0023	0.1763	-0.136
Mof_C 	C 	0.8442	0.9948	0.1325	0.057
Mof_H 	H 	0.8545	0.0134	0.1171	0.007
Mof_C 	C 	0.8413	0.9603	0.112	-0.145
Mof_H 	H 	0.8493	0.9563	0.0826	0.076
Mof_C 	C 	0.7752	0.8538	0.8473	0.442
Mof_C 	C 	0.8214	0.6892	0.2186	0.514
Mof_C 	C 	0.8315	0.0404	0.1964	0.331
Mof_C 	C 	0.7764	0.9263	0.6461	-0.184
Mof_C 	C 	0.7498	0.9415	0.6539	0.118
Mof_H 	H 	0.7416	0.9396	0.6835	-0.013
Mof_C 	C 	0.7342	0.9601	0.6184	-0.173
Mof_H 	H 	0.7162	0.9708	0.6244	0.094
Mof_C 	C 	0.7465	0.9619	0.5747	0.094
Mof_C 	C 	0.7734	0.9462	0.5667	-0.168
Mof_H 	H 	0.7816	0.948	0.5371	0.082
Mof_C 	C 	0.7883	0.9282	0.6012	0.095
Mof_H 	H 	0.8062	0.9173	0.595	-0.003
Mof_C 	C 	0.7296	0.9816	0.5359	0.004
Mof_C 	C 	0.7005	0.982	0.5345	-0.06
Mof_H 	H 	0.6902	0.9695	0.5577	0.049
Mof_C 	C 	0.6377	0.9707	0.518	-0.259
Mof_H 	H 	0.6476	0.9505	0.5307	0.106
Mof_C 	C 	0.6091	0.9703	0.5179	0.185
Mof_H 	H 	0.5996	0.9496	0.5301	-0.062
Mof_C 	C 	0.7935	0.9073	0.6837	0.424
Mof_O 	O 	0.7887	0.871	0.815	-0.666
Mof_O 	O 	0.7532	0.8346	0.837	-0.538
Mof_O 	O 	0.8421	0.0668	0.1728	-0.492
Mof_O 	O 	0.8219	0.0458	0.2372	-0.457
Mof_O 	O 	0.8478	0.6757	0.2232	-0.53
Mof_O 	O 	0.8006	0.6728	0.232	-0.756
Mof_O 	O 	0.7791	0.8997	0.7227	-0.615
Mof_O 	O 	0.8194	0.9011	0.6798	-0.501
Mof_O 	O 	0.5467	0.028	0.4831	-0.567
Mof_Ce	Ce	0.33065	0.38478	0.76415	2.063
Mof_C 	C 	0.3072	0.36	0.0417	0
Mof_C 	C 	0.3077	0.328	0.0678	-0.078
Mof_H 	H 	0.3032	0.3054	0.0536	0.046
Mof_C 	C 	0.3151	0.3285	0.1155	-0.013
Mof_C 	C 	0.3224	0.3624	0.1363	-0.083
Mof_H 	H 	0.3275	0.3632	0.1677	0.047
Mof_C 	C 	0.322	0.395	0.1099	0.014
Mof_C 	C 	0.3141	0.3935	0.064	-0.089
Mof_H 	H 	0.3133	0.4156	0.047	0.061
Mof_C 	C 	0.2989	0.3592	0.9923	0.081
Mof_C 	C 	0.2759	0.3372	0.9769	-0.165
Mof_H 	H 	0.2655	0.3229	0.9983	0.08
Mof_C 	C 	0.2681	0.3363	0.9293	0.101
Mof_H 	H 	0.2525	0.3218	0.9197	-0.001
Mof_C 	C 	0.2833	0.3564	0.8972	-0.219
Mof_C 	C 	0.3051	0.3789	0.9112	0.107
Mof_H 	H 	0.3144	0.394	0.8894	-0.03
Mof_C 	C 	0.314	0.38	0.958	-0.172
Mof_H 	H 	0.3299	0.3944	0.9665	0.073
Mof_C 	C 	0.3168	0.2921	0.1427	0.124
Mof_C 	C 	0.2952	0.2669	0.1391	-0.225
Mof_H 	H 	0.2791	0.2715	0.1205	0.095
Mof_C 	C 	0.2978	0.2333	0.1642	0.147
Mof_H 	H 	0.2832	0.2156	0.1612	-0.042
Mof_C 	C 	0.3209	0.2256	0.193	-0.276
Mof_C 	C 	0.3422	0.2513	0.1954	0.158
Mof_H 	H 	0.3587	0.2465	0.2132	-0.043
Mof_C 	C 	0.3397	0.2851	0.1716	-0.225
Mof_H 	H 	0.354	0.3032	0.1755	0.09
Mof_C 	C 	0.3273	0.4323	0.133	0.058
Mof_C 	C 	0.3157	0.4385	0.1768	-0.123
Mof_H 	H 	0.3061	0.4192	0.192	0.066
Mof_C 	C 	0.3181	0.4736	0.1996	0.034
Mof_H 	H 	0.3105	0.4772	0.2294	0.024
Mof_C 	C 	0.3318	0.5023	0.1763	-0.125
Mof_C 	C 	0.3442	0.4948	0.1325	0.043
Mof_H 	H 	0.3545	0.5134	0.1171	0.012
Mof_C 	C 	0.3413	0.4603	0.112	-0.136
Mof_H 	H 	0.3493	0.4563	0.0826	0.072
Mof_C 	C 	0.2752	0.3538	0.8473	0.442
Mof_C 	C 	0.3214	0.1892	0.2186	0.514
Mof_C 	C 	0.3315	0.5404	0.1964	0.327
Mof_C 	C 	0.2764	0.4263	0.6461	-0.184
Mof_C 	C 	0.2498	0.4415	0.6539	0.118
Mof_H 	H 	0.2416	0.4396	0.6835	-0.013
Mof_C 	C 	0.2342	0.4601	0.6184	-0.173
Mof_H 	H 	0.2162	0.4708	0.6244	0.093
Mof_C 	C 	0.2465	0.4619	0.5747	0.094
Mof_C 	C 	0.2734	0.4462	0.5667	-0.168
Mof_H 	H 	0.2816	0.448	0.5371	0.082
Mof_C 	C 	0.2883	0.4282	0.6012	0.096
Mof_H 	H 	0.3062	0.4173	0.595	-0.003
Mof_C 	C 	0.2296	0.4816	0.5359	0.002
Mof_C 	C 	0.2005	0.482	0.5345	-0.061
Mof_H 	H 	0.1902	0.4695	0.5577	0.049
Mof_C 	C 	0.1377	0.4707	0.518	-0.261
Mof_H 	H 	0.1476	0.4505	0.5307	0.107
Mof_C 	C 	0.1091	0.4703	0.5179	0.184
Mof_H 	H 	0.0996	0.4496	0.5301	-0.061
Mof_C 	C 	0.2935	0.4073	0.6837	0.424
Mof_O 	O 	0.2887	0.371	0.815	-0.666
Mof_O 	O 	0.2532	0.3346	0.837	-0.538
Mof_O 	O 	0.3421	0.5668	0.1728	-0.491
Mof_O 	O 	0.3219	0.5458	0.2372	-0.456
Mof_O 	O 	0.3478	0.1757	0.2232	-0.531
Mof_O 	O 	0.3006	0.1728	0.232	-0.756
Mof_O 	O 	0.2791	0.3997	0.7227	-0.615
Mof_O 	O 	0.3194	0.4011	0.6798	-0.501
Mof_O 	O 	0.0467	0.528	0.4831	-0.567
Mof_Ce	Ce	0.16935	0.61522	0.26415	2.062
Mof_C 	C 	0.1928	0.64	0.5417	0.009
Mof_C 	C 	0.1923	0.672	0.5678	-0.083
Mof_H 	H 	0.1968	0.6946	0.5536	0.049
Mof_C 	C 	0.1849	0.6715	0.6155	-0.01
Mof_C 	C 	0.1776	0.6376	0.6363	-0.086
Mof_H 	H 	0.1725	0.6368	0.6677	0.048
Mof_C 	C 	0.178	0.605	0.6099	0.017
Mof_C 	C 	0.1859	0.6065	0.564	-0.094
Mof_H 	H 	0.1867	0.5844	0.547	0.064
Mof_C 	C 	0.2011	0.6408	0.4923	0.072
Mof_C 	C 	0.2241	0.6628	0.4769	-0.159
Mof_H 	H 	0.2345	0.6771	0.4983	0.077
Mof_C 	C 	0.2319	0.6637	0.4293	0.097
Mof_H 	H 	0.2475	0.6782	0.4197	0
Mof_C 	C 	0.2167	0.6436	0.3972	-0.215
Mof_C 	C 	0.1949	0.6211	0.4112	0.103
Mof_H 	H 	0.1856	0.606	0.3894	-0.029
Mof_C 	C 	0.186	0.62	0.458	-0.167
Mof_H 	H 	0.1701	0.6056	0.4665	0.071
Mof_C 	C 	0.1832	0.7079	0.6427	0.122
Mof_C 	C 	0.2048	0.7331	0.6391	-0.224
Mof_H 	H 	0.2209	0.7285	0.6205	0.095
Mof_C 	C 	0.2022	0.7667	0.6642	0.147
Mof_H 	H 	0.2168	0.7844	0.6612	-0.042
Mof_C 	C 	0.1791	0.7744	0.693	-0.275
Mof_C 	C 	0.1578	0.7487	0.6954	0.157
Mof_H 	H 	0.1413	0.7535	0.7132	-0.043
Mof_C 	C 	0.1603	0.7149	0.6716	-0.224
Mof_H 	H 	0.146	0.6968	0.6755	0.09
Mof_C 	C 	0.1727	0.5677	0.633	0.056
Mof_C 	C 	0.1843	0.5615	0.6768	-0.122
Mof_H 	H 	0.1939	0.5808	0.692	0.066
Mof_C 	C 	0.1819	0.5264	0.6996	0.034
Mof_H 	H 	0.1895	0.5228	0.7294	0.025
Mof_C 	C 	0.1682	0.4977	0.6763	-0.124
Mof_C 	C 	0.1558	0.5052	0.6325	0.042
Mof_H 	H 	0.1455	0.4866	0.6171	0.013
Mof_C 	C 	0.1587	0.5397	0.612	-0.135
Mof_H 	H 	0.1507	0.5437	0.5826	0.073
Mof_C 	C 	0.2248	0.6462	0.3473	0.441
Mof_C 	C 	0.1786	0.8108	0.7186	0.514
Mof_C 	C 	0.1685	0.4596	0.6964	0.327
Mof_C 	C 	0.2236	0.5737	0.1461	-0.184
Mof_C 	C 	0.2502	0.5585	0.1539	0.117
Mof_H 	H 	0.2584	0.5604	0.1835	-0.013
Mof_C 	C 	0.2658	0.5399	0.1184	-0.173
Mof_H 	H 	0.2838	0.5292	0.1244	0.093
Mof_C 	C 	0.2535	0.5381	0.0747	0.093
Mof_C 	C 	0.2266	0.5538	0.0667	-0.168
Mof_H 	H 	0.2184	0.552	0.0371	0.081
Mof_C 	C 	0.2117	0.5718	0.1012	0.095
Mof_H 	H 	0.1938	0.5827	0.095	-0.004
Mof_C 	C 	0.2704	0.5184	0.0359	0.003
Mof_C 	C 	0.2995	0.518	0.0345	-0.062
Mof_H 	H 	0.3098	0.5305	0.0577	0.049
Mof_C 	C 	0.3623	0.5293	0.018	-0.26
Mof_H 	H 	0.3524	0.5495	0.0307	0.106
Mof_C 	C 	0.3909	0.5297	0.0179	0.183
Mof_H 	H 	0.4004	0.5504	0.0301	-0.061
Mof_C 	C 	0.2065	0.5927	0.1837	0.424
Mof_O 	O 	0.2113	0.629	0.315	-0.665
Mof_O 	O 	0.2468	0.6654	0.337	-0.538
Mof_O 	O 	0.1579	0.4332	0.6728	-0.491
Mof_O 	O 	0.1781	0.4542	0.7372	-0.456
Mof_O 	O 	0.1522	0.8243	0.7232	-0.53
Mof_O 	O 	0.1994	0.8272	0.732	-0.756
Mof_O 	O 	0.2209	0.6003	0.2227	-0.615
Mof_O 	O 	0.1806	0.5989	0.1798	-0.502
Mof_O 	O 	0.4533	0.472	0.9831	-0.564
Mof_Ce	Ce	0.66935	0.11522	0.26415	2.062
Mof_C 	C 	0.6928	0.14	0.5417	0.011
Mof_C 	C 	0.6923	0.172	0.5678	-0.084
Mof_H 	H 	0.6968	0.1946	0.5536	0.05
Mof_C 	C 	0.6849	0.1715	0.6155	-0.008
Mof_C 	C 	0.6776	0.1376	0.6363	-0.088
Mof_H 	H 	0.6725	0.1368	0.6677	0.049
Mof_C 	C 	0.678	0.105	0.6099	0.02
Mof_C 	C 	0.6859	0.1065	0.564	-0.097
Mof_H 	H 	0.6867	0.0844	0.547	0.064
Mof_C 	C 	0.7011	0.1408	0.4923	0.071
Mof_C 	C 	0.7241	0.1628	0.4769	-0.159
Mof_H 	H 	0.7345	0.1771	0.4983	0.076
Mof_C 	C 	0.7319	0.1637	0.4293	0.096
Mof_H 	H 	0.7475	0.1782	0.4197	0
Mof_C 	C 	0.7167	0.1436	0.3972	-0.215
Mof_C 	C 	0.6949	0.1211	0.4112	0.103
Mof_H 	H 	0.6856	0.106	0.3894	-0.028
Mof_C 	C 	0.686	0.12	0.458	-0.166
Mof_H 	H 	0.6701	0.1056	0.4665	0.07
Mof_C 	C 	0.6832	0.2079	0.6427	0.122
Mof_C 	C 	0.7048	0.2331	0.6391	-0.223
Mof_H 	H 	0.7209	0.2285	0.6205	0.095
Mof_C 	C 	0.7022	0.2667	0.6642	0.146
Mof_H 	H 	0.7168	0.2844	0.6612	-0.041
Mof_C 	C 	0.6791	0.2744	0.693	-0.275
Mof_C 	C 	0.6578	0.2487	0.6954	0.157
Mof_H 	H 	0.6413	0.2535	0.7132	-0.043
Mof_C 	C 	0.6603	0.2149	0.6716	-0.223
Mof_H 	H 	0.646	0.1968	0.6755	0.09
Mof_C 	C 	0.6727	0.0677	0.633	0.049
Mof_C 	C 	0.6843	0.0615	0.6768	-0.115
Mof_H 	H 	0.6939	0.0808	0.692	0.063
Mof_C 	C 	0.6819	0.0264	0.6996	0.024
Mof_H 	H 	0.6895	0.0228	0.7294	0.027
Mof_C 	C 	0.6682	0.9977	0.6763	-0.114
Mof_C 	C 	0.6558	0.0052	0.6325	0.028
Mof_H 	H 	0.6455	0.9866	0.6171	0.018
Mof_C 	C 	0.6587	0.0397	0.612	-0.125
Mof_H 	H 	0.6507	0.0437	0.5826	0.069
Mof_C 	C 	0.7248	0.1462	0.3473	0.441
Mof_C 	C 	0.6786	0.3108	0.7186	0.513
Mof_C 	C 	0.6685	0.9596	0.6964	0.323
Mof_C 	C 	0.7236	0.0737	0.1461	-0.184
Mof_C 	C 	0.7502	0.0585	0.1539	0.117
Mof_H 	H 	0.7584	0.0604	0.1835	-0.013
Mof_C 	C 	0.7658	0.0399	0.1184	-0.173
Mof_H 	H 	0.7838	0.0292	0.1244	0.093
Mof_C 	C 	0.7535	0.0381	0.0747	0.092
Mof_C 	C 	0.7266	0.0538	0.0667	-0.168
Mof_H 	H 	0.7184	0.052	0.0371	0.081
Mof_C 	C 	0.7117	0.0718	0.1012	0.095
Mof_H 	H 	0.6938	0.0827	0.095	-0.004
Mof_C 	C 	0.7704	0.0184	0.0359	0.003
Mof_C 	C 	0.7995	0.018	0.0345	-0.062
Mof_H 	H 	0.8098	0.0305	0.0577	0.049
Mof_C 	C 	0.8623	0.0293	0.018	-0.259
Mof_H 	H 	0.8524	0.0495	0.0307	0.106
Mof_C 	C 	0.8909	0.0297	0.0179	0.182
Mof_H 	H 	0.9004	0.0504	0.0301	-0.061
Mof_C 	C 	0.7065	0.0927	0.1837	0.424
Mof_O 	O 	0.7113	0.129	0.315	-0.665
Mof_O 	O 	0.7468	0.1654	0.337	-0.538
Mof_O 	O 	0.6579	0.9332	0.6728	-0.49
Mof_O 	O 	0.6781	0.9542	0.7372	-0.455
Mof_O 	O 	0.6522	0.3243	0.7232	-0.53
Mof_O 	O 	0.6994	0.3272	0.732	-0.756
Mof_O 	O 	0.7209	0.1003	0.2227	-0.615
Mof_O 	O 	0.6806	0.0989	0.1798	-0.502
Mof_O 	O 	0.9533	0.972	0.9831	-0.561
Mof_Ce	Ce	0.16935	0.38478	0.73585	2.063
Mof_C 	C 	0.1928	0.36	0.4583	0.009
Mof_C 	C 	0.1923	0.328	0.4322	-0.083
Mof_H 	H 	0.1968	0.3054	0.4464	0.049
Mof_C 	C 	0.1849	0.3285	0.3845	-0.01
Mof_C 	C 	0.1776	0.3624	0.3637	-0.086
Mof_H 	H 	0.1725	0.3632	0.3323	0.048
Mof_C 	C 	0.178	0.395	0.3901	0.017
Mof_C 	C 	0.1859	0.3935	0.436	-0.094
Mof_H 	H 	0.1867	0.4156	0.453	0.064
Mof_C 	C 	0.2011	0.3592	0.5077	0.072
Mof_C 	C 	0.2241	0.3372	0.5231	-0.159
Mof_H 	H 	0.2345	0.3229	0.5017	0.077
Mof_C 	C 	0.2319	0.3363	0.5707	0.097
Mof_H 	H 	0.2475	0.3218	0.5803	0
Mof_C 	C 	0.2167	0.3564	0.6028	-0.216
Mof_C 	C 	0.1949	0.3789	0.5888	0.103
Mof_H 	H 	0.1856	0.394	0.6106	-0.029
Mof_C 	C 	0.186	0.38	0.542	-0.167
Mof_H 	H 	0.1701	0.3944	0.5335	0.071
Mof_C 	C 	0.1832	0.2921	0.3573	0.122
Mof_C 	C 	0.2048	0.2669	0.3609	-0.224
Mof_H 	H 	0.2209	0.2715	0.3795	0.095
Mof_C 	C 	0.2022	0.2333	0.3358	0.147
Mof_H 	H 	0.2168	0.2156	0.3388	-0.042
Mof_C 	C 	0.1791	0.2256	0.307	-0.276
Mof_C 	C 	0.1578	0.2513	0.3046	0.157
Mof_H 	H 	0.1413	0.2465	0.2868	-0.043
Mof_C 	C 	0.1603	0.2851	0.3284	-0.224
Mof_H 	H 	0.146	0.3032	0.3245	0.09
Mof_C 	C 	0.1727	0.4323	0.367	0.056
Mof_C 	C 	0.1843	0.4385	0.3232	-0.122
Mof_H 	H 	0.1939	0.4192	0.308	0.066
Mof_C 	C 	0.1819	0.4736	0.3004	0.034
Mof_H 	H 	0.1895	0.4772	0.2706	0.024
Mof_C 	C 	0.1682	0.5023	0.3237	-0.124
Mof_C 	C 	0.1558	0.4948	0.3675	0.042
Mof_H 	H 	0.1455	0.5134	0.3829	0.013
Mof_C 	C 	0.1587	0.4603	0.388	-0.135
Mof_H 	H 	0.1507	0.4563	0.4174	0.073
Mof_C 	C 	0.2248	0.3538	0.6527	0.441
Mof_C 	C 	0.1786	0.1892	0.2814	0.514
Mof_C 	C 	0.1685	0.5404	0.3036	0.327
Mof_C 	C 	0.2236	0.4263	0.8539	-0.184
Mof_C 	C 	0.2502	0.4415	0.8461	0.117
Mof_H 	H 	0.2584	0.4396	0.8165	-0.013
Mof_C 	C 	0.2658	0.4601	0.8816	-0.173
Mof_H 	H 	0.2838	0.4708	0.8756	0.093
Mof_C 	C 	0.2535	0.4619	0.9253	0.093
Mof_C 	C 	0.2266	0.4462	0.9333	-0.168
Mof_H 	H 	0.2184	0.448	0.9629	0.083
Mof_C 	C 	0.2117	0.4282	0.8988	0.095
Mof_H 	H 	0.1938	0.4173	0.905	-0.003
Mof_C 	C 	0.2704	0.4816	0.9641	0.005
Mof_C 	C 	0.2995	0.482	0.9655	-0.058
Mof_H 	H 	0.3098	0.4695	0.9423	0.049
Mof_C 	C 	0.3623	0.4707	0.982	-0.257
Mof_H 	H 	0.3524	0.4505	0.9693	0.106
Mof_C 	C 	0.3909	0.4703	0.9821	0.186
Mof_H 	H 	0.4004	0.4496	0.9699	-0.062
Mof_C 	C 	0.2065	0.4073	0.8163	0.424
Mof_O 	O 	0.2113	0.371	0.685	-0.665
Mof_O 	O 	0.2468	0.3346	0.663	-0.538
Mof_O 	O 	0.1579	0.5668	0.3272	-0.491
Mof_O 	O 	0.1781	0.5458	0.2628	-0.456
Mof_O 	O 	0.1522	0.1757	0.2768	-0.53
Mof_O 	O 	0.1994	0.1728	0.268	-0.756
Mof_O 	O 	0.2209	0.3997	0.7773	-0.615
Mof_O 	O 	0.1806	0.4011	0.8202	-0.501
Mof_O 	O 	0.4533	0.528	0.0169	-0.567
Mof_Ce	Ce	0.66935	0.88478	0.73585	2.063
Mof_C 	C 	0.6928	0.86	0.4583	0.008
Mof_C 	C 	0.6923	0.828	0.4322	-0.082
Mof_H 	H 	0.6968	0.8054	0.4464	0.049
Mof_C 	C 	0.6849	0.8285	0.3845	-0.011
Mof_C 	C 	0.6776	0.8624	0.3637	-0.084
Mof_H 	H 	0.6725	0.8632	0.3323	0.047
Mof_C 	C 	0.678	0.895	0.3901	0.014
Mof_C 	C 	0.6859	0.8935	0.436	-0.092
Mof_H 	H 	0.6867	0.9156	0.453	0.063
Mof_C 	C 	0.7011	0.8592	0.5077	0.073
Mof_C 	C 	0.7241	0.8372	0.5231	-0.16
Mof_H 	H 	0.7345	0.8229	0.5017	0.077
Mof_C 	C 	0.7319	0.8363	0.5707	0.097
Mof_H 	H 	0.7475	0.8218	0.5803	0
Mof_C 	C 	0.7167	0.8564	0.6028	-0.216
Mof_C 	C 	0.6949	0.8789	0.5888	0.103
Mof_H 	H 	0.6856	0.894	0.6106	-0.029
Mof_C 	C 	0.686	0.88	0.542	-0.167
Mof_H 	H 	0.6701	0.8944	0.5335	0.071
Mof_C 	C 	0.6832	0.7921	0.3573	0.123
Mof_C 	C 	0.7048	0.7669	0.3609	-0.224
Mof_H 	H 	0.7209	0.7715	0.3795	0.096
Mof_C 	C 	0.7022	0.7333	0.3358	0.147
Mof_H 	H 	0.7168	0.7156	0.3388	-0.042
Mof_C 	C 	0.6791	0.7256	0.307	-0.276
Mof_C 	C 	0.6578	0.7513	0.3046	0.158
Mof_H 	H 	0.6413	0.7465	0.2868	-0.043
Mof_C 	C 	0.6603	0.7851	0.3284	-0.224
Mof_H 	H 	0.646	0.8032	0.3245	0.09
Mof_C 	C 	0.6727	0.9323	0.367	0.063
Mof_C 	C 	0.6843	0.9385	0.3232	-0.129
Mof_H 	H 	0.6939	0.9192	0.308	0.068
Mof_C 	C 	0.6819	0.9736	0.3004	0.044
Mof_H 	H 	0.6895	0.9772	0.2706	0.022
Mof_C 	C 	0.6682	0.0023	0.3237	-0.135
Mof_C 	C 	0.6558	0.9948	0.3675	0.056
Mof_H 	H 	0.6455	0.0134	0.3829	0.007
Mof_C 	C 	0.6587	0.9603	0.388	-0.145
Mof_H 	H 	0.6507	0.9563	0.4174	0.076
Mof_C 	C 	0.7248	0.8538	0.6527	0.441
Mof_C 	C 	0.6786	0.6892	0.2814	0.514
Mof_C 	C 	0.6685	0.0404	0.3036	0.33
Mof_C 	C 	0.7236	0.9263	0.8539	-0.184
Mof_C 	C 	0.7502	0.9415	0.8461	0.117
Mof_H 	H 	0.7584	0.9396	0.8165	-0.013
Mof_C 	C 	0.7658	0.9601	0.8816	-0.172
Mof_H 	H 	0.7838	0.9708	0.8756	0.093
Mof_C 	C 	0.7535	0.9619	0.9253	0.093
Mof_C 	C 	0.7266	0.9462	0.9333	-0.167
Mof_H 	H 	0.7184	0.948	0.9629	0.083
Mof_C 	C 	0.7117	0.9282	0.8988	0.095
Mof_H 	H 	0.6938	0.9173	0.905	-0.003
Mof_C 	C 	0.7704	0.9816	0.9641	0.007
Mof_C 	C 	0.7995	0.982	0.9655	-0.056
Mof_H 	H 	0.8098	0.9695	0.9423	0.048
Mof_C 	C 	0.8623	0.9707	0.982	-0.254
Mof_H 	H 	0.8524	0.9505	0.9693	0.105
Mof_C 	C 	0.8909	0.9703	0.9821	0.187
Mof_H 	H 	0.9004	0.9496	0.9699	-0.061
Mof_C 	C 	0.7065	0.9073	0.8163	0.424
Mof_O 	O 	0.7113	0.871	0.685	-0.665
Mof_O 	O 	0.7468	0.8346	0.663	-0.538
Mof_O 	O 	0.6579	0.0668	0.3272	-0.492
Mof_O 	O 	0.6781	0.0458	0.2628	-0.457
Mof_O 	O 	0.6522	0.6757	0.2768	-0.53
Mof_O 	O 	0.6994	0.6728	0.268	-0.756
Mof_O 	O 	0.7209	0.8997	0.7773	-0.615
Mof_O 	O 	0.6806	0.9011	0.8202	-0.501
Mof_O 	O 	0.9533	0.028	0.0169	-0.565
Mof_Ce	Ce	0.83065	0.11522	0.23585	2.062
Mof_C 	C 	0.8072	0.14	0.9583	0.02
Mof_C 	C 	0.8077	0.172	0.9322	-0.089
Mof_H 	H 	0.8032	0.1946	0.9464	0.053
Mof_C 	C 	0.8151	0.1715	0.8845	-0.005
Mof_C 	C 	0.8224	0.1376	0.8637	-0.091
Mof_H 	H 	0.8275	0.1368	0.8323	0.05
Mof_C 	C 	0.822	0.105	0.8901	0.024
Mof_C 	C 	0.8141	0.1065	0.936	-0.102
Mof_H 	H 	0.8133	0.0844	0.953	0.068
Mof_C 	C 	0.7989	0.1408	0.0077	0.062
Mof_C 	C 	0.7759	0.1628	0.0231	-0.154
Mof_H 	H 	0.7655	0.1771	0.0017	0.073
Mof_C 	C 	0.7681	0.1637	0.0707	0.092
Mof_H 	H 	0.7525	0.1782	0.0803	0.002
Mof_C 	C 	0.7833	0.1436	0.1028	-0.212
Mof_C 	C 	0.8051	0.1211	0.0888	0.098
Mof_H 	H 	0.8144	0.106	0.1106	-0.027
Mof_C 	C 	0.814	0.12	0.042	-0.161
Mof_H 	H 	0.8299	0.1056	0.0335	0.068
Mof_C 	C 	0.8168	0.2079	0.8573	0.12
Mof_C 	C 	0.7952	0.2331	0.8609	-0.222
Mof_H 	H 	0.7791	0.2285	0.8795	0.095
Mof_C 	C 	0.7978	0.2667	0.8358	0.146
Mof_H 	H 	0.7832	0.2844	0.8388	-0.041
Mof_C 	C 	0.8209	0.2744	0.807	-0.274
Mof_C 	C 	0.8422	0.2487	0.8046	0.156
Mof_H 	H 	0.8587	0.2535	0.7868	-0.042
Mof_C 	C 	0.8397	0.2149	0.8284	-0.222
Mof_H 	H 	0.854	0.1968	0.8245	0.09
Mof_C 	C 	0.8273	0.0677	0.867	0.048
Mof_C 	C 	0.8157	0.0615	0.8232	-0.114
Mof_H 	H 	0.8061	0.0808	0.808	0.063
Mof_C 	C 	0.8181	0.0264	0.8004	0.024
Mof_H 	H 	0.8105	0.0228	0.7706	0.027
Mof_C 	C 	0.8318	0.9977	0.8237	-0.114
Mof_C 	C 	0.8442	0.0052	0.8675	0.028
Mof_H 	H 	0.8545	0.9866	0.8829	0.019
Mof_C 	C 	0.8413	0.0397	0.888	-0.124
Mof_H 	H 	0.8493	0.0437	0.9174	0.07
Mof_C 	C 	0.7752	0.1462	0.1527	0.44
Mof_C 	C 	0.8214	0.3108	0.7814	0.513
Mof_C 	C 	0.8315	0.9596	0.8036	0.323
Mof_C 	C 	0.7764	0.0737	0.3539	-0.184
Mof_C 	C 	0.7498	0.0585	0.3461	0.117
Mof_H 	H 	0.7416	0.0604	0.3165	-0.013
Mof_C 	C 	0.7342	0.0399	0.3816	-0.173
Mof_H 	H 	0.7162	0.0292	0.3756	0.093
Mof_C 	C 	0.7465	0.0381	0.4253	0.093
Mof_C 	C 	0.7734	0.0538	0.4333	-0.168
Mof_H 	H 	0.7816	0.052	0.4629	0.082
Mof_C 	C 	0.7883	0.0718	0.3988	0.095
Mof_H 	H 	0.8062	0.0827	0.405	-0.003
Mof_C 	C 	0.7296	0.0184	0.4641	0.002
Mof_C 	C 	0.7005	0.018	0.4655	-0.061
Mof_H 	H 	0.6902	0.0305	0.4423	0.049
Mof_C 	C 	0.6377	0.0293	0.482	-0.261
Mof_H 	H 	0.6476	0.0495	0.4693	0.107
Mof_C 	C 	0.6091	0.0297	0.4821	0.183
Mof_H 	H 	0.5996	0.0504	0.4699	-0.061
Mof_C 	C 	0.7935	0.0927	0.3163	0.424
Mof_O 	O 	0.7887	0.129	0.185	-0.665
Mof_O 	O 	0.7532	0.1654	0.163	-0.538
Mof_O 	O 	0.8421	0.9332	0.8272	-0.49
Mof_O 	O 	0.8219	0.9542	0.7628	-0.455
Mof_O 	O 	0.8478	0.3243	0.7768	-0.53
Mof_O 	O 	0.8006	0.3272	0.768	-0.756
Mof_O 	O 	0.7791	0.1003	0.2773	-0.615
Mof_O 	O 	0.8194	0.0989	0.3202	-0.501
Mof_O 	O 	0.5467	0.972	0.5169	-0.566
Mof_Ce	Ce	0.33065	0.61522	0.23585	2.062
Mof_C 	C 	0.3072	0.64	0.9583	0.018
Mof_C 	C 	0.3077	0.672	0.9322	-0.088
Mof_H 	H 	0.3032	0.6946	0.9464	0.052
Mof_C 	C 	0.3151	0.6715	0.8845	-0.006
Mof_C 	C 	0.3224	0.6376	0.8637	-0.089
Mof_H 	H 	0.3275	0.6368	0.8323	0.049
Mof_C 	C 	0.322	0.605	0.8901	0.02
Mof_C 	C 	0.3141	0.6065	0.936	-0.099
Mof_H 	H 	0.3133	0.5844	0.953	0.067
Mof_C 	C 	0.2989	0.6408	0.0077	0.063
Mof_C 	C 	0.2759	0.6628	0.0231	-0.154
Mof_H 	H 	0.2655	0.6771	0.0017	0.073
Mof_C 	C 	0.2681	0.6637	0.0707	0.092
Mof_H 	H 	0.2525	0.6782	0.0803	0.001
Mof_C 	C 	0.2833	0.6436	0.1028	-0.212
Mof_C 	C 	0.3051	0.6211	0.0888	0.099
Mof_H 	H 	0.3144	0.606	0.1106	-0.027
Mof_C 	C 	0.314	0.62	0.042	-0.162
Mof_H 	H 	0.3299	0.6056	0.0335	0.068
Mof_C 	C 	0.3168	0.7079	0.8573	0.121
Mof_C 	C 	0.2952	0.7331	0.8609	-0.222
Mof_H 	H 	0.2791	0.7285	0.8795	0.095
Mof_C 	C 	0.2978	0.7667	0.8358	0.146
Mof_H 	H 	0.2832	0.7844	0.8388	-0.041
Mof_C 	C 	0.3209	0.7744	0.807	-0.275
Mof_C 	C 	0.3422	0.7487	0.8046	0.156
Mof_H 	H 	0.3587	0.7535	0.7868	-0.042
Mof_C 	C 	0.3397	0.7149	0.8284	-0.223
Mof_H 	H 	0.354	0.6968	0.8245	0.09
Mof_C 	C 	0.3273	0.5677	0.867	0.055
Mof_C 	C 	0.3157	0.5615	0.8232	-0.121
Mof_H 	H 	0.3061	0.5808	0.808	0.066
Mof_C 	C 	0.3181	0.5264	0.8004	0.033
Mof_H 	H 	0.3105	0.5228	0.7706	0.025
Mof_C 	C 	0.3318	0.4977	0.8237	-0.124
Mof_C 	C 	0.3442	0.5052	0.8675	0.042
Mof_H 	H 	0.3545	0.4866	0.8829	0.013
Mof_C 	C 	0.3413	0.5397	0.888	-0.134
Mof_H 	H 	0.3493	0.5437	0.9174	0.073
Mof_C 	C 	0.2752	0.6462	0.1527	0.44
Mof_C 	C 	0.3214	0.8108	0.7814	0.513
Mof_C 	C 	0.3315	0.4596	0.8036	0.327
Mof_C 	C 	0.2764	0.5737	0.3539	-0.184
Mof_C 	C 	0.2498	0.5585	0.3461	0.118
Mof_H 	H 	0.2416	0.5604	0.3165	-0.013
Mof_C 	C 	0.2342	0.5399	0.3816	-0.173
Mof_H 	H 	0.2162	0.5292	0.3756	0.093
Mof_C 	C 	0.2465	0.5381	0.4253	0.094
Mof_C 	C 	0.2734	0.5538	0.4333	-0.168
Mof_H 	H 	0.2816	0.552	0.4629	0.082
Mof_C 	C 	0.2883	0.5718	0.3988	0.096
Mof_H 	H 	0.3062	0.5827	0.405	-0.003
Mof_C 	C 	0.2296	0.5184	0.4641	0.002
Mof_C 	C 	0.2005	0.518	0.4655	-0.061
Mof_H 	H 	0.1902	0.5305	0.4423	0.049
Mof_C 	C 	0.1377	0.5293	0.482	-0.261
Mof_H 	H 	0.1476	0.5495	0.4693	0.107
Mof_C 	C 	0.1091	0.5297	0.4821	0.184
Mof_H 	H 	0.0996	0.5504	0.4699	-0.061
Mof_C 	C 	0.2935	0.5927	0.3163	0.424
Mof_O 	O 	0.2887	0.629	0.185	-0.665
Mof_O 	O 	0.2532	0.6654	0.163	-0.538
Mof_O 	O 	0.3421	0.4332	0.8272	-0.491
Mof_O 	O 	0.3219	0.4542	0.7628	-0.456
Mof_O 	O 	0.3478	0.8243	0.7768	-0.53
Mof_O 	O 	0.3006	0.8272	0.768	-0.756
Mof_O 	O 	0.2791	0.6003	0.2773	-0.615
Mof_O 	O 	0.3194	0.5989	0.3202	-0.501
Mof_O 	O 	0.0467	0.472	0.5169	-0.567
Mof_Ce	Ce	0.25	0.15403	0.25	2.503
Mof_Ce	Ce	0.75	0.34597	0.75	2.503
Mof_Ce	Ce	0.75	0.65403	0.25	2.503
Mof_Ce	Ce	0.25	0.84597	0.75	2.503
Mof_Ce	Ce	0.75	0.84597	0.75	2.503
Mof_Ce	Ce	0.25	0.65403	0.25	2.503
Mof_Ce	Ce	0.25	0.34597	0.75	2.503
Mof_Ce	Ce	0.75	0.15403	0.25	2.503
Mof_Ce	Ce	0.5	0.9449	0.5294	1.506
Mof_O 	O 	0.5	0.0173	0.56	-0.417
Mof_Ce	Ce	5.50872e-33	0.4449	0.5294	1.502
Mof_O 	O 	1.30377e-33	0.5173	0.56	-0.416
Mof_Ce	Ce	0.5	0.5551	0.0294	1.499
Mof_O 	O 	0.5	0.4827	0.06	-0.417
Mof_Ce	Ce	-6.51831e-35	0.0551	0.0294	1.494
Mof_O 	O 	1.20874e-33	0.9827	0.06	-0.416
Mof_Ce	Ce	0.5	0.4449	0.9706	1.509
Mof_O 	O 	0.5	0.5173	0.94	-0.414
Mof_Ce	Ce	-1.4845e-32	0.9449	0.9706	1.508
Mof_O 	O 	-2.08772e-33	0.0173	0.94	-0.415
Mof_Ce	Ce	0.5	0.0551	0.4706	1.502
Mof_O 	O 	0.5	0.9827	0.44	-0.415
Mof_Ce	Ce	1.09563e-33	0.5551	0.4706	1.502
Mof_O 	O 	-3.2518e-33	0.4827	0.44	-0.416
Mof_C 	C 	0.2552	0	0.5	-0.075
Mof_H 	H 	0.235	0	0.5	0.049
Mof_C 	C 	0.3147	0	0.5	-0.029
Mof_C 	C 	0.3466	0	0.5	0.149
Mof_C 	C 	0.4075	0	0.5	-0.275
Mof_C 	C 	0.4406	0	0.5	0.504
Mof_C 	C 	0.7552	0.5	0.5	-0.073
Mof_H 	H 	0.735	0.5	0.5	0.049
Mof_C 	C 	0.8147	0.5	0.5	-0.027
Mof_C 	C 	0.8466	0.5	0.5	0.15
Mof_C 	C 	0.9075	0.5	0.5	-0.273
Mof_C 	C 	0.9406	0.5	0.5	0.506
Mof_C 	C 	0.7448	0.5	-0	-0.078
Mof_H 	H 	0.765	0.5	-0	0.049
Mof_C 	C 	0.6853	0.5	-0	-0.03
Mof_C 	C 	0.6534	0.5	-0	0.147
Mof_C 	C 	0.5925	0.5	-0	-0.277
Mof_C 	C 	0.5594	0.5	-0	0.502
Mof_C 	C 	0.2448	0	-0	-0.081
Mof_H 	H 	0.265	0	-0	0.05
Mof_C 	C 	0.1853	0	-0	-0.032
Mof_C 	C 	0.1534	0	-0	0.145
Mof_C 	C 	0.0925	0	-0	-0.278
Mof_C 	C 	0.0594	0	-0	0.5
Mof_C 	C 	0.7448	0	0.5	-0.075
Mof_H 	H 	0.765	0	0.5	0.049
Mof_C 	C 	0.6853	0	0.5	-0.029
Mof_C 	C 	0.6534	0	0.5	0.149
Mof_C 	C 	0.5925	0	0.5	-0.275
Mof_C 	C 	0.5594	0	0.5	0.504
Mof_C 	C 	0.2448	0.5	0.5	-0.072
Mof_H 	H 	0.265	0.5	0.5	0.049
Mof_C 	C 	0.1853	0.5	0.5	-0.027
Mof_C 	C 	0.1534	0.5	0.5	0.151
Mof_C 	C 	0.0925	0.5	0.5	-0.274
Mof_C 	C 	0.0594	0.5	0.5	0.506
Mof_C 	C 	0.2552	0.5	-0	-0.078
Mof_H 	H 	0.235	0.5	-0	0.049
Mof_C 	C 	0.3147	0.5	-0	-0.03
Mof_C 	C 	0.3466	0.5	-0	0.147
Mof_C 	C 	0.4075	0.5	-0	-0.277
Mof_C 	C 	0.4406	0.5	-0	0.502
Mof_C 	C 	0.7552	0	-0	-0.081
Mof_H 	H 	0.735	0	-0	0.05
Mof_C 	C 	0.8147	0	-0	-0.031
Mof_C 	C 	0.8466	0	-0	0.144
Mof_C 	C 	0.9075	0	-0	-0.277
Mof_C 	C 	0.9406	0	-0	0.499
_end
