data_functionalizedCrystal
_audit_creation_method	'EQeq! by Chris Wilmer'
_symmetry_space_group_name_H-M	'P1'
_symmetry_Int_Tables_number	1
_symmetry_cell_setting	triclinic
loop_
_symmetry_equiv_pos_as_xyz
  x,y,z
_cell_length_a	20.345
_cell_length_b	30.5917
_cell_length_c	30.5917
_cell_angle_alpha	64.768
_cell_angle_beta	77.1921
_cell_angle_gamma	102.808
loop_
_atom_site_label
_atom_site_type_symbol
_atom_site_fract_x
_atom_site_fract_y
_atom_site_fract_z
_atom_site_charge
Mof_Mn	Mn	0.61101	0.55557	0.82247	1.05
Mof_Mn	Mn	0.60968	0.39175	0.9519	1.012
Mof_Mn	Mn	0.42612	0.61637	0.88153	1.055
Mof_Mn	Mn	0.43348	0.82247	0.62196	1.051
Mof_Mn	Mn	0.56158	0.9519	0.65635	1.014
Mof_Mn	Mn	0.30765	0.88153	0.5021	1.055
Mof_Mn	Mn	0.05544	0.62196	0.55557	1.051
Mof_Mn	Mn	0.21793	0.65635	0.39175	1.014
Mof_Mn	Mn	0.80975	0.5021	0.61637	1.055
Mof_Mn	Mn	0.38899	0.44443	0.17753	1.051
Mof_Mn	Mn	0.39032	0.60825	0.0481	1.013
Mof_Mn	Mn	0.57388	0.38363	0.11847	1.055
Mof_Mn	Mn	0.56652	0.17753	0.37804	1.051
Mof_Mn	Mn	0.43842	0.0481	0.34365	1.014
Mof_Mn	Mn	0.69235	0.11847	0.4979	1.055
Mof_Mn	Mn	0.94456	0.37804	0.44443	1.051
Mof_Mn	Mn	0.78207	0.34365	0.60825	1.014
Mof_Mn	Mn	0.19025	0.4979	0.38363	1.055
Mof_H 	H 	0.5113	0.5167	0.7263	0.119
Mof_H 	H 	0.4907	0.4465	0.7137	-0.045
Mof_H 	H 	0.5103	0.3721	0.7701	0.08
Mof_H 	H 	0.5562	0.374	0.832	-0.004
Mof_H 	H 	0.6454	0.5278	0.9693	0.198
Mof_H 	H 	0.6805	0.4861	0.9687	0.184
Mof_H 	H 	0.7381	0.5897	0.9172	-0.076
Mof_H 	H 	0.757	0.55	0.9609	-0.094
Mof_H 	H 	0.8046	0.5716	0.8637	0.145
Mof_H 	H 	0.83	0.5422	0.9096	0.135
Mof_H 	H 	0.868	0.6528	0.8534	0.02
Mof_H 	H 	0.922	0.6224	0.8497	0.015
Mof_H 	H 	0.8562	0.6262	0.9444	0.029
Mof_H 	H 	0.9052	0.5919	0.9437	0.02
Mof_H 	H 	0.9627	0.7039	0.879	0.138
Mof_H 	H 	0.0099	0.6678	0.8858	0.136
Mof_H 	H 	0.9418	0.6873	0.9668	-0.169
Mof_H 	H 	0.9857	0.6486	0.9758	-0.165
Mof_H 	H 	0.0904	0.7192	0.9099	0.453
Mof_H 	H 	0.0455	0.757	0.906	0.459
Mof_H 	H 	0.0309	0.7413	0.9839	-0.488
Mof_H 	H 	0.0576	0.6927	0.9971	-0.478
Mof_H 	H 	0.1355	0.7941	0.9203	0.454
Mof_H 	H 	0.1621	0.7464	0.9284	0.446
Mof_H 	H 	0.2035	0.7618	0.9846	-0.181
Mof_H 	H 	0.1214	0.7303	0.0233	-0.174
Mof_H 	H 	0.1509	0.7922	0.9913	-0.179
Mof_H 	H 	0.7506	0.6322	0.8028	-0.012
Mof_H 	H 	0.87	0.6782	0.7516	0.092
Mof_H 	H 	0.8394	0.6166	0.6639	0.106
Mof_H 	H 	0.7228	0.5679	0.7223	-0.022
Mof_H 	H 	0.9789	0.6608	0.673	0.082
Mof_H 	H 	0.9533	0.6967	0.6294	0.076
Mof_H 	H 	0.8271	0.3935	0.8971	0.141
Mof_H 	H 	0.9139	0.3877	0.9348	-0.019
Mof_H 	H 	0.889	0.3765	0.0181	0.103
Mof_H 	H 	0.7807	0.3797	0.0588	-0.016
Mof_H 	H 	0.4053	0.3908	0.0381	0.119
Mof_H 	H 	0.435	0.3933	0.0817	0.113
Mof_H 	H 	0.3767	0.2995	0.0791	0.017
Mof_H 	H 	0.4117	0.3007	0.1208	0.014
Mof_H 	H 	0.2844	0.3238	0.113	0.082
Mof_H 	H 	0.3204	0.3281	0.1533	0.09
Mof_H 	H 	0.2558	0.2327	0.1557	0.036
Mof_H 	H 	0.2971	0.2359	0.1937	0.04
Mof_H 	H 	0.2098	0.2634	0.2302	0.066
Mof_H 	H 	0.1681	0.259	0.1928	0.061
Mof_H 	H 	0.1423	0.1691	0.234	0.04
Mof_H 	H 	0.1846	0.1734	0.271	0.036
Mof_H 	H 	0.0604	0.1998	0.2707	0.064
Mof_H 	H 	0.0992	0.1943	0.3117	0.065
Mof_H 	H 	0.016	0.1095	0.3061	0.026
Mof_H 	H 	0.0598	0.1026	0.3445	0.024
Mof_H 	H 	0.9398	0.1358	0.3489	0.108
Mof_H 	H 	0.9875	0.1378	0.3836	0.106
Mof_H 	H 	0.9011	0.0451	0.3911	-0.049
Mof_H 	H 	0.9549	0.0446	0.4218	-0.051
Mof_H 	H 	0.8828	0.0694	0.4703	0.216
Mof_H 	H 	0.8419	0.0145	0.4772	0.216
Mof_H 	H 	0.8273	0.0647	0.4413	0.223
Mof_H 	H 	0.5061	0.7837	0.7818	0.131
Mof_H 	H 	0.6058	0.8385	0.7058	0.001
Mof_H 	H 	0.6917	0.8072	0.6784	0.083
Mof_H 	H 	0.6765	0.7194	0.728	0.001
Mof_H 	H 	0.4396	0.4601	0.9631	0.113
Mof_H 	H 	0.4691	0.4616	0.9094	0.111
Mof_H 	H 	0.3518	0.3976	0.9666	0
Mof_H 	H 	0.322	0.4444	0.9555	0.006
Mof_H 	H 	0.3604	0.4727	0.868	0.086
Mof_H 	H 	0.4001	0.4318	0.8751	0.084
Mof_H 	H 	0.2478	0.4049	0.9154	0.03
Mof_H 	H 	0.2864	0.3636	0.9245	0.03
Mof_H 	H 	0.2845	0.43	0.8265	0.063
Mof_H 	H 	0.3159	0.384	0.8393	0.059
Mof_H 	H 	0.1514	0.8345	0.5158	-0.041
Mof_H 	H 	0.0483	0.7618	0.5697	0.135
Mof_H 	H 	0.1062	0.7535	0.6862	0.081
Mof_H 	H 	0.2217	0.81	0.6248	-0.01
Mof_H 	H 	0.948	0.7469	0.6712	0.065
Mof_H 	H 	0.9867	0.7146	0.7064	0.065
Mof_H 	H 	0.2376	0.7263	0.757	0.119
Mof_H 	H 	0.2044	0.7137	0.8398	-0.045
Mof_H 	H 	0.2804	0.7701	0.8578	0.081
Mof_H 	H 	0.3882	0.832	0.794	-0.004
Mof_H 	H 	0.6147	0.9693	0.5029	0.197
Mof_H 	H 	0.6492	0.9687	0.5452	0.183
Mof_H 	H 	0.6553	0.9172	0.4931	-0.074
Mof_H 	H 	0.7179	0.9609	0.4891	-0.092
Mof_H 	H 	0.6683	0.8637	0.5647	0.143
Mof_H 	H 	0.7396	0.9096	0.5482	0.134
Mof_H 	H 	0.7214	0.8534	0.4938	0.021
Mof_H 	H 	0.7717	0.8497	0.5279	0.016
Mof_H 	H 	0.8006	0.9444	0.4294	0.027
Mof_H 	H 	0.8489	0.9437	0.4644	0.018
Mof_H 	H 	0.8417	0.879	0.4171	0.143
Mof_H 	H 	0.8957	0.8858	0.4464	0.141
Mof_H 	H 	0.9086	0.9668	0.3459	-0.181
Mof_H 	H 	0.9615	0.9758	0.3756	-0.176
Mof_H 	H 	0.0003	0.9099	0.3709	0.474
Mof_H 	H 	0.9515	0.906	0.337	0.482
Mof_H 	H 	0.0148	0.9839	0.2748	-0.519
Mof_H 	H 	0.0547	0.9971	0.3102	-0.508
Mof_H 	H 	0.0558	0.9203	0.2856	0.478
Mof_H 	H 	0.0905	0.9284	0.3252	0.471
Mof_H 	H 	0.1881	0.9846	0.2536	-0.198
Mof_H 	H 	0.1447	0.0233	0.2464	-0.189
Mof_H 	H 	0.1422	0.9913	0.2165	-0.196
Mof_H 	H 	0.5534	0.8028	0.565	-0.012
Mof_H 	H 	0.6216	0.7516	0.5702	0.092
Mof_H 	H 	0.5033	0.6639	0.7195	0.105
Mof_H 	H 	0.4451	0.7223	0.7098	-0.022
Mof_H 	H 	0.6519	0.673	0.6662	0.082
Mof_H 	H 	0.5827	0.6294	0.6739	0.075
Mof_H 	H 	0.7242	0.8971	0.7094	0.142
Mof_H 	H 	0.8487	0.9348	0.6775	-0.019
Mof_H 	H 	0.9071	0.0181	0.6054	0.104
Mof_H 	H 	0.8395	0.0588	0.5615	-0.018
Mof_H 	H 	0.4434	0.0381	0.5711	0.119
Mof_H 	H 	0.5167	0.0817	0.525	0.113
Mof_H 	H 	0.4558	0.0791	0.6214	0.017
Mof_H 	H 	0.5325	0.1208	0.5785	0.014
Mof_H 	H 	0.3974	0.113	0.5632	0.082
Mof_H 	H 	0.4737	0.1533	0.5186	0.09
Mof_H 	H 	0.4115	0.1557	0.6116	0.036
Mof_H 	H 	0.4908	0.1937	0.5704	0.04
Mof_H 	H 	0.44	0.2302	0.5064	0.066
Mof_H 	H 	0.3609	0.1928	0.5482	0.061
Mof_H 	H 	0.3763	0.234	0.5969	0.04
Mof_H 	H 	0.4556	0.271	0.5556	0.036
Mof_H 	H 	0.3311	0.2707	0.5295	0.064
Mof_H 	H 	0.4109	0.3117	0.494	0.065
Mof_H 	H 	0.3221	0.3061	0.5844	0.026
Mof_H 	H 	0.4043	0.3445	0.5529	0.023
Mof_H 	H 	0.2887	0.3489	0.5153	0.108
Mof_H 	H 	0.3711	0.3836	0.4786	0.106
Mof_H 	H 	0.2922	0.3911	0.5638	-0.049
Mof_H 	H 	0.3767	0.4218	0.5336	-0.051
Mof_H 	H 	0.3531	0.4703	0.4603	0.216
Mof_H 	H 	0.3191	0.4772	0.5083	0.216
Mof_H 	H 	0.2686	0.4413	0.494	0.223
Mof_H 	H 	0.2879	0.7818	0.4345	0.131
Mof_H 	H 	0.3116	0.7058	0.4557	0.001
Mof_H 	H 	0.3701	0.6784	0.5144	0.083
Mof_H 	H 	0.4045	0.728	0.5526	0.001
Mof_H 	H 	0.4027	0.9631	0.5768	0.113
Mof_H 	H 	0.3785	0.9094	0.629	0.111
Mof_H 	H 	0.3184	0.9666	0.6358	-0
Mof_H 	H 	0.2775	0.9555	0.6001	0.006
Mof_H 	H 	0.2284	0.868	0.6593	0.086
Mof_H 	H 	0.2752	0.8751	0.6931	0.085
Mof_H 	H 	0.1632	0.9154	0.6797	0.03
Mof_H 	H 	0.2109	0.9245	0.7119	0.03
Mof_H 	H 	0.111	0.8265	0.7435	0.063
Mof_H 	H 	0.1552	0.8393	0.7767	0.059
Mof_H 	H 	0.6672	0.5158	0.6497	-0.041
Mof_H 	H 	0.618	0.5697	0.6685	0.135
Mof_H 	H 	0.7924	0.6862	0.5603	0.081
Mof_H 	H 	0.8465	0.6248	0.5652	-0.01
Mof_H 	H 	0.6192	0.6712	0.5819	0.066
Mof_H 	H 	0.6931	0.7064	0.579	0.065
Mof_H 	H 	0.9946	0.757	0.5167	0.12
Mof_H 	H 	0.0442	0.8398	0.4465	-0.046
Mof_H 	H 	0.1382	0.8578	0.3721	0.08
Mof_H 	H 	0.1822	0.794	0.374	-0.004
Mof_H 	H 	0.1176	0.5029	0.5278	0.198
Mof_H 	H 	0.1944	0.5452	0.4861	0.184
Mof_H 	H 	0.1484	0.4931	0.5897	-0.075
Mof_H 	H 	0.207	0.4891	0.55	-0.094
Mof_H 	H 	0.233	0.5647	0.5716	0.145
Mof_H 	H 	0.2878	0.5482	0.5422	0.135
Mof_H 	H 	0.2152	0.4938	0.6528	0.02
Mof_H 	H 	0.2996	0.5279	0.6224	0.015
Mof_H 	H 	0.23	0.4294	0.6262	0.029
Mof_H 	H 	0.3133	0.4644	0.5919	0.02
Mof_H 	H 	0.2588	0.4171	0.7039	0.139
Mof_H 	H 	0.3421	0.4464	0.6678	0.136
Mof_H 	H 	0.2545	0.3459	0.6873	-0.171
Mof_H 	H 	0.3371	0.3756	0.6486	-0.167
Mof_H 	H 	0.3712	0.3709	0.7192	0.455
Mof_H 	H 	0.2885	0.337	0.757	0.462
Mof_H 	H 	0.2896	0.2748	0.7413	-0.492
Mof_H 	H 	0.3649	0.3102	0.6927	-0.481
Mof_H 	H 	0.3414	0.2856	0.7941	0.456
Mof_H 	H 	0.4157	0.3252	0.7464	0.448
Mof_H 	H 	0.4417	0.2536	0.7618	-0.182
Mof_H 	H 	0.3911	0.2464	0.7303	-0.175
Mof_H 	H 	0.3587	0.2165	0.7922	-0.18
Mof_H 	H 	0.1184	0.565	0.6322	-0.012
Mof_H 	H 	0.1918	0.5702	0.6782	0.092
Mof_H 	H 	0.2228	0.7195	0.6166	0.105
Mof_H 	H 	0.1549	0.7098	0.5679	-0.022
Mof_H 	H 	0.3181	0.6662	0.6608	0.082
Mof_H 	H 	0.2566	0.6739	0.6967	0.075
Mof_H 	H 	0.4336	0.7094	0.3935	0.141
Mof_H 	H 	0.5262	0.6775	0.3877	-0.019
Mof_H 	H 	0.5125	0.6054	0.3765	0.103
Mof_H 	H 	0.401	0.5615	0.3797	-0.017
Mof_H 	H 	0.0145	0.5711	0.3908	0.119
Mof_H 	H 	0.0417	0.525	0.3933	0.113
Mof_H 	H 	0.0772	0.6214	0.2995	0.017
Mof_H 	H 	0.111	0.5785	0.3007	0.014
Mof_H 	H 	0.9606	0.5632	0.3238	0.083
Mof_H 	H 	0.9923	0.5186	0.3281	0.091
Mof_H 	H 	0.0231	0.6116	0.2327	0.036
Mof_H 	H 	0.0612	0.5704	0.2359	0.039
Mof_H 	H 	0.9464	0.5064	0.2634	0.066
Mof_H 	H 	0.9091	0.5482	0.259	0.061
Mof_H 	H 	0.9732	0.5969	0.1691	0.039
Mof_H 	H 	0.0112	0.5556	0.1734	0.035
Mof_H 	H 	0.8606	0.5295	0.1998	0.064
Mof_H 	H 	0.9049	0.494	0.1943	0.065
Mof_H 	H 	0.9065	0.5844	0.1095	0.026
Mof_H 	H 	0.9572	0.5529	0.1026	0.023
Mof_H 	H 	0.804	0.5153	0.1358	0.108
Mof_H 	H 	0.8497	0.4786	0.1378	0.106
Mof_H 	H 	0.856	0.5638	0.0451	-0.049
Mof_H 	H 	0.9103	0.5336	0.0446	-0.051
Mof_H 	H 	0.8134	0.4603	0.0694	0.216
Mof_H 	H 	0.8274	0.5083	0.0145	0.216
Mof_H 	H 	0.7626	0.494	0.0647	0.224
Mof_H 	H 	0.7224	0.4345	0.7837	0.131
Mof_H 	H 	0.7673	0.4557	0.8385	0.001
Mof_H 	H 	0.8845	0.5144	0.8072	0.083
Mof_H 	H 	0.9571	0.5526	0.7194	0.001
Mof_H 	H 	0.9795	0.5768	0.4601	0.112
Mof_H 	H 	0.0075	0.629	0.4616	0.111
Mof_H 	H 	0.9542	0.6358	0.3976	0
Mof_H 	H 	0.8776	0.6001	0.4444	0.006
Mof_H 	H 	0.8877	0.6593	0.4727	0.086
Mof_H 	H 	0.9683	0.6931	0.4318	0.085
Mof_H 	H 	0.8429	0.6797	0.4049	0.03
Mof_H 	H 	0.9228	0.7119	0.3636	0.03
Mof_H 	H 	0.8545	0.7435	0.43	0.063
Mof_H 	H 	0.9319	0.7767	0.384	0.059
Mof_H 	H 	0.3169	0.6497	0.8345	-0.041
Mof_H 	H 	0.2865	0.6685	0.7618	0.135
Mof_H 	H 	0.3527	0.5603	0.7535	0.081
Mof_H 	H 	0.4117	0.5652	0.81	-0.01
Mof_H 	H 	0.2011	0.5819	0.7469	0.066
Mof_H 	H 	0.2721	0.579	0.7146	0.065
Mof_H 	H 	0.4887	0.4833	0.2737	0.119
Mof_H 	H 	0.5093	0.5535	0.2863	-0.045
Mof_H 	H 	0.4897	0.6279	0.2299	0.08
Mof_H 	H 	0.4438	0.626	0.168	-0.004
Mof_H 	H 	0.3546	0.4722	0.0307	0.198
Mof_H 	H 	0.3195	0.5139	0.0313	0.184
Mof_H 	H 	0.2619	0.4103	0.0828	-0.076
Mof_H 	H 	0.243	0.45	0.0391	-0.094
Mof_H 	H 	0.1954	0.4284	0.1363	0.145
Mof_H 	H 	0.17	0.4578	0.0904	0.135
Mof_H 	H 	0.132	0.3472	0.1466	0.02
Mof_H 	H 	0.078	0.3776	0.1503	0.015
Mof_H 	H 	0.1438	0.3738	0.0556	0.029
Mof_H 	H 	0.0948	0.4081	0.0563	0.02
Mof_H 	H 	0.0373	0.2961	0.121	0.138
Mof_H 	H 	0.9901	0.3322	0.1142	0.136
Mof_H 	H 	0.0582	0.3127	0.0332	-0.169
Mof_H 	H 	0.0143	0.3514	0.0242	-0.165
Mof_H 	H 	0.9096	0.2808	0.0901	0.453
Mof_H 	H 	0.9545	0.243	0.094	0.459
Mof_H 	H 	0.9691	0.2587	0.0161	-0.488
Mof_H 	H 	0.9424	0.3073	0.0029	-0.478
Mof_H 	H 	0.8645	0.2059	0.0797	0.454
Mof_H 	H 	0.8379	0.2536	0.0716	0.446
Mof_H 	H 	0.7965	0.2382	0.0154	-0.181
Mof_H 	H 	0.8786	0.2697	0.9767	-0.174
Mof_H 	H 	0.8491	0.2078	0.0087	-0.179
Mof_H 	H 	0.2494	0.3678	0.1972	-0.012
Mof_H 	H 	0.13	0.3218	0.2484	0.092
Mof_H 	H 	0.1606	0.3834	0.3361	0.106
Mof_H 	H 	0.2772	0.4321	0.2777	-0.022
Mof_H 	H 	0.0211	0.3392	0.327	0.082
Mof_H 	H 	0.0467	0.3033	0.3706	0.076
Mof_H 	H 	0.1729	0.6065	0.1029	0.141
Mof_H 	H 	0.0861	0.6123	0.0652	-0.019
Mof_H 	H 	0.111	0.6235	0.9819	0.103
Mof_H 	H 	0.2193	0.6203	0.9412	-0.016
Mof_H 	H 	0.5947	0.6092	0.9619	0.119
Mof_H 	H 	0.565	0.6067	0.9183	0.113
Mof_H 	H 	0.6233	0.7005	0.9209	0.017
Mof_H 	H 	0.5883	0.6993	0.8792	0.014
Mof_H 	H 	0.7156	0.6762	0.887	0.082
Mof_H 	H 	0.6796	0.6719	0.8467	0.09
Mof_H 	H 	0.7442	0.7673	0.8443	0.036
Mof_H 	H 	0.7029	0.7641	0.8063	0.04
Mof_H 	H 	0.7902	0.7366	0.7698	0.066
Mof_H 	H 	0.8319	0.741	0.8072	0.061
Mof_H 	H 	0.8577	0.8309	0.766	0.04
Mof_H 	H 	0.8154	0.8266	0.729	0.036
Mof_H 	H 	0.9396	0.8002	0.7293	0.064
Mof_H 	H 	0.9008	0.8057	0.6883	0.065
Mof_H 	H 	0.984	0.8905	0.6939	0.026
Mof_H 	H 	0.9402	0.8974	0.6555	0.024
Mof_H 	H 	0.0602	0.8642	0.6511	0.108
Mof_H 	H 	0.0125	0.8622	0.6164	0.106
Mof_H 	H 	0.0989	0.9549	0.6089	-0.049
Mof_H 	H 	0.0451	0.9554	0.5782	-0.051
Mof_H 	H 	0.1172	0.9306	0.5297	0.216
Mof_H 	H 	0.1581	0.9855	0.5228	0.216
Mof_H 	H 	0.1727	0.9353	0.5587	0.223
Mof_H 	H 	0.4939	0.2163	0.2182	0.131
Mof_H 	H 	0.3942	0.1615	0.2942	0.001
Mof_H 	H 	0.3083	0.1928	0.3216	0.083
Mof_H 	H 	0.3235	0.2806	0.272	0.001
Mof_H 	H 	0.5604	0.5399	0.0369	0.113
Mof_H 	H 	0.5309	0.5384	0.0906	0.111
Mof_H 	H 	0.6482	0.6024	0.0334	0
Mof_H 	H 	0.678	0.5556	0.0445	0.006
Mof_H 	H 	0.6396	0.5273	0.132	0.086
Mof_H 	H 	0.5999	0.5682	0.1249	0.084
Mof_H 	H 	0.7522	0.5951	0.0846	0.03
Mof_H 	H 	0.7136	0.6364	0.0755	0.03
Mof_H 	H 	0.7155	0.57	0.1735	0.063
Mof_H 	H 	0.6841	0.616	0.1607	0.059
Mof_H 	H 	0.8486	0.1655	0.4842	-0.041
Mof_H 	H 	0.9517	0.2382	0.4303	0.135
Mof_H 	H 	0.8938	0.2465	0.3138	0.081
Mof_H 	H 	0.7783	0.19	0.3752	-0.01
Mof_H 	H 	0.052	0.2531	0.3288	0.065
Mof_H 	H 	0.0133	0.2854	0.2936	0.065
Mof_H 	H 	0.7624	0.2737	0.243	0.119
Mof_H 	H 	0.7956	0.2863	0.1602	-0.045
Mof_H 	H 	0.7196	0.2299	0.1422	0.081
Mof_H 	H 	0.6118	0.168	0.206	-0.004
Mof_H 	H 	0.3853	0.0307	0.4971	0.197
Mof_H 	H 	0.3508	0.0313	0.4548	0.183
Mof_H 	H 	0.3447	0.0828	0.5069	-0.074
Mof_H 	H 	0.2821	0.0391	0.5109	-0.092
Mof_H 	H 	0.3317	0.1363	0.4353	0.143
Mof_H 	H 	0.2604	0.0904	0.4518	0.134
Mof_H 	H 	0.2786	0.1466	0.5062	0.021
Mof_H 	H 	0.2283	0.1503	0.4721	0.016
Mof_H 	H 	0.1994	0.0556	0.5706	0.027
Mof_H 	H 	0.1511	0.0563	0.5356	0.018
Mof_H 	H 	0.1583	0.121	0.5829	0.143
Mof_H 	H 	0.1043	0.1142	0.5536	0.141
Mof_H 	H 	0.0914	0.0332	0.6541	-0.181
Mof_H 	H 	0.0385	0.0242	0.6244	-0.176
Mof_H 	H 	0.9997	0.0901	0.6291	0.474
Mof_H 	H 	0.0485	0.094	0.663	0.482
Mof_H 	H 	0.9852	0.0161	0.7252	-0.519
Mof_H 	H 	0.9453	0.0029	0.6898	-0.508
Mof_H 	H 	0.9442	0.0797	0.7144	0.478
Mof_H 	H 	0.9095	0.0716	0.6748	0.471
Mof_H 	H 	0.8119	0.0154	0.7464	-0.198
Mof_H 	H 	0.8553	0.9767	0.7536	-0.189
Mof_H 	H 	0.8578	0.0087	0.7835	-0.196
Mof_H 	H 	0.4466	0.1972	0.435	-0.012
Mof_H 	H 	0.3784	0.2484	0.4298	0.092
Mof_H 	H 	0.4967	0.3361	0.2805	0.105
Mof_H 	H 	0.5549	0.2777	0.2902	-0.022
Mof_H 	H 	0.3481	0.327	0.3338	0.082
Mof_H 	H 	0.4173	0.3706	0.3261	0.075
Mof_H 	H 	0.2758	0.1029	0.2906	0.142
Mof_H 	H 	0.1513	0.0652	0.3225	-0.019
Mof_H 	H 	0.0929	0.9819	0.3946	0.104
Mof_H 	H 	0.1605	0.9412	0.4385	-0.018
Mof_H 	H 	0.5566	0.9619	0.4289	0.119
Mof_H 	H 	0.4833	0.9183	0.475	0.113
Mof_H 	H 	0.5442	0.9209	0.3786	0.017
Mof_H 	H 	0.4675	0.8792	0.4215	0.014
Mof_H 	H 	0.6026	0.887	0.4368	0.082
Mof_H 	H 	0.5263	0.8467	0.4814	0.09
Mof_H 	H 	0.5885	0.8443	0.3884	0.036
Mof_H 	H 	0.5092	0.8063	0.4296	0.04
Mof_H 	H 	0.56	0.7698	0.4936	0.066
Mof_H 	H 	0.6391	0.8072	0.4518	0.061
Mof_H 	H 	0.6237	0.766	0.4031	0.04
Mof_H 	H 	0.5444	0.729	0.4444	0.036
Mof_H 	H 	0.6689	0.7293	0.4705	0.064
Mof_H 	H 	0.5891	0.6883	0.506	0.065
Mof_H 	H 	0.6779	0.6939	0.4156	0.026
Mof_H 	H 	0.5957	0.6555	0.4471	0.023
Mof_H 	H 	0.7113	0.6511	0.4847	0.108
Mof_H 	H 	0.6289	0.6164	0.5214	0.106
Mof_H 	H 	0.7078	0.6089	0.4362	-0.049
Mof_H 	H 	0.6233	0.5782	0.4664	-0.051
Mof_H 	H 	0.6469	0.5297	0.5397	0.216
Mof_H 	H 	0.6809	0.5228	0.4917	0.216
Mof_H 	H 	0.7314	0.5587	0.506	0.223
Mof_H 	H 	0.7121	0.2182	0.5655	0.131
Mof_H 	H 	0.6884	0.2942	0.5443	0.001
Mof_H 	H 	0.6299	0.3216	0.4856	0.083
Mof_H 	H 	0.5955	0.272	0.4474	0.001
Mof_H 	H 	0.5973	0.0369	0.4232	0.113
Mof_H 	H 	0.6215	0.0906	0.371	0.111
Mof_H 	H 	0.6816	0.0334	0.3642	-0
Mof_H 	H 	0.7225	0.0445	0.3999	0.006
Mof_H 	H 	0.7716	0.132	0.3407	0.086
Mof_H 	H 	0.7248	0.1249	0.3069	0.085
Mof_H 	H 	0.8368	0.0846	0.3203	0.03
Mof_H 	H 	0.7891	0.0755	0.2881	0.03
Mof_H 	H 	0.889	0.1735	0.2565	0.063
Mof_H 	H 	0.8448	0.1607	0.2233	0.059
Mof_H 	H 	0.3328	0.4842	0.3503	-0.041
Mof_H 	H 	0.382	0.4303	0.3315	0.135
Mof_H 	H 	0.2076	0.3138	0.4397	0.081
Mof_H 	H 	0.1535	0.3752	0.4348	-0.01
Mof_H 	H 	0.3808	0.3288	0.4181	0.066
Mof_H 	H 	0.3069	0.2936	0.421	0.065
Mof_H 	H 	0.0054	0.243	0.4833	0.12
Mof_H 	H 	0.9558	0.1602	0.5535	-0.046
Mof_H 	H 	0.8618	0.1422	0.6279	0.08
Mof_H 	H 	0.8178	0.206	0.626	-0.004
Mof_H 	H 	0.8824	0.4971	0.4722	0.198
Mof_H 	H 	0.8056	0.4548	0.5139	0.184
Mof_H 	H 	0.8516	0.5069	0.4103	-0.075
Mof_H 	H 	0.793	0.5109	0.45	-0.094
Mof_H 	H 	0.767	0.4353	0.4284	0.145
Mof_H 	H 	0.7122	0.4518	0.4578	0.135
Mof_H 	H 	0.7848	0.5062	0.3472	0.02
Mof_H 	H 	0.7004	0.4721	0.3776	0.015
Mof_H 	H 	0.77	0.5706	0.3738	0.029
Mof_H 	H 	0.6867	0.5356	0.4081	0.02
Mof_H 	H 	0.7412	0.5829	0.2961	0.139
Mof_H 	H 	0.6579	0.5536	0.3322	0.136
Mof_H 	H 	0.7455	0.6541	0.3127	-0.171
Mof_H 	H 	0.6629	0.6244	0.3514	-0.167
Mof_H 	H 	0.6288	0.6291	0.2808	0.455
Mof_H 	H 	0.7115	0.663	0.243	0.462
Mof_H 	H 	0.7104	0.7252	0.2587	-0.492
Mof_H 	H 	0.6351	0.6898	0.3073	-0.481
Mof_H 	H 	0.6586	0.7144	0.2059	0.456
Mof_H 	H 	0.5843	0.6748	0.2536	0.448
Mof_H 	H 	0.5583	0.7464	0.2382	-0.182
Mof_H 	H 	0.6089	0.7536	0.2697	-0.175
Mof_H 	H 	0.6413	0.7835	0.2078	-0.18
Mof_H 	H 	0.8816	0.435	0.3678	-0.012
Mof_H 	H 	0.8082	0.4298	0.3218	0.092
Mof_H 	H 	0.7772	0.2805	0.3834	0.105
Mof_H 	H 	0.8451	0.2902	0.4321	-0.022
Mof_H 	H 	0.6819	0.3338	0.3392	0.082
Mof_H 	H 	0.7434	0.3261	0.3033	0.075
Mof_H 	H 	0.5664	0.2906	0.6065	0.141
Mof_H 	H 	0.4738	0.3225	0.6123	-0.019
Mof_H 	H 	0.4875	0.3946	0.6235	0.103
Mof_H 	H 	0.599	0.4385	0.6203	-0.017
Mof_H 	H 	0.9855	0.4289	0.6092	0.119
Mof_H 	H 	0.9583	0.475	0.6067	0.113
Mof_H 	H 	0.9228	0.3786	0.7005	0.017
Mof_H 	H 	0.889	0.4215	0.6993	0.014
Mof_H 	H 	0.0394	0.4368	0.6762	0.083
Mof_H 	H 	0.0077	0.4814	0.6719	0.091
Mof_H 	H 	0.9769	0.3884	0.7673	0.036
Mof_H 	H 	0.9388	0.4296	0.7641	0.039
Mof_H 	H 	0.0536	0.4936	0.7366	0.066
Mof_H 	H 	0.0909	0.4518	0.741	0.061
Mof_H 	H 	0.0268	0.4031	0.8309	0.039
Mof_H 	H 	0.9888	0.4444	0.8266	0.035
Mof_H 	H 	0.1394	0.4705	0.8002	0.064
Mof_H 	H 	0.0951	0.506	0.8057	0.065
Mof_H 	H 	0.0935	0.4156	0.8905	0.026
Mof_H 	H 	0.0428	0.4471	0.8974	0.023
Mof_H 	H 	0.196	0.4847	0.8642	0.108
Mof_H 	H 	0.1503	0.5214	0.8622	0.106
Mof_H 	H 	0.144	0.4362	0.9549	-0.049
Mof_H 	H 	0.0897	0.4664	0.9554	-0.051
Mof_H 	H 	0.1866	0.5397	0.9306	0.216
Mof_H 	H 	0.1726	0.4917	0.9855	0.216
Mof_H 	H 	0.2374	0.506	0.9353	0.224
Mof_H 	H 	0.2776	0.5655	0.2163	0.131
Mof_H 	H 	0.2327	0.5443	0.1615	0.001
Mof_H 	H 	0.1155	0.4856	0.1928	0.083
Mof_H 	H 	0.0429	0.4474	0.2806	0.001
Mof_H 	H 	0.0205	0.4232	0.5399	0.112
Mof_H 	H 	0.9925	0.371	0.5384	0.111
Mof_H 	H 	0.0458	0.3642	0.6024	0
Mof_H 	H 	0.1224	0.3999	0.5556	0.006
Mof_H 	H 	0.1123	0.3407	0.5273	0.086
Mof_H 	H 	0.0317	0.3069	0.5682	0.085
Mof_H 	H 	0.1571	0.3203	0.5951	0.03
Mof_H 	H 	0.0772	0.2881	0.6364	0.03
Mof_H 	H 	0.1455	0.2565	0.57	0.063
Mof_H 	H 	0.0681	0.2233	0.616	0.059
Mof_H 	H 	0.6831	0.3503	0.1655	-0.041
Mof_H 	H 	0.7135	0.3315	0.2382	0.135
Mof_H 	H 	0.6473	0.4397	0.2465	0.081
Mof_H 	H 	0.5883	0.4348	0.19	-0.01
Mof_H 	H 	0.7989	0.4181	0.2531	0.066
Mof_H 	H 	0.7279	0.421	0.2854	0.065
Mof_C 	C 	0.55504	0.49193	0.78121	0.311
Mof_C 	C 	0.5233	0.4882	0.7467	-0.282
Mof_C 	C 	0.5086	0.4461	0.74	0.141
Mof_C 	C 	0.5211	0.4024	0.7731	-0.207
Mof_C 	C 	0.54863	0.40379	0.8095	0.139
Mof_C 	C 	0.5661	0.44738	0.81448	-0.247
Mof_C 	C 	0.59237	0.44403	0.85652	0.299
Mof_C 	C 	0.65208	0.51944	0.9064	0.358
Mof_C 	C 	0.67964	0.52081	0.94689	-0.583
Mof_C 	C 	0.7473	0.5569	0.9288	0.411
Mof_C 	C 	0.8129	0.5712	0.8945	-0.417
Mof_C 	C 	0.8794	0.622	0.8733	0.005
Mof_C 	C 	0.8979	0.6243	0.9224	0.002
Mof_C 	C 	0.9674	0.6721	0.9042	-0.421
Mof_C 	C 	0.9825	0.6806	0.9496	0.69
Mof_C 	C 	0.0501	0.7244	0.9295	-1.553
Mof_C 	C 	0.0629	0.727	0.9693	1.787
Mof_C 	C 	0.1314	0.7593	0.9461	-1.504
Mof_C 	C 	0.1538	0.761	0.9904	0.719
Mof_C 	C 	0.7704	0.6271	0.7749	0.133
Mof_C 	C 	0.8412	0.6554	0.7438	-0.218
Mof_C 	C 	0.87115	0.6518	0.70195	0.164
Mof_C 	C 	0.824	0.6196	0.6939	-0.223
Mof_C 	C 	0.7535	0.5907	0.7289	0.16
Mof_C 	C 	0.9502	0.6836	0.6658	-0.165
Mof_C 	C 	0.75148	0.39023	0.95509	0.328
Mof_C 	C 	0.8172	0.3904	0.9303	-0.303
Mof_C 	C 	0.8684	0.3864	0.953	0.171
Mof_C 	C 	0.8545	0.3808	0.0017	-0.229
Mof_C 	C 	0.7893	0.3815	0.0261	0.147
Mof_C 	C 	0.73633	0.38457	0.00508	-0.264
Mof_C 	C 	0.66878	0.38419	0.03455	0.301
Mof_C 	C 	0.50291	0.38272	0.03059	0.274
Mof_C 	C 	0.4304	0.37529	0.06159	-0.311
Mof_C 	C 	0.38478	0.31696	0.09932	0.045
Mof_C 	C 	0.3124	0.3092	0.1344	-0.18
Mof_C 	C 	0.2676	0.2513	0.1743	-0.034
Mof_C 	C 	0.1979	0.2442	0.2122	-0.138
Mof_C 	C 	0.1544	0.1883	0.252	-0.036
Mof_C 	C 	0.0863	0.1797	0.2902	-0.16
Mof_C 	C 	0.0336	0.1236	0.3268	0.028
Mof_C 	C 	0.9699	0.119	0.3666	-0.296
Mof_C 	C 	0.9225	0.0621	0.4084	0.265
Mof_C 	C 	0.8638	0.0518	0.453	-0.659
Mof_C 	C 	0.52749	0.71638	0.79821	0.299
Mof_C 	C 	0.53954	0.77038	0.76986	-0.245
Mof_C 	C 	0.5995	0.8031	0.7253	0.115
Mof_C 	C 	0.6504	0.7846	0.7089	-0.181
Mof_C 	C 	0.6403	0.7317	0.7382	0.115
Mof_C 	C 	0.57846	0.69782	0.78124	-0.241
Mof_C 	C 	0.56956	0.64276	0.80568	0.302
Mof_C 	C 	0.44588	0.5257	0.90126	0.281
Mof_C 	C 	0.43228	0.46866	0.93002	-0.319
Mof_C 	C 	0.36	0.4338	0.941	0.087
Mof_C 	C 	0.3576	0.4375	0.8916	-0.204
Mof_C 	C 	0.2894	0.3983	0.8992	-0.005
Mof_C 	C 	0.279	0.3954	0.8537	-0.164
Mof_C 	C 	0.1455	0.8157	0.5513	0.234
Mof_C 	C 	0.0771	0.7772	0.5836	-0.31
Mof_C 	C 	0.055	0.7637	0.6292	0.187
Mof_C 	C 	0.1148	0.7708	0.6501	-0.193
Mof_C 	C 	0.1825	0.8038	0.6135	0.094
Mof_C 	C 	0.9811	0.7275	0.6722	-0.168
Mof_C 	C 	0.33625	0.78121	0.72686	0.311
Mof_C 	C 	0.27	0.7467	0.7651	-0.282
Mof_C 	C 	0.2486	0.74	0.8139	0.141
Mof_C 	C 	0.2942	0.7731	0.8245	-0.207
Mof_C 	C 	0.35813	0.8095	0.78671	0.139
Mof_C 	C 	0.38058	0.81448	0.73814	-0.247
Mof_C 	C 	0.44889	0.85652	0.69945	0.299
Mof_C 	C 	0.55848	0.9064	0.57416	0.357
Mof_C 	C 	0.62653	0.94689	0.5323	-0.579
Mof_C 	C 	0.6761	0.9288	0.5143	0.406
Mof_C 	C 	0.7074	0.8945	0.5343	-0.413
Mof_C 	C 	0.7527	0.8733	0.5047	0
Mof_C 	C 	0.8203	0.9224	0.4533	0.011
Mof_C 	C 	0.8716	0.9042	0.4237	-0.44
Mof_C 	C 	0.9321	0.9496	0.3698	0.733
Mof_C 	C 	0.9796	0.9295	0.3461	-1.633
Mof_C 	C 	0.0322	0.9693	0.3037	1.893
Mof_C 	C 	0.0775	0.9461	0.2946	-1.591
Mof_C 	C 	0.1442	0.9904	0.2486	0.778
Mof_C 	C 	0.5453	0.7749	0.598	0.133
Mof_C 	C 	0.585	0.7438	0.6008	-0.218
Mof_C 	C 	0.5731	0.70195	0.64625	0.164
Mof_C 	C 	0.5179	0.6939	0.6865	-0.222
Mof_C 	C 	0.4824	0.7289	0.6804	0.16
Mof_C 	C 	0.616	0.6658	0.6506	-0.165
Mof_C 	C 	0.70657	0.95509	0.65468	0.332
Mof_C 	C 	0.7475	0.9303	0.6793	-0.307
Mof_C 	C 	0.8214	0.953	0.6606	0.177
Mof_C 	C 	0.8562	0.0017	0.6175	-0.234
Mof_C 	C 	0.8154	0.0261	0.5924	0.15
Mof_C 	C 	0.74141	0.00508	0.61035	-0.267
Mof_C 	C 	0.70333	0.03455	0.58126	0.302
Mof_C 	C 	0.5335	0.03059	0.58669	0.274
Mof_C 	C 	0.49199	0.06159	0.56312	-0.311
Mof_C 	C 	0.4841	0.09932	0.58372	0.045
Mof_C 	C 	0.4468	0.1344	0.5564	-0.18
Mof_C 	C 	0.4419	0.1743	0.5744	-0.033
Mof_C 	C 	0.4101	0.2122	0.5436	-0.138
Mof_C 	C 	0.4064	0.252	0.5597	-0.035
Mof_C 	C 	0.3765	0.2902	0.5301	-0.16
Mof_C 	C 	0.3604	0.3268	0.5496	0.028
Mof_C 	C 	0.3365	0.3666	0.5144	-0.295
Mof_C 	C 	0.3309	0.4084	0.5295	0.265
Mof_C 	C 	0.3168	0.453	0.4952	-0.66
Mof_C 	C 	0.3257	0.79821	0.48541	0.299
Mof_C 	C 	0.3094	0.76986	0.45976	-0.245
Mof_C 	C 	0.3248	0.7253	0.4716	0.115
Mof_C 	C 	0.3593	0.7089	0.5065	-0.181
Mof_C 	C 	0.3785	0.7382	0.5301	0.115
Mof_C 	C 	0.3597	0.78124	0.52094	-0.241
Mof_C 	C 	0.37524	0.80568	0.55156	0.302
Mof_C 	C 	0.34714	0.90126	0.57304	0.282
Mof_C 	C 	0.3623	0.93002	0.60132	-0.319
Mof_C 	C 	0.301	0.941	0.6252	0.087
Mof_C 	C 	0.2492	0.8916	0.6709	-0.204
Mof_C 	C 	0.1886	0.8992	0.7025	-0.005
Mof_C 	C 	0.1327	0.8537	0.7509	-0.164
Mof_C 	C 	0.6968	0.5513	0.633	0.235
Mof_C 	C 	0.6607	0.5836	0.6392	-0.31
Mof_C 	C 	0.6842	0.6292	0.6071	0.188
Mof_C 	C 	0.7649	0.6501	0.5791	-0.193
Mof_C 	C 	0.796	0.6135	0.5827	0.094
Mof_C 	C 	0.6533	0.6722	0.6003	-0.169
Mof_C 	C 	0.06311	0.72686	0.49193	0.312
Mof_C 	C 	0.0351	0.7651	0.4882	-0.284
Mof_C 	C 	0.0625	0.8139	0.4461	0.142
Mof_C 	C 	0.1187	0.8245	0.4024	-0.208
Mof_C 	C 	0.14484	0.78671	0.40379	0.139
Mof_C 	C 	0.11872	0.73814	0.44738	-0.248
Mof_C 	C 	0.14834	0.69945	0.44403	0.299
Mof_C 	C 	0.13264	0.57416	0.51944	0.358
Mof_C 	C 	0.15883	0.5323	0.52081	-0.583
Mof_C 	C 	0.1904	0.5143	0.5569	0.41
Mof_C 	C 	0.2417	0.5343	0.5712	-0.417
Mof_C 	C 	0.2574	0.5047	0.622	0.005
Mof_C 	C 	0.2736	0.4533	0.6243	0.003
Mof_C 	C 	0.2953	0.4237	0.6721	-0.423
Mof_C 	C 	0.3019	0.3698	0.6806	0.695
Mof_C 	C 	0.3257	0.3461	0.7244	-1.563
Mof_C 	C 	0.3359	0.3037	0.727	1.798
Mof_C 	C 	0.3721	0.2946	0.7593	-1.512
Mof_C 	C 	0.3928	0.2486	0.761	0.723
Mof_C 	C 	0.1433	0.598	0.6271	0.133
Mof_C 	C 	0.1858	0.6008	0.6554	-0.218
Mof_C 	C 	0.21935	0.64625	0.6518	0.164
Mof_C 	C 	0.2044	0.6865	0.6196	-0.222
Mof_C 	C 	0.1628	0.6804	0.5907	0.16
Mof_C 	C 	0.2666	0.6506	0.6836	-0.165
Mof_C 	C 	0.36125	0.65468	0.39023	0.33
Mof_C 	C 	0.4268	0.6793	0.3904	-0.305
Mof_C 	C 	0.482	0.6606	0.3864	0.173
Mof_C 	C 	0.4737	0.6175	0.3808	-0.231
Mof_C 	C 	0.4078	0.5924	0.3815	0.148
Mof_C 	C 	0.35176	0.61035	0.38457	-0.265
Mof_C 	C 	0.28459	0.58126	0.38419	0.302
Mof_C 	C 	0.12019	0.58669	0.38272	0.274
Mof_C 	C 	0.05511	0.56312	0.37529	-0.312
Mof_C 	C 	0.06782	0.58372	0.31696	0.046
Mof_C 	C 	0.0032	0.5564	0.3092	-0.181
Mof_C 	C 	0.0163	0.5744	0.2513	-0.033
Mof_C 	C 	0.9537	0.5436	0.2442	-0.139
Mof_C 	C 	0.9661	0.5597	0.1883	-0.034
Mof_C 	C 	0.9066	0.5301	0.1797	-0.161
Mof_C 	C 	0.91	0.5496	0.1236	0.028
Mof_C 	C 	0.8509	0.5144	0.119	-0.296
Mof_C 	C 	0.8604	0.5295	0.0621	0.265
Mof_C 	C 	0.812	0.4952	0.0518	-0.66
Mof_C 	C 	0.81111	0.48541	0.71638	0.299
Mof_C 	C 	0.76916	0.45976	0.77038	-0.245
Mof_C 	C 	0.7964	0.4716	0.8031	0.115
Mof_C 	C 	0.8658	0.5065	0.7846	-0.181
Mof_C 	C 	0.9086	0.5301	0.7317	0.115
Mof_C 	C 	0.88064	0.52094	0.69782	-0.241
Mof_C 	C 	0.9268	0.55156	0.64276	0.302
Mof_C 	C 	0.92018	0.57304	0.5257	0.281
Mof_C 	C 	0.96362	0.60132	0.46866	-0.318
Mof_C 	C 	0.9262	0.6252	0.4338	0.086
Mof_C 	C 	0.9201	0.6709	0.4375	-0.204
Mof_C 	C 	0.8911	0.7025	0.3983	-0.005
Mof_C 	C 	0.8836	0.7509	0.3954	-0.164
Mof_C 	C 	0.3298	0.633	0.8157	0.235
Mof_C 	C 	0.2999	0.6392	0.7772	-0.31
Mof_C 	C 	0.2913	0.6071	0.7637	0.188
Mof_C 	C 	0.344	0.5791	0.7708	-0.193
Mof_C 	C 	0.3787	0.5827	0.8038	0.094
Mof_C 	C 	0.2536	0.6003	0.7275	-0.169
Mof_C 	C 	0.44496	0.50807	0.21879	0.311
Mof_C 	C 	0.4767	0.5118	0.2533	-0.282
Mof_C 	C 	0.4914	0.5539	0.26	0.141
Mof_C 	C 	0.4789	0.5976	0.2269	-0.207
Mof_C 	C 	0.45137	0.59621	0.1905	0.139
Mof_C 	C 	0.4339	0.55262	0.18552	-0.247
Mof_C 	C 	0.40763	0.55597	0.14348	0.299
Mof_C 	C 	0.34792	0.48056	0.0936	0.358
Mof_C 	C 	0.32036	0.47919	0.05311	-0.583
Mof_C 	C 	0.2527	0.4431	0.0712	0.411
Mof_C 	C 	0.1871	0.4288	0.1055	-0.417
Mof_C 	C 	0.1206	0.378	0.1267	0.005
Mof_C 	C 	0.1021	0.3757	0.0776	0.002
Mof_C 	C 	0.0326	0.3279	0.0958	-0.421
Mof_C 	C 	0.0175	0.3194	0.0504	0.69
Mof_C 	C 	0.9499	0.2756	0.0705	-1.553
Mof_C 	C 	0.9371	0.273	0.0307	1.787
Mof_C 	C 	0.8686	0.2407	0.0539	-1.504
Mof_C 	C 	0.8462	0.239	0.0096	0.719
Mof_C 	C 	0.2296	0.3729	0.2251	0.133
Mof_C 	C 	0.1588	0.3446	0.2562	-0.218
Mof_C 	C 	0.12885	0.3482	0.29805	0.164
Mof_C 	C 	0.176	0.3804	0.3061	-0.223
Mof_C 	C 	0.2465	0.4093	0.2711	0.16
Mof_C 	C 	0.0498	0.3164	0.3342	-0.165
Mof_C 	C 	0.24852	0.60977	0.04491	0.328
Mof_C 	C 	0.1828	0.6096	0.0697	-0.303
Mof_C 	C 	0.1316	0.6136	0.047	0.171
Mof_C 	C 	0.1455	0.6192	0.9983	-0.229
Mof_C 	C 	0.2107	0.6185	0.9739	0.147
Mof_C 	C 	0.26367	0.61543	0.99492	-0.264
Mof_C 	C 	0.33122	0.61581	0.96545	0.301
Mof_C 	C 	0.49709	0.61728	0.96941	0.274
Mof_C 	C 	0.5696	0.62471	0.93841	-0.311
Mof_C 	C 	0.61522	0.68304	0.90068	0.045
Mof_C 	C 	0.6876	0.6908	0.8656	-0.18
Mof_C 	C 	0.7324	0.7487	0.8257	-0.034
Mof_C 	C 	0.8021	0.7558	0.7878	-0.138
Mof_C 	C 	0.8456	0.8117	0.748	-0.036
Mof_C 	C 	0.9137	0.8203	0.7098	-0.16
Mof_C 	C 	0.9664	0.8764	0.6732	0.028
Mof_C 	C 	0.0301	0.881	0.6334	-0.296
Mof_C 	C 	0.0775	0.9379	0.5916	0.265
Mof_C 	C 	0.1362	0.9482	0.547	-0.659
Mof_C 	C 	0.47251	0.28362	0.20179	0.299
Mof_C 	C 	0.46046	0.22962	0.23014	-0.245
Mof_C 	C 	0.4005	0.1969	0.2747	0.115
Mof_C 	C 	0.3496	0.2154	0.2911	-0.181
Mof_C 	C 	0.3597	0.2683	0.2618	0.115
Mof_C 	C 	0.42154	0.30218	0.21876	-0.241
Mof_C 	C 	0.43044	0.35724	0.19432	0.302
Mof_C 	C 	0.55412	0.4743	0.09874	0.281
Mof_C 	C 	0.56772	0.53134	0.06998	-0.319
Mof_C 	C 	0.64	0.5662	0.059	0.087
Mof_C 	C 	0.6424	0.5625	0.1084	-0.204
Mof_C 	C 	0.7106	0.6017	0.1008	-0.005
Mof_C 	C 	0.721	0.6046	0.1463	-0.164
Mof_C 	C 	0.8545	0.1843	0.4487	0.234
Mof_C 	C 	0.9229	0.2228	0.4164	-0.31
Mof_C 	C 	0.945	0.2363	0.3708	0.187
Mof_C 	C 	0.8852	0.2292	0.3499	-0.193
Mof_C 	C 	0.8175	0.1962	0.3865	0.094
Mof_C 	C 	0.0189	0.2725	0.3278	-0.168
Mof_C 	C 	0.66375	0.21879	0.27314	0.311
Mof_C 	C 	0.73	0.2533	0.2349	-0.282
Mof_C 	C 	0.7514	0.26	0.1861	0.141
Mof_C 	C 	0.7058	0.2269	0.1755	-0.207
Mof_C 	C 	0.64187	0.1905	0.21329	0.139
Mof_C 	C 	0.61942	0.18552	0.26186	-0.247
Mof_C 	C 	0.55111	0.14348	0.30055	0.299
Mof_C 	C 	0.44152	0.0936	0.42584	0.357
Mof_C 	C 	0.37347	0.05311	0.4677	-0.579
Mof_C 	C 	0.3239	0.0712	0.4857	0.406
Mof_C 	C 	0.2926	0.1055	0.4657	-0.413
Mof_C 	C 	0.2473	0.1267	0.4953	0
Mof_C 	C 	0.1797	0.0776	0.5467	0.011
Mof_C 	C 	0.1284	0.0958	0.5763	-0.44
Mof_C 	C 	0.0679	0.0504	0.6302	0.733
Mof_C 	C 	0.0204	0.0705	0.6539	-1.633
Mof_C 	C 	0.9678	0.0307	0.6963	1.893
Mof_C 	C 	0.9225	0.0539	0.7054	-1.591
Mof_C 	C 	0.8558	0.0096	0.7514	0.778
Mof_C 	C 	0.4547	0.2251	0.402	0.133
Mof_C 	C 	0.415	0.2562	0.3992	-0.218
Mof_C 	C 	0.4269	0.29805	0.35375	0.164
Mof_C 	C 	0.4821	0.3061	0.3135	-0.222
Mof_C 	C 	0.5176	0.2711	0.3196	0.16
Mof_C 	C 	0.384	0.3342	0.3494	-0.165
Mof_C 	C 	0.29343	0.04491	0.34532	0.332
Mof_C 	C 	0.2525	0.0697	0.3207	-0.307
Mof_C 	C 	0.1786	0.047	0.3394	0.177
Mof_C 	C 	0.1438	0.9983	0.3825	-0.234
Mof_C 	C 	0.1846	0.9739	0.4076	0.15
Mof_C 	C 	0.25859	0.99492	0.38965	-0.267
Mof_C 	C 	0.29667	0.96545	0.41874	0.302
Mof_C 	C 	0.4665	0.96941	0.41331	0.274
Mof_C 	C 	0.50801	0.93841	0.43688	-0.311
Mof_C 	C 	0.5159	0.90068	0.41628	0.045
Mof_C 	C 	0.5532	0.8656	0.4436	-0.18
Mof_C 	C 	0.5581	0.8257	0.4256	-0.033
Mof_C 	C 	0.5899	0.7878	0.4564	-0.138
Mof_C 	C 	0.5936	0.748	0.4403	-0.035
Mof_C 	C 	0.6235	0.7098	0.4699	-0.16
Mof_C 	C 	0.6396	0.6732	0.4504	0.028
Mof_C 	C 	0.6635	0.6334	0.4856	-0.295
Mof_C 	C 	0.6691	0.5916	0.4705	0.265
Mof_C 	C 	0.6832	0.547	0.5048	-0.66
Mof_C 	C 	0.6743	0.20179	0.51459	0.299
Mof_C 	C 	0.6906	0.23014	0.54024	-0.245
Mof_C 	C 	0.6752	0.2747	0.5284	0.115
Mof_C 	C 	0.6407	0.2911	0.4935	-0.181
Mof_C 	C 	0.6215	0.2618	0.4699	0.115
Mof_C 	C 	0.6403	0.21876	0.47906	-0.241
Mof_C 	C 	0.62476	0.19432	0.44844	0.302
Mof_C 	C 	0.65286	0.09874	0.42696	0.282
Mof_C 	C 	0.6377	0.06998	0.39868	-0.319
Mof_C 	C 	0.699	0.059	0.3748	0.087
Mof_C 	C 	0.7508	0.1084	0.3291	-0.204
Mof_C 	C 	0.8114	0.1008	0.2975	-0.005
Mof_C 	C 	0.8673	0.1463	0.2491	-0.164
Mof_C 	C 	0.3032	0.4487	0.367	0.235
Mof_C 	C 	0.3393	0.4164	0.3608	-0.31
Mof_C 	C 	0.3158	0.3708	0.3929	0.188
Mof_C 	C 	0.2351	0.3499	0.4209	-0.193
Mof_C 	C 	0.204	0.3865	0.4173	0.094
Mof_C 	C 	0.3467	0.3278	0.3997	-0.169
Mof_C 	C 	0.93689	0.27314	0.50807	0.312
Mof_C 	C 	0.9649	0.2349	0.5118	-0.284
Mof_C 	C 	0.9375	0.1861	0.5539	0.142
Mof_C 	C 	0.8813	0.1755	0.5976	-0.208
Mof_C 	C 	0.85516	0.21329	0.59621	0.139
Mof_C 	C 	0.88128	0.26186	0.55262	-0.248
Mof_C 	C 	0.85166	0.30055	0.55597	0.299
Mof_C 	C 	0.86736	0.42584	0.48056	0.358
Mof_C 	C 	0.84117	0.4677	0.47919	-0.583
Mof_C 	C 	0.8096	0.4857	0.4431	0.41
Mof_C 	C 	0.7583	0.4657	0.4288	-0.417
Mof_C 	C 	0.7426	0.4953	0.378	0.005
Mof_C 	C 	0.7264	0.5467	0.3757	0.003
Mof_C 	C 	0.7047	0.5763	0.3279	-0.423
Mof_C 	C 	0.6981	0.6302	0.3194	0.695
Mof_C 	C 	0.6743	0.6539	0.2756	-1.563
Mof_C 	C 	0.6641	0.6963	0.273	1.798
Mof_C 	C 	0.6279	0.7054	0.2407	-1.512
Mof_C 	C 	0.6072	0.7514	0.239	0.723
Mof_C 	C 	0.8567	0.402	0.3729	0.133
Mof_C 	C 	0.8142	0.3992	0.3446	-0.218
Mof_C 	C 	0.78065	0.35375	0.3482	0.164
Mof_C 	C 	0.7956	0.3135	0.3804	-0.222
Mof_C 	C 	0.8372	0.3196	0.4093	0.16
Mof_C 	C 	0.7334	0.3494	0.3164	-0.165
Mof_C 	C 	0.63875	0.34532	0.60977	0.33
Mof_C 	C 	0.5732	0.3207	0.6096	-0.305
Mof_C 	C 	0.518	0.3394	0.6136	0.173
Mof_C 	C 	0.5263	0.3825	0.6192	-0.231
Mof_C 	C 	0.5922	0.4076	0.6185	0.148
Mof_C 	C 	0.64824	0.38965	0.61543	-0.265
Mof_C 	C 	0.71541	0.41874	0.61581	0.302
Mof_C 	C 	0.87981	0.41331	0.61728	0.274
Mof_C 	C 	0.94489	0.43688	0.62471	-0.312
Mof_C 	C 	0.93218	0.41628	0.68304	0.046
Mof_C 	C 	0.9968	0.4436	0.6908	-0.181
Mof_C 	C 	0.9837	0.4256	0.7487	-0.033
Mof_C 	C 	0.0463	0.4564	0.7558	-0.139
Mof_C 	C 	0.0339	0.4403	0.8117	-0.034
Mof_C 	C 	0.0934	0.4699	0.8203	-0.161
Mof_C 	C 	0.09	0.4504	0.8764	0.028
Mof_C 	C 	0.1491	0.4856	0.881	-0.296
Mof_C 	C 	0.1396	0.4705	0.9379	0.265
Mof_C 	C 	0.188	0.5048	0.9482	-0.66
Mof_C 	C 	0.18889	0.51459	0.28362	0.299
Mof_C 	C 	0.23084	0.54024	0.22962	-0.245
Mof_C 	C 	0.2036	0.5284	0.1969	0.115
Mof_C 	C 	0.1342	0.4935	0.2154	-0.181
Mof_C 	C 	0.0914	0.4699	0.2683	0.115
Mof_C 	C 	0.11936	0.47906	0.30218	-0.241
Mof_C 	C 	0.0732	0.44844	0.35724	0.302
Mof_C 	C 	0.07982	0.42696	0.4743	0.281
Mof_C 	C 	0.03638	0.39868	0.53134	-0.318
Mof_C 	C 	0.0738	0.3748	0.5662	0.086
Mof_C 	C 	0.0799	0.3291	0.5625	-0.204
Mof_C 	C 	0.1089	0.2975	0.6017	-0.005
Mof_C 	C 	0.1164	0.2491	0.6046	-0.164
Mof_C 	C 	0.6702	0.367	0.1843	0.235
Mof_C 	C 	0.7001	0.3608	0.2228	-0.31
Mof_C 	C 	0.7087	0.3929	0.2363	0.188
Mof_C 	C 	0.656	0.4209	0.2292	-0.193
Mof_C 	C 	0.6213	0.4173	0.1962	0.094
Mof_C 	C 	0.7464	0.3997	0.2725	-0.169
Mof_N 	N 	0.61128	0.48576	0.86162	-0.247
Mof_N 	N 	0.63542	0.47729	0.90343	-0.216
Mof_N 	N 	0.72863	0.59323	0.76824	-0.222
Mof_N 	N 	0.6166	0.38636	0.01626	-0.255
Mof_N 	N 	0.55356	0.38368	0.0494	-0.204
Mof_N 	N 	0.50982	0.60864	0.84548	-0.253
Mof_N 	N 	0.50599	0.55637	0.8641	-0.208
Mof_N 	N 	0.19493	0.8283	0.56051	-0.246
Mof_N 	N 	0.4729	0.86162	0.65262	-0.247
Mof_N 	N 	0.53885	0.90343	0.61928	-0.216
Mof_N 	N 	0.49687	0.76824	0.63853	-0.222
Mof_N 	N 	0.63286	0.01626	0.59738	-0.255
Mof_N 	N 	0.60296	0.0494	0.56692	-0.204
Mof_N 	N 	0.3553	0.84548	0.54588	-0.253
Mof_N 	N 	0.37009	0.8641	0.57953	-0.208
Mof_N 	N 	0.75544	0.56051	0.61119	-0.246
Mof_N 	N 	0.12552	0.65262	0.48576	-0.247
Mof_N 	N 	0.15813	0.61928	0.47729	-0.216
Mof_N 	N 	0.1354	0.63853	0.59323	-0.222
Mof_N 	N 	0.23024	0.59738	0.38636	-0.255
Mof_N 	N 	0.16988	0.56692	0.38368	-0.204
Mof_N 	N 	0.90118	0.54588	0.60864	-0.253
Mof_N 	N 	0.94962	0.57953	0.55637	-0.208
Mof_N 	N 	0.36663	0.61119	0.8283	-0.246
Mof_N 	N 	0.38872	0.51424	0.13838	-0.247
Mof_N 	N 	0.36458	0.52271	0.09657	-0.216
Mof_N 	N 	0.27137	0.40677	0.23176	-0.222
Mof_N 	N 	0.3834	0.61364	0.98374	-0.255
Mof_N 	N 	0.44644	0.61632	0.9506	-0.204
Mof_N 	N 	0.49018	0.39136	0.15452	-0.253
Mof_N 	N 	0.49401	0.44363	0.1359	-0.208
Mof_N 	N 	0.80507	0.1717	0.43949	-0.246
Mof_N 	N 	0.5271	0.13838	0.34738	-0.247
Mof_N 	N 	0.46115	0.09657	0.38072	-0.216
Mof_N 	N 	0.50313	0.23176	0.36147	-0.222
Mof_N 	N 	0.36714	0.98374	0.40262	-0.255
Mof_N 	N 	0.39704	0.9506	0.43308	-0.204
Mof_N 	N 	0.6447	0.15452	0.45412	-0.253
Mof_N 	N 	0.62991	0.1359	0.42047	-0.208
Mof_N 	N 	0.24456	0.43949	0.38881	-0.246
Mof_N 	N 	0.87448	0.34738	0.51424	-0.247
Mof_N 	N 	0.84187	0.38072	0.52271	-0.216
Mof_N 	N 	0.8646	0.36147	0.40677	-0.222
Mof_N 	N 	0.76976	0.40262	0.61364	-0.255
Mof_N 	N 	0.83012	0.43308	0.61632	-0.204
Mof_N 	N 	0.09882	0.45412	0.39136	-0.253
Mof_N 	N 	0.05038	0.42047	0.44363	-0.208
Mof_N 	N 	0.63337	0.38881	0.1717	-0.246
Mof_O 	O 	0.57473	0.53756	0.77947	-0.432
Mof_O 	O 	0.5945	0.4009	0.888	-0.389
Mof_O 	O 	0.64528	0.5615	0.87436	-0.423
Mof_O 	O 	0.704	0.3937	0.9312	-0.432
Mof_O 	O 	0.6627	0.38195	0.07845	-0.385
Mof_O 	O 	0.51256	0.38563	0.98505	-0.396
Mof_O 	O 	0.46641	0.6875	0.83947	-0.42
Mof_O 	O 	0.61768	0.6288	0.78686	-0.384
Mof_O 	O 	0.39579	0.54103	0.91776	-0.402
Mof_O 	O 	0.3542	0.77947	0.68297	-0.432
Mof_O 	O 	0.4825	0.888	0.7111	-0.389
Mof_O 	O 	0.51964	0.87436	0.56414	-0.423
Mof_O 	O 	0.6352	0.9312	0.6751	-0.433
Mof_O 	O 	0.74115	0.07845	0.5396	-0.385
Mof_O 	O 	0.49761	0.98505	0.62932	-0.395
Mof_O 	O 	0.30588	0.83947	0.47303	-0.42
Mof_O 	O 	0.40454	0.78686	0.58434	-0.384
Mof_O 	O 	0.31355	0.91776	0.54121	-0.403
Mof_O 	O 	0.03717	0.68297	0.53756	-0.432
Mof_O 	O 	0.1936	0.7111	0.4009	-0.389
Mof_O 	O 	0.08378	0.56414	0.5615	-0.423
Mof_O 	O 	0.3103	0.6751	0.3937	-0.432
Mof_O 	O 	0.28075	0.5396	0.38195	-0.385
Mof_O 	O 	0.12693	0.62932	0.38563	-0.396
Mof_O 	O 	0.77891	0.47303	0.6875	-0.42
Mof_O 	O 	0.98888	0.58434	0.6288	-0.383
Mof_O 	O 	0.85476	0.54121	0.54103	-0.402
Mof_O 	O 	0.42527	0.46244	0.22053	-0.432
Mof_O 	O 	0.4055	0.5991	0.112	-0.389
Mof_O 	O 	0.35472	0.4385	0.12564	-0.423
Mof_O 	O 	0.296	0.6063	0.0688	-0.432
Mof_O 	O 	0.3373	0.61805	0.92155	-0.385
Mof_O 	O 	0.48744	0.61437	0.01495	-0.396
Mof_O 	O 	0.53359	0.3125	0.16053	-0.42
Mof_O 	O 	0.38232	0.3712	0.21314	-0.384
Mof_O 	O 	0.60421	0.45897	0.08224	-0.402
Mof_O 	O 	0.6458	0.22053	0.31703	-0.432
Mof_O 	O 	0.5175	0.112	0.2889	-0.389
Mof_O 	O 	0.48036	0.12564	0.43586	-0.423
Mof_O 	O 	0.3648	0.0688	0.3249	-0.433
Mof_O 	O 	0.25885	0.92155	0.4604	-0.385
Mof_O 	O 	0.50239	0.01495	0.37068	-0.395
Mof_O 	O 	0.69412	0.16053	0.52697	-0.42
Mof_O 	O 	0.59546	0.21314	0.41566	-0.384
Mof_O 	O 	0.68645	0.08224	0.45879	-0.403
Mof_O 	O 	0.96283	0.31703	0.46244	-0.432
Mof_O 	O 	0.8064	0.2889	0.5991	-0.389
Mof_O 	O 	0.91622	0.43586	0.4385	-0.423
Mof_O 	O 	0.6897	0.3249	0.6063	-0.432
Mof_O 	O 	0.71925	0.4604	0.61805	-0.385
Mof_O 	O 	0.87307	0.37068	0.61437	-0.396
Mof_O 	O 	0.22109	0.52697	0.3125	-0.42
Mof_O 	O 	0.01112	0.41566	0.3712	-0.383
Mof_O 	O 	0.14524	0.45879	0.45897	-0.402
_end
