data_functionalizedCrystal
_audit_creation_method	'EQeq! by Chris Wilmer'
_symmetry_space_group_name_H-M	'P1'
_symmetry_Int_Tables_number	1
_symmetry_cell_setting	triclinic
loop_
_symmetry_equiv_pos_as_xyz
  x,y,z
_cell_length_a	19.4476
_cell_length_b	19.4476
_cell_length_c	24.1299
_cell_angle_alpha	90
_cell_angle_beta	90
_cell_angle_gamma	90
loop_
_atom_site_label
_atom_site_type_symbol
_atom_site_fract_x
_atom_site_fract_y
_atom_site_fract_z
_atom_site_charge
Mof_Cu	Cu	0.2319	0.22359	0.29834	0.909
Mof_O 	O 	0.2113	0.3184	0.3158	-0.436
Mof_O 	O 	0.9431	0.0701	0.0584	-0.391
Mof_O 	O 	0.2397	0.3643	0.2358	-0.417
Mof_O 	O 	0.1423	0.2132	0.2631	-0.407
Mof_O 	O 	0.1722	0.2596	0.1813	-0.414
Mof_C 	C 	0.1544	0.4388	0.3512	0.113
Mof_H 	H 	0.1388	0.3963	0.366	0.028
Mof_C 	C 	0.131	0.2281	0.213	0.402
Mof_C 	C 	0.1952	0.4379	0.3057	-0.193
Mof_C 	C 	0.2194	0.3672	0.2843	0.432
Mof_C 	C 	0.0612	0.1649	0.1463	0.134
Mof_H 	H 	0.1032	0.149	0.1308	0.006
Mof_C 	C 	0.0633	0.2099	0.1892	-0.201
Mof_O 	O 	0.07	0.4402	0.4431	-0.401
Mof_H 	H 	0.2237	0.5446	0.1638	0.023
Mof_H 	H 	0.169	0.4919	0.1893	0.036
Mof_H 	H 	0.2359	0.4635	0.1582	0.046
Mof_Cu	Cu	0.7319	0.72359	0.79834	0.914
Mof_O 	O 	0.7113	0.8184	0.8158	-0.422
Mof_O 	O 	0.4431	0.5701	0.5584	-0.41
Mof_O 	O 	0.7397	0.8643	0.7358	-0.396
Mof_O 	O 	0.6423	0.7132	0.7631	-0.394
Mof_O 	O 	0.6722	0.7596	0.6813	-0.399
Mof_C 	C 	0.6544	0.9388	0.8512	0.149
Mof_H 	H 	0.6388	0.8963	0.866	0.033
Mof_C 	C 	0.631	0.7281	0.713	0.399
Mof_C 	C 	0.6952	0.9379	0.8057	-0.134
Mof_C 	C 	0.7194	0.8672	0.7843	0.421
Mof_C 	C 	0.5612	0.6649	0.6463	0.122
Mof_H 	H 	0.6032	0.649	0.6308	0.021
Mof_C 	C 	0.5633	0.7099	0.6892	-0.187
Mof_O 	O 	0.57	0.9402	0.9431	-0.319
Mof_H 	H 	0.7237	0.0446	0.6638	0.063
Mof_H 	H 	0.669	0.9919	0.6893	-0.125
Mof_H 	H 	0.7359	0.9635	0.6582	0.105
Mof_Cu	Cu	0.7681	0.77641	0.29834	0.913
Mof_O 	O 	0.7887	0.6816	0.3158	-0.427
Mof_O 	O 	0.0569	0.9299	0.0584	-0.397
Mof_O 	O 	0.7603	0.6357	0.2358	-0.412
Mof_O 	O 	0.8577	0.7868	0.2631	-0.382
Mof_O 	O 	0.8278	0.7404	0.1813	-0.403
Mof_C 	C 	0.8456	0.5612	0.3512	0.109
Mof_H 	H 	0.8612	0.6037	0.366	0.041
Mof_C 	C 	0.869	0.7719	0.213	0.396
Mof_C 	C 	0.8048	0.5621	0.3057	-0.182
Mof_C 	C 	0.7806	0.6328	0.2843	0.43
Mof_C 	C 	0.9388	0.8351	0.1463	0.176
Mof_H 	H 	0.8968	0.851	0.1308	0.009
Mof_C 	C 	0.9367	0.7901	0.1892	-0.153
Mof_O 	O 	0.93	0.5598	0.4431	-0.366
Mof_H 	H 	0.7763	0.4554	0.1638	0.025
Mof_H 	H 	0.831	0.5081	0.1893	0.043
Mof_H 	H 	0.7641	0.5365	0.1582	0.052
Mof_Cu	Cu	0.2681	0.27641	0.79834	0.913
Mof_O 	O 	0.2887	0.1816	0.8158	-0.428
Mof_O 	O 	0.5569	0.4299	0.5584	-0.411
Mof_O 	O 	0.2603	0.1357	0.7358	-0.419
Mof_O 	O 	0.3577	0.2868	0.7631	-0.395
Mof_O 	O 	0.3278	0.2404	0.6813	-0.41
Mof_C 	C 	0.3456	0.0612	0.8512	0.106
Mof_H 	H 	0.3612	0.1037	0.866	0.039
Mof_C 	C 	0.369	0.2719	0.713	0.401
Mof_C 	C 	0.3048	0.0621	0.8057	-0.178
Mof_C 	C 	0.2806	0.1328	0.7843	0.424
Mof_C 	C 	0.4388	0.3351	0.6463	0.123
Mof_H 	H 	0.3968	0.351	0.6308	0.018
Mof_C 	C 	0.4367	0.2901	0.6892	-0.193
Mof_O 	O 	0.43	0.0598	0.9431	-0.355
Mof_H 	H 	0.2763	0.9554	0.6638	0.065
Mof_H 	H 	0.331	0.0081	0.6893	0.272
Mof_H 	H 	0.2641	0.0365	0.6582	0.057
Mof_Cu	Cu	0.7681	0.22359	0.70166	0.91
Mof_O 	O 	0.7887	0.3184	0.6842	-0.43
Mof_O 	O 	0.0569	0.0701	0.9416	-0.385
Mof_O 	O 	0.7603	0.3643	0.7642	-0.407
Mof_O 	O 	0.8577	0.2132	0.7369	-0.389
Mof_O 	O 	0.8278	0.2596	0.8187	-0.391
Mof_C 	C 	0.8456	0.4388	0.6488	0.108
Mof_H 	H 	0.8612	0.3963	0.634	0.04
Mof_C 	C 	0.869	0.2281	0.787	0.394
Mof_C 	C 	0.8048	0.4379	0.6943	-0.18
Mof_C 	C 	0.7806	0.3672	0.7157	0.43
Mof_C 	C 	0.9388	0.1649	0.8537	0.173
Mof_H 	H 	0.8968	0.149	0.8692	0.013
Mof_C 	C 	0.9367	0.2099	0.8108	-0.15
Mof_O 	O 	0.93	0.4402	0.5569	-0.367
Mof_H 	H 	0.7763	0.5446	0.8362	0.041
Mof_H 	H 	0.831	0.4919	0.8107	0.049
Mof_H 	H 	0.7641	0.4635	0.8418	0.056
Mof_Cu	Cu	0.2681	0.72359	0.20166	0.908
Mof_O 	O 	0.2887	0.8184	0.1842	-0.434
Mof_O 	O 	0.5569	0.5701	0.4416	-0.41
Mof_O 	O 	0.2603	0.8643	0.2642	-0.4
Mof_O 	O 	0.3577	0.7132	0.2369	-0.401
Mof_O 	O 	0.3278	0.7596	0.3187	-0.402
Mof_C 	C 	0.3456	0.9388	0.1488	0.16
Mof_H 	H 	0.3612	0.8963	0.134	0.019
Mof_C 	C 	0.369	0.7281	0.287	0.402
Mof_C 	C 	0.3048	0.9379	0.1943	-0.145
Mof_C 	C 	0.2806	0.8672	0.2157	0.425
Mof_C 	C 	0.4388	0.6649	0.3537	0.123
Mof_H 	H 	0.3968	0.649	0.3692	0.02
Mof_C 	C 	0.4367	0.7099	0.3108	-0.191
Mof_O 	O 	0.43	0.9402	0.0569	-0.364
Mof_H 	H 	0.2763	0.0446	0.3362	0.055
Mof_H 	H 	0.331	0.9919	0.3107	-0.13
Mof_H 	H 	0.2641	0.9635	0.3418	0.108
Mof_Cu	Cu	0.2319	0.77641	0.70166	0.911
Mof_O 	O 	0.2113	0.6816	0.6842	-0.433
Mof_O 	O 	0.9431	0.9299	0.9416	-0.314
Mof_O 	O 	0.2397	0.6357	0.7642	-0.411
Mof_O 	O 	0.1423	0.7868	0.7369	-0.397
Mof_O 	O 	0.1722	0.7404	0.8187	-0.399
Mof_C 	C 	0.1544	0.5612	0.6488	0.112
Mof_H 	H 	0.1388	0.6037	0.634	0.031
Mof_C 	C 	0.131	0.7719	0.787	0.397
Mof_C 	C 	0.1952	0.5621	0.6943	-0.189
Mof_C 	C 	0.2194	0.6328	0.7157	0.43
Mof_C 	C 	0.0612	0.8351	0.8537	0.122
Mof_H 	H 	0.1032	0.851	0.8692	0.029
Mof_C 	C 	0.0633	0.7901	0.8108	-0.18
Mof_O 	O 	0.07	0.5598	0.5569	-0.399
Mof_H 	H 	0.2237	0.4554	0.8362	0.039
Mof_H 	H 	0.169	0.5081	0.8107	0.042
Mof_H 	H 	0.2359	0.5365	0.8418	0.049
Mof_Cu	Cu	0.7319	0.27641	0.20166	0.909
Mof_O 	O 	0.7113	0.1816	0.1842	-0.437
Mof_O 	O 	0.4431	0.4299	0.4416	-0.412
Mof_O 	O 	0.7397	0.1357	0.2642	-0.417
Mof_O 	O 	0.6423	0.2868	0.2369	-0.403
Mof_O 	O 	0.6722	0.2404	0.3187	-0.409
Mof_C 	C 	0.6544	0.0612	0.1488	0.113
Mof_H 	H 	0.6388	0.1037	0.134	0.027
Mof_C 	C 	0.631	0.2719	0.287	0.402
Mof_C 	C 	0.6952	0.0621	0.1943	-0.184
Mof_C 	C 	0.7194	0.1328	0.2157	0.427
Mof_C 	C 	0.5612	0.3351	0.3537	0.124
Mof_H 	H 	0.6032	0.351	0.3692	0.018
Mof_C 	C 	0.5633	0.2901	0.3108	-0.196
Mof_O 	O 	0.57	0.0598	0.0569	-0.401
Mof_H 	H 	0.7237	0.9554	0.3362	0.074
Mof_H 	H 	0.669	0.0081	0.3107	0.278
Mof_H 	H 	0.7359	0.0365	0.3418	0.056
Mof_Cu	Cu	0.7681	0.77641	0.70166	0.913
Mof_O 	O 	0.7887	0.6816	0.6842	-0.427
Mof_O 	O 	0.0569	0.9299	0.9416	-0.354
Mof_O 	O 	0.7603	0.6357	0.7642	-0.407
Mof_O 	O 	0.8577	0.7868	0.7369	-0.381
Mof_O 	O 	0.8278	0.7404	0.8187	-0.389
Mof_C 	C 	0.8456	0.5612	0.6488	0.108
Mof_H 	H 	0.8612	0.6037	0.634	0.042
Mof_C 	C 	0.869	0.7719	0.787	0.392
Mof_C 	C 	0.8048	0.5621	0.6943	-0.179
Mof_C 	C 	0.7806	0.6328	0.7157	0.429
Mof_C 	C 	0.9388	0.8351	0.8537	0.169
Mof_H 	H 	0.8968	0.851	0.8692	0.022
Mof_C 	C 	0.9367	0.7901	0.8108	-0.141
Mof_O 	O 	0.93	0.5598	0.5569	-0.365
Mof_H 	H 	0.7763	0.4554	0.8362	0.041
Mof_H 	H 	0.831	0.5081	0.8107	0.049
Mof_H 	H 	0.7641	0.5365	0.8418	0.056
Mof_Cu	Cu	0.2681	0.27641	0.20166	0.908
Mof_O 	O 	0.2887	0.1816	0.1842	-0.439
Mof_O 	O 	0.5569	0.4299	0.4416	-0.411
Mof_O 	O 	0.2603	0.1357	0.2642	-0.42
Mof_O 	O 	0.3577	0.2868	0.2369	-0.403
Mof_O 	O 	0.3278	0.2404	0.3187	-0.41
Mof_C 	C 	0.3456	0.0612	0.1488	0.114
Mof_H 	H 	0.3612	0.1037	0.134	0.026
Mof_C 	C 	0.369	0.2719	0.287	0.403
Mof_C 	C 	0.3048	0.0621	0.1943	-0.187
Mof_C 	C 	0.2806	0.1328	0.2157	0.427
Mof_C 	C 	0.4388	0.3351	0.3537	0.124
Mof_H 	H 	0.3968	0.351	0.3692	0.018
Mof_C 	C 	0.4367	0.2901	0.3108	-0.196
Mof_O 	O 	0.43	0.0598	0.0569	-0.401
Mof_H 	H 	0.2763	0.9554	0.3362	0.065
Mof_H 	H 	0.331	0.0081	0.3107	0.277
Mof_H 	H 	0.2641	0.0365	0.3418	0.057
Mof_Cu	Cu	0.2319	0.22359	0.70166	0.908
Mof_O 	O 	0.2113	0.3184	0.6842	-0.436
Mof_O 	O 	0.9431	0.0701	0.9416	-0.346
Mof_O 	O 	0.2397	0.3643	0.7642	-0.411
Mof_O 	O 	0.1423	0.2132	0.7369	-0.406
Mof_O 	O 	0.1722	0.2596	0.8187	-0.4
Mof_C 	C 	0.1544	0.4388	0.6488	0.112
Mof_H 	H 	0.1388	0.3963	0.634	0.029
Mof_C 	C 	0.131	0.2281	0.787	0.398
Mof_C 	C 	0.1952	0.4379	0.6943	-0.19
Mof_C 	C 	0.2194	0.3672	0.7157	0.431
Mof_C 	C 	0.0612	0.1649	0.8537	0.126
Mof_H 	H 	0.1032	0.149	0.8692	0.02
Mof_C 	C 	0.0633	0.2099	0.8108	-0.188
Mof_O 	O 	0.07	0.4402	0.5569	-0.401
Mof_H 	H 	0.2237	0.5446	0.8362	0.039
Mof_H 	H 	0.169	0.4919	0.8107	0.042
Mof_H 	H 	0.2359	0.4635	0.8418	0.049
Mof_Cu	Cu	0.7319	0.72359	0.20166	0.909
Mof_O 	O 	0.7113	0.8184	0.1842	-0.432
Mof_O 	O 	0.4431	0.5701	0.4416	-0.41
Mof_O 	O 	0.7397	0.8643	0.2642	-0.396
Mof_O 	O 	0.6423	0.7132	0.2369	-0.401
Mof_O 	O 	0.6722	0.7596	0.3187	-0.4
Mof_C 	C 	0.6544	0.9388	0.1488	0.159
Mof_H 	H 	0.6388	0.8963	0.134	0.02
Mof_C 	C 	0.631	0.7281	0.287	0.401
Mof_C 	C 	0.6952	0.9379	0.1943	-0.142
Mof_C 	C 	0.7194	0.8672	0.2157	0.424
Mof_C 	C 	0.5612	0.6649	0.3537	0.123
Mof_H 	H 	0.6032	0.649	0.3692	0.021
Mof_C 	C 	0.5633	0.7099	0.3108	-0.19
Mof_O 	O 	0.57	0.9402	0.0569	-0.363
Mof_H 	H 	0.7237	0.0446	0.3362	0.064
Mof_H 	H 	0.669	0.9919	0.3107	-0.129
Mof_H 	H 	0.7359	0.9635	0.3418	0.106
Mof_Cu	Cu	0.2319	0.77641	0.29834	0.911
Mof_O 	O 	0.2113	0.6816	0.3158	-0.434
Mof_O 	O 	0.9431	0.9299	0.0584	-0.358
Mof_O 	O 	0.2397	0.6357	0.2358	-0.416
Mof_O 	O 	0.1423	0.7868	0.2631	-0.399
Mof_O 	O 	0.1722	0.7404	0.1813	-0.412
Mof_C 	C 	0.1544	0.5612	0.3512	0.113
Mof_H 	H 	0.1388	0.6037	0.366	0.03
Mof_C 	C 	0.131	0.7719	0.213	0.401
Mof_C 	C 	0.1952	0.5621	0.3057	-0.192
Mof_C 	C 	0.2194	0.6328	0.2843	0.431
Mof_C 	C 	0.0612	0.8351	0.1463	0.129
Mof_H 	H 	0.1032	0.851	0.1308	0.016
Mof_C 	C 	0.0633	0.7901	0.1892	-0.192
Mof_O 	O 	0.07	0.5598	0.4431	-0.399
Mof_H 	H 	0.2237	0.4554	0.1638	0.023
Mof_H 	H 	0.169	0.5081	0.1893	0.036
Mof_H 	H 	0.2359	0.5365	0.1582	0.046
Mof_Cu	Cu	0.7319	0.27641	0.79834	0.913
Mof_O 	O 	0.7113	0.1816	0.8158	-0.426
Mof_O 	O 	0.4431	0.4299	0.5584	-0.412
Mof_O 	O 	0.7397	0.1357	0.7358	-0.416
Mof_O 	O 	0.6423	0.2868	0.7631	-0.395
Mof_O 	O 	0.6722	0.2404	0.6813	-0.408
Mof_C 	C 	0.6544	0.0612	0.8512	0.105
Mof_H 	H 	0.6388	0.1037	0.866	0.04
Mof_C 	C 	0.631	0.2719	0.713	0.4
Mof_C 	C 	0.6952	0.0621	0.8057	-0.175
Mof_C 	C 	0.7194	0.1328	0.7843	0.423
Mof_C 	C 	0.5612	0.3351	0.6463	0.123
Mof_H 	H 	0.6032	0.351	0.6308	0.019
Mof_C 	C 	0.5633	0.2901	0.6892	-0.192
Mof_O 	O 	0.57	0.0598	0.9431	-0.354
Mof_H 	H 	0.7237	0.9554	0.6638	0.073
Mof_H 	H 	0.669	0.0081	0.6893	0.273
Mof_H 	H 	0.7359	0.0365	0.6582	0.056
Mof_Cu	Cu	0.7681	0.22359	0.29834	0.91
Mof_O 	O 	0.7887	0.3184	0.3158	-0.43
Mof_O 	O 	0.0569	0.0701	0.0584	-0.431
Mof_O 	O 	0.7603	0.3643	0.2358	-0.413
Mof_O 	O 	0.8577	0.2132	0.2631	-0.39
Mof_O 	O 	0.8278	0.2596	0.1813	-0.404
Mof_C 	C 	0.8456	0.4388	0.3512	0.11
Mof_H 	H 	0.8612	0.3963	0.366	0.039
Mof_C 	C 	0.869	0.2281	0.213	0.398
Mof_C 	C 	0.8048	0.4379	0.3057	-0.183
Mof_C 	C 	0.7806	0.3672	0.2843	0.431
Mof_C 	C 	0.9388	0.1649	0.1463	0.181
Mof_H 	H 	0.8968	0.149	0.1308	-0.001
Mof_C 	C 	0.9367	0.2099	0.1892	-0.162
Mof_O 	O 	0.93	0.4402	0.4431	-0.368
Mof_H 	H 	0.7763	0.5446	0.1638	0.025
Mof_H 	H 	0.831	0.4919	0.1893	0.043
Mof_H 	H 	0.7641	0.4635	0.1582	0.052
Mof_Cu	Cu	0.2681	0.72359	0.79834	0.913
Mof_O 	O 	0.2887	0.8184	0.8158	-0.423
Mof_O 	O 	0.5569	0.5701	0.5584	-0.41
Mof_O 	O 	0.2603	0.8643	0.7358	-0.399
Mof_O 	O 	0.3577	0.7132	0.7631	-0.394
Mof_O 	O 	0.3278	0.7596	0.6813	-0.401
Mof_C 	C 	0.3456	0.9388	0.8512	0.15
Mof_H 	H 	0.3612	0.8963	0.866	0.032
Mof_C 	C 	0.369	0.7281	0.713	0.4
Mof_C 	C 	0.3048	0.9379	0.8057	-0.137
Mof_C 	C 	0.2806	0.8672	0.7843	0.421
Mof_C 	C 	0.4388	0.6649	0.6463	0.122
Mof_H 	H 	0.3968	0.649	0.6308	0.021
Mof_C 	C 	0.4367	0.7099	0.6892	-0.187
Mof_O 	O 	0.43	0.9402	0.9431	-0.32
Mof_H 	H 	0.2763	0.0446	0.6638	0.055
Mof_H 	H 	0.331	0.9919	0.6893	-0.126
Mof_H 	H 	0.2641	0.9635	0.6582	0.106
Mof_Cu	Cu	0.93251	0	-0	0.862
Mof_Cu	Cu	0.43251	0.5	0.5	0.906
Mof_Cu	Cu	0.06749	0	-0	0.85
Mof_Cu	Cu	0.56749	0.5	0.5	0.906
Mof_C 	C 	-3.38886e-34	0.0898	0.0758	0.346
Mof_O 	O 	-9.89147e-33	0.2829	0.2521	-0.2
Mof_C 	C 	5.78724e-34	0.1416	0.1244	-0.218
Mof_C 	C 	-1.784e-33	0.2355	0.2111	0.205
Mof_C 	C 	0.5	0.5898	0.5758	0.394
Mof_O 	O 	0.5	0.7829	0.7521	-0.176
Mof_C 	C 	0.5	0.6416	0.6244	-0.152
Mof_C 	C 	0.5	0.7355	0.7111	0.25
Mof_C 	C 	-1.20947e-32	0.9102	0.0758	0.341
Mof_O 	O 	-1.59327e-33	0.7171	0.2521	-0.197
Mof_C 	C 	-1.04855e-32	0.8584	0.1244	-0.201
Mof_C 	C 	-1.00822e-32	0.7645	0.2111	0.203
Mof_C 	C 	0.5	0.4102	0.5758	0.394
Mof_O 	O 	0.5	0.2171	0.7521	-0.187
Mof_C 	C 	0.5	0.3584	0.6244	-0.157
Mof_C 	C 	0.5	0.2645	0.7111	0.25
Mof_C 	C 	1.53638e-32	0.0898	0.9242	0.338
Mof_O 	O 	-7.58495e-33	0.2829	0.7479	-0.196
Mof_C 	C 	4.0734e-33	0.1416	0.8756	-0.196
Mof_C 	C 	3.67006e-33	0.2355	0.7889	0.202
Mof_C 	C 	0.5	0.5898	0.4242	0.394
Mof_O 	O 	0.5	0.7829	0.2479	-0.182
Mof_C 	C 	0.5	0.6416	0.3756	-0.154
Mof_C 	C 	0.5	0.7355	0.2889	0.25
Mof_C 	C 	1.53638e-32	0.9102	0.9242	0.333
Mof_O 	O 	-2.97135e-32	0.7171	0.7479	-0.193
Mof_C 	C 	4.0734e-33	0.8584	0.8756	-0.181
Mof_C 	C 	-1.84585e-32	0.7645	0.7889	0.2
Mof_C 	C 	0.5	0.4102	0.4242	0.394
Mof_O 	O 	0.5	0.2171	0.2479	-0.192
Mof_C 	C 	0.5	0.3584	0.3756	-0.158
Mof_C 	C 	0.5	0.2645	0.2889	0.25
Mof_O 	O 	0.2565	0.5	0.2359	-0.195
Mof_C 	C 	0.2199	0.5	0.2808	0.25
Mof_C 	C 	0.0879	0.5	0.4243	0.338
Mof_C 	C 	0.1346	0.5	0.3771	-0.152
Mof_C 	C 	0.218	0.5	0.182	-0.104
Mof_O 	O 	0.7565	0	0.7359	-0.156
Mof_C 	C 	0.7199	0	0.7808	0.182
Mof_C 	C 	0.5879	1.10643e-32	0.9243	0.291
Mof_C 	C 	0.6346	-1.10643e-32	0.8771	-0.171
Mof_C 	C 	0.718	0	0.682	-0.322
Mof_O 	O 	0.7435	0.5	0.2359	-0.191
Mof_C 	C 	0.7801	0.5	0.2808	0.247
Mof_C 	C 	0.9121	0.5	0.4243	0.337
Mof_C 	C 	0.8654	0.5	0.3771	-0.136
Mof_C 	C 	0.782	0.5	0.182	-0.116
Mof_O 	O 	0.2435	0	0.7359	-0.164
Mof_C 	C 	0.2801	0	0.7808	0.184
Mof_C 	C 	0.4121	1.10643e-32	0.9243	0.292
Mof_C 	C 	0.3654	-1.10643e-32	0.8771	-0.173
Mof_C 	C 	0.282	0	0.682	-0.315
Mof_O 	O 	0.7435	0.5	0.7641	-0.182
Mof_C 	C 	0.7801	0.5	0.7192	0.244
Mof_C 	C 	0.9121	0.5	0.5757	0.337
Mof_C 	C 	0.8654	0.5	0.6229	-0.135
Mof_C 	C 	0.782	0.5	0.818	-0.136
Mof_O 	O 	0.2435	0	0.2641	-0.165
Mof_C 	C 	0.2801	0	0.2192	0.186
Mof_C 	C 	0.4121	-6.91517e-34	0.0757	0.295
Mof_C 	C 	0.3654	0	0.1229	-0.195
Mof_C 	C 	0.282	2.76607e-33	0.318	-0.318
Mof_O 	O 	0.2565	0.5	0.7641	-0.186
Mof_C 	C 	0.2199	0.5	0.7192	0.247
Mof_C 	C 	0.0879	0.5	0.5757	0.338
Mof_C 	C 	0.1346	0.5	0.6229	-0.15
Mof_C 	C 	0.218	0.5	0.818	-0.124
Mof_O 	O 	0.7565	0	0.2641	-0.157
Mof_C 	C 	0.7199	0	0.2192	0.184
Mof_C 	C 	0.5879	-6.91517e-34	0.0757	0.295
Mof_C 	C 	0.6346	0	0.1229	-0.193
Mof_C 	C 	0.718	2.76607e-33	0.318	-0.325
Mof_Cu	Cu	7.8582e-33	0.43195	0.5	0.885
Mof_Cu	Cu	0.5	0.93195	-0	0.884
Mof_Cu	Cu	-3.20607e-33	0.56805	0.5	0.887
Mof_Cu	Cu	0.5	0.06805	-0	0.871
_end
