data_functionalizedCrystal
_audit_creation_method	'EQeq! by Chris Wilmer'
_symmetry_space_group_name_H-M	'P1'
_symmetry_Int_Tables_number	1
_symmetry_cell_setting	triclinic
loop_
_symmetry_equiv_pos_as_xyz
  x,y,z
_cell_length_a	12.045
_cell_length_b	25.38
_cell_length_c	20.658
_cell_angle_alpha	90
_cell_angle_beta	90
_cell_angle_gamma	90
loop_
_atom_site_label
_atom_site_type_symbol
_atom_site_fract_x
_atom_site_fract_y
_atom_site_fract_z
_atom_site_charge
Mof_W 	W 	0.76132	0.21989	0.41479	1.449
Mof_O 	O 	0.6475	0.2014	0.3749	-0.766
Mof_O 	O 	0.724	0.2906	0.4341	-0.503
Mof_O 	O 	0.152	0.3723	0.4364	-0.453
Mof_O 	O 	0.153	0.2492	0.3503	-0.515
Mof_O 	O 	0.846	0.1565	0.411	-0.419
Mof_O 	O 	0.1171	0.0809	0.24	-0.866
Mof_O 	O 	0.2948	0.0789	0.2668	-0.858
Mof_O 	O 	0.041	0.2287	0.4352	-0.566
Mof_N 	N 	0.125	0.1764	0.1902	-0.291
Mof_H 	H 	0.1354	0.1784	0.1471	0.046
Mof_H 	H 	0.1095	0.2089	0.2049	0.082
Mof_C 	C 	0.229	0.1568	0.221	-0.379
Mof_H 	H 	0.2479	0.1794	0.2576	0.062
Mof_H 	H 	0.2893	0.1577	0.1906	0.066
Mof_C 	C 	0.212	0.102	0.2447	0.559
Mof_W 	W 	0.26132	0.71989	0.91479	1.485
Mof_O 	O 	0.1475	0.7014	0.8749	-0.757
Mof_O 	O 	0.224	0.7906	0.9341	-0.551
Mof_O 	O 	0.652	0.8723	0.9364	-0.518
Mof_O 	O 	0.653	0.7492	0.8503	-0.574
Mof_O 	O 	0.346	0.6565	0.911	-0.609
Mof_O 	O 	0.6171	0.5809	0.74	-0.942
Mof_O 	O 	0.7948	0.5789	0.7668	-0.694
Mof_O 	O 	0.541	0.7287	0.9352	-0.304
Mof_N 	N 	0.625	0.6764	0.6902	-0.28
Mof_H 	H 	0.6354	0.6784	0.6471	0.083
Mof_H 	H 	0.6095	0.7089	0.7049	0.101
Mof_C 	C 	0.729	0.6568	0.721	-0.417
Mof_H 	H 	0.7479	0.6794	0.7576	0.121
Mof_H 	H 	0.7893	0.6577	0.6906	0.162
Mof_C 	C 	0.712	0.602	0.7447	0.592
Mof_W 	W 	0.23868	0.78011	0.41479	1.522
Mof_O 	O 	0.3525	0.7986	0.3749	-0.794
Mof_O 	O 	0.276	0.7094	0.4341	-0.515
Mof_O 	O 	0.848	0.6277	0.4364	-0.323
Mof_O 	O 	0.847	0.7508	0.3503	-0.41
Mof_O 	O 	0.154	0.8435	0.411	-0.54
Mof_O 	O 	0.8829	0.9191	0.24	-0.592
Mof_O 	O 	0.7052	0.9211	0.2668	-0.79
Mof_O 	O 	0.959	0.7713	0.4352	0.218
Mof_N 	N 	0.875	0.8236	0.1902	-0.271
Mof_H 	H 	0.8646	0.8216	0.1471	0.14
Mof_H 	H 	0.8905	0.7911	0.2049	0.206
Mof_C 	C 	0.771	0.8432	0.221	-0.287
Mof_H 	H 	0.7521	0.8206	0.2576	0.049
Mof_H 	H 	0.7107	0.8423	0.1906	0.043
Mof_C 	C 	0.788	0.898	0.2447	0.52
Mof_W 	W 	0.73868	0.28011	0.91479	1.494
Mof_O 	O 	0.8525	0.2986	0.8749	-0.587
Mof_O 	O 	0.776	0.2094	0.9341	-0.505
Mof_O 	O 	0.348	0.1277	0.9364	-0.537
Mof_O 	O 	0.347	0.2508	0.8503	-0.573
Mof_O 	O 	0.654	0.3435	0.911	-0.586
Mof_O 	O 	0.3829	0.4191	0.74	-0.95
Mof_O 	O 	0.2052	0.4211	0.7668	-0.808
Mof_O 	O 	0.459	0.2713	0.9352	-0.301
Mof_N 	N 	0.375	0.3236	0.6902	-0.285
Mof_H 	H 	0.3646	0.3216	0.6471	0.081
Mof_H 	H 	0.3905	0.2911	0.7049	0.102
Mof_C 	C 	0.271	0.3432	0.721	-0.392
Mof_H 	H 	0.2521	0.3206	0.7576	0.082
Mof_H 	H 	0.2107	0.3423	0.6906	0.094
Mof_C 	C 	0.288	0.398	0.7447	0.586
Mof_W 	W 	0.23868	0.21989	0.58521	1.517
Mof_O 	O 	0.3525	0.2014	0.6251	-0.784
Mof_O 	O 	0.276	0.2906	0.5659	-0.513
Mof_O 	O 	0.848	0.3723	0.5636	-0.322
Mof_O 	O 	0.847	0.2492	0.6497	-0.406
Mof_O 	O 	0.154	0.1565	0.589	-0.546
Mof_O 	O 	0.8829	0.0809	0.76	-0.629
Mof_O 	O 	0.7052	0.0789	0.7332	-0.823
Mof_O 	O 	0.959	0.2287	0.5648	0.226
Mof_N 	N 	0.875	0.1764	0.8098	-0.268
Mof_H 	H 	0.8646	0.1784	0.8529	0.133
Mof_H 	H 	0.8905	0.2089	0.7951	0.207
Mof_C 	C 	0.771	0.1568	0.779	-0.298
Mof_H 	H 	0.7521	0.1794	0.7424	0.057
Mof_H 	H 	0.7107	0.1577	0.8094	0.045
Mof_C 	C 	0.788	0.102	0.7553	0.525
Mof_W 	W 	0.73868	0.71989	0.08521	1.516
Mof_O 	O 	0.8525	0.7014	0.1251	-0.59
Mof_O 	O 	0.776	0.7906	0.0659	-0.494
Mof_O 	O 	0.348	0.8723	0.0636	-0.516
Mof_O 	O 	0.347	0.7492	0.1497	-0.578
Mof_O 	O 	0.654	0.6565	0.089	-0.583
Mof_O 	O 	0.3829	0.5809	0.26	-0.951
Mof_O 	O 	0.2052	0.5789	0.2332	-0.811
Mof_O 	O 	0.459	0.7287	0.0648	-0.294
Mof_N 	N 	0.375	0.6764	0.3098	-0.285
Mof_H 	H 	0.3646	0.6784	0.3529	0.08
Mof_H 	H 	0.3905	0.7089	0.2951	0.101
Mof_C 	C 	0.271	0.6568	0.279	-0.392
Mof_H 	H 	0.2521	0.6794	0.2424	0.081
Mof_H 	H 	0.2107	0.6577	0.3094	0.093
Mof_C 	C 	0.288	0.602	0.2553	0.586
Mof_W 	W 	0.76132	0.78011	0.58521	1.454
Mof_O 	O 	0.6475	0.7986	0.6251	-0.777
Mof_O 	O 	0.724	0.7094	0.5659	-0.505
Mof_O 	O 	0.152	0.6277	0.5636	-0.454
Mof_O 	O 	0.153	0.7508	0.6497	-0.517
Mof_O 	O 	0.846	0.8435	0.589	-0.415
Mof_O 	O 	0.1171	0.9191	0.76	-0.824
Mof_O 	O 	0.2948	0.9211	0.7332	-0.823
Mof_O 	O 	0.041	0.7713	0.5648	-0.563
Mof_N 	N 	0.125	0.8236	0.8098	-0.292
Mof_H 	H 	0.1354	0.8216	0.8529	0.049
Mof_H 	H 	0.1095	0.7911	0.7951	0.082
Mof_C 	C 	0.229	0.8432	0.779	-0.369
Mof_H 	H 	0.2479	0.8206	0.7424	0.056
Mof_H 	H 	0.2893	0.8423	0.8094	0.064
Mof_C 	C 	0.212	0.898	0.7553	0.552
Mof_W 	W 	0.26132	0.28011	0.08521	1.505
Mof_O 	O 	0.1475	0.2986	0.1251	-0.757
Mof_O 	O 	0.224	0.2094	0.0659	-0.539
Mof_O 	O 	0.652	0.1277	0.0636	-0.514
Mof_O 	O 	0.653	0.2508	0.1497	-0.576
Mof_O 	O 	0.346	0.3435	0.089	-0.605
Mof_O 	O 	0.6171	0.4191	0.26	-0.943
Mof_O 	O 	0.7948	0.4211	0.2332	-0.695
Mof_O 	O 	0.541	0.2713	0.0648	-0.296
Mof_N 	N 	0.625	0.3236	0.3098	-0.281
Mof_H 	H 	0.6354	0.3216	0.3529	0.084
Mof_H 	H 	0.6095	0.2911	0.2951	0.103
Mof_C 	C 	0.729	0.3432	0.279	-0.417
Mof_H 	H 	0.7479	0.3206	0.2424	0.121
Mof_H 	H 	0.7893	0.3423	0.3094	0.162
Mof_C 	C 	0.712	0.398	0.2553	0.593
Mof_W 	W 	0.23868	0.78011	0.58521	1.522
Mof_O 	O 	0.3525	0.7986	0.6251	-0.794
Mof_O 	O 	0.276	0.7094	0.5659	-0.515
Mof_O 	O 	0.848	0.6277	0.5636	-0.323
Mof_O 	O 	0.847	0.7508	0.6497	-0.41
Mof_O 	O 	0.154	0.8435	0.589	-0.54
Mof_O 	O 	0.8829	0.9191	0.76	-0.593
Mof_O 	O 	0.7052	0.9211	0.7332	-0.79
Mof_O 	O 	0.959	0.7713	0.5648	0.218
Mof_N 	N 	0.875	0.8236	0.8098	-0.27
Mof_H 	H 	0.8646	0.8216	0.8529	0.137
Mof_H 	H 	0.8905	0.7911	0.7951	0.206
Mof_C 	C 	0.771	0.8432	0.779	-0.288
Mof_H 	H 	0.7521	0.8206	0.7424	0.05
Mof_H 	H 	0.7107	0.8423	0.8094	0.043
Mof_C 	C 	0.788	0.898	0.7553	0.519
Mof_W 	W 	0.73868	0.28011	0.08521	1.515
Mof_O 	O 	0.8525	0.2986	0.1251	-0.588
Mof_O 	O 	0.776	0.2094	0.0659	-0.493
Mof_O 	O 	0.348	0.1277	0.0636	-0.524
Mof_O 	O 	0.347	0.2508	0.1497	-0.576
Mof_O 	O 	0.654	0.3435	0.089	-0.582
Mof_O 	O 	0.3829	0.4191	0.26	-0.951
Mof_O 	O 	0.2052	0.4211	0.2332	-0.81
Mof_O 	O 	0.459	0.2713	0.0648	-0.294
Mof_N 	N 	0.375	0.3236	0.3098	-0.285
Mof_H 	H 	0.3646	0.3216	0.3529	0.081
Mof_H 	H 	0.3905	0.2911	0.2951	0.102
Mof_C 	C 	0.271	0.3432	0.279	-0.392
Mof_H 	H 	0.2521	0.3206	0.2424	0.081
Mof_H 	H 	0.2107	0.3423	0.3094	0.093
Mof_C 	C 	0.288	0.398	0.2553	0.586
Mof_W 	W 	0.76132	0.21989	0.58521	1.448
Mof_O 	O 	0.6475	0.2014	0.6251	-0.767
Mof_O 	O 	0.724	0.2906	0.5659	-0.504
Mof_O 	O 	0.152	0.3723	0.5636	-0.453
Mof_O 	O 	0.153	0.2492	0.6497	-0.515
Mof_O 	O 	0.846	0.1565	0.589	-0.419
Mof_O 	O 	0.1171	0.0809	0.76	-0.867
Mof_O 	O 	0.2948	0.0789	0.7332	-0.858
Mof_O 	O 	0.041	0.2287	0.5648	-0.566
Mof_N 	N 	0.125	0.1764	0.8098	-0.291
Mof_H 	H 	0.1354	0.1784	0.8529	0.043
Mof_H 	H 	0.1095	0.2089	0.7951	0.081
Mof_C 	C 	0.229	0.1568	0.779	-0.38
Mof_H 	H 	0.2479	0.1794	0.7424	0.063
Mof_H 	H 	0.2893	0.1577	0.8094	0.066
Mof_C 	C 	0.212	0.102	0.7553	0.559
Mof_W 	W 	0.26132	0.71989	0.08521	1.507
Mof_O 	O 	0.1475	0.7014	0.1251	-0.758
Mof_O 	O 	0.224	0.7906	0.0659	-0.539
Mof_O 	O 	0.652	0.8723	0.0636	-0.506
Mof_O 	O 	0.653	0.7492	0.1497	-0.577
Mof_O 	O 	0.346	0.6565	0.089	-0.606
Mof_O 	O 	0.6171	0.5809	0.26	-0.943
Mof_O 	O 	0.7948	0.5789	0.2332	-0.696
Mof_O 	O 	0.541	0.7287	0.0648	-0.297
Mof_N 	N 	0.625	0.6764	0.3098	-0.28
Mof_H 	H 	0.6354	0.6784	0.3529	0.083
Mof_H 	H 	0.6095	0.7089	0.2951	0.101
Mof_C 	C 	0.729	0.6568	0.279	-0.416
Mof_H 	H 	0.7479	0.6794	0.2424	0.12
Mof_H 	H 	0.7893	0.6577	0.3094	0.161
Mof_C 	C 	0.712	0.602	0.2553	0.593
Mof_W 	W 	0.76132	0.78011	0.41479	1.454
Mof_O 	O 	0.6475	0.7986	0.3749	-0.777
Mof_O 	O 	0.724	0.7094	0.4341	-0.505
Mof_O 	O 	0.152	0.6277	0.4364	-0.454
Mof_O 	O 	0.153	0.7508	0.3503	-0.517
Mof_O 	O 	0.846	0.8435	0.411	-0.415
Mof_O 	O 	0.1171	0.9191	0.24	-0.823
Mof_O 	O 	0.2948	0.9211	0.2668	-0.822
Mof_O 	O 	0.041	0.7713	0.4352	-0.563
Mof_N 	N 	0.125	0.8236	0.1902	-0.292
Mof_H 	H 	0.1354	0.8216	0.1471	0.051
Mof_H 	H 	0.1095	0.7911	0.2049	0.082
Mof_C 	C 	0.229	0.8432	0.221	-0.368
Mof_H 	H 	0.2479	0.8206	0.2576	0.055
Mof_H 	H 	0.2893	0.8423	0.1906	0.063
Mof_C 	C 	0.212	0.898	0.2447	0.552
Mof_W 	W 	0.26132	0.28011	0.91479	1.484
Mof_O 	O 	0.1475	0.2986	0.8749	-0.757
Mof_O 	O 	0.224	0.2094	0.9341	-0.55
Mof_O 	O 	0.652	0.1277	0.9364	-0.526
Mof_O 	O 	0.653	0.2508	0.8503	-0.572
Mof_O 	O 	0.346	0.3435	0.911	-0.609
Mof_O 	O 	0.6171	0.4191	0.74	-0.941
Mof_O 	O 	0.7948	0.4211	0.7668	-0.693
Mof_O 	O 	0.541	0.2713	0.9352	-0.303
Mof_N 	N 	0.625	0.3236	0.6902	-0.28
Mof_H 	H 	0.6354	0.3216	0.6471	0.084
Mof_H 	H 	0.6095	0.2911	0.7049	0.103
Mof_C 	C 	0.729	0.3432	0.721	-0.417
Mof_H 	H 	0.7479	0.3206	0.7576	0.122
Mof_H 	H 	0.7893	0.3423	0.6906	0.162
Mof_C 	C 	0.712	0.398	0.7447	0.592
Mof_W 	W 	0.23868	0.21989	0.41479	1.517
Mof_O 	O 	0.3525	0.2014	0.3749	-0.785
Mof_O 	O 	0.276	0.2906	0.4341	-0.513
Mof_O 	O 	0.848	0.3723	0.4364	-0.322
Mof_O 	O 	0.847	0.2492	0.3503	-0.407
Mof_O 	O 	0.154	0.1565	0.411	-0.547
Mof_O 	O 	0.8829	0.0809	0.24	-0.628
Mof_O 	O 	0.7052	0.0789	0.2668	-0.823
Mof_O 	O 	0.959	0.2287	0.4352	0.226
Mof_N 	N 	0.875	0.1764	0.1902	-0.269
Mof_H 	H 	0.8646	0.1784	0.1471	0.136
Mof_H 	H 	0.8905	0.2089	0.2049	0.207
Mof_C 	C 	0.771	0.1568	0.221	-0.297
Mof_H 	H 	0.7521	0.1794	0.2576	0.056
Mof_H 	H 	0.7107	0.1577	0.1906	0.045
Mof_C 	C 	0.788	0.102	0.2447	0.525
Mof_W 	W 	0.73868	0.71989	0.91479	1.495
Mof_O 	O 	0.8525	0.7014	0.8749	-0.589
Mof_O 	O 	0.776	0.7906	0.9341	-0.506
Mof_O 	O 	0.348	0.8723	0.9364	-0.528
Mof_O 	O 	0.347	0.7492	0.8503	-0.574
Mof_O 	O 	0.654	0.6565	0.911	-0.587
Mof_O 	O 	0.3829	0.5809	0.74	-0.95
Mof_O 	O 	0.2052	0.5789	0.7668	-0.809
Mof_O 	O 	0.459	0.7287	0.9352	-0.301
Mof_N 	N 	0.375	0.6764	0.6902	-0.285
Mof_H 	H 	0.3646	0.6784	0.6471	0.08
Mof_H 	H 	0.3905	0.7089	0.7049	0.101
Mof_C 	C 	0.271	0.6568	0.721	-0.392
Mof_H 	H 	0.2521	0.6794	0.7576	0.082
Mof_H 	H 	0.2107	0.6577	0.6906	0.094
Mof_C 	C 	0.288	0.602	0.7447	0.586
Mof_W 	W 	-5.36159e-33	0.14251	0.40945	1.154
Mof_W 	W 	-1.32898e-32	0.38221	0.41976	0.619
Mof_W 	W 	-1.78542e-32	0.25527	0.33157	1.068
Mof_Cu	Cu	-6.64865e-33	0.12822	0.2093	0.737
Mof_O 	O 	-5.88599e-33	0.1786	0.3279	-0.622
Mof_O 	O 	-1.3514e-32	0.0784	0.3849	-0.831
Mof_O 	O 	-5.67379e-33	0.3265	0.3609	-0.611
Mof_O 	O 	-6.37535e-33	0.2701	0.2518	-0.73
Mof_W 	W 	0.5	0.64251	0.90945	1.519
Mof_W 	W 	0.5	0.88221	0.91976	0.973
Mof_W 	W 	0.5	0.75527	0.83157	1.425
Mof_Cu	Cu	0.5	0.62822	0.7093	0.852
Mof_O 	O 	0.5	0.6786	0.8279	-0.586
Mof_O 	O 	0.5	0.5784	0.8849	-0.947
Mof_O 	O 	0.5	0.8265	0.8609	-0.615
Mof_O 	O 	0.5	0.7701	0.7518	-0.746
Mof_W 	W 	-5.36159e-33	0.85749	0.40945	1.162
Mof_W 	W 	-2.12844e-32	0.61779	0.41976	0.621
Mof_W 	W 	-5.86239e-33	0.74473	0.33157	1.072
Mof_Cu	Cu	-1.86405e-32	0.87178	0.2093	0.745
Mof_O 	O 	-1.38805e-32	0.8214	0.3279	-0.622
Mof_O 	O 	2.47509e-33	0.9216	0.3849	-0.784
Mof_O 	O 	-1.36683e-32	0.6735	0.3609	-0.611
Mof_O 	O 	9.61374e-33	0.7299	0.2518	-0.731
Mof_W 	W 	0.5	0.35749	0.90945	1.518
Mof_W 	W 	0.5	0.11779	0.91976	0.935
Mof_W 	W 	0.5	0.24473	0.83157	1.422
Mof_Cu	Cu	0.5	0.37178	0.7093	0.852
Mof_O 	O 	0.5	0.3214	0.8279	-0.585
Mof_O 	O 	0.5	0.4216	0.8849	-0.947
Mof_O 	O 	0.5	0.1735	0.8609	-0.609
Mof_O 	O 	0.5	0.2299	0.7518	-0.734
Mof_W 	W 	-1.21916e-32	0.14251	0.59055	1.153
Mof_W 	W 	-2.02524e-32	0.38221	0.58024	0.62
Mof_W 	W 	-1.96853e-32	0.25527	0.66843	1.068
Mof_Cu	Cu	-1.09045e-32	0.12822	0.7907	0.736
Mof_O 	O 	-2.76563e-32	0.1786	0.6721	-0.622
Mof_O 	O 	-4.03916e-33	0.0784	0.6151	-0.83
Mof_O 	O 	1.21043e-32	0.3265	0.6391	-0.61
Mof_O 	O 	-2.71669e-32	0.2701	0.7482	-0.729
Mof_W 	W 	0.5	0.64251	0.09055	1.537
Mof_W 	W 	0.5	0.88221	0.08024	0.996
Mof_W 	W 	0.5	0.75527	0.16843	1.428
Mof_Cu	Cu	0.5	0.62822	0.2907	0.852
Mof_O 	O 	0.5	0.6786	0.1721	-0.589
Mof_O 	O 	0.5	0.5784	0.1151	-0.945
Mof_O 	O 	0.5	0.8265	0.1391	-0.617
Mof_O 	O 	0.5	0.7701	0.2482	-0.747
Mof_W 	W 	-4.41697e-32	0.85749	0.59055	1.162
Mof_W 	W 	3.73122e-33	0.61779	0.58024	0.621
Mof_W 	W 	-2.76799e-32	0.74473	0.66843	1.072
Mof_Cu	Cu	-1.09045e-32	0.87178	0.7907	0.744
Mof_O 	O 	-4.36453e-32	0.8214	0.6721	-0.622
Mof_O 	O 	-2.00282e-32	0.9216	0.6151	-0.783
Mof_O 	O 	4.10972e-33	0.6735	0.6391	-0.61
Mof_O 	O 	-2.71669e-32	0.7299	0.7482	-0.729
Mof_W 	W 	0.5	0.35749	0.09055	1.537
Mof_W 	W 	0.5	0.11779	0.08024	0.958
Mof_W 	W 	0.5	0.24473	0.16843	1.425
Mof_Cu	Cu	0.5	0.37178	0.2907	0.852
Mof_O 	O 	0.5	0.3214	0.1721	-0.589
Mof_O 	O 	0.5	0.4216	0.1151	-0.945
Mof_O 	O 	0.5	0.1735	0.1391	-0.611
Mof_O 	O 	0.5	0.2299	0.2482	-0.735
Mof_W 	W 	0.23961	0.34061	0.5	1.022
Mof_O 	O 	0.722	0.1976	0.5	-0.584
Mof_O 	O 	0.135	0.2597	0.5	-0.243
Mof_O 	O 	0.042	0.3192	0.5	-0.475
Mof_W 	W 	0.73961	0.84061	-0	1.161
Mof_O 	O 	0.222	0.6976	-0	-0.604
Mof_O 	O 	0.635	0.7597	-0	-0.366
Mof_O 	O 	0.542	0.8192	-0	-0.232
Mof_W 	W 	0.76039	0.65939	0.5	0.98
Mof_O 	O 	0.278	0.8024	0.5	-0.599
Mof_O 	O 	0.865	0.7403	0.5	-0.302
Mof_O 	O 	0.958	0.6808	0.5	0.264
Mof_W 	W 	0.26039	0.15939	-0	0.996
Mof_O 	O 	0.778	0.3024	-0	-0.521
Mof_O 	O 	0.365	0.2403	-0	-0.354
Mof_O 	O 	0.458	0.1808	-0	-0.214
Mof_W 	W 	0.76039	0.34061	0.5	0.98
Mof_O 	O 	0.278	0.1976	0.5	-0.602
Mof_O 	O 	0.865	0.2597	0.5	-0.301
Mof_O 	O 	0.958	0.3192	0.5	0.268
Mof_W 	W 	0.26039	0.84061	-0	1.022
Mof_O 	O 	0.778	0.6976	-0	-0.522
Mof_O 	O 	0.365	0.7597	-0	-0.356
Mof_O 	O 	0.458	0.8192	-0	-0.219
Mof_W 	W 	0.23961	0.65939	0.5	1.022
Mof_O 	O 	0.722	0.8024	0.5	-0.581
Mof_O 	O 	0.135	0.7403	0.5	-0.245
Mof_O 	O 	0.042	0.6808	0.5	-0.473
Mof_W 	W 	0.73961	0.15939	-0	1.139
Mof_O 	O 	0.222	0.3024	-0	-0.604
Mof_O 	O 	0.635	0.2403	-0	-0.364
Mof_O 	O 	0.542	0.1808	-0	-0.227
Mof_Cu	Cu	0.3009	0	0.2706	0.754
Mof_O 	O 	0.226	-1.99864e-33	0.3552	-0.629
Mof_Cu	Cu	0.8009	0.5	0.7706	0.843
Mof_O 	O 	0.726	0.5	0.8552	-0.618
Mof_Cu	Cu	0.6991	0	0.2706	0.771
Mof_O 	O 	0.774	-1.99864e-33	0.3552	-0.521
Mof_Cu	Cu	0.1991	0.5	0.7706	0.772
Mof_O 	O 	0.274	0.5	0.8552	-0.692
Mof_Cu	Cu	0.6991	0	0.7294	0.77
Mof_O 	O 	0.774	3.99727e-33	0.6448	-0.521
Mof_Cu	Cu	0.1991	0.5	0.2294	0.772
Mof_O 	O 	0.274	0.5	0.1448	-0.686
Mof_Cu	Cu	0.3009	0	0.7294	0.754
Mof_O 	O 	0.226	3.99727e-33	0.6448	-0.629
Mof_Cu	Cu	0.8009	0.5	0.2294	0.842
Mof_O 	O 	0.726	0.5	0.1448	-0.613
Mof_P 	P 	-4.77931e-33	0.2596	0.5	0.225
Mof_O 	O 	-4.77931e-33	0.13	0.5	-0.592
Mof_O 	O 	-1.27739e-32	0.4214	0.5	-0.519
Mof_P 	P 	0.5	0.7596	-0	0.709
Mof_O 	O 	0.5	0.63	-0	-0.562
Mof_O 	O 	0.5	0.9214	-0	-0.462
Mof_P 	P 	1.12098e-32	0.7404	0.5	0.231
Mof_O 	O 	-5.27466e-32	0.87	0.5	-0.576
Mof_O 	O 	-2.07684e-32	0.5786	0.5	-0.519
Mof_P 	P 	0.5	0.2404	-0	0.708
Mof_O 	O 	0.5	0.37	-0	-0.561
Mof_O 	O 	0.5	0.0786	-0	-0.495
Mof_Cl	Cl	0.5	0	0.328	-0.798
Mof_Cl	Cl	0.5	0	0.302	-0.479
Mof_Cl	Cl	-2.66537e-32	0.5	0.828	-0.772
Mof_Cl	Cl	5.15724e-33	0.5	0.802	-0.466
Mof_Cl	Cl	0.5	0	0.672	-0.799
Mof_Cl	Cl	0.5	3.99727e-33	0.698	-0.477
Mof_Cl	Cl	-1.88803e-32	0.5	0.172	-0.783
Mof_Cl	Cl	-1.47159e-32	0.5	0.198	-0.454
Mof_K 	K 	-2.06813e-33	0	0.3	3.069
Mof_K 	K 	0.5	0.5	0.8	4.66
Mof_K 	K 	4.50133e-33	3.99727e-33	0.7	3.061
Mof_K 	K 	0.5	0.5	0.2	4.677
Mof_K 	K 	0.5	0.1274	0.311	3.549
Mof_K 	K 	-7.47303e-32	0.6274	0.811	2.652
Mof_K 	K 	0.5	0.8726	0.311	3.71
Mof_K 	K 	-4.27521e-32	0.3726	0.811	2.646
Mof_K 	K 	0.5	0.1274	0.689	3.547
Mof_K 	K 	-2.27683e-32	0.6274	0.189	2.678
Mof_K 	K 	0.5	0.8726	0.689	3.709
Mof_K 	K 	-2.27683e-32	0.3726	0.189	2.673
_end
