data_functionalizedCrystal
_audit_creation_method	'EQeq! by Chris Wilmer'
_symmetry_space_group_name_H-M	'P1'
_symmetry_Int_Tables_number	1
_symmetry_cell_setting	triclinic
loop_
_symmetry_equiv_pos_as_xyz
  x,y,z
_cell_length_a	18.621
_cell_length_b	18.621
_cell_length_c	25.6283
_cell_angle_alpha	68.6976
_cell_angle_beta	68.6976
_cell_angle_gamma	60
loop_
_atom_site_label
_atom_site_type_symbol
_atom_site_fract_x
_atom_site_fract_y
_atom_site_fract_z
_atom_site_charge
Mof_Cu	Cu	0.6873	0.27252	0.79654	0.919
Mof_Cu	Cu	0.27252	0.24364	0.79654	0.919
Mof_Cu	Cu	0.24364	0.6873	0.79654	0.919
Mof_Cu	Cu	0.8127	0.25636	0.70346	0.919
Mof_Cu	Cu	0.22748	0.8127	0.70346	0.919
Mof_Cu	Cu	0.25636	0.22748	0.70346	0.919
Mof_Cu	Cu	0.3127	0.72748	0.20346	0.919
Mof_Cu	Cu	0.72748	0.75636	0.20346	0.919
Mof_Cu	Cu	0.75636	0.3127	0.20346	0.919
Mof_Cu	Cu	0.1873	0.74364	0.29654	0.919
Mof_Cu	Cu	0.77252	0.1873	0.29654	0.919
Mof_Cu	Cu	0.74364	0.77252	0.29654	0.919
Mof_H 	H 	0.5063	0.5213	0.7402	0.063
Mof_H 	H 	0.4867	0.7297	0.6088	0.071
Mof_H 	H 	0.7127	0.5235	0.6112	0.076
Mof_H 	H 	0.608	0.7264	0.5341	0.118
Mof_H 	H 	0.7505	0.6024	0.5179	0.044
Mof_H 	H 	0.7537	0.648	0.559	0.046
Mof_H 	H 	0.7491	0.6688	0.4201	0.046
Mof_H 	H 	0.7338	0.7975	0.5203	0.05
Mof_H 	H 	0.7273	0.926	0.4336	0.061
Mof_H 	H 	0.7698	0.8871	0.3445	0.027
Mof_H 	H 	0.5213	0.2322	0.7402	0.063
Mof_H 	H 	0.7297	0.1748	0.6088	0.071
Mof_H 	H 	0.5235	0.1526	0.6112	0.076
Mof_H 	H 	0.7264	0.1315	0.5341	0.118
Mof_H 	H 	0.6024	0.1292	0.5179	0.044
Mof_H 	H 	0.648	0.0393	0.559	0.046
Mof_H 	H 	0.6688	0.162	0.4201	0.046
Mof_H 	H 	0.7975	0.9484	0.5203	0.05
Mof_H 	H 	0.926	0.9131	0.4336	0.061
Mof_H 	H 	0.8871	0.9986	0.3445	0.026
Mof_H 	H 	0.2322	0.5063	0.7402	0.063
Mof_H 	H 	0.1748	0.4867	0.6088	0.071
Mof_H 	H 	0.1526	0.7127	0.6112	0.076
Mof_H 	H 	0.1315	0.608	0.5341	0.118
Mof_H 	H 	0.1292	0.7505	0.5179	0.044
Mof_H 	H 	0.0393	0.7537	0.559	0.046
Mof_H 	H 	0.162	0.7491	0.4201	0.046
Mof_H 	H 	0.9484	0.7338	0.5203	0.05
Mof_H 	H 	0.9131	0.7273	0.4336	0.061
Mof_H 	H 	0.9986	0.7698	0.3445	0.026
Mof_H 	H 	0.9937	0.2678	0.7598	0.063
Mof_H 	H 	0.0133	0.3252	0.8912	0.071
Mof_H 	H 	0.7873	0.3474	0.8888	0.076
Mof_H 	H 	0.892	0.3685	0.9659	0.118
Mof_H 	H 	0.7495	0.3708	0.9821	0.044
Mof_H 	H 	0.7463	0.4607	0.941	0.046
Mof_H 	H 	0.7509	0.338	0.0799	0.046
Mof_H 	H 	0.7662	0.5516	0.9797	0.049
Mof_H 	H 	0.7727	0.5869	0.0664	0.061
Mof_H 	H 	0.7302	0.5014	0.1555	0.027
Mof_H 	H 	0.9787	0.9937	0.7598	0.064
Mof_H 	H 	0.7703	0.0133	0.8912	0.072
Mof_H 	H 	0.9765	0.7873	0.8888	0.076
Mof_H 	H 	0.7736	0.892	0.9659	0.118
Mof_H 	H 	0.8976	0.7495	0.9821	0.044
Mof_H 	H 	0.852	0.7463	0.941	0.046
Mof_H 	H 	0.8312	0.7509	0.0799	0.046
Mof_H 	H 	0.7025	0.7662	0.9797	0.049
Mof_H 	H 	0.574	0.7727	0.0664	0.061
Mof_H 	H 	0.6129	0.7302	0.1555	0.027
Mof_H 	H 	0.2678	0.9787	0.7598	0.063
Mof_H 	H 	0.3252	0.7703	0.8912	0.071
Mof_H 	H 	0.3474	0.9765	0.8888	0.075
Mof_H 	H 	0.3685	0.7736	0.9659	0.118
Mof_H 	H 	0.3708	0.8976	0.9821	0.044
Mof_H 	H 	0.4607	0.852	0.941	0.046
Mof_H 	H 	0.338	0.8312	0.0799	0.046
Mof_H 	H 	0.5516	0.7025	0.9797	0.049
Mof_H 	H 	0.5869	0.574	0.0664	0.061
Mof_H 	H 	0.5014	0.6129	0.1555	0.027
Mof_H 	H 	0.4937	0.4787	0.2598	0.063
Mof_H 	H 	0.5133	0.2703	0.3912	0.071
Mof_H 	H 	0.2873	0.4765	0.3888	0.076
Mof_H 	H 	0.392	0.2736	0.4659	0.118
Mof_H 	H 	0.2495	0.3976	0.4821	0.044
Mof_H 	H 	0.2463	0.352	0.441	0.046
Mof_H 	H 	0.2509	0.3312	0.5799	0.046
Mof_H 	H 	0.2662	0.2025	0.4797	0.05
Mof_H 	H 	0.2727	0.074	0.5664	0.061
Mof_H 	H 	0.2302	0.1129	0.6555	0.027
Mof_H 	H 	0.4787	0.7678	0.2598	0.063
Mof_H 	H 	0.2703	0.8252	0.3912	0.071
Mof_H 	H 	0.4765	0.8474	0.3888	0.076
Mof_H 	H 	0.2736	0.8685	0.4659	0.118
Mof_H 	H 	0.3976	0.8708	0.4821	0.044
Mof_H 	H 	0.352	0.9607	0.441	0.046
Mof_H 	H 	0.3312	0.838	0.5799	0.046
Mof_H 	H 	0.2025	0.0516	0.4797	0.05
Mof_H 	H 	0.074	0.0869	0.5664	0.061
Mof_H 	H 	0.1129	0.0014	0.6555	0.026
Mof_H 	H 	0.7678	0.4937	0.2598	0.063
Mof_H 	H 	0.8252	0.5133	0.3912	0.071
Mof_H 	H 	0.8474	0.2873	0.3888	0.076
Mof_H 	H 	0.8685	0.392	0.4659	0.118
Mof_H 	H 	0.8708	0.2495	0.4821	0.044
Mof_H 	H 	0.9607	0.2463	0.441	0.046
Mof_H 	H 	0.838	0.2509	0.5799	0.046
Mof_H 	H 	0.0516	0.2662	0.4797	0.05
Mof_H 	H 	0.0869	0.2727	0.5664	0.061
Mof_H 	H 	0.0014	0.2302	0.6555	0.026
Mof_H 	H 	0.0063	0.7322	0.2402	0.063
Mof_H 	H 	0.9867	0.6748	0.1088	0.071
Mof_H 	H 	0.2127	0.6526	0.1112	0.076
Mof_H 	H 	0.108	0.6315	0.0341	0.118
Mof_H 	H 	0.2505	0.6292	0.0179	0.044
Mof_H 	H 	0.2537	0.5393	0.059	0.046
Mof_H 	H 	0.2491	0.662	0.9201	0.046
Mof_H 	H 	0.2338	0.4484	0.0203	0.049
Mof_H 	H 	0.2273	0.4131	0.9336	0.061
Mof_H 	H 	0.2698	0.4986	0.8445	0.027
Mof_H 	H 	0.0213	0.0063	0.2402	0.064
Mof_H 	H 	0.2297	0.9867	0.1088	0.072
Mof_H 	H 	0.0235	0.2127	0.1112	0.076
Mof_H 	H 	0.2264	0.108	0.0341	0.118
Mof_H 	H 	0.1024	0.2505	0.0179	0.044
Mof_H 	H 	0.148	0.2537	0.059	0.046
Mof_H 	H 	0.1688	0.2491	0.9201	0.046
Mof_H 	H 	0.2975	0.2338	0.0203	0.049
Mof_H 	H 	0.426	0.2273	0.9336	0.061
Mof_H 	H 	0.3871	0.2698	0.8445	0.027
Mof_H 	H 	0.7322	0.0213	0.2402	0.063
Mof_H 	H 	0.6748	0.2297	0.1088	0.071
Mof_H 	H 	0.6526	0.0235	0.1112	0.075
Mof_H 	H 	0.6315	0.2264	0.0341	0.118
Mof_H 	H 	0.6292	0.1024	0.0179	0.044
Mof_H 	H 	0.5393	0.148	0.059	0.046
Mof_H 	H 	0.662	0.1688	0.9201	0.046
Mof_H 	H 	0.4484	0.2975	0.0203	0.049
Mof_H 	H 	0.4131	0.426	0.9336	0.061
Mof_H 	H 	0.4986	0.3871	0.8445	0.027
Mof_C 	C 	0.66848	0.41936	0.70624	0.333
Mof_C 	C 	0.61696	0.50916	0.67912	-0.045
Mof_C 	C 	0.53127	0.54957	0.70489	-0.004
Mof_C 	C 	0.48262	0.63212	0.67834	-0.052
Mof_C 	C 	0.52036	0.67376	0.62722	-0.076
Mof_C 	C 	0.60664	0.63444	0.60268	0.103
Mof_C 	C 	0.65416	0.55156	0.62842	-0.078
Mof_C 	C 	0.39122	0.67532	0.70474	0.343
Mof_C 	C 	0.72495	0.65655	0.53005	-0.039
Mof_C 	C 	0.73734	0.72574	0.47848	0.014
Mof_C 	C 	0.74445	0.71965	0.42445	-0.012
Mof_C 	C 	0.7351	0.7951	0.4837	-0.052
Mof_C 	C 	0.73649	0.87249	0.43063	-0.071
Mof_C 	C 	0.75247	0.85197	0.37939	0.045
Mof_C 	C 	0.41936	0.20592	0.70624	0.333
Mof_C 	C 	0.50916	0.19476	0.67912	-0.045
Mof_C 	C 	0.54957	0.21427	0.70489	-0.004
Mof_C 	C 	0.63212	0.20692	0.67834	-0.052
Mof_C 	C 	0.67376	0.17866	0.62722	-0.076
Mof_C 	C 	0.63444	0.15624	0.60268	0.103
Mof_C 	C 	0.55156	0.16586	0.62842	-0.078
Mof_C 	C 	0.67532	0.22872	0.70474	0.343
Mof_C 	C 	0.65655	0.08845	0.53005	-0.039
Mof_C 	C 	0.72574	0.05844	0.47848	0.014
Mof_C 	C 	0.71965	0.11145	0.42445	-0.012
Mof_C 	C 	0.7951	0.9861	0.4837	-0.052
Mof_C 	C 	0.87249	0.96039	0.43063	-0.071
Mof_C 	C 	0.85197	0.01617	0.37939	0.045
Mof_C 	C 	0.20592	0.66848	0.70624	0.333
Mof_C 	C 	0.19476	0.61696	0.67912	-0.045
Mof_C 	C 	0.21427	0.53127	0.70489	-0.004
Mof_C 	C 	0.20692	0.48262	0.67834	-0.052
Mof_C 	C 	0.17866	0.52036	0.62722	-0.076
Mof_C 	C 	0.15624	0.60664	0.60268	0.103
Mof_C 	C 	0.16586	0.65416	0.62842	-0.078
Mof_C 	C 	0.22872	0.39122	0.70474	0.343
Mof_C 	C 	0.08845	0.72495	0.53005	-0.039
Mof_C 	C 	0.05844	0.73734	0.47848	0.014
Mof_C 	C 	0.11145	0.74445	0.42445	-0.012
Mof_C 	C 	0.9861	0.7351	0.4837	-0.053
Mof_C 	C 	0.96039	0.73649	0.43063	-0.071
Mof_C 	C 	0.01617	0.75247	0.37939	0.045
Mof_C 	C 	0.83152	0.29408	0.79376	0.333
Mof_C 	C 	0.88304	0.30524	0.82088	-0.045
Mof_C 	C 	0.96873	0.28573	0.79511	-0.005
Mof_C 	C 	0.01738	0.29308	0.82166	-0.051
Mof_C 	C 	0.97964	0.32134	0.87278	-0.077
Mof_C 	C 	0.89336	0.34376	0.89732	0.103
Mof_C 	C 	0.84584	0.33414	0.87158	-0.078
Mof_C 	C 	0.10878	0.27128	0.79526	0.343
Mof_C 	C 	0.77505	0.41155	0.96995	-0.039
Mof_C 	C 	0.76266	0.44156	0.02152	0.014
Mof_C 	C 	0.75555	0.38855	0.07555	-0.012
Mof_C 	C 	0.7649	0.5139	0.0163	-0.052
Mof_C 	C 	0.76351	0.53961	0.06937	-0.071
Mof_C 	C 	0.74753	0.48383	0.12061	0.045
Mof_C 	C 	0.08064	0.83152	0.79376	0.333
Mof_C 	C 	0.99084	0.88304	0.82088	-0.045
Mof_C 	C 	0.95043	0.96873	0.79511	-0.005
Mof_C 	C 	0.86788	0.01738	0.82166	-0.05
Mof_C 	C 	0.82624	0.97964	0.87278	-0.078
Mof_C 	C 	0.86556	0.89336	0.89732	0.103
Mof_C 	C 	0.94844	0.84584	0.87158	-0.079
Mof_C 	C 	0.82468	0.10878	0.79526	0.343
Mof_C 	C 	0.84345	0.77505	0.96995	-0.039
Mof_C 	C 	0.77426	0.76266	0.02152	0.015
Mof_C 	C 	0.78035	0.75555	0.07555	-0.012
Mof_C 	C 	0.7049	0.7649	0.0163	-0.052
Mof_C 	C 	0.62751	0.76351	0.06937	-0.071
Mof_C 	C 	0.64803	0.74753	0.12061	0.045
Mof_C 	C 	0.29408	0.08064	0.79376	0.333
Mof_C 	C 	0.30524	0.99084	0.82088	-0.045
Mof_C 	C 	0.28573	0.95043	0.79511	-0.004
Mof_C 	C 	0.29308	0.86788	0.82166	-0.052
Mof_C 	C 	0.32134	0.82624	0.87278	-0.076
Mof_C 	C 	0.34376	0.86556	0.89732	0.103
Mof_C 	C 	0.33414	0.94844	0.87158	-0.078
Mof_C 	C 	0.27128	0.82468	0.79526	0.343
Mof_C 	C 	0.41155	0.84345	0.96995	-0.039
Mof_C 	C 	0.44156	0.77426	0.02152	0.014
Mof_C 	C 	0.38855	0.78035	0.07555	-0.012
Mof_C 	C 	0.5139	0.7049	0.0163	-0.052
Mof_C 	C 	0.53961	0.62751	0.06937	-0.071
Mof_C 	C 	0.48383	0.64803	0.12061	0.045
Mof_C 	C 	0.33152	0.58064	0.29376	0.333
Mof_C 	C 	0.38304	0.49084	0.32088	-0.045
Mof_C 	C 	0.46873	0.45043	0.29511	-0.004
Mof_C 	C 	0.51738	0.36788	0.32166	-0.052
Mof_C 	C 	0.47964	0.32624	0.37278	-0.076
Mof_C 	C 	0.39336	0.36556	0.39732	0.103
Mof_C 	C 	0.34584	0.44844	0.37158	-0.078
Mof_C 	C 	0.60878	0.32468	0.29526	0.343
Mof_C 	C 	0.27505	0.34345	0.46995	-0.039
Mof_C 	C 	0.26266	0.27426	0.52152	0.014
Mof_C 	C 	0.25555	0.28035	0.57555	-0.012
Mof_C 	C 	0.2649	0.2049	0.5163	-0.052
Mof_C 	C 	0.26351	0.12751	0.56937	-0.071
Mof_C 	C 	0.24753	0.14803	0.62061	0.045
Mof_C 	C 	0.58064	0.79408	0.29376	0.333
Mof_C 	C 	0.49084	0.80524	0.32088	-0.045
Mof_C 	C 	0.45043	0.78573	0.29511	-0.004
Mof_C 	C 	0.36788	0.79308	0.32166	-0.052
Mof_C 	C 	0.32624	0.82134	0.37278	-0.076
Mof_C 	C 	0.36556	0.84376	0.39732	0.103
Mof_C 	C 	0.44844	0.83414	0.37158	-0.078
Mof_C 	C 	0.32468	0.77128	0.29526	0.343
Mof_C 	C 	0.34345	0.91155	0.46995	-0.039
Mof_C 	C 	0.27426	0.94156	0.52152	0.014
Mof_C 	C 	0.28035	0.88855	0.57555	-0.012
Mof_C 	C 	0.2049	0.0139	0.5163	-0.052
Mof_C 	C 	0.12751	0.03961	0.56937	-0.071
Mof_C 	C 	0.14803	0.98383	0.62061	0.045
Mof_C 	C 	0.79408	0.33152	0.29376	0.333
Mof_C 	C 	0.80524	0.38304	0.32088	-0.045
Mof_C 	C 	0.78573	0.46873	0.29511	-0.004
Mof_C 	C 	0.79308	0.51738	0.32166	-0.052
Mof_C 	C 	0.82134	0.47964	0.37278	-0.076
Mof_C 	C 	0.84376	0.39336	0.39732	0.103
Mof_C 	C 	0.83414	0.34584	0.37158	-0.078
Mof_C 	C 	0.77128	0.60878	0.29526	0.343
Mof_C 	C 	0.91155	0.27505	0.46995	-0.039
Mof_C 	C 	0.94156	0.26266	0.52152	0.014
Mof_C 	C 	0.88855	0.25555	0.57555	-0.012
Mof_C 	C 	0.0139	0.2649	0.5163	-0.053
Mof_C 	C 	0.03961	0.26351	0.56937	-0.071
Mof_C 	C 	0.98383	0.24753	0.62061	0.045
Mof_C 	C 	0.16848	0.70592	0.20624	0.333
Mof_C 	C 	0.11696	0.69476	0.17912	-0.045
Mof_C 	C 	0.03127	0.71427	0.20489	-0.005
Mof_C 	C 	0.98262	0.70692	0.17834	-0.051
Mof_C 	C 	0.02036	0.67866	0.12722	-0.077
Mof_C 	C 	0.10664	0.65624	0.10268	0.103
Mof_C 	C 	0.15416	0.66586	0.12842	-0.078
Mof_C 	C 	0.89122	0.72872	0.20474	0.343
Mof_C 	C 	0.22495	0.58845	0.03005	-0.039
Mof_C 	C 	0.23734	0.55844	0.97848	0.014
Mof_C 	C 	0.24445	0.61145	0.92445	-0.012
Mof_C 	C 	0.2351	0.4861	0.9837	-0.052
Mof_C 	C 	0.23649	0.46039	0.93063	-0.071
Mof_C 	C 	0.25247	0.51617	0.87939	0.045
Mof_C 	C 	0.91936	0.16848	0.20624	0.333
Mof_C 	C 	0.00916	0.11696	0.17912	-0.045
Mof_C 	C 	0.04957	0.03127	0.20489	-0.005
Mof_C 	C 	0.13212	0.98262	0.17834	-0.05
Mof_C 	C 	0.17376	0.02036	0.12722	-0.078
Mof_C 	C 	0.13444	0.10664	0.10268	0.103
Mof_C 	C 	0.05156	0.15416	0.12842	-0.079
Mof_C 	C 	0.17532	0.89122	0.20474	0.343
Mof_C 	C 	0.15655	0.22495	0.03005	-0.039
Mof_C 	C 	0.22574	0.23734	0.97848	0.015
Mof_C 	C 	0.21965	0.24445	0.92445	-0.012
Mof_C 	C 	0.2951	0.2351	0.9837	-0.052
Mof_C 	C 	0.37249	0.23649	0.93063	-0.071
Mof_C 	C 	0.35197	0.25247	0.87939	0.045
Mof_C 	C 	0.70592	0.91936	0.20624	0.333
Mof_C 	C 	0.69476	0.00916	0.17912	-0.045
Mof_C 	C 	0.71427	0.04957	0.20489	-0.004
Mof_C 	C 	0.70692	0.13212	0.17834	-0.052
Mof_C 	C 	0.67866	0.17376	0.12722	-0.076
Mof_C 	C 	0.65624	0.13444	0.10268	0.103
Mof_C 	C 	0.66586	0.05156	0.12842	-0.078
Mof_C 	C 	0.72872	0.17532	0.20474	0.343
Mof_C 	C 	0.58845	0.15655	0.03005	-0.039
Mof_C 	C 	0.55844	0.22574	0.97848	0.014
Mof_C 	C 	0.61145	0.21965	0.92445	-0.012
Mof_C 	C 	0.4861	0.2951	0.9837	-0.052
Mof_C 	C 	0.46039	0.37249	0.93063	-0.071
Mof_C 	C 	0.51617	0.35197	0.87939	0.045
Mof_N 	N 	0.74519	0.78635	0.37573	-0.168
Mof_N 	N 	0.64315	0.67885	0.55255	-0.189
Mof_N 	N 	0.78635	0.09273	0.37573	-0.168
Mof_N 	N 	0.67885	0.12545	0.55255	-0.189
Mof_N 	N 	0.09273	0.74519	0.37573	-0.168
Mof_N 	N 	0.12545	0.64315	0.55255	-0.189
Mof_N 	N 	0.75481	0.40727	0.12427	-0.168
Mof_N 	N 	0.85685	0.37455	0.94745	-0.189
Mof_N 	N 	0.71365	0.75481	0.12427	-0.168
Mof_N 	N 	0.82115	0.85685	0.94745	-0.189
Mof_N 	N 	0.40727	0.71365	0.12427	-0.168
Mof_N 	N 	0.37455	0.82115	0.94745	-0.189
Mof_N 	N 	0.25481	0.21365	0.62427	-0.168
Mof_N 	N 	0.35685	0.32115	0.44745	-0.189
Mof_N 	N 	0.21365	0.90727	0.62427	-0.168
Mof_N 	N 	0.32115	0.87455	0.44745	-0.189
Mof_N 	N 	0.90727	0.25481	0.62427	-0.168
Mof_N 	N 	0.87455	0.35685	0.44745	-0.189
Mof_N 	N 	0.24519	0.59273	0.87573	-0.168
Mof_N 	N 	0.14315	0.62545	0.05255	-0.189
Mof_N 	N 	0.28635	0.24519	0.87573	-0.168
Mof_N 	N 	0.17885	0.14315	0.05255	-0.189
Mof_N 	N 	0.59273	0.28635	0.87573	-0.168
Mof_N 	N 	0.62545	0.17885	0.05255	-0.189
Mof_O 	O 	0.63486	0.39012	0.75724	-0.392
Mof_O 	O 	0.74057	0.37949	0.67798	-0.388
Mof_O 	O 	0.36289	0.63992	0.75418	-0.394
Mof_O 	O 	0.34821	0.74613	0.67579	-0.398
Mof_O 	O 	0.39012	0.21778	0.75724	-0.392
Mof_O 	O 	0.37949	0.20196	0.67798	-0.388
Mof_O 	O 	0.63992	0.24301	0.75418	-0.394
Mof_O 	O 	0.74613	0.22987	0.67579	-0.398
Mof_O 	O 	0.21778	0.63486	0.75724	-0.392
Mof_O 	O 	0.20196	0.74057	0.67798	-0.388
Mof_O 	O 	0.24301	0.36289	0.75418	-0.394
Mof_O 	O 	0.22987	0.34821	0.67579	-0.398
Mof_O 	O 	0.86514	0.28222	0.74276	-0.392
Mof_O 	O 	0.75943	0.29804	0.82202	-0.388
Mof_O 	O 	0.13711	0.25699	0.74582	-0.394
Mof_O 	O 	0.15179	0.27013	0.82421	-0.398
Mof_O 	O 	0.10988	0.86514	0.74276	-0.392
Mof_O 	O 	0.12051	0.75943	0.82202	-0.388
Mof_O 	O 	0.86008	0.13711	0.74582	-0.394
Mof_O 	O 	0.75387	0.15179	0.82421	-0.397
Mof_O 	O 	0.28222	0.10988	0.74276	-0.392
Mof_O 	O 	0.29804	0.12051	0.82202	-0.388
Mof_O 	O 	0.25699	0.86008	0.74582	-0.394
Mof_O 	O 	0.27013	0.75387	0.82421	-0.398
Mof_O 	O 	0.36514	0.60988	0.24276	-0.392
Mof_O 	O 	0.25943	0.62051	0.32202	-0.388
Mof_O 	O 	0.63711	0.36008	0.24582	-0.394
Mof_O 	O 	0.65179	0.25387	0.32421	-0.398
Mof_O 	O 	0.60988	0.78222	0.24276	-0.392
Mof_O 	O 	0.62051	0.79804	0.32202	-0.388
Mof_O 	O 	0.36008	0.75699	0.24582	-0.394
Mof_O 	O 	0.25387	0.77013	0.32421	-0.398
Mof_O 	O 	0.78222	0.36514	0.24276	-0.392
Mof_O 	O 	0.79804	0.25943	0.32202	-0.388
Mof_O 	O 	0.75699	0.63711	0.24582	-0.394
Mof_O 	O 	0.77013	0.65179	0.32421	-0.398
Mof_O 	O 	0.13486	0.71778	0.25724	-0.392
Mof_O 	O 	0.24057	0.70196	0.17798	-0.388
Mof_O 	O 	0.86289	0.74301	0.25418	-0.394
Mof_O 	O 	0.84821	0.72987	0.17579	-0.398
Mof_O 	O 	0.89012	0.13486	0.25724	-0.392
Mof_O 	O 	0.87949	0.24057	0.17798	-0.388
Mof_O 	O 	0.13992	0.86289	0.25418	-0.394
Mof_O 	O 	0.24613	0.84821	0.17579	-0.397
Mof_O 	O 	0.71778	0.89012	0.25724	-0.392
Mof_O 	O 	0.70196	0.87949	0.17798	-0.388
Mof_O 	O 	0.74301	0.13992	0.25418	-0.394
Mof_O 	O 	0.72987	0.24613	0.17579	-0.398
_end
