data_functionalizedCrystal
_audit_creation_method	'EQeq! by Chris Wilmer'
_symmetry_space_group_name_H-M	'P1'
_symmetry_Int_Tables_number	1
_symmetry_cell_setting	triclinic
loop_
_symmetry_equiv_pos_as_xyz
  x,y,z
_cell_length_a	8.6066
_cell_length_b	10.156
_cell_length_c	11.161
_cell_angle_alpha	65.26
_cell_angle_beta	71.76
_cell_angle_gamma	78.68
loop_
_atom_site_label
_atom_site_type_symbol
_atom_site_fract_x
_atom_site_fract_y
_atom_site_fract_z
_atom_site_charge
Mof_Gd	Gd	0.86814	0.56025	0.34671	1.501
Mof_Gd	Gd	0.13186	0.43975	0.65329	1.501
Mof_H 	H 	0.9287	0.7814	0.6811	0.04
Mof_H 	H 	0.0167	0.0274	0.2803	0.05
Mof_H 	H 	0.3653	0.8849	0.2273	0.045
Mof_H 	H 	0.7713	0.9312	0.9189	0.058
Mof_H 	H 	0.4575	0.6451	0.1223	0.049
Mof_H 	H 	0.284	0.3834	0.0148	0.057
Mof_H 	H 	0.0713	0.2186	0.3189	0.04
Mof_H 	H 	0.9833	0.9726	0.7197	0.05
Mof_H 	H 	0.6347	0.1151	0.7727	0.045
Mof_H 	H 	0.2287	0.0688	0.0811	0.058
Mof_H 	H 	0.5425	0.3549	0.8777	0.049
Mof_H 	H 	0.716	0.6166	0.9852	0.057
Mof_C 	C 	0.9316	0.7652	0.4474	0.364
Mof_C 	C 	0.9674	0.8856	0.4764	-0.098
Mof_C 	C 	0.9572	0.8688	0.6085	-0.026
Mof_C 	C 	0.01	0.0164	0.3687	-0.018
Mof_C 	C 	0.6746	0.768	0.1801	0.307
Mof_C 	C 	0.5826	0.889	0.0889	-0.058
Mof_C 	C 	0.4199	0.9309	0.136	-0.018
Mof_C 	C 	0.662	0.9589	0.9518	-0.027
Mof_C 	C 	0.1789	0.5389	0.1691	0.31
Mof_C 	C 	0.3452	0.5177	0.0824	-0.061
Mof_C 	C 	0.4747	0.5867	0.073	-0.029
Mof_C 	C 	0.3704	0.4302	0.009	-0.031
Mof_C 	C 	0.0684	0.2348	0.5526	0.364
Mof_C 	C 	0.0326	0.1144	0.5236	-0.098
Mof_C 	C 	0.0428	0.1312	0.3915	-0.026
Mof_C 	C 	0.99	0.9836	0.6313	-0.018
Mof_C 	C 	0.3254	0.232	0.8199	0.307
Mof_C 	C 	0.4174	0.111	0.9111	-0.058
Mof_C 	C 	0.5801	0.0691	0.864	-0.018
Mof_C 	C 	0.338	0.0411	0.0482	-0.027
Mof_C 	C 	0.8211	0.4611	0.8309	0.31
Mof_C 	C 	0.6548	0.4823	0.9176	-0.061
Mof_C 	C 	0.5253	0.4133	0.927	-0.029
Mof_C 	C 	0.6296	0.5698	0.991	-0.031
Mof_O 	O 	0.9638	0.63354	0.51944	-0.498
Mof_O 	O 	0.8689	0.79781	0.3509	-0.391
Mof_O 	O 	0.6022	0.7004	0.30452	-0.399
Mof_O 	O 	0.8217	0.735	0.13105	-0.374
Mof_O 	O 	0.1569	0.61894	0.23584	-0.372
Mof_O 	O 	0.0631	0.47663	0.17499	-0.381
Mof_O 	O 	0.0362	0.36646	0.48056	-0.498
Mof_O 	O 	0.1311	0.20219	0.6491	-0.391
Mof_O 	O 	0.3978	0.2996	0.69548	-0.399
Mof_O 	O 	0.1783	0.265	0.86895	-0.374
Mof_O 	O 	0.8431	0.38106	0.76416	-0.372
Mof_O 	O 	0.9369	0.52337	0.82501	-0.381
_end
