data_functionalizedCrystal
_audit_creation_method	'EQeq! by Chris Wilmer'
_symmetry_space_group_name_H-M	'P1'
_symmetry_Int_Tables_number	1
_symmetry_cell_setting	triclinic
loop_
_symmetry_equiv_pos_as_xyz
  x,y,z
_cell_length_a	30.1786
_cell_length_b	39.4019
_cell_length_c	26.5077
_cell_angle_alpha	90
_cell_angle_beta	120.931
_cell_angle_gamma	90
loop_
_atom_site_label
_atom_site_type_symbol
_atom_site_fract_x
_atom_site_fract_y
_atom_site_fract_z
_atom_site_charge
Mof_Cu	Cu	0.11461	0.27343	0.62683	0.921
Mof_Cu	Cu	0.1462	0.22044	0.70021	0.921
Mof_I 	I 	0.28962	0.30109	0.98953	-0.086
Mof_I 	I 	0.2069	0.4215	0.8122	-0.074
Mof_I 	I 	0.36185	0.38087	0.91656	-0.074
Mof_I 	I 	0.16631	0.37847	0.94796	-0.08
Mof_I 	I 	0.59761	0.37615	0.36844	-0.075
Mof_I 	I 	0.57534	0.42319	0.5023	-0.085
Mof_I 	I 	0.40597	0.18577	0.7543	-0.081
Mof_I 	I 	0.31462	0.28931	0.5511	-0.064
Mof_I 	I 	0.44546	0.29866	0.77245	-0.076
Mof_I 	I 	0.35135	0.19414	0.55918	-0.08
Mof_O 	O 	0.14717	0.29978	0.69962	-0.394
Mof_O 	O 	0.17541	0.25586	0.76117	-0.388
Mof_O 	O 	0.31741	0.46489	0.10401	-0.394
Mof_O 	O 	0.38609	0.46505	0.09331	-0.402
Mof_O 	O 	0.45111	0.46516	0.21351	-0.4
Mof_O 	O 	0.38191	0.46497	0.22398	-0.398
Mof_O 	O 	0.61294	0.30472	0.62553	-0.407
Mof_O 	O 	0.58566	0.26051	0.56459	-0.397
Mof_O 	O 	0.1833	0.26594	0.63648	-0.395
Mof_O 	O 	0.20988	0.22234	0.69747	-0.4
Mof_O 	O 	0.57955	0.27318	0.69435	-0.4
Mof_O 	O 	0.55157	0.22942	0.63149	-0.388
Mof_C 	C 	0.1963	0.31142	0.8007	-0.021
Mof_C 	C 	0.2233	0.29937	0.8578	-0.069
Mof_H 	H 	0.2254	0.2759	0.8649	0.087
Mof_C 	C 	0.247	0.32138	0.9041	0.066
Mof_C 	C 	0.2438	0.35632	0.8942	-0.016
Mof_C 	C 	0.2157	0.36803	0.8373	0.062
Mof_C 	C 	0.1929	0.34536	0.7912	-0.067
Mof_H 	H 	0.1747	0.3536	0.7525	0.086
Mof_C 	C 	0.17141	0.28696	0.7496	0.342
Mof_C 	C 	0.3175	0.42831	0.03367	-0.028
Mof_C 	C 	0.2692	0.41651	0.0166	-0.067
Mof_H 	H 	0.2522	0.4248	0.0353	0.082
Mof_C 	C 	0.2448	0.39276	0.9725	0.057
Mof_C 	C 	0.2699	0.38142	0.9441	-0.012
Mof_C 	C 	0.3184	0.39398	0.9607	0.059
Mof_C 	C 	0.3432	0.41703	0.006	-0.063
Mof_H 	H 	0.3765	0.4249	0.0177	0.085
Mof_C 	C 	0.3427	0.45509	0.08113	0.345
Mof_C 	C 	0.4524	0.42922	0.28446	-0.06
Mof_C 	C 	0.5002	0.41721	0.301	-0.037
Mof_H 	H 	0.5168	0.4245	0.2811	0.077
Mof_C 	C 	0.5249	0.39404	0.3473	0.043
Mof_C 	C 	0.50223	0.38281	0.37764	0.012
Mof_C 	C 	0.4531	0.39498	0.3594	-0.063
Mof_H 	H 	0.436	0.3871	0.3785	0.066
Mof_C 	C 	0.4286	0.41811	0.3145	0.005
Mof_H 	H 	0.3958	0.4264	0.3042	0.05
Mof_C 	C 	0.4264	0.45536	0.2368	0.35
Mof_C 	C 	0.56982	0.31509	0.52414	-0.071
Mof_C 	C 	0.57957	0.34923	0.53326	-0.03
Mof_H 	H 	0.6003	0.3576	0.5717	0.066
Mof_C 	C 	0.55869	0.37169	0.48546	0.037
Mof_C 	C 	0.52748	0.35956	0.42862	0.021
Mof_C 	C 	0.51824	0.32516	0.42063	-0.073
Mof_H 	H 	0.4975	0.3166	0.3823	0.074
Mof_C 	C 	0.53867	0.30291	0.46741	0.015
Mof_H 	H 	0.5315	0.2796	0.4609	0.052
Mof_C 	C 	0.59135	0.29175	0.57584	0.361
Mof_C 	C 	0.26559	0.24379	0.6682	-0.028
Mof_C 	C 	0.3044	0.22233	0.7024	-0.06
Mof_H 	H 	0.3004	0.2072	0.7273	0.084
Mof_C 	C 	0.3495	0.22204	0.7017	0.063
Mof_C 	C 	0.3585	0.24451	0.6694	-0.011
Mof_C 	C 	0.3202	0.2685	0.6381	0.057
Mof_C 	C 	0.274	0.26699	0.636	-0.058
Mof_H 	H 	0.2476	0.2823	0.6119	0.087
Mof_C 	C 	0.21534	0.24361	0.6677	0.361
Mof_C 	C 	0.49796	0.24896	0.6653	-0.025
Mof_C 	C 	0.4597	0.22782	0.6291	-0.062
Mof_H 	H 	0.4642	0.2136	0.6036	0.081
Mof_C 	C 	0.4133	0.2267	0.6291	0.057
Mof_C 	C 	0.4074	0.24585	0.6687	-0.01
Mof_C 	C 	0.4472	0.2675	0.7054	0.059
Mof_C 	C 	0.4921	0.26886	0.7025	-0.065
Mof_H 	H 	0.5186	0.284	0.727	0.082
Mof_C 	C 	0.54757	0.2508	0.664	0.335
Mof_N 	N 	0.09617	0.31608	0.57012	-0.196
Mof_C 	C 	0.1027	0.3468	0.5846	0.086
Mof_C 	C 	0.0951	0.3769	0.5571	-0.024
Mof_C 	C 	0.0919	0.3728	0.5033	-0.009
Mof_C 	C 	0.0995	0.3397	0.4886	0.006
Mof_C 	C 	0.1033	0.3115	0.5234	0.045
Mof_C 	C 	0.0674	0.37	0.4976	0.034
Mof_C 	C 	0.0374	0.3401	0.4775	-0.019
Mof_C 	C 	0.052	0.3125	0.5162	0.04
Mof_N 	N 	0.16618	0.17775	0.75729	-0.222
Mof_C 	C 	0.1816	0.1486	0.7444	0.117
Mof_H 	H 	0.1843	0.1468	0.7107	0.003
Mof_C 	C 	0.1935	0.121	0.7828	-0.204
Mof_H 	H 	0.2013	0.1001	0.7722	0.107
Mof_C 	C 	0.1942	0.1228	0.833	0.19
Mof_H 	H 	0.2122	0.1076	0.8644	-0.023
Mof_C 	C 	0.1675	0.1476	0.8334	-0.251
Mof_H 	H 	0.1525	0.1464	0.8569	0.132
Mof_C 	C 	0.1601	0.1759	0.8004	0.18
Mof_H 	H 	0.1497	0.1958	0.811	-0.013
Mof_C 	C 	0.2551	0.472	0.1857	0.077
Mof_H 	H 	0.2674	0.451	0.1809	0.013
Mof_C 	C 	0.2164	0.4694	0.2003	-0.14
Mof_H 	H 	0.2046	0.4488	0.2069	0.09
Mof_Cu	Cu	0.61461	0.77343	0.62683	0.922
Mof_Cu	Cu	0.6462	0.72044	0.70021	0.922
Mof_I 	I 	0.78962	0.80109	0.98953	-0.085
Mof_I 	I 	0.7069	0.9215	0.8122	-0.07
Mof_I 	I 	0.86185	0.88087	0.91656	-0.072
Mof_I 	I 	0.66631	0.87847	0.94796	-0.077
Mof_I 	I 	0.09761	0.87615	0.36844	-0.073
Mof_I 	I 	0.07534	0.92319	0.5023	-0.081
Mof_I 	I 	0.90597	0.68577	0.7543	-0.079
Mof_I 	I 	0.81462	0.78931	0.5511	-0.063
Mof_I 	I 	0.94546	0.79866	0.77245	-0.074
Mof_I 	I 	0.85135	0.69414	0.55918	-0.079
Mof_O 	O 	0.64717	0.79978	0.69962	-0.393
Mof_O 	O 	0.67541	0.75586	0.76117	-0.387
Mof_O 	O 	0.81741	0.96489	0.10401	-0.39
Mof_O 	O 	0.88609	0.96505	0.09331	-0.398
Mof_O 	O 	0.95111	0.96516	0.21351	-0.396
Mof_O 	O 	0.88191	0.96497	0.22398	-0.394
Mof_O 	O 	0.11294	0.80472	0.62553	-0.406
Mof_O 	O 	0.08566	0.76051	0.56459	-0.396
Mof_O 	O 	0.6833	0.76594	0.63648	-0.394
Mof_O 	O 	0.70988	0.72234	0.69747	-0.399
Mof_O 	O 	0.07955	0.77318	0.69435	-0.399
Mof_O 	O 	0.05157	0.72942	0.63149	-0.387
Mof_C 	C 	0.6963	0.81142	0.8007	-0.02
Mof_C 	C 	0.7233	0.79937	0.8578	-0.068
Mof_H 	H 	0.7254	0.7759	0.8649	0.088
Mof_C 	C 	0.747	0.82138	0.9041	0.067
Mof_C 	C 	0.7438	0.85632	0.8942	-0.014
Mof_C 	C 	0.7157	0.86803	0.8373	0.063
Mof_C 	C 	0.6929	0.84536	0.7912	-0.065
Mof_H 	H 	0.6747	0.8536	0.7525	0.087
Mof_C 	C 	0.67141	0.78696	0.7496	0.343
Mof_C 	C 	0.8175	0.92831	0.03367	-0.026
Mof_C 	C 	0.7692	0.91651	0.0166	-0.067
Mof_H 	H 	0.7522	0.9248	0.0353	0.084
Mof_C 	C 	0.7448	0.89276	0.9725	0.059
Mof_C 	C 	0.7699	0.88142	0.9441	-0.011
Mof_C 	C 	0.8184	0.89398	0.9607	0.059
Mof_C 	C 	0.8432	0.91703	0.006	-0.064
Mof_H 	H 	0.8765	0.9249	0.0177	0.086
Mof_C 	C 	0.8427	0.95509	0.08113	0.345
Mof_C 	C 	0.9524	0.92922	0.28446	-0.06
Mof_C 	C 	0.0002	0.91721	0.301	-0.037
Mof_H 	H 	0.0168	0.9245	0.2811	0.078
Mof_C 	C 	0.0249	0.89404	0.3473	0.044
Mof_C 	C 	0.00223	0.88281	0.37764	0.011
Mof_C 	C 	0.9531	0.89498	0.3594	-0.062
Mof_H 	H 	0.936	0.8871	0.3785	0.066
Mof_C 	C 	0.9286	0.91811	0.3145	0.005
Mof_H 	H 	0.8958	0.9264	0.3042	0.051
Mof_C 	C 	0.9264	0.95536	0.2368	0.349
Mof_C 	C 	0.06982	0.81509	0.52414	-0.071
Mof_C 	C 	0.07957	0.84923	0.53326	-0.03
Mof_H 	H 	0.1003	0.8576	0.5717	0.066
Mof_C 	C 	0.05869	0.87169	0.48546	0.037
Mof_C 	C 	0.02748	0.85956	0.42862	0.021
Mof_C 	C 	0.01824	0.82516	0.42063	-0.073
Mof_H 	H 	0.9975	0.8166	0.3823	0.074
Mof_C 	C 	0.03867	0.80291	0.46741	0.015
Mof_H 	H 	0.0315	0.7796	0.4609	0.052
Mof_C 	C 	0.09135	0.79175	0.57584	0.361
Mof_C 	C 	0.76559	0.74379	0.6682	-0.028
Mof_C 	C 	0.8044	0.72233	0.7024	-0.06
Mof_H 	H 	0.8004	0.7072	0.7273	0.084
Mof_C 	C 	0.8495	0.72204	0.7017	0.063
Mof_C 	C 	0.8585	0.74451	0.6694	-0.011
Mof_C 	C 	0.8202	0.7685	0.6381	0.057
Mof_C 	C 	0.774	0.76699	0.636	-0.058
Mof_H 	H 	0.7476	0.7823	0.6119	0.087
Mof_C 	C 	0.71534	0.74361	0.6677	0.361
Mof_C 	C 	0.99796	0.74896	0.6653	-0.025
Mof_C 	C 	0.9597	0.72782	0.6291	-0.062
Mof_H 	H 	0.9642	0.7136	0.6036	0.082
Mof_C 	C 	0.9133	0.7267	0.6291	0.057
Mof_C 	C 	0.9074	0.74585	0.6687	-0.01
Mof_C 	C 	0.9472	0.7675	0.7054	0.058
Mof_C 	C 	0.9921	0.76886	0.7025	-0.064
Mof_H 	H 	0.0186	0.784	0.727	0.082
Mof_C 	C 	0.04757	0.7508	0.664	0.335
Mof_N 	N 	0.59617	0.81608	0.57012	-0.196
Mof_C 	C 	0.6027	0.8468	0.5846	0.086
Mof_C 	C 	0.5951	0.8769	0.5571	-0.024
Mof_C 	C 	0.5919	0.8728	0.5033	-0.011
Mof_C 	C 	0.5995	0.8397	0.4886	0.007
Mof_C 	C 	0.6033	0.8115	0.5234	0.045
Mof_C 	C 	0.5674	0.87	0.4976	0.036
Mof_C 	C 	0.5374	0.8401	0.4775	-0.02
Mof_C 	C 	0.552	0.8125	0.5162	0.04
Mof_N 	N 	0.66618	0.67775	0.75729	-0.222
Mof_C 	C 	0.6816	0.6486	0.7444	0.117
Mof_H 	H 	0.6843	0.6468	0.7107	0.003
Mof_C 	C 	0.6935	0.621	0.7828	-0.204
Mof_H 	H 	0.7013	0.6001	0.7722	0.107
Mof_C 	C 	0.6942	0.6228	0.833	0.19
Mof_H 	H 	0.7122	0.6076	0.8644	-0.023
Mof_C 	C 	0.6675	0.6476	0.8334	-0.251
Mof_H 	H 	0.6525	0.6464	0.8569	0.132
Mof_C 	C 	0.6601	0.6759	0.8004	0.18
Mof_H 	H 	0.6497	0.6958	0.811	-0.013
Mof_C 	C 	0.7551	0.972	0.1857	0.079
Mof_H 	H 	0.7674	0.951	0.1809	0.013
Mof_C 	C 	0.7164	0.9694	0.2003	-0.125
Mof_H 	H 	0.7046	0.9488	0.2069	0.086
Mof_Cu	Cu	0.11461	0.72657	0.62683	0.922
Mof_Cu	Cu	0.1462	0.77956	0.70021	0.922
Mof_I 	I 	0.28962	0.69891	0.98953	-0.085
Mof_I 	I 	0.2069	0.5785	0.8122	-0.073
Mof_I 	I 	0.36185	0.61913	0.91656	-0.073
Mof_I 	I 	0.16631	0.62153	0.94796	-0.079
Mof_I 	I 	0.59761	0.62385	0.36844	-0.074
Mof_I 	I 	0.57534	0.57681	0.5023	-0.084
Mof_I 	I 	0.40597	0.81423	0.7543	-0.078
Mof_I 	I 	0.31462	0.71069	0.5511	-0.063
Mof_I 	I 	0.44546	0.70134	0.77245	-0.075
Mof_I 	I 	0.35135	0.80586	0.55918	-0.079
Mof_O 	O 	0.14717	0.70022	0.69962	-0.393
Mof_O 	O 	0.17541	0.74414	0.76117	-0.387
Mof_O 	O 	0.31741	0.53511	0.10401	-0.393
Mof_O 	O 	0.38609	0.53495	0.09331	-0.401
Mof_O 	O 	0.45111	0.53484	0.21351	-0.399
Mof_O 	O 	0.38191	0.53503	0.22398	-0.397
Mof_O 	O 	0.61294	0.69528	0.62553	-0.406
Mof_O 	O 	0.58566	0.73949	0.56459	-0.396
Mof_O 	O 	0.1833	0.73406	0.63648	-0.394
Mof_O 	O 	0.20988	0.77766	0.69747	-0.399
Mof_O 	O 	0.57955	0.72682	0.69435	-0.399
Mof_O 	O 	0.55157	0.77058	0.63149	-0.387
Mof_C 	C 	0.1963	0.68858	0.8007	-0.02
Mof_C 	C 	0.2233	0.70063	0.8578	-0.068
Mof_H 	H 	0.2254	0.7241	0.8649	0.088
Mof_C 	C 	0.247	0.67862	0.9041	0.067
Mof_C 	C 	0.2438	0.64368	0.8942	-0.015
Mof_C 	C 	0.2157	0.63197	0.8373	0.063
Mof_C 	C 	0.1929	0.65464	0.7912	-0.066
Mof_H 	H 	0.1747	0.6464	0.7525	0.087
Mof_C 	C 	0.17141	0.71304	0.7496	0.343
Mof_C 	C 	0.3175	0.57169	0.03367	-0.027
Mof_C 	C 	0.2692	0.58349	0.0166	-0.066
Mof_H 	H 	0.2522	0.5752	0.0353	0.083
Mof_C 	C 	0.2448	0.60724	0.9725	0.058
Mof_C 	C 	0.2699	0.61858	0.9441	-0.011
Mof_C 	C 	0.3184	0.60602	0.9607	0.059
Mof_C 	C 	0.3432	0.58297	0.006	-0.063
Mof_H 	H 	0.3765	0.5751	0.0177	0.085
Mof_C 	C 	0.3427	0.54491	0.08113	0.345
Mof_C 	C 	0.4524	0.57078	0.28446	-0.06
Mof_C 	C 	0.5002	0.58279	0.301	-0.037
Mof_H 	H 	0.5168	0.5755	0.2811	0.077
Mof_C 	C 	0.5249	0.60596	0.3473	0.043
Mof_C 	C 	0.50223	0.61719	0.37764	0.012
Mof_C 	C 	0.4531	0.60502	0.3594	-0.063
Mof_H 	H 	0.436	0.6129	0.3785	0.066
Mof_C 	C 	0.4286	0.58189	0.3145	0.005
Mof_H 	H 	0.3958	0.5736	0.3042	0.05
Mof_C 	C 	0.4264	0.54464	0.2368	0.35
Mof_C 	C 	0.56982	0.68491	0.52414	-0.071
Mof_C 	C 	0.57957	0.65077	0.53326	-0.03
Mof_H 	H 	0.6003	0.6424	0.5717	0.066
Mof_C 	C 	0.55869	0.62831	0.48546	0.037
Mof_C 	C 	0.52748	0.64044	0.42862	0.021
Mof_C 	C 	0.51824	0.67484	0.42063	-0.073
Mof_H 	H 	0.4975	0.6834	0.3823	0.074
Mof_C 	C 	0.53867	0.69709	0.46741	0.015
Mof_H 	H 	0.5315	0.7204	0.4609	0.052
Mof_C 	C 	0.59135	0.70825	0.57584	0.361
Mof_C 	C 	0.26559	0.75621	0.6682	-0.028
Mof_C 	C 	0.3044	0.77767	0.7024	-0.06
Mof_H 	H 	0.3004	0.7928	0.7273	0.084
Mof_C 	C 	0.3495	0.77796	0.7017	0.063
Mof_C 	C 	0.3585	0.75549	0.6694	-0.011
Mof_C 	C 	0.3202	0.7315	0.6381	0.057
Mof_C 	C 	0.274	0.73301	0.636	-0.058
Mof_H 	H 	0.2476	0.7177	0.6119	0.087
Mof_C 	C 	0.21534	0.75639	0.6677	0.361
Mof_C 	C 	0.49796	0.75104	0.6653	-0.025
Mof_C 	C 	0.4597	0.77218	0.6291	-0.062
Mof_H 	H 	0.4642	0.7864	0.6036	0.082
Mof_C 	C 	0.4133	0.7733	0.6291	0.057
Mof_C 	C 	0.4074	0.75415	0.6687	-0.01
Mof_C 	C 	0.4472	0.7325	0.7054	0.059
Mof_C 	C 	0.4921	0.73114	0.7025	-0.065
Mof_H 	H 	0.5186	0.716	0.727	0.082
Mof_C 	C 	0.54757	0.7492	0.664	0.335
Mof_N 	N 	0.09617	0.68392	0.57012	-0.196
Mof_C 	C 	0.1027	0.6532	0.5846	0.086
Mof_C 	C 	0.0951	0.6231	0.5571	-0.024
Mof_C 	C 	0.0919	0.6272	0.5033	-0.009
Mof_C 	C 	0.0995	0.6603	0.4886	0.006
Mof_C 	C 	0.1033	0.6885	0.5234	0.045
Mof_C 	C 	0.0674	0.63	0.4976	0.034
Mof_C 	C 	0.0374	0.6599	0.4775	-0.019
Mof_C 	C 	0.052	0.6875	0.5162	0.04
Mof_N 	N 	0.16618	0.82225	0.75729	-0.222
Mof_C 	C 	0.1816	0.8514	0.7444	0.117
Mof_H 	H 	0.1843	0.8532	0.7107	0.003
Mof_C 	C 	0.1935	0.879	0.7828	-0.204
Mof_H 	H 	0.2013	0.8999	0.7722	0.107
Mof_C 	C 	0.1942	0.8772	0.833	0.19
Mof_H 	H 	0.2122	0.8924	0.8644	-0.023
Mof_C 	C 	0.1675	0.8524	0.8334	-0.251
Mof_H 	H 	0.1525	0.8536	0.8569	0.132
Mof_C 	C 	0.1601	0.8241	0.8004	0.18
Mof_H 	H 	0.1497	0.8042	0.811	-0.013
Mof_C 	C 	0.2551	0.528	0.1857	0.077
Mof_H 	H 	0.2674	0.549	0.1809	0.013
Mof_C 	C 	0.2164	0.5306	0.2003	-0.14
Mof_H 	H 	0.2046	0.5512	0.2069	0.09
Mof_Cu	Cu	0.61461	0.22657	0.62683	0.922
Mof_Cu	Cu	0.6462	0.27956	0.70021	0.922
Mof_I 	I 	0.78962	0.19891	0.98953	-0.085
Mof_I 	I 	0.7069	0.0785	0.8122	-0.076
Mof_I 	I 	0.86185	0.11913	0.91656	-0.074
Mof_I 	I 	0.66631	0.12153	0.94796	-0.08
Mof_I 	I 	0.09761	0.12385	0.36844	-0.075
Mof_I 	I 	0.07534	0.07681	0.5023	-0.086
Mof_I 	I 	0.90597	0.31423	0.7543	-0.079
Mof_I 	I 	0.81462	0.21069	0.5511	-0.063
Mof_I 	I 	0.94546	0.20134	0.77245	-0.075
Mof_I 	I 	0.85135	0.30586	0.55918	-0.079
Mof_O 	O 	0.64717	0.20022	0.69962	-0.393
Mof_O 	O 	0.67541	0.24414	0.76117	-0.387
Mof_O 	O 	0.81741	0.03511	0.10401	-0.395
Mof_O 	O 	0.88609	0.03495	0.09331	-0.403
Mof_O 	O 	0.95111	0.03484	0.21351	-0.401
Mof_O 	O 	0.88191	0.03503	0.22398	-0.398
Mof_O 	O 	0.11294	0.19528	0.62553	-0.406
Mof_O 	O 	0.08566	0.23949	0.56459	-0.396
Mof_O 	O 	0.6833	0.23406	0.63648	-0.394
Mof_O 	O 	0.70988	0.27766	0.69747	-0.399
Mof_O 	O 	0.07955	0.22682	0.69435	-0.399
Mof_O 	O 	0.05157	0.27058	0.63149	-0.387
Mof_C 	C 	0.6963	0.18858	0.8007	-0.02
Mof_C 	C 	0.7233	0.20063	0.8578	-0.068
Mof_H 	H 	0.7254	0.2241	0.8649	0.088
Mof_C 	C 	0.747	0.17862	0.9041	0.067
Mof_C 	C 	0.7438	0.14368	0.8942	-0.015
Mof_C 	C 	0.7157	0.13197	0.8373	0.063
Mof_C 	C 	0.6929	0.15464	0.7912	-0.066
Mof_H 	H 	0.6747	0.1464	0.7525	0.087
Mof_C 	C 	0.67141	0.21304	0.7496	0.343
Mof_C 	C 	0.8175	0.07169	0.03367	-0.027
Mof_C 	C 	0.7692	0.08349	0.0166	-0.066
Mof_H 	H 	0.7522	0.0752	0.0353	0.083
Mof_C 	C 	0.7448	0.10724	0.9725	0.058
Mof_C 	C 	0.7699	0.11858	0.9441	-0.011
Mof_C 	C 	0.8184	0.10602	0.9607	0.059
Mof_C 	C 	0.8432	0.08297	0.006	-0.064
Mof_H 	H 	0.8765	0.0751	0.0177	0.084
Mof_C 	C 	0.8427	0.04491	0.08113	0.345
Mof_C 	C 	0.9524	0.07078	0.28446	-0.061
Mof_C 	C 	0.0002	0.08279	0.301	-0.036
Mof_H 	H 	0.0168	0.0755	0.2811	0.076
Mof_C 	C 	0.0249	0.10596	0.3473	0.043
Mof_C 	C 	0.00223	0.11719	0.37764	0.012
Mof_C 	C 	0.9531	0.10502	0.3594	-0.063
Mof_H 	H 	0.936	0.1129	0.3785	0.067
Mof_C 	C 	0.9286	0.08189	0.3145	0.006
Mof_H 	H 	0.8958	0.0736	0.3042	0.05
Mof_C 	C 	0.9264	0.04464	0.2368	0.35
Mof_C 	C 	0.06982	0.18491	0.52414	-0.07
Mof_C 	C 	0.07957	0.15077	0.53326	-0.031
Mof_H 	H 	0.1003	0.1424	0.5717	0.066
Mof_C 	C 	0.05869	0.12831	0.48546	0.038
Mof_C 	C 	0.02748	0.14044	0.42862	0.021
Mof_C 	C 	0.01824	0.17484	0.42063	-0.073
Mof_H 	H 	0.9975	0.1834	0.3823	0.074
Mof_C 	C 	0.03867	0.19709	0.46741	0.015
Mof_H 	H 	0.0315	0.2204	0.4609	0.052
Mof_C 	C 	0.09135	0.20825	0.57584	0.361
Mof_C 	C 	0.76559	0.25621	0.6682	-0.028
Mof_C 	C 	0.8044	0.27767	0.7024	-0.06
Mof_H 	H 	0.8004	0.2928	0.7273	0.084
Mof_C 	C 	0.8495	0.27796	0.7017	0.063
Mof_C 	C 	0.8585	0.25549	0.6694	-0.011
Mof_C 	C 	0.8202	0.2315	0.6381	0.057
Mof_C 	C 	0.774	0.23301	0.636	-0.058
Mof_H 	H 	0.7476	0.2177	0.6119	0.087
Mof_C 	C 	0.71534	0.25639	0.6677	0.361
Mof_C 	C 	0.99796	0.25104	0.6653	-0.025
Mof_C 	C 	0.9597	0.27218	0.6291	-0.062
Mof_H 	H 	0.9642	0.2864	0.6036	0.082
Mof_C 	C 	0.9133	0.2733	0.6291	0.057
Mof_C 	C 	0.9074	0.25415	0.6687	-0.01
Mof_C 	C 	0.9472	0.2325	0.7054	0.059
Mof_C 	C 	0.9921	0.23114	0.7025	-0.064
Mof_H 	H 	0.0186	0.216	0.727	0.082
Mof_C 	C 	0.04757	0.2492	0.664	0.335
Mof_N 	N 	0.59617	0.18392	0.57012	-0.196
Mof_C 	C 	0.6027	0.1532	0.5846	0.086
Mof_C 	C 	0.5951	0.1231	0.5571	-0.025
Mof_C 	C 	0.5919	0.1272	0.5033	-0.008
Mof_C 	C 	0.5995	0.1603	0.4886	0.006
Mof_C 	C 	0.6033	0.1885	0.5234	0.045
Mof_C 	C 	0.5674	0.13	0.4976	0.032
Mof_C 	C 	0.5374	0.1599	0.4775	-0.019
Mof_C 	C 	0.552	0.1875	0.5162	0.04
Mof_N 	N 	0.66618	0.32225	0.75729	-0.222
Mof_C 	C 	0.6816	0.3514	0.7444	0.117
Mof_H 	H 	0.6843	0.3532	0.7107	0.003
Mof_C 	C 	0.6935	0.379	0.7828	-0.204
Mof_H 	H 	0.7013	0.3999	0.7722	0.107
Mof_C 	C 	0.6942	0.3772	0.833	0.19
Mof_H 	H 	0.7122	0.3924	0.8644	-0.023
Mof_C 	C 	0.6675	0.3524	0.8334	-0.251
Mof_H 	H 	0.6525	0.3536	0.8569	0.132
Mof_C 	C 	0.6601	0.3241	0.8004	0.18
Mof_H 	H 	0.6497	0.3042	0.811	-0.013
Mof_C 	C 	0.7551	0.028	0.1857	0.071
Mof_H 	H 	0.7674	0.049	0.1809	0.014
Mof_C 	C 	0.7164	0.0306	0.2003	-0.13
Mof_H 	H 	0.7046	0.0512	0.2069	0.086
Mof_Cu	Cu	0.42514	0.5	0.15228	0.909
Mof_Cu	Cu	0.34339	0.5	0.16526	0.92
Mof_N 	N 	0.278	0.5	0.1772	-0.185
Mof_C 	C 	0.1985	0.5	0.2039	0.079
Mof_H 	H 	0.1701	0.5	0.2094	0.018
Mof_Cu	Cu	0.92514	0	0.15228	0.906
Mof_Cu	Cu	0.84339	0	0.16526	0.918
Mof_N 	N 	0.778	0	0.1772	-0.187
Mof_C 	C 	0.6985	0	0.2039	0.061
Mof_H 	H 	0.6701	0	0.2094	0.022
Mof_Cu	Cu	0.88539	0.27343	0.37317	0.922
Mof_Cu	Cu	0.8538	0.22044	0.29979	0.922
Mof_I 	I 	0.71038	0.30109	0.01047	-0.085
Mof_I 	I 	0.7931	0.4215	0.1878	-0.073
Mof_I 	I 	0.63815	0.38087	0.08344	-0.073
Mof_I 	I 	0.83369	0.37847	0.05204	-0.079
Mof_I 	I 	0.40239	0.37615	0.63156	-0.074
Mof_I 	I 	0.42466	0.42319	0.4977	-0.084
Mof_I 	I 	0.59403	0.18577	0.2457	-0.08
Mof_I 	I 	0.68538	0.28931	0.4489	-0.063
Mof_I 	I 	0.55454	0.29866	0.22755	-0.075
Mof_I 	I 	0.64865	0.19414	0.44082	-0.079
Mof_O 	O 	0.85283	0.29978	0.30038	-0.393
Mof_O 	O 	0.82459	0.25586	0.23883	-0.387
Mof_O 	O 	0.68259	0.46489	0.89599	-0.393
Mof_O 	O 	0.61391	0.46505	0.90669	-0.401
Mof_O 	O 	0.54889	0.46516	0.78649	-0.399
Mof_O 	O 	0.61809	0.46497	0.77602	-0.397
Mof_O 	O 	0.38706	0.30472	0.37447	-0.406
Mof_O 	O 	0.41434	0.26051	0.43541	-0.396
Mof_O 	O 	0.8167	0.26594	0.36352	-0.394
Mof_O 	O 	0.79012	0.22234	0.30253	-0.399
Mof_O 	O 	0.42045	0.27318	0.30565	-0.399
Mof_O 	O 	0.44843	0.22942	0.36851	-0.387
Mof_C 	C 	0.8037	0.31142	0.1993	-0.02
Mof_C 	C 	0.7767	0.29937	0.1422	-0.068
Mof_H 	H 	0.7746	0.2759	0.1351	0.088
Mof_C 	C 	0.753	0.32138	0.0959	0.067
Mof_C 	C 	0.7562	0.35632	0.1058	-0.015
Mof_C 	C 	0.7843	0.36803	0.1627	0.063
Mof_C 	C 	0.8071	0.34536	0.2088	-0.066
Mof_H 	H 	0.8253	0.3536	0.2475	0.087
Mof_C 	C 	0.82859	0.28696	0.2504	0.343
Mof_C 	C 	0.6825	0.42831	0.96633	-0.027
Mof_C 	C 	0.7308	0.41651	0.9834	-0.066
Mof_H 	H 	0.7478	0.4248	0.9647	0.083
Mof_C 	C 	0.7552	0.39276	0.0275	0.058
Mof_C 	C 	0.7301	0.38142	0.0559	-0.011
Mof_C 	C 	0.6816	0.39398	0.0393	0.059
Mof_C 	C 	0.6568	0.41703	0.994	-0.063
Mof_H 	H 	0.6235	0.4249	0.9823	0.085
Mof_C 	C 	0.6573	0.45509	0.91887	0.345
Mof_C 	C 	0.5476	0.42922	0.71554	-0.06
Mof_C 	C 	0.4998	0.41721	0.699	-0.037
Mof_H 	H 	0.4832	0.4245	0.7189	0.077
Mof_C 	C 	0.4751	0.39404	0.6527	0.043
Mof_C 	C 	0.49777	0.38281	0.62236	0.012
Mof_C 	C 	0.5469	0.39498	0.6406	-0.063
Mof_H 	H 	0.564	0.3871	0.6215	0.066
Mof_C 	C 	0.5714	0.41811	0.6855	0.005
Mof_H 	H 	0.6042	0.4264	0.6958	0.05
Mof_C 	C 	0.5736	0.45536	0.7632	0.35
Mof_C 	C 	0.43018	0.31509	0.47586	-0.071
Mof_C 	C 	0.42043	0.34923	0.46674	-0.03
Mof_H 	H 	0.3997	0.3576	0.4283	0.066
Mof_C 	C 	0.44131	0.37169	0.51454	0.037
Mof_C 	C 	0.47252	0.35956	0.57138	0.021
Mof_C 	C 	0.48176	0.32516	0.57937	-0.073
Mof_H 	H 	0.5025	0.3166	0.6177	0.074
Mof_C 	C 	0.46133	0.30291	0.53259	0.015
Mof_H 	H 	0.4685	0.2796	0.5391	0.052
Mof_C 	C 	0.40865	0.29175	0.42416	0.361
Mof_C 	C 	0.73441	0.24379	0.3318	-0.028
Mof_C 	C 	0.6956	0.22233	0.2976	-0.06
Mof_H 	H 	0.6996	0.2072	0.2727	0.084
Mof_C 	C 	0.6505	0.22204	0.2983	0.063
Mof_C 	C 	0.6415	0.24451	0.3306	-0.011
Mof_C 	C 	0.6798	0.2685	0.3619	0.057
Mof_C 	C 	0.726	0.26699	0.364	-0.058
Mof_H 	H 	0.7524	0.2823	0.3881	0.087
Mof_C 	C 	0.78466	0.24361	0.3323	0.361
Mof_C 	C 	0.50204	0.24896	0.3347	-0.025
Mof_C 	C 	0.5403	0.22782	0.3709	-0.062
Mof_H 	H 	0.5358	0.2136	0.3964	0.081
Mof_C 	C 	0.5867	0.2267	0.3709	0.057
Mof_C 	C 	0.5926	0.24585	0.3313	-0.01
Mof_C 	C 	0.5528	0.2675	0.2946	0.059
Mof_C 	C 	0.5079	0.26886	0.2975	-0.065
Mof_H 	H 	0.4814	0.284	0.273	0.082
Mof_C 	C 	0.45243	0.2508	0.336	0.335
Mof_N 	N 	0.90383	0.31608	0.42988	-0.196
Mof_C 	C 	0.8973	0.3468	0.4154	0.086
Mof_C 	C 	0.9049	0.3769	0.4429	-0.024
Mof_C 	C 	0.9081	0.3728	0.4967	-0.009
Mof_C 	C 	0.9005	0.3397	0.5114	0.006
Mof_C 	C 	0.8967	0.3115	0.4766	0.045
Mof_C 	C 	0.9326	0.37	0.5024	0.034
Mof_C 	C 	0.9626	0.3401	0.5225	-0.019
Mof_C 	C 	0.948	0.3125	0.4838	0.04
Mof_N 	N 	0.83382	0.17775	0.24271	-0.222
Mof_C 	C 	0.8184	0.1486	0.2556	0.117
Mof_H 	H 	0.8157	0.1468	0.2893	0.003
Mof_C 	C 	0.8065	0.121	0.2172	-0.204
Mof_H 	H 	0.7987	0.1001	0.2278	0.107
Mof_C 	C 	0.8058	0.1228	0.167	0.19
Mof_H 	H 	0.7878	0.1076	0.1356	-0.023
Mof_C 	C 	0.8325	0.1476	0.1666	-0.251
Mof_H 	H 	0.8475	0.1464	0.1431	0.132
Mof_C 	C 	0.8399	0.1759	0.1996	0.18
Mof_H 	H 	0.8503	0.1958	0.189	-0.013
Mof_C 	C 	0.7449	0.472	0.8143	0.077
Mof_H 	H 	0.7326	0.451	0.8191	0.013
Mof_C 	C 	0.7836	0.4694	0.7997	-0.14
Mof_H 	H 	0.7954	0.4488	0.7931	0.09
Mof_Cu	Cu	0.38539	0.77343	0.37317	0.922
Mof_Cu	Cu	0.3538	0.72044	0.29979	0.922
Mof_I 	I 	0.21038	0.80109	0.01047	-0.085
Mof_I 	I 	0.2931	0.9215	0.1878	-0.07
Mof_I 	I 	0.13815	0.88087	0.08344	-0.072
Mof_I 	I 	0.33369	0.87847	0.05204	-0.077
Mof_I 	I 	0.90239	0.87615	0.63156	-0.073
Mof_I 	I 	0.92466	0.92319	0.4977	-0.081
Mof_I 	I 	0.09403	0.68577	0.2457	-0.079
Mof_I 	I 	0.18538	0.78931	0.4489	-0.063
Mof_I 	I 	0.05454	0.79866	0.22755	-0.074
Mof_I 	I 	0.14865	0.69414	0.44082	-0.079
Mof_O 	O 	0.35283	0.79978	0.30038	-0.393
Mof_O 	O 	0.32459	0.75586	0.23883	-0.387
Mof_O 	O 	0.18259	0.96489	0.89599	-0.39
Mof_O 	O 	0.11391	0.96505	0.90669	-0.398
Mof_O 	O 	0.04889	0.96516	0.78649	-0.396
Mof_O 	O 	0.11809	0.96497	0.77602	-0.394
Mof_O 	O 	0.88706	0.80472	0.37447	-0.406
Mof_O 	O 	0.91434	0.76051	0.43541	-0.396
Mof_O 	O 	0.3167	0.76594	0.36352	-0.394
Mof_O 	O 	0.29012	0.72234	0.30253	-0.399
Mof_O 	O 	0.92045	0.77318	0.30565	-0.399
Mof_O 	O 	0.94843	0.72942	0.36851	-0.387
Mof_C 	C 	0.3037	0.81142	0.1993	-0.02
Mof_C 	C 	0.2767	0.79937	0.1422	-0.068
Mof_H 	H 	0.2746	0.7759	0.1351	0.088
Mof_C 	C 	0.253	0.82138	0.0959	0.067
Mof_C 	C 	0.2562	0.85632	0.1058	-0.014
Mof_C 	C 	0.2843	0.86803	0.1627	0.063
Mof_C 	C 	0.3071	0.84536	0.2088	-0.065
Mof_H 	H 	0.3253	0.8536	0.2475	0.087
Mof_C 	C 	0.32859	0.78696	0.2504	0.343
Mof_C 	C 	0.1825	0.92831	0.96633	-0.026
Mof_C 	C 	0.2308	0.91651	0.9834	-0.067
Mof_H 	H 	0.2478	0.9248	0.9647	0.084
Mof_C 	C 	0.2552	0.89276	0.0275	0.059
Mof_C 	C 	0.2301	0.88142	0.0559	-0.011
Mof_C 	C 	0.1816	0.89398	0.0393	0.059
Mof_C 	C 	0.1568	0.91703	0.994	-0.064
Mof_H 	H 	0.1235	0.9249	0.9823	0.086
Mof_C 	C 	0.1573	0.95509	0.91887	0.345
Mof_C 	C 	0.0476	0.92922	0.71554	-0.06
Mof_C 	C 	0.9998	0.91721	0.699	-0.037
Mof_H 	H 	0.9832	0.9245	0.7189	0.078
Mof_C 	C 	0.9751	0.89404	0.6527	0.044
Mof_C 	C 	0.99777	0.88281	0.62236	0.011
Mof_C 	C 	0.0469	0.89498	0.6406	-0.062
Mof_H 	H 	0.064	0.8871	0.6215	0.066
Mof_C 	C 	0.0714	0.91811	0.6855	0.005
Mof_H 	H 	0.1042	0.9264	0.6958	0.051
Mof_C 	C 	0.0736	0.95536	0.7632	0.349
Mof_C 	C 	0.93018	0.81509	0.47586	-0.071
Mof_C 	C 	0.92043	0.84923	0.46674	-0.03
Mof_H 	H 	0.8997	0.8576	0.4283	0.066
Mof_C 	C 	0.94131	0.87169	0.51454	0.037
Mof_C 	C 	0.97252	0.85956	0.57138	0.021
Mof_C 	C 	0.98176	0.82516	0.57937	-0.073
Mof_H 	H 	0.0025	0.8166	0.6177	0.074
Mof_C 	C 	0.96133	0.80291	0.53259	0.015
Mof_H 	H 	0.9685	0.7796	0.5391	0.052
Mof_C 	C 	0.90865	0.79175	0.42416	0.361
Mof_C 	C 	0.23441	0.74379	0.3318	-0.028
Mof_C 	C 	0.1956	0.72233	0.2976	-0.06
Mof_H 	H 	0.1996	0.7072	0.2727	0.084
Mof_C 	C 	0.1505	0.72204	0.2983	0.063
Mof_C 	C 	0.1415	0.74451	0.3306	-0.011
Mof_C 	C 	0.1798	0.7685	0.3619	0.057
Mof_C 	C 	0.226	0.76699	0.364	-0.058
Mof_H 	H 	0.2524	0.7823	0.3881	0.087
Mof_C 	C 	0.28466	0.74361	0.3323	0.361
Mof_C 	C 	0.00204	0.74896	0.3347	-0.025
Mof_C 	C 	0.0403	0.72782	0.3709	-0.062
Mof_H 	H 	0.0358	0.7136	0.3964	0.082
Mof_C 	C 	0.0867	0.7267	0.3709	0.057
Mof_C 	C 	0.0926	0.74585	0.3313	-0.01
Mof_C 	C 	0.0528	0.7675	0.2946	0.058
Mof_C 	C 	0.0079	0.76886	0.2975	-0.064
Mof_H 	H 	0.9814	0.784	0.273	0.082
Mof_C 	C 	0.95243	0.7508	0.336	0.335
Mof_N 	N 	0.40383	0.81608	0.42988	-0.196
Mof_C 	C 	0.3973	0.8468	0.4154	0.086
Mof_C 	C 	0.4049	0.8769	0.4429	-0.024
Mof_C 	C 	0.4081	0.8728	0.4967	-0.011
Mof_C 	C 	0.4005	0.8397	0.5114	0.007
Mof_C 	C 	0.3967	0.8115	0.4766	0.045
Mof_C 	C 	0.4326	0.87	0.5024	0.036
Mof_C 	C 	0.4626	0.8401	0.5225	-0.02
Mof_C 	C 	0.448	0.8125	0.4838	0.04
Mof_N 	N 	0.33382	0.67775	0.24271	-0.222
Mof_C 	C 	0.3184	0.6486	0.2556	0.117
Mof_H 	H 	0.3157	0.6468	0.2893	0.003
Mof_C 	C 	0.3065	0.621	0.2172	-0.204
Mof_H 	H 	0.2987	0.6001	0.2278	0.107
Mof_C 	C 	0.3058	0.6228	0.167	0.19
Mof_H 	H 	0.2878	0.6076	0.1356	-0.023
Mof_C 	C 	0.3325	0.6476	0.1666	-0.251
Mof_H 	H 	0.3475	0.6464	0.1431	0.132
Mof_C 	C 	0.3399	0.6759	0.1996	0.18
Mof_H 	H 	0.3503	0.6958	0.189	-0.013
Mof_C 	C 	0.2449	0.972	0.8143	0.079
Mof_H 	H 	0.2326	0.951	0.8191	0.013
Mof_C 	C 	0.2836	0.9694	0.7997	-0.125
Mof_H 	H 	0.2954	0.9488	0.7931	0.086
Mof_Cu	Cu	0.88539	0.72657	0.37317	0.922
Mof_Cu	Cu	0.8538	0.77956	0.29979	0.922
Mof_I 	I 	0.71038	0.69891	0.01047	-0.085
Mof_I 	I 	0.7931	0.5785	0.1878	-0.073
Mof_I 	I 	0.63815	0.61913	0.08344	-0.073
Mof_I 	I 	0.83369	0.62153	0.05204	-0.079
Mof_I 	I 	0.40239	0.62385	0.63156	-0.074
Mof_I 	I 	0.42466	0.57681	0.4977	-0.084
Mof_I 	I 	0.59403	0.81423	0.2457	-0.078
Mof_I 	I 	0.68538	0.71069	0.4489	-0.063
Mof_I 	I 	0.55454	0.70134	0.22755	-0.075
Mof_I 	I 	0.64865	0.80586	0.44082	-0.079
Mof_O 	O 	0.85283	0.70022	0.30038	-0.393
Mof_O 	O 	0.82459	0.74414	0.23883	-0.387
Mof_O 	O 	0.68259	0.53511	0.89599	-0.393
Mof_O 	O 	0.61391	0.53495	0.90669	-0.401
Mof_O 	O 	0.54889	0.53484	0.78649	-0.399
Mof_O 	O 	0.61809	0.53503	0.77602	-0.397
Mof_O 	O 	0.38706	0.69528	0.37447	-0.406
Mof_O 	O 	0.41434	0.73949	0.43541	-0.396
Mof_O 	O 	0.8167	0.73406	0.36352	-0.394
Mof_O 	O 	0.79012	0.77766	0.30253	-0.399
Mof_O 	O 	0.42045	0.72682	0.30565	-0.399
Mof_O 	O 	0.44843	0.77058	0.36851	-0.387
Mof_C 	C 	0.8037	0.68858	0.1993	-0.02
Mof_C 	C 	0.7767	0.70063	0.1422	-0.068
Mof_H 	H 	0.7746	0.7241	0.1351	0.088
Mof_C 	C 	0.753	0.67862	0.0959	0.067
Mof_C 	C 	0.7562	0.64368	0.1058	-0.015
Mof_C 	C 	0.7843	0.63197	0.1627	0.063
Mof_C 	C 	0.8071	0.65464	0.2088	-0.066
Mof_H 	H 	0.8253	0.6464	0.2475	0.087
Mof_C 	C 	0.82859	0.71304	0.2504	0.343
Mof_C 	C 	0.6825	0.57169	0.96633	-0.027
Mof_C 	C 	0.7308	0.58349	0.9834	-0.066
Mof_H 	H 	0.7478	0.5752	0.9647	0.083
Mof_C 	C 	0.7552	0.60724	0.0275	0.058
Mof_C 	C 	0.7301	0.61858	0.0559	-0.011
Mof_C 	C 	0.6816	0.60602	0.0393	0.059
Mof_C 	C 	0.6568	0.58297	0.994	-0.063
Mof_H 	H 	0.6235	0.5751	0.9823	0.085
Mof_C 	C 	0.6573	0.54491	0.91887	0.345
Mof_C 	C 	0.5476	0.57078	0.71554	-0.06
Mof_C 	C 	0.4998	0.58279	0.699	-0.037
Mof_H 	H 	0.4832	0.5755	0.7189	0.077
Mof_C 	C 	0.4751	0.60596	0.6527	0.043
Mof_C 	C 	0.49777	0.61719	0.62236	0.012
Mof_C 	C 	0.5469	0.60502	0.6406	-0.063
Mof_H 	H 	0.564	0.6129	0.6215	0.066
Mof_C 	C 	0.5714	0.58189	0.6855	0.005
Mof_H 	H 	0.6042	0.5736	0.6958	0.05
Mof_C 	C 	0.5736	0.54464	0.7632	0.35
Mof_C 	C 	0.43018	0.68491	0.47586	-0.071
Mof_C 	C 	0.42043	0.65077	0.46674	-0.03
Mof_H 	H 	0.3997	0.6424	0.4283	0.066
Mof_C 	C 	0.44131	0.62831	0.51454	0.037
Mof_C 	C 	0.47252	0.64044	0.57138	0.021
Mof_C 	C 	0.48176	0.67484	0.57937	-0.073
Mof_H 	H 	0.5025	0.6834	0.6177	0.074
Mof_C 	C 	0.46133	0.69709	0.53259	0.015
Mof_H 	H 	0.4685	0.7204	0.5391	0.052
Mof_C 	C 	0.40865	0.70825	0.42416	0.361
Mof_C 	C 	0.73441	0.75621	0.3318	-0.028
Mof_C 	C 	0.6956	0.77767	0.2976	-0.06
Mof_H 	H 	0.6996	0.7928	0.2727	0.084
Mof_C 	C 	0.6505	0.77796	0.2983	0.063
Mof_C 	C 	0.6415	0.75549	0.3306	-0.011
Mof_C 	C 	0.6798	0.7315	0.3619	0.057
Mof_C 	C 	0.726	0.73301	0.364	-0.058
Mof_H 	H 	0.7524	0.7177	0.3881	0.087
Mof_C 	C 	0.78466	0.75639	0.3323	0.361
Mof_C 	C 	0.50204	0.75104	0.3347	-0.025
Mof_C 	C 	0.5403	0.77218	0.3709	-0.062
Mof_H 	H 	0.5358	0.7864	0.3964	0.082
Mof_C 	C 	0.5867	0.7733	0.3709	0.057
Mof_C 	C 	0.5926	0.75415	0.3313	-0.01
Mof_C 	C 	0.5528	0.7325	0.2946	0.059
Mof_C 	C 	0.5079	0.73114	0.2975	-0.065
Mof_H 	H 	0.4814	0.716	0.273	0.082
Mof_C 	C 	0.45243	0.7492	0.336	0.335
Mof_N 	N 	0.90383	0.68392	0.42988	-0.196
Mof_C 	C 	0.8973	0.6532	0.4154	0.086
Mof_C 	C 	0.9049	0.6231	0.4429	-0.024
Mof_C 	C 	0.9081	0.6272	0.4967	-0.009
Mof_C 	C 	0.9005	0.6603	0.5114	0.006
Mof_C 	C 	0.8967	0.6885	0.4766	0.045
Mof_C 	C 	0.9326	0.63	0.5024	0.034
Mof_C 	C 	0.9626	0.6599	0.5225	-0.019
Mof_C 	C 	0.948	0.6875	0.4838	0.04
Mof_N 	N 	0.83382	0.82225	0.24271	-0.222
Mof_C 	C 	0.8184	0.8514	0.2556	0.117
Mof_H 	H 	0.8157	0.8532	0.2893	0.003
Mof_C 	C 	0.8065	0.879	0.2172	-0.204
Mof_H 	H 	0.7987	0.8999	0.2278	0.107
Mof_C 	C 	0.8058	0.8772	0.167	0.19
Mof_H 	H 	0.7878	0.8924	0.1356	-0.023
Mof_C 	C 	0.8325	0.8524	0.1666	-0.251
Mof_H 	H 	0.8475	0.8536	0.1431	0.132
Mof_C 	C 	0.8399	0.8241	0.1996	0.18
Mof_H 	H 	0.8503	0.8042	0.189	-0.013
Mof_C 	C 	0.7449	0.528	0.8143	0.077
Mof_H 	H 	0.7326	0.549	0.8191	0.013
Mof_C 	C 	0.7836	0.5306	0.7997	-0.14
Mof_H 	H 	0.7954	0.5512	0.7931	0.09
Mof_Cu	Cu	0.38539	0.22657	0.37317	0.922
Mof_Cu	Cu	0.3538	0.27956	0.29979	0.922
Mof_I 	I 	0.21038	0.19891	0.01047	-0.085
Mof_I 	I 	0.2931	0.0785	0.1878	-0.076
Mof_I 	I 	0.13815	0.11913	0.08344	-0.074
Mof_I 	I 	0.33369	0.12153	0.05204	-0.08
Mof_I 	I 	0.90239	0.12385	0.63156	-0.075
Mof_I 	I 	0.92466	0.07681	0.4977	-0.086
Mof_I 	I 	0.09403	0.31423	0.2457	-0.079
Mof_I 	I 	0.18538	0.21069	0.4489	-0.063
Mof_I 	I 	0.05454	0.20134	0.22755	-0.075
Mof_I 	I 	0.14865	0.30586	0.44082	-0.079
Mof_O 	O 	0.35283	0.20022	0.30038	-0.393
Mof_O 	O 	0.32459	0.24414	0.23883	-0.387
Mof_O 	O 	0.18259	0.03511	0.89599	-0.395
Mof_O 	O 	0.11391	0.03495	0.90669	-0.403
Mof_O 	O 	0.04889	0.03484	0.78649	-0.401
Mof_O 	O 	0.11809	0.03503	0.77602	-0.398
Mof_O 	O 	0.88706	0.19528	0.37447	-0.406
Mof_O 	O 	0.91434	0.23949	0.43541	-0.396
Mof_O 	O 	0.3167	0.23406	0.36352	-0.394
Mof_O 	O 	0.29012	0.27766	0.30253	-0.399
Mof_O 	O 	0.92045	0.22682	0.30565	-0.399
Mof_O 	O 	0.94843	0.27058	0.36851	-0.387
Mof_C 	C 	0.3037	0.18858	0.1993	-0.02
Mof_C 	C 	0.2767	0.20063	0.1422	-0.068
Mof_H 	H 	0.2746	0.2241	0.1351	0.088
Mof_C 	C 	0.253	0.17862	0.0959	0.067
Mof_C 	C 	0.2562	0.14368	0.1058	-0.015
Mof_C 	C 	0.2843	0.13197	0.1627	0.063
Mof_C 	C 	0.3071	0.15464	0.2088	-0.066
Mof_H 	H 	0.3253	0.1464	0.2475	0.087
Mof_C 	C 	0.32859	0.21304	0.2504	0.343
Mof_C 	C 	0.1825	0.07169	0.96633	-0.027
Mof_C 	C 	0.2308	0.08349	0.9834	-0.066
Mof_H 	H 	0.2478	0.0752	0.9647	0.083
Mof_C 	C 	0.2552	0.10724	0.0275	0.058
Mof_C 	C 	0.2301	0.11858	0.0559	-0.011
Mof_C 	C 	0.1816	0.10602	0.0393	0.059
Mof_C 	C 	0.1568	0.08297	0.994	-0.064
Mof_H 	H 	0.1235	0.0751	0.9823	0.084
Mof_C 	C 	0.1573	0.04491	0.91887	0.345
Mof_C 	C 	0.0476	0.07078	0.71554	-0.061
Mof_C 	C 	0.9998	0.08279	0.699	-0.036
Mof_H 	H 	0.9832	0.0755	0.7189	0.076
Mof_C 	C 	0.9751	0.10596	0.6527	0.043
Mof_C 	C 	0.99777	0.11719	0.62236	0.012
Mof_C 	C 	0.0469	0.10502	0.6406	-0.063
Mof_H 	H 	0.064	0.1129	0.6215	0.067
Mof_C 	C 	0.0714	0.08189	0.6855	0.006
Mof_H 	H 	0.1042	0.0736	0.6958	0.05
Mof_C 	C 	0.0736	0.04464	0.7632	0.35
Mof_C 	C 	0.93018	0.18491	0.47586	-0.07
Mof_C 	C 	0.92043	0.15077	0.46674	-0.031
Mof_H 	H 	0.8997	0.1424	0.4283	0.066
Mof_C 	C 	0.94131	0.12831	0.51454	0.038
Mof_C 	C 	0.97252	0.14044	0.57138	0.021
Mof_C 	C 	0.98176	0.17484	0.57937	-0.073
Mof_H 	H 	0.0025	0.1834	0.6177	0.074
Mof_C 	C 	0.96133	0.19709	0.53259	0.015
Mof_H 	H 	0.9685	0.2204	0.5391	0.052
Mof_C 	C 	0.90865	0.20825	0.42416	0.361
Mof_C 	C 	0.23441	0.25621	0.3318	-0.028
Mof_C 	C 	0.1956	0.27767	0.2976	-0.06
Mof_H 	H 	0.1996	0.2928	0.2727	0.084
Mof_C 	C 	0.1505	0.27796	0.2983	0.063
Mof_C 	C 	0.1415	0.25549	0.3306	-0.011
Mof_C 	C 	0.1798	0.2315	0.3619	0.057
Mof_C 	C 	0.226	0.23301	0.364	-0.058
Mof_H 	H 	0.2524	0.2177	0.3881	0.087
Mof_C 	C 	0.28466	0.25639	0.3323	0.361
Mof_C 	C 	0.00204	0.25104	0.3347	-0.025
Mof_C 	C 	0.0403	0.27218	0.3709	-0.062
Mof_H 	H 	0.0358	0.2864	0.3964	0.082
Mof_C 	C 	0.0867	0.2733	0.3709	0.057
Mof_C 	C 	0.0926	0.25415	0.3313	-0.01
Mof_C 	C 	0.0528	0.2325	0.2946	0.059
Mof_C 	C 	0.0079	0.23114	0.2975	-0.064
Mof_H 	H 	0.9814	0.216	0.273	0.082
Mof_C 	C 	0.95243	0.2492	0.336	0.335
Mof_N 	N 	0.40383	0.18392	0.42988	-0.196
Mof_C 	C 	0.3973	0.1532	0.4154	0.086
Mof_C 	C 	0.4049	0.1231	0.4429	-0.025
Mof_C 	C 	0.4081	0.1272	0.4967	-0.008
Mof_C 	C 	0.4005	0.1603	0.5114	0.006
Mof_C 	C 	0.3967	0.1885	0.4766	0.045
Mof_C 	C 	0.4326	0.13	0.5024	0.032
Mof_C 	C 	0.4626	0.1599	0.5225	-0.019
Mof_C 	C 	0.448	0.1875	0.4838	0.04
Mof_N 	N 	0.33382	0.32225	0.24271	-0.222
Mof_C 	C 	0.3184	0.3514	0.2556	0.117
Mof_H 	H 	0.3157	0.3532	0.2893	0.003
Mof_C 	C 	0.3065	0.379	0.2172	-0.204
Mof_H 	H 	0.2987	0.3999	0.2278	0.107
Mof_C 	C 	0.3058	0.3772	0.167	0.19
Mof_H 	H 	0.2878	0.3924	0.1356	-0.023
Mof_C 	C 	0.3325	0.3524	0.1666	-0.251
Mof_H 	H 	0.3475	0.3536	0.1431	0.132
Mof_C 	C 	0.3399	0.3241	0.1996	0.18
Mof_H 	H 	0.3503	0.3042	0.189	-0.013
Mof_C 	C 	0.2449	0.028	0.8143	0.071
Mof_H 	H 	0.2326	0.049	0.8191	0.014
Mof_C 	C 	0.2836	0.0306	0.7997	-0.13
Mof_H 	H 	0.2954	0.0512	0.7931	0.086
Mof_Cu	Cu	0.57486	0.5	0.84772	0.909
Mof_Cu	Cu	0.65661	0.5	0.83474	0.92
Mof_N 	N 	0.722	0.5	0.8228	-0.185
Mof_C 	C 	0.8015	0.5	0.7961	0.079
Mof_H 	H 	0.8299	0.5	0.7906	0.018
Mof_Cu	Cu	0.07486	-7.46918e-33	0.84772	0.906
Mof_Cu	Cu	0.15661	-7.46918e-33	0.83474	0.918
Mof_N 	N 	0.222	-7.46918e-33	0.8228	-0.187
Mof_C 	C 	0.3015	0	0.7961	0.061
Mof_H 	H 	0.3299	0	0.7906	0.022
_end
