data_functionalizedCrystal
_audit_creation_method	'EQeq! by Chris Wilmer'
_symmetry_space_group_name_H-M	'P1'
_symmetry_Int_Tables_number	1
_symmetry_cell_setting	triclinic
loop_
_symmetry_equiv_pos_as_xyz
  x,y,z
_cell_length_a	5.1803
_cell_length_b	10.6508
_cell_length_c	15.2914
_cell_angle_alpha	82.591
_cell_angle_beta	85.945
_cell_angle_gamma	82.739
loop_
_atom_site_label
_atom_site_type_symbol
_atom_site_fract_x
_atom_site_fract_y
_atom_site_fract_z
_atom_site_charge
Mof_C 	C 	0.9818	0.6306	0.48763	0.01
Mof_H 	H 	0.9676	0.7211	0.4792	0.047
Mof_C 	C 	0.0804	0.5666	0.56562	-0.08
Mof_C 	C 	0.0973	0.4323	0.57875	0.006
Mof_C 	C 	0.1855	0.3558	0.66256	0.089
Mof_C 	C 	0.4111	0.2694	0.66305	-0.155
Mof_H 	H 	0.5044	0.2542	0.6089	0.076
Mof_C 	C 	0.5001	0.2054	0.7419	0.074
Mof_H 	H 	0.6576	0.1491	0.7418	0.003
Mof_C 	C 	0.36	0.2232	0.82141	-0.166
Mof_C 	C 	0.128	0.3052	0.82068	0.109
Mof_H 	H 	0.0269	0.3151	0.8742	0.011
Mof_C 	C 	0.0451	0.3719	0.74236	-0.218
Mof_H 	H 	0.8897	0.4298	0.7427	0.14
Mof_C 	C 	0.4623	0.1593	0.90697	0.381
Mof_C 	C 	0.1654	0.6409	0.63316	0.104
Mof_C 	C 	0.395	0.6015	0.67556	-0.138
Mof_H 	H 	0.5088	0.5311	0.6578	0.088
Mof_C 	C 	0.4602	0.6636	0.74334	0.066
Mof_H 	H 	0.6164	0.6345	0.7726	0.046
Mof_C 	C 	0.2974	0.769	0.76906	-0.12
Mof_C 	C 	0.0745	0.8131	0.72363	0.033
Mof_H 	H 	0.9661	0.8867	0.739	0.085
Mof_C 	C 	0.0098	0.7501	0.65609	-0.179
Mof_H 	H 	0.858	0.7814	0.6249	0.125
Mof_C 	C 	0.3529	0.8298	0.84692	0.439
Mof_O 	O 	0.2998	0.14994	0.97457	-0.356
Mof_O 	O 	0.699	0.12052	0.90969	-0.368
Mof_O 	O 	0.1938	0.91006	0.87796	-0.353
Mof_O 	O 	0.5793	0.7888	0.87851	-0.478
Mof_H 	H 	0.5986	0.8266	0.9221	0.342
Mof_C 	C 	0.0182	0.3694	0.51237	-0.133
Mof_H 	H 	0.0324	0.2789	0.5208	0.051
Mof_C 	C 	0.9196	0.4334	0.43438	0.051
Mof_C 	C 	0.9027	0.5677	0.42125	-0.031
Mof_C 	C 	0.8145	0.6442	0.33744	0.041
Mof_C 	C 	0.5889	0.7306	0.33695	-0.095
Mof_H 	H 	0.4956	0.7458	0.3911	0.07
Mof_C 	C 	0.4999	0.7946	0.2581	0.036
Mof_H 	H 	0.3424	0.8509	0.2582	0.047
Mof_C 	C 	0.64	0.7768	0.17859	-0.1
Mof_C 	C 	0.872	0.6948	0.17932	0.009
Mof_H 	H 	0.9731	0.6849	0.1258	0.048
Mof_C 	C 	0.9549	0.6281	0.25764	-0.015
Mof_H 	H 	0.1103	0.5702	0.2573	0.011
Mof_C 	C 	0.5377	0.8407	0.09303	0.383
Mof_C 	C 	0.8346	0.3591	0.36684	0.045
Mof_C 	C 	0.605	0.3985	0.32444	-0.125
Mof_H 	H 	0.4912	0.4689	0.3422	0.072
Mof_C 	C 	0.5398	0.3364	0.25666	0.072
Mof_H 	H 	0.3836	0.3655	0.2274	0.017
Mof_C 	C 	0.7026	0.231	0.23094	-0.181
Mof_C 	C 	0.9255	0.1869	0.27637	0.13
Mof_H 	H 	0.0339	0.1133	0.261	-0.05
Mof_C 	C 	0.9902	0.2499	0.34391	-0.081
Mof_H 	H 	0.142	0.2186	0.3751	0.023
Mof_C 	C 	0.6471	0.1702	0.15308	0.442
Mof_O 	O 	0.7002	0.85006	0.02543	-0.406
Mof_O 	O 	0.301	0.87948	0.09031	-0.383
Mof_O 	O 	0.8062	0.08994	0.12204	-0.448
Mof_O 	O 	0.4207	0.2112	0.12149	-0.508
Mof_H 	H 	0.4014	0.1734	0.0779	0.255
Mof_Ca	Ca	-0	0	-0	1.09
_end
