data_functionalizedCrystal
_audit_creation_method	'EQeq! by Chris Wilmer'
_symmetry_space_group_name_H-M	'P1'
_symmetry_Int_Tables_number	1
_symmetry_cell_setting	triclinic
loop_
_symmetry_equiv_pos_as_xyz
  x,y,z
_cell_length_a	18.7069
_cell_length_b	18.7069
_cell_length_c	41.0149
_cell_angle_alpha	90
_cell_angle_beta	90
_cell_angle_gamma	120
loop_
_atom_site_label
_atom_site_type_symbol
_atom_site_fract_x
_atom_site_fract_y
_atom_site_fract_z
_atom_site_charge
Mof_O 	O 	0.443	0.1476	0.16522	-0.429
Mof_O 	O 	0.363	0.1073	0.20912	-0.427
Mof_O 	O 	0.3673	0.9747	0.298	-0.217
Mof_H 	H 	0.5457	0.0075	0.2983	0.035
Mof_C 	C 	0.4261	0.1183	0.19373	0.359
Mof_C 	C 	0.4847	0.0968	0.20991	-0.051
Mof_C 	C 	0.4685	0.0681	0.2412	-0.077
Mof_H 	H 	0.4203	0.0604	0.252	0.087
Mof_C 	C 	0.4388	0.996	0.3075	0.193
Mof_C 	C 	0.4461	0.9728	0.3421	-0.23
Mof_C 	C 	0.3724	0.9237	0.3585	0.038
Mof_H 	H 	0.3214	0.911	0.3486	0.053
Mof_C 	C 	0.3732	0.8933	0.3893	-0.028
Mof_H 	H 	0.3228	0.8597	0.4005	0.064
Mof_N 	N 	0.4478	0.9119	0.40374	-0.006
Mof_C 	C 	0.5216	0.961	0.3873	-0.073
Mof_H 	H 	0.5725	0.9737	0.3972	0.076
Mof_C 	C 	0.5207	0.9914	0.3565	0.147
Mof_H 	H 	0.5711	0.025	0.3453	0.054
Mof_O 	O 	0.10967	0.48093	0.49855	-0.43
Mof_O 	O 	0.02967	0.44063	0.54245	-0.428
Mof_O 	O 	0.03397	0.30803	0.63133	-0.217
Mof_H 	H 	0.21237	0.34083	0.63163	0.035
Mof_C 	C 	0.09277	0.45163	0.52706	0.358
Mof_C 	C 	0.15137	0.43013	0.54324	-0.052
Mof_C 	C 	0.13517	0.40143	0.57453	-0.077
Mof_H 	H 	0.08697	0.39373	0.58533	0.087
Mof_C 	C 	0.10547	0.32933	0.64083	0.192
Mof_C 	C 	0.11277	0.30613	0.67543	-0.228
Mof_C 	C 	0.03907	0.25703	0.69183	0.038
Mof_H 	H 	0.98807	0.24433	0.68193	0.053
Mof_C 	C 	0.03987	0.22663	0.72263	-0.027
Mof_H 	H 	0.98947	0.19303	0.73383	0.064
Mof_N 	N 	0.11447	0.24523	0.73707	-0.006
Mof_C 	C 	0.18827	0.29433	0.72063	-0.073
Mof_H 	H 	0.23917	0.30703	0.73053	0.076
Mof_C 	C 	0.18737	0.32473	0.68983	0.146
Mof_H 	H 	0.23777	0.35833	0.67863	0.054
Mof_O 	O 	0.77633	0.81427	0.83189	-0.43
Mof_O 	O 	0.69633	0.77397	0.87579	-0.428
Mof_O 	O 	0.70063	0.64137	0.96467	-0.217
Mof_H 	H 	0.87903	0.67417	0.96497	0.035
Mof_C 	C 	0.75943	0.78497	0.8604	0.358
Mof_C 	C 	0.81803	0.76347	0.87658	-0.052
Mof_C 	C 	0.80183	0.73477	0.90787	-0.077
Mof_H 	H 	0.75363	0.72707	0.91867	0.087
Mof_C 	C 	0.77213	0.66267	0.97417	0.192
Mof_C 	C 	0.77943	0.63947	0.00877	-0.228
Mof_C 	C 	0.70573	0.59037	0.02517	0.037
Mof_H 	H 	0.65473	0.57767	0.01527	0.053
Mof_C 	C 	0.70653	0.55997	0.05597	-0.028
Mof_H 	H 	0.65613	0.52637	0.06717	0.064
Mof_N 	N 	0.78113	0.57857	0.07041	-0.006
Mof_C 	C 	0.85493	0.62767	0.05397	-0.073
Mof_H 	H 	0.90583	0.64037	0.06387	0.076
Mof_C 	C 	0.85403	0.65807	0.02317	0.145
Mof_H 	H 	0.90443	0.69167	0.01197	0.054
Mof_O 	O 	0.8524	0.2954	0.16522	-0.43
Mof_O 	O 	0.8927	0.2557	0.20912	-0.428
Mof_O 	O 	0.0253	0.3926	0.298	-0.218
Mof_H 	H 	0.9925	0.5382	0.2983	0.034
Mof_C 	C 	0.8817	0.3078	0.19373	0.358
Mof_C 	C 	0.9032	0.3879	0.20991	-0.052
Mof_C 	C 	0.9319	0.4004	0.2412	-0.077
Mof_H 	H 	0.9396	0.3599	0.252	0.087
Mof_C 	C 	0.004	0.4428	0.3075	0.193
Mof_C 	C 	0.0272	0.4733	0.3421	-0.23
Mof_C 	C 	0.0763	0.4487	0.3585	0.038
Mof_H 	H 	0.089	0.4104	0.3486	0.053
Mof_C 	C 	0.1067	0.4799	0.3893	-0.028
Mof_H 	H 	0.1403	0.4631	0.4005	0.064
Mof_N 	N 	0.0881	0.5359	0.40374	-0.006
Mof_C 	C 	0.039	0.5606	0.3873	-0.073
Mof_H 	H 	0.0263	0.5988	0.3972	0.076
Mof_C 	C 	0.0086	0.5293	0.3565	0.147
Mof_H 	H 	0.975	0.5461	0.3453	0.054
Mof_O 	O 	0.51907	0.62873	0.49855	-0.43
Mof_O 	O 	0.55937	0.58903	0.54245	-0.428
Mof_O 	O 	0.69197	0.72593	0.63133	-0.217
Mof_H 	H 	0.65917	0.87153	0.63163	0.035
Mof_C 	C 	0.54837	0.64113	0.52706	0.358
Mof_C 	C 	0.56987	0.72123	0.54324	-0.052
Mof_C 	C 	0.59857	0.73373	0.57453	-0.077
Mof_H 	H 	0.60627	0.69323	0.58533	0.087
Mof_C 	C 	0.67067	0.77613	0.64083	0.192
Mof_C 	C 	0.69387	0.80663	0.67543	-0.228
Mof_C 	C 	0.74297	0.78203	0.69183	0.037
Mof_H 	H 	0.75567	0.74373	0.68193	0.053
Mof_C 	C 	0.77337	0.81323	0.72263	-0.028
Mof_H 	H 	0.80697	0.79643	0.73383	0.064
Mof_N 	N 	0.75477	0.86923	0.73707	-0.006
Mof_C 	C 	0.70567	0.89393	0.72063	-0.073
Mof_H 	H 	0.69297	0.93213	0.73053	0.076
Mof_C 	C 	0.67527	0.86263	0.68983	0.145
Mof_H 	H 	0.64167	0.87943	0.67863	0.054
Mof_O 	O 	0.18573	0.96207	0.83189	-0.43
Mof_O 	O 	0.22603	0.92237	0.87579	-0.428
Mof_O 	O 	0.35863	0.05927	0.96467	-0.217
Mof_H 	H 	0.32583	0.20487	0.96497	0.035
Mof_C 	C 	0.21503	0.97447	0.8604	0.359
Mof_C 	C 	0.23653	0.05457	0.87658	-0.053
Mof_C 	C 	0.26523	0.06707	0.90787	-0.077
Mof_H 	H 	0.27293	0.02657	0.91867	0.087
Mof_C 	C 	0.33733	0.10947	0.97417	0.192
Mof_C 	C 	0.36053	0.13997	0.00877	-0.228
Mof_C 	C 	0.40963	0.11537	0.02517	0.037
Mof_H 	H 	0.42233	0.07707	0.01527	0.053
Mof_C 	C 	0.44003	0.14657	0.05597	-0.028
Mof_H 	H 	0.47363	0.12977	0.06717	0.064
Mof_N 	N 	0.42143	0.20257	0.07041	-0.006
Mof_C 	C 	0.37233	0.22727	0.05397	-0.073
Mof_H 	H 	0.35963	0.26547	0.06387	0.076
Mof_C 	C 	0.34193	0.19597	0.02317	0.145
Mof_H 	H 	0.30833	0.21277	0.01197	0.054
Mof_O 	O 	0.7046	0.557	0.16522	-0.43
Mof_O 	O 	0.7443	0.637	0.20912	-0.428
Mof_O 	O 	0.6074	0.6327	0.298	-0.217
Mof_H 	H 	0.4618	0.4543	0.2983	0.035
Mof_C 	C 	0.6922	0.5739	0.19373	0.358
Mof_C 	C 	0.6121	0.5153	0.20991	-0.052
Mof_C 	C 	0.5996	0.5315	0.2412	-0.077
Mof_H 	H 	0.6401	0.5797	0.252	0.087
Mof_C 	C 	0.5572	0.5612	0.3075	0.192
Mof_C 	C 	0.5267	0.5539	0.3421	-0.228
Mof_C 	C 	0.5513	0.6276	0.3585	0.037
Mof_H 	H 	0.5896	0.6786	0.3486	0.053
Mof_C 	C 	0.5201	0.6268	0.3893	-0.028
Mof_H 	H 	0.5369	0.6772	0.4005	0.064
Mof_N 	N 	0.4641	0.5522	0.40374	-0.006
Mof_C 	C 	0.4394	0.4784	0.3873	-0.073
Mof_H 	H 	0.4012	0.4275	0.3972	0.076
Mof_C 	C 	0.4707	0.4793	0.3565	0.145
Mof_H 	H 	0.4539	0.4289	0.3453	0.054
Mof_O 	O 	0.37127	0.89033	0.49855	-0.43
Mof_O 	O 	0.41097	0.97033	0.54245	-0.428
Mof_O 	O 	0.27407	0.96603	0.63133	-0.217
Mof_H 	H 	0.12847	0.78763	0.63163	0.035
Mof_C 	C 	0.35887	0.90723	0.52706	0.358
Mof_C 	C 	0.27877	0.84863	0.54324	-0.052
Mof_C 	C 	0.26627	0.86483	0.57453	-0.077
Mof_H 	H 	0.30677	0.91303	0.58533	0.087
Mof_C 	C 	0.22387	0.89453	0.64083	0.192
Mof_C 	C 	0.19337	0.88723	0.67543	-0.228
Mof_C 	C 	0.21797	0.96093	0.69183	0.038
Mof_H 	H 	0.25627	0.01193	0.68193	0.053
Mof_C 	C 	0.18677	0.96013	0.72263	-0.027
Mof_H 	H 	0.20357	0.01053	0.73383	0.064
Mof_N 	N 	0.13077	0.88553	0.73707	-0.006
Mof_C 	C 	0.10607	0.81173	0.72063	-0.073
Mof_H 	H 	0.06787	0.76083	0.73053	0.076
Mof_C 	C 	0.13737	0.81263	0.68983	0.146
Mof_H 	H 	0.12057	0.76223	0.67863	0.054
Mof_O 	O 	0.03793	0.22367	0.83189	-0.43
Mof_O 	O 	0.07763	0.30367	0.87579	-0.428
Mof_O 	O 	0.94073	0.29937	0.96467	-0.217
Mof_H 	H 	0.79513	0.12097	0.96497	0.035
Mof_C 	C 	0.02553	0.24057	0.8604	0.359
Mof_C 	C 	0.94543	0.18197	0.87658	-0.053
Mof_C 	C 	0.93293	0.19817	0.90787	-0.076
Mof_H 	H 	0.97343	0.24637	0.91867	0.086
Mof_C 	C 	0.89053	0.22787	0.97417	0.192
Mof_C 	C 	0.86003	0.22057	0.00877	-0.228
Mof_C 	C 	0.88463	0.29427	0.02517	0.037
Mof_H 	H 	0.92293	0.34527	0.01527	0.053
Mof_C 	C 	0.85343	0.29347	0.05597	-0.028
Mof_H 	H 	0.87023	0.34387	0.06717	0.064
Mof_N 	N 	0.79743	0.21887	0.07041	-0.006
Mof_C 	C 	0.77273	0.14507	0.05397	-0.073
Mof_H 	H 	0.73453	0.09417	0.06387	0.076
Mof_C 	C 	0.80403	0.14597	0.02317	0.145
Mof_H 	H 	0.78723	0.09557	0.01197	0.054
Mof_O 	O 	0.1476	0.443	0.83478	-0.43
Mof_O 	O 	0.1073	0.363	0.79088	-0.428
Mof_O 	O 	0.9747	0.3673	0.702	-0.218
Mof_H 	H 	0.0075	0.5457	0.7017	0.034
Mof_C 	C 	0.1183	0.4261	0.80627	0.358
Mof_C 	C 	0.0968	0.4847	0.79009	-0.052
Mof_C 	C 	0.0681	0.4685	0.7588	-0.077
Mof_H 	H 	0.0604	0.4203	0.748	0.087
Mof_C 	C 	0.996	0.4388	0.6925	0.193
Mof_C 	C 	0.9728	0.4461	0.6579	-0.23
Mof_C 	C 	0.9237	0.3724	0.6415	0.038
Mof_H 	H 	0.911	0.3214	0.6514	0.053
Mof_C 	C 	0.8933	0.3732	0.6107	-0.028
Mof_H 	H 	0.8597	0.3228	0.5995	0.064
Mof_N 	N 	0.9119	0.4478	0.59626	-0.006
Mof_C 	C 	0.961	0.5216	0.6127	-0.073
Mof_H 	H 	0.9737	0.5725	0.6028	0.076
Mof_C 	C 	0.9914	0.5207	0.6435	0.147
Mof_H 	H 	0.025	0.5711	0.6547	0.054
Mof_O 	O 	0.81427	0.77633	0.16811	-0.43
Mof_O 	O 	0.77397	0.69633	0.12421	-0.428
Mof_O 	O 	0.64137	0.70063	0.03533	-0.217
Mof_H 	H 	0.67417	0.87903	0.03503	0.035
Mof_C 	C 	0.78497	0.75943	0.1396	0.358
Mof_C 	C 	0.76347	0.81803	0.12342	-0.052
Mof_C 	C 	0.73477	0.80183	0.09213	-0.077
Mof_H 	H 	0.72707	0.75363	0.08133	0.087
Mof_C 	C 	0.66267	0.77213	0.02583	0.192
Mof_C 	C 	0.63947	0.77943	0.99123	-0.228
Mof_C 	C 	0.59037	0.70573	0.97483	0.037
Mof_H 	H 	0.57767	0.65473	0.98473	0.053
Mof_C 	C 	0.55997	0.70653	0.94403	-0.028
Mof_H 	H 	0.52637	0.65613	0.93283	0.064
Mof_N 	N 	0.57857	0.78113	0.92959	-0.006
Mof_C 	C 	0.62767	0.85493	0.94603	-0.073
Mof_H 	H 	0.64037	0.90583	0.93613	0.076
Mof_C 	C 	0.65807	0.85403	0.97683	0.145
Mof_H 	H 	0.69167	0.90443	0.98803	0.054
Mof_O 	O 	0.48093	0.10967	0.50145	-0.43
Mof_O 	O 	0.44063	0.02967	0.45755	-0.428
Mof_O 	O 	0.30803	0.03397	0.36867	-0.217
Mof_H 	H 	0.34083	0.21237	0.36837	0.035
Mof_C 	C 	0.45163	0.09277	0.47294	0.358
Mof_C 	C 	0.43013	0.15137	0.45676	-0.052
Mof_C 	C 	0.40143	0.13517	0.42547	-0.077
Mof_H 	H 	0.39373	0.08697	0.41467	0.087
Mof_C 	C 	0.32933	0.10547	0.35917	0.192
Mof_C 	C 	0.30613	0.11277	0.32457	-0.228
Mof_C 	C 	0.25703	0.03907	0.30817	0.038
Mof_H 	H 	0.24433	0.98807	0.31807	0.053
Mof_C 	C 	0.22663	0.03987	0.27737	-0.027
Mof_H 	H 	0.19303	0.98947	0.26617	0.064
Mof_N 	N 	0.24523	0.11447	0.26293	-0.006
Mof_C 	C 	0.29433	0.18827	0.27937	-0.073
Mof_H 	H 	0.30703	0.23917	0.26947	0.076
Mof_C 	C 	0.32473	0.18737	0.31017	0.146
Mof_H 	H 	0.35833	0.23777	0.32137	0.054
Mof_O 	O 	0.2954	0.8524	0.83478	-0.43
Mof_O 	O 	0.2557	0.8927	0.79088	-0.428
Mof_O 	O 	0.3926	0.0253	0.702	-0.218
Mof_H 	H 	0.5382	0.9925	0.7017	0.034
Mof_C 	C 	0.3078	0.8817	0.80627	0.358
Mof_C 	C 	0.3879	0.9032	0.79009	-0.052
Mof_C 	C 	0.4004	0.9319	0.7588	-0.077
Mof_H 	H 	0.3599	0.9396	0.748	0.087
Mof_C 	C 	0.4428	0.004	0.6925	0.193
Mof_C 	C 	0.4733	0.0272	0.6579	-0.23
Mof_C 	C 	0.4487	0.0763	0.6415	0.038
Mof_H 	H 	0.4104	0.089	0.6514	0.053
Mof_C 	C 	0.4799	0.1067	0.6107	-0.028
Mof_H 	H 	0.4631	0.1403	0.5995	0.064
Mof_N 	N 	0.5359	0.0881	0.59626	-0.006
Mof_C 	C 	0.5606	0.039	0.6127	-0.073
Mof_H 	H 	0.5988	0.0263	0.6028	0.076
Mof_C 	C 	0.5293	0.0086	0.6435	0.147
Mof_H 	H 	0.5461	0.975	0.6547	0.054
Mof_O 	O 	0.96207	0.18573	0.16811	-0.43
Mof_O 	O 	0.92237	0.22603	0.12421	-0.428
Mof_O 	O 	0.05927	0.35863	0.03533	-0.217
Mof_H 	H 	0.20487	0.32583	0.03503	0.035
Mof_C 	C 	0.97447	0.21503	0.1396	0.359
Mof_C 	C 	0.05457	0.23653	0.12342	-0.053
Mof_C 	C 	0.06707	0.26523	0.09213	-0.077
Mof_H 	H 	0.02657	0.27293	0.08133	0.087
Mof_C 	C 	0.10947	0.33733	0.02583	0.192
Mof_C 	C 	0.13997	0.36053	0.99123	-0.228
Mof_C 	C 	0.11537	0.40963	0.97483	0.037
Mof_H 	H 	0.07707	0.42233	0.98473	0.053
Mof_C 	C 	0.14657	0.44003	0.94403	-0.028
Mof_H 	H 	0.12977	0.47363	0.93283	0.064
Mof_N 	N 	0.20257	0.42143	0.92959	-0.006
Mof_C 	C 	0.22727	0.37233	0.94603	-0.073
Mof_H 	H 	0.26547	0.35963	0.93613	0.076
Mof_C 	C 	0.19597	0.34193	0.97683	0.145
Mof_H 	H 	0.21277	0.30833	0.98803	0.054
Mof_O 	O 	0.62873	0.51907	0.50145	-0.43
Mof_O 	O 	0.58903	0.55937	0.45755	-0.428
Mof_O 	O 	0.72593	0.69197	0.36867	-0.217
Mof_H 	H 	0.87153	0.65917	0.36837	0.035
Mof_C 	C 	0.64113	0.54837	0.47294	0.358
Mof_C 	C 	0.72123	0.56987	0.45676	-0.052
Mof_C 	C 	0.73373	0.59857	0.42547	-0.077
Mof_H 	H 	0.69323	0.60627	0.41467	0.087
Mof_C 	C 	0.77613	0.67067	0.35917	0.192
Mof_C 	C 	0.80663	0.69387	0.32457	-0.228
Mof_C 	C 	0.78203	0.74297	0.30817	0.037
Mof_H 	H 	0.74373	0.75567	0.31807	0.053
Mof_C 	C 	0.81323	0.77337	0.27737	-0.028
Mof_H 	H 	0.79643	0.80697	0.26617	0.064
Mof_N 	N 	0.86923	0.75477	0.26293	-0.006
Mof_C 	C 	0.89393	0.70567	0.27937	-0.073
Mof_H 	H 	0.93213	0.69297	0.26947	0.076
Mof_C 	C 	0.86263	0.67527	0.31017	0.145
Mof_H 	H 	0.87943	0.64167	0.32137	0.054
Mof_O 	O 	0.557	0.7046	0.83478	-0.43
Mof_O 	O 	0.637	0.7443	0.79088	-0.428
Mof_O 	O 	0.6327	0.6074	0.702	-0.217
Mof_H 	H 	0.4543	0.4618	0.7017	0.035
Mof_C 	C 	0.5739	0.6922	0.80627	0.358
Mof_C 	C 	0.5153	0.6121	0.79009	-0.052
Mof_C 	C 	0.5315	0.5996	0.7588	-0.077
Mof_H 	H 	0.5797	0.6401	0.748	0.087
Mof_C 	C 	0.5612	0.5572	0.6925	0.192
Mof_C 	C 	0.5539	0.5267	0.6579	-0.228
Mof_C 	C 	0.6276	0.5513	0.6415	0.037
Mof_H 	H 	0.6786	0.5896	0.6514	0.053
Mof_C 	C 	0.6268	0.5201	0.6107	-0.028
Mof_H 	H 	0.6772	0.5369	0.5995	0.064
Mof_N 	N 	0.5522	0.4641	0.59626	-0.006
Mof_C 	C 	0.4784	0.4394	0.6127	-0.073
Mof_H 	H 	0.4275	0.4012	0.6028	0.076
Mof_C 	C 	0.4793	0.4707	0.6435	0.145
Mof_H 	H 	0.4289	0.4539	0.6547	0.054
Mof_O 	O 	0.22367	0.03793	0.16811	-0.43
Mof_O 	O 	0.30367	0.07763	0.12421	-0.428
Mof_O 	O 	0.29937	0.94073	0.03533	-0.217
Mof_H 	H 	0.12097	0.79513	0.03503	0.035
Mof_C 	C 	0.24057	0.02553	0.1396	0.359
Mof_C 	C 	0.18197	0.94543	0.12342	-0.053
Mof_C 	C 	0.19817	0.93293	0.09213	-0.076
Mof_H 	H 	0.24637	0.97343	0.08133	0.086
Mof_C 	C 	0.22787	0.89053	0.02583	0.192
Mof_C 	C 	0.22057	0.86003	0.99123	-0.228
Mof_C 	C 	0.29427	0.88463	0.97483	0.037
Mof_H 	H 	0.34527	0.92293	0.98473	0.053
Mof_C 	C 	0.29347	0.85343	0.94403	-0.028
Mof_H 	H 	0.34387	0.87023	0.93283	0.064
Mof_N 	N 	0.21887	0.79743	0.92959	-0.006
Mof_C 	C 	0.14507	0.77273	0.94603	-0.073
Mof_H 	H 	0.09417	0.73453	0.93613	0.076
Mof_C 	C 	0.14597	0.80403	0.97683	0.145
Mof_H 	H 	0.09557	0.78723	0.98803	0.054
Mof_O 	O 	0.89033	0.37127	0.50145	-0.43
Mof_O 	O 	0.97033	0.41097	0.45755	-0.428
Mof_O 	O 	0.96603	0.27407	0.36867	-0.217
Mof_H 	H 	0.78763	0.12847	0.36837	0.035
Mof_C 	C 	0.90723	0.35887	0.47294	0.358
Mof_C 	C 	0.84863	0.27877	0.45676	-0.052
Mof_C 	C 	0.86483	0.26627	0.42547	-0.077
Mof_H 	H 	0.91303	0.30677	0.41467	0.087
Mof_C 	C 	0.89453	0.22387	0.35917	0.192
Mof_C 	C 	0.88723	0.19337	0.32457	-0.228
Mof_C 	C 	0.96093	0.21797	0.30817	0.038
Mof_H 	H 	0.01193	0.25627	0.31807	0.053
Mof_C 	C 	0.96013	0.18677	0.27737	-0.027
Mof_H 	H 	0.01053	0.20357	0.26617	0.064
Mof_N 	N 	0.88553	0.13077	0.26293	-0.006
Mof_C 	C 	0.81173	0.10607	0.27937	-0.073
Mof_H 	H 	0.76083	0.06787	0.26947	0.076
Mof_C 	C 	0.81263	0.13737	0.31017	0.146
Mof_H 	H 	0.76223	0.12057	0.32137	0.054
Mof_O 	O 	0.557	0.8524	0.83478	-0.43
Mof_O 	O 	0.637	0.8927	0.79088	-0.428
Mof_O 	O 	0.6327	0.0253	0.702	-0.218
Mof_H 	H 	0.4543	0.9925	0.7017	0.034
Mof_C 	C 	0.5739	0.8817	0.80627	0.358
Mof_C 	C 	0.5153	0.9032	0.79009	-0.052
Mof_C 	C 	0.5315	0.9319	0.7588	-0.077
Mof_H 	H 	0.5797	0.9396	0.748	0.087
Mof_C 	C 	0.5612	0.004	0.6925	0.193
Mof_C 	C 	0.5539	0.0272	0.6579	-0.23
Mof_C 	C 	0.6276	0.0763	0.6415	0.038
Mof_H 	H 	0.6786	0.089	0.6514	0.053
Mof_C 	C 	0.6268	0.1067	0.6107	-0.028
Mof_H 	H 	0.6772	0.1403	0.5995	0.064
Mof_N 	N 	0.5522	0.0881	0.59626	-0.006
Mof_C 	C 	0.4784	0.039	0.6127	-0.073
Mof_H 	H 	0.4275	0.0263	0.6028	0.076
Mof_C 	C 	0.4793	0.0086	0.6435	0.147
Mof_H 	H 	0.4289	0.975	0.6547	0.054
Mof_O 	O 	0.22367	0.18573	0.16811	-0.43
Mof_O 	O 	0.30367	0.22603	0.12421	-0.428
Mof_O 	O 	0.29937	0.35863	0.03533	-0.217
Mof_H 	H 	0.12097	0.32583	0.03503	0.035
Mof_C 	C 	0.24057	0.21503	0.1396	0.358
Mof_C 	C 	0.18197	0.23653	0.12342	-0.052
Mof_C 	C 	0.19817	0.26523	0.09213	-0.077
Mof_H 	H 	0.24637	0.27293	0.08133	0.087
Mof_C 	C 	0.22787	0.33733	0.02583	0.192
Mof_C 	C 	0.22057	0.36053	0.99123	-0.228
Mof_C 	C 	0.29427	0.40963	0.97483	0.037
Mof_H 	H 	0.34527	0.42233	0.98473	0.053
Mof_C 	C 	0.29347	0.44003	0.94403	-0.028
Mof_H 	H 	0.34387	0.47363	0.93283	0.064
Mof_N 	N 	0.21887	0.42143	0.92959	-0.006
Mof_C 	C 	0.14507	0.37233	0.94603	-0.073
Mof_H 	H 	0.09417	0.35963	0.93613	0.076
Mof_C 	C 	0.14597	0.34193	0.97683	0.145
Mof_H 	H 	0.09557	0.30833	0.98803	0.054
Mof_O 	O 	0.89033	0.51907	0.50145	-0.43
Mof_O 	O 	0.97033	0.55937	0.45755	-0.428
Mof_O 	O 	0.96603	0.69197	0.36867	-0.217
Mof_H 	H 	0.78763	0.65917	0.36837	0.035
Mof_C 	C 	0.90723	0.54837	0.47294	0.358
Mof_C 	C 	0.84863	0.56987	0.45676	-0.052
Mof_C 	C 	0.86483	0.59857	0.42547	-0.077
Mof_H 	H 	0.91303	0.60627	0.41467	0.087
Mof_C 	C 	0.89453	0.67067	0.35917	0.192
Mof_C 	C 	0.88723	0.69387	0.32457	-0.228
Mof_C 	C 	0.96093	0.74297	0.30817	0.038
Mof_H 	H 	0.01193	0.75567	0.31807	0.053
Mof_C 	C 	0.96013	0.77337	0.27737	-0.027
Mof_H 	H 	0.01053	0.80697	0.26617	0.064
Mof_N 	N 	0.88553	0.75477	0.26293	-0.006
Mof_C 	C 	0.81173	0.70567	0.27937	-0.073
Mof_H 	H 	0.76083	0.69297	0.26947	0.076
Mof_C 	C 	0.81263	0.67527	0.31017	0.146
Mof_H 	H 	0.76223	0.64167	0.32137	0.054
Mof_O 	O 	0.1476	0.7046	0.83478	-0.43
Mof_O 	O 	0.1073	0.7443	0.79088	-0.428
Mof_O 	O 	0.9747	0.6074	0.702	-0.218
Mof_H 	H 	0.0075	0.4618	0.7017	0.034
Mof_C 	C 	0.1183	0.6922	0.80627	0.358
Mof_C 	C 	0.0968	0.6121	0.79009	-0.052
Mof_C 	C 	0.0681	0.5996	0.7588	-0.077
Mof_H 	H 	0.0604	0.6401	0.748	0.087
Mof_C 	C 	0.996	0.5572	0.6925	0.193
Mof_C 	C 	0.9728	0.5267	0.6579	-0.23
Mof_C 	C 	0.9237	0.5513	0.6415	0.038
Mof_H 	H 	0.911	0.5896	0.6514	0.053
Mof_C 	C 	0.8933	0.5201	0.6107	-0.028
Mof_H 	H 	0.8597	0.5369	0.5995	0.064
Mof_N 	N 	0.9119	0.4641	0.59626	-0.006
Mof_C 	C 	0.961	0.4394	0.6127	-0.073
Mof_H 	H 	0.9737	0.4012	0.6028	0.076
Mof_C 	C 	0.9914	0.4707	0.6435	0.147
Mof_H 	H 	0.025	0.4539	0.6547	0.054
Mof_O 	O 	0.81427	0.03793	0.16811	-0.43
Mof_O 	O 	0.77397	0.07763	0.12421	-0.428
Mof_O 	O 	0.64137	0.94073	0.03533	-0.217
Mof_H 	H 	0.67417	0.79513	0.03503	0.035
Mof_C 	C 	0.78497	0.02553	0.1396	0.359
Mof_C 	C 	0.76347	0.94543	0.12342	-0.053
Mof_C 	C 	0.73477	0.93293	0.09213	-0.077
Mof_H 	H 	0.72707	0.97343	0.08133	0.087
Mof_C 	C 	0.66267	0.89053	0.02583	0.192
Mof_C 	C 	0.63947	0.86003	0.99123	-0.228
Mof_C 	C 	0.59037	0.88463	0.97483	0.037
Mof_H 	H 	0.57767	0.92293	0.98473	0.053
Mof_C 	C 	0.55997	0.85343	0.94403	-0.028
Mof_H 	H 	0.52637	0.87023	0.93283	0.064
Mof_N 	N 	0.57857	0.79743	0.92959	-0.006
Mof_C 	C 	0.62767	0.77273	0.94603	-0.073
Mof_H 	H 	0.64037	0.73453	0.93613	0.076
Mof_C 	C 	0.65807	0.80403	0.97683	0.145
Mof_H 	H 	0.69167	0.78723	0.98803	0.054
Mof_O 	O 	0.48093	0.37127	0.50145	-0.43
Mof_O 	O 	0.44063	0.41097	0.45755	-0.428
Mof_O 	O 	0.30803	0.27407	0.36867	-0.217
Mof_H 	H 	0.34083	0.12847	0.36837	0.035
Mof_C 	C 	0.45163	0.35887	0.47294	0.358
Mof_C 	C 	0.43013	0.27877	0.45676	-0.052
Mof_C 	C 	0.40143	0.26627	0.42547	-0.077
Mof_H 	H 	0.39373	0.30677	0.41467	0.087
Mof_C 	C 	0.32933	0.22387	0.35917	0.192
Mof_C 	C 	0.30613	0.19337	0.32457	-0.228
Mof_C 	C 	0.25703	0.21797	0.30817	0.037
Mof_H 	H 	0.24433	0.25627	0.31807	0.053
Mof_C 	C 	0.22663	0.18677	0.27737	-0.028
Mof_H 	H 	0.19303	0.20357	0.26617	0.064
Mof_N 	N 	0.24523	0.13077	0.26293	-0.006
Mof_C 	C 	0.29433	0.10607	0.27937	-0.073
Mof_H 	H 	0.30703	0.06787	0.26947	0.076
Mof_C 	C 	0.32473	0.13737	0.31017	0.145
Mof_H 	H 	0.35833	0.12057	0.32137	0.054
Mof_O 	O 	0.2954	0.443	0.83478	-0.43
Mof_O 	O 	0.2557	0.363	0.79088	-0.428
Mof_O 	O 	0.3926	0.3673	0.702	-0.217
Mof_H 	H 	0.5382	0.5457	0.7017	0.035
Mof_C 	C 	0.3078	0.4261	0.80627	0.358
Mof_C 	C 	0.3879	0.4847	0.79009	-0.052
Mof_C 	C 	0.4004	0.4685	0.7588	-0.077
Mof_H 	H 	0.3599	0.4203	0.748	0.087
Mof_C 	C 	0.4428	0.4388	0.6925	0.192
Mof_C 	C 	0.4733	0.4461	0.6579	-0.228
Mof_C 	C 	0.4487	0.3724	0.6415	0.037
Mof_H 	H 	0.4104	0.3214	0.6514	0.053
Mof_C 	C 	0.4799	0.3732	0.6107	-0.028
Mof_H 	H 	0.4631	0.3228	0.5995	0.064
Mof_N 	N 	0.5359	0.4478	0.59626	-0.006
Mof_C 	C 	0.5606	0.5216	0.6127	-0.073
Mof_H 	H 	0.5988	0.5725	0.6028	0.076
Mof_C 	C 	0.5293	0.5207	0.6435	0.145
Mof_H 	H 	0.5461	0.5711	0.6547	0.054
Mof_O 	O 	0.96207	0.77633	0.16811	-0.43
Mof_O 	O 	0.92237	0.69633	0.12421	-0.428
Mof_O 	O 	0.05927	0.70063	0.03533	-0.217
Mof_H 	H 	0.20487	0.87903	0.03503	0.035
Mof_C 	C 	0.97447	0.75943	0.1396	0.359
Mof_C 	C 	0.05457	0.81803	0.12342	-0.053
Mof_C 	C 	0.06707	0.80183	0.09213	-0.076
Mof_H 	H 	0.02657	0.75363	0.08133	0.086
Mof_C 	C 	0.10947	0.77213	0.02583	0.192
Mof_C 	C 	0.13997	0.77943	0.99123	-0.228
Mof_C 	C 	0.11537	0.70573	0.97483	0.037
Mof_H 	H 	0.07707	0.65473	0.98473	0.053
Mof_C 	C 	0.14657	0.70653	0.94403	-0.028
Mof_H 	H 	0.12977	0.65613	0.93283	0.064
Mof_N 	N 	0.20257	0.78113	0.92959	-0.006
Mof_C 	C 	0.22727	0.85493	0.94603	-0.073
Mof_H 	H 	0.26547	0.90583	0.93613	0.076
Mof_C 	C 	0.19597	0.85403	0.97683	0.145
Mof_H 	H 	0.21277	0.90443	0.98803	0.054
Mof_O 	O 	0.62873	0.10967	0.50145	-0.43
Mof_O 	O 	0.58903	0.02967	0.45755	-0.428
Mof_O 	O 	0.72593	0.03397	0.36867	-0.217
Mof_H 	H 	0.87153	0.21237	0.36837	0.035
Mof_C 	C 	0.64113	0.09277	0.47294	0.358
Mof_C 	C 	0.72123	0.15137	0.45676	-0.052
Mof_C 	C 	0.73373	0.13517	0.42547	-0.077
Mof_H 	H 	0.69323	0.08697	0.41467	0.087
Mof_C 	C 	0.77613	0.10547	0.35917	0.192
Mof_C 	C 	0.80663	0.11277	0.32457	-0.228
Mof_C 	C 	0.78203	0.03907	0.30817	0.038
Mof_H 	H 	0.74373	0.98807	0.31807	0.053
Mof_C 	C 	0.81323	0.03987	0.27737	-0.027
Mof_H 	H 	0.79643	0.98947	0.26617	0.064
Mof_N 	N 	0.86923	0.11447	0.26293	-0.006
Mof_C 	C 	0.89393	0.18827	0.27937	-0.073
Mof_H 	H 	0.93213	0.23917	0.26947	0.076
Mof_C 	C 	0.86263	0.18737	0.31017	0.146
Mof_H 	H 	0.87943	0.23777	0.32137	0.054
Mof_O 	O 	0.8524	0.557	0.16522	-0.43
Mof_O 	O 	0.8927	0.637	0.20912	-0.428
Mof_O 	O 	0.0253	0.6327	0.298	-0.218
Mof_H 	H 	0.9925	0.4543	0.2983	0.034
Mof_C 	C 	0.8817	0.5739	0.19373	0.358
Mof_C 	C 	0.9032	0.5153	0.20991	-0.052
Mof_C 	C 	0.9319	0.5315	0.2412	-0.077
Mof_H 	H 	0.9396	0.5797	0.252	0.087
Mof_C 	C 	0.004	0.5612	0.3075	0.193
Mof_C 	C 	0.0272	0.5539	0.3421	-0.23
Mof_C 	C 	0.0763	0.6276	0.3585	0.038
Mof_H 	H 	0.089	0.6786	0.3486	0.053
Mof_C 	C 	0.1067	0.6268	0.3893	-0.028
Mof_H 	H 	0.1403	0.6772	0.4005	0.064
Mof_N 	N 	0.0881	0.5522	0.40374	-0.006
Mof_C 	C 	0.039	0.4784	0.3873	-0.073
Mof_H 	H 	0.0263	0.4275	0.3972	0.076
Mof_C 	C 	0.0086	0.4793	0.3565	0.147
Mof_H 	H 	0.975	0.4289	0.3453	0.054
Mof_O 	O 	0.51907	0.89033	0.49855	-0.43
Mof_O 	O 	0.55937	0.97033	0.54245	-0.428
Mof_O 	O 	0.69197	0.96603	0.63133	-0.217
Mof_H 	H 	0.65917	0.78763	0.63163	0.035
Mof_C 	C 	0.54837	0.90723	0.52706	0.358
Mof_C 	C 	0.56987	0.84863	0.54324	-0.052
Mof_C 	C 	0.59857	0.86483	0.57453	-0.077
Mof_H 	H 	0.60627	0.91303	0.58533	0.087
Mof_C 	C 	0.67067	0.89453	0.64083	0.192
Mof_C 	C 	0.69387	0.88723	0.67543	-0.228
Mof_C 	C 	0.74297	0.96093	0.69183	0.038
Mof_H 	H 	0.75567	0.01193	0.68193	0.053
Mof_C 	C 	0.77337	0.96013	0.72263	-0.027
Mof_H 	H 	0.80697	0.01053	0.73383	0.064
Mof_N 	N 	0.75477	0.88553	0.73707	-0.006
Mof_C 	C 	0.70567	0.81173	0.72063	-0.073
Mof_H 	H 	0.69297	0.76083	0.73053	0.076
Mof_C 	C 	0.67527	0.81263	0.68983	0.146
Mof_H 	H 	0.64167	0.76223	0.67863	0.054
Mof_O 	O 	0.18573	0.22367	0.83189	-0.43
Mof_O 	O 	0.22603	0.30367	0.87579	-0.428
Mof_O 	O 	0.35863	0.29937	0.96467	-0.217
Mof_H 	H 	0.32583	0.12097	0.96497	0.035
Mof_C 	C 	0.21503	0.24057	0.8604	0.358
Mof_C 	C 	0.23653	0.18197	0.87658	-0.052
Mof_C 	C 	0.26523	0.19817	0.90787	-0.077
Mof_H 	H 	0.27293	0.24637	0.91867	0.087
Mof_C 	C 	0.33733	0.22787	0.97417	0.192
Mof_C 	C 	0.36053	0.22057	0.00877	-0.228
Mof_C 	C 	0.40963	0.29427	0.02517	0.037
Mof_H 	H 	0.42233	0.34527	0.01527	0.053
Mof_C 	C 	0.44003	0.29347	0.05597	-0.028
Mof_H 	H 	0.47363	0.34387	0.06717	0.064
Mof_N 	N 	0.42143	0.21887	0.07041	-0.006
Mof_C 	C 	0.37233	0.14507	0.05397	-0.073
Mof_H 	H 	0.35963	0.09417	0.06387	0.076
Mof_C 	C 	0.34193	0.14597	0.02317	0.145
Mof_H 	H 	0.30833	0.09557	0.01197	0.054
Mof_O 	O 	0.7046	0.1476	0.16522	-0.43
Mof_O 	O 	0.7443	0.1073	0.20912	-0.428
Mof_O 	O 	0.6074	0.9747	0.298	-0.218
Mof_H 	H 	0.4618	0.0075	0.2983	0.034
Mof_C 	C 	0.6922	0.1183	0.19373	0.358
Mof_C 	C 	0.6121	0.0968	0.20991	-0.052
Mof_C 	C 	0.5996	0.0681	0.2412	-0.077
Mof_H 	H 	0.6401	0.0604	0.252	0.087
Mof_C 	C 	0.5572	0.996	0.3075	0.193
Mof_C 	C 	0.5267	0.9728	0.3421	-0.23
Mof_C 	C 	0.5513	0.9237	0.3585	0.038
Mof_H 	H 	0.5896	0.911	0.3486	0.053
Mof_C 	C 	0.5201	0.8933	0.3893	-0.028
Mof_H 	H 	0.5369	0.8597	0.4005	0.064
Mof_N 	N 	0.4641	0.9119	0.40374	-0.006
Mof_C 	C 	0.4394	0.961	0.3873	-0.073
Mof_H 	H 	0.4012	0.9737	0.3972	0.076
Mof_C 	C 	0.4707	0.9914	0.3565	0.147
Mof_H 	H 	0.4539	0.025	0.3453	0.054
Mof_O 	O 	0.37127	0.48093	0.49855	-0.43
Mof_O 	O 	0.41097	0.44063	0.54245	-0.428
Mof_O 	O 	0.27407	0.30803	0.63133	-0.217
Mof_H 	H 	0.12847	0.34083	0.63163	0.035
Mof_C 	C 	0.35887	0.45163	0.52706	0.358
Mof_C 	C 	0.27877	0.43013	0.54324	-0.052
Mof_C 	C 	0.26627	0.40143	0.57453	-0.077
Mof_H 	H 	0.30677	0.39373	0.58533	0.087
Mof_C 	C 	0.22387	0.32933	0.64083	0.192
Mof_C 	C 	0.19337	0.30613	0.67543	-0.228
Mof_C 	C 	0.21797	0.25703	0.69183	0.037
Mof_H 	H 	0.25627	0.24433	0.68193	0.053
Mof_C 	C 	0.18677	0.22663	0.72263	-0.028
Mof_H 	H 	0.20357	0.19303	0.73383	0.064
Mof_N 	N 	0.13077	0.24523	0.73707	-0.006
Mof_C 	C 	0.10607	0.29433	0.72063	-0.073
Mof_H 	H 	0.06787	0.30703	0.73053	0.076
Mof_C 	C 	0.13737	0.32473	0.68983	0.145
Mof_H 	H 	0.12057	0.35833	0.67863	0.054
Mof_O 	O 	0.03793	0.81427	0.83189	-0.43
Mof_O 	O 	0.07763	0.77397	0.87579	-0.428
Mof_O 	O 	0.94073	0.64137	0.96467	-0.217
Mof_H 	H 	0.79513	0.67417	0.96497	0.035
Mof_C 	C 	0.02553	0.78497	0.8604	0.359
Mof_C 	C 	0.94543	0.76347	0.87658	-0.053
Mof_C 	C 	0.93293	0.73477	0.90787	-0.077
Mof_H 	H 	0.97343	0.72707	0.91867	0.087
Mof_C 	C 	0.89053	0.66267	0.97417	0.192
Mof_C 	C 	0.86003	0.63947	0.00877	-0.228
Mof_C 	C 	0.88463	0.59037	0.02517	0.037
Mof_H 	H 	0.92293	0.57767	0.01527	0.053
Mof_C 	C 	0.85343	0.55997	0.05597	-0.028
Mof_H 	H 	0.87023	0.52637	0.06717	0.064
Mof_N 	N 	0.79743	0.57857	0.07041	-0.006
Mof_C 	C 	0.77273	0.62767	0.05397	-0.073
Mof_H 	H 	0.73453	0.64037	0.06387	0.076
Mof_C 	C 	0.80403	0.65807	0.02317	0.145
Mof_H 	H 	0.78723	0.69167	0.01197	0.054
Mof_O 	O 	0.443	0.2954	0.16522	-0.43
Mof_O 	O 	0.363	0.2557	0.20912	-0.428
Mof_O 	O 	0.3673	0.3926	0.298	-0.217
Mof_H 	H 	0.5457	0.5382	0.2983	0.035
Mof_C 	C 	0.4261	0.3078	0.19373	0.358
Mof_C 	C 	0.4847	0.3879	0.20991	-0.052
Mof_C 	C 	0.4685	0.4004	0.2412	-0.077
Mof_H 	H 	0.4203	0.3599	0.252	0.087
Mof_C 	C 	0.4388	0.4428	0.3075	0.192
Mof_C 	C 	0.4461	0.4733	0.3421	-0.228
Mof_C 	C 	0.3724	0.4487	0.3585	0.037
Mof_H 	H 	0.3214	0.4104	0.3486	0.053
Mof_C 	C 	0.3732	0.4799	0.3893	-0.028
Mof_H 	H 	0.3228	0.4631	0.4005	0.064
Mof_N 	N 	0.4478	0.5359	0.40374	-0.006
Mof_C 	C 	0.5216	0.5606	0.3873	-0.073
Mof_H 	H 	0.5725	0.5988	0.3972	0.076
Mof_C 	C 	0.5207	0.5293	0.3565	0.145
Mof_H 	H 	0.5711	0.5461	0.3453	0.054
Mof_O 	O 	0.10967	0.62873	0.49855	-0.43
Mof_O 	O 	0.02967	0.58903	0.54245	-0.428
Mof_O 	O 	0.03397	0.72593	0.63133	-0.217
Mof_H 	H 	0.21237	0.87153	0.63163	0.035
Mof_C 	C 	0.09277	0.64113	0.52706	0.358
Mof_C 	C 	0.15137	0.72123	0.54324	-0.052
Mof_C 	C 	0.13517	0.73373	0.57453	-0.077
Mof_H 	H 	0.08697	0.69323	0.58533	0.087
Mof_C 	C 	0.10547	0.77613	0.64083	0.192
Mof_C 	C 	0.11277	0.80663	0.67543	-0.228
Mof_C 	C 	0.03907	0.78203	0.69183	0.038
Mof_H 	H 	0.98807	0.74373	0.68193	0.053
Mof_C 	C 	0.03987	0.81323	0.72263	-0.027
Mof_H 	H 	0.98947	0.79643	0.73383	0.064
Mof_N 	N 	0.11447	0.86923	0.73707	-0.006
Mof_C 	C 	0.18827	0.89393	0.72063	-0.073
Mof_H 	H 	0.23917	0.93213	0.73053	0.076
Mof_C 	C 	0.18737	0.86263	0.68983	0.146
Mof_H 	H 	0.23777	0.87943	0.67863	0.054
Mof_O 	O 	0.77633	0.96207	0.83189	-0.43
Mof_O 	O 	0.69633	0.92237	0.87579	-0.428
Mof_O 	O 	0.70063	0.05927	0.96467	-0.217
Mof_H 	H 	0.87903	0.20487	0.96497	0.035
Mof_C 	C 	0.75943	0.97447	0.8604	0.359
Mof_C 	C 	0.81803	0.05457	0.87658	-0.053
Mof_C 	C 	0.80183	0.06707	0.90787	-0.076
Mof_H 	H 	0.75363	0.02657	0.91867	0.086
Mof_C 	C 	0.77213	0.10947	0.97417	0.192
Mof_C 	C 	0.77943	0.13997	0.00877	-0.228
Mof_C 	C 	0.70573	0.11537	0.02517	0.037
Mof_H 	H 	0.65473	0.07707	0.01527	0.053
Mof_C 	C 	0.70653	0.14657	0.05597	-0.028
Mof_H 	H 	0.65613	0.12977	0.06717	0.064
Mof_N 	N 	0.78113	0.20257	0.07041	-0.006
Mof_C 	C 	0.85493	0.22727	0.05397	-0.073
Mof_H 	H 	0.90583	0.26547	0.06387	0.076
Mof_C 	C 	0.85403	0.19597	0.02317	0.145
Mof_H 	H 	0.90443	0.21277	0.01197	0.054
Mof_Co	Co	0.3866	0.1933	0.13821	1.181
Mof_Co	Co	0.05327	0.52663	0.47154	1.181
Mof_Co	Co	0.71993	0.85997	0.80488	1.181
Mof_Co	Co	0.8067	0.1933	0.13821	1.181
Mof_Co	Co	0.47337	0.52663	0.47154	1.181
Mof_Co	Co	0.14003	0.85997	0.80488	1.181
Mof_Co	Co	0.8067	0.6134	0.13821	1.181
Mof_Co	Co	0.47337	0.94673	0.47154	1.181
Mof_Co	Co	0.14003	0.28007	0.80488	1.181
Mof_Co	Co	0.1933	0.3866	0.86179	1.181
Mof_Co	Co	0.85997	0.71993	0.19512	1.181
Mof_Co	Co	0.52663	0.05327	0.52846	1.181
Mof_Co	Co	0.1933	0.8067	0.86179	1.181
Mof_Co	Co	0.85997	0.14003	0.19512	1.181
Mof_Co	Co	0.52663	0.47337	0.52846	1.181
Mof_Co	Co	0.6134	0.8067	0.86179	1.181
Mof_Co	Co	0.28007	0.14003	0.19512	1.181
Mof_Co	Co	0.94673	0.47337	0.52846	1.181
Mof_O 	O 	0.43935	0.8787	0.43154	-0.284
Mof_N 	N 	0.50815	0.0163	0.2893	-0.213
Mof_C 	C 	0.5564	0.1128	0.1946	0.002
Mof_H 	H 	0.56765	0.1353	0.1732	0.066
Mof_C 	C 	0.5248	0.0496	0.2575	0.122
Mof_O 	O 	0.10602	0.21203	0.76487	-0.283
Mof_N 	N 	0.17482	0.34963	0.62263	-0.213
Mof_C 	C 	0.22307	0.44613	0.52793	0.002
Mof_H 	H 	0.23432	0.46863	0.50653	0.066
Mof_C 	C 	0.19147	0.38293	0.59083	0.122
Mof_O 	O 	0.77268	0.54537	0.09821	-0.284
Mof_N 	N 	0.84148	0.68297	0.95597	-0.213
Mof_C 	C 	0.88973	0.77947	0.86127	0.002
Mof_H 	H 	0.90098	0.80197	0.83987	0.066
Mof_C 	C 	0.85813	0.71627	0.92417	0.122
Mof_O 	O 	0.1213	0.56065	0.43154	-0.284
Mof_N 	N 	0.9837	0.49185	0.2893	-0.213
Mof_C 	C 	0.8872	0.4436	0.1946	0.002
Mof_H 	H 	0.8647	0.43235	0.1732	0.066
Mof_C 	C 	0.9504	0.4752	0.2575	0.122
Mof_O 	O 	0.78797	0.89398	0.76487	-0.283
Mof_N 	N 	0.65037	0.82518	0.62263	-0.213
Mof_C 	C 	0.55387	0.77693	0.52793	0.002
Mof_H 	H 	0.53137	0.76568	0.50653	0.066
Mof_C 	C 	0.61707	0.80853	0.59083	0.122
Mof_O 	O 	0.45463	0.22732	0.09821	-0.284
Mof_N 	N 	0.31703	0.15852	0.95597	-0.213
Mof_C 	C 	0.22053	0.11027	0.86127	0.002
Mof_H 	H 	0.19803	0.09902	0.83987	0.066
Mof_C 	C 	0.28373	0.14187	0.92417	0.122
Mof_O 	O 	0.43935	0.56065	0.43154	-0.284
Mof_N 	N 	0.50815	0.49185	0.2893	-0.213
Mof_C 	C 	0.5564	0.4436	0.1946	0.002
Mof_H 	H 	0.56765	0.43235	0.1732	0.066
Mof_C 	C 	0.5248	0.4752	0.2575	0.122
Mof_O 	O 	0.10602	0.89398	0.76487	-0.283
Mof_N 	N 	0.17482	0.82518	0.62263	-0.213
Mof_C 	C 	0.22307	0.77693	0.52793	0.002
Mof_H 	H 	0.23432	0.76568	0.50653	0.066
Mof_C 	C 	0.19147	0.80853	0.59083	0.122
Mof_O 	O 	0.77268	0.22732	0.09821	-0.284
Mof_N 	N 	0.84148	0.15852	0.95597	-0.213
Mof_C 	C 	0.88973	0.11027	0.86127	0.002
Mof_H 	H 	0.90098	0.09902	0.83987	0.066
Mof_C 	C 	0.85813	0.14187	0.92417	0.122
Mof_O 	O 	0.8787	0.43935	0.56846	-0.284
Mof_N 	N 	0.0163	0.50815	0.7107	-0.213
Mof_C 	C 	0.1128	0.5564	0.8054	0.002
Mof_H 	H 	0.1353	0.56765	0.8268	0.066
Mof_C 	C 	0.0496	0.5248	0.7425	0.122
Mof_O 	O 	0.54537	0.77268	0.90179	-0.284
Mof_N 	N 	0.68297	0.84148	0.04403	-0.213
Mof_C 	C 	0.77947	0.88973	0.13873	0.002
Mof_H 	H 	0.80197	0.90098	0.16013	0.066
Mof_C 	C 	0.71627	0.85813	0.07583	0.122
Mof_O 	O 	0.21203	0.10602	0.23513	-0.283
Mof_N 	N 	0.34963	0.17482	0.37737	-0.213
Mof_C 	C 	0.44613	0.22307	0.47207	0.002
Mof_H 	H 	0.46863	0.23432	0.49347	0.066
Mof_C 	C 	0.38293	0.19147	0.40917	0.122
Mof_O 	O 	0.56065	0.1213	0.56846	-0.284
Mof_N 	N 	0.49185	0.9837	0.7107	-0.213
Mof_C 	C 	0.4436	0.8872	0.8054	0.002
Mof_H 	H 	0.43235	0.8647	0.8268	0.066
Mof_C 	C 	0.4752	0.9504	0.7425	0.122
Mof_O 	O 	0.22732	0.45463	0.90179	-0.284
Mof_N 	N 	0.15852	0.31703	0.04403	-0.213
Mof_C 	C 	0.11027	0.22053	0.13873	0.002
Mof_H 	H 	0.09902	0.19803	0.16013	0.066
Mof_C 	C 	0.14187	0.28373	0.07583	0.122
Mof_O 	O 	0.89398	0.78797	0.23513	-0.283
Mof_N 	N 	0.82518	0.65037	0.37737	-0.213
Mof_C 	C 	0.77693	0.55387	0.47207	0.002
Mof_H 	H 	0.76568	0.53137	0.49347	0.066
Mof_C 	C 	0.80853	0.61707	0.40917	0.122
Mof_O 	O 	0.56065	0.43935	0.56846	-0.284
Mof_N 	N 	0.49185	0.50815	0.7107	-0.213
Mof_C 	C 	0.4436	0.5564	0.8054	0.002
Mof_H 	H 	0.43235	0.56765	0.8268	0.066
Mof_C 	C 	0.4752	0.5248	0.7425	0.122
Mof_O 	O 	0.22732	0.77268	0.90179	-0.284
Mof_N 	N 	0.15852	0.84148	0.04403	-0.213
Mof_C 	C 	0.11027	0.88973	0.13873	0.002
Mof_H 	H 	0.09902	0.90098	0.16013	0.066
Mof_C 	C 	0.14187	0.85813	0.07583	0.122
Mof_O 	O 	0.89398	0.10602	0.23513	-0.283
Mof_N 	N 	0.82518	0.17482	0.37737	-0.213
Mof_C 	C 	0.77693	0.22307	0.47207	0.002
Mof_H 	H 	0.76568	0.23432	0.49347	0.066
Mof_C 	C 	0.80853	0.19147	0.40917	0.122
_end
