# CIF file generated by openbabel 3.1.0, see https://openbabel.org
data_I
_chemical_name_common 'GEZRAG_clean'
_cell_length_a 26.4529
_cell_length_b 26.4529
_cell_length_c 26.4529
_cell_angle_alpha 90
_cell_angle_beta 90
_cell_angle_gamma 90
_space_group_name_H-M_alt 'P 1'
_space_group_name_Hall 'P 1'
loop_
    _symmetry_equiv_pos_as_xyz
    x,y,z
loop_
    _atom_site_label
    _atom_site_type_symbol
    _atom_site_fract_x
    _atom_site_fract_y
    _atom_site_fract_z
    _atom_site_occupancy
    Co1      Co       0.83851    0.86800    0.77524    1.000
    Co2      Co       0.82465    0.76018    0.73207    1.000
    Co3      Co       0.78948    0.85631    0.66836    1.000
    Co4      Co       0.66149    0.13200    0.27524    1.000
    Co5      Co       0.67535    0.23982    0.23207    1.000
    Co6      Co       0.71052    0.14369    0.16836    1.000
    Co7      Co       0.16149    0.36800    0.72476    1.000
    Co8      Co       0.17535    0.26018    0.76793    1.000
    Co9      Co       0.21052    0.35631    0.83164    1.000
    Co10     Co       0.33851    0.63200    0.22476    1.000
    Co11     Co       0.32465    0.73982    0.26793    1.000
    Co12     Co       0.28948    0.64369    0.33164    1.000
    Co13     Co       0.77524    0.83851    0.86800    1.000
    Co14     Co       0.73207    0.82465    0.76018    1.000
    Co15     Co       0.66836    0.78948    0.85631    1.000
    Co16     Co       0.27524    0.66149    0.13200    1.000
    Co17     Co       0.23207    0.67535    0.23982    1.000
    Co18     Co       0.16836    0.71052    0.14369    1.000
    Co19     Co       0.72476    0.16149    0.36800    1.000
    Co20     Co       0.76793    0.17535    0.26018    1.000
    Co21     Co       0.83164    0.21052    0.35631    1.000
    Co22     Co       0.22476    0.33851    0.63200    1.000
    Co23     Co       0.26793    0.32465    0.73982    1.000
    Co24     Co       0.33164    0.28948    0.64369    1.000
    Co25     Co       0.86800    0.77524    0.83851    1.000
    Co26     Co       0.76018    0.73207    0.82465    1.000
    Co27     Co       0.85631    0.66836    0.78948    1.000
    Co28     Co       0.13200    0.27524    0.66149    1.000
    Co29     Co       0.23982    0.23207    0.67535    1.000
    Co30     Co       0.14369    0.16836    0.71052    1.000
    Co31     Co       0.36800    0.72476    0.16149    1.000
    Co32     Co       0.26018    0.76793    0.17535    1.000
    Co33     Co       0.35631    0.83164    0.21052    1.000
    Co34     Co       0.63200    0.22476    0.33851    1.000
    Co35     Co       0.73982    0.26793    0.32465    1.000
    Co36     Co       0.64369    0.33164    0.28948    1.000
    Co37     Co       0.16149    0.13200    0.22476    1.000
    Co38     Co       0.17535    0.23982    0.26793    1.000
    Co39     Co       0.21052    0.14369    0.33164    1.000
    Co40     Co       0.33851    0.86800    0.72476    1.000
    Co41     Co       0.32465    0.76018    0.76793    1.000
    Co42     Co       0.28948    0.85631    0.83164    1.000
    Co43     Co       0.83851    0.63200    0.27524    1.000
    Co44     Co       0.82465    0.73982    0.23207    1.000
    Co45     Co       0.78948    0.64369    0.16836    1.000
    Co46     Co       0.66149    0.36800    0.77524    1.000
    Co47     Co       0.67535    0.26018    0.73207    1.000
    Co48     Co       0.71052    0.35631    0.66836    1.000
    Co49     Co       0.22476    0.16149    0.13200    1.000
    Co50     Co       0.26793    0.17535    0.23982    1.000
    Co51     Co       0.33164    0.21052    0.14369    1.000
    Co52     Co       0.72476    0.33851    0.86800    1.000
    Co53     Co       0.76793    0.32465    0.76018    1.000
    Co54     Co       0.83164    0.28948    0.85631    1.000
    Co55     Co       0.27524    0.83851    0.63200    1.000
    Co56     Co       0.23207    0.82465    0.73982    1.000
    Co57     Co       0.16836    0.78948    0.64369    1.000
    Co58     Co       0.77524    0.66149    0.36800    1.000
    Co59     Co       0.73207    0.67535    0.26018    1.000
    Co60     Co       0.66836    0.71052    0.35631    1.000
    Co61     Co       0.13200    0.22476    0.16149    1.000
    Co62     Co       0.23982    0.26793    0.17535    1.000
    Co63     Co       0.14369    0.33164    0.21052    1.000
    Co64     Co       0.86800    0.72476    0.33851    1.000
    Co65     Co       0.76018    0.76793    0.32465    1.000
    Co66     Co       0.85631    0.83164    0.28948    1.000
    Co67     Co       0.63200    0.27524    0.83851    1.000
    Co68     Co       0.73982    0.23207    0.82465    1.000
    Co69     Co       0.64369    0.16836    0.78948    1.000
    Co70     Co       0.36800    0.77524    0.66149    1.000
    Co71     Co       0.26018    0.73207    0.67535    1.000
    Co72     Co       0.35631    0.66836    0.71052    1.000
    Co73     Co       0.88223    0.88223    0.88223    1.000
    Co74     Co       0.61777    0.11777    0.38223    1.000
    Co75     Co       0.11777    0.38223    0.61777    1.000
    Co76     Co       0.38223    0.61777    0.11777    1.000
    Co77     Co       0.11777    0.11777    0.11777    1.000
    Co78     Co       0.38223    0.88223    0.61777    1.000
    Co79     Co       0.88223    0.61777    0.38223    1.000
    Co80     Co       0.61777    0.38223    0.88223    1.000
    H1       H        0.06040    0.76110    0.62090    1.000
    H2       H        0.98120    0.76310    0.65450    1.000
    H3       H        0.11170    0.84680    0.72640    1.000
    H4       H        0.03360    0.85270    0.76330    1.000
    H5       H        0.96040    0.73960    0.77670    1.000
    H6       H        0.93840    0.72940    0.72270    1.000
    H7       H        0.91140    0.80710    0.66640    1.000
    H8       H        0.91790    0.86170    0.68830    1.000
    H9       H        0.95370    0.87450    0.77670    1.000
    H10      H        0.97110    0.82810    0.80900    1.000
    H11      H        0.70220    0.76870    0.65830    1.000
    H12      H        0.74940    0.73500    0.64680    1.000
    H13      H        0.68940    0.70820    0.60780    1.000
    H14      H        0.63900    0.65710    0.55720    1.000
    H15      H        0.59840    0.58110    0.67910    1.000
    H16      H        0.64970    0.62860    0.73250    1.000
    H17      H        0.88380    0.65890    0.60060    1.000
    H18      H        0.88140    0.60780    0.63050    1.000
    H19      H        0.83140    0.63670    0.61710    1.000
    H20      H        0.43960    0.23890    0.12090    1.000
    H21      H        0.51880    0.23690    0.15450    1.000
    H22      H        0.38830    0.15320    0.22640    1.000
    H23      H        0.46640    0.14730    0.26330    1.000
    H24      H        0.53960    0.26040    0.27670    1.000
    H25      H        0.56160    0.27060    0.22270    1.000
    H26      H        0.58860    0.19290    0.16640    1.000
    H27      H        0.58210    0.13830    0.18830    1.000
    H28      H        0.54630    0.12550    0.27670    1.000
    H29      H        0.52890    0.17190    0.30900    1.000
    H30      H        0.79780    0.23130    0.15830    1.000
    H31      H        0.75060    0.26500    0.14680    1.000
    H32      H        0.81060    0.29180    0.10780    1.000
    H33      H        0.86100    0.34290    0.05720    1.000
    H34      H        0.90160    0.41890    0.17910    1.000
    H35      H        0.85030    0.37140    0.23250    1.000
    H36      H        0.61620    0.34110    0.10060    1.000
    H37      H        0.61860    0.39220    0.13050    1.000
    H38      H        0.66860    0.36330    0.11710    1.000
    H39      H        0.93960    0.26110    0.87910    1.000
    H40      H        0.01880    0.26310    0.84550    1.000
    H41      H        0.88830    0.34680    0.77360    1.000
    H42      H        0.96640    0.35270    0.73670    1.000
    H43      H        0.03960    0.23960    0.72330    1.000
    H44      H        0.06160    0.22940    0.77730    1.000
    H45      H        0.08860    0.30710    0.83360    1.000
    H46      H        0.08210    0.36170    0.81170    1.000
    H47      H        0.04630    0.37450    0.72330    1.000
    H48      H        0.02890    0.32810    0.69100    1.000
    H49      H        0.29780    0.26870    0.84170    1.000
    H50      H        0.25060    0.23500    0.85320    1.000
    H51      H        0.31060    0.20820    0.89220    1.000
    H52      H        0.36100    0.15710    0.94280    1.000
    H53      H        0.40160    0.08110    0.82090    1.000
    H54      H        0.35030    0.12860    0.76750    1.000
    H55      H        0.11620    0.15890    0.89940    1.000
    H56      H        0.11860    0.10780    0.86950    1.000
    H57      H        0.16860    0.13670    0.88290    1.000
    H58      H        0.56040    0.73890    0.37910    1.000
    H59      H        0.48120    0.73690    0.34550    1.000
    H60      H        0.61170    0.65320    0.27360    1.000
    H61      H        0.53360    0.64730    0.23670    1.000
    H62      H        0.46040    0.76040    0.22330    1.000
    H63      H        0.43840    0.77060    0.27730    1.000
    H64      H        0.41140    0.69290    0.33360    1.000
    H65      H        0.41790    0.63830    0.31170    1.000
    H66      H        0.45370    0.62550    0.22330    1.000
    H67      H        0.47110    0.67190    0.19100    1.000
    H68      H        0.20220    0.73130    0.34170    1.000
    H69      H        0.24940    0.76500    0.35320    1.000
    H70      H        0.18940    0.79180    0.39220    1.000
    H71      H        0.13900    0.84290    0.44280    1.000
    H72      H        0.09840    0.91890    0.32090    1.000
    H73      H        0.14970    0.87140    0.26750    1.000
    H74      H        0.38380    0.84110    0.39940    1.000
    H75      H        0.38140    0.89220    0.36950    1.000
    H76      H        0.33140    0.86330    0.38290    1.000
    H77      H        0.62090    0.06040    0.76110    1.000
    H78      H        0.65450    0.98120    0.76310    1.000
    H79      H        0.72640    0.11170    0.84680    1.000
    H80      H        0.76330    0.03360    0.85270    1.000
    H81      H        0.77670    0.96040    0.73960    1.000
    H82      H        0.72270    0.93840    0.72940    1.000
    H83      H        0.66640    0.91140    0.80710    1.000
    H84      H        0.68830    0.91790    0.86170    1.000
    H85      H        0.77670    0.95370    0.87450    1.000
    H86      H        0.80900    0.97110    0.82810    1.000
    H87      H        0.65830    0.70220    0.76870    1.000
    H88      H        0.64680    0.74940    0.73500    1.000
    H89      H        0.60780    0.68940    0.70820    1.000
    H90      H        0.55720    0.63900    0.65710    1.000
    H91      H        0.67910    0.59840    0.58110    1.000
    H92      H        0.73250    0.64970    0.62860    1.000
    H93      H        0.60060    0.88380    0.65890    1.000
    H94      H        0.63050    0.88140    0.60780    1.000
    H95      H        0.61710    0.83140    0.63670    1.000
    H96      H        0.12090    0.43960    0.23890    1.000
    H97      H        0.15450    0.51880    0.23690    1.000
    H98      H        0.22640    0.38830    0.15320    1.000
    H99      H        0.26330    0.46640    0.14730    1.000
    H100     H        0.27670    0.53960    0.26040    1.000
    H101     H        0.22270    0.56160    0.27060    1.000
    H102     H        0.16640    0.58860    0.19290    1.000
    H103     H        0.18830    0.58210    0.13830    1.000
    H104     H        0.27670    0.54630    0.12550    1.000
    H105     H        0.30900    0.52890    0.17190    1.000
    H106     H        0.15830    0.79780    0.23130    1.000
    H107     H        0.14680    0.75060    0.26500    1.000
    H108     H        0.10780    0.81060    0.29180    1.000
    H109     H        0.05720    0.86100    0.34290    1.000
    H110     H        0.17910    0.90160    0.41890    1.000
    H111     H        0.23250    0.85030    0.37140    1.000
    H112     H        0.10060    0.61620    0.34110    1.000
    H113     H        0.13050    0.61860    0.39220    1.000
    H114     H        0.11710    0.66860    0.36330    1.000
    H115     H        0.87910    0.93960    0.26110    1.000
    H116     H        0.84550    0.01880    0.26310    1.000
    H117     H        0.77360    0.88830    0.34680    1.000
    H118     H        0.73670    0.96640    0.35270    1.000
    H119     H        0.72330    0.03960    0.23960    1.000
    H120     H        0.77730    0.06160    0.22940    1.000
    H121     H        0.83360    0.08860    0.30710    1.000
    H122     H        0.81170    0.08210    0.36170    1.000
    H123     H        0.72330    0.04630    0.37450    1.000
    H124     H        0.69100    0.02890    0.32810    1.000
    H125     H        0.84170    0.29780    0.26870    1.000
    H126     H        0.85320    0.25060    0.23500    1.000
    H127     H        0.89220    0.31060    0.20820    1.000
    H128     H        0.94280    0.36100    0.15710    1.000
    H129     H        0.82090    0.40160    0.08110    1.000
    H130     H        0.76750    0.35030    0.12860    1.000
    H131     H        0.89940    0.11620    0.15890    1.000
    H132     H        0.86950    0.11860    0.10780    1.000
    H133     H        0.88290    0.16860    0.13670    1.000
    H134     H        0.37910    0.56040    0.73890    1.000
    H135     H        0.34550    0.48120    0.73690    1.000
    H136     H        0.27360    0.61170    0.65320    1.000
    H137     H        0.23670    0.53360    0.64730    1.000
    H138     H        0.22330    0.46040    0.76040    1.000
    H139     H        0.27730    0.43840    0.77060    1.000
    H140     H        0.33360    0.41140    0.69290    1.000
    H141     H        0.31170    0.41790    0.63830    1.000
    H142     H        0.22330    0.45370    0.62550    1.000
    H143     H        0.19100    0.47110    0.67190    1.000
    H144     H        0.34170    0.20220    0.73130    1.000
    H145     H        0.35320    0.24940    0.76500    1.000
    H146     H        0.39220    0.18940    0.79180    1.000
    H147     H        0.44280    0.13900    0.84290    1.000
    H148     H        0.32090    0.09840    0.91890    1.000
    H149     H        0.26750    0.14970    0.87140    1.000
    H150     H        0.39940    0.38380    0.84110    1.000
    H151     H        0.36950    0.38140    0.89220    1.000
    H152     H        0.38290    0.33140    0.86330    1.000
    H153     H        0.76110    0.62090    0.06040    1.000
    H154     H        0.76310    0.65450    0.98120    1.000
    H155     H        0.84680    0.72640    0.11170    1.000
    H156     H        0.85270    0.76330    0.03360    1.000
    H157     H        0.73960    0.77670    0.96040    1.000
    H158     H        0.72940    0.72270    0.93840    1.000
    H159     H        0.80710    0.66640    0.91140    1.000
    H160     H        0.86170    0.68830    0.91790    1.000
    H161     H        0.87450    0.77670    0.95370    1.000
    H162     H        0.82810    0.80900    0.97110    1.000
    H163     H        0.76870    0.65830    0.70220    1.000
    H164     H        0.73500    0.64680    0.74940    1.000
    H165     H        0.70820    0.60780    0.68940    1.000
    H166     H        0.65710    0.55720    0.63900    1.000
    H167     H        0.58110    0.67910    0.59840    1.000
    H168     H        0.62860    0.73250    0.64970    1.000
    H169     H        0.65890    0.60060    0.88380    1.000
    H170     H        0.60780    0.63050    0.88140    1.000
    H171     H        0.63670    0.61710    0.83140    1.000
    H172     H        0.23890    0.12090    0.43960    1.000
    H173     H        0.23690    0.15450    0.51880    1.000
    H174     H        0.15320    0.22640    0.38830    1.000
    H175     H        0.14730    0.26330    0.46640    1.000
    H176     H        0.26040    0.27670    0.53960    1.000
    H177     H        0.27060    0.22270    0.56160    1.000
    H178     H        0.19290    0.16640    0.58860    1.000
    H179     H        0.13830    0.18830    0.58210    1.000
    H180     H        0.12550    0.27670    0.54630    1.000
    H181     H        0.17190    0.30900    0.52890    1.000
    H182     H        0.23130    0.15830    0.79780    1.000
    H183     H        0.26500    0.14680    0.75060    1.000
    H184     H        0.29180    0.10780    0.81060    1.000
    H185     H        0.34290    0.05720    0.86100    1.000
    H186     H        0.41890    0.17910    0.90160    1.000
    H187     H        0.37140    0.23250    0.85030    1.000
    H188     H        0.34110    0.10060    0.61620    1.000
    H189     H        0.39220    0.13050    0.61860    1.000
    H190     H        0.36330    0.11710    0.66860    1.000
    H191     H        0.26110    0.87910    0.93960    1.000
    H192     H        0.26310    0.84550    0.01880    1.000
    H193     H        0.34680    0.77360    0.88830    1.000
    H194     H        0.35270    0.73670    0.96640    1.000
    H195     H        0.23960    0.72330    0.03960    1.000
    H196     H        0.22940    0.77730    0.06160    1.000
    H197     H        0.30710    0.83360    0.08860    1.000
    H198     H        0.36170    0.81170    0.08210    1.000
    H199     H        0.37450    0.72330    0.04630    1.000
    H200     H        0.32810    0.69100    0.02890    1.000
    H201     H        0.26870    0.84170    0.29780    1.000
    H202     H        0.23500    0.85320    0.25060    1.000
    H203     H        0.20820    0.89220    0.31060    1.000
    H204     H        0.15710    0.94280    0.36100    1.000
    H205     H        0.08110    0.82090    0.40160    1.000
    H206     H        0.12860    0.76750    0.35030    1.000
    H207     H        0.15890    0.89940    0.11620    1.000
    H208     H        0.10780    0.86950    0.11860    1.000
    H209     H        0.13670    0.88290    0.16860    1.000
    H210     H        0.73890    0.37910    0.56040    1.000
    H211     H        0.73690    0.34550    0.48120    1.000
    H212     H        0.65320    0.27360    0.61170    1.000
    H213     H        0.64730    0.23670    0.53360    1.000
    H214     H        0.76040    0.22330    0.46040    1.000
    H215     H        0.77060    0.27730    0.43840    1.000
    H216     H        0.69290    0.33360    0.41140    1.000
    H217     H        0.63830    0.31170    0.41790    1.000
    H218     H        0.62550    0.22330    0.45370    1.000
    H219     H        0.67190    0.19100    0.47110    1.000
    H220     H        0.73130    0.34170    0.20220    1.000
    H221     H        0.76500    0.35320    0.24940    1.000
    H222     H        0.79180    0.39220    0.18940    1.000
    H223     H        0.84290    0.44280    0.13900    1.000
    H224     H        0.91890    0.32090    0.09840    1.000
    H225     H        0.87140    0.26750    0.14970    1.000
    H226     H        0.84110    0.39940    0.38380    1.000
    H227     H        0.89220    0.36950    0.38140    1.000
    H228     H        0.86330    0.38290    0.33140    1.000
    H229     H        0.93960    0.23890    0.37910    1.000
    H230     H        0.01880    0.23690    0.34550    1.000
    H231     H        0.88830    0.15320    0.27360    1.000
    H232     H        0.96640    0.14730    0.23670    1.000
    H233     H        0.03960    0.26040    0.22330    1.000
    H234     H        0.06160    0.27060    0.27730    1.000
    H235     H        0.08860    0.19290    0.33360    1.000
    H236     H        0.08210    0.13830    0.31170    1.000
    H237     H        0.04630    0.12550    0.22330    1.000
    H238     H        0.02890    0.17190    0.19100    1.000
    H239     H        0.29780    0.23130    0.34170    1.000
    H240     H        0.25060    0.26500    0.35320    1.000
    H241     H        0.31060    0.29180    0.39220    1.000
    H242     H        0.36100    0.34290    0.44280    1.000
    H243     H        0.40160    0.41890    0.32090    1.000
    H244     H        0.35030    0.37140    0.26750    1.000
    H245     H        0.11620    0.34110    0.39940    1.000
    H246     H        0.11860    0.39220    0.36950    1.000
    H247     H        0.16860    0.36330    0.38290    1.000
    H248     H        0.56040    0.76110    0.87910    1.000
    H249     H        0.48120    0.76310    0.84550    1.000
    H250     H        0.61170    0.84680    0.77360    1.000
    H251     H        0.53360    0.85270    0.73670    1.000
    H252     H        0.46040    0.73960    0.72330    1.000
    H253     H        0.43840    0.72940    0.77730    1.000
    H254     H        0.41140    0.80710    0.83360    1.000
    H255     H        0.41790    0.86170    0.81170    1.000
    H256     H        0.45370    0.87450    0.72330    1.000
    H257     H        0.47110    0.82810    0.69100    1.000
    H258     H        0.20220    0.76870    0.84170    1.000
    H259     H        0.24940    0.73500    0.85320    1.000
    H260     H        0.18940    0.70820    0.89220    1.000
    H261     H        0.13900    0.65710    0.94280    1.000
    H262     H        0.09840    0.58110    0.82090    1.000
    H263     H        0.14970    0.62860    0.76750    1.000
    H264     H        0.38380    0.65890    0.89940    1.000
    H265     H        0.38140    0.60780    0.86950    1.000
    H266     H        0.33140    0.63670    0.88290    1.000
    H267     H        0.06040    0.73890    0.12090    1.000
    H268     H        0.98120    0.73690    0.15450    1.000
    H269     H        0.11170    0.65320    0.22640    1.000
    H270     H        0.03360    0.64730    0.26330    1.000
    H271     H        0.96040    0.76040    0.27670    1.000
    H272     H        0.93840    0.77060    0.22270    1.000
    H273     H        0.91140    0.69290    0.16640    1.000
    H274     H        0.91790    0.63830    0.18830    1.000
    H275     H        0.95370    0.62550    0.27670    1.000
    H276     H        0.97110    0.67190    0.30900    1.000
    H277     H        0.70220    0.73130    0.15830    1.000
    H278     H        0.74940    0.76500    0.14680    1.000
    H279     H        0.68940    0.79180    0.10780    1.000
    H280     H        0.63900    0.84290    0.05720    1.000
    H281     H        0.59840    0.91890    0.17910    1.000
    H282     H        0.64970    0.87140    0.23250    1.000
    H283     H        0.88380    0.84110    0.10060    1.000
    H284     H        0.88140    0.89220    0.13050    1.000
    H285     H        0.83140    0.86330    0.11710    1.000
    H286     H        0.43960    0.26110    0.62090    1.000
    H287     H        0.51880    0.26310    0.65450    1.000
    H288     H        0.38830    0.34680    0.72640    1.000
    H289     H        0.46640    0.35270    0.76330    1.000
    H290     H        0.53960    0.23960    0.77670    1.000
    H291     H        0.56160    0.22940    0.72270    1.000
    H292     H        0.58860    0.30710    0.66640    1.000
    H293     H        0.58210    0.36170    0.68830    1.000
    H294     H        0.54630    0.37450    0.77670    1.000
    H295     H        0.52890    0.32810    0.80900    1.000
    H296     H        0.79780    0.26870    0.65830    1.000
    H297     H        0.75060    0.23500    0.64680    1.000
    H298     H        0.81060    0.20820    0.60780    1.000
    H299     H        0.86100    0.15710    0.55720    1.000
    H300     H        0.90160    0.08110    0.67910    1.000
    H301     H        0.85030    0.12860    0.73250    1.000
    H302     H        0.61620    0.15890    0.60060    1.000
    H303     H        0.61860    0.10780    0.63050    1.000
    H304     H        0.66860    0.13670    0.61710    1.000
    H305     H        0.37910    0.93960    0.23890    1.000
    H306     H        0.34550    0.01880    0.23690    1.000
    H307     H        0.27360    0.88830    0.15320    1.000
    H308     H        0.23670    0.96640    0.14730    1.000
    H309     H        0.22330    0.03960    0.26040    1.000
    H310     H        0.27730    0.06160    0.27060    1.000
    H311     H        0.33360    0.08860    0.19290    1.000
    H312     H        0.31170    0.08210    0.13830    1.000
    H313     H        0.22330    0.04630    0.12550    1.000
    H314     H        0.19100    0.02890    0.17190    1.000
    H315     H        0.34170    0.29780    0.23130    1.000
    H316     H        0.35320    0.25060    0.26500    1.000
    H317     H        0.39220    0.31060    0.29180    1.000
    H318     H        0.44280    0.36100    0.34290    1.000
    H319     H        0.32090    0.40160    0.41890    1.000
    H320     H        0.26750    0.35030    0.37140    1.000
    H321     H        0.39940    0.11620    0.34110    1.000
    H322     H        0.36950    0.11860    0.39220    1.000
    H323     H        0.38290    0.16860    0.36330    1.000
    H324     H        0.87910    0.56040    0.76110    1.000
    H325     H        0.84550    0.48120    0.76310    1.000
    H326     H        0.77360    0.61170    0.84680    1.000
    H327     H        0.73670    0.53360    0.85270    1.000
    H328     H        0.72330    0.46040    0.73960    1.000
    H329     H        0.77730    0.43840    0.72940    1.000
    H330     H        0.83360    0.41140    0.80710    1.000
    H331     H        0.81170    0.41790    0.86170    1.000
    H332     H        0.72330    0.45370    0.87450    1.000
    H333     H        0.69100    0.47110    0.82810    1.000
    H334     H        0.84170    0.20220    0.76870    1.000
    H335     H        0.85320    0.24940    0.73500    1.000
    H336     H        0.89220    0.18940    0.70820    1.000
    H337     H        0.94280    0.13900    0.65710    1.000
    H338     H        0.82090    0.09840    0.58110    1.000
    H339     H        0.76750    0.14970    0.62860    1.000
    H340     H        0.89940    0.38380    0.65890    1.000
    H341     H        0.86950    0.38140    0.60780    1.000
    H342     H        0.88290    0.33140    0.63670    1.000
    H343     H        0.12090    0.06040    0.73890    1.000
    H344     H        0.15450    0.98120    0.73690    1.000
    H345     H        0.22640    0.11170    0.65320    1.000
    H346     H        0.26330    0.03360    0.64730    1.000
    H347     H        0.27670    0.96040    0.76040    1.000
    H348     H        0.22270    0.93840    0.77060    1.000
    H349     H        0.16640    0.91140    0.69290    1.000
    H350     H        0.18830    0.91790    0.63830    1.000
    H351     H        0.27670    0.95370    0.62550    1.000
    H352     H        0.30900    0.97110    0.67190    1.000
    H353     H        0.15830    0.70220    0.73130    1.000
    H354     H        0.14680    0.74940    0.76500    1.000
    H355     H        0.10780    0.68940    0.79180    1.000
    H356     H        0.05720    0.63900    0.84290    1.000
    H357     H        0.17910    0.59840    0.91890    1.000
    H358     H        0.23250    0.64970    0.87140    1.000
    H359     H        0.10060    0.88380    0.84110    1.000
    H360     H        0.13050    0.88140    0.89220    1.000
    H361     H        0.11710    0.83140    0.86330    1.000
    H362     H        0.62090    0.43960    0.26110    1.000
    H363     H        0.65450    0.51880    0.26310    1.000
    H364     H        0.72640    0.38830    0.34680    1.000
    H365     H        0.76330    0.46640    0.35270    1.000
    H366     H        0.77670    0.53960    0.23960    1.000
    H367     H        0.72270    0.56160    0.22940    1.000
    H368     H        0.66640    0.58860    0.30710    1.000
    H369     H        0.68830    0.58210    0.36170    1.000
    H370     H        0.77670    0.54630    0.37450    1.000
    H371     H        0.80900    0.52890    0.32810    1.000
    H372     H        0.65830    0.79780    0.26870    1.000
    H373     H        0.64680    0.75060    0.23500    1.000
    H374     H        0.60780    0.81060    0.20820    1.000
    H375     H        0.55720    0.86100    0.15710    1.000
    H376     H        0.67910    0.90160    0.08110    1.000
    H377     H        0.73250    0.85030    0.12860    1.000
    H378     H        0.60060    0.61620    0.15890    1.000
    H379     H        0.63050    0.61860    0.10780    1.000
    H380     H        0.61710    0.66860    0.13670    1.000
    H381     H        0.23890    0.37910    0.93960    1.000
    H382     H        0.23690    0.34550    0.01880    1.000
    H383     H        0.15320    0.27360    0.88830    1.000
    H384     H        0.14730    0.23670    0.96640    1.000
    H385     H        0.26040    0.22330    0.03960    1.000
    H386     H        0.27060    0.27730    0.06160    1.000
    H387     H        0.19290    0.33360    0.08860    1.000
    H388     H        0.13830    0.31170    0.08210    1.000
    H389     H        0.12550    0.22330    0.04630    1.000
    H390     H        0.17190    0.19100    0.02890    1.000
    H391     H        0.23130    0.34170    0.29780    1.000
    H392     H        0.26500    0.35320    0.25060    1.000
    H393     H        0.29180    0.39220    0.31060    1.000
    H394     H        0.34290    0.44280    0.36100    1.000
    H395     H        0.41890    0.32090    0.40160    1.000
    H396     H        0.37140    0.26750    0.35030    1.000
    H397     H        0.34110    0.39940    0.11620    1.000
    H398     H        0.39220    0.36950    0.11860    1.000
    H399     H        0.36330    0.38290    0.16860    1.000
    H400     H        0.76110    0.87910    0.56040    1.000
    H401     H        0.76310    0.84550    0.48120    1.000
    H402     H        0.84680    0.77360    0.61170    1.000
    H403     H        0.85270    0.73670    0.53360    1.000
    H404     H        0.73960    0.72330    0.46040    1.000
    H405     H        0.72940    0.77730    0.43840    1.000
    H406     H        0.80710    0.83360    0.41140    1.000
    H407     H        0.86170    0.81170    0.41790    1.000
    H408     H        0.87450    0.72330    0.45370    1.000
    H409     H        0.82810    0.69100    0.47110    1.000
    H410     H        0.76870    0.84170    0.20220    1.000
    H411     H        0.73500    0.85320    0.24940    1.000
    H412     H        0.70820    0.89220    0.18940    1.000
    H413     H        0.65710    0.94280    0.13900    1.000
    H414     H        0.58110    0.82090    0.09840    1.000
    H415     H        0.62860    0.76750    0.14970    1.000
    H416     H        0.65890    0.89940    0.38380    1.000
    H417     H        0.60780    0.86950    0.38140    1.000
    H418     H        0.63670    0.88290    0.33140    1.000
    H419     H        0.73890    0.12090    0.06040    1.000
    H420     H        0.73690    0.15450    0.98120    1.000
    H421     H        0.65320    0.22640    0.11170    1.000
    H422     H        0.64730    0.26330    0.03360    1.000
    H423     H        0.76040    0.27670    0.96040    1.000
    H424     H        0.77060    0.22270    0.93840    1.000
    H425     H        0.69290    0.16640    0.91140    1.000
    H426     H        0.63830    0.18830    0.91790    1.000
    H427     H        0.62550    0.27670    0.95370    1.000
    H428     H        0.67190    0.30900    0.97110    1.000
    H429     H        0.73130    0.15830    0.70220    1.000
    H430     H        0.76500    0.14680    0.74940    1.000
    H431     H        0.79180    0.10780    0.68940    1.000
    H432     H        0.84290    0.05720    0.63900    1.000
    H433     H        0.91890    0.17910    0.59840    1.000
    H434     H        0.87140    0.23250    0.64970    1.000
    H435     H        0.84110    0.10060    0.88380    1.000
    H436     H        0.89220    0.13050    0.88140    1.000
    H437     H        0.86330    0.11710    0.83140    1.000
    H438     H        0.26110    0.62090    0.43960    1.000
    H439     H        0.26310    0.65450    0.51880    1.000
    H440     H        0.34680    0.72640    0.38830    1.000
    H441     H        0.35270    0.76330    0.46640    1.000
    H442     H        0.23960    0.77670    0.53960    1.000
    H443     H        0.22940    0.72270    0.56160    1.000
    H444     H        0.30710    0.66640    0.58860    1.000
    H445     H        0.36170    0.68830    0.58210    1.000
    H446     H        0.37450    0.77670    0.54630    1.000
    H447     H        0.32810    0.80900    0.52890    1.000
    H448     H        0.26870    0.65830    0.79780    1.000
    H449     H        0.23500    0.64680    0.75060    1.000
    H450     H        0.20820    0.60780    0.81060    1.000
    H451     H        0.15710    0.55720    0.86100    1.000
    H452     H        0.08110    0.67910    0.90160    1.000
    H453     H        0.12860    0.73250    0.85030    1.000
    H454     H        0.15890    0.60060    0.61620    1.000
    H455     H        0.10780    0.63050    0.61860    1.000
    H456     H        0.13670    0.61710    0.66860    1.000
    C1       C        0.05530    0.77910    0.65070    1.000
    C2       C        0.00720    0.78030    0.67070    1.000
    C3       C        0.08510    0.82900    0.71190    1.000
    C4       C        0.03780    0.83270    0.73470    1.000
    C5       C        0.99700    0.80680    0.71480    1.000
    C6       C        0.94360    0.80640    0.73840    1.000
    C7       C        0.93470    0.75000    0.75270    1.000
    C8       C        0.90750    0.82750    0.69660    1.000
    C9       C        0.94480    0.84030    0.78660    1.000
    C10      C        0.73040    0.75100    0.67370    1.000
    C11      C        0.67060    0.68140    0.62340    1.000
    C12      C        0.64040    0.65140    0.59300    1.000
    C13      C        0.61810    0.60780    0.66430    1.000
    C14      C        0.64760    0.63610    0.69700    1.000
    C15      C        0.86970    0.67000    0.67720    1.000
    C16      C        0.86600    0.64050    0.62650    1.000
    C17      C        0.44470    0.22090    0.15070    1.000
    C18      C        0.49280    0.21970    0.17070    1.000
    C19      C        0.41490    0.17100    0.21190    1.000
    C20      C        0.46220    0.16730    0.23470    1.000
    C21      C        0.50300    0.19320    0.21480    1.000
    C22      C        0.55640    0.19360    0.23840    1.000
    C23      C        0.56530    0.25000    0.25270    1.000
    C24      C        0.59250    0.17250    0.19660    1.000
    C25      C        0.55520    0.15970    0.28660    1.000
    C26      C        0.76960    0.24900    0.17370    1.000
    C27      C        0.82940    0.31860    0.12340    1.000
    C28      C        0.85960    0.34860    0.09300    1.000
    C29      C        0.88190    0.39220    0.16430    1.000
    C30      C        0.85240    0.36390    0.19700    1.000
    C31      C        0.63030    0.33000    0.17720    1.000
    C32      C        0.63400    0.35950    0.12650    1.000
    C33      C        0.94470    0.27910    0.84930    1.000
    C34      C        0.99280    0.28030    0.82930    1.000
    C35      C        0.91490    0.32900    0.78810    1.000
    C36      C        0.96220    0.33270    0.76530    1.000
    C37      C        0.00300    0.30680    0.78520    1.000
    C38      C        0.05640    0.30640    0.76160    1.000
    C39      C        0.06530    0.25000    0.74730    1.000
    C40      C        0.09250    0.32750    0.80340    1.000
    C41      C        0.05520    0.34030    0.71340    1.000
    C42      C        0.26960    0.25100    0.82630    1.000
    C43      C        0.32940    0.18140    0.87660    1.000
    C44      C        0.35960    0.15140    0.90700    1.000
    C45      C        0.38190    0.10780    0.83570    1.000
    C46      C        0.35240    0.13610    0.80300    1.000
    C47      C        0.13030    0.17000    0.82280    1.000
    C48      C        0.13400    0.14050    0.87350    1.000
    C49      C        0.55530    0.72090    0.34930    1.000
    C50      C        0.50720    0.71970    0.32930    1.000
    C51      C        0.58510    0.67100    0.28810    1.000
    C52      C        0.53780    0.66730    0.26530    1.000
    C53      C        0.49700    0.69320    0.28520    1.000
    C54      C        0.44360    0.69360    0.26160    1.000
    C55      C        0.43470    0.75000    0.24730    1.000
    C56      C        0.40750    0.67250    0.30340    1.000
    C57      C        0.44480    0.65970    0.21340    1.000
    C58      C        0.23040    0.74900    0.32630    1.000
    C59      C        0.17060    0.81860    0.37660    1.000
    C60      C        0.14040    0.84860    0.40700    1.000
    C61      C        0.11810    0.89220    0.33570    1.000
    C62      C        0.14760    0.86390    0.30300    1.000
    C63      C        0.36970    0.83000    0.32280    1.000
    C64      C        0.36600    0.85950    0.37350    1.000
    C65      C        0.65070    0.05530    0.77910    1.000
    C66      C        0.67070    0.00720    0.78030    1.000
    C67      C        0.71190    0.08510    0.82900    1.000
    C68      C        0.73470    0.03780    0.83270    1.000
    C69      C        0.71480    0.99700    0.80680    1.000
    C70      C        0.73840    0.94360    0.80640    1.000
    C71      C        0.75270    0.93470    0.75000    1.000
    C72      C        0.69660    0.90750    0.82750    1.000
    C73      C        0.78660    0.94480    0.84030    1.000
    C74      C        0.67370    0.73040    0.75100    1.000
    C75      C        0.62340    0.67060    0.68140    1.000
    C76      C        0.59300    0.64040    0.65140    1.000
    C77      C        0.66430    0.61810    0.60780    1.000
    C78      C        0.69700    0.64760    0.63610    1.000
    C79      C        0.67720    0.86970    0.67000    1.000
    C80      C        0.62650    0.86600    0.64050    1.000
    C81      C        0.15070    0.44470    0.22090    1.000
    C82      C        0.17070    0.49280    0.21970    1.000
    C83      C        0.21190    0.41490    0.17100    1.000
    C84      C        0.23470    0.46220    0.16730    1.000
    C85      C        0.21480    0.50300    0.19320    1.000
    C86      C        0.23840    0.55640    0.19360    1.000
    C87      C        0.25270    0.56530    0.25000    1.000
    C88      C        0.19660    0.59250    0.17250    1.000
    C89      C        0.28660    0.55520    0.15970    1.000
    C90      C        0.17370    0.76960    0.24900    1.000
    C91      C        0.12340    0.82940    0.31860    1.000
    C92      C        0.09300    0.85960    0.34860    1.000
    C93      C        0.16430    0.88190    0.39220    1.000
    C94      C        0.19700    0.85240    0.36390    1.000
    C95      C        0.17720    0.63030    0.33000    1.000
    C96      C        0.12650    0.63400    0.35950    1.000
    C97      C        0.84930    0.94470    0.27910    1.000
    C98      C        0.82930    0.99280    0.28030    1.000
    C99      C        0.78810    0.91490    0.32900    1.000
    C100     C        0.76530    0.96220    0.33270    1.000
    C101     C        0.78520    0.00300    0.30680    1.000
    C102     C        0.76160    0.05640    0.30640    1.000
    C103     C        0.74730    0.06530    0.25000    1.000
    C104     C        0.80340    0.09250    0.32750    1.000
    C105     C        0.71340    0.05520    0.34030    1.000
    C106     C        0.82630    0.26960    0.25100    1.000
    C107     C        0.87660    0.32940    0.18140    1.000
    C108     C        0.90700    0.35960    0.15140    1.000
    C109     C        0.83570    0.38190    0.10780    1.000
    C110     C        0.80300    0.35240    0.13610    1.000
    C111     C        0.82280    0.13030    0.17000    1.000
    C112     C        0.87350    0.13400    0.14050    1.000
    C113     C        0.34930    0.55530    0.72090    1.000
    C114     C        0.32930    0.50720    0.71970    1.000
    C115     C        0.28810    0.58510    0.67100    1.000
    C116     C        0.26530    0.53780    0.66730    1.000
    C117     C        0.28520    0.49700    0.69320    1.000
    C118     C        0.26160    0.44360    0.69360    1.000
    C119     C        0.24730    0.43470    0.75000    1.000
    C120     C        0.30340    0.40750    0.67250    1.000
    C121     C        0.21340    0.44480    0.65970    1.000
    C122     C        0.32630    0.23040    0.74900    1.000
    C123     C        0.37660    0.17060    0.81860    1.000
    C124     C        0.40700    0.14040    0.84860    1.000
    C125     C        0.33570    0.11810    0.89220    1.000
    C126     C        0.30300    0.14760    0.86390    1.000
    C127     C        0.32280    0.36970    0.83000    1.000
    C128     C        0.37350    0.36600    0.85950    1.000
    C129     C        0.77910    0.65070    0.05530    1.000
    C130     C        0.78030    0.67070    0.00720    1.000
    C131     C        0.82900    0.71190    0.08510    1.000
    C132     C        0.83270    0.73470    0.03780    1.000
    C133     C        0.80680    0.71480    0.99700    1.000
    C134     C        0.80640    0.73840    0.94360    1.000
    C135     C        0.75000    0.75270    0.93470    1.000
    C136     C        0.82750    0.69660    0.90750    1.000
    C137     C        0.84030    0.78660    0.94480    1.000
    C138     C        0.75100    0.67370    0.73040    1.000
    C139     C        0.68140    0.62340    0.67060    1.000
    C140     C        0.65140    0.59300    0.64040    1.000
    C141     C        0.60780    0.66430    0.61810    1.000
    C142     C        0.63610    0.69700    0.64760    1.000
    C143     C        0.67000    0.67720    0.86970    1.000
    C144     C        0.64050    0.62650    0.86600    1.000
    C145     C        0.22090    0.15070    0.44470    1.000
    C146     C        0.21970    0.17070    0.49280    1.000
    C147     C        0.17100    0.21190    0.41490    1.000
    C148     C        0.16730    0.23470    0.46220    1.000
    C149     C        0.19320    0.21480    0.50300    1.000
    C150     C        0.19360    0.23840    0.55640    1.000
    C151     C        0.25000    0.25270    0.56530    1.000
    C152     C        0.17250    0.19660    0.59250    1.000
    C153     C        0.15970    0.28660    0.55520    1.000
    C154     C        0.24900    0.17370    0.76960    1.000
    C155     C        0.31860    0.12340    0.82940    1.000
    C156     C        0.34860    0.09300    0.85960    1.000
    C157     C        0.39220    0.16430    0.88190    1.000
    C158     C        0.36390    0.19700    0.85240    1.000
    C159     C        0.33000    0.17720    0.63030    1.000
    C160     C        0.35950    0.12650    0.63400    1.000
    C161     C        0.27910    0.84930    0.94470    1.000
    C162     C        0.28030    0.82930    0.99280    1.000
    C163     C        0.32900    0.78810    0.91490    1.000
    C164     C        0.33270    0.76530    0.96220    1.000
    C165     C        0.30680    0.78520    0.00300    1.000
    C166     C        0.30640    0.76160    0.05640    1.000
    C167     C        0.25000    0.74730    0.06530    1.000
    C168     C        0.32750    0.80340    0.09250    1.000
    C169     C        0.34030    0.71340    0.05520    1.000
    C170     C        0.25100    0.82630    0.26960    1.000
    C171     C        0.18140    0.87660    0.32940    1.000
    C172     C        0.15140    0.90700    0.35960    1.000
    C173     C        0.10780    0.83570    0.38190    1.000
    C174     C        0.13610    0.80300    0.35240    1.000
    C175     C        0.17000    0.82280    0.13030    1.000
    C176     C        0.14050    0.87350    0.13400    1.000
    C177     C        0.72090    0.34930    0.55530    1.000
    C178     C        0.71970    0.32930    0.50720    1.000
    C179     C        0.67100    0.28810    0.58510    1.000
    C180     C        0.66730    0.26530    0.53780    1.000
    C181     C        0.69320    0.28520    0.49700    1.000
    C182     C        0.69360    0.26160    0.44360    1.000
    C183     C        0.75000    0.24730    0.43470    1.000
    C184     C        0.67250    0.30340    0.40750    1.000
    C185     C        0.65970    0.21340    0.44480    1.000
    C186     C        0.74900    0.32630    0.23040    1.000
    C187     C        0.81860    0.37660    0.17060    1.000
    C188     C        0.84860    0.40700    0.14040    1.000
    C189     C        0.89220    0.33570    0.11810    1.000
    C190     C        0.86390    0.30300    0.14760    1.000
    C191     C        0.83000    0.32280    0.36970    1.000
    C192     C        0.85950    0.37350    0.36600    1.000
    C193     C        0.94470    0.22090    0.34930    1.000
    C194     C        0.99280    0.21970    0.32930    1.000
    C195     C        0.91490    0.17100    0.28810    1.000
    C196     C        0.96220    0.16730    0.26530    1.000
    C197     C        0.00300    0.19320    0.28520    1.000
    C198     C        0.05640    0.19360    0.26160    1.000
    C199     C        0.06530    0.25000    0.24730    1.000
    C200     C        0.09250    0.17250    0.30340    1.000
    C201     C        0.05520    0.15970    0.21340    1.000
    C202     C        0.26960    0.24900    0.32630    1.000
    C203     C        0.32940    0.31860    0.37660    1.000
    C204     C        0.35960    0.34860    0.40700    1.000
    C205     C        0.38190    0.39220    0.33570    1.000
    C206     C        0.35240    0.36390    0.30300    1.000
    C207     C        0.13030    0.33000    0.32280    1.000
    C208     C        0.13400    0.35950    0.37350    1.000
    C209     C        0.55530    0.77910    0.84930    1.000
    C210     C        0.50720    0.78030    0.82930    1.000
    C211     C        0.58510    0.82900    0.78810    1.000
    C212     C        0.53780    0.83270    0.76530    1.000
    C213     C        0.49700    0.80680    0.78520    1.000
    C214     C        0.44360    0.80640    0.76160    1.000
    C215     C        0.43470    0.75000    0.74730    1.000
    C216     C        0.40750    0.82750    0.80340    1.000
    C217     C        0.44480    0.84030    0.71340    1.000
    C218     C        0.23040    0.75100    0.82630    1.000
    C219     C        0.17060    0.68140    0.87660    1.000
    C220     C        0.14040    0.65140    0.90700    1.000
    C221     C        0.11810    0.60780    0.83570    1.000
    C222     C        0.14760    0.63610    0.80300    1.000
    C223     C        0.36970    0.67000    0.82280    1.000
    C224     C        0.36600    0.64050    0.87350    1.000
    C225     C        0.05530    0.72090    0.15070    1.000
    C226     C        0.00720    0.71970    0.17070    1.000
    C227     C        0.08510    0.67100    0.21190    1.000
    C228     C        0.03780    0.66730    0.23470    1.000
    C229     C        0.99700    0.69320    0.21480    1.000
    C230     C        0.94360    0.69360    0.23840    1.000
    C231     C        0.93470    0.75000    0.25270    1.000
    C232     C        0.90750    0.67250    0.19660    1.000
    C233     C        0.94480    0.65970    0.28660    1.000
    C234     C        0.73040    0.74900    0.17370    1.000
    C235     C        0.67060    0.81860    0.12340    1.000
    C236     C        0.64040    0.84860    0.09300    1.000
    C237     C        0.61810    0.89220    0.16430    1.000
    C238     C        0.64760    0.86390    0.19700    1.000
    C239     C        0.86970    0.83000    0.17720    1.000
    C240     C        0.86600    0.85950    0.12650    1.000
    C241     C        0.44470    0.27910    0.65070    1.000
    C242     C        0.49280    0.28030    0.67070    1.000
    C243     C        0.41490    0.32900    0.71190    1.000
    C244     C        0.46220    0.33270    0.73470    1.000
    C245     C        0.50300    0.30680    0.71480    1.000
    C246     C        0.55640    0.30640    0.73840    1.000
    C247     C        0.56530    0.25000    0.75270    1.000
    C248     C        0.59250    0.32750    0.69660    1.000
    C249     C        0.55520    0.34030    0.78660    1.000
    C250     C        0.76960    0.25100    0.67370    1.000
    C251     C        0.82940    0.18140    0.62340    1.000
    C252     C        0.85960    0.15140    0.59300    1.000
    C253     C        0.88190    0.10780    0.66430    1.000
    C254     C        0.85240    0.13610    0.69700    1.000
    C255     C        0.63030    0.17000    0.67720    1.000
    C256     C        0.63400    0.14050    0.62650    1.000
    C257     C        0.34930    0.94470    0.22090    1.000
    C258     C        0.32930    0.99280    0.21970    1.000
    C259     C        0.28810    0.91490    0.17100    1.000
    C260     C        0.26530    0.96220    0.16730    1.000
    C261     C        0.28520    0.00300    0.19320    1.000
    C262     C        0.26160    0.05640    0.19360    1.000
    C263     C        0.24730    0.06530    0.25000    1.000
    C264     C        0.30340    0.09250    0.17250    1.000
    C265     C        0.21340    0.05520    0.15970    1.000
    C266     C        0.32630    0.26960    0.24900    1.000
    C267     C        0.37660    0.32940    0.31860    1.000
    C268     C        0.40700    0.35960    0.34860    1.000
    C269     C        0.33570    0.38190    0.39220    1.000
    C270     C        0.30300    0.35240    0.36390    1.000
    C271     C        0.32280    0.13030    0.33000    1.000
    C272     C        0.37350    0.13400    0.35950    1.000
    C273     C        0.84930    0.55530    0.77910    1.000
    C274     C        0.82930    0.50720    0.78030    1.000
    C275     C        0.78810    0.58510    0.82900    1.000
    C276     C        0.76530    0.53780    0.83270    1.000
    C277     C        0.78520    0.49700    0.80680    1.000
    C278     C        0.76160    0.44360    0.80640    1.000
    C279     C        0.74730    0.43470    0.75000    1.000
    C280     C        0.80340    0.40750    0.82750    1.000
    C281     C        0.71340    0.44480    0.84030    1.000
    C282     C        0.82630    0.23040    0.75100    1.000
    C283     C        0.87660    0.17060    0.68140    1.000
    C284     C        0.90700    0.14040    0.65140    1.000
    C285     C        0.83570    0.11810    0.60780    1.000
    C286     C        0.80300    0.14760    0.63610    1.000
    C287     C        0.82280    0.36970    0.67000    1.000
    C288     C        0.87350    0.36600    0.64050    1.000
    C289     C        0.15070    0.05530    0.72090    1.000
    C290     C        0.17070    0.00720    0.71970    1.000
    C291     C        0.21190    0.08510    0.67100    1.000
    C292     C        0.23470    0.03780    0.66730    1.000
    C293     C        0.21480    0.99700    0.69320    1.000
    C294     C        0.23840    0.94360    0.69360    1.000
    C295     C        0.25270    0.93470    0.75000    1.000
    C296     C        0.19660    0.90750    0.67250    1.000
    C297     C        0.28660    0.94480    0.65970    1.000
    C298     C        0.17370    0.73040    0.74900    1.000
    C299     C        0.12340    0.67060    0.81860    1.000
    C300     C        0.09300    0.64040    0.84860    1.000
    C301     C        0.16430    0.61810    0.89220    1.000
    C302     C        0.19700    0.64760    0.86390    1.000
    C303     C        0.17720    0.86970    0.83000    1.000
    C304     C        0.12650    0.86600    0.85950    1.000
    C305     C        0.65070    0.44470    0.27910    1.000
    C306     C        0.67070    0.49280    0.28030    1.000
    C307     C        0.71190    0.41490    0.32900    1.000
    C308     C        0.73470    0.46220    0.33270    1.000
    C309     C        0.71480    0.50300    0.30680    1.000
    C310     C        0.73840    0.55640    0.30640    1.000
    C311     C        0.75270    0.56530    0.25000    1.000
    C312     C        0.69660    0.59250    0.32750    1.000
    C313     C        0.78660    0.55520    0.34030    1.000
    C314     C        0.67370    0.76960    0.25100    1.000
    C315     C        0.62340    0.82940    0.18140    1.000
    C316     C        0.59300    0.85960    0.15140    1.000
    C317     C        0.66430    0.88190    0.10780    1.000
    C318     C        0.69700    0.85240    0.13610    1.000
    C319     C        0.67720    0.63030    0.17000    1.000
    C320     C        0.62650    0.63400    0.14050    1.000
    C321     C        0.22090    0.34930    0.94470    1.000
    C322     C        0.21970    0.32930    0.99280    1.000
    C323     C        0.17100    0.28810    0.91490    1.000
    C324     C        0.16730    0.26530    0.96220    1.000
    C325     C        0.19320    0.28520    0.00300    1.000
    C326     C        0.19360    0.26160    0.05640    1.000
    C327     C        0.25000    0.24730    0.06530    1.000
    C328     C        0.17250    0.30340    0.09250    1.000
    C329     C        0.15970    0.21340    0.05520    1.000
    C330     C        0.24900    0.32630    0.26960    1.000
    C331     C        0.31860    0.37660    0.32940    1.000
    C332     C        0.34860    0.40700    0.35960    1.000
    C333     C        0.39220    0.33570    0.38190    1.000
    C334     C        0.36390    0.30300    0.35240    1.000
    C335     C        0.33000    0.32280    0.13030    1.000
    C336     C        0.35950    0.37350    0.13400    1.000
    C337     C        0.77910    0.84930    0.55530    1.000
    C338     C        0.78030    0.82930    0.50720    1.000
    C339     C        0.82900    0.78810    0.58510    1.000
    C340     C        0.83270    0.76530    0.53780    1.000
    C341     C        0.80680    0.78520    0.49700    1.000
    C342     C        0.80640    0.76160    0.44360    1.000
    C343     C        0.75000    0.74730    0.43470    1.000
    C344     C        0.82750    0.80340    0.40750    1.000
    C345     C        0.84030    0.71340    0.44480    1.000
    C346     C        0.75100    0.82630    0.23040    1.000
    C347     C        0.68140    0.87660    0.17060    1.000
    C348     C        0.65140    0.90700    0.14040    1.000
    C349     C        0.60780    0.83570    0.11810    1.000
    C350     C        0.63610    0.80300    0.14760    1.000
    C351     C        0.67000    0.82280    0.36970    1.000
    C352     C        0.64050    0.87350    0.36600    1.000
    C353     C        0.72090    0.15070    0.05530    1.000
    C354     C        0.71970    0.17070    0.00720    1.000
    C355     C        0.67100    0.21190    0.08510    1.000
    C356     C        0.66730    0.23470    0.03780    1.000
    C357     C        0.69320    0.21480    0.99700    1.000
    C358     C        0.69360    0.23840    0.94360    1.000
    C359     C        0.75000    0.25270    0.93470    1.000
    C360     C        0.67250    0.19660    0.90750    1.000
    C361     C        0.65970    0.28660    0.94480    1.000
    C362     C        0.74900    0.17370    0.73040    1.000
    C363     C        0.81860    0.12340    0.67060    1.000
    C364     C        0.84860    0.09300    0.64040    1.000
    C365     C        0.89220    0.16430    0.61810    1.000
    C366     C        0.86390    0.19700    0.64760    1.000
    C367     C        0.83000    0.17720    0.86970    1.000
    C368     C        0.85950    0.12650    0.86600    1.000
    C369     C        0.27910    0.65070    0.44470    1.000
    C370     C        0.28030    0.67070    0.49280    1.000
    C371     C        0.32900    0.71190    0.41490    1.000
    C372     C        0.33270    0.73470    0.46220    1.000
    C373     C        0.30680    0.71480    0.50300    1.000
    C374     C        0.30640    0.73840    0.55640    1.000
    C375     C        0.25000    0.75270    0.56530    1.000
    C376     C        0.32750    0.69660    0.59250    1.000
    C377     C        0.34030    0.78660    0.55520    1.000
    C378     C        0.25100    0.67370    0.76960    1.000
    C379     C        0.18140    0.62340    0.82940    1.000
    C380     C        0.15140    0.59300    0.85960    1.000
    C381     C        0.10780    0.66430    0.88190    1.000
    C382     C        0.13610    0.69700    0.85240    1.000
    C383     C        0.17000    0.67720    0.63030    1.000
    C384     C        0.14050    0.62650    0.63400    1.000
    C385     C        0.70920    0.70920    0.70920    1.000
    C386     C        0.67530    0.67530    0.67530    1.000
    C387     C        0.79080    0.29080    0.20920    1.000
    C388     C        0.82470    0.32470    0.17530    1.000
    C389     C        0.29080    0.20920    0.79080    1.000
    C390     C        0.32470    0.17530    0.82470    1.000
    C391     C        0.20920    0.79080    0.29080    1.000
    C392     C        0.17530    0.82470    0.32470    1.000
    C393     C        0.29080    0.29080    0.29080    1.000
    C394     C        0.32470    0.32470    0.32470    1.000
    C395     C        0.20920    0.70920    0.79080    1.000
    C396     C        0.17530    0.67530    0.82470    1.000
    C397     C        0.70920    0.79080    0.20920    1.000
    C398     C        0.67530    0.82470    0.17530    1.000
    C399     C        0.79080    0.20920    0.70920    1.000
    C400     C        0.82470    0.17530    0.67530    1.000
    N1       N        0.09450    0.80190    0.67130    1.000
    N2       N        0.40550    0.19810    0.17130    1.000
    N3       N        0.90550    0.30190    0.82870    1.000
    N4       N        0.59450    0.69810    0.32870    1.000
    N5       N        0.67130    0.09450    0.80190    1.000
    N6       N        0.17130    0.40550    0.19810    1.000
    N7       N        0.82870    0.90550    0.30190    1.000
    N8       N        0.32870    0.59450    0.69810    1.000
    N9       N        0.80190    0.67130    0.09450    1.000
    N10      N        0.19810    0.17130    0.40550    1.000
    N11      N        0.30190    0.82870    0.90550    1.000
    N12      N        0.69810    0.32870    0.59450    1.000
    N13      N        0.90550    0.19810    0.32870    1.000
    N14      N        0.59450    0.80190    0.82870    1.000
    N15      N        0.09450    0.69810    0.17130    1.000
    N16      N        0.40550    0.30190    0.67130    1.000
    N17      N        0.32870    0.90550    0.19810    1.000
    N18      N        0.82870    0.59450    0.80190    1.000
    N19      N        0.17130    0.09450    0.69810    1.000
    N20      N        0.67130    0.40550    0.30190    1.000
    N21      N        0.19810    0.32870    0.90550    1.000
    N22      N        0.80190    0.82870    0.59450    1.000
    N23      N        0.69810    0.17130    0.09450    1.000
    N24      N        0.30190    0.67130    0.40550    1.000
    N25      N        0.61400    0.61400    0.61400    1.000
    N26      N        0.88600    0.38600    0.11400    1.000
    N27      N        0.38600    0.11400    0.88600    1.000
    N28      N        0.11400    0.88600    0.38600    1.000
    N29      N        0.38600    0.38600    0.38600    1.000
    N30      N        0.11400    0.61400    0.88600    1.000
    N31      N        0.61400    0.88600    0.11400    1.000
    N32      N        0.88600    0.11400    0.61400    1.000
    O1       O        0.88611    0.74095    0.77425    1.000
    O2       O        0.85574    0.82812    0.71058    1.000
    O3       O        0.89845    0.84167    0.81346    1.000
    O4       O        0.76193    0.78674    0.69832    1.000
    O5       O        0.85150    0.71420    0.67360    1.000
    O6       O        0.87740    0.64610    0.71710    1.000
    O7       O        0.61389    0.25905    0.27425    1.000
    O8       O        0.64426    0.17188    0.21058    1.000
    O9       O        0.60155    0.15833    0.31346    1.000
    O10      O        0.73807    0.21326    0.19832    1.000
    O11      O        0.64850    0.28580    0.17360    1.000
    O12      O        0.62260    0.35390    0.21710    1.000
    O13      O        0.11389    0.24095    0.72575    1.000
    O14      O        0.14426    0.32812    0.78942    1.000
    O15      O        0.10155    0.34167    0.68654    1.000
    O16      O        0.23807    0.28674    0.80168    1.000
    O17      O        0.14850    0.21420    0.82640    1.000
    O18      O        0.12260    0.14610    0.78290    1.000
    O19      O        0.38611    0.75905    0.22575    1.000
    O20      O        0.35574    0.67188    0.28942    1.000
    O21      O        0.39845    0.65833    0.18654    1.000
    O22      O        0.26193    0.71326    0.30168    1.000
    O23      O        0.35150    0.78580    0.32640    1.000
    O24      O        0.37740    0.85390    0.28290    1.000
    O25      O        0.77425    0.88611    0.74095    1.000
    O26      O        0.71058    0.85574    0.82812    1.000
    O27      O        0.81346    0.89845    0.84167    1.000
    O28      O        0.69832    0.76193    0.78674    1.000
    O29      O        0.67360    0.85150    0.71420    1.000
    O30      O        0.71710    0.87740    0.64610    1.000
    O31      O        0.27425    0.61389    0.25905    1.000
    O32      O        0.21058    0.64426    0.17188    1.000
    O33      O        0.31346    0.60155    0.15833    1.000
    O34      O        0.19832    0.73807    0.21326    1.000
    O35      O        0.17360    0.64850    0.28580    1.000
    O36      O        0.21710    0.62260    0.35390    1.000
    O37      O        0.72575    0.11389    0.24095    1.000
    O38      O        0.78942    0.14426    0.32812    1.000
    O39      O        0.68654    0.10155    0.34167    1.000
    O40      O        0.80168    0.23807    0.28674    1.000
    O41      O        0.82640    0.14850    0.21420    1.000
    O42      O        0.78290    0.12260    0.14610    1.000
    O43      O        0.22575    0.38611    0.75905    1.000
    O44      O        0.28942    0.35574    0.67188    1.000
    O45      O        0.18654    0.39845    0.65833    1.000
    O46      O        0.30168    0.26193    0.71326    1.000
    O47      O        0.32640    0.35150    0.78580    1.000
    O48      O        0.28290    0.37740    0.85390    1.000
    O49      O        0.74095    0.77425    0.88611    1.000
    O50      O        0.82812    0.71058    0.85574    1.000
    O51      O        0.84167    0.81346    0.89845    1.000
    O52      O        0.78674    0.69832    0.76193    1.000
    O53      O        0.71420    0.67360    0.85150    1.000
    O54      O        0.64610    0.71710    0.87740    1.000
    O55      O        0.25905    0.27425    0.61389    1.000
    O56      O        0.17188    0.21058    0.64426    1.000
    O57      O        0.15833    0.31346    0.60155    1.000
    O58      O        0.21326    0.19832    0.73807    1.000
    O59      O        0.28580    0.17360    0.64850    1.000
    O60      O        0.35390    0.21710    0.62260    1.000
    O61      O        0.24095    0.72575    0.11389    1.000
    O62      O        0.32812    0.78942    0.14426    1.000
    O63      O        0.34167    0.68654    0.10155    1.000
    O64      O        0.28674    0.80168    0.23807    1.000
    O65      O        0.21420    0.82640    0.14850    1.000
    O66      O        0.14610    0.78290    0.12260    1.000
    O67      O        0.75905    0.22575    0.38611    1.000
    O68      O        0.67188    0.28942    0.35574    1.000
    O69      O        0.65833    0.18654    0.39845    1.000
    O70      O        0.71326    0.30168    0.26193    1.000
    O71      O        0.78580    0.32640    0.35150    1.000
    O72      O        0.85390    0.28290    0.37740    1.000
    O73      O        0.11389    0.25905    0.22575    1.000
    O74      O        0.14426    0.17188    0.28942    1.000
    O75      O        0.10155    0.15833    0.18654    1.000
    O76      O        0.23807    0.21326    0.30168    1.000
    O77      O        0.14850    0.28580    0.32640    1.000
    O78      O        0.12260    0.35390    0.28290    1.000
    O79      O        0.38611    0.74095    0.72575    1.000
    O80      O        0.35574    0.82812    0.78942    1.000
    O81      O        0.39845    0.84167    0.68654    1.000
    O82      O        0.26193    0.78674    0.80168    1.000
    O83      O        0.35150    0.71420    0.82640    1.000
    O84      O        0.37740    0.64610    0.78290    1.000
    O85      O        0.88611    0.75905    0.27425    1.000
    O86      O        0.85574    0.67188    0.21058    1.000
    O87      O        0.89845    0.65833    0.31346    1.000
    O88      O        0.76193    0.71326    0.19832    1.000
    O89      O        0.85150    0.78580    0.17360    1.000
    O90      O        0.87740    0.85390    0.21710    1.000
    O91      O        0.61389    0.24095    0.77425    1.000
    O92      O        0.64426    0.32812    0.71058    1.000
    O93      O        0.60155    0.34167    0.81346    1.000
    O94      O        0.73807    0.28674    0.69832    1.000
    O95      O        0.64850    0.21420    0.67360    1.000
    O96      O        0.62260    0.14610    0.71710    1.000
    O97      O        0.22575    0.11389    0.25905    1.000
    O98      O        0.28942    0.14426    0.17188    1.000
    O99      O        0.18654    0.10155    0.15833    1.000
    O100     O        0.30168    0.23807    0.21326    1.000
    O101     O        0.32640    0.14850    0.28580    1.000
    O102     O        0.28290    0.12260    0.35390    1.000
    O103     O        0.72575    0.38611    0.74095    1.000
    O104     O        0.78942    0.35574    0.82812    1.000
    O105     O        0.68654    0.39845    0.84167    1.000
    O106     O        0.80168    0.26193    0.78674    1.000
    O107     O        0.82640    0.35150    0.71420    1.000
    O108     O        0.78290    0.37740    0.64610    1.000
    O109     O        0.27425    0.88611    0.75905    1.000
    O110     O        0.21058    0.85574    0.67188    1.000
    O111     O        0.31346    0.89845    0.65833    1.000
    O112     O        0.19832    0.76193    0.71326    1.000
    O113     O        0.17360    0.85150    0.78580    1.000
    O114     O        0.21710    0.87740    0.85390    1.000
    O115     O        0.77425    0.61389    0.24095    1.000
    O116     O        0.71058    0.64426    0.32812    1.000
    O117     O        0.81346    0.60155    0.34167    1.000
    O118     O        0.69832    0.73807    0.28674    1.000
    O119     O        0.67360    0.64850    0.21420    1.000
    O120     O        0.71710    0.62260    0.14610    1.000
    O121     O        0.25905    0.22575    0.11389    1.000
    O122     O        0.17188    0.28942    0.14426    1.000
    O123     O        0.15833    0.18654    0.10155    1.000
    O124     O        0.21326    0.30168    0.23807    1.000
    O125     O        0.28580    0.32640    0.14850    1.000
    O126     O        0.35390    0.28290    0.12260    1.000
    O127     O        0.74095    0.72575    0.38611    1.000
    O128     O        0.82812    0.78942    0.35574    1.000
    O129     O        0.84167    0.68654    0.39845    1.000
    O130     O        0.78674    0.80168    0.26193    1.000
    O131     O        0.71420    0.82640    0.35150    1.000
    O132     O        0.64610    0.78290    0.37740    1.000
    O133     O        0.75905    0.27425    0.88611    1.000
    O134     O        0.67188    0.21058    0.85574    1.000
    O135     O        0.65833    0.31346    0.89845    1.000
    O136     O        0.71326    0.19832    0.76193    1.000
    O137     O        0.78580    0.17360    0.85150    1.000
    O138     O        0.85390    0.21710    0.87740    1.000
    O139     O        0.24095    0.77425    0.61389    1.000
    O140     O        0.32812    0.71058    0.64426    1.000
    O141     O        0.34167    0.81346    0.60155    1.000
    O142     O        0.28674    0.69832    0.73807    1.000
    O143     O        0.21420    0.67360    0.64850    1.000
    O144     O        0.14610    0.71710    0.62260    1.000
    O145     O        0.79996    0.79996    0.79996    1.000
    O146     O        0.70004    0.20004    0.29996    1.000
    O147     O        0.20004    0.29996    0.70004    1.000
    O148     O        0.29996    0.70004    0.20004    1.000
    O149     O        0.20004    0.20004    0.20004    1.000
    O150     O        0.29996    0.79996    0.70004    1.000
    O151     O        0.79996    0.70004    0.29996    1.000
    O152     O        0.70004    0.29996    0.79996    1.000
