# CIF file generated by openbabel 3.1.0, see https://openbabel.org
data_I
_chemical_name_common 'DELGEI_clean5b'
_cell_length_a 16.3816
_cell_length_b 16.3816
_cell_length_c 16.3816
_cell_angle_alpha 90.8925
_cell_angle_beta 90.8925
_cell_angle_gamma 90.8925
_space_group_name_H-M_alt 'P 1'
_space_group_name_Hall 'P 1'
loop_
    _symmetry_equiv_pos_as_xyz
    x,y,z
loop_
    _atom_site_label
    _atom_site_type_symbol
    _atom_site_fract_x
    _atom_site_fract_y
    _atom_site_fract_z
    _atom_site_occupancy
    Cd1      Cd       0.50000    0.50000    0.00000    1.000
    Cd2      Cd       0.00000    0.50000    0.50000    1.000
    Cd3      Cd       0.50000    0.00000    0.50000    1.000
    H1       H        0.42916    0.33090    0.94518    1.000
    H2       H        0.42502    0.18865    0.99173    1.000
    H3       H        0.57785    0.26081    0.19819    1.000
    H4       H        0.57305    0.40291    0.15090    1.000
    H5       H        0.39758    0.99672    0.10990    1.000
    H6       H        0.94518    0.42916    0.33090    1.000
    H7       H        0.99173    0.42502    0.18865    1.000
    H8       H        0.19819    0.57785    0.26081    1.000
    H9       H        0.15090    0.57305    0.40291    1.000
    H10      H        0.10990    0.39758    0.99672    1.000
    H11      H        0.33090    0.94518    0.42916    1.000
    H12      H        0.18865    0.99173    0.42502    1.000
    H13      H        0.26081    0.19819    0.57785    1.000
    H14      H        0.40291    0.15090    0.57305    1.000
    H15      H        0.99672    0.10990    0.39758    1.000
    H16      H        0.67286    0.44197    0.06246    1.000
    H17      H        0.81304    0.43560    0.01542    1.000
    H18      H        0.73739    0.55219    0.79270    1.000
    H19      H        0.59572    0.54727    0.84097    1.000
    H20      H        0.00348    0.39574    0.88868    1.000
    H21      H        0.44197    0.06246    0.67286    1.000
    H22      H        0.43560    0.01542    0.81304    1.000
    H23      H        0.55219    0.79270    0.73739    1.000
    H24      H        0.54727    0.84096    0.59572    1.000
    H25      H        0.39574    0.88868    0.00348    1.000
    H26      H        0.06246    0.67286    0.44197    1.000
    H27      H        0.01542    0.81304    0.43560    1.000
    H28      H        0.79270    0.73739    0.55219    1.000
    H29      H        0.84096    0.59572    0.54727    1.000
    H30      H        0.88868    0.00348    0.39574    1.000
    H31      H        0.57084    0.66910    0.05482    1.000
    H32      H        0.57498    0.81135    0.00827    1.000
    H33      H        0.42215    0.73919    0.80181    1.000
    H34      H        0.42695    0.59709    0.84910    1.000
    H35      H        0.60241    0.00328    0.89010    1.000
    H36      H        0.05482    0.57084    0.66910    1.000
    H37      H        0.00827    0.57498    0.81135    1.000
    H38      H        0.80181    0.42215    0.73919    1.000
    H39      H        0.84910    0.42695    0.59709    1.000
    H40      H        0.89010    0.60242    0.00328    1.000
    H41      H        0.66910    0.05482    0.57084    1.000
    H42      H        0.81135    0.00827    0.57498    1.000
    H43      H        0.73919    0.80181    0.42215    1.000
    H44      H        0.59709    0.84910    0.42695    1.000
    H45      H        0.00328    0.89010    0.60241    1.000
    H46      H        0.32714    0.55803    0.93754    1.000
    H47      H        0.18696    0.56440    0.98458    1.000
    H48      H        0.26261    0.44781    0.20730    1.000
    H49      H        0.40428    0.45273    0.15904    1.000
    H50      H        0.99652    0.60426    0.11132    1.000
    H51      H        0.55803    0.93754    0.32714    1.000
    H52      H        0.56440    0.98458    0.18696    1.000
    H53      H        0.44781    0.20730    0.26261    1.000
    H54      H        0.45273    0.15904    0.40428    1.000
    H55      H        0.60426    0.11132    0.99652    1.000
    H56      H        0.93754    0.32714    0.55803    1.000
    H57      H        0.98458    0.18696    0.56440    1.000
    H58      H        0.20730    0.26261    0.44781    1.000
    H59      H        0.15904    0.40428    0.45273    1.000
    H60      H        0.11132    0.99652    0.60426    1.000
    C1       C        0.46157    0.31510    0.00061    1.000
    C2       C        0.45932    0.23387    0.02752    1.000
    C3       C        0.50109    0.21149    0.09970    1.000
    C4       C        0.54360    0.27418    0.14314    1.000
    C5       C        0.54265    0.35521    0.11501    1.000
    C6       C        0.44261    0.99856    0.06226    1.000
    C7       C        0.00062    0.46157    0.31510    1.000
    C8       C        0.02752    0.45932    0.23387    1.000
    C9       C        0.09970    0.50109    0.21149    1.000
    C10      C        0.14314    0.54360    0.27418    1.000
    C11      C        0.11501    0.54265    0.35521    1.000
    C12      C        0.06227    0.44262    0.99856    1.000
    C13      C        0.31510    0.00061    0.46157    1.000
    C14      C        0.23387    0.02752    0.45932    1.000
    C15      C        0.21149    0.09970    0.50109    1.000
    C16      C        0.27418    0.14314    0.54360    1.000
    C17      C        0.35521    0.11501    0.54265    1.000
    C18      C        0.99856    0.06227    0.44261    1.000
    C19      C        0.68625    0.46361    0.00235    1.000
    C20      C        0.76727    0.46127    0.97545    1.000
    C21      C        0.78895    0.49326    0.89906    1.000
    C22      C        0.72496    0.52481    0.85095    1.000
    C23      C        0.64375    0.52298    0.87902    1.000
    C24      C        0.00163    0.44165    0.93684    1.000
    C25      C        0.46361    0.00235    0.68625    1.000
    C26      C        0.46126    0.97544    0.76727    1.000
    C27      C        0.49326    0.89906    0.78894    1.000
    C28      C        0.52481    0.85095    0.72496    1.000
    C29      C        0.52297    0.87902    0.64375    1.000
    C30      C        0.44165    0.93684    0.00163    1.000
    C31      C        0.00235    0.68625    0.46361    1.000
    C32      C        0.97544    0.76727    0.46126    1.000
    C33      C        0.89905    0.78894    0.49326    1.000
    C34      C        0.85095    0.72496    0.52481    1.000
    C35      C        0.87902    0.64375    0.52298    1.000
    C36      C        0.93684    0.00163    0.44165    1.000
    C37      C        0.53843    0.68490    0.99939    1.000
    C38      C        0.54068    0.76613    0.97248    1.000
    C39      C        0.49891    0.78851    0.90030    1.000
    C40      C        0.45640    0.72582    0.85686    1.000
    C41      C        0.45735    0.64479    0.88499    1.000
    C42      C        0.55738    0.00144    0.93773    1.000
    C43      C        0.99939    0.53843    0.68490    1.000
    C44      C        0.97248    0.54068    0.76613    1.000
    C45      C        0.90030    0.49891    0.78851    1.000
    C46      C        0.85686    0.45640    0.72582    1.000
    C47      C        0.88499    0.45735    0.64479    1.000
    C48      C        0.93774    0.55738    0.00144    1.000
    C49      C        0.68490    0.99939    0.53843    1.000
    C50      C        0.76613    0.97248    0.54068    1.000
    C51      C        0.78851    0.90030    0.49891    1.000
    C52      C        0.72582    0.85686    0.45640    1.000
    C53      C        0.64479    0.88499    0.45735    1.000
    C54      C        0.00144    0.93774    0.55738    1.000
    C55      C        0.31375    0.53639    0.99765    1.000
    C56      C        0.23273    0.53873    0.02456    1.000
    C57      C        0.21106    0.50674    0.10095    1.000
    C58      C        0.27504    0.47519    0.14905    1.000
    C59      C        0.35625    0.47702    0.12098    1.000
    C60      C        0.99837    0.55835    0.06316    1.000
    C61      C        0.53638    0.99765    0.31375    1.000
    C62      C        0.53873    0.02455    0.23273    1.000
    C63      C        0.50674    0.10094    0.21106    1.000
    C64      C        0.47519    0.14905    0.27504    1.000
    C65      C        0.47702    0.12098    0.35625    1.000
    C66      C        0.55835    0.06316    0.99837    1.000
    C67      C        0.99765    0.31375    0.53639    1.000
    C68      C        0.02455    0.23273    0.53873    1.000
    C69      C        0.10094    0.21106    0.50674    1.000
    C70      C        0.14905    0.27504    0.47519    1.000
    C71      C        0.12098    0.35625    0.47702    1.000
    C72      C        0.06316    0.99837    0.55835    1.000
    C73      C        0.50110    0.06245    0.06154    1.000
    C74      C        0.06154    0.50110    0.06245    1.000
    C75      C        0.06245    0.06154    0.50110    1.000
    C76      C        0.93846    0.49890    0.93755    1.000
    C77      C        0.49890    0.93755    0.93846    1.000
    C78      C        0.93755    0.93846    0.49890    1.000
    N1       N        0.50351    0.37440    0.04369    1.000
    N2       N        0.04369    0.50351    0.37440    1.000
    N3       N        0.37440    0.04369    0.50351    1.000
    N4       N        0.62534    0.49357    0.95434    1.000
    N5       N        0.49357    0.95433    0.62534    1.000
    N6       N        0.95433    0.62534    0.49357    1.000
    N7       N        0.49649    0.62560    0.95631    1.000
    N8       N        0.95631    0.49649    0.62560    1.000
    N9       N        0.62560    0.95631    0.49649    1.000
    N10      N        0.37466    0.50643    0.04567    1.000
    N11      N        0.50643    0.04566    0.37466    1.000
    N12      N        0.04566    0.37466    0.50643    1.000
    N13      N        0.50292    0.12585    0.12510    1.000
    N14      N        0.12510    0.50292    0.12586    1.000
    N15      N        0.12585    0.12510    0.50292    1.000
    N16      N        0.87490    0.49708    0.87415    1.000
    N17      N        0.49708    0.87415    0.87490    1.000
    N18      N        0.87415    0.87490    0.49708    1.000
