# CIF file generated by openbabel 3.1.0, see https://openbabel.org
data_I
_chemical_name_common 'image0'
_cell_length_a 10.9488
_cell_length_b 11.7312
_cell_length_c 21.6864
_cell_angle_alpha 90
_cell_angle_beta 90
_cell_angle_gamma 90
_space_group_name_H-M_alt 'P 1'
_space_group_name_Hall 'P 1'
loop_
    _symmetry_equiv_pos_as_xyz
    x,y,z
loop_
    _atom_site_label
    _atom_site_type_symbol
    _atom_site_fract_x
    _atom_site_fract_y
    _atom_site_fract_z
    _atom_site_occupancy
    Zn1      Zn       0.86451    0.89341    0.88403    1.000
    Zn2      Zn       0.65465    0.19154    0.84150    1.000
    N1       N        0.81700    0.88950    0.78640    1.000
    O1       O        0.77990    0.09830    0.88221    1.000
    N2       N        0.00610    0.89470    0.37660    1.000
    O2       O        0.81580    0.87860    0.97876    1.000
    N3       N        0.51540    0.71300    0.11230    1.000
    N4       N        0.69160    0.83100    0.88420    1.000
    C1       C        0.89270    0.11530    0.88790    1.000
    C2       C        0.70110    0.78490    0.15690    1.000
    C3       C        0.74190    0.81590    0.09830    1.000
    H1       H        0.82000    0.85000    0.09360    1.000
    N5       N        0.63610    0.80050    0.93890    1.000
    C4       C        0.71710    0.88110    0.66860    1.000
    H2       H        0.68340    0.87510    0.62830    1.000
    C5       C        0.67030    0.79760    0.04760    1.000
    C6       C        0.70020    0.85450    0.77690    1.000
    C7       C        0.19520    0.98200    0.34460    1.000
    H3       H        0.24500    0.00960    0.31200    1.000
    C8       C        0.55850    0.74540    0.05600    1.000
    H4       H        0.50910    0.73130    0.02080    1.000
    N6       N        0.88100    0.85430    0.20600    1.000
    O3       O        0.96650    0.03400    0.89088    1.000
    N7       N        0.93160    0.87000    0.26370    1.000
    C9       C        0.64910    0.85120    0.71920    1.000
    H5       H        0.56650    0.82820    0.71430    1.000
    C10      C        0.71190    0.82820    0.98380    1.000
    C11      C        0.63470    0.82050    0.83240    1.000
    H6       H        0.55360    0.79200    0.83050    1.000
    C12      C        0.58820    0.73270    0.16090    1.000
    H7       H        0.56050    0.70940    0.20050    1.000
    C13      C        0.04500    0.90400    0.43550    1.000
    H8       H        0.99250    0.87820    0.46750    1.000
    C14      C        0.87930    0.92260    0.73760    1.000
    H9       H        0.96000    0.95030    0.74370    1.000
    C15      C        0.03410    0.92490    0.27060    1.000
    H10      H        0.07640    0.95650    0.23640    1.000
    C16      C        0.08090    0.93550    0.33360    1.000
    C17      C        0.83280    0.91930    0.67660    1.000
    H11      H        0.88120    0.94300    0.64260    1.000
    C18      C        0.15780    0.94950    0.45190    1.000
    H12      H        0.18150    0.95470    0.49390    1.000
    C19      C        0.23350    0.98640    0.40600    1.000
    H13      H        0.31230    0.01500    0.41580    1.000
    C20      C        0.94150    0.23580    0.89380    1.000
    H14      H        0.88200    0.28300    0.91590    1.000
    H15      H        0.95550    0.26770    0.85270    1.000
    H16      H        0.01870    0.23460    0.91670    1.000
    O4       O        0.72540    0.77280    0.26501    1.000
    C21      C        0.77290    0.80280    0.21440    1.000
    Zn3      Zn       0.63549    0.10659    0.38403    1.000
    Zn4      Zn       0.84535    0.80846    0.34150    1.000
    N8       N        0.68300    0.11050    0.28640    1.000
    O5       O        0.72010    0.90170    0.38221    1.000
    N9       N        0.49390    0.10530    0.87660    1.000
    O6       O        0.68420    0.12140    0.47876    1.000
    N10      N        0.98460    0.28700    0.61230    1.000
    N11      N        0.80840    0.16900    0.38420    1.000
    C22      C        0.60730    0.88470    0.38790    1.000
    C23      C        0.79890    0.21510    0.65690    1.000
    C24      C        0.75810    0.18410    0.59830    1.000
    H17      H        0.68000    0.15000    0.59360    1.000
    N12      N        0.86390    0.19950    0.43890    1.000
    C25      C        0.78290    0.11890    0.16860    1.000
    H18      H        0.81660    0.12490    0.12830    1.000
    C26      C        0.82970    0.20240    0.54760    1.000
    C27      C        0.79980    0.14550    0.27690    1.000
    C28      C        0.30480    0.01800    0.84460    1.000
    H19      H        0.25500    0.99040    0.81200    1.000
    C29      C        0.94150    0.25460    0.55600    1.000
    H20      H        0.99090    0.26870    0.52080    1.000
    N13      N        0.61900    0.14570    0.70600    1.000
    O7       O        0.53350    0.96600    0.39088    1.000
    N14      N        0.56840    0.13000    0.76370    1.000
    C30      C        0.85090    0.14880    0.21920    1.000
    H21      H        0.93350    0.17180    0.21430    1.000
    C31      C        0.78810    0.17180    0.48380    1.000
    C32      C        0.86530    0.17950    0.33240    1.000
    H22      H        0.94640    0.20800    0.33050    1.000
    C33      C        0.91180    0.26730    0.66090    1.000
    H23      H        0.93950    0.29060    0.70050    1.000
    C34      C        0.45500    0.09600    0.93550    1.000
    H24      H        0.50750    0.12180    0.96750    1.000
    C35      C        0.62070    0.07740    0.23760    1.000
    H25      H        0.54000    0.04970    0.24370    1.000
    C36      C        0.46590    0.07510    0.77060    1.000
    H26      H        0.42360    0.04350    0.73640    1.000
    C37      C        0.41910    0.06450    0.83360    1.000
    C38      C        0.66720    0.08070    0.17660    1.000
    H27      H        0.61880    0.05700    0.14260    1.000
    C39      C        0.34220    0.05050    0.95190    1.000
    H28      H        0.31850    0.04530    0.99390    1.000
    C40      C        0.26650    0.01360    0.90600    1.000
    H29      H        0.18770    0.98500    0.91580    1.000
    C41      C        0.55850    0.76420    0.39380    1.000
    H30      H        0.61800    0.71700    0.41590    1.000
    H31      H        0.54450    0.73230    0.35270    1.000
    H32      H        0.48130    0.76540    0.41670    1.000
    O8       O        0.77460    0.22720    0.76501    1.000
    C42      C        0.72710    0.19720    0.71440    1.000
    Zn5      Zn       0.13549    0.39341    0.61597    1.000
    Zn6      Zn       0.34535    0.69154    0.65850    1.000
    N15      N        0.18300    0.38950    0.71360    1.000
    O9       O        0.22010    0.59830    0.61779    1.000
    N16      N        0.99390    0.39470    0.12340    1.000
    O10      O        0.18420    0.37860    0.52124    1.000
    N17      N        0.48460    0.21300    0.38770    1.000
    N18      N        0.30840    0.33100    0.61580    1.000
    C43      C        0.10730    0.61530    0.61210    1.000
    C44      C        0.29890    0.28490    0.34310    1.000
    C45      C        0.25810    0.31590    0.40170    1.000
    H33      H        0.18000    0.35000    0.40640    1.000
    N19      N        0.36390    0.30050    0.56110    1.000
    C46      C        0.28290    0.38110    0.83140    1.000
    H34      H        0.31660    0.37510    0.87170    1.000
    C47      C        0.32970    0.29760    0.45240    1.000
    C48      C        0.29980    0.35450    0.72310    1.000
    C49      C        0.80480    0.48200    0.15540    1.000
    H35      H        0.75500    0.50960    0.18800    1.000
    C50      C        0.44150    0.24540    0.44400    1.000
    H36      H        0.49090    0.23130    0.47920    1.000
    N20      N        0.11900    0.35430    0.29400    1.000
    O11      O        0.03350    0.53400    0.60912    1.000
    N21      N        0.06840    0.37000    0.23630    1.000
    C51      C        0.35090    0.35120    0.78080    1.000
    H37      H        0.43350    0.32820    0.78570    1.000
    C52      C        0.28810    0.32820    0.51620    1.000
    C53      C        0.36530    0.32050    0.66760    1.000
    H38      H        0.44640    0.29200    0.66950    1.000
    C54      C        0.41180    0.23270    0.33910    1.000
    H39      H        0.43950    0.20940    0.29950    1.000
    C55      C        0.95500    0.40400    0.06450    1.000
    H40      H        0.00750    0.37820    0.03250    1.000
    C56      C        0.12070    0.42260    0.76240    1.000
    H41      H        0.04000    0.45030    0.75630    1.000
    C57      C        0.96590    0.42490    0.22940    1.000
    H42      H        0.92360    0.45650    0.26360    1.000
    C58      C        0.91910    0.43550    0.16640    1.000
    C59      C        0.16720    0.41930    0.82340    1.000
    H43      H        0.11880    0.44300    0.85740    1.000
    C60      C        0.84220    0.44950    0.04810    1.000
    H44      H        0.81850    0.45470    0.00610    1.000
    C61      C        0.76650    0.48640    0.09400    1.000
    H45      H        0.68770    0.51500    0.08420    1.000
    C62      C        0.05850    0.73580    0.60620    1.000
    H46      H        0.11800    0.78300    0.58410    1.000
    H47      H        0.04450    0.76770    0.64730    1.000
    H48      H        0.98130    0.73460    0.58330    1.000
    O12      O        0.27460    0.27280    0.23499    1.000
    C63      C        0.22710    0.30280    0.28560    1.000
    Zn7      Zn       0.36451    0.60659    0.11597    1.000
    Zn8      Zn       0.15465    0.30846    0.15850    1.000
    N22      N        0.31700    0.61050    0.21360    1.000
    O13      O        0.27990    0.40170    0.11779    1.000
    N23      N        0.50610    0.60530    0.62340    1.000
    O14      O        0.31580    0.62140    0.02124    1.000
    N24      N        0.01540    0.78700    0.88770    1.000
    N25      N        0.19160    0.66900    0.11580    1.000
    C64      C        0.39270    0.38470    0.11210    1.000
    C65      C        0.20110    0.71510    0.84310    1.000
    C66      C        0.24190    0.68410    0.90170    1.000
    H49      H        0.32000    0.65000    0.90640    1.000
    N26      N        0.13610    0.69950    0.06110    1.000
    C67      C        0.21710    0.61890    0.33140    1.000
    H50      H        0.18340    0.62490    0.37170    1.000
    C68      C        0.17030    0.70240    0.95240    1.000
    C69      C        0.20020    0.64550    0.22310    1.000
    C70      C        0.69520    0.51800    0.65540    1.000
    H51      H        0.74500    0.49040    0.68800    1.000
    C71      C        0.05850    0.75460    0.94400    1.000
    H52      H        0.00910    0.76870    0.97920    1.000
    N27      N        0.38100    0.64570    0.79400    1.000
    O15      O        0.46650    0.46600    0.10912    1.000
    N28      N        0.43160    0.63000    0.73630    1.000
    C72      C        0.14910    0.64880    0.28080    1.000
    H53      H        0.06650    0.67180    0.28570    1.000
    C73      C        0.21190    0.67180    0.01620    1.000
    C74      C        0.13470    0.67950    0.16760    1.000
    H54      H        0.05360    0.70800    0.16950    1.000
    C75      C        0.08820    0.76730    0.83910    1.000
    H55      H        0.06050    0.79060    0.79950    1.000
    C76      C        0.54500    0.59600    0.56450    1.000
    H56      H        0.49250    0.62180    0.53250    1.000
    C77      C        0.37930    0.57740    0.26240    1.000
    H57      H        0.46000    0.54970    0.25630    1.000
    C78      C        0.53410    0.57510    0.72940    1.000
    H58      H        0.57640    0.54350    0.76360    1.000
    C79      C        0.58090    0.56450    0.66640    1.000
    C80      C        0.33280    0.58070    0.32340    1.000
    H59      H        0.38120    0.55700    0.35740    1.000
    C81      C        0.65780    0.55050    0.54810    1.000
    H60      H        0.68150    0.54530    0.50610    1.000
    C82      C        0.73350    0.51360    0.59400    1.000
    H61      H        0.81230    0.48500    0.58420    1.000
    C83      C        0.44150    0.26420    0.10620    1.000
    H62      H        0.38200    0.21700    0.08410    1.000
    H63      H        0.45550    0.23230    0.14730    1.000
    H64      H        0.51870    0.26540    0.08330    1.000
    O16      O        0.22540    0.72720    0.73499    1.000
    C84      C        0.27290    0.69720    0.78560    1.000
