# CIF file generated by openbabel 3.1.0, see https://openbabel.org
data_I
_chemical_name_common 'image0'
_cell_length_a 15.4168
_cell_length_b 15.4168
_cell_length_c 27.623
_cell_angle_alpha 90
_cell_angle_beta 90
_cell_angle_gamma 90
_space_group_name_H-M_alt 'P 1'
_space_group_name_Hall 'P 1'
loop_
    _symmetry_equiv_pos_as_xyz
    x,y,z
loop_
    _atom_site_label
    _atom_site_type_symbol
    _atom_site_fract_x
    _atom_site_fract_y
    _atom_site_fract_z
    _atom_site_occupancy
    O1       O        0.10524    0.07781    0.21099    1.000
    C1       C        0.17159    0.26354    0.22430    1.000
    C2       C        0.08825    0.27840    0.19742    1.000
    H1       H        0.08980    0.33540    0.18180    1.000
    H2       H        0.03950    0.27610    0.22020    1.000
    H3       H        0.08100    0.23330    0.17270    1.000
    C3       C        0.93980    0.05720    0.05110    1.000
    C4       C        0.98790    0.07940    0.10510    1.000
    C5       C        0.04030    0.06250    0.10350    1.000
    C6       C        0.92220    0.00340    0.94720    1.000
    O2       O        0.60524    0.57781    0.71099    1.000
    C7       C        0.67159    0.76354    0.72430    1.000
    C8       C        0.58825    0.77840    0.69742    1.000
    H4       H        0.58980    0.83540    0.68180    1.000
    H5       H        0.53950    0.77610    0.72020    1.000
    H6       H        0.58100    0.73330    0.67270    1.000
    C9       C        0.43980    0.55720    0.55110    1.000
    C10      C        0.48790    0.57940    0.60510    1.000
    C11      C        0.54030    0.56250    0.60350    1.000
    C12      C        0.42220    0.50340    0.44720    1.000
    O3       O        0.89476    0.92219    0.21099    1.000
    C13      C        0.82841    0.73646    0.22430    1.000
    C14      C        0.91175    0.72160    0.19742    1.000
    H7       H        0.91020    0.66460    0.18180    1.000
    H8       H        0.96050    0.72390    0.22020    1.000
    H9       H        0.91900    0.76670    0.17270    1.000
    C15      C        0.06020    0.94280    0.05110    1.000
    C16      C        0.01210    0.92060    0.10510    1.000
    C17      C        0.95970    0.93750    0.10350    1.000
    C18      C        0.07780    0.99660    0.94720    1.000
    O4       O        0.39476    0.42219    0.71099    1.000
    C19      C        0.32841    0.23646    0.72430    1.000
    C20      C        0.41175    0.22160    0.69742    1.000
    H10      H        0.41020    0.16460    0.68180    1.000
    H11      H        0.46050    0.22390    0.72020    1.000
    H12      H        0.41900    0.26670    0.67270    1.000
    C21      C        0.56020    0.44280    0.55110    1.000
    C22      C        0.51210    0.42060    0.60510    1.000
    C23      C        0.45970    0.43750    0.60350    1.000
    C24      C        0.57780    0.49660    0.44720    1.000
    O5       O        0.92219    0.10524    0.21099    1.000
    C25      C        0.73646    0.17159    0.22430    1.000
    C26      C        0.72160    0.08825    0.19742    1.000
    H13      H        0.66460    0.08980    0.18180    1.000
    H14      H        0.72390    0.03950    0.22020    1.000
    H15      H        0.76670    0.08100    0.17270    1.000
    C27      C        0.94280    0.93980    0.05110    1.000
    C28      C        0.92060    0.98790    0.10510    1.000
    C29      C        0.93750    0.04030    0.10350    1.000
    C30      C        0.99660    0.92220    0.94720    1.000
    O6       O        0.42219    0.60524    0.71099    1.000
    C31      C        0.23646    0.67159    0.72430    1.000
    C32      C        0.22160    0.58825    0.69742    1.000
    H16      H        0.16460    0.58980    0.68180    1.000
    H17      H        0.22390    0.53950    0.72020    1.000
    H18      H        0.26670    0.58100    0.67270    1.000
    C33      C        0.44280    0.43980    0.55110    1.000
    C34      C        0.42060    0.48790    0.60510    1.000
    C35      C        0.43750    0.54030    0.60350    1.000
    C36      C        0.49660    0.42220    0.44720    1.000
    O7       O        0.07781    0.89476    0.21099    1.000
    C37      C        0.26354    0.82841    0.22430    1.000
    C38      C        0.27840    0.91175    0.19742    1.000
    H19      H        0.33540    0.91020    0.18180    1.000
    H20      H        0.27610    0.96050    0.22020    1.000
    H21      H        0.23330    0.91900    0.17270    1.000
    C39      C        0.05720    0.06020    0.05110    1.000
    C40      C        0.07940    0.01210    0.10510    1.000
    C41      C        0.06250    0.95970    0.10350    1.000
    C42      C        0.00340    0.07780    0.94720    1.000
    O8       O        0.57781    0.39476    0.71099    1.000
    C43      C        0.76354    0.32841    0.72430    1.000
    C44      C        0.77840    0.41175    0.69742    1.000
    H22      H        0.83540    0.41020    0.68180    1.000
    H23      H        0.77610    0.46050    0.72020    1.000
    H24      H        0.73330    0.41900    0.67270    1.000
    C45      C        0.55720    0.56020    0.55110    1.000
    C46      C        0.57940    0.51210    0.60510    1.000
    C47      C        0.56250    0.45970    0.60350    1.000
    C48      C        0.50340    0.57780    0.44720    1.000
    O9       O        0.89476    0.07781    0.28901    1.000
    C49      C        0.82841    0.26354    0.27570    1.000
    C50      C        0.91175    0.27840    0.30258    1.000
    H25      H        0.91020    0.33540    0.31820    1.000
    H26      H        0.96050    0.27610    0.27980    1.000
    H27      H        0.91900    0.23330    0.32730    1.000
    C51      C        0.06020    0.05720    0.44890    1.000
    C52      C        0.01210    0.07940    0.39490    1.000
    C53      C        0.95970    0.06250    0.39650    1.000
    C54      C        0.07780    0.00340    0.55280    1.000
    O10      O        0.39476    0.57781    0.78901    1.000
    C55      C        0.32841    0.76354    0.77570    1.000
    C56      C        0.41175    0.77840    0.80258    1.000
    H28      H        0.41020    0.83540    0.81820    1.000
    H29      H        0.46050    0.77610    0.77980    1.000
    H30      H        0.41900    0.73330    0.82730    1.000
    C57      C        0.56020    0.55720    0.94890    1.000
    C58      C        0.51210    0.57940    0.89490    1.000
    C59      C        0.45970    0.56250    0.89650    1.000
    C60      C        0.57780    0.50340    0.05280    1.000
    O11      O        0.10524    0.92219    0.28901    1.000
    C61      C        0.17159    0.73646    0.27570    1.000
    C62      C        0.08825    0.72160    0.30258    1.000
    H31      H        0.08980    0.66460    0.31820    1.000
    H32      H        0.03950    0.72390    0.27980    1.000
    H33      H        0.08100    0.76670    0.32730    1.000
    C63      C        0.93980    0.94280    0.44890    1.000
    C64      C        0.98790    0.92060    0.39490    1.000
    C65      C        0.04030    0.93750    0.39650    1.000
    C66      C        0.92220    0.99660    0.55280    1.000
    O12      O        0.60524    0.42219    0.78901    1.000
    C67      C        0.67159    0.23646    0.77570    1.000
    C68      C        0.58825    0.22160    0.80258    1.000
    H34      H        0.58980    0.16460    0.81820    1.000
    H35      H        0.53950    0.22390    0.77980    1.000
    H36      H        0.58100    0.26670    0.82730    1.000
    C69      C        0.43980    0.44280    0.94890    1.000
    C70      C        0.48790    0.42060    0.89490    1.000
    C71      C        0.54030    0.43750    0.89650    1.000
    C72      C        0.42220    0.49660    0.05280    1.000
    O13      O        0.07781    0.10524    0.28901    1.000
    C73      C        0.26354    0.17159    0.27570    1.000
    C74      C        0.27840    0.08825    0.30258    1.000
    H37      H        0.33540    0.08980    0.31820    1.000
    H38      H        0.27610    0.03950    0.27980    1.000
    H39      H        0.23330    0.08100    0.32730    1.000
    C75      C        0.05720    0.93980    0.44890    1.000
    C76      C        0.07940    0.98790    0.39490    1.000
    C77      C        0.06250    0.04030    0.39650    1.000
    C78      C        0.00340    0.92220    0.55280    1.000
    O14      O        0.57781    0.60524    0.78901    1.000
    C79      C        0.76354    0.67159    0.77570    1.000
    C80      C        0.77840    0.58825    0.80258    1.000
    H40      H        0.83540    0.58980    0.81820    1.000
    H41      H        0.77610    0.53950    0.77980    1.000
    H42      H        0.73330    0.58100    0.82730    1.000
    C81      C        0.55720    0.43980    0.94890    1.000
    C82      C        0.57940    0.48790    0.89490    1.000
    C83      C        0.56250    0.54030    0.89650    1.000
    C84      C        0.50340    0.42220    0.05280    1.000
    O15      O        0.92219    0.89476    0.28901    1.000
    C85      C        0.73646    0.82841    0.27570    1.000
    C86      C        0.72160    0.91175    0.30258    1.000
    H43      H        0.66460    0.91020    0.31820    1.000
    H44      H        0.72390    0.96050    0.27980    1.000
    H45      H        0.76670    0.91900    0.32730    1.000
    C87      C        0.94280    0.06020    0.44890    1.000
    C88      C        0.92060    0.01210    0.39490    1.000
    C89      C        0.93750    0.95970    0.39650    1.000
    C90      C        0.99660    0.07780    0.55280    1.000
    O16      O        0.42219    0.39476    0.78901    1.000
    C91      C        0.23646    0.32841    0.77570    1.000
    C92      C        0.22160    0.41175    0.80258    1.000
    H46      H        0.16460    0.41020    0.81820    1.000
    H47      H        0.22390    0.46050    0.77980    1.000
    H48      H        0.26670    0.41900    0.82730    1.000
    C93      C        0.44280    0.56020    0.94890    1.000
    C94      C        0.42060    0.51210    0.89490    1.000
    C95      C        0.43750    0.45970    0.89650    1.000
    C96      C        0.49660    0.57780    0.05280    1.000
    O17      O        0.89476    0.92219    0.78901    1.000
    C97      C        0.82841    0.73646    0.77570    1.000
    C98      C        0.91175    0.72160    0.80258    1.000
    H49      H        0.91020    0.66460    0.81820    1.000
    H50      H        0.96050    0.72390    0.77980    1.000
    H51      H        0.91900    0.76670    0.82730    1.000
    C99      C        0.06020    0.94280    0.94890    1.000
    C100     C        0.01210    0.92060    0.89490    1.000
    C101     C        0.95970    0.93750    0.89650    1.000
    C102     C        0.07780    0.99660    0.05280    1.000
    O18      O        0.39476    0.42219    0.28901    1.000
    C103     C        0.32841    0.23646    0.27570    1.000
    C104     C        0.41175    0.22160    0.30258    1.000
    H52      H        0.41020    0.16460    0.31820    1.000
    H53      H        0.46050    0.22390    0.27980    1.000
    H54      H        0.41900    0.26670    0.32730    1.000
    C105     C        0.56020    0.44280    0.44890    1.000
    C106     C        0.51210    0.42060    0.39490    1.000
    C107     C        0.45970    0.43750    0.39650    1.000
    C108     C        0.57780    0.49660    0.55280    1.000
    O19      O        0.10524    0.07781    0.78901    1.000
    C109     C        0.17159    0.26354    0.77570    1.000
    C110     C        0.08825    0.27840    0.80258    1.000
    H55      H        0.08980    0.33540    0.81820    1.000
    H56      H        0.03950    0.27610    0.77980    1.000
    H57      H        0.08100    0.23330    0.82730    1.000
    C111     C        0.93980    0.05720    0.94890    1.000
    C112     C        0.98790    0.07940    0.89490    1.000
    C113     C        0.04030    0.06250    0.89650    1.000
    C114     C        0.92220    0.00340    0.05280    1.000
    O20      O        0.60524    0.57781    0.28901    1.000
    C115     C        0.67159    0.76354    0.27570    1.000
    C116     C        0.58825    0.77840    0.30258    1.000
    H58      H        0.58980    0.83540    0.31820    1.000
    H59      H        0.53950    0.77610    0.27980    1.000
    H60      H        0.58100    0.73330    0.32730    1.000
    C117     C        0.43980    0.55720    0.44890    1.000
    C118     C        0.48790    0.57940    0.39490    1.000
    C119     C        0.54030    0.56250    0.39650    1.000
    C120     C        0.42220    0.50340    0.55280    1.000
    O21      O        0.07781    0.89476    0.78901    1.000
    C121     C        0.26354    0.82841    0.77570    1.000
    C122     C        0.27840    0.91175    0.80258    1.000
    H61      H        0.33540    0.91020    0.81820    1.000
    H62      H        0.27610    0.96050    0.77980    1.000
    H63      H        0.23330    0.91900    0.82730    1.000
    C123     C        0.05720    0.06020    0.94890    1.000
    C124     C        0.07940    0.01210    0.89490    1.000
    C125     C        0.06250    0.95970    0.89650    1.000
    C126     C        0.00340    0.07780    0.05280    1.000
    O22      O        0.57781    0.39476    0.28901    1.000
    C127     C        0.76354    0.32841    0.27570    1.000
    C128     C        0.77840    0.41175    0.30258    1.000
    H64      H        0.83540    0.41020    0.31820    1.000
    H65      H        0.77610    0.46050    0.27980    1.000
    H66      H        0.73330    0.41900    0.32730    1.000
    C129     C        0.55720    0.56020    0.44890    1.000
    C130     C        0.57940    0.51210    0.39490    1.000
    C131     C        0.56250    0.45970    0.39650    1.000
    C132     C        0.50340    0.57780    0.55280    1.000
    O23      O        0.92219    0.10524    0.78901    1.000
    C133     C        0.73646    0.17159    0.77570    1.000
    C134     C        0.72160    0.08825    0.80258    1.000
    H67      H        0.66460    0.08980    0.81820    1.000
    H68      H        0.72390    0.03950    0.77980    1.000
    H69      H        0.76670    0.08100    0.82730    1.000
    C135     C        0.94280    0.93980    0.94890    1.000
    C136     C        0.92060    0.98790    0.89490    1.000
    C137     C        0.93750    0.04030    0.89650    1.000
    C138     C        0.99660    0.92220    0.05280    1.000
    O24      O        0.42219    0.60524    0.28901    1.000
    C139     C        0.23646    0.67159    0.27570    1.000
    C140     C        0.22160    0.58825    0.30258    1.000
    H70      H        0.16460    0.58980    0.31820    1.000
    H71      H        0.22390    0.53950    0.27980    1.000
    H72      H        0.26670    0.58100    0.32730    1.000
    C141     C        0.44280    0.43980    0.44890    1.000
    C142     C        0.42060    0.48790    0.39490    1.000
    C143     C        0.43750    0.54030    0.39650    1.000
    C144     C        0.49660    0.42220    0.55280    1.000
    O25      O        0.10524    0.92219    0.71099    1.000
    C145     C        0.17159    0.73646    0.72430    1.000
    C146     C        0.08825    0.72160    0.69742    1.000
    H73      H        0.08980    0.66460    0.68180    1.000
    H74      H        0.03950    0.72390    0.72020    1.000
    H75      H        0.08100    0.76670    0.67270    1.000
    C147     C        0.93980    0.94280    0.55110    1.000
    C148     C        0.98790    0.92060    0.60510    1.000
    C149     C        0.04030    0.93750    0.60350    1.000
    C150     C        0.92220    0.99660    0.44720    1.000
    O26      O        0.60524    0.42219    0.21099    1.000
    C151     C        0.67159    0.23646    0.22430    1.000
    C152     C        0.58825    0.22160    0.19742    1.000
    H76      H        0.58980    0.16460    0.18180    1.000
    H77      H        0.53950    0.22390    0.22020    1.000
    H78      H        0.58100    0.26670    0.17270    1.000
    C153     C        0.43980    0.44280    0.05110    1.000
    C154     C        0.48790    0.42060    0.10510    1.000
    C155     C        0.54030    0.43750    0.10350    1.000
    C156     C        0.42220    0.49660    0.94720    1.000
    O27      O        0.89476    0.07781    0.71099    1.000
    C157     C        0.82841    0.26354    0.72430    1.000
    C158     C        0.91175    0.27840    0.69742    1.000
    H79      H        0.91020    0.33540    0.68180    1.000
    H80      H        0.96050    0.27610    0.72020    1.000
    H81      H        0.91900    0.23330    0.67270    1.000
    C159     C        0.06020    0.05720    0.55110    1.000
    C160     C        0.01210    0.07940    0.60510    1.000
    C161     C        0.95970    0.06250    0.60350    1.000
    C162     C        0.07780    0.00340    0.44720    1.000
    O28      O        0.39476    0.57781    0.21099    1.000
    C163     C        0.32841    0.76354    0.22430    1.000
    C164     C        0.41175    0.77840    0.19742    1.000
    H82      H        0.41020    0.83540    0.18180    1.000
    H83      H        0.46050    0.77610    0.22020    1.000
    H84      H        0.41900    0.73330    0.17270    1.000
    C165     C        0.56020    0.55720    0.05110    1.000
    C166     C        0.51210    0.57940    0.10510    1.000
    C167     C        0.45970    0.56250    0.10350    1.000
    C168     C        0.57780    0.50340    0.94720    1.000
    O29      O        0.92219    0.89476    0.71099    1.000
    C169     C        0.73646    0.82841    0.72430    1.000
    C170     C        0.72160    0.91175    0.69742    1.000
    H85      H        0.66460    0.91020    0.68180    1.000
    H86      H        0.72390    0.96050    0.72020    1.000
    H87      H        0.76670    0.91900    0.67270    1.000
    C171     C        0.94280    0.06020    0.55110    1.000
    C172     C        0.92060    0.01210    0.60510    1.000
    C173     C        0.93750    0.95970    0.60350    1.000
    C174     C        0.99660    0.07780    0.44720    1.000
    O30      O        0.42219    0.39476    0.21099    1.000
    C175     C        0.23646    0.32841    0.22430    1.000
    C176     C        0.22160    0.41175    0.19742    1.000
    H88      H        0.16460    0.41020    0.18180    1.000
    H89      H        0.22390    0.46050    0.22020    1.000
    H90      H        0.26670    0.41900    0.17270    1.000
    C177     C        0.44280    0.56020    0.05110    1.000
    C178     C        0.42060    0.51210    0.10510    1.000
    C179     C        0.43750    0.45970    0.10350    1.000
    C180     C        0.49660    0.57780    0.94720    1.000
    O31      O        0.07781    0.10524    0.71099    1.000
    C181     C        0.26354    0.17159    0.72430    1.000
    C182     C        0.27840    0.08825    0.69742    1.000
    H91      H        0.33540    0.08980    0.68180    1.000
    H92      H        0.27610    0.03950    0.72020    1.000
    H93      H        0.23330    0.08100    0.67270    1.000
    C183     C        0.05720    0.93980    0.55110    1.000
    C184     C        0.07940    0.98790    0.60510    1.000
    C185     C        0.06250    0.04030    0.60350    1.000
    C186     C        0.00340    0.92220    0.44720    1.000
    O32      O        0.57781    0.60524    0.21099    1.000
    C187     C        0.76354    0.67159    0.22430    1.000
    C188     C        0.77840    0.58825    0.19742    1.000
    H94      H        0.83540    0.58980    0.18180    1.000
    H95      H        0.77610    0.53950    0.22020    1.000
    H96      H        0.73330    0.58100    0.17270    1.000
    C189     C        0.55720    0.43980    0.05110    1.000
    C190     C        0.57940    0.48790    0.10510    1.000
    C191     C        0.56250    0.54030    0.10350    1.000
    C192     C        0.50340    0.42220    0.94720    1.000
    Co1      Co       0.00000    0.00000    0.20158    1.000
    N1       N        0.00000    0.00000    0.12780    1.000
    C193     C        0.00000    0.00000    0.02610    1.000
    Co2      Co       0.50000    0.50000    0.70158    1.000
    N2       N        0.50000    0.50000    0.62780    1.000
    C194     C        0.50000    0.50000    0.52610    1.000
    Co3      Co       0.00000    0.00000    0.29842    1.000
    N3       N        0.00000    0.00000    0.37220    1.000
    C195     C        0.00000    0.00000    0.47390    1.000
    Co4      Co       0.50000    0.50000    0.79842    1.000
    N4       N        0.50000    0.50000    0.87220    1.000
    C196     C        0.50000    0.50000    0.97390    1.000
    Co5      Co       0.00000    0.00000    0.79842    1.000
    N5       N        0.00000    0.00000    0.87220    1.000
    C197     C        0.00000    0.00000    0.97390    1.000
    Co6      Co       0.50000    0.50000    0.29842    1.000
    N6       N        0.50000    0.50000    0.37220    1.000
    C198     C        0.50000    0.50000    0.47390    1.000
    Co7      Co       0.00000    0.00000    0.70158    1.000
    N7       N        0.00000    0.00000    0.62780    1.000
    C199     C        0.00000    0.00000    0.52610    1.000
    Co8      Co       0.50000    0.50000    0.20158    1.000
    N8       N        0.50000    0.50000    0.12780    1.000
    C200     C        0.50000    0.50000    0.02610    1.000
    C201     C        0.11809    0.11809    0.25000    1.000
    C202     C        0.18687    0.18687    0.25000    1.000
    C203     C        0.61809    0.61809    0.75000    1.000
    C204     C        0.68687    0.68687    0.75000    1.000
    C205     C        0.88191    0.88191    0.25000    1.000
    C206     C        0.81313    0.81313    0.25000    1.000
    C207     C        0.38191    0.38191    0.75000    1.000
    C208     C        0.31313    0.31313    0.75000    1.000
    C209     C        0.88191    0.11809    0.25000    1.000
    C210     C        0.81313    0.18687    0.25000    1.000
    C211     C        0.38191    0.61809    0.75000    1.000
    C212     C        0.31313    0.68687    0.75000    1.000
    C213     C        0.11809    0.88191    0.25000    1.000
    C214     C        0.18687    0.81313    0.25000    1.000
    C215     C        0.61809    0.38191    0.75000    1.000
    C216     C        0.68687    0.31313    0.75000    1.000
    C217     C        0.88191    0.88191    0.75000    1.000
    C218     C        0.81313    0.81313    0.75000    1.000
    C219     C        0.38191    0.38191    0.25000    1.000
    C220     C        0.31313    0.31313    0.25000    1.000
    C221     C        0.11809    0.11809    0.75000    1.000
    C222     C        0.18687    0.18687    0.75000    1.000
    C223     C        0.61809    0.61809    0.25000    1.000
    C224     C        0.68687    0.68687    0.25000    1.000
    C225     C        0.11809    0.88191    0.75000    1.000
    C226     C        0.18687    0.81313    0.75000    1.000
    C227     C        0.61809    0.38191    0.25000    1.000
    C228     C        0.68687    0.31313    0.25000    1.000
    C229     C        0.88191    0.11809    0.75000    1.000
    C230     C        0.81313    0.18687    0.75000    1.000
    C231     C        0.38191    0.61809    0.25000    1.000
    C232     C        0.31313    0.68687    0.25000    1.000
