data_functionalizedCrystal
_audit_creation_method	'EQeq! by Chris Wilmer'
_symmetry_space_group_name_H-M	'P1'
_symmetry_Int_Tables_number	1
_symmetry_cell_setting	triclinic
loop_
_symmetry_equiv_pos_as_xyz
  x,y,z
_cell_length_a	35.8613
_cell_length_b	14.8954
_cell_length_c	30.8845
_cell_angle_alpha	90
_cell_angle_beta	101.99
_cell_angle_gamma	90
loop_
_atom_site_label
_atom_site_type_symbol
_atom_site_fract_x
_atom_site_fract_y
_atom_site_fract_z
_atom_site_charge
Mof_C 	C 	0.55863	0.8655	0.49583	0.06
Mof_C 	C 	0.274	0.56	0.33437	0.07
Mof_C 	C 	0.51749	0.665	0.4397	0.085
Mof_C 	C 	0.16757	0.5407	0.2109	0.069
Mof_C 	C 	0.55214	0.7859	0.4665	0.091
Mof_C 	C 	0.20632	0.7263	0.28038	0.103
Mof_C 	C 	0.56693	0.7071	0.41019	0.106
Mof_C 	C 	0.17665	0.4531	0.20153	-0.141
Mof_H 	H 	0.198	0.425	0.2182	0.087
Mof_C 	C 	0.48407	0.6066	0.43928	0.068
Mof_C 	C 	0.24207	0.6045	0.3035	0.081
Mof_C 	C 	0.19178	0.5939	0.24662	0.1
Mof_C 	C 	0.59236	0.6908	0.37889	0.073
Mof_C 	C 	0.53192	0.8911	0.51996	-0.131
Mof_H 	H 	0.5099	0.8576	0.5187	0.076
Mof_C 	C 	0.15328	0.4086	0.16697	0.081
Mof_H 	H 	0.1597	0.3504	0.1604	-0.016
Mof_C 	C 	0.21582	0.9738	0.3059	0.08
Mof_H 	H 	0.2323	0.0123	0.3245	-0.015
Mof_C 	C 	0.1617	0.9524	0.2526	0.071
Mof_H 	H 	0.1403	0.9757	0.2339	-0.017
Mof_C 	C 	0.59188	0.9153	0.4999	-0.128
Mof_H 	H 	0.6105	0.8993	0.4844	0.085
Mof_C 	C 	0.1344	0.5783	0.1863	-0.135
Mof_H 	H 	0.127	0.6361	0.1923	0.099
Mof_C 	C 	0.6063	0.6245	0.3139	0.089
Mof_H 	H 	0.5985	0.5894	0.2887	-0.024
Mof_C 	C 	0.3256	0.557	0.3966	0.1
Mof_H 	H 	0.3406	0.5874	0.4203	-0.015
Mof_C 	C 	0.1676	0.8604	0.2527	-0.131
Mof_H 	H 	0.1506	0.8233	0.234	0.089
Mof_C 	C 	0.2961	0.6035	0.3694	-0.149
Mof_H 	H 	0.2915	0.6634	0.3749	0.097
Mof_C 	C 	0.5967	0.9891	0.5277	0.073
Mof_H 	H 	0.6191	0.0222	0.5307	-0.018
Mof_C 	C 	0.1129	0.5286	0.153	0.084
Mof_H 	H 	0.0907	0.554	0.1367	-0.012
Mof_C 	C 	0.4349	0.5129	0.4008	0.097
Mof_H 	H 	0.4225	0.4871	0.3743	-0.025
Mof_C 	C 	0.4657	0.5654	0.4006	-0.154
Mof_H 	H 	0.4745	0.5737	0.3746	0.096
Mof_C 	C 	0.19918	0.8244	0.28091	0.065
Mof_C 	C 	0.53857	0.9673	0.54584	0.078
Mof_H 	H 	0.5199	0.9858	0.5608	-0.013
Mof_C 	C 	0.46974	0.5935	0.47641	-0.148
Mof_H 	H 	0.4806	0.622	0.5028	0.087
Mof_C 	C 	0.22364	0.8831	0.3081	-0.134
Mof_H 	H 	0.2451	0.8614	0.3276	0.085
Mof_C 	C 	0.43873	0.5372	0.4741	0.085
Mof_H 	H 	0.4295	0.5271	0.4997	-0.012
Mof_C 	C 	0.62863	0.7289	0.3862	-0.129
Mof_H 	H 	0.637	0.7656	0.4107	0.092
Mof_C 	C 	0.28224	0.471	0.3279	-0.149
Mof_H 	H 	0.2676	0.4386	0.3046	0.102
Mof_C 	C 	0.65174	0.7117	0.3571	0.079
Mof_H 	H 	0.6761	0.7362	0.3626	-0.013
Mof_C 	C 	0.58129	0.636	0.3422	-0.136
Mof_H 	H 	0.5577	0.6076	0.3366	0.091
Mof_C 	C 	0.3122	0.431	0.356	0.088
Mof_H 	H 	0.318	0.3716	0.3509	-0.012
Mof_I 	I 	0.02951	0.34263	0.1299	-0.016
Mof_I 	I 	0.73478	0.73419	0.30082	-0.378
Mof_I 	I 	0.63044	0.67165	0.1988	-0.413
Mof_I 	I 	0.35818	0.41044	0.5089	-0.37
Mof_I 	I 	0.39425	0.26649	0.39455	-0.349
Mof_N 	N 	0.18246	0.6797	0.24954	-0.134
Mof_N 	N 	0.52404	0.7296	0.4704	-0.147
Mof_N 	N 	0.5379	0.6502	0.40859	-0.133
Mof_N 	N 	0.22132	0.5526	0.2721	-0.139
Mof_N 	N 	0.57469	0.7771	0.43724	-0.134
Mof_N 	N 	0.236	0.6925	0.30911	-0.138
Mof_N 	N 	0.64051	0.6608	0.32083	-0.279
Mof_N 	N 	0.33339	0.4735	0.39052	-0.284
Mof_N 	N 	0.42156	0.4967	0.43685	-0.283
Mof_N 	N 	0.1856	0.0092	0.2784	-0.276
Mof_N 	N 	0.12207	0.4454	0.14276	-0.276
Mof_N 	N 	0.57047	0.0154	0.55042	-0.276
Mof_Zn	Zn	0.67377	0.64505	0.27422	1.164
Mof_Zn	Zn	0.37666	0.40937	0.43401	1.163
Mof_Zn	Zn	0.08375	0.37768	0.09389	1.155
Mof_I 	I 	0.11671	0.2597	0.0565	-0.15
Mof_I 	I 	0.12543	0.276	0.0566	-0.194
Mof_I 	I 	0.01966	0.364	0.13038	-0.294
Mof_I 	I 	0.38762	0.2678	0.4081	-0.018
Mof_C 	C 	0.05863	0.3655	0.49583	0.059
Mof_C 	C 	0.774	0.06	0.33437	0.07
Mof_C 	C 	0.01749	0.165	0.4397	0.084
Mof_C 	C 	0.66757	0.0407	0.2109	0.068
Mof_C 	C 	0.05214	0.2859	0.4665	0.09
Mof_C 	C 	0.70632	0.2263	0.28038	0.102
Mof_C 	C 	0.06693	0.2071	0.41019	0.105
Mof_C 	C 	0.67665	0.9531	0.20153	-0.142
Mof_H 	H 	0.698	0.925	0.2182	0.087
Mof_C 	C 	0.98407	0.1066	0.43928	0.068
Mof_C 	C 	0.74207	0.1045	0.3035	0.081
Mof_C 	C 	0.69178	0.0939	0.24662	0.1
Mof_C 	C 	0.09236	0.1908	0.37889	0.073
Mof_C 	C 	0.03192	0.3911	0.51996	-0.131
Mof_H 	H 	0.0099	0.3576	0.5187	0.076
Mof_C 	C 	0.65328	0.9086	0.16697	0.082
Mof_H 	H 	0.6597	0.8504	0.1604	-0.016
Mof_C 	C 	0.71582	0.4738	0.3059	0.08
Mof_H 	H 	0.7323	0.5123	0.3245	-0.015
Mof_C 	C 	0.6617	0.4524	0.2526	0.071
Mof_H 	H 	0.6403	0.4757	0.2339	-0.017
Mof_C 	C 	0.09188	0.4153	0.4999	-0.128
Mof_H 	H 	0.1105	0.3993	0.4844	0.085
Mof_C 	C 	0.6344	0.0783	0.1863	-0.135
Mof_H 	H 	0.627	0.1361	0.1923	0.099
Mof_C 	C 	0.1063	0.1245	0.3139	0.089
Mof_H 	H 	0.0985	0.0894	0.2887	-0.024
Mof_C 	C 	0.8256	0.057	0.3966	0.1
Mof_H 	H 	0.8406	0.0874	0.4203	-0.015
Mof_C 	C 	0.6676	0.3604	0.2527	-0.131
Mof_H 	H 	0.6506	0.3233	0.234	0.089
Mof_C 	C 	0.7961	0.1035	0.3694	-0.149
Mof_H 	H 	0.7915	0.1634	0.3749	0.097
Mof_C 	C 	0.0967	0.4891	0.5277	0.073
Mof_H 	H 	0.1191	0.5222	0.5307	-0.018
Mof_C 	C 	0.6129	0.0286	0.153	0.084
Mof_H 	H 	0.5907	0.054	0.1367	-0.012
Mof_C 	C 	0.9349	0.0129	0.4008	0.097
Mof_H 	H 	0.9225	0.9871	0.3743	-0.025
Mof_C 	C 	0.9657	0.0654	0.4006	-0.154
Mof_H 	H 	0.9745	0.0737	0.3746	0.096
Mof_C 	C 	0.69918	0.3244	0.28091	0.066
Mof_C 	C 	0.03857	0.4673	0.54584	0.078
Mof_H 	H 	0.0199	0.4858	0.5608	-0.013
Mof_C 	C 	0.96974	0.0935	0.47641	-0.148
Mof_H 	H 	0.9806	0.122	0.5028	0.087
Mof_C 	C 	0.72364	0.3831	0.3081	-0.134
Mof_H 	H 	0.7451	0.3614	0.3276	0.085
Mof_C 	C 	0.93873	0.0372	0.4741	0.085
Mof_H 	H 	0.9295	0.0271	0.4997	-0.012
Mof_C 	C 	0.12863	0.2289	0.3862	-0.129
Mof_H 	H 	0.137	0.2656	0.4107	0.092
Mof_C 	C 	0.78224	0.971	0.3279	-0.149
Mof_H 	H 	0.7676	0.9386	0.3046	0.102
Mof_C 	C 	0.15174	0.2117	0.3571	0.079
Mof_H 	H 	0.1761	0.2362	0.3626	-0.013
Mof_C 	C 	0.08129	0.136	0.3422	-0.136
Mof_H 	H 	0.0577	0.1076	0.3366	0.091
Mof_C 	C 	0.8122	0.931	0.356	0.088
Mof_H 	H 	0.818	0.8716	0.3509	-0.012
Mof_I 	I 	0.52951	0.84263	0.1299	-0.016
Mof_I 	I 	0.23478	0.23419	0.30082	-0.378
Mof_I 	I 	0.13044	0.17165	0.1988	-0.413
Mof_I 	I 	0.85818	0.91044	0.5089	-0.37
Mof_I 	I 	0.89425	0.76649	0.39455	-0.349
Mof_N 	N 	0.68246	0.1797	0.24954	-0.134
Mof_N 	N 	0.02404	0.2296	0.4704	-0.147
Mof_N 	N 	0.0379	0.1502	0.40859	-0.133
Mof_N 	N 	0.72132	0.0526	0.2721	-0.139
Mof_N 	N 	0.07469	0.2771	0.43724	-0.134
Mof_N 	N 	0.736	0.1925	0.30911	-0.138
Mof_N 	N 	0.14051	0.1608	0.32083	-0.279
Mof_N 	N 	0.83339	0.9735	0.39052	-0.284
Mof_N 	N 	0.92156	0.9967	0.43685	-0.283
Mof_N 	N 	0.6856	0.5092	0.2784	-0.276
Mof_N 	N 	0.62207	0.9454	0.14276	-0.276
Mof_N 	N 	0.07047	0.5154	0.55042	-0.276
Mof_Zn	Zn	0.17377	0.14505	0.27422	1.164
Mof_Zn	Zn	0.87666	0.90937	0.43401	1.163
Mof_Zn	Zn	0.58375	0.87768	0.09389	1.155
Mof_I 	I 	0.61671	0.7597	0.0565	-0.15
Mof_I 	I 	0.62543	0.776	0.0566	-0.194
Mof_I 	I 	0.51966	0.864	0.13038	-0.294
Mof_I 	I 	0.88762	0.7678	0.4081	-0.018
Mof_C 	C 	0.55863	0.1345	0.99583	0.059
Mof_C 	C 	0.274	0.44	0.83437	0.069
Mof_C 	C 	0.51749	0.335	0.9397	0.084
Mof_C 	C 	0.16757	0.4593	0.7109	0.068
Mof_C 	C 	0.55214	0.2141	0.9665	0.09
Mof_C 	C 	0.20632	0.2737	0.78038	0.102
Mof_C 	C 	0.56693	0.2929	0.91019	0.105
Mof_C 	C 	0.17665	0.5469	0.70153	-0.142
Mof_H 	H 	0.198	0.575	0.7182	0.087
Mof_C 	C 	0.48407	0.3934	0.93928	0.068
Mof_C 	C 	0.24207	0.3955	0.8035	0.081
Mof_C 	C 	0.19178	0.4061	0.74662	0.1
Mof_C 	C 	0.59236	0.3092	0.87889	0.073
Mof_C 	C 	0.53192	0.1089	0.01996	-0.131
Mof_H 	H 	0.5099	0.1424	0.0187	0.076
Mof_C 	C 	0.15328	0.5914	0.66697	0.081
Mof_H 	H 	0.1597	0.6496	0.6604	-0.016
Mof_C 	C 	0.21582	0.0262	0.8059	0.079
Mof_H 	H 	0.2323	0.9877	0.8245	-0.015
Mof_C 	C 	0.1617	0.0476	0.7526	0.071
Mof_H 	H 	0.1403	0.0243	0.7339	-0.017
Mof_C 	C 	0.59188	0.0847	0.9999	-0.128
Mof_H 	H 	0.6105	0.1007	0.9844	0.085
Mof_C 	C 	0.1344	0.4217	0.6863	-0.135
Mof_H 	H 	0.127	0.3639	0.6923	0.099
Mof_C 	C 	0.6063	0.3755	0.8139	0.089
Mof_H 	H 	0.5985	0.4106	0.7887	-0.024
Mof_C 	C 	0.3256	0.443	0.8966	0.1
Mof_H 	H 	0.3406	0.4126	0.9203	-0.015
Mof_C 	C 	0.1676	0.1396	0.7527	-0.131
Mof_H 	H 	0.1506	0.1767	0.734	0.089
Mof_C 	C 	0.2961	0.3965	0.8694	-0.149
Mof_H 	H 	0.2915	0.3366	0.8749	0.097
Mof_C 	C 	0.5967	0.0109	0.0277	0.074
Mof_H 	H 	0.6191	0.9778	0.0307	-0.018
Mof_C 	C 	0.1129	0.4714	0.653	0.084
Mof_H 	H 	0.0907	0.446	0.6367	-0.012
Mof_C 	C 	0.4349	0.4871	0.9008	0.097
Mof_H 	H 	0.4225	0.5129	0.8743	-0.025
Mof_C 	C 	0.4657	0.4346	0.9006	-0.154
Mof_H 	H 	0.4745	0.4263	0.8746	0.096
Mof_C 	C 	0.19918	0.1756	0.78091	0.065
Mof_C 	C 	0.53857	0.0327	0.04584	0.078
Mof_H 	H 	0.5199	0.0142	0.0608	-0.013
Mof_C 	C 	0.46974	0.4065	0.97641	-0.148
Mof_H 	H 	0.4806	0.378	0.0028	0.087
Mof_C 	C 	0.22364	0.1169	0.8081	-0.134
Mof_H 	H 	0.2451	0.1386	0.8276	0.085
Mof_C 	C 	0.43873	0.4628	0.9741	0.085
Mof_H 	H 	0.4295	0.4729	0.9997	-0.012
Mof_C 	C 	0.62863	0.2711	0.8862	-0.129
Mof_H 	H 	0.637	0.2344	0.9107	0.092
Mof_C 	C 	0.28224	0.529	0.8279	-0.149
Mof_H 	H 	0.2676	0.5614	0.8046	0.102
Mof_C 	C 	0.65174	0.2883	0.8571	0.079
Mof_H 	H 	0.6761	0.2638	0.8626	-0.013
Mof_C 	C 	0.58129	0.364	0.8422	-0.136
Mof_H 	H 	0.5577	0.3924	0.8366	0.091
Mof_C 	C 	0.3122	0.569	0.856	0.088
Mof_H 	H 	0.318	0.6284	0.8509	-0.012
Mof_I 	I 	0.02951	0.65737	0.6299	-0.016
Mof_I 	I 	0.73478	0.26581	0.80082	-0.378
Mof_I 	I 	0.63044	0.32835	0.6988	-0.413
Mof_I 	I 	0.35818	0.58956	0.0089	-0.37
Mof_I 	I 	0.39425	0.73351	0.89455	-0.349
Mof_N 	N 	0.18246	0.3203	0.74954	-0.134
Mof_N 	N 	0.52404	0.2704	0.9704	-0.147
Mof_N 	N 	0.5379	0.3498	0.90859	-0.133
Mof_N 	N 	0.22132	0.4474	0.7721	-0.139
Mof_N 	N 	0.57469	0.2229	0.93724	-0.134
Mof_N 	N 	0.236	0.3075	0.80911	-0.138
Mof_N 	N 	0.64051	0.3392	0.82083	-0.279
Mof_N 	N 	0.33339	0.5265	0.89052	-0.284
Mof_N 	N 	0.42156	0.5033	0.93685	-0.283
Mof_N 	N 	0.1856	0.9908	0.7784	-0.275
Mof_N 	N 	0.12207	0.5546	0.64276	-0.276
Mof_N 	N 	0.57047	0.9846	0.05042	-0.276
Mof_Zn	Zn	0.67377	0.35495	0.77422	1.164
Mof_Zn	Zn	0.37666	0.59063	0.93401	1.163
Mof_Zn	Zn	0.08375	0.62232	0.59389	1.155
Mof_I 	I 	0.11671	0.7403	0.5565	-0.15
Mof_I 	I 	0.12543	0.724	0.5566	-0.194
Mof_I 	I 	0.01966	0.636	0.63038	-0.294
Mof_I 	I 	0.38762	0.7322	0.9081	-0.018
Mof_C 	C 	0.05863	0.6345	0.99583	0.059
Mof_C 	C 	0.774	0.94	0.83437	0.07
Mof_C 	C 	0.01749	0.835	0.9397	0.084
Mof_C 	C 	0.66757	0.9593	0.7109	0.068
Mof_C 	C 	0.05214	0.7141	0.9665	0.09
Mof_C 	C 	0.70632	0.7737	0.78038	0.102
Mof_C 	C 	0.06693	0.7929	0.91019	0.105
Mof_C 	C 	0.67665	0.0469	0.70153	-0.142
Mof_H 	H 	0.698	0.075	0.7182	0.087
Mof_C 	C 	0.98407	0.8934	0.93928	0.068
Mof_C 	C 	0.74207	0.8955	0.8035	0.081
Mof_C 	C 	0.69178	0.9061	0.74662	0.1
Mof_C 	C 	0.09236	0.8092	0.87889	0.073
Mof_C 	C 	0.03192	0.6089	0.01996	-0.131
Mof_H 	H 	0.0099	0.6424	0.0187	0.076
Mof_C 	C 	0.65328	0.0914	0.66697	0.081
Mof_H 	H 	0.6597	0.1496	0.6604	-0.016
Mof_C 	C 	0.71582	0.5262	0.8059	0.08
Mof_H 	H 	0.7323	0.4877	0.8245	-0.015
Mof_C 	C 	0.6617	0.5476	0.7526	0.071
Mof_H 	H 	0.6403	0.5243	0.7339	-0.017
Mof_C 	C 	0.09188	0.5847	0.9999	-0.128
Mof_H 	H 	0.1105	0.6007	0.9844	0.085
Mof_C 	C 	0.6344	0.9217	0.6863	-0.135
Mof_H 	H 	0.627	0.8639	0.6923	0.099
Mof_C 	C 	0.1063	0.8755	0.8139	0.089
Mof_H 	H 	0.0985	0.9106	0.7887	-0.024
Mof_C 	C 	0.8256	0.943	0.8966	0.1
Mof_H 	H 	0.8406	0.9126	0.9203	-0.015
Mof_C 	C 	0.6676	0.6396	0.7527	-0.131
Mof_H 	H 	0.6506	0.6767	0.734	0.089
Mof_C 	C 	0.7961	0.8965	0.8694	-0.149
Mof_H 	H 	0.7915	0.8366	0.8749	0.097
Mof_C 	C 	0.0967	0.5109	0.0277	0.073
Mof_H 	H 	0.1191	0.4778	0.0307	-0.018
Mof_C 	C 	0.6129	0.9714	0.653	0.083
Mof_H 	H 	0.5907	0.946	0.6367	-0.012
Mof_C 	C 	0.9349	0.9871	0.9008	0.097
Mof_H 	H 	0.9225	0.0129	0.8743	-0.025
Mof_C 	C 	0.9657	0.9346	0.9006	-0.154
Mof_H 	H 	0.9745	0.9263	0.8746	0.096
Mof_C 	C 	0.69918	0.6756	0.78091	0.066
Mof_C 	C 	0.03857	0.5327	0.04584	0.078
Mof_H 	H 	0.0199	0.5142	0.0608	-0.013
Mof_C 	C 	0.96974	0.9065	0.97641	-0.148
Mof_H 	H 	0.9806	0.878	0.0028	0.087
Mof_C 	C 	0.72364	0.6169	0.8081	-0.134
Mof_H 	H 	0.7451	0.6386	0.8276	0.085
Mof_C 	C 	0.93873	0.9628	0.9741	0.085
Mof_H 	H 	0.9295	0.9729	0.9997	-0.012
Mof_C 	C 	0.12863	0.7711	0.8862	-0.129
Mof_H 	H 	0.137	0.7344	0.9107	0.092
Mof_C 	C 	0.78224	0.029	0.8279	-0.15
Mof_H 	H 	0.7676	0.0614	0.8046	0.102
Mof_C 	C 	0.15174	0.7883	0.8571	0.079
Mof_H 	H 	0.1761	0.7638	0.8626	-0.013
Mof_C 	C 	0.08129	0.864	0.8422	-0.136
Mof_H 	H 	0.0577	0.8924	0.8366	0.091
Mof_C 	C 	0.8122	0.069	0.856	0.088
Mof_H 	H 	0.818	0.1284	0.8509	-0.012
Mof_I 	I 	0.52951	0.15737	0.6299	-0.016
Mof_I 	I 	0.23478	0.76581	0.80082	-0.378
Mof_I 	I 	0.13044	0.82835	0.6988	-0.413
Mof_I 	I 	0.85818	0.08956	0.0089	-0.37
Mof_I 	I 	0.89425	0.23351	0.89455	-0.349
Mof_N 	N 	0.68246	0.8203	0.74954	-0.134
Mof_N 	N 	0.02404	0.7704	0.9704	-0.147
Mof_N 	N 	0.0379	0.8498	0.90859	-0.133
Mof_N 	N 	0.72132	0.9474	0.7721	-0.139
Mof_N 	N 	0.07469	0.7229	0.93724	-0.134
Mof_N 	N 	0.736	0.8075	0.80911	-0.138
Mof_N 	N 	0.14051	0.8392	0.82083	-0.279
Mof_N 	N 	0.83339	0.0265	0.89052	-0.284
Mof_N 	N 	0.92156	0.0033	0.93685	-0.283
Mof_N 	N 	0.6856	0.4908	0.7784	-0.276
Mof_N 	N 	0.62207	0.0546	0.64276	-0.276
Mof_N 	N 	0.07047	0.4846	0.05042	-0.276
Mof_Zn	Zn	0.17377	0.85495	0.77422	1.164
Mof_Zn	Zn	0.87666	0.09063	0.93401	1.163
Mof_Zn	Zn	0.58375	0.12232	0.59389	1.155
Mof_I 	I 	0.61671	0.2403	0.5565	-0.15
Mof_I 	I 	0.62543	0.224	0.5566	-0.194
Mof_I 	I 	0.51966	0.136	0.63038	-0.294
Mof_I 	I 	0.88762	0.2322	0.9081	-0.018
Mof_C 	C 	0.44137	0.8655	0.00417	0.059
Mof_C 	C 	0.726	0.56	0.16563	0.069
Mof_C 	C 	0.48251	0.665	0.0603	0.084
Mof_C 	C 	0.83243	0.5407	0.2891	0.068
Mof_C 	C 	0.44786	0.7859	0.0335	0.09
Mof_C 	C 	0.79368	0.7263	0.21962	0.102
Mof_C 	C 	0.43307	0.7071	0.08981	0.105
Mof_C 	C 	0.82335	0.4531	0.29847	-0.142
Mof_H 	H 	0.802	0.425	0.2818	0.087
Mof_C 	C 	0.51593	0.6066	0.06072	0.068
Mof_C 	C 	0.75793	0.6045	0.1965	0.081
Mof_C 	C 	0.80822	0.5939	0.25338	0.1
Mof_C 	C 	0.40764	0.6908	0.12111	0.073
Mof_C 	C 	0.46808	0.8911	0.98004	-0.131
Mof_H 	H 	0.4901	0.8576	0.9813	0.076
Mof_C 	C 	0.84672	0.4086	0.33303	0.081
Mof_H 	H 	0.8403	0.3504	0.3396	-0.016
Mof_C 	C 	0.78418	0.9738	0.1941	0.079
Mof_H 	H 	0.7677	0.0123	0.1755	-0.015
Mof_C 	C 	0.8383	0.9524	0.2474	0.071
Mof_H 	H 	0.8597	0.9757	0.2661	-0.017
Mof_C 	C 	0.40812	0.9153	0.0001	-0.128
Mof_H 	H 	0.3895	0.8993	0.0156	0.085
Mof_C 	C 	0.8656	0.5783	0.3137	-0.135
Mof_H 	H 	0.873	0.6361	0.3077	0.099
Mof_C 	C 	0.3937	0.6245	0.1861	0.089
Mof_H 	H 	0.4015	0.5894	0.2113	-0.024
Mof_C 	C 	0.6744	0.557	0.1034	0.1
Mof_H 	H 	0.6594	0.5874	0.0797	-0.015
Mof_C 	C 	0.8324	0.8604	0.2473	-0.131
Mof_H 	H 	0.8494	0.8233	0.266	0.089
Mof_C 	C 	0.7039	0.6035	0.1306	-0.149
Mof_H 	H 	0.7085	0.6634	0.1251	0.097
Mof_C 	C 	0.4033	0.9891	0.9723	0.074
Mof_H 	H 	0.3809	0.0222	0.9693	-0.018
Mof_C 	C 	0.8871	0.5286	0.347	0.084
Mof_H 	H 	0.9093	0.554	0.3633	-0.012
Mof_C 	C 	0.5651	0.5129	0.0992	0.097
Mof_H 	H 	0.5775	0.4871	0.1257	-0.025
Mof_C 	C 	0.5343	0.5654	0.0994	-0.154
Mof_H 	H 	0.5255	0.5737	0.1254	0.096
Mof_C 	C 	0.80082	0.8244	0.21909	0.065
Mof_C 	C 	0.46143	0.9673	0.95416	0.078
Mof_H 	H 	0.4801	0.9858	0.9392	-0.013
Mof_C 	C 	0.53026	0.5935	0.02359	-0.148
Mof_H 	H 	0.5194	0.622	0.9972	0.087
Mof_C 	C 	0.77636	0.8831	0.1919	-0.134
Mof_H 	H 	0.7549	0.8614	0.1724	0.085
Mof_C 	C 	0.56127	0.5372	0.0259	0.085
Mof_H 	H 	0.5705	0.5271	0.0003	-0.012
Mof_C 	C 	0.37137	0.7289	0.1138	-0.129
Mof_H 	H 	0.363	0.7656	0.0893	0.092
Mof_C 	C 	0.71776	0.471	0.1721	-0.149
Mof_H 	H 	0.7324	0.4386	0.1954	0.102
Mof_C 	C 	0.34826	0.7117	0.1429	0.079
Mof_H 	H 	0.3239	0.7362	0.1374	-0.013
Mof_C 	C 	0.41871	0.636	0.1578	-0.136
Mof_H 	H 	0.4423	0.6076	0.1634	0.091
Mof_C 	C 	0.6878	0.431	0.144	0.088
Mof_H 	H 	0.682	0.3716	0.1491	-0.012
Mof_I 	I 	0.97049	0.34263	0.3701	-0.016
Mof_I 	I 	0.26522	0.73419	0.19918	-0.378
Mof_I 	I 	0.36956	0.67165	0.3012	-0.413
Mof_I 	I 	0.64182	0.41044	0.9911	-0.37
Mof_I 	I 	0.60575	0.26649	0.10545	-0.349
Mof_N 	N 	0.81754	0.6797	0.25046	-0.134
Mof_N 	N 	0.47596	0.7296	0.0296	-0.147
Mof_N 	N 	0.4621	0.6502	0.09141	-0.133
Mof_N 	N 	0.77868	0.5526	0.2279	-0.139
Mof_N 	N 	0.42531	0.7771	0.06276	-0.134
Mof_N 	N 	0.764	0.6925	0.19089	-0.138
Mof_N 	N 	0.35949	0.6608	0.17917	-0.279
Mof_N 	N 	0.66661	0.4735	0.10948	-0.284
Mof_N 	N 	0.57844	0.4967	0.06315	-0.283
Mof_N 	N 	0.8144	0.0092	0.2216	-0.275
Mof_N 	N 	0.87793	0.4454	0.35724	-0.276
Mof_N 	N 	0.42953	0.0154	0.94958	-0.276
Mof_Zn	Zn	0.32623	0.64505	0.22578	1.164
Mof_Zn	Zn	0.62334	0.40937	0.06599	1.163
Mof_Zn	Zn	0.91625	0.37768	0.40611	1.155
Mof_I 	I 	0.88329	0.2597	0.4435	-0.15
Mof_I 	I 	0.87457	0.276	0.4434	-0.194
Mof_I 	I 	0.98034	0.364	0.36962	-0.294
Mof_I 	I 	0.61238	0.2678	0.0919	-0.018
Mof_C 	C 	0.94137	0.3655	0.00417	0.059
Mof_C 	C 	0.226	0.06	0.16563	0.07
Mof_C 	C 	0.98251	0.165	0.0603	0.084
Mof_C 	C 	0.33243	0.0407	0.2891	0.068
Mof_C 	C 	0.94786	0.2859	0.0335	0.09
Mof_C 	C 	0.29368	0.2263	0.21962	0.102
Mof_C 	C 	0.93307	0.2071	0.08981	0.105
Mof_C 	C 	0.32335	0.9531	0.29847	-0.142
Mof_H 	H 	0.302	0.925	0.2818	0.087
Mof_C 	C 	0.01593	0.1066	0.06072	0.068
Mof_C 	C 	0.25793	0.1045	0.1965	0.081
Mof_C 	C 	0.30822	0.0939	0.25338	0.1
Mof_C 	C 	0.90764	0.1908	0.12111	0.073
Mof_C 	C 	0.96808	0.3911	0.98004	-0.131
Mof_H 	H 	0.9901	0.3576	0.9813	0.076
Mof_C 	C 	0.34672	0.9086	0.33303	0.081
Mof_H 	H 	0.3403	0.8504	0.3396	-0.016
Mof_C 	C 	0.28418	0.4738	0.1941	0.08
Mof_H 	H 	0.2677	0.5123	0.1755	-0.015
Mof_C 	C 	0.3383	0.4524	0.2474	0.071
Mof_H 	H 	0.3597	0.4757	0.2661	-0.017
Mof_C 	C 	0.90812	0.4153	0.0001	-0.128
Mof_H 	H 	0.8895	0.3993	0.0156	0.085
Mof_C 	C 	0.3656	0.0783	0.3137	-0.135
Mof_H 	H 	0.373	0.1361	0.3077	0.099
Mof_C 	C 	0.8937	0.1245	0.1861	0.089
Mof_H 	H 	0.9015	0.0894	0.2113	-0.024
Mof_C 	C 	0.1744	0.057	0.1034	0.1
Mof_H 	H 	0.1594	0.0874	0.0797	-0.015
Mof_C 	C 	0.3324	0.3604	0.2473	-0.131
Mof_H 	H 	0.3494	0.3233	0.266	0.089
Mof_C 	C 	0.2039	0.1035	0.1306	-0.149
Mof_H 	H 	0.2085	0.1634	0.1251	0.097
Mof_C 	C 	0.9033	0.4891	0.9723	0.073
Mof_H 	H 	0.8809	0.5222	0.9693	-0.018
Mof_C 	C 	0.3871	0.0286	0.347	0.083
Mof_H 	H 	0.4093	0.054	0.3633	-0.012
Mof_C 	C 	0.0651	0.0129	0.0992	0.097
Mof_H 	H 	0.0775	0.9871	0.1257	-0.025
Mof_C 	C 	0.0343	0.0654	0.0994	-0.154
Mof_H 	H 	0.0255	0.0737	0.1254	0.096
Mof_C 	C 	0.30082	0.3244	0.21909	0.066
Mof_C 	C 	0.96143	0.4673	0.95416	0.078
Mof_H 	H 	0.9801	0.4858	0.9392	-0.013
Mof_C 	C 	0.03026	0.0935	0.02359	-0.148
Mof_H 	H 	0.0194	0.122	0.9972	0.087
Mof_C 	C 	0.27636	0.3831	0.1919	-0.134
Mof_H 	H 	0.2549	0.3614	0.1724	0.085
Mof_C 	C 	0.06127	0.0372	0.0259	0.085
Mof_H 	H 	0.0705	0.0271	0.0003	-0.012
Mof_C 	C 	0.87137	0.2289	0.1138	-0.129
Mof_H 	H 	0.863	0.2656	0.0893	0.092
Mof_C 	C 	0.21776	0.971	0.1721	-0.15
Mof_H 	H 	0.2324	0.9386	0.1954	0.102
Mof_C 	C 	0.84826	0.2117	0.1429	0.079
Mof_H 	H 	0.8239	0.2362	0.1374	-0.013
Mof_C 	C 	0.91871	0.136	0.1578	-0.136
Mof_H 	H 	0.9423	0.1076	0.1634	0.091
Mof_C 	C 	0.1878	0.931	0.144	0.088
Mof_H 	H 	0.182	0.8716	0.1491	-0.012
Mof_I 	I 	0.47049	0.84263	0.3701	-0.016
Mof_I 	I 	0.76522	0.23419	0.19918	-0.378
Mof_I 	I 	0.86956	0.17165	0.3012	-0.413
Mof_I 	I 	0.14182	0.91044	0.9911	-0.37
Mof_I 	I 	0.10575	0.76649	0.10545	-0.349
Mof_N 	N 	0.31754	0.1797	0.25046	-0.134
Mof_N 	N 	0.97596	0.2296	0.0296	-0.147
Mof_N 	N 	0.9621	0.1502	0.09141	-0.133
Mof_N 	N 	0.27868	0.0526	0.2279	-0.139
Mof_N 	N 	0.92531	0.2771	0.06276	-0.134
Mof_N 	N 	0.264	0.1925	0.19089	-0.138
Mof_N 	N 	0.85949	0.1608	0.17917	-0.279
Mof_N 	N 	0.16661	0.9735	0.10948	-0.284
Mof_N 	N 	0.07844	0.9967	0.06315	-0.283
Mof_N 	N 	0.3144	0.5092	0.2216	-0.276
Mof_N 	N 	0.37793	0.9454	0.35724	-0.276
Mof_N 	N 	0.92953	0.5154	0.94958	-0.276
Mof_Zn	Zn	0.82623	0.14505	0.22578	1.164
Mof_Zn	Zn	0.12334	0.90937	0.06599	1.163
Mof_Zn	Zn	0.41625	0.87768	0.40611	1.155
Mof_I 	I 	0.38329	0.7597	0.4435	-0.15
Mof_I 	I 	0.37457	0.776	0.4434	-0.194
Mof_I 	I 	0.48034	0.864	0.36962	-0.294
Mof_I 	I 	0.11238	0.7678	0.0919	-0.018
Mof_C 	C 	0.44137	0.1345	0.50417	0.059
Mof_C 	C 	0.726	0.44	0.66563	0.069
Mof_C 	C 	0.48251	0.335	0.5603	0.084
Mof_C 	C 	0.83243	0.4593	0.7891	0.068
Mof_C 	C 	0.44786	0.2141	0.5335	0.09
Mof_C 	C 	0.79368	0.2737	0.71962	0.102
Mof_C 	C 	0.43307	0.2929	0.58981	0.105
Mof_C 	C 	0.82335	0.5469	0.79847	-0.142
Mof_H 	H 	0.802	0.575	0.7818	0.087
Mof_C 	C 	0.51593	0.3934	0.56072	0.068
Mof_C 	C 	0.75793	0.3955	0.6965	0.081
Mof_C 	C 	0.80822	0.4061	0.75338	0.1
Mof_C 	C 	0.40764	0.3092	0.62111	0.073
Mof_C 	C 	0.46808	0.1089	0.48004	-0.131
Mof_H 	H 	0.4901	0.1424	0.4813	0.076
Mof_C 	C 	0.84672	0.5914	0.83303	0.081
Mof_H 	H 	0.8403	0.6496	0.8396	-0.016
Mof_C 	C 	0.78418	0.0262	0.6941	0.08
Mof_H 	H 	0.7677	0.9877	0.6755	-0.015
Mof_C 	C 	0.8383	0.0476	0.7474	0.071
Mof_H 	H 	0.8597	0.0243	0.7661	-0.017
Mof_C 	C 	0.40812	0.0847	0.5001	-0.128
Mof_H 	H 	0.3895	0.1007	0.5156	0.085
Mof_C 	C 	0.8656	0.4217	0.8137	-0.135
Mof_H 	H 	0.873	0.3639	0.8077	0.099
Mof_C 	C 	0.3937	0.3755	0.6861	0.089
Mof_H 	H 	0.4015	0.4106	0.7113	-0.024
Mof_C 	C 	0.6744	0.443	0.6034	0.1
Mof_H 	H 	0.6594	0.4126	0.5797	-0.015
Mof_C 	C 	0.8324	0.1396	0.7473	-0.131
Mof_H 	H 	0.8494	0.1767	0.766	0.089
Mof_C 	C 	0.7039	0.3965	0.6306	-0.149
Mof_H 	H 	0.7085	0.3366	0.6251	0.097
Mof_C 	C 	0.4033	0.0109	0.4723	0.073
Mof_H 	H 	0.3809	0.9778	0.4693	-0.018
Mof_C 	C 	0.8871	0.4714	0.847	0.084
Mof_H 	H 	0.9093	0.446	0.8633	-0.012
Mof_C 	C 	0.5651	0.4871	0.5992	0.097
Mof_H 	H 	0.5775	0.5129	0.6257	-0.025
Mof_C 	C 	0.5343	0.4346	0.5994	-0.154
Mof_H 	H 	0.5255	0.4263	0.6254	0.096
Mof_C 	C 	0.80082	0.1756	0.71909	0.065
Mof_C 	C 	0.46143	0.0327	0.45416	0.078
Mof_H 	H 	0.4801	0.0142	0.4392	-0.013
Mof_C 	C 	0.53026	0.4065	0.52359	-0.148
Mof_H 	H 	0.5194	0.378	0.4972	0.087
Mof_C 	C 	0.77636	0.1169	0.6919	-0.134
Mof_H 	H 	0.7549	0.1386	0.6724	0.085
Mof_C 	C 	0.56127	0.4628	0.5259	0.085
Mof_H 	H 	0.5705	0.4729	0.5003	-0.012
Mof_C 	C 	0.37137	0.2711	0.6138	-0.129
Mof_H 	H 	0.363	0.2344	0.5893	0.092
Mof_C 	C 	0.71776	0.529	0.6721	-0.149
Mof_H 	H 	0.7324	0.5614	0.6954	0.102
Mof_C 	C 	0.34826	0.2883	0.6429	0.079
Mof_H 	H 	0.3239	0.2638	0.6374	-0.013
Mof_C 	C 	0.41871	0.364	0.6578	-0.136
Mof_H 	H 	0.4423	0.3924	0.6634	0.091
Mof_C 	C 	0.6878	0.569	0.644	0.088
Mof_H 	H 	0.682	0.6284	0.6491	-0.012
Mof_I 	I 	0.97049	0.65737	0.8701	-0.016
Mof_I 	I 	0.26522	0.26581	0.69918	-0.378
Mof_I 	I 	0.36956	0.32835	0.8012	-0.413
Mof_I 	I 	0.64182	0.58956	0.4911	-0.37
Mof_I 	I 	0.60575	0.73351	0.60545	-0.349
Mof_N 	N 	0.81754	0.3203	0.75046	-0.134
Mof_N 	N 	0.47596	0.2704	0.5296	-0.147
Mof_N 	N 	0.4621	0.3498	0.59141	-0.133
Mof_N 	N 	0.77868	0.4474	0.7279	-0.139
Mof_N 	N 	0.42531	0.2229	0.56276	-0.134
Mof_N 	N 	0.764	0.3075	0.69089	-0.138
Mof_N 	N 	0.35949	0.3392	0.67917	-0.279
Mof_N 	N 	0.66661	0.5265	0.60948	-0.284
Mof_N 	N 	0.57844	0.5033	0.56315	-0.283
Mof_N 	N 	0.8144	0.9908	0.7216	-0.276
Mof_N 	N 	0.87793	0.5546	0.85724	-0.276
Mof_N 	N 	0.42953	0.9846	0.44958	-0.276
Mof_Zn	Zn	0.32623	0.35495	0.72578	1.164
Mof_Zn	Zn	0.62334	0.59063	0.56599	1.163
Mof_Zn	Zn	0.91625	0.62232	0.90611	1.155
Mof_I 	I 	0.88329	0.7403	0.9435	-0.15
Mof_I 	I 	0.87457	0.724	0.9434	-0.194
Mof_I 	I 	0.98034	0.636	0.86962	-0.294
Mof_I 	I 	0.61238	0.7322	0.5919	-0.018
Mof_C 	C 	0.94137	0.6345	0.50417	0.059
Mof_C 	C 	0.226	0.94	0.66563	0.07
Mof_C 	C 	0.98251	0.835	0.5603	0.084
Mof_C 	C 	0.33243	0.9593	0.7891	0.068
Mof_C 	C 	0.94786	0.7141	0.5335	0.09
Mof_C 	C 	0.29368	0.7737	0.71962	0.102
Mof_C 	C 	0.93307	0.7929	0.58981	0.105
Mof_C 	C 	0.32335	0.0469	0.79847	-0.142
Mof_H 	H 	0.302	0.075	0.7818	0.087
Mof_C 	C 	0.01593	0.8934	0.56072	0.068
Mof_C 	C 	0.25793	0.8955	0.6965	0.081
Mof_C 	C 	0.30822	0.9061	0.75338	0.1
Mof_C 	C 	0.90764	0.8092	0.62111	0.073
Mof_C 	C 	0.96808	0.6089	0.48004	-0.131
Mof_H 	H 	0.9901	0.6424	0.4813	0.076
Mof_C 	C 	0.34672	0.0914	0.83303	0.082
Mof_H 	H 	0.3403	0.1496	0.8396	-0.016
Mof_C 	C 	0.28418	0.5262	0.6941	0.08
Mof_H 	H 	0.2677	0.4877	0.6755	-0.015
Mof_C 	C 	0.3383	0.5476	0.7474	0.071
Mof_H 	H 	0.3597	0.5243	0.7661	-0.017
Mof_C 	C 	0.90812	0.5847	0.5001	-0.128
Mof_H 	H 	0.8895	0.6007	0.5156	0.085
Mof_C 	C 	0.3656	0.9217	0.8137	-0.135
Mof_H 	H 	0.373	0.8639	0.8077	0.099
Mof_C 	C 	0.8937	0.8755	0.6861	0.089
Mof_H 	H 	0.9015	0.9106	0.7113	-0.024
Mof_C 	C 	0.1744	0.943	0.6034	0.1
Mof_H 	H 	0.1594	0.9126	0.5797	-0.015
Mof_C 	C 	0.3324	0.6396	0.7473	-0.131
Mof_H 	H 	0.3494	0.6767	0.766	0.089
Mof_C 	C 	0.2039	0.8965	0.6306	-0.149
Mof_H 	H 	0.2085	0.8366	0.6251	0.097
Mof_C 	C 	0.9033	0.5109	0.4723	0.073
Mof_H 	H 	0.8809	0.4778	0.4693	-0.018
Mof_C 	C 	0.3871	0.9714	0.847	0.084
Mof_H 	H 	0.4093	0.946	0.8633	-0.012
Mof_C 	C 	0.0651	0.9871	0.5992	0.097
Mof_H 	H 	0.0775	0.0129	0.6257	-0.025
Mof_C 	C 	0.0343	0.9346	0.5994	-0.154
Mof_H 	H 	0.0255	0.9263	0.6254	0.096
Mof_C 	C 	0.30082	0.6756	0.71909	0.066
Mof_C 	C 	0.96143	0.5327	0.45416	0.078
Mof_H 	H 	0.9801	0.5142	0.4392	-0.013
Mof_C 	C 	0.03026	0.9065	0.52359	-0.148
Mof_H 	H 	0.0194	0.878	0.4972	0.087
Mof_C 	C 	0.27636	0.6169	0.6919	-0.134
Mof_H 	H 	0.2549	0.6386	0.6724	0.085
Mof_C 	C 	0.06127	0.9628	0.5259	0.085
Mof_H 	H 	0.0705	0.9729	0.5003	-0.012
Mof_C 	C 	0.87137	0.7711	0.6138	-0.129
Mof_H 	H 	0.863	0.7344	0.5893	0.092
Mof_C 	C 	0.21776	0.029	0.6721	-0.149
Mof_H 	H 	0.2324	0.0614	0.6954	0.102
Mof_C 	C 	0.84826	0.7883	0.6429	0.079
Mof_H 	H 	0.8239	0.7638	0.6374	-0.013
Mof_C 	C 	0.91871	0.864	0.6578	-0.136
Mof_H 	H 	0.9423	0.8924	0.6634	0.091
Mof_C 	C 	0.1878	0.069	0.644	0.088
Mof_H 	H 	0.182	0.1284	0.6491	-0.012
Mof_I 	I 	0.47049	0.15737	0.8701	-0.016
Mof_I 	I 	0.76522	0.76581	0.69918	-0.378
Mof_I 	I 	0.86956	0.82835	0.8012	-0.413
Mof_I 	I 	0.14182	0.08956	0.4911	-0.37
Mof_I 	I 	0.10575	0.23351	0.60545	-0.349
Mof_N 	N 	0.31754	0.8203	0.75046	-0.134
Mof_N 	N 	0.97596	0.7704	0.5296	-0.147
Mof_N 	N 	0.9621	0.8498	0.59141	-0.133
Mof_N 	N 	0.27868	0.9474	0.7279	-0.139
Mof_N 	N 	0.92531	0.7229	0.56276	-0.134
Mof_N 	N 	0.264	0.8075	0.69089	-0.138
Mof_N 	N 	0.85949	0.8392	0.67917	-0.279
Mof_N 	N 	0.16661	0.0265	0.60948	-0.284
Mof_N 	N 	0.07844	0.0033	0.56315	-0.283
Mof_N 	N 	0.3144	0.4908	0.7216	-0.276
Mof_N 	N 	0.37793	0.0546	0.85724	-0.276
Mof_N 	N 	0.92953	0.4846	0.44958	-0.276
Mof_Zn	Zn	0.82623	0.85495	0.72578	1.164
Mof_Zn	Zn	0.12334	0.09063	0.56599	1.163
Mof_Zn	Zn	0.41625	0.12232	0.90611	1.155
Mof_I 	I 	0.38329	0.2403	0.9435	-0.15
Mof_I 	I 	0.37457	0.224	0.9434	-0.194
Mof_I 	I 	0.48034	0.136	0.86962	-0.294
Mof_I 	I 	0.11238	0.2322	0.5919	-0.018
_end
