# CIF file generated by openbabel 3.1.0, see https://openbabel.org
data_I
_chemical_name_common 'image0'
_cell_length_a 53.965
_cell_length_b 12.9968
_cell_length_c 21.607
_cell_angle_alpha 90
_cell_angle_beta 107.366
_cell_angle_gamma 90
_space_group_name_H-M_alt 'P 1'
_space_group_name_Hall 'P 1'
loop_
    _symmetry_equiv_pos_as_xyz
    x,y,z
loop_
    _atom_site_label
    _atom_site_type_symbol
    _atom_site_fract_x
    _atom_site_fract_y
    _atom_site_fract_z
    _atom_site_occupancy
    Cd1      Cd       0.12505    0.46517    0.30894    1.000
    Cd2      Cd       0.17366    0.29698    0.45032    1.000
    Cd3      Cd       0.07503    0.60420    0.15635    1.000
    O1       O        0.15534    0.45200    0.41430    1.000
    O2       O        0.19095    0.48250    0.49200    1.000
    O3       O        0.12171    0.61100    0.40520    1.000
    O4       O        0.09986    0.61830    0.27780    1.000
    O5       O        0.05947    0.66730    0.23930    1.000
    O6       O        0.14115    0.29470    0.31200    1.000
    O7       O        0.14326    0.19140    0.39500    1.000
    O8       O        0.10606    0.24770    0.19660    1.000
    O9       O        0.10024    0.45610    0.19580    1.000
    O10      O        0.09964    0.50620    0.09780    1.000
    O11      O        0.17166    0.26530    0.54870    1.000
    O12      O        0.18728    0.12140    0.52420    1.000
    O13      O        0.13029    0.16170    0.58550    1.000
    O14      O        0.09585    0.24680    0.64670    1.000
    O15      O        0.05926    0.26470    0.56980    1.000
    N1       N        0.09083    0.39300    0.33100    1.000
    N2       N        0.06707    0.28690    0.36900    1.000
    N3       N        0.99506    0.40780    0.42340    1.000
    N4       N        0.96055    0.50820    0.39260    1.000
    N5       N        0.25582    0.71260    0.09690    1.000
    N6       N        0.28904    0.77820    0.07150    1.000
    C1       C        0.08830    0.35040    0.38490    1.000
    C2       C        0.05621    0.29200    0.30250    1.000
    H1       H        0.04150    0.25720    0.27800    1.000
    C3       C        0.07084    0.35650    0.28020    1.000
    H2       H        0.06790    0.37400    0.23680    1.000
    C4       C        0.10463    0.36590    0.45250    1.000
    H3       H        0.11070    0.30040    0.47180    1.000
    H4       H        0.09460    0.39880    0.47680    1.000
    H5       H        0.11920    0.40840    0.45300    1.000
    C5       C        0.05975    0.21650    0.41280    1.000
    H6       H        0.06240    0.25020    0.45430    1.000
    H7       H        0.07100    0.15680    0.41980    1.000
    C6       C        0.03246    0.18230    0.38800    1.000
    C7       C        0.02649    0.08600    0.35870    1.000
    H8       H        0.03990    0.04260    0.35680    1.000
    C8       C        0.00162    0.05400    0.33300    1.000
    H9       H        0.99830    0.98960    0.31360    1.000
    C9       C        0.98176    0.11420    0.33520    1.000
    H10      H        0.96480    0.09160    0.31710    1.000
    C10      C        0.98645    0.21090    0.36460    1.000
    H11      H        0.97260    0.25180    0.36710    1.000
    C11      C        0.01193    0.24610    0.39020    1.000
    C12      C        0.01786    0.34980    0.42210    1.000
    H12      H        0.02890    0.34030    0.46620    1.000
    H13      H        0.02750    0.38990    0.39920    1.000
    C13      C        0.98121    0.47440    0.37790    1.000
    C14      C        0.96091    0.45930    0.44900    1.000
    H14      H        0.94840    0.46760    0.47040    1.000
    C15      C        0.98189    0.39740    0.46920    1.000
    H15      H        0.98650    0.35640    0.50610    1.000
    C16      C        0.98869    0.50510    0.31950    1.000
    H16      H        0.97720    0.55820    0.29660    1.000
    H17      H        0.98740    0.44650    0.29160    1.000
    H18      H        0.00620    0.53010    0.33260    1.000
    N7       N        0.15248    0.55200    0.26890    1.000
    C17      C        0.17424    0.50460    0.25620    1.000
    N8       N        0.18125    0.56540    0.20940    1.000
    C18      C        0.16381    0.65030    0.19320    1.000
    H19      H        0.16410    0.70070    0.16220    1.000
    C19      C        0.14670    0.64080    0.23510    1.000
    H20      H        0.13290    0.68770    0.23390    1.000
    C20      C        0.18840    0.40840    0.27860    1.000
    H21      H        0.20250    0.39470    0.26110    1.000
    H22      H        0.19510    0.41570    0.32480    1.000
    H23      H        0.17630    0.35240    0.26830    1.000
    C21      C        0.20062    0.57280    0.18200    1.000
    H24      H        0.19400    0.60540    0.14050    1.000
    H25      H        0.20600    0.50470    0.17480    1.000
    C22      C        0.22404    0.63190    0.22140    1.000
    C23      C        0.22653    0.65780    0.28580    1.000
    H26      H        0.21380    0.63780    0.30450    1.000
    C24      C        0.24687    0.71050    0.32010    1.000
    H27      H        0.24790    0.72870    0.36240    1.000
    C25      C        0.26675    0.73990    0.29560    1.000
    H28      H        0.28160    0.77230    0.32160    1.000
    C26      C        0.26379    0.71970    0.23220    1.000
    H29      H        0.27650    0.74140    0.21400    1.000
    C27      C        0.24253    0.66810    0.19430    1.000
    C28      C        0.23942    0.64810    0.12300    1.000
    H30      H        0.24340    0.57660    0.11760    1.000
    H31      H        0.22140    0.65960    0.09820    1.000
    C29      C        0.27961    0.69730    0.09380    1.000
    C30      C        0.26934    0.85220    0.06000    1.000
    H32      H        0.27010    0.91800    0.04380    1.000
    C31      C        0.24951    0.81360    0.07590    1.000
    H33      H        0.23410    0.84750    0.07360    1.000
    C32      C        0.29423    0.59930    0.11050    1.000
    H34      H        0.30040    0.57840    0.07510    1.000
    H35      H        0.28300    0.54710    0.11880    1.000
    H36      H        0.30880    0.60910    0.14860    1.000
    C33      C        0.17170    0.51530    0.45010    1.000
    C34      C        0.16756    0.62730    0.44180    1.000
    C35      C        0.18966    0.69150    0.46120    1.000
    H37      H        0.20610    0.66220    0.47550    1.000
    C36      C        0.18700    0.80280    0.45930    1.000
    H38      H        0.20130    0.84610    0.47410    1.000
    C37      C        0.16257    0.84020    0.43480    1.000
    H39      H        0.16050    0.91120    0.43110    1.000
    C38      C        0.14074    0.78110    0.41530    1.000
    H40      H        0.12450    0.81130    0.39850    1.000
    C39      C        0.14324    0.67500    0.42090    1.000
    C40      C        0.09830    0.64910    0.40860    1.000
    C41      C        0.09541    0.66250    0.46870    1.000
    H41      H        0.10940    0.64990    0.50530    1.000
    C42      C        0.07243    0.69400    0.47590    1.000
    H42      H        0.07090    0.70360    0.51730    1.000
    C43      C        0.05162    0.71140    0.42290    1.000
    H43      H        0.03590    0.73390    0.42750    1.000
    C44      C        0.05439    0.69480    0.36210    1.000
    H44      H        0.04010    0.70440    0.32570    1.000
    C45      C        0.07782    0.66420    0.35340    1.000
    C46      C        0.07946    0.64870    0.28680    1.000
    C47      C        0.13504    0.21640    0.33540    1.000
    C48      C        0.11652    0.13990    0.29250    1.000
    C49      C        0.11068    0.04830    0.31920    1.000
    H45      H        0.11800    0.03630    0.36340    1.000
    C50      C        0.09434    0.97490    0.28160    1.000
    H46      H        0.09070    0.91470    0.30060    1.000
    C51      C        0.08386    0.99070    0.21830    1.000
    H47      H        0.07310    0.94080    0.19310    1.000
    C52      C        0.08873    0.08090    0.18900    1.000
    H48      H        0.08130    0.09170    0.14470    1.000
    C53      C        0.10496    0.15470    0.22750    1.000
    C54      C        0.12547    0.26580    0.16970    1.000
    C55      C        0.14293    0.19090    0.16460    1.000
    H49      H        0.14240    0.12610    0.18240    1.000
    C56      C        0.16104    0.21190    0.13330    1.000
    H50      H        0.17240    0.16040    0.12940    1.000
    C57      C        0.16266    0.30570    0.10820    1.000
    H51      H        0.17560    0.32020    0.08910    1.000
    C58      C        0.14452    0.38090    0.11140    1.000
    H52      H        0.14490    0.44430    0.09180    1.000
    C59      C        0.12634    0.36390    0.14240    1.000
    C60      C        0.10751    0.44620    0.14540    1.000
    C61      C        0.17835    0.17250    0.55940    1.000
    C62      C        0.17566    0.12820    0.62140    1.000
    C63      C        0.19694    0.09280    0.66850    1.000
    H53      H        0.21320    0.09340    0.66170    1.000
    C64      C        0.19435    0.05620    0.72620    1.000
    H54      H        0.20890    0.03150    0.75790    1.000
    C65      C        0.17071    0.05560    0.73740    1.000
    H55      H        0.16940    0.03330    0.77720    1.000
    C66      C        0.14876    0.08810    0.68990    1.000
    H56      H        0.13250    0.08610    0.69660    1.000
    C67      C        0.15167    0.12350    0.63240    1.000
    C68      C        0.10987    0.09470    0.56080    1.000
    C69      C        0.11417    0.00620    0.53130    1.000
    H57      H        0.13080    0.98950    0.53050    1.000
    C70      C        0.09362    0.94220    0.50290    1.000
    H58      H        0.09630    0.88260    0.48200    1.000
    C71      C        0.06932    0.96600    0.50530    1.000
    H59      H        0.05550    0.92190    0.48690    1.000
    C72      C        0.06525    0.05450    0.53470    1.000
    H60      H        0.04850    0.07040    0.53550    1.000
    C73      C        0.08537    0.12110    0.56320    1.000
    C74      C        0.08025    0.21790    0.59630    1.000
    N9       N        0.15990    0.49750    0.27490    1.000
    C75      C        0.16680    0.55160    0.24070    1.000
    C76      C        0.19710    0.44450    0.25540    1.000
    H61      H        0.21210    0.40720    0.25320    1.000
    N10      N        0.18450    0.54000    0.21860    1.000
    C77      C        0.18180    0.41490    0.28820    1.000
    H62      H        0.18370    0.35780    0.31740    1.000
    C78      C        0.15010    0.64490    0.21190    1.000
    H63      H        0.13600    0.65700    0.22970    1.000
    H64      H        0.16190    0.70200    0.22190    1.000
    H65      H        0.14330    0.63730    0.16570    1.000
    Cd4      Cd       0.62505    0.96517    0.30894    1.000
    Cd5      Cd       0.67366    0.79698    0.45032    1.000
    Cd6      Cd       0.57503    0.10420    0.15635    1.000
    O16      O        0.65534    0.95200    0.41430    1.000
    O17      O        0.69095    0.98250    0.49200    1.000
    O18      O        0.62171    0.11100    0.40520    1.000
    O19      O        0.59986    0.11830    0.27780    1.000
    O20      O        0.55947    0.16730    0.23930    1.000
    O21      O        0.64115    0.79470    0.31200    1.000
    O22      O        0.64326    0.69140    0.39500    1.000
    O23      O        0.60606    0.74770    0.19660    1.000
    O24      O        0.60024    0.95610    0.19580    1.000
    O25      O        0.59964    0.00620    0.09780    1.000
    O26      O        0.67166    0.76530    0.54870    1.000
    O27      O        0.68728    0.62140    0.52420    1.000
    O28      O        0.63029    0.66170    0.58550    1.000
    O29      O        0.59585    0.74680    0.64670    1.000
    O30      O        0.55926    0.76470    0.56980    1.000
    N11      N        0.59083    0.89300    0.33100    1.000
    N12      N        0.56707    0.78690    0.36900    1.000
    N13      N        0.49506    0.90780    0.42340    1.000
    N14      N        0.46055    0.00820    0.39260    1.000
    N15      N        0.75582    0.21260    0.09690    1.000
    N16      N        0.78904    0.27820    0.07150    1.000
    C79      C        0.58830    0.85040    0.38490    1.000
    C80      C        0.55621    0.79200    0.30250    1.000
    H66      H        0.54150    0.75720    0.27800    1.000
    C81      C        0.57084    0.85650    0.28020    1.000
    H67      H        0.56790    0.87400    0.23680    1.000
    C82      C        0.60463    0.86590    0.45250    1.000
    H68      H        0.61070    0.80040    0.47180    1.000
    H69      H        0.59460    0.89880    0.47680    1.000
    H70      H        0.61920    0.90840    0.45300    1.000
    C83      C        0.55975    0.71650    0.41280    1.000
    H71      H        0.56240    0.75020    0.45430    1.000
    H72      H        0.57100    0.65680    0.41980    1.000
    C84      C        0.53246    0.68230    0.38800    1.000
    C85      C        0.52649    0.58600    0.35870    1.000
    H73      H        0.53990    0.54260    0.35680    1.000
    C86      C        0.50162    0.55400    0.33300    1.000
    H74      H        0.49830    0.48960    0.31360    1.000
    C87      C        0.48176    0.61420    0.33520    1.000
    H75      H        0.46480    0.59160    0.31710    1.000
    C88      C        0.48645    0.71090    0.36460    1.000
    H76      H        0.47260    0.75180    0.36710    1.000
    C89      C        0.51193    0.74610    0.39020    1.000
    C90      C        0.51786    0.84980    0.42210    1.000
    H77      H        0.52890    0.84030    0.46620    1.000
    H78      H        0.52750    0.88990    0.39920    1.000
    C91      C        0.48121    0.97440    0.37790    1.000
    C92      C        0.46091    0.95930    0.44900    1.000
    H79      H        0.44840    0.96760    0.47040    1.000
    C93      C        0.48189    0.89740    0.46920    1.000
    H80      H        0.48650    0.85640    0.50610    1.000
    C94      C        0.48869    0.00510    0.31950    1.000
    H81      H        0.47720    0.05820    0.29660    1.000
    H82      H        0.48740    0.94650    0.29160    1.000
    H83      H        0.50620    0.03010    0.33260    1.000
    N17      N        0.65248    0.05200    0.26890    1.000
    C95      C        0.67424    0.00460    0.25620    1.000
    N18      N        0.68125    0.06540    0.20940    1.000
    C96      C        0.66381    0.15030    0.19320    1.000
    H84      H        0.66410    0.20070    0.16220    1.000
    C97      C        0.64670    0.14080    0.23510    1.000
    H85      H        0.63290    0.18770    0.23390    1.000
    C98      C        0.68840    0.90840    0.27860    1.000
    H86      H        0.70250    0.89470    0.26110    1.000
    H87      H        0.69510    0.91570    0.32480    1.000
    H88      H        0.67630    0.85240    0.26830    1.000
    C99      C        0.70062    0.07280    0.18200    1.000
    H89      H        0.69400    0.10540    0.14050    1.000
    H90      H        0.70600    0.00470    0.17480    1.000
    C100     C        0.72404    0.13190    0.22140    1.000
    C101     C        0.72653    0.15780    0.28580    1.000
    H91      H        0.71380    0.13780    0.30450    1.000
    C102     C        0.74687    0.21050    0.32010    1.000
    H92      H        0.74790    0.22870    0.36240    1.000
    C103     C        0.76675    0.23990    0.29560    1.000
    H93      H        0.78160    0.27230    0.32160    1.000
    C104     C        0.76379    0.21970    0.23220    1.000
    H94      H        0.77650    0.24140    0.21400    1.000
    C105     C        0.74253    0.16810    0.19430    1.000
    C106     C        0.73942    0.14810    0.12300    1.000
    H95      H        0.74340    0.07660    0.11760    1.000
    H96      H        0.72140    0.15960    0.09820    1.000
    C107     C        0.77961    0.19730    0.09380    1.000
    C108     C        0.76934    0.35220    0.06000    1.000
    H97      H        0.77010    0.41800    0.04380    1.000
    C109     C        0.74951    0.31360    0.07590    1.000
    H98      H        0.73410    0.34750    0.07360    1.000
    C110     C        0.79423    0.09930    0.11050    1.000
    H99      H        0.80040    0.07840    0.07510    1.000
    H100     H        0.78300    0.04710    0.11880    1.000
    H101     H        0.80880    0.10910    0.14860    1.000
    C111     C        0.67170    0.01530    0.45010    1.000
    C112     C        0.66756    0.12730    0.44180    1.000
    C113     C        0.68966    0.19150    0.46120    1.000
    H102     H        0.70610    0.16220    0.47550    1.000
    C114     C        0.68700    0.30280    0.45930    1.000
    H103     H        0.70130    0.34610    0.47410    1.000
    C115     C        0.66257    0.34020    0.43480    1.000
    H104     H        0.66050    0.41120    0.43110    1.000
    C116     C        0.64074    0.28110    0.41530    1.000
    H105     H        0.62450    0.31130    0.39850    1.000
    C117     C        0.64324    0.17500    0.42090    1.000
    C118     C        0.59830    0.14910    0.40860    1.000
    C119     C        0.59541    0.16250    0.46870    1.000
    H106     H        0.60940    0.14990    0.50530    1.000
    C120     C        0.57243    0.19400    0.47590    1.000
    H107     H        0.57090    0.20360    0.51730    1.000
    C121     C        0.55162    0.21140    0.42290    1.000
    H108     H        0.53590    0.23390    0.42750    1.000
    C122     C        0.55439    0.19480    0.36210    1.000
    H109     H        0.54010    0.20440    0.32570    1.000
    C123     C        0.57782    0.16420    0.35340    1.000
    C124     C        0.57946    0.14870    0.28680    1.000
    C125     C        0.63504    0.71640    0.33540    1.000
    C126     C        0.61652    0.63990    0.29250    1.000
    C127     C        0.61068    0.54830    0.31920    1.000
    H110     H        0.61800    0.53630    0.36340    1.000
    C128     C        0.59434    0.47490    0.28160    1.000
    H111     H        0.59070    0.41470    0.30060    1.000
    C129     C        0.58386    0.49070    0.21830    1.000
    H112     H        0.57310    0.44080    0.19310    1.000
    C130     C        0.58873    0.58090    0.18900    1.000
    H113     H        0.58130    0.59170    0.14470    1.000
    C131     C        0.60496    0.65470    0.22750    1.000
    C132     C        0.62547    0.76580    0.16970    1.000
    C133     C        0.64293    0.69090    0.16460    1.000
    H114     H        0.64240    0.62610    0.18240    1.000
    C134     C        0.66104    0.71190    0.13330    1.000
    H115     H        0.67240    0.66040    0.12940    1.000
    C135     C        0.66266    0.80570    0.10820    1.000
    H116     H        0.67560    0.82020    0.08910    1.000
    C136     C        0.64452    0.88090    0.11140    1.000
    H117     H        0.64490    0.94430    0.09180    1.000
    C137     C        0.62634    0.86390    0.14240    1.000
    C138     C        0.60751    0.94620    0.14540    1.000
    C139     C        0.67835    0.67250    0.55940    1.000
    C140     C        0.67566    0.62820    0.62140    1.000
    C141     C        0.69694    0.59280    0.66850    1.000
    H118     H        0.71320    0.59340    0.66170    1.000
    C142     C        0.69435    0.55620    0.72620    1.000
    H119     H        0.70890    0.53150    0.75790    1.000
    C143     C        0.67071    0.55560    0.73740    1.000
    H120     H        0.66940    0.53330    0.77720    1.000
    C144     C        0.64876    0.58810    0.68990    1.000
    H121     H        0.63250    0.58610    0.69660    1.000
    C145     C        0.65167    0.62350    0.63240    1.000
    C146     C        0.60987    0.59470    0.56080    1.000
    C147     C        0.61417    0.50620    0.53130    1.000
    H122     H        0.63080    0.48950    0.53050    1.000
    C148     C        0.59362    0.44220    0.50290    1.000
    H123     H        0.59630    0.38260    0.48200    1.000
    C149     C        0.56932    0.46600    0.50530    1.000
    H124     H        0.55550    0.42190    0.48690    1.000
    C150     C        0.56525    0.55450    0.53470    1.000
    H125     H        0.54850    0.57040    0.53550    1.000
    C151     C        0.58537    0.62110    0.56320    1.000
    C152     C        0.58025    0.71790    0.59630    1.000
    N19      N        0.65990    0.99750    0.27490    1.000
    C153     C        0.66680    0.05160    0.24070    1.000
    C154     C        0.69710    0.94450    0.25540    1.000
    H126     H        0.71210    0.90720    0.25320    1.000
    N20      N        0.68450    0.04000    0.21860    1.000
    C155     C        0.68180    0.91490    0.28820    1.000
    H127     H        0.68370    0.85780    0.31740    1.000
    C156     C        0.65010    0.14490    0.21190    1.000
    H128     H        0.63600    0.15700    0.22970    1.000
    H129     H        0.66190    0.20200    0.22190    1.000
    H130     H        0.64330    0.13730    0.16570    1.000
    Cd7      Cd       0.87495    0.46517    0.19106    1.000
    Cd8      Cd       0.82634    0.29698    0.04968    1.000
    Cd9      Cd       0.92497    0.60420    0.34365    1.000
    O31      O        0.84466    0.45200    0.08570    1.000
    O32      O        0.80905    0.48250    0.00800    1.000
    O33      O        0.87829    0.61100    0.09480    1.000
    O34      O        0.90014    0.61830    0.22220    1.000
    O35      O        0.94053    0.66730    0.26070    1.000
    O36      O        0.85885    0.29470    0.18800    1.000
    O37      O        0.85674    0.19140    0.10500    1.000
    O38      O        0.89394    0.24770    0.30340    1.000
    O39      O        0.89976    0.45610    0.30420    1.000
    O40      O        0.90036    0.50620    0.40220    1.000
    O41      O        0.82834    0.26530    0.95130    1.000
    O42      O        0.81272    0.12140    0.97580    1.000
    O43      O        0.86971    0.16170    0.91450    1.000
    O44      O        0.90415    0.24680    0.85330    1.000
    O45      O        0.94074    0.26470    0.93020    1.000
    N21      N        0.90917    0.39300    0.16900    1.000
    N22      N        0.93293    0.28690    0.13100    1.000
    N23      N        0.00494    0.40780    0.07660    1.000
    N24      N        0.03945    0.50820    0.10740    1.000
    N25      N        0.74418    0.71260    0.40310    1.000
    N26      N        0.71096    0.77820    0.42850    1.000
    C157     C        0.91170    0.35040    0.11510    1.000
    C158     C        0.94379    0.29200    0.19750    1.000
    H131     H        0.95850    0.25720    0.22200    1.000
    C159     C        0.92916    0.35650    0.21980    1.000
    H132     H        0.93210    0.37400    0.26320    1.000
    C160     C        0.89537    0.36590    0.04750    1.000
    H133     H        0.88930    0.30040    0.02820    1.000
    H134     H        0.90540    0.39880    0.02320    1.000
    H135     H        0.88080    0.40840    0.04700    1.000
    C161     C        0.94025    0.21650    0.08720    1.000
    H136     H        0.93760    0.25020    0.04570    1.000
    H137     H        0.92900    0.15680    0.08020    1.000
    C162     C        0.96754    0.18230    0.11200    1.000
    C163     C        0.97351    0.08600    0.14130    1.000
    H138     H        0.96010    0.04260    0.14320    1.000
    C164     C        0.99838    0.05400    0.16700    1.000
    H139     H        0.00170    0.98960    0.18640    1.000
    C165     C        0.01824    0.11420    0.16480    1.000
    H140     H        0.03520    0.09160    0.18290    1.000
    C166     C        0.01355    0.21090    0.13540    1.000
    H141     H        0.02740    0.25180    0.13290    1.000
    C167     C        0.98807    0.24610    0.10980    1.000
    C168     C        0.98214    0.34980    0.07790    1.000
    H142     H        0.97110    0.34030    0.03380    1.000
    H143     H        0.97250    0.38990    0.10080    1.000
    C169     C        0.01879    0.47440    0.12210    1.000
    C170     C        0.03909    0.45930    0.05100    1.000
    H144     H        0.05160    0.46760    0.02960    1.000
    C171     C        0.01811    0.39740    0.03080    1.000
    H145     H        0.01350    0.35640    0.99390    1.000
    C172     C        0.01131    0.50510    0.18050    1.000
    H146     H        0.02280    0.55820    0.20340    1.000
    H147     H        0.01260    0.44650    0.20840    1.000
    H148     H        0.99380    0.53010    0.16740    1.000
    N27      N        0.84752    0.55200    0.23110    1.000
    C173     C        0.82576    0.50460    0.24380    1.000
    N28      N        0.81875    0.56540    0.29060    1.000
    C174     C        0.83619    0.65030    0.30680    1.000
    H149     H        0.83590    0.70070    0.33780    1.000
    C175     C        0.85330    0.64080    0.26490    1.000
    H150     H        0.86710    0.68770    0.26610    1.000
    C176     C        0.81160    0.40840    0.22140    1.000
    H151     H        0.79750    0.39470    0.23890    1.000
    H152     H        0.80490    0.41570    0.17520    1.000
    H153     H        0.82370    0.35240    0.23170    1.000
    C177     C        0.79938    0.57280    0.31800    1.000
    H154     H        0.80600    0.60540    0.35950    1.000
    H155     H        0.79400    0.50470    0.32520    1.000
    C178     C        0.77596    0.63190    0.27860    1.000
    C179     C        0.77347    0.65780    0.21420    1.000
    H156     H        0.78620    0.63780    0.19550    1.000
    C180     C        0.75313    0.71050    0.17990    1.000
    H157     H        0.75210    0.72870    0.13760    1.000
    C181     C        0.73325    0.73990    0.20440    1.000
    H158     H        0.71840    0.77230    0.17840    1.000
    C182     C        0.73621    0.71970    0.26780    1.000
    H159     H        0.72350    0.74140    0.28600    1.000
    C183     C        0.75747    0.66810    0.30570    1.000
    C184     C        0.76058    0.64810    0.37700    1.000
    H160     H        0.75660    0.57660    0.38240    1.000
    H161     H        0.77860    0.65960    0.40180    1.000
    C185     C        0.72039    0.69730    0.40620    1.000
    C186     C        0.73066    0.85220    0.44000    1.000
    H162     H        0.72990    0.91800    0.45620    1.000
    C187     C        0.75049    0.81360    0.42410    1.000
    H163     H        0.76590    0.84750    0.42640    1.000
    C188     C        0.70577    0.59930    0.38950    1.000
    H164     H        0.69960    0.57840    0.42490    1.000
    H165     H        0.71700    0.54710    0.38120    1.000
    H166     H        0.69120    0.60910    0.35140    1.000
    C189     C        0.82830    0.51530    0.04990    1.000
    C190     C        0.83244    0.62730    0.05820    1.000
    C191     C        0.81034    0.69150    0.03880    1.000
    H167     H        0.79390    0.66220    0.02450    1.000
    C192     C        0.81300    0.80280    0.04070    1.000
    H168     H        0.79870    0.84610    0.02590    1.000
    C193     C        0.83743    0.84020    0.06520    1.000
    H169     H        0.83950    0.91120    0.06890    1.000
    C194     C        0.85926    0.78110    0.08470    1.000
    H170     H        0.87550    0.81130    0.10150    1.000
    C195     C        0.85676    0.67500    0.07910    1.000
    C196     C        0.90170    0.64910    0.09140    1.000
    C197     C        0.90459    0.66250    0.03130    1.000
    H171     H        0.89060    0.64990    0.99470    1.000
    C198     C        0.92757    0.69400    0.02410    1.000
    H172     H        0.92910    0.70360    0.98270    1.000
    C199     C        0.94838    0.71140    0.07710    1.000
    H173     H        0.96410    0.73390    0.07250    1.000
    C200     C        0.94561    0.69480    0.13790    1.000
    H174     H        0.95990    0.70440    0.17430    1.000
    C201     C        0.92218    0.66420    0.14660    1.000
    C202     C        0.92054    0.64870    0.21320    1.000
    C203     C        0.86496    0.21640    0.16460    1.000
    C204     C        0.88348    0.13990    0.20750    1.000
    C205     C        0.88932    0.04830    0.18080    1.000
    H175     H        0.88200    0.03630    0.13660    1.000
    C206     C        0.90566    0.97490    0.21840    1.000
    H176     H        0.90930    0.91470    0.19940    1.000
    C207     C        0.91614    0.99070    0.28170    1.000
    H177     H        0.92690    0.94080    0.30690    1.000
    C208     C        0.91127    0.08090    0.31100    1.000
    H178     H        0.91870    0.09170    0.35530    1.000
    C209     C        0.89504    0.15470    0.27250    1.000
    C210     C        0.87453    0.26580    0.33030    1.000
    C211     C        0.85707    0.19090    0.33540    1.000
    H179     H        0.85760    0.12610    0.31760    1.000
    C212     C        0.83896    0.21190    0.36670    1.000
    H180     H        0.82760    0.16040    0.37060    1.000
    C213     C        0.83734    0.30570    0.39180    1.000
    H181     H        0.82440    0.32020    0.41090    1.000
    C214     C        0.85548    0.38090    0.38860    1.000
    H182     H        0.85510    0.44430    0.40820    1.000
    C215     C        0.87366    0.36390    0.35760    1.000
    C216     C        0.89249    0.44620    0.35460    1.000
    C217     C        0.82165    0.17250    0.94060    1.000
    C218     C        0.82434    0.12820    0.87860    1.000
    C219     C        0.80306    0.09280    0.83150    1.000
    H183     H        0.78680    0.09340    0.83830    1.000
    C220     C        0.80565    0.05620    0.77380    1.000
    H184     H        0.79110    0.03150    0.74210    1.000
    C221     C        0.82929    0.05560    0.76260    1.000
    H185     H        0.83060    0.03330    0.72280    1.000
    C222     C        0.85124    0.08810    0.81010    1.000
    H186     H        0.86750    0.08610    0.80340    1.000
    C223     C        0.84833    0.12350    0.86760    1.000
    C224     C        0.89013    0.09470    0.93920    1.000
    C225     C        0.88583    0.00620    0.96870    1.000
    H187     H        0.86920    0.98950    0.96950    1.000
    C226     C        0.90638    0.94220    0.99710    1.000
    H188     H        0.90370    0.88260    0.01800    1.000
    C227     C        0.93068    0.96600    0.99470    1.000
    H189     H        0.94450    0.92190    0.01310    1.000
    C228     C        0.93475    0.05450    0.96530    1.000
    H190     H        0.95150    0.07040    0.96450    1.000
    C229     C        0.91463    0.12110    0.93680    1.000
    C230     C        0.91975    0.21790    0.90370    1.000
    N29      N        0.84010    0.49750    0.22510    1.000
    C231     C        0.83320    0.55160    0.25930    1.000
    C232     C        0.80290    0.44450    0.24460    1.000
    H191     H        0.78790    0.40720    0.24680    1.000
    N30      N        0.81550    0.54000    0.28140    1.000
    C233     C        0.81820    0.41490    0.21180    1.000
    H192     H        0.81630    0.35780    0.18260    1.000
    C234     C        0.84990    0.64490    0.28810    1.000
    H193     H        0.86400    0.65700    0.27030    1.000
    H194     H        0.83810    0.70200    0.27810    1.000
    H195     H        0.85670    0.63730    0.33430    1.000
    Cd10     Cd       0.37495    0.96517    0.19106    1.000
    Cd11     Cd       0.32634    0.79698    0.04968    1.000
    Cd12     Cd       0.42497    0.10420    0.34365    1.000
    O46      O        0.34466    0.95200    0.08570    1.000
    O47      O        0.30905    0.98250    0.00800    1.000
    O48      O        0.37829    0.11100    0.09480    1.000
    O49      O        0.40014    0.11830    0.22220    1.000
    O50      O        0.44053    0.16730    0.26070    1.000
    O51      O        0.35885    0.79470    0.18800    1.000
    O52      O        0.35674    0.69140    0.10500    1.000
    O53      O        0.39394    0.74770    0.30340    1.000
    O54      O        0.39976    0.95610    0.30420    1.000
    O55      O        0.40036    0.00620    0.40220    1.000
    O56      O        0.32834    0.76530    0.95130    1.000
    O57      O        0.31272    0.62140    0.97580    1.000
    O58      O        0.36971    0.66170    0.91450    1.000
    O59      O        0.40415    0.74680    0.85330    1.000
    O60      O        0.44074    0.76470    0.93020    1.000
    N31      N        0.40917    0.89300    0.16900    1.000
    N32      N        0.43293    0.78690    0.13100    1.000
    N33      N        0.50494    0.90780    0.07660    1.000
    N34      N        0.53945    0.00820    0.10740    1.000
    N35      N        0.24418    0.21260    0.40310    1.000
    N36      N        0.21096    0.27820    0.42850    1.000
    C235     C        0.41170    0.85040    0.11510    1.000
    C236     C        0.44379    0.79200    0.19750    1.000
    H196     H        0.45850    0.75720    0.22200    1.000
    C237     C        0.42916    0.85650    0.21980    1.000
    H197     H        0.43210    0.87400    0.26320    1.000
    C238     C        0.39537    0.86590    0.04750    1.000
    H198     H        0.38930    0.80040    0.02820    1.000
    H199     H        0.40540    0.89880    0.02320    1.000
    H200     H        0.38080    0.90840    0.04700    1.000
    C239     C        0.44025    0.71650    0.08720    1.000
    H201     H        0.43760    0.75020    0.04570    1.000
    H202     H        0.42900    0.65680    0.08020    1.000
    C240     C        0.46754    0.68230    0.11200    1.000
    C241     C        0.47351    0.58600    0.14130    1.000
    H203     H        0.46010    0.54260    0.14320    1.000
    C242     C        0.49838    0.55400    0.16700    1.000
    H204     H        0.50170    0.48960    0.18640    1.000
    C243     C        0.51824    0.61420    0.16480    1.000
    H205     H        0.53520    0.59160    0.18290    1.000
    C244     C        0.51355    0.71090    0.13540    1.000
    H206     H        0.52740    0.75180    0.13290    1.000
    C245     C        0.48807    0.74610    0.10980    1.000
    C246     C        0.48214    0.84980    0.07790    1.000
    H207     H        0.47110    0.84030    0.03380    1.000
    H208     H        0.47250    0.88990    0.10080    1.000
    C247     C        0.51879    0.97440    0.12210    1.000
    C248     C        0.53909    0.95930    0.05100    1.000
    H209     H        0.55160    0.96760    0.02960    1.000
    C249     C        0.51811    0.89740    0.03080    1.000
    H210     H        0.51350    0.85640    0.99390    1.000
    C250     C        0.51131    0.00510    0.18050    1.000
    H211     H        0.52280    0.05820    0.20340    1.000
    H212     H        0.51260    0.94650    0.20840    1.000
    H213     H        0.49380    0.03010    0.16740    1.000
    N37      N        0.34752    0.05200    0.23110    1.000
    C251     C        0.32576    0.00460    0.24380    1.000
    N38      N        0.31875    0.06540    0.29060    1.000
    C252     C        0.33619    0.15030    0.30680    1.000
    H214     H        0.33590    0.20070    0.33780    1.000
    C253     C        0.35330    0.14080    0.26490    1.000
    H215     H        0.36710    0.18770    0.26610    1.000
    C254     C        0.31160    0.90840    0.22140    1.000
    H216     H        0.29750    0.89470    0.23890    1.000
    H217     H        0.30490    0.91570    0.17520    1.000
    H218     H        0.32370    0.85240    0.23170    1.000
    C255     C        0.29938    0.07280    0.31800    1.000
    H219     H        0.30600    0.10540    0.35950    1.000
    H220     H        0.29400    0.00470    0.32520    1.000
    C256     C        0.27596    0.13190    0.27860    1.000
    C257     C        0.27347    0.15780    0.21420    1.000
    H221     H        0.28620    0.13780    0.19550    1.000
    C258     C        0.25313    0.21050    0.17990    1.000
    H222     H        0.25210    0.22870    0.13760    1.000
    C259     C        0.23325    0.23990    0.20440    1.000
    H223     H        0.21840    0.27230    0.17840    1.000
    C260     C        0.23621    0.21970    0.26780    1.000
    H224     H        0.22350    0.24140    0.28600    1.000
    C261     C        0.25747    0.16810    0.30570    1.000
    C262     C        0.26058    0.14810    0.37700    1.000
    H225     H        0.25660    0.07660    0.38240    1.000
    H226     H        0.27860    0.15960    0.40180    1.000
    C263     C        0.22039    0.19730    0.40620    1.000
    C264     C        0.23066    0.35220    0.44000    1.000
    H227     H        0.22990    0.41800    0.45620    1.000
    C265     C        0.25049    0.31360    0.42410    1.000
    H228     H        0.26590    0.34750    0.42640    1.000
    C266     C        0.20577    0.09930    0.38950    1.000
    H229     H        0.19960    0.07840    0.42490    1.000
    H230     H        0.21700    0.04710    0.38120    1.000
    H231     H        0.19120    0.10910    0.35140    1.000
    C267     C        0.32830    0.01530    0.04990    1.000
    C268     C        0.33244    0.12730    0.05820    1.000
    C269     C        0.31034    0.19150    0.03880    1.000
    H232     H        0.29390    0.16220    0.02450    1.000
    C270     C        0.31300    0.30280    0.04070    1.000
    H233     H        0.29870    0.34610    0.02590    1.000
    C271     C        0.33743    0.34020    0.06520    1.000
    H234     H        0.33950    0.41120    0.06890    1.000
    C272     C        0.35926    0.28110    0.08470    1.000
    H235     H        0.37550    0.31130    0.10150    1.000
    C273     C        0.35676    0.17500    0.07910    1.000
    C274     C        0.40170    0.14910    0.09140    1.000
    C275     C        0.40459    0.16250    0.03130    1.000
    H236     H        0.39060    0.14990    0.99470    1.000
    C276     C        0.42757    0.19400    0.02410    1.000
    H237     H        0.42910    0.20360    0.98270    1.000
    C277     C        0.44838    0.21140    0.07710    1.000
    H238     H        0.46410    0.23390    0.07250    1.000
    C278     C        0.44561    0.19480    0.13790    1.000
    H239     H        0.45990    0.20440    0.17430    1.000
    C279     C        0.42218    0.16420    0.14660    1.000
    C280     C        0.42054    0.14870    0.21320    1.000
    C281     C        0.36496    0.71640    0.16460    1.000
    C282     C        0.38348    0.63990    0.20750    1.000
    C283     C        0.38932    0.54830    0.18080    1.000
    H240     H        0.38200    0.53630    0.13660    1.000
    C284     C        0.40566    0.47490    0.21840    1.000
    H241     H        0.40930    0.41470    0.19940    1.000
    C285     C        0.41614    0.49070    0.28170    1.000
    H242     H        0.42690    0.44080    0.30690    1.000
    C286     C        0.41127    0.58090    0.31100    1.000
    H243     H        0.41870    0.59170    0.35530    1.000
    C287     C        0.39504    0.65470    0.27250    1.000
    C288     C        0.37453    0.76580    0.33030    1.000
    C289     C        0.35707    0.69090    0.33540    1.000
    H244     H        0.35760    0.62610    0.31760    1.000
    C290     C        0.33896    0.71190    0.36670    1.000
    H245     H        0.32760    0.66040    0.37060    1.000
    C291     C        0.33734    0.80570    0.39180    1.000
    H246     H        0.32440    0.82020    0.41090    1.000
    C292     C        0.35548    0.88090    0.38860    1.000
    H247     H        0.35510    0.94430    0.40820    1.000
    C293     C        0.37366    0.86390    0.35760    1.000
    C294     C        0.39249    0.94620    0.35460    1.000
    C295     C        0.32165    0.67250    0.94060    1.000
    C296     C        0.32434    0.62820    0.87860    1.000
    C297     C        0.30306    0.59280    0.83150    1.000
    H248     H        0.28680    0.59340    0.83830    1.000
    C298     C        0.30565    0.55620    0.77380    1.000
    H249     H        0.29110    0.53150    0.74210    1.000
    C299     C        0.32929    0.55560    0.76260    1.000
    H250     H        0.33060    0.53330    0.72280    1.000
    C300     C        0.35124    0.58810    0.81010    1.000
    H251     H        0.36750    0.58610    0.80340    1.000
    C301     C        0.34833    0.62350    0.86760    1.000
    C302     C        0.39013    0.59470    0.93920    1.000
    C303     C        0.38583    0.50620    0.96870    1.000
    H252     H        0.36920    0.48950    0.96950    1.000
    C304     C        0.40638    0.44220    0.99710    1.000
    H253     H        0.40370    0.38260    0.01800    1.000
    C305     C        0.43068    0.46600    0.99470    1.000
    H254     H        0.44450    0.42190    0.01310    1.000
    C306     C        0.43475    0.55450    0.96530    1.000
    H255     H        0.45150    0.57040    0.96450    1.000
    C307     C        0.41463    0.62110    0.93680    1.000
    C308     C        0.41975    0.71790    0.90370    1.000
    N39      N        0.34010    0.99750    0.22510    1.000
    C309     C        0.33320    0.05160    0.25930    1.000
    C310     C        0.30290    0.94450    0.24460    1.000
    H256     H        0.28790    0.90720    0.24680    1.000
    N40      N        0.31550    0.04000    0.28140    1.000
    C311     C        0.31820    0.91490    0.21180    1.000
    H257     H        0.31630    0.85780    0.18260    1.000
    C312     C        0.34990    0.14490    0.28810    1.000
    H258     H        0.36400    0.15700    0.27030    1.000
    H259     H        0.33810    0.20200    0.27810    1.000
    H260     H        0.35670    0.13730    0.33430    1.000
    Cd13     Cd       0.87495    0.53483    0.69106    1.000
    Cd14     Cd       0.82634    0.70302    0.54968    1.000
    Cd15     Cd       0.92497    0.39580    0.84365    1.000
    O61      O        0.84466    0.54800    0.58570    1.000
    O62      O        0.80905    0.51750    0.50800    1.000
    O63      O        0.87829    0.38900    0.59480    1.000
    O64      O        0.90014    0.38170    0.72220    1.000
    O65      O        0.94053    0.33270    0.76070    1.000
    O66      O        0.85885    0.70530    0.68800    1.000
    O67      O        0.85674    0.80860    0.60500    1.000
    O68      O        0.89394    0.75230    0.80340    1.000
    O69      O        0.89976    0.54390    0.80420    1.000
    O70      O        0.90036    0.49380    0.90220    1.000
    O71      O        0.82834    0.73470    0.45130    1.000
    O72      O        0.81272    0.87860    0.47580    1.000
    O73      O        0.86971    0.83830    0.41450    1.000
    O74      O        0.90415    0.75320    0.35330    1.000
    O75      O        0.94074    0.73530    0.43020    1.000
    N41      N        0.90917    0.60700    0.66900    1.000
    N42      N        0.93293    0.71310    0.63100    1.000
    N43      N        0.00494    0.59220    0.57660    1.000
    N44      N        0.03945    0.49180    0.60740    1.000
    N45      N        0.74418    0.28740    0.90310    1.000
    N46      N        0.71096    0.22180    0.92850    1.000
    C313     C        0.91170    0.64960    0.61510    1.000
    C314     C        0.94379    0.70800    0.69750    1.000
    H261     H        0.95850    0.74280    0.72200    1.000
    C315     C        0.92916    0.64350    0.71980    1.000
    H262     H        0.93210    0.62600    0.76320    1.000
    C316     C        0.89537    0.63410    0.54750    1.000
    H263     H        0.88930    0.69960    0.52820    1.000
    H264     H        0.90540    0.60120    0.52320    1.000
    H265     H        0.88080    0.59160    0.54700    1.000
    C317     C        0.94025    0.78350    0.58720    1.000
    H266     H        0.93760    0.74980    0.54570    1.000
    H267     H        0.92900    0.84320    0.58020    1.000
    C318     C        0.96754    0.81770    0.61200    1.000
    C319     C        0.97351    0.91400    0.64130    1.000
    H268     H        0.96010    0.95740    0.64320    1.000
    C320     C        0.99838    0.94600    0.66700    1.000
    H269     H        0.00170    0.01040    0.68640    1.000
    C321     C        0.01824    0.88580    0.66480    1.000
    H270     H        0.03520    0.90840    0.68290    1.000
    C322     C        0.01355    0.78910    0.63540    1.000
    H271     H        0.02740    0.74820    0.63290    1.000
    C323     C        0.98807    0.75390    0.60980    1.000
    C324     C        0.98214    0.65020    0.57790    1.000
    H272     H        0.97110    0.65970    0.53380    1.000
    H273     H        0.97250    0.61010    0.60080    1.000
    C325     C        0.01879    0.52560    0.62210    1.000
    C326     C        0.03909    0.54070    0.55100    1.000
    H274     H        0.05160    0.53240    0.52960    1.000
    C327     C        0.01811    0.60260    0.53080    1.000
    H275     H        0.01350    0.64360    0.49390    1.000
    C328     C        0.01131    0.49490    0.68050    1.000
    H276     H        0.02280    0.44180    0.70340    1.000
    H277     H        0.01260    0.55350    0.70840    1.000
    H278     H        0.99380    0.46990    0.66740    1.000
    N47      N        0.84752    0.44800    0.73110    1.000
    C329     C        0.82576    0.49540    0.74380    1.000
    N48      N        0.81875    0.43460    0.79060    1.000
    C330     C        0.83619    0.34970    0.80680    1.000
    H279     H        0.83590    0.29930    0.83780    1.000
    C331     C        0.85330    0.35920    0.76490    1.000
    H280     H        0.86710    0.31230    0.76610    1.000
    C332     C        0.81160    0.59160    0.72140    1.000
    H281     H        0.79750    0.60530    0.73890    1.000
    H282     H        0.80490    0.58430    0.67520    1.000
    H283     H        0.82370    0.64760    0.73170    1.000
    C333     C        0.79938    0.42720    0.81800    1.000
    H284     H        0.80600    0.39460    0.85950    1.000
    H285     H        0.79400    0.49530    0.82520    1.000
    C334     C        0.77596    0.36810    0.77860    1.000
    C335     C        0.77347    0.34220    0.71420    1.000
    H286     H        0.78620    0.36220    0.69550    1.000
    C336     C        0.75313    0.28950    0.67990    1.000
    H287     H        0.75210    0.27130    0.63760    1.000
    C337     C        0.73325    0.26010    0.70440    1.000
    H288     H        0.71840    0.22770    0.67840    1.000
    C338     C        0.73621    0.28030    0.76780    1.000
    H289     H        0.72350    0.25860    0.78600    1.000
    C339     C        0.75747    0.33190    0.80570    1.000
    C340     C        0.76058    0.35190    0.87700    1.000
    H290     H        0.75660    0.42340    0.88240    1.000
    H291     H        0.77860    0.34040    0.90180    1.000
    C341     C        0.72039    0.30270    0.90620    1.000
    C342     C        0.73066    0.14780    0.94000    1.000
    H292     H        0.72990    0.08200    0.95620    1.000
    C343     C        0.75049    0.18640    0.92410    1.000
    H293     H        0.76590    0.15250    0.92640    1.000
    C344     C        0.70577    0.40070    0.88950    1.000
    H294     H        0.69960    0.42160    0.92490    1.000
    H295     H        0.71700    0.45290    0.88120    1.000
    H296     H        0.69120    0.39090    0.85140    1.000
    C345     C        0.82830    0.48470    0.54990    1.000
    C346     C        0.83244    0.37270    0.55820    1.000
    C347     C        0.81034    0.30850    0.53880    1.000
    H297     H        0.79390    0.33780    0.52450    1.000
    C348     C        0.81300    0.19720    0.54070    1.000
    H298     H        0.79870    0.15390    0.52590    1.000
    C349     C        0.83743    0.15980    0.56520    1.000
    H299     H        0.83950    0.08880    0.56890    1.000
    C350     C        0.85926    0.21890    0.58470    1.000
    H300     H        0.87550    0.18870    0.60150    1.000
    C351     C        0.85676    0.32500    0.57910    1.000
    C352     C        0.90170    0.35090    0.59140    1.000
    C353     C        0.90459    0.33750    0.53130    1.000
    H301     H        0.89060    0.35010    0.49470    1.000
    C354     C        0.92757    0.30600    0.52410    1.000
    H302     H        0.92910    0.29640    0.48270    1.000
    C355     C        0.94838    0.28860    0.57710    1.000
    H303     H        0.96410    0.26610    0.57250    1.000
    C356     C        0.94561    0.30520    0.63790    1.000
    H304     H        0.95990    0.29560    0.67430    1.000
    C357     C        0.92218    0.33580    0.64660    1.000
    C358     C        0.92054    0.35130    0.71320    1.000
    C359     C        0.86496    0.78360    0.66460    1.000
    C360     C        0.88348    0.86010    0.70750    1.000
    C361     C        0.88932    0.95170    0.68080    1.000
    H305     H        0.88200    0.96370    0.63660    1.000
    C362     C        0.90566    0.02510    0.71840    1.000
    H306     H        0.90930    0.08530    0.69940    1.000
    C363     C        0.91614    0.00930    0.78170    1.000
    H307     H        0.92690    0.05920    0.80690    1.000
    C364     C        0.91127    0.91910    0.81100    1.000
    H308     H        0.91870    0.90830    0.85530    1.000
    C365     C        0.89504    0.84530    0.77250    1.000
    C366     C        0.87453    0.73420    0.83030    1.000
    C367     C        0.85707    0.80910    0.83540    1.000
    H309     H        0.85760    0.87390    0.81760    1.000
    C368     C        0.83896    0.78810    0.86670    1.000
    H310     H        0.82760    0.83960    0.87060    1.000
    C369     C        0.83734    0.69430    0.89180    1.000
    H311     H        0.82440    0.67980    0.91090    1.000
    C370     C        0.85548    0.61910    0.88860    1.000
    H312     H        0.85510    0.55570    0.90820    1.000
    C371     C        0.87366    0.63610    0.85760    1.000
    C372     C        0.89249    0.55380    0.85460    1.000
    C373     C        0.82165    0.82750    0.44060    1.000
    C374     C        0.82434    0.87180    0.37860    1.000
    C375     C        0.80306    0.90720    0.33150    1.000
    H313     H        0.78680    0.90660    0.33830    1.000
    C376     C        0.80565    0.94380    0.27380    1.000
    H314     H        0.79110    0.96850    0.24210    1.000
    C377     C        0.82929    0.94440    0.26260    1.000
    H315     H        0.83060    0.96670    0.22280    1.000
    C378     C        0.85124    0.91190    0.31010    1.000
    H316     H        0.86750    0.91390    0.30340    1.000
    C379     C        0.84833    0.87650    0.36760    1.000
    C380     C        0.89013    0.90530    0.43920    1.000
    C381     C        0.88583    0.99380    0.46870    1.000
    H317     H        0.86920    0.01050    0.46950    1.000
    C382     C        0.90638    0.05780    0.49710    1.000
    H318     H        0.90370    0.11740    0.51800    1.000
    C383     C        0.93068    0.03400    0.49470    1.000
    H319     H        0.94450    0.07810    0.51310    1.000
    C384     C        0.93475    0.94550    0.46530    1.000
    H320     H        0.95150    0.92960    0.46450    1.000
    C385     C        0.91463    0.87890    0.43680    1.000
    C386     C        0.91975    0.78210    0.40370    1.000
    N49      N        0.84010    0.50250    0.72510    1.000
    C387     C        0.83320    0.44840    0.75930    1.000
    C388     C        0.80290    0.55550    0.74460    1.000
    H321     H        0.78790    0.59280    0.74680    1.000
    N50      N        0.81550    0.46000    0.78140    1.000
    C389     C        0.81820    0.58510    0.71180    1.000
    H322     H        0.81630    0.64220    0.68260    1.000
    C390     C        0.84990    0.35510    0.78810    1.000
    H323     H        0.86400    0.34300    0.77030    1.000
    H324     H        0.83810    0.29800    0.77810    1.000
    H325     H        0.85670    0.36270    0.83430    1.000
    Cd16     Cd       0.37495    0.03483    0.69106    1.000
    Cd17     Cd       0.32634    0.20302    0.54968    1.000
    Cd18     Cd       0.42497    0.89580    0.84365    1.000
    O76      O        0.34466    0.04800    0.58570    1.000
    O77      O        0.30905    0.01750    0.50800    1.000
    O78      O        0.37829    0.88900    0.59480    1.000
    O79      O        0.40014    0.88170    0.72220    1.000
    O80      O        0.44053    0.83270    0.76070    1.000
    O81      O        0.35885    0.20530    0.68800    1.000
    O82      O        0.35674    0.30860    0.60500    1.000
    O83      O        0.39394    0.25230    0.80340    1.000
    O84      O        0.39976    0.04390    0.80420    1.000
    O85      O        0.40036    0.99380    0.90220    1.000
    O86      O        0.32834    0.23470    0.45130    1.000
    O87      O        0.31272    0.37860    0.47580    1.000
    O88      O        0.36971    0.33830    0.41450    1.000
    O89      O        0.40415    0.25320    0.35330    1.000
    O90      O        0.44074    0.23530    0.43020    1.000
    N51      N        0.40917    0.10700    0.66900    1.000
    N52      N        0.43293    0.21310    0.63100    1.000
    N53      N        0.50494    0.09220    0.57660    1.000
    N54      N        0.53945    0.99180    0.60740    1.000
    N55      N        0.24418    0.78740    0.90310    1.000
    N56      N        0.21096    0.72180    0.92850    1.000
    C391     C        0.41170    0.14960    0.61510    1.000
    C392     C        0.44379    0.20800    0.69750    1.000
    H326     H        0.45850    0.24280    0.72200    1.000
    C393     C        0.42916    0.14350    0.71980    1.000
    H327     H        0.43210    0.12600    0.76320    1.000
    C394     C        0.39537    0.13410    0.54750    1.000
    H328     H        0.38930    0.19960    0.52820    1.000
    H329     H        0.40540    0.10120    0.52320    1.000
    H330     H        0.38080    0.09160    0.54700    1.000
    C395     C        0.44025    0.28350    0.58720    1.000
    H331     H        0.43760    0.24980    0.54570    1.000
    H332     H        0.42900    0.34320    0.58020    1.000
    C396     C        0.46754    0.31770    0.61200    1.000
    C397     C        0.47351    0.41400    0.64130    1.000
    H333     H        0.46010    0.45740    0.64320    1.000
    C398     C        0.49838    0.44600    0.66700    1.000
    H334     H        0.50170    0.51040    0.68640    1.000
    C399     C        0.51824    0.38580    0.66480    1.000
    H335     H        0.53520    0.40840    0.68290    1.000
    C400     C        0.51355    0.28910    0.63540    1.000
    H336     H        0.52740    0.24820    0.63290    1.000
    C401     C        0.48807    0.25390    0.60980    1.000
    C402     C        0.48214    0.15020    0.57790    1.000
    H337     H        0.47110    0.15970    0.53380    1.000
    H338     H        0.47250    0.11010    0.60080    1.000
    C403     C        0.51879    0.02560    0.62210    1.000
    C404     C        0.53909    0.04070    0.55100    1.000
    H339     H        0.55160    0.03240    0.52960    1.000
    C405     C        0.51811    0.10260    0.53080    1.000
    H340     H        0.51350    0.14360    0.49390    1.000
    C406     C        0.51131    0.99490    0.68050    1.000
    H341     H        0.52280    0.94180    0.70340    1.000
    H342     H        0.51260    0.05350    0.70840    1.000
    H343     H        0.49380    0.96990    0.66740    1.000
    N57      N        0.34752    0.94800    0.73110    1.000
    C407     C        0.32576    0.99540    0.74380    1.000
    N58      N        0.31875    0.93460    0.79060    1.000
    C408     C        0.33619    0.84970    0.80680    1.000
    H344     H        0.33590    0.79930    0.83780    1.000
    C409     C        0.35330    0.85920    0.76490    1.000
    H345     H        0.36710    0.81230    0.76610    1.000
    C410     C        0.31160    0.09160    0.72140    1.000
    H346     H        0.29750    0.10530    0.73890    1.000
    H347     H        0.30490    0.08430    0.67520    1.000
    H348     H        0.32370    0.14760    0.73170    1.000
    C411     C        0.29938    0.92720    0.81800    1.000
    H349     H        0.30600    0.89460    0.85950    1.000
    H350     H        0.29400    0.99530    0.82520    1.000
    C412     C        0.27596    0.86810    0.77860    1.000
    C413     C        0.27347    0.84220    0.71420    1.000
    H351     H        0.28620    0.86220    0.69550    1.000
    C414     C        0.25313    0.78950    0.67990    1.000
    H352     H        0.25210    0.77130    0.63760    1.000
    C415     C        0.23325    0.76010    0.70440    1.000
    H353     H        0.21840    0.72770    0.67840    1.000
    C416     C        0.23621    0.78030    0.76780    1.000
    H354     H        0.22350    0.75860    0.78600    1.000
    C417     C        0.25747    0.83190    0.80570    1.000
    C418     C        0.26058    0.85190    0.87700    1.000
    H355     H        0.25660    0.92340    0.88240    1.000
    H356     H        0.27860    0.84040    0.90180    1.000
    C419     C        0.22039    0.80270    0.90620    1.000
    C420     C        0.23066    0.64780    0.94000    1.000
    H357     H        0.22990    0.58200    0.95620    1.000
    C421     C        0.25049    0.68640    0.92410    1.000
    H358     H        0.26590    0.65250    0.92640    1.000
    C422     C        0.20577    0.90070    0.88950    1.000
    H359     H        0.19960    0.92160    0.92490    1.000
    H360     H        0.21700    0.95290    0.88120    1.000
    H361     H        0.19120    0.89090    0.85140    1.000
    C423     C        0.32830    0.98470    0.54990    1.000
    C424     C        0.33244    0.87270    0.55820    1.000
    C425     C        0.31034    0.80850    0.53880    1.000
    H362     H        0.29390    0.83780    0.52450    1.000
    C426     C        0.31300    0.69720    0.54070    1.000
    H363     H        0.29870    0.65390    0.52590    1.000
    C427     C        0.33743    0.65980    0.56520    1.000
    H364     H        0.33950    0.58880    0.56890    1.000
    C428     C        0.35926    0.71890    0.58470    1.000
    H365     H        0.37550    0.68870    0.60150    1.000
    C429     C        0.35676    0.82500    0.57910    1.000
    C430     C        0.40170    0.85090    0.59140    1.000
    C431     C        0.40459    0.83750    0.53130    1.000
    H366     H        0.39060    0.85010    0.49470    1.000
    C432     C        0.42757    0.80600    0.52410    1.000
    H367     H        0.42910    0.79640    0.48270    1.000
    C433     C        0.44838    0.78860    0.57710    1.000
    H368     H        0.46410    0.76610    0.57250    1.000
    C434     C        0.44561    0.80520    0.63790    1.000
    H369     H        0.45990    0.79560    0.67430    1.000
    C435     C        0.42218    0.83580    0.64660    1.000
    C436     C        0.42054    0.85130    0.71320    1.000
    C437     C        0.36496    0.28360    0.66460    1.000
    C438     C        0.38348    0.36010    0.70750    1.000
    C439     C        0.38932    0.45170    0.68080    1.000
    H370     H        0.38200    0.46370    0.63660    1.000
    C440     C        0.40566    0.52510    0.71840    1.000
    H371     H        0.40930    0.58530    0.69940    1.000
    C441     C        0.41614    0.50930    0.78170    1.000
    H372     H        0.42690    0.55920    0.80690    1.000
    C442     C        0.41127    0.41910    0.81100    1.000
    H373     H        0.41870    0.40830    0.85530    1.000
    C443     C        0.39504    0.34530    0.77250    1.000
    C444     C        0.37453    0.23420    0.83030    1.000
    C445     C        0.35707    0.30910    0.83540    1.000
    H374     H        0.35760    0.37390    0.81760    1.000
    C446     C        0.33896    0.28810    0.86670    1.000
    H375     H        0.32760    0.33960    0.87060    1.000
    C447     C        0.33734    0.19430    0.89180    1.000
    H376     H        0.32440    0.17980    0.91090    1.000
    C448     C        0.35548    0.11910    0.88860    1.000
    H377     H        0.35510    0.05570    0.90820    1.000
    C449     C        0.37366    0.13610    0.85760    1.000
    C450     C        0.39249    0.05380    0.85460    1.000
    C451     C        0.32165    0.32750    0.44060    1.000
    C452     C        0.32434    0.37180    0.37860    1.000
    C453     C        0.30306    0.40720    0.33150    1.000
    H378     H        0.28680    0.40660    0.33830    1.000
    C454     C        0.30565    0.44380    0.27380    1.000
    H379     H        0.29110    0.46850    0.24210    1.000
    C455     C        0.32929    0.44440    0.26260    1.000
    H380     H        0.33060    0.46670    0.22280    1.000
    C456     C        0.35124    0.41190    0.31010    1.000
    H381     H        0.36750    0.41390    0.30340    1.000
    C457     C        0.34833    0.37650    0.36760    1.000
    C458     C        0.39013    0.40530    0.43920    1.000
    C459     C        0.38583    0.49380    0.46870    1.000
    H382     H        0.36920    0.51050    0.46950    1.000
    C460     C        0.40638    0.55780    0.49710    1.000
    H383     H        0.40370    0.61740    0.51800    1.000
    C461     C        0.43068    0.53400    0.49470    1.000
    H384     H        0.44450    0.57810    0.51310    1.000
    C462     C        0.43475    0.44550    0.46530    1.000
    H385     H        0.45150    0.42960    0.46450    1.000
    C463     C        0.41463    0.37890    0.43680    1.000
    C464     C        0.41975    0.28210    0.40370    1.000
    N59      N        0.34010    0.00250    0.72510    1.000
    C465     C        0.33320    0.94840    0.75930    1.000
    C466     C        0.30290    0.05550    0.74460    1.000
    H386     H        0.28790    0.09280    0.74680    1.000
    N60      N        0.31550    0.96000    0.78140    1.000
    C467     C        0.31820    0.08510    0.71180    1.000
    H387     H        0.31630    0.14220    0.68260    1.000
    C468     C        0.34990    0.85510    0.78810    1.000
    H388     H        0.36400    0.84300    0.77030    1.000
    H389     H        0.33810    0.79800    0.77810    1.000
    H390     H        0.35670    0.86270    0.83430    1.000
    Cd19     Cd       0.12505    0.53483    0.80894    1.000
    Cd20     Cd       0.17366    0.70302    0.95032    1.000
    Cd21     Cd       0.07503    0.39580    0.65635    1.000
    O91      O        0.15534    0.54800    0.91430    1.000
    O92      O        0.19095    0.51750    0.99200    1.000
    O93      O        0.12171    0.38900    0.90520    1.000
    O94      O        0.09986    0.38170    0.77780    1.000
    O95      O        0.05947    0.33270    0.73930    1.000
    O96      O        0.14115    0.70530    0.81200    1.000
    O97      O        0.14326    0.80860    0.89500    1.000
    O98      O        0.10606    0.75230    0.69660    1.000
    O99      O        0.10024    0.54390    0.69580    1.000
    O100     O        0.09964    0.49380    0.59780    1.000
    O101     O        0.17166    0.73470    0.04870    1.000
    O102     O        0.18728    0.87860    0.02420    1.000
    O103     O        0.13029    0.83830    0.08550    1.000
    O104     O        0.09585    0.75320    0.14670    1.000
    O105     O        0.05926    0.73530    0.06980    1.000
    N61      N        0.09083    0.60700    0.83100    1.000
    N62      N        0.06707    0.71310    0.86900    1.000
    N63      N        0.99506    0.59220    0.92340    1.000
    N64      N        0.96055    0.49180    0.89260    1.000
    N65      N        0.25582    0.28740    0.59690    1.000
    N66      N        0.28904    0.22180    0.57150    1.000
    C469     C        0.08830    0.64960    0.88490    1.000
    C470     C        0.05621    0.70800    0.80250    1.000
    H391     H        0.04150    0.74280    0.77800    1.000
    C471     C        0.07084    0.64350    0.78020    1.000
    H392     H        0.06790    0.62600    0.73680    1.000
    C472     C        0.10463    0.63410    0.95250    1.000
    H393     H        0.11070    0.69960    0.97180    1.000
    H394     H        0.09460    0.60120    0.97680    1.000
    H395     H        0.11920    0.59160    0.95300    1.000
    C473     C        0.05975    0.78350    0.91280    1.000
    H396     H        0.06240    0.74980    0.95430    1.000
    H397     H        0.07100    0.84320    0.91980    1.000
    C474     C        0.03246    0.81770    0.88800    1.000
    C475     C        0.02649    0.91400    0.85870    1.000
    H398     H        0.03990    0.95740    0.85680    1.000
    C476     C        0.00162    0.94600    0.83300    1.000
    H399     H        0.99830    0.01040    0.81360    1.000
    C477     C        0.98176    0.88580    0.83520    1.000
    H400     H        0.96480    0.90840    0.81710    1.000
    C478     C        0.98645    0.78910    0.86460    1.000
    H401     H        0.97260    0.74820    0.86710    1.000
    C479     C        0.01193    0.75390    0.89020    1.000
    C480     C        0.01786    0.65020    0.92210    1.000
    H402     H        0.02890    0.65970    0.96620    1.000
    H403     H        0.02750    0.61010    0.89920    1.000
    C481     C        0.98121    0.52560    0.87790    1.000
    C482     C        0.96091    0.54070    0.94900    1.000
    H404     H        0.94840    0.53240    0.97040    1.000
    C483     C        0.98189    0.60260    0.96920    1.000
    H405     H        0.98650    0.64360    0.00610    1.000
    C484     C        0.98869    0.49490    0.81950    1.000
    H406     H        0.97720    0.44180    0.79660    1.000
    H407     H        0.98740    0.55350    0.79160    1.000
    H408     H        0.00620    0.46990    0.83260    1.000
    N67      N        0.15248    0.44800    0.76890    1.000
    C485     C        0.17424    0.49540    0.75620    1.000
    N68      N        0.18125    0.43460    0.70940    1.000
    C486     C        0.16381    0.34970    0.69320    1.000
    H409     H        0.16410    0.29930    0.66220    1.000
    C487     C        0.14670    0.35920    0.73510    1.000
    H410     H        0.13290    0.31230    0.73390    1.000
    C488     C        0.18840    0.59160    0.77860    1.000
    H411     H        0.20250    0.60530    0.76110    1.000
    H412     H        0.19510    0.58430    0.82480    1.000
    H413     H        0.17630    0.64760    0.76830    1.000
    C489     C        0.20062    0.42720    0.68200    1.000
    H414     H        0.19400    0.39460    0.64050    1.000
    H415     H        0.20600    0.49530    0.67480    1.000
    C490     C        0.22404    0.36810    0.72140    1.000
    C491     C        0.22653    0.34220    0.78580    1.000
    H416     H        0.21380    0.36220    0.80450    1.000
    C492     C        0.24687    0.28950    0.82010    1.000
    H417     H        0.24790    0.27130    0.86240    1.000
    C493     C        0.26675    0.26010    0.79560    1.000
    H418     H        0.28160    0.22770    0.82160    1.000
    C494     C        0.26379    0.28030    0.73220    1.000
    H419     H        0.27650    0.25860    0.71400    1.000
    C495     C        0.24253    0.33190    0.69430    1.000
    C496     C        0.23942    0.35190    0.62300    1.000
    H420     H        0.24340    0.42340    0.61760    1.000
    H421     H        0.22140    0.34040    0.59820    1.000
    C497     C        0.27961    0.30270    0.59380    1.000
    C498     C        0.26934    0.14780    0.56000    1.000
    H422     H        0.27010    0.08200    0.54380    1.000
    C499     C        0.24951    0.18640    0.57590    1.000
    H423     H        0.23410    0.15250    0.57360    1.000
    C500     C        0.29423    0.40070    0.61050    1.000
    H424     H        0.30040    0.42160    0.57510    1.000
    H425     H        0.28300    0.45290    0.61880    1.000
    H426     H        0.30880    0.39090    0.64860    1.000
    C501     C        0.17170    0.48470    0.95010    1.000
    C502     C        0.16756    0.37270    0.94180    1.000
    C503     C        0.18966    0.30850    0.96120    1.000
    H427     H        0.20610    0.33780    0.97550    1.000
    C504     C        0.18700    0.19720    0.95930    1.000
    H428     H        0.20130    0.15390    0.97410    1.000
    C505     C        0.16257    0.15980    0.93480    1.000
    H429     H        0.16050    0.08880    0.93110    1.000
    C506     C        0.14074    0.21890    0.91530    1.000
    H430     H        0.12450    0.18870    0.89850    1.000
    C507     C        0.14324    0.32500    0.92090    1.000
    C508     C        0.09830    0.35090    0.90860    1.000
    C509     C        0.09541    0.33750    0.96870    1.000
    H431     H        0.10940    0.35010    0.00530    1.000
    C510     C        0.07243    0.30600    0.97590    1.000
    H432     H        0.07090    0.29640    0.01730    1.000
    C511     C        0.05162    0.28860    0.92290    1.000
    H433     H        0.03590    0.26610    0.92750    1.000
    C512     C        0.05439    0.30520    0.86210    1.000
    H434     H        0.04010    0.29560    0.82570    1.000
    C513     C        0.07782    0.33580    0.85340    1.000
    C514     C        0.07946    0.35130    0.78680    1.000
    C515     C        0.13504    0.78360    0.83540    1.000
    C516     C        0.11652    0.86010    0.79250    1.000
    C517     C        0.11068    0.95170    0.81920    1.000
    H435     H        0.11800    0.96370    0.86340    1.000
    C518     C        0.09434    0.02510    0.78160    1.000
    H436     H        0.09070    0.08530    0.80060    1.000
    C519     C        0.08386    0.00930    0.71830    1.000
    H437     H        0.07310    0.05920    0.69310    1.000
    C520     C        0.08873    0.91910    0.68900    1.000
    H438     H        0.08130    0.90830    0.64470    1.000
    C521     C        0.10496    0.84530    0.72750    1.000
    C522     C        0.12547    0.73420    0.66970    1.000
    C523     C        0.14293    0.80910    0.66460    1.000
    H439     H        0.14240    0.87390    0.68240    1.000
    C524     C        0.16104    0.78810    0.63330    1.000
    H440     H        0.17240    0.83960    0.62940    1.000
    C525     C        0.16266    0.69430    0.60820    1.000
    H441     H        0.17560    0.67980    0.58910    1.000
    C526     C        0.14452    0.61910    0.61140    1.000
    H442     H        0.14490    0.55570    0.59180    1.000
    C527     C        0.12634    0.63610    0.64240    1.000
    C528     C        0.10751    0.55380    0.64540    1.000
    C529     C        0.17835    0.82750    0.05940    1.000
    C530     C        0.17566    0.87180    0.12140    1.000
    C531     C        0.19694    0.90720    0.16850    1.000
    H443     H        0.21320    0.90660    0.16170    1.000
    C532     C        0.19435    0.94380    0.22620    1.000
    H444     H        0.20890    0.96850    0.25790    1.000
    C533     C        0.17071    0.94440    0.23740    1.000
    H445     H        0.16940    0.96670    0.27720    1.000
    C534     C        0.14876    0.91190    0.18990    1.000
    H446     H        0.13250    0.91390    0.19660    1.000
    C535     C        0.15167    0.87650    0.13240    1.000
    C536     C        0.10987    0.90530    0.06080    1.000
    C537     C        0.11417    0.99380    0.03130    1.000
    H447     H        0.13080    0.01050    0.03050    1.000
    C538     C        0.09362    0.05780    0.00290    1.000
    H448     H        0.09630    0.11740    0.98200    1.000
    C539     C        0.06932    0.03400    0.00530    1.000
    H449     H        0.05550    0.07810    0.98690    1.000
    C540     C        0.06525    0.94550    0.03470    1.000
    H450     H        0.04850    0.92960    0.03550    1.000
    C541     C        0.08537    0.87890    0.06320    1.000
    C542     C        0.08025    0.78210    0.09630    1.000
    N69      N        0.15990    0.50250    0.77490    1.000
    C543     C        0.16680    0.44840    0.74070    1.000
    C544     C        0.19710    0.55550    0.75540    1.000
    H451     H        0.21210    0.59280    0.75320    1.000
    N70      N        0.18450    0.46000    0.71860    1.000
    C545     C        0.18180    0.58510    0.78820    1.000
    H452     H        0.18370    0.64220    0.81740    1.000
    C546     C        0.15010    0.35510    0.71190    1.000
    H453     H        0.13600    0.34300    0.72970    1.000
    H454     H        0.16190    0.29800    0.72190    1.000
    H455     H        0.14330    0.36270    0.66570    1.000
    Cd22     Cd       0.62505    0.03483    0.80894    1.000
    Cd23     Cd       0.67366    0.20302    0.95032    1.000
    Cd24     Cd       0.57503    0.89580    0.65635    1.000
    O106     O        0.65534    0.04800    0.91430    1.000
    O107     O        0.69095    0.01750    0.99200    1.000
    O108     O        0.62171    0.88900    0.90520    1.000
    O109     O        0.59986    0.88170    0.77780    1.000
    O110     O        0.55947    0.83270    0.73930    1.000
    O111     O        0.64115    0.20530    0.81200    1.000
    O112     O        0.64326    0.30860    0.89500    1.000
    O113     O        0.60606    0.25230    0.69660    1.000
    O114     O        0.60024    0.04390    0.69580    1.000
    O115     O        0.59964    0.99380    0.59780    1.000
    O116     O        0.67166    0.23470    0.04870    1.000
    O117     O        0.68728    0.37860    0.02420    1.000
    O118     O        0.63029    0.33830    0.08550    1.000
    O119     O        0.59585    0.25320    0.14670    1.000
    O120     O        0.55926    0.23530    0.06980    1.000
    N71      N        0.59083    0.10700    0.83100    1.000
    N72      N        0.56707    0.21310    0.86900    1.000
    N73      N        0.49506    0.09220    0.92340    1.000
    N74      N        0.46055    0.99180    0.89260    1.000
    N75      N        0.75582    0.78740    0.59690    1.000
    N76      N        0.78904    0.72180    0.57150    1.000
    C547     C        0.58830    0.14960    0.88490    1.000
    C548     C        0.55621    0.20800    0.80250    1.000
    H456     H        0.54150    0.24280    0.77800    1.000
    C549     C        0.57084    0.14350    0.78020    1.000
    H457     H        0.56790    0.12600    0.73680    1.000
    C550     C        0.60463    0.13410    0.95250    1.000
    H458     H        0.61070    0.19960    0.97180    1.000
    H459     H        0.59460    0.10120    0.97680    1.000
    H460     H        0.61920    0.09160    0.95300    1.000
    C551     C        0.55975    0.28350    0.91280    1.000
    H461     H        0.56240    0.24980    0.95430    1.000
    H462     H        0.57100    0.34320    0.91980    1.000
    C552     C        0.53246    0.31770    0.88800    1.000
    C553     C        0.52649    0.41400    0.85870    1.000
    H463     H        0.53990    0.45740    0.85680    1.000
    C554     C        0.50162    0.44600    0.83300    1.000
    H464     H        0.49830    0.51040    0.81360    1.000
    C555     C        0.48176    0.38580    0.83520    1.000
    H465     H        0.46480    0.40840    0.81710    1.000
    C556     C        0.48645    0.28910    0.86460    1.000
    H466     H        0.47260    0.24820    0.86710    1.000
    C557     C        0.51193    0.25390    0.89020    1.000
    C558     C        0.51786    0.15020    0.92210    1.000
    H467     H        0.52890    0.15970    0.96620    1.000
    H468     H        0.52750    0.11010    0.89920    1.000
    C559     C        0.48121    0.02560    0.87790    1.000
    C560     C        0.46091    0.04070    0.94900    1.000
    H469     H        0.44840    0.03240    0.97040    1.000
    C561     C        0.48189    0.10260    0.96920    1.000
    H470     H        0.48650    0.14360    0.00610    1.000
    C562     C        0.48869    0.99490    0.81950    1.000
    H471     H        0.47720    0.94180    0.79660    1.000
    H472     H        0.48740    0.05350    0.79160    1.000
    H473     H        0.50620    0.96990    0.83260    1.000
    N77      N        0.65248    0.94800    0.76890    1.000
    C563     C        0.67424    0.99540    0.75620    1.000
    N78      N        0.68125    0.93460    0.70940    1.000
    C564     C        0.66381    0.84970    0.69320    1.000
    H474     H        0.66410    0.79930    0.66220    1.000
    C565     C        0.64670    0.85920    0.73510    1.000
    H475     H        0.63290    0.81230    0.73390    1.000
    C566     C        0.68840    0.09160    0.77860    1.000
    H476     H        0.70250    0.10530    0.76110    1.000
    H477     H        0.69510    0.08430    0.82480    1.000
    H478     H        0.67630    0.14760    0.76830    1.000
    C567     C        0.70062    0.92720    0.68200    1.000
    H479     H        0.69400    0.89460    0.64050    1.000
    H480     H        0.70600    0.99530    0.67480    1.000
    C568     C        0.72404    0.86810    0.72140    1.000
    C569     C        0.72653    0.84220    0.78580    1.000
    H481     H        0.71380    0.86220    0.80450    1.000
    C570     C        0.74687    0.78950    0.82010    1.000
    H482     H        0.74790    0.77130    0.86240    1.000
    C571     C        0.76675    0.76010    0.79560    1.000
    H483     H        0.78160    0.72770    0.82160    1.000
    C572     C        0.76379    0.78030    0.73220    1.000
    H484     H        0.77650    0.75860    0.71400    1.000
    C573     C        0.74253    0.83190    0.69430    1.000
    C574     C        0.73942    0.85190    0.62300    1.000
    H485     H        0.74340    0.92340    0.61760    1.000
    H486     H        0.72140    0.84040    0.59820    1.000
    C575     C        0.77961    0.80270    0.59380    1.000
    C576     C        0.76934    0.64780    0.56000    1.000
    H487     H        0.77010    0.58200    0.54380    1.000
    C577     C        0.74951    0.68640    0.57590    1.000
    H488     H        0.73410    0.65250    0.57360    1.000
    C578     C        0.79423    0.90070    0.61050    1.000
    H489     H        0.80040    0.92160    0.57510    1.000
    H490     H        0.78300    0.95290    0.61880    1.000
    H491     H        0.80880    0.89090    0.64860    1.000
    C579     C        0.67170    0.98470    0.95010    1.000
    C580     C        0.66756    0.87270    0.94180    1.000
    C581     C        0.68966    0.80850    0.96120    1.000
    H492     H        0.70610    0.83780    0.97550    1.000
    C582     C        0.68700    0.69720    0.95930    1.000
    H493     H        0.70130    0.65390    0.97410    1.000
    C583     C        0.66257    0.65980    0.93480    1.000
    H494     H        0.66050    0.58880    0.93110    1.000
    C584     C        0.64074    0.71890    0.91530    1.000
    H495     H        0.62450    0.68870    0.89850    1.000
    C585     C        0.64324    0.82500    0.92090    1.000
    C586     C        0.59830    0.85090    0.90860    1.000
    C587     C        0.59541    0.83750    0.96870    1.000
    H496     H        0.60940    0.85010    0.00530    1.000
    C588     C        0.57243    0.80600    0.97590    1.000
    H497     H        0.57090    0.79640    0.01730    1.000
    C589     C        0.55162    0.78860    0.92290    1.000
    H498     H        0.53590    0.76610    0.92750    1.000
    C590     C        0.55439    0.80520    0.86210    1.000
    H499     H        0.54010    0.79560    0.82570    1.000
    C591     C        0.57782    0.83580    0.85340    1.000
    C592     C        0.57946    0.85130    0.78680    1.000
    C593     C        0.63504    0.28360    0.83540    1.000
    C594     C        0.61652    0.36010    0.79250    1.000
    C595     C        0.61068    0.45170    0.81920    1.000
    H500     H        0.61800    0.46370    0.86340    1.000
    C596     C        0.59434    0.52510    0.78160    1.000
    H501     H        0.59070    0.58530    0.80060    1.000
    C597     C        0.58386    0.50930    0.71830    1.000
    H502     H        0.57310    0.55920    0.69310    1.000
    C598     C        0.58873    0.41910    0.68900    1.000
    H503     H        0.58130    0.40830    0.64470    1.000
    C599     C        0.60496    0.34530    0.72750    1.000
    C600     C        0.62547    0.23420    0.66970    1.000
    C601     C        0.64293    0.30910    0.66460    1.000
    H504     H        0.64240    0.37390    0.68240    1.000
    C602     C        0.66104    0.28810    0.63330    1.000
    H505     H        0.67240    0.33960    0.62940    1.000
    C603     C        0.66266    0.19430    0.60820    1.000
    H506     H        0.67560    0.17980    0.58910    1.000
    C604     C        0.64452    0.11910    0.61140    1.000
    H507     H        0.64490    0.05570    0.59180    1.000
    C605     C        0.62634    0.13610    0.64240    1.000
    C606     C        0.60751    0.05380    0.64540    1.000
    C607     C        0.67835    0.32750    0.05940    1.000
    C608     C        0.67566    0.37180    0.12140    1.000
    C609     C        0.69694    0.40720    0.16850    1.000
    H508     H        0.71320    0.40660    0.16170    1.000
    C610     C        0.69435    0.44380    0.22620    1.000
    H509     H        0.70890    0.46850    0.25790    1.000
    C611     C        0.67071    0.44440    0.23740    1.000
    H510     H        0.66940    0.46670    0.27720    1.000
    C612     C        0.64876    0.41190    0.18990    1.000
    H511     H        0.63250    0.41390    0.19660    1.000
    C613     C        0.65167    0.37650    0.13240    1.000
    C614     C        0.60987    0.40530    0.06080    1.000
    C615     C        0.61417    0.49380    0.03130    1.000
    H512     H        0.63080    0.51050    0.03050    1.000
    C616     C        0.59362    0.55780    0.00290    1.000
    H513     H        0.59630    0.61740    0.98200    1.000
    C617     C        0.56932    0.53400    0.00530    1.000
    H514     H        0.55550    0.57810    0.98690    1.000
    C618     C        0.56525    0.44550    0.03470    1.000
    H515     H        0.54850    0.42960    0.03550    1.000
    C619     C        0.58537    0.37890    0.06320    1.000
    C620     C        0.58025    0.28210    0.09630    1.000
    N79      N        0.65990    0.00250    0.77490    1.000
    C621     C        0.66680    0.94840    0.74070    1.000
    C622     C        0.69710    0.05550    0.75540    1.000
    H516     H        0.71210    0.09280    0.75320    1.000
    N80      N        0.68450    0.96000    0.71860    1.000
    C623     C        0.68180    0.08510    0.78820    1.000
    H517     H        0.68370    0.14220    0.81740    1.000
    C624     C        0.65010    0.85510    0.71190    1.000
    H518     H        0.63600    0.84300    0.72970    1.000
    H519     H        0.66190    0.79800    0.72190    1.000
    H520     H        0.64330    0.86270    0.66570    1.000
