# CIF file generated by openbabel 3.1.0, see https://openbabel.org
data_I
_chemical_name_common 'image0'
_cell_length_a 10.819
_cell_length_b 24.514
_cell_length_c 16.607
_cell_angle_alpha 90
_cell_angle_beta 91.681
_cell_angle_gamma 90
_space_group_name_H-M_alt 'P 1'
_space_group_name_Hall 'P 1'
loop_
    _symmetry_equiv_pos_as_xyz
    x,y,z
loop_
    _atom_site_label
    _atom_site_type_symbol
    _atom_site_fract_x
    _atom_site_fract_y
    _atom_site_fract_z
    _atom_site_occupancy
    Cd1      Cd       0.99995    0.19798    0.96413    1.000
    Cd2      Cd       0.71515    0.86784    0.00740    1.000
    C1       C        0.98800    0.28940    0.05790    1.000
    C2       C        0.98900    0.33855    0.11080    1.000
    C3       C        0.09200    0.35110    0.16060    1.000
    H1       H        0.16250    0.32950    0.15830    1.000
    C4       C        0.09060    0.39520    0.21330    1.000
    H2       H        0.15880    0.40250    0.24690    1.000
    C5       C        0.98610    0.42828    0.21530    1.000
    C6       C        0.88500    0.41650    0.16350    1.000
    H3       H        0.81600    0.43910    0.16320    1.000
    C7       C        0.88630    0.37196    0.11320    1.000
    H4       H        0.81730    0.36430    0.08040    1.000
    C8       C        0.98250    0.47648    0.26890    1.000
    C9       C        0.02840    0.47659    0.34820    1.000
    C10      C        0.07490    0.42537    0.39120    1.000
    C11      C        0.02880    0.52495    0.39170    1.000
    H5       H        0.06200    0.52510    0.44400    1.000
    C12      C        0.98080    0.57346    0.35940    1.000
    C13      C        0.93260    0.57384    0.28080    1.000
    C14      C        0.93630    0.52565    0.23670    1.000
    H6       H        0.90680    0.52600    0.18350    1.000
    C15      C        0.88250    0.62304    0.23950    1.000
    C16      C        0.93880    0.67403    0.24650    1.000
    H7       H        0.00860    0.67840    0.28000    1.000
    C17      C        0.89120    0.71846    0.20380    1.000
    H8       H        0.93020    0.75220    0.20840    1.000
    C18      C        0.78580    0.71305    0.15410    1.000
    C19      C        0.72970    0.66330    0.14790    1.000
    H9       H        0.65830    0.65950    0.11580    1.000
    C20      C        0.77720    0.61853    0.18840    1.000
    H10      H        0.73890    0.58480    0.18190    1.000
    C21      C        0.98320    0.62171    0.41500    1.000
    C22      C        0.74950    0.25120    0.89030    1.000
    H11      H        0.74410    0.26210    0.94370    1.000
    C23      C        0.66140    0.27030    0.83550    1.000
    H12      H        0.59640    0.29190    0.85250    1.000
    C24      C        0.67090    0.25708    0.75530    1.000
    C25      C        0.76740    0.22220    0.73490    1.000
    H13      H        0.77730    0.21220    0.68140    1.000
    C26      C        0.84810    0.20246    0.79410    1.000
    H14      H        0.90850    0.17750    0.77990    1.000
    C27      C        0.58330    0.27772    0.69230    1.000
    C28      C        0.45830    0.28400    0.70810    1.000
    H15      H        0.42870    0.27380    0.75790    1.000
    C29      C        0.37930    0.30520    0.65060    1.000
    H16      H        0.29660    0.30960    0.66290    1.000
    C30      C        0.53540    0.31340    0.56130    1.000
    H17      H        0.56250    0.32330    0.51060    1.000
    C31      C        0.61960    0.29280    0.61680    1.000
    H18      H        0.70200    0.28910    0.60320    1.000
    C32      C        0.73080    0.76178    0.11110    1.000
    N1       N        0.41530    0.31988    0.57740    1.000
    N2       N        0.84200    0.21803    0.87110    1.000
    O1       O        0.88860    0.26420    0.04720    1.000
    O2       O        0.08520    0.27435    0.02710    1.000
    O3       O        0.00980    0.38364    0.38756    1.000
    O4       O        0.17650    0.43202    0.43037    1.000
    O5       O        0.08370    0.63459    0.44808    1.000
    O6       O        0.88340    0.64691    0.42818    1.000
    O7       O        0.61570    0.76267    0.10250    1.000
    O8       O        0.80200    0.79960    0.08888    1.000
    Cd3      Cd       0.00005    0.69798    0.53587    1.000
    Cd4      Cd       0.28485    0.36784    0.49260    1.000
    C33      C        0.01200    0.78940    0.44210    1.000
    C34      C        0.01100    0.83855    0.38920    1.000
    C35      C        0.90800    0.85110    0.33940    1.000
    H19      H        0.83750    0.82950    0.34170    1.000
    C36      C        0.90940    0.89520    0.28670    1.000
    H20      H        0.84120    0.90250    0.25310    1.000
    C37      C        0.01390    0.92828    0.28470    1.000
    C38      C        0.11500    0.91650    0.33650    1.000
    H21      H        0.18400    0.93910    0.33680    1.000
    C39      C        0.11370    0.87196    0.38680    1.000
    H22      H        0.18270    0.86430    0.41960    1.000
    C40      C        0.01750    0.97648    0.23110    1.000
    C41      C        0.97160    0.97659    0.15180    1.000
    C42      C        0.92510    0.92537    0.10880    1.000
    C43      C        0.97120    0.02495    0.10830    1.000
    H23      H        0.93800    0.02510    0.05600    1.000
    C44      C        0.01920    0.07346    0.14060    1.000
    C45      C        0.06740    0.07384    0.21920    1.000
    C46      C        0.06370    0.02565    0.26330    1.000
    H24      H        0.09320    0.02600    0.31650    1.000
    C47      C        0.11750    0.12304    0.26050    1.000
    C48      C        0.06120    0.17403    0.25350    1.000
    H25      H        0.99140    0.17840    0.22000    1.000
    C49      C        0.10880    0.21846    0.29620    1.000
    H26      H        0.06980    0.25220    0.29160    1.000
    C50      C        0.21420    0.21305    0.34590    1.000
    C51      C        0.27030    0.16330    0.35210    1.000
    H27      H        0.34170    0.15950    0.38420    1.000
    C52      C        0.22280    0.11853    0.31160    1.000
    H28      H        0.26110    0.08480    0.31810    1.000
    C53      C        0.01680    0.12171    0.08500    1.000
    C54      C        0.25050    0.75120    0.60970    1.000
    H29      H        0.25590    0.76210    0.55630    1.000
    C55      C        0.33860    0.77030    0.66450    1.000
    H30      H        0.40360    0.79190    0.64750    1.000
    C56      C        0.32910    0.75708    0.74470    1.000
    C57      C        0.23260    0.72220    0.76510    1.000
    H31      H        0.22270    0.71220    0.81860    1.000
    C58      C        0.15190    0.70246    0.70590    1.000
    H32      H        0.09150    0.67750    0.72010    1.000
    C59      C        0.41670    0.77772    0.80770    1.000
    C60      C        0.54170    0.78400    0.79190    1.000
    H33      H        0.57130    0.77380    0.74210    1.000
    C61      C        0.62070    0.80520    0.84940    1.000
    H34      H        0.70340    0.80960    0.83710    1.000
    C62      C        0.46460    0.81340    0.93870    1.000
    H35      H        0.43750    0.82330    0.98940    1.000
    C63      C        0.38040    0.79280    0.88320    1.000
    H36      H        0.29800    0.78910    0.89680    1.000
    C64      C        0.26920    0.26178    0.38890    1.000
    N3       N        0.58470    0.81988    0.92260    1.000
    N4       N        0.15800    0.71803    0.62890    1.000
    O9       O        0.11140    0.76420    0.45280    1.000
    O10      O        0.91480    0.77435    0.47290    1.000
    O11      O        0.99020    0.88364    0.11244    1.000
    O12      O        0.82350    0.93202    0.06963    1.000
    O13      O        0.91630    0.13459    0.05192    1.000
    O14      O        0.11660    0.14691    0.07182    1.000
    O15      O        0.38430    0.26267    0.39750    1.000
    O16      O        0.19800    0.29960    0.41112    1.000
    Cd5      Cd       0.00005    0.80202    0.03587    1.000
    Cd6      Cd       0.28485    0.13216    0.99260    1.000
    C65      C        0.01200    0.71060    0.94210    1.000
    C66      C        0.01100    0.66145    0.88920    1.000
    C67      C        0.90800    0.64890    0.83940    1.000
    H37      H        0.83750    0.67050    0.84170    1.000
    C68      C        0.90940    0.60480    0.78670    1.000
    H38      H        0.84120    0.59750    0.75310    1.000
    C69      C        0.01390    0.57172    0.78470    1.000
    C70      C        0.11500    0.58350    0.83650    1.000
    H39      H        0.18400    0.56090    0.83680    1.000
    C71      C        0.11370    0.62804    0.88680    1.000
    H40      H        0.18270    0.63570    0.91960    1.000
    C72      C        0.01750    0.52352    0.73110    1.000
    C73      C        0.97160    0.52341    0.65180    1.000
    C74      C        0.92510    0.57463    0.60880    1.000
    C75      C        0.97120    0.47505    0.60830    1.000
    H41      H        0.93800    0.47490    0.55600    1.000
    C76      C        0.01920    0.42654    0.64060    1.000
    C77      C        0.06740    0.42616    0.71920    1.000
    C78      C        0.06370    0.47435    0.76330    1.000
    H42      H        0.09320    0.47400    0.81650    1.000
    C79      C        0.11750    0.37696    0.76050    1.000
    C80      C        0.06120    0.32597    0.75350    1.000
    H43      H        0.99140    0.32160    0.72000    1.000
    C81      C        0.10880    0.28154    0.79620    1.000
    H44      H        0.06980    0.24780    0.79160    1.000
    C82      C        0.21420    0.28695    0.84590    1.000
    C83      C        0.27030    0.33670    0.85210    1.000
    H45      H        0.34170    0.34050    0.88420    1.000
    C84      C        0.22280    0.38147    0.81160    1.000
    H46      H        0.26110    0.41520    0.81810    1.000
    C85      C        0.01680    0.37829    0.58500    1.000
    C86      C        0.25050    0.74880    0.10970    1.000
    H47      H        0.25590    0.73790    0.05630    1.000
    C87      C        0.33860    0.72970    0.16450    1.000
    H48      H        0.40360    0.70810    0.14750    1.000
    C88      C        0.32910    0.74292    0.24470    1.000
    C89      C        0.23260    0.77780    0.26510    1.000
    H49      H        0.22270    0.78780    0.31860    1.000
    C90      C        0.15190    0.79754    0.20590    1.000
    H50      H        0.09150    0.82250    0.22010    1.000
    C91      C        0.41670    0.72228    0.30770    1.000
    C92      C        0.54170    0.71600    0.29190    1.000
    H51      H        0.57130    0.72620    0.24210    1.000
    C93      C        0.62070    0.69480    0.34940    1.000
    H52      H        0.70340    0.69040    0.33710    1.000
    C94      C        0.46460    0.68660    0.43870    1.000
    H53      H        0.43750    0.67670    0.48940    1.000
    C95      C        0.38040    0.70720    0.38320    1.000
    H54      H        0.29800    0.71090    0.39680    1.000
    C96      C        0.26920    0.23822    0.88890    1.000
    N5       N        0.58470    0.68012    0.42260    1.000
    N6       N        0.15800    0.78197    0.12890    1.000
    O17      O        0.11140    0.73580    0.95280    1.000
    O18      O        0.91480    0.72565    0.97290    1.000
    O19      O        0.99020    0.61636    0.61244    1.000
    O20      O        0.82350    0.56798    0.56963    1.000
    O21      O        0.91630    0.36541    0.55192    1.000
    O22      O        0.11660    0.35309    0.57182    1.000
    O23      O        0.38430    0.23733    0.89750    1.000
    O24      O        0.19800    0.20040    0.91112    1.000
    Cd7      Cd       0.99995    0.30202    0.46413    1.000
    Cd8      Cd       0.71515    0.63216    0.50740    1.000
    C97      C        0.98800    0.21060    0.55790    1.000
    C98      C        0.98900    0.16145    0.61080    1.000
    C99      C        0.09200    0.14890    0.66060    1.000
    H55      H        0.16250    0.17050    0.65830    1.000
    C100     C        0.09060    0.10480    0.71330    1.000
    H56      H        0.15880    0.09750    0.74690    1.000
    C101     C        0.98610    0.07172    0.71530    1.000
    C102     C        0.88500    0.08350    0.66350    1.000
    H57      H        0.81600    0.06090    0.66320    1.000
    C103     C        0.88630    0.12804    0.61320    1.000
    H58      H        0.81730    0.13570    0.58040    1.000
    C104     C        0.98250    0.02352    0.76890    1.000
    C105     C        0.02840    0.02341    0.84820    1.000
    C106     C        0.07490    0.07463    0.89120    1.000
    C107     C        0.02880    0.97505    0.89170    1.000
    H59      H        0.06200    0.97490    0.94400    1.000
    C108     C        0.98080    0.92654    0.85940    1.000
    C109     C        0.93260    0.92616    0.78080    1.000
    C110     C        0.93630    0.97435    0.73670    1.000
    H60      H        0.90680    0.97400    0.68350    1.000
    C111     C        0.88250    0.87696    0.73950    1.000
    C112     C        0.93880    0.82597    0.74650    1.000
    H61      H        0.00860    0.82160    0.78000    1.000
    C113     C        0.89120    0.78154    0.70380    1.000
    H62      H        0.93020    0.74780    0.70840    1.000
    C114     C        0.78580    0.78695    0.65410    1.000
    C115     C        0.72970    0.83670    0.64790    1.000
    H63      H        0.65830    0.84050    0.61580    1.000
    C116     C        0.77720    0.88147    0.68840    1.000
    H64      H        0.73890    0.91520    0.68190    1.000
    C117     C        0.98320    0.87829    0.91500    1.000
    C118     C        0.74950    0.24880    0.39030    1.000
    H65      H        0.74410    0.23790    0.44370    1.000
    C119     C        0.66140    0.22970    0.33550    1.000
    H66      H        0.59640    0.20810    0.35250    1.000
    C120     C        0.67090    0.24292    0.25530    1.000
    C121     C        0.76740    0.27780    0.23490    1.000
    H67      H        0.77730    0.28780    0.18140    1.000
    C122     C        0.84810    0.29754    0.29410    1.000
    H68      H        0.90850    0.32250    0.27990    1.000
    C123     C        0.58330    0.22228    0.19230    1.000
    C124     C        0.45830    0.21600    0.20810    1.000
    H69      H        0.42870    0.22620    0.25790    1.000
    C125     C        0.37930    0.19480    0.15060    1.000
    H70      H        0.29660    0.19040    0.16290    1.000
    C126     C        0.53540    0.18660    0.06130    1.000
    H71      H        0.56250    0.17670    0.01060    1.000
    C127     C        0.61960    0.20720    0.11680    1.000
    H72      H        0.70200    0.21090    0.10320    1.000
    C128     C        0.73080    0.73822    0.61110    1.000
    N7       N        0.41530    0.18012    0.07740    1.000
    N8       N        0.84200    0.28197    0.37110    1.000
    O25      O        0.88860    0.23580    0.54720    1.000
    O26      O        0.08520    0.22565    0.52710    1.000
    O27      O        0.00980    0.11636    0.88756    1.000
    O28      O        0.17650    0.06798    0.93037    1.000
    O29      O        0.08370    0.86541    0.94808    1.000
    O30      O        0.88340    0.85309    0.92818    1.000
    O31      O        0.61570    0.73733    0.60250    1.000
    O32      O        0.80200    0.70040    0.58888    1.000
