# CIF file generated by openbabel 3.1.0, see https://openbabel.org
data_I
_chemical_name_common 'image0'
_cell_length_a 6.5576
_cell_length_b 9.715
_cell_length_c 8.6358
_cell_angle_alpha 90
_cell_angle_beta 90.579
_cell_angle_gamma 90
_space_group_name_H-M_alt 'P 1'
_space_group_name_Hall 'P 1'
loop_
    _symmetry_equiv_pos_as_xyz
    x,y,z
loop_
    _atom_site_label
    _atom_site_type_symbol
    _atom_site_fract_x
    _atom_site_fract_y
    _atom_site_fract_z
    _atom_site_occupancy
    N1       N        0.14150    0.15570    0.86260    1.000
    N2       N        0.41570    0.25500    0.77670    1.000
    N3       N        0.34800    0.15570    0.86100    1.000
    N4       N        0.25300    0.32410    0.71710    1.000
    C1       C        0.08560    0.26120    0.77280    1.000
    N5       N        0.89050    0.29520    0.73760    1.000
    H1       H        0.79170    0.24720    0.77400    1.000
    H2       H        0.86530    0.36470    0.67880    1.000
    N6       N        0.85850    0.15570    0.13740    1.000
    N7       N        0.58430    0.25500    0.22330    1.000
    N8       N        0.65200    0.15570    0.13900    1.000
    N9       N        0.74700    0.32410    0.28290    1.000
    C2       C        0.91440    0.26120    0.22720    1.000
    N10      N        0.10950    0.29520    0.26240    1.000
    H3       H        0.20830    0.24720    0.22600    1.000
    H4       H        0.13470    0.36470    0.32120    1.000
    N11      N        0.85850    0.84430    0.13740    1.000
    N12      N        0.58430    0.74500    0.22330    1.000
    N13      N        0.65200    0.84430    0.13900    1.000
    N14      N        0.74700    0.67590    0.28290    1.000
    C3       C        0.91440    0.73880    0.22720    1.000
    N15      N        0.10950    0.70480    0.26240    1.000
    H5       H        0.20830    0.75280    0.22600    1.000
    H6       H        0.13470    0.63530    0.32120    1.000
    N16      N        0.14150    0.84430    0.86260    1.000
    N17      N        0.41570    0.74500    0.77670    1.000
    N18      N        0.34800    0.84430    0.86100    1.000
    N19      N        0.25300    0.67590    0.71710    1.000
    C4       C        0.08560    0.73880    0.77280    1.000
    N20      N        0.89050    0.70480    0.73760    1.000
    H7       H        0.79170    0.75280    0.77400    1.000
    H8       H        0.86530    0.63530    0.67880    1.000
    Zn1      Zn       0.29709    0.50000    0.59708    1.000
    F1       F        0.38520    0.50000    0.38220    1.000
    Zn2      Zn       0.70291    0.50000    0.40292    1.000
    F2       F        0.61480    0.50000    0.61780    1.000
    Zn3      Zn       0.00000    0.00000    0.00000    1.000
    Zn4      Zn       0.50000    0.00000    0.00000    1.000
    F3       F        0.25790    0.00000    0.13830    1.000
    F4       F        0.74210    0.00000    0.86170    1.000
