# CIF file generated by openbabel 3.1.0, see https://openbabel.org
data_I
_chemical_name_common 'image0'
_cell_length_a 8.8438
_cell_length_b 12.7821
_cell_length_c 12.2085
_cell_angle_alpha 90
_cell_angle_beta 100.063
_cell_angle_gamma 90
_space_group_name_H-M_alt 'P 1'
_space_group_name_Hall 'P 1'
loop_
    _symmetry_equiv_pos_as_xyz
    x,y,z
loop_
    _atom_site_label
    _atom_site_type_symbol
    _atom_site_fract_x
    _atom_site_fract_y
    _atom_site_fract_z
    _atom_site_occupancy
    Cd1      Cd       0.22015    0.91397    0.38475    1.000
    Cd2      Cd       0.20626    0.79095    0.03396    1.000
    Cd3      Cd       0.26321    0.56056    0.34974    1.000
    O1       O        0.00390    0.60500    0.36150    1.000
    O2       O        0.17350    0.73010    0.38370    1.000
    O3       O        0.45370    0.84540    0.41750    1.000
    O4       O        0.53810    0.00380    0.40120    1.000
    O5       O        0.48420    0.59000    0.28550    1.000
    O6       O        0.28670    0.65510    0.16980    1.000
    O7       O        0.98150    0.72680    0.06560    1.000
    H1       H        0.03200    0.67180    0.05700    1.000
    O8       O        0.88450    0.87010    0.97860    1.000
    O9       O        0.21900    0.41950    0.22170    1.000
    O10      O        0.21330    0.38310    0.39880    1.000
    O11      O        0.23430    0.98880    0.04230    1.000
    O12      O        0.20350    0.90110    0.18990    1.000
    N1       N        0.96170    0.87660    0.40100    1.000
    N2       N        0.83910    0.92840    0.41000    1.000
    H2       H        0.83780    0.99530    0.41720    1.000
    N3       N        0.47570    0.77470    0.06730    1.000
    N4       N        0.59440    0.81250    0.02500    1.000
    H3       H        0.58780    0.86230    0.97710    1.000
    N5       N        0.19170    0.17370    0.35310    1.000
    N6       N        0.19040    0.07680    0.30950    1.000
    C1       C        0.03760    0.69750    0.37590    1.000
    C2       C        0.91860    0.77530    0.39140    1.000
    C3       C        0.76430    0.76640    0.39550    1.000
    H4       H        0.70620    0.70540    0.39140    1.000
    C4       C        0.71430    0.86870    0.40710    1.000
    C5       C        0.55660    0.91120    0.40900    1.000
    C6       C        0.42680    0.64350    0.20030    1.000
    C7       C        0.53240    0.69840    0.13670    1.000
    C8       C        0.68880    0.68740    0.13730    1.000
    H5       H        0.75590    0.63920    0.17700    1.000
    C9       C        0.72200    0.76340    0.06600    1.000
    C10      C        0.87230    0.79050    0.03470    1.000
    C11      C        0.20900    0.35520    0.29860    1.000
    C12      C        0.20220    0.24340    0.27200    1.000
    C13      C        0.21150    0.19140    0.17380    1.000
    H6       H        0.22050    0.22000    0.10520    1.000
    C14      C        0.20390    0.08460    0.20260    1.000
    C15      C        0.21510    0.98950    0.14040    1.000
    Cd4      Cd       0.22015    0.08603    0.88475    1.000
    Cd5      Cd       0.20626    0.20905    0.53396    1.000
    Cd6      Cd       0.26321    0.43944    0.84974    1.000
    O13      O        0.00390    0.39500    0.86150    1.000
    O14      O        0.17350    0.26990    0.88370    1.000
    O15      O        0.45370    0.15460    0.91750    1.000
    O16      O        0.53810    0.99620    0.90120    1.000
    O17      O        0.48420    0.41000    0.78550    1.000
    O18      O        0.28670    0.34490    0.66980    1.000
    O19      O        0.98150    0.27320    0.56560    1.000
    H7       H        0.03200    0.32820    0.55700    1.000
    O20      O        0.88450    0.12990    0.47860    1.000
    O21      O        0.21900    0.58050    0.72170    1.000
    O22      O        0.21330    0.61690    0.89880    1.000
    O23      O        0.23430    0.01120    0.54230    1.000
    O24      O        0.20350    0.09890    0.68990    1.000
    N7       N        0.96170    0.12340    0.90100    1.000
    N8       N        0.83910    0.07160    0.91000    1.000
    H8       H        0.83780    0.00470    0.91720    1.000
    N9       N        0.47570    0.22530    0.56730    1.000
    N10      N        0.59440    0.18750    0.52500    1.000
    H9       H        0.58780    0.13770    0.47710    1.000
    N11      N        0.19170    0.82630    0.85310    1.000
    N12      N        0.19040    0.92320    0.80950    1.000
    C16      C        0.03760    0.30250    0.87590    1.000
    C17      C        0.91860    0.22470    0.89140    1.000
    C18      C        0.76430    0.23360    0.89550    1.000
    H10      H        0.70620    0.29460    0.89140    1.000
    C19      C        0.71430    0.13130    0.90710    1.000
    C20      C        0.55660    0.08880    0.90900    1.000
    C21      C        0.42680    0.35650    0.70030    1.000
    C22      C        0.53240    0.30160    0.63670    1.000
    C23      C        0.68880    0.31260    0.63730    1.000
    H11      H        0.75590    0.36080    0.67700    1.000
    C24      C        0.72200    0.23660    0.56600    1.000
    C25      C        0.87230    0.20950    0.53470    1.000
    C26      C        0.20900    0.64480    0.79860    1.000
    C27      C        0.20220    0.75660    0.77200    1.000
    C28      C        0.21150    0.80860    0.67380    1.000
    H12      H        0.22050    0.78000    0.60520    1.000
    C29      C        0.20390    0.91540    0.70260    1.000
    C30      C        0.21510    0.01050    0.64040    1.000
