data_functionalizedCrystal
_audit_creation_method	'EQeq! by Chris Wilmer'
_symmetry_space_group_name_H-M	'P1'
_symmetry_Int_Tables_number	1
_symmetry_cell_setting	triclinic
loop_
_symmetry_equiv_pos_as_xyz
  x,y,z
_cell_length_a	17.0669
_cell_length_b	17.0894
_cell_length_c	17.0894
_cell_angle_alpha	90.2418
_cell_angle_beta	91.6798
_cell_angle_gamma	91.6798
loop_
_atom_site_label
_atom_site_type_symbol
_atom_site_fract_x
_atom_site_fract_y
_atom_site_fract_z
_atom_site_charge
Mof_Zn	Zn	0.68302	0.78638	0.91648	1.216
Mof_Zn	Zn	0.81383	0.78782	0.78782	1.214
Mof_Zn	Zn	0.81417	0.91947	0.91947	1.217
Mof_Zn	Zn	0.68302	0.91648	0.78638	1.216
Mof_H 	H 	0.6549	0.4058	0.9262	0.068
Mof_H 	H 	0.6613	0.1562	0.7786	0.028
Mof_H 	H 	0.6609	0.2932	0.7768	0.07
Mof_H 	H 	0.1996	0.942	0.942	0.074
Mof_H 	H 	0.6609	0.7768	0.2932	0.069
Mof_H 	H 	0.8368	0.55	0.7812	0.025
Mof_H 	H 	0.8397	0.9382	0.3018	0.069
Mof_H 	H 	0.8368	0.7812	0.55	0.025
Mof_H 	H 	0.304	0.7676	0.9294	0.091
Mof_H 	H 	0.6558	0.9296	0.5428	0.029
Mof_H 	H 	0.304	0.9294	0.7676	0.091
Mof_H 	H 	0.6549	0.9262	0.4058	0.067
Mof_H 	H 	0.1793	0.775	0.775	0.064
Mof_H 	H 	0.8402	0.94	0.165	0.03
Mof_H 	H 	0.4356	0.7641	0.9267	0.005
Mof_H 	H 	0.4356	0.9267	0.7641	0.005
Mof_H 	H 	0.8402	0.165	0.94	0.03
Mof_H 	H 	0.8397	0.3018	0.9382	0.069
Mof_H 	H 	0.065	0.9468	0.9468	0.037
Mof_H 	H 	0.8359	0.413	0.7778	0.067
Mof_H 	H 	0.0443	0.7814	0.7814	0.028
Mof_H 	H 	0.6558	0.5428	0.9296	0.029
Mof_H 	H 	0.8359	0.7778	0.413	0.067
Mof_H 	H 	0.6613	0.7786	0.1562	0.027
Mof_C 	C 	0.7508	0.8595	0.1477	-0.141
Mof_C 	C 	0.7993	0.8086	0.4394	-0.109
Mof_C 	C 	0.4512	0.8513	0.8513	-0.18
Mof_C 	C 	0.7515	0.8605	0.0605	0.427
Mof_C 	C 	0.8038	0.9069	0.1909	0.051
Mof_C 	C 	0.7993	0.4394	0.8086	-0.109
Mof_C 	C 	0.7508	0.1477	0.8595	-0.141
Mof_C 	C 	0.7515	0.0605	0.8605	0.427
Mof_C 	C 	0.7503	0.3104	0.8572	0.045
Mof_C 	C 	0.7999	0.5207	0.8107	0.046
Mof_C 	C 	0.7464	0.8557	0.5593	-0.131
Mof_C 	C 	0.6973	0.2671	0.8099	-0.113
Mof_C 	C 	0.7999	0.8107	0.5207	0.046
Mof_C 	C 	0.0765	0.8145	0.8145	0.046
Mof_C 	C 	0.6924	0.5164	0.8988	0.043
Mof_C 	C 	0.7503	0.8572	0.3104	0.045
Mof_C 	C 	0.4091	0.8014	0.8954	0.113
Mof_C 	C 	0.6918	0.4351	0.8967	-0.107
Mof_C 	C 	0.7385	0.8513	0.6457	0.403
Mof_C 	C 	0.8038	0.1909	0.9069	0.051
Mof_C 	C 	0.8035	0.9057	0.2723	-0.112
Mof_C 	C 	0.5391	0.8503	0.8503	0.384
Mof_C 	C 	0.7385	0.6457	0.8513	0.403
Mof_C 	C 	0.088	0.9116	0.9116	0.043
Mof_C 	C 	0.6976	0.1858	0.811	0.053
Mof_C 	C 	0.7464	0.5593	0.8557	-0.131
Mof_C 	C 	0.2029	0.8584	0.8584	0.02
Mof_C 	C 	0.7453	0.8517	0.3965	0.04
Mof_C 	C 	0.4091	0.8954	0.8014	0.113
Mof_C 	C 	0.6976	0.811	0.1858	0.053
Mof_C 	C 	0.8035	0.2723	0.9057	-0.112
Mof_C 	C 	0.9536	0.8712	0.8712	0.403
Mof_C 	C 	0.1565	0.8102	0.8102	-0.104
Mof_C 	C 	0.3312	0.8029	0.8961	-0.179
Mof_C 	C 	0.0411	0.8646	0.8646	-0.128
Mof_C 	C 	0.6973	0.8099	0.2671	-0.113
Mof_C 	C 	0.7453	0.3965	0.8517	0.04
Mof_C 	C 	0.6918	0.8967	0.4351	-0.107
Mof_C 	C 	0.3312	0.8961	0.8029	-0.179
Mof_C 	C 	0.1678	0.9087	0.9087	-0.098
Mof_C 	C 	0.6924	0.8988	0.5164	0.043
Mof_C 	C 	0.2899	0.8519	0.8519	0.103
Mof_O 	O 	0.7908	0.8128	0.6794	-0.527
Mof_O 	O 	0.9251	0.9122	0.9122	-0.545
Mof_O 	O 	0.7487	0.8528	0.8528	-0.967
Mof_O 	O 	0.9193	0.8166	0.8166	-0.502
Mof_O 	O 	0.5744	0.8049	0.8989	-0.505
Mof_O 	O 	0.7977	0.9047	0.0303	-0.521
Mof_O 	O 	0.7034	0.8119	0.0259	-0.512
Mof_O 	O 	0.7977	0.0303	0.9047	-0.521
Mof_O 	O 	0.5744	0.8989	0.8049	-0.505
Mof_O 	O 	0.7908	0.6794	0.8128	-0.527
Mof_O 	O 	0.6955	0.6764	0.9008	-0.513
Mof_O 	O 	0.7034	0.0259	0.8119	-0.512
Mof_O 	O 	0.6955	0.9008	0.6764	-0.513
Mof_Zn	Zn	0.31698	0.21362	0.08352	1.215
Mof_Zn	Zn	0.18617	0.21218	0.21218	1.213
Mof_Zn	Zn	0.31698	0.08352	0.21362	1.215
Mof_Zn	Zn	0.18583	0.08053	0.08053	1.216
Mof_H 	H 	0.3442	0.0704	0.4572	0.029
Mof_H 	H 	0.3391	0.2232	0.7068	0.069
Mof_H 	H 	0.5644	0.2359	0.0733	0.005
Mof_H 	H 	0.8004	0.058	0.058	0.073
Mof_H 	H 	0.5644	0.0733	0.2359	0.005
Mof_H 	H 	0.3387	0.8438	0.2214	0.027
Mof_H 	H 	0.3442	0.4572	0.0704	0.029
Mof_H 	H 	0.1641	0.2222	0.587	0.067
Mof_H 	H 	0.1603	0.0618	0.6982	0.069
Mof_H 	H 	0.1598	0.835	0.06	0.03
Mof_H 	H 	0.1598	0.06	0.835	0.03
Mof_H 	H 	0.8207	0.225	0.225	0.064
Mof_H 	H 	0.3387	0.2214	0.8438	0.027
Mof_H 	H 	0.3451	0.0738	0.5942	0.067
Mof_H 	H 	0.1632	0.2188	0.45	0.025
Mof_H 	H 	0.696	0.2324	0.0706	0.091
Mof_H 	H 	0.1641	0.587	0.2222	0.067
Mof_H 	H 	0.935	0.0532	0.0532	0.037
Mof_H 	H 	0.1632	0.45	0.2188	0.025
Mof_H 	H 	0.9557	0.2186	0.2186	0.028
Mof_H 	H 	0.1603	0.6982	0.0618	0.069
Mof_H 	H 	0.696	0.0706	0.2324	0.091
Mof_H 	H 	0.3451	0.5942	0.0738	0.067
Mof_H 	H 	0.3391	0.7068	0.2232	0.069
Mof_C 	C 	0.0464	0.1288	0.1288	0.403
Mof_C 	C 	0.5488	0.1487	0.1487	-0.18
Mof_C 	C 	0.3082	0.5649	0.1033	-0.107
Mof_C 	C 	0.7101	0.1481	0.1481	0.103
Mof_C 	C 	0.2001	0.1893	0.4793	0.046
Mof_C 	C 	0.9589	0.1354	0.1354	-0.128
Mof_C 	C 	0.1962	0.0931	0.8091	0.051
Mof_C 	C 	0.912	0.0884	0.0884	0.043
Mof_C 	C 	0.6688	0.1039	0.1971	-0.179
Mof_C 	C 	0.2536	0.4407	0.1443	-0.131
Mof_C 	C 	0.3076	0.1012	0.4836	0.043
Mof_C 	C 	0.2007	0.5606	0.1914	-0.109
Mof_C 	C 	0.3082	0.1033	0.5649	-0.107
Mof_C 	C 	0.2547	0.6035	0.1483	0.04
Mof_C 	C 	0.4609	0.1497	0.1497	0.384
Mof_C 	C 	0.3027	0.1901	0.7329	-0.113
Mof_C 	C 	0.1965	0.7277	0.0943	-0.112
Mof_C 	C 	0.2485	0.1395	0.9395	0.427
Mof_C 	C 	0.2485	0.9395	0.1395	0.427
Mof_C 	C 	0.5909	0.1986	0.1046	0.113
Mof_C 	C 	0.9235	0.1855	0.1855	0.046
Mof_C 	C 	0.3024	0.189	0.8142	0.053
Mof_C 	C 	0.1962	0.8091	0.0931	0.051
Mof_C 	C 	0.5909	0.1046	0.1986	0.113
Mof_C 	C 	0.2001	0.4793	0.1893	0.046
Mof_C 	C 	0.2497	0.6896	0.1428	0.045
Mof_C 	C 	0.2615	0.1487	0.3543	0.403
Mof_C 	C 	0.3076	0.4836	0.1012	0.043
Mof_C 	C 	0.6688	0.1971	0.1039	-0.179
Mof_C 	C 	0.2007	0.1914	0.5606	-0.109
Mof_C 	C 	0.2547	0.1483	0.6035	0.04
Mof_C 	C 	0.2536	0.1443	0.4407	-0.131
Mof_C 	C 	0.3024	0.8142	0.189	0.053
Mof_C 	C 	0.8322	0.0913	0.0913	-0.098
Mof_C 	C 	0.2615	0.3543	0.1487	0.403
Mof_C 	C 	0.2492	0.8523	0.1405	-0.141
Mof_C 	C 	0.8435	0.1898	0.1898	-0.104
Mof_C 	C 	0.2492	0.1405	0.8523	-0.141
Mof_C 	C 	0.7971	0.1416	0.1416	0.02
Mof_C 	C 	0.1965	0.0943	0.7277	-0.112
Mof_C 	C 	0.3027	0.7329	0.1901	-0.113
Mof_C 	C 	0.2497	0.1428	0.6896	0.045
Mof_O 	O 	0.2966	0.9741	0.1881	-0.512
Mof_O 	O 	0.2092	0.1872	0.3206	-0.527
Mof_O 	O 	0.3045	0.3236	0.0992	-0.513
Mof_O 	O 	0.0749	0.0878	0.0878	-0.545
Mof_O 	O 	0.2023	0.0953	0.9697	-0.521
Mof_O 	O 	0.2513	0.1472	0.1472	-0.967
Mof_O 	O 	0.2966	0.1881	0.9741	-0.512
Mof_O 	O 	0.4256	0.1951	0.1011	-0.505
Mof_O 	O 	0.4256	0.1011	0.1951	-0.505
Mof_O 	O 	0.2092	0.3206	0.1872	-0.527
Mof_O 	O 	0.3045	0.0992	0.3236	-0.513
Mof_O 	O 	0.2023	0.9697	0.0953	-0.521
Mof_O 	O 	0.0807	0.1834	0.1834	-0.502
_end
