# CIF file generated by openbabel 3.1.0, see https://openbabel.org
data_I
_chemical_name_common 'FIVNAZ_clean'
_cell_length_a 8.165
_cell_length_b 8.215
_cell_length_c 8.215
_cell_angle_alpha 94.1831
_cell_angle_beta 117.653
_cell_angle_gamma 62.3472
_space_group_name_H-M_alt 'P 1'
_space_group_name_Hall 'P 1'
loop_
    _symmetry_equiv_pos_as_xyz
    x,y,z
loop_
    _atom_site_label
    _atom_site_type_symbol
    _atom_site_fract_x
    _atom_site_fract_y
    _atom_site_fract_z
    _atom_site_occupancy
    Ho1      Ho       0.75000    0.06649    0.06649    1.000
    Ho2      Ho       0.25000    0.93351    0.93351    1.000
    C1       C        0.94358    0.94903    0.50695    1.000
    C2       C        0.55642    0.50695    0.94903    1.000
    C3       C        0.05642    0.05097    0.49305    1.000
    C4       C        0.44358    0.49305    0.05097    1.000
    O1       O        0.80270    0.94558    0.35630    1.000
    O2       O        0.99693    0.12141    0.33273    1.000
    O3       O        0.69730    0.35630    0.94558    1.000
    O4       O        0.50307    0.33273    0.12141    1.000
    O5       O        0.19730    0.05442    0.64370    1.000
    O6       O        0.00307    0.87859    0.66727    1.000
    O7       O        0.30270    0.64370    0.05442    1.000
    O8       O        0.49693    0.66727    0.87859    1.000
    F1       F        0.00000    0.00000    0.00000    1.000
    F2       F        0.50000    0.00000    0.00000    1.000
