# CIF file generated by openbabel 3.1.0, see https://openbabel.org
data_I
_chemical_name_common 'image0'
_cell_length_a 49.6144
_cell_length_b 49.7381
_cell_length_c 49.6149
_cell_angle_alpha 60.2232
_cell_angle_beta 60.0185
_cell_angle_gamma 60.1218
_space_group_name_H-M_alt 'P 1'
_space_group_name_Hall 'P 1'
loop_
    _symmetry_equiv_pos_as_xyz
    x,y,z
loop_
    _atom_site_label
    _atom_site_type_symbol
    _atom_site_fract_x
    _atom_site_fract_y
    _atom_site_fract_z
    _atom_site_occupancy
    O1       O        0.40693    0.76463    0.31064    1.000
    O2       O        0.40684    0.71933    0.35627    1.000
    C1       C        0.39215    0.74834    0.33983    1.000
    O3       O        0.44429    0.72683    0.27330    1.000
    O4       O        0.44419    0.68158    0.31898    1.000
    C2       C        0.44210    0.69783    0.28988    1.000
    Cu1      Cu       0.45213    0.75076    0.28681    1.000
    Cu2      Cu       0.45187    0.69604    0.34199    1.000
    O5       O        0.49729    0.72683    0.27315    1.000
    O6       O        0.49696    0.68157    0.31883    1.000
    O7       O        0.45985    0.76448    0.31065    1.000
    O8       O        0.45956    0.71916    0.35627    1.000
    C3       C        0.51188    0.69781    0.28971    1.000
    C4       C        0.46178    0.74814    0.33983    1.000
    O9       O        0.40643    0.76548    0.50828    1.000
    O10      O        0.40656    0.71986    0.50826    1.000
    C5       C        0.39173    0.74891    0.51039    1.000
    O11      O        0.45933    0.76549    0.45534    1.000
    O12      O        0.45921    0.71987    0.45559    1.000
    C6       C        0.46137    0.74888    0.44072    1.000
    Cu3      Cu       0.45167    0.75201    0.50050    1.000
    Cu4      Cu       0.45161    0.69692    0.50061    1.000
    O13      O        0.49690    0.72812    0.49282    1.000
    O14      O        0.49667    0.68258    0.49302    1.000
    O15      O        0.44402    0.72845    0.54567    1.000
    O16      O        0.44403    0.68292    0.54561    1.000
    C7       C        0.51154    0.69899    0.49083    1.000
    C8       C        0.44192    0.69940    0.56038    1.000
    H1       H        0.47895    0.16539    0.12846    1.000
    C9       C        0.47929    0.16152    0.17352    1.000
    C10      C        0.47958    0.17798    0.18946    1.000
    H2       H        0.48082    0.16523    0.21416    1.000
    C11      C        0.47989    0.21219    0.17237    1.000
    C12      C        0.48005    0.22797    0.13980    1.000
    H3       H        0.47927    0.25330    0.12746    1.000
    C13      C        0.47977    0.21195    0.12341    1.000
    C14      C        0.47927    0.17781    0.14101    1.000
    C15      C        0.49914    0.24976    0.17328    1.000
    H4       H        0.51498    0.25257    0.14784    1.000
    C16      C        0.49875    0.26612    0.18973    1.000
    H5       H        0.51395    0.28156    0.17678    1.000
    C17      C        0.47893    0.26244    0.22276    1.000
    C18      C        0.45952    0.24231    0.23935    1.000
    H6       H        0.44405    0.23942    0.26490    1.000
    C19      C        0.45989    0.22591    0.22295    1.000
    H7       H        0.44432    0.21083    0.23606    1.000
    C20      C        0.47966    0.22950    0.18973    1.000
    C21      C        0.49952    0.10377    0.17442    1.000
    H8       H        0.51560    0.11052    0.14911    1.000
    C22      C        0.49961    0.07133    0.19079    1.000
    H9       H        0.51541    0.05358    0.17790    1.000
    C23      C        0.47950    0.06187    0.22368    1.000
    C24      C        0.45924    0.08495    0.24017    1.000
    H10      H        0.44349    0.07783    0.26559    1.000
    C25      C        0.45913    0.11739    0.22386    1.000
    H11      H        0.44299    0.13501    0.23688    1.000
    C26      C        0.47930    0.12713    0.19080    1.000
    C27      C        0.45932    0.22569    0.07948    1.000
    H12      H        0.44342    0.21099    0.09717    1.000
    C28      C        0.45892    0.24196    0.04713    1.000
    H13      H        0.44307    0.23936    0.04015    1.000
    C29      C        0.47872    0.26166    0.02403    1.000
    C30      C        0.49900    0.26500    0.03329    1.000
    H14      H        0.51447    0.28014    0.01548    1.000
    C31      C        0.49942    0.24879    0.06562    1.000
    H15      H        0.51557    0.25137    0.07223    1.000
    C32      C        0.47953    0.22901    0.08907    1.000
    C33      C        0.47955    0.02852    0.24049    1.000
    C34      C        0.47948    0.00061    0.25458    1.000
    C35      C        0.47854    0.27930    0.23966    1.000
    C36      C        0.47823    0.29337    0.25384    1.000
    C37      C        0.47809    0.27865    0.99086    1.000
    C38      C        0.47757    0.29304    0.96306    1.000
    C39      C        0.48020    0.95089    0.30359    1.000
    H16      H        0.48153    0.96295    0.31582    1.000
    C40      C        0.47930    0.91878    0.32018    1.000
    H17      H        0.47991    0.90626    0.34512    1.000
    C41      C        0.47739    0.90304    0.30464    1.000
    C42      C        0.47653    0.91947    0.27240    1.000
    H18      H        0.47499    0.90750    0.26023    1.000
    C43      C        0.47743    0.95159    0.25582    1.000
    H19      H        0.47660    0.96420    0.23095    1.000
    C44      C        0.47917    0.96738    0.27142    1.000
    C45      C        0.47755    0.34258    0.91398    1.000
    H20      H        0.47860    0.35455    0.92651    1.000
    C46      C        0.47674    0.35951    0.88178    1.000
    H21      H        0.47711    0.38447    0.86965    1.000
    C47      C        0.47530    0.34426    0.86545    1.000
    C48      C        0.47468    0.31202    0.88137    1.000
    H22      H        0.47346    0.30012    0.86890    1.000
    C49      C        0.47550    0.29508    0.91356    1.000
    H23      H        0.47496    0.27018    0.92576    1.000
    C50      C        0.47691    0.31035    0.92992    1.000
    C51      C        0.47305    0.29565    0.30468    1.000
    H24      H        0.46961    0.27190    0.31813    1.000
    C52      C        0.47257    0.31192    0.32129    1.000
    H25      H        0.46871    0.30065    0.34747    1.000
    C53      C        0.47690    0.34268    0.30414    1.000
    C54      C        0.48177    0.35709    0.27030    1.000
    H26      H        0.48507    0.38090    0.25687    1.000
    C55      C        0.48225    0.34081    0.25368    1.000
    H27      H        0.48595    0.35214    0.22752    1.000
    C56      C        0.47786    0.31008    0.27086    1.000
    C57      C        0.47573    0.87028    0.32196    1.000
    C58      C        0.47399    0.84298    0.33659    1.000
    C59      C        0.47397    0.36179    0.83255    1.000
    C60      C        0.47250    0.37646    0.80511    1.000
    C61      C        0.47569    0.35968    0.32140    1.000
    C62      C        0.47421    0.37407    0.33602    1.000
    O17      O        0.26164    0.76568    0.45512    1.000
    O18      O        0.30712    0.72010    0.45539    1.000
    C63      C        0.29085    0.74912    0.44053    1.000
    O19      O        0.26160    0.76548    0.50814    1.000
    O20      O        0.30708    0.71989    0.50814    1.000
    C64      C        0.29073    0.74893    0.51028    1.000
    Cu5      Cu       0.23761    0.75203    0.50027    1.000
    Cu6      Cu       0.29264    0.69701    0.50037    1.000
    O21      O        0.22356    0.72847    0.54546    1.000
    O22      O        0.26915    0.68300    0.54535    1.000
    O23      O        0.22413    0.72808    0.49237    1.000
    O24      O        0.26972    0.68261    0.49258    1.000
    C65      C        0.24002    0.69945    0.56015    1.000
    C66      C        0.24069    0.69899    0.49026    1.000
    H28      H        0.16782    0.16507    0.12846    1.000
    C67      C        0.12602    0.16061    0.17318    1.000
    C68      C        0.09346    0.17708    0.18932    1.000
    H29      H        0.08060    0.16459    0.21434    1.000
    C69      C        0.07631    0.21160    0.17265    1.000
    C70      C        0.09304    0.22770    0.14029    1.000
    H30      H        0.08032    0.25262    0.12763    1.000
    C71      C        0.12555    0.21164    0.12366    1.000
    C72      C        0.14228    0.17712    0.14077    1.000
    C73      C        0.03227    0.26152    0.18764    1.000
    H31      H        0.04997    0.27441    0.17330    1.000
    C74      C        0.99983    0.27764    0.20423    1.000
    H32      H        0.99281    0.30280    0.20224    1.000
    C75      C        0.97665    0.26131    0.22340    1.000
    C76      C        0.98600    0.22876    0.22599    1.000
    H33      H        0.96816    0.21599    0.24072    1.000
    C77      C        0.01845    0.21255    0.20947    1.000
    H34      H        0.02514    0.18751    0.21140    1.000
    C78      C        0.04190    0.22880    0.19009    1.000
    C79      C        0.16309    0.10302    0.17378    1.000
    H35      H        0.16556    0.10984    0.14846    1.000
    C80      C        0.17943    0.07068    0.18996    1.000
    H36      H        0.19453    0.05305    0.17691    1.000
    C81      C        0.17619    0.06114    0.22284    1.000
    C82      C        0.15656    0.08405    0.23953    1.000
    H37      H        0.15405    0.07689    0.26495    1.000
    C83      C        0.14018    0.11640    0.22341    1.000
    H38      H        0.12551    0.13389    0.23659    1.000
    C84      C        0.14327    0.12623    0.19035    1.000
    C85      C        0.16304    0.21262    0.06595    1.000
    H39      H        0.16543    0.18746    0.07252    1.000
    C86      C        0.17947    0.22897    0.03359    1.000
    H40      H        0.19455    0.21621    0.01570    1.000
    C87      C        0.17625    0.26169    0.02439    1.000
    C88      C        0.15663    0.27801    0.04763    1.000
    H41      H        0.15415    0.30330    0.04071    1.000
    C89      C        0.14014    0.26175    0.07995    1.000
    H42      H        0.12541    0.27467    0.09769    1.000
    C90      C        0.14312    0.22890    0.08942    1.000
    C91      C        0.19305    0.02788    0.23946    1.000
    C92      C        0.20715    0.00005    0.25348    1.000
    C93      C        0.94332    0.27799    0.24044    1.000
    C94      C        0.91545    0.29211    0.25467    1.000
    C95      C        0.19289    0.27864    0.99107    1.000
    C96      C        0.20668    0.29305    0.96319    1.000
    C97      C        0.20707    0.95017    0.30229    1.000
    H43      H        0.18127    0.96197    0.31426    1.000
    C98      C        0.22353    0.91816    0.31898    1.000
    H44      H        0.21035    0.90546    0.34374    1.000
    C99      C        0.25695    0.90276    0.30381    1.000
    C100     C        0.27380    0.91942    0.27180    1.000
    H45      H        0.29965    0.90770    0.25992    1.000
    C101     C        0.25732    0.95144    0.25511    1.000
    H46      H        0.27056    0.96423    0.23043    1.000
    C102     C        0.22395    0.96690    0.27037    1.000
    C103     C        0.21011    0.34466    0.91724    1.000
    H47      H        0.18773    0.35823    0.93234    1.000
    C104     C        0.22616    0.36157    0.88499    1.000
    H48      H        0.21609    0.38809    0.87540    1.000
    C105     C        0.25517    0.34424    0.86532    1.000
    C106     C        0.26804    0.30995    0.87799    1.000
    H49      H        0.29049    0.29638    0.86295    1.000
    C107     C        0.25200    0.29305    0.91025    1.000
    H50      H        0.26214    0.26654    0.91991    1.000
    C108     C        0.22304    0.31039    0.92994    1.000
    C109     C        0.86573    0.29301    0.30411    1.000
    H51      H        0.87781    0.26766    0.31655    1.000
    C110     C        0.83356    0.30967    0.32070    1.000
    H52      H        0.82100    0.29709    0.34586    1.000
    C111     C        0.81780    0.34250    0.30486    1.000
    C112     C        0.83427    0.35858    0.27235    1.000
    H53      H        0.82227    0.38398    0.25995    1.000
    C113     C        0.86644    0.34191    0.25575    1.000
    H54      H        0.87907    0.35454    0.23064    1.000
    C114     C        0.88224    0.30912    0.27162    1.000
    C115     C        0.27405    0.87016    0.32132    1.000
    C116     C        0.28844    0.84298    0.33614    1.000
    C117     C        0.27207    0.36167    0.83240    1.000
    C118     C        0.28650    0.37626    0.80498    1.000
    C119     C        0.78495    0.35981    0.32213    1.000
    C120     C        0.75756    0.37440    0.33673    1.000
    C121     C        0.67848    0.44275    0.35597    1.000
    C122     C        0.72506    0.39194    0.35432    1.000
    C123     C        0.67827    0.39355    0.40523    1.000
    C124     C        0.70966    0.42492    0.33871    1.000
    H55      H        0.72233    0.43669    0.31323    1.000
    C125     C        0.70949    0.37636    0.38738    1.000
    H56      H        0.72206    0.35095    0.39920    1.000
    C126     C        0.66288    0.42668    0.38916    1.000
    H57      H        0.63906    0.44028    0.40280    1.000
    C127     C        0.72716    0.55583    0.35440    1.000
    C128     C        0.67977    0.55143    0.35559    1.000
    C129     C        0.67974    0.55164    0.40496    1.000
    C130     C        0.71144    0.55427    0.33862    1.000
    H58      H        0.72422    0.55475    0.31326    1.000
    C131     C        0.66407    0.55050    0.38864    1.000
    H59      H        0.63986    0.54792    0.40203    1.000
    C132     C        0.71142    0.55449    0.38739    1.000
    H60      H        0.72418    0.55516    0.39939    1.000
    C133     C        0.59653    0.52379    0.27517    1.000
    C134     C        0.59848    0.51709    0.22879    1.000
    C135     C        0.54721    0.52368    0.27500    1.000
    C136     C        0.61400    0.51935    0.24421    1.000
    H61      H        0.63958    0.51814    0.23169    1.000
    C137     C        0.56534    0.51921    0.24405    1.000
    H62      H        0.55366    0.51789    0.23143    1.000
    C138     C        0.56316    0.52564    0.29050    1.000
    H63      H        0.54934    0.52952    0.31413    1.000
    C139     C        0.22438    0.68374    0.59577    1.000
    C140     C        0.22443    0.63470    0.64516    1.000
    C141     C        0.17746    0.68522    0.64658    1.000
    C142     C        0.23999    0.65077    0.61198    1.000
    H64      H        0.26396    0.63726    0.59843    1.000
    C143     C        0.19307    0.65239    0.66232    1.000
    H65      H        0.18040    0.64057    0.68778    1.000
    C144     C        0.19300    0.70084    0.61352    1.000
    H66      H        0.18027    0.72613    0.60161    1.000
    C145     C        0.59616    0.31237    0.59611    1.000
    C146     C        0.59728    0.26585    0.64694    1.000
    C147     C        0.54647    0.31248    0.64527    1.000
    C148     C        0.61322    0.28127    0.61395    1.000
    H67      H        0.63876    0.26866    0.60214    1.000
    C149     C        0.56412    0.28137    0.66252    1.000
    H68      H        0.55206    0.26885    0.68794    1.000
    C150     C        0.56286    0.32784    0.61214    1.000
    H69      H        0.54935    0.35153    0.59848    1.000
    C151     C        0.47176    0.39149    0.35364    1.000
    C152     C        0.46569    0.44233    0.35542    1.000
    C153     C        0.46562    0.39315    0.40472    1.000
    C154     C        0.46987    0.42445    0.33805    1.000
    H70      H        0.47109    0.43620    0.31252    1.000
    C155     C        0.46390    0.42631    0.38869    1.000
    H71      H        0.46020    0.43997    0.40244    1.000
    C156     C        0.46967    0.37591    0.38676    1.000
    H72      H        0.47068    0.35051    0.39855    1.000
    C157     C        0.59828    0.68322    0.22715    1.000
    C158     C        0.59711    0.63294    0.27428    1.000
    C159     C        0.54753    0.68194    0.27415    1.000
    C160     C        0.61417    0.65048    0.24282    1.000
    H73      H        0.63965    0.63862    0.23011    1.000
    C161     C        0.56386    0.64905    0.28984    1.000
    H74      H        0.55036    0.63566    0.31387    1.000
    C162     C        0.56520    0.69887    0.24270    1.000
    H75      H        0.55318    0.72407    0.22989    1.000
    C163     C        0.35603    0.55119    0.35434    1.000
    C164     C        0.30544    0.55607    0.35274    1.000
    C165     C        0.30630    0.55173    0.40347    1.000
    C166     C        0.33857    0.55425    0.33716    1.000
    H76      H        0.35076    0.55474    0.31180    1.000
    C167     C        0.28939    0.55478    0.38572    1.000
    H77      H        0.26391    0.55567    0.39757    1.000
    C168     C        0.33950    0.55031    0.38736    1.000
    H78      H        0.35284    0.54755    0.40091    1.000
    C169     C        0.43713    0.63483    0.64550    1.000
    C170     C        0.43261    0.68534    0.64661    1.000
    C171     C        0.43769    0.68374    0.59598    1.000
    C172     C        0.43392    0.65253    0.66251    1.000
    H79      H        0.43302    0.64077    0.68794    1.000
    C173     C        0.43450    0.70084    0.61357    1.000
    H80      H        0.43404    0.72608    0.60153    1.000
    C174     C        0.43864    0.65083    0.61232    1.000
    H81      H        0.44152    0.63733    0.59887    1.000
    C175     C        0.42957    0.26655    0.64722    1.000
    C176     C        0.43661    0.31268    0.64519    1.000
    C177     C        0.43673    0.31229    0.59589    1.000
    C178     C        0.43182    0.28202    0.66273    1.000
    H82      H        0.43029    0.26982    0.68836    1.000
    C179     C        0.43878    0.32767    0.61185    1.000
    H83      H        0.44302    0.35101    0.59800    1.000
    C180     C        0.43201    0.28158    0.61399    1.000
    H84      H        0.43070    0.26902    0.60226    1.000
    C181     C        0.59664    0.63401    0.48654    1.000
    C182     C        0.59815    0.68496    0.48045    1.000
    C183     C        0.54718    0.68317    0.48660    1.000
    C184     C        0.61387    0.65193    0.48250    1.000
    H85      H        0.63940    0.64020    0.48137    1.000
    C185     C        0.56503    0.70048    0.48254    1.000
    H86      H        0.55316    0.72593    0.48145    1.000
    C186     C        0.56336    0.65002    0.48823    1.000
    H87      H        0.54973    0.63635    0.49176    1.000
    C187     C        0.30668    0.76438    0.51456    1.000
    C188     C        0.30537    0.81112    0.51991    1.000
    C189     C        0.35610    0.76436    0.51462    1.000
    C190     C        0.28959    0.79561    0.51815    1.000
    H88      H        0.26415    0.80827    0.51899    1.000
    C191     C        0.33839    0.79560    0.51822    1.000
    H89      H        0.35033    0.80824    0.51912    1.000
    C192     C        0.33986    0.74883    0.51317    1.000
    H90      H        0.35339    0.72499    0.50993    1.000
    C193     C        0.46456    0.39529    0.72587    1.000
    C194     C        0.46433    0.44462    0.72612    1.000
    C195     C        0.47016    0.39391    0.77259    1.000
    C196     C        0.46287    0.42845    0.71049    1.000
    H91      H        0.45946    0.44197    0.68671    1.000
    C197     C        0.46819    0.42688    0.75727    1.000
    H92      H        0.46911    0.43873    0.76999    1.000
    C198     C        0.46838    0.37821    0.75702    1.000
    H93      H        0.46944    0.35279    0.76956    1.000
    C199     C        0.22544    0.63408    0.48509    1.000
    C200     C        0.22534    0.68320    0.48566    1.000
    C201     C        0.17915    0.68501    0.47876    1.000
    C202     C        0.24078    0.65006    0.48718    1.000
    H94      H        0.26443    0.63639    0.49094    1.000
    C203     C        0.19440    0.70050    0.48128    1.000
    H95      H        0.18183    0.72593    0.48027    1.000
    C204     C        0.19451    0.65200    0.48072    1.000
    H96      H        0.18203    0.64029    0.47927    1.000
    C205     C        0.30594    0.44437    0.72597    1.000
    C206     C        0.35522    0.39505    0.72596    1.000
    C207     C        0.30410    0.39368    0.77249    1.000
    C208     C        0.33921    0.42818    0.71051    1.000
    H97      H        0.35297    0.44169    0.68678    1.000
    C209     C        0.33721    0.37797    0.75707    1.000
    H98      H        0.34897    0.35256    0.76966    1.000
    C210     C        0.28853    0.42665    0.75705    1.000
    H99      H        0.26300    0.43853    0.76962    1.000
    O25      O        0.63344    0.39403    0.45567    1.000
    O26      O        0.67914    0.34867    0.45544    1.000
    C211     C        0.66262    0.37771    0.44082    1.000
    O27      O        0.63313    0.39443    0.50828    1.000
    O28      O        0.67882    0.34907    0.50833    1.000
    C212     C        0.66223    0.37817    0.51040    1.000
    Cu7      Cu       0.61013    0.37989    0.50070    1.000
    Cu8      Cu       0.66529    0.32502    0.50064    1.000
    O29      O        0.59586    0.35680    0.54572    1.000
    O30      O        0.64145    0.31134    0.54586    1.000
    O31      O        0.59571    0.35679    0.49312    1.000
    O32      O        0.64131    0.31134    0.49297    1.000
    C213     C        0.61222    0.32783    0.56053    1.000
    C214     C        0.61213    0.32776    0.49095    1.000
    H100     H        0.08583    0.56089    0.20975    1.000
    C215     C        0.13125    0.55983    0.16851    1.000
    C216     C        0.14767    0.55793    0.13648    1.000
    H101     H        0.17272    0.55834    0.12349    1.000
    C217     C        0.13164    0.55663    0.12067    1.000
    C218     C        0.09874    0.55721    0.13738    1.000
    H102     H        0.08623    0.55611    0.12545    1.000
    C219     C        0.08185    0.55914    0.16939    1.000
    C220     C        0.09835    0.56043    0.18472    1.000
    C221     C        0.13312    0.57296    0.06325    1.000
    H103     H        0.10794    0.58943    0.06931    1.000
    C222     C        0.14949    0.57048    0.03158    1.000
    H104     H        0.13667    0.58463    0.01384    1.000
    C223     C        0.18227    0.54976    0.02286    1.000
    C224     C        0.19850    0.53148    0.04607    1.000
    H105     H        0.22373    0.51515    0.03966    1.000
    C225     C        0.18218    0.53390    0.07776    1.000
    H106     H        0.19505    0.51909    0.09548    1.000
    C226     C        0.14924    0.55458    0.08676    1.000
    C227     C        0.13202    0.58212    0.20377    1.000
    H107     H        0.10694    0.59845    0.20544    1.000
    C228     C        0.14798    0.58267    0.22002    1.000
    H108     H        0.13496    0.59909    0.23426    1.000
    C229     C        0.18053    0.56209    0.21798    1.000
    C230     C        0.19716    0.54109    0.19939    1.000
    H109     H        0.22232    0.52499    0.19777    1.000
    C231     C        0.18126    0.54052    0.18307    1.000
    H110     H        0.19436    0.52367    0.16932    1.000
    C232     C        0.14844    0.56094    0.18520    1.000
    C233     C        0.02381    0.58106    0.20519    1.000
    H111     H        0.03084    0.59785    0.20622    1.000
    C234     C        0.99112    0.58140    0.22182    1.000
    H112     H        0.97349    0.59813    0.23571    1.000
    C235     C        0.98125    0.56030    0.22049    1.000
    C236     C        0.00421    0.53888    0.20237    1.000
    H113     H        0.99682    0.52237    0.20132    1.000
    C237     C        0.03691    0.53853    0.18567    1.000
    H114     H        0.05440    0.52142    0.17221    1.000
    C238     C        0.04709    0.55960    0.18693    1.000
    C239     C        0.19670    0.56219    0.23530    1.000
    C240     C        0.21016    0.56212    0.24999    1.000
    C241     C        0.19961    0.54596    0.98948    1.000
    C242     C        0.20470    0.57784    0.96260    1.000
    C243     C        0.94764    0.56051    0.23785    1.000
    C244     C        0.91952    0.56061    0.25248    1.000
    C245     C        0.25679    0.56679    0.25104    1.000
    H115     H        0.26844    0.57105    0.22475    1.000
    C246     C        0.27252    0.56613    0.26833    1.000
    H116     H        0.29622    0.56986    0.25527    1.000
    C247     C        0.25776    0.56050    0.30236    1.000
    C248     C        0.22714    0.55561    0.31900    1.000
    H117     H        0.21557    0.55117    0.34531    1.000
    C249     C        0.21140    0.55628    0.30171    1.000
    H118     H        0.18779    0.55236    0.31480    1.000
    C250     C        0.22620    0.56182    0.26770    1.000
    C251     C        0.86860    0.56140    0.25426    1.000
    H119     H        0.88018    0.56228    0.22879    1.000
    C252     C        0.83617    0.56095    0.27143    1.000
    H120     H        0.82298    0.56145    0.25908    1.000
    C253     C        0.82097    0.55968    0.30442    1.000
    C254     C        0.83831    0.55896    0.32015    1.000
    H121     H        0.82678    0.55792    0.34567    1.000
    C255     C        0.87075    0.55941    0.30299    1.000
    H122     H        0.88401    0.55873    0.31537    1.000
    C256     C        0.88599    0.56057    0.27002    1.000
    C257     C        0.25381    0.57631    0.91094    1.000
    H123     H        0.26585    0.58040    0.92107    1.000
    C258     C        0.27007    0.57347    0.87942    1.000
    H124     H        0.29459    0.57530    0.86548    1.000
    C259     C        0.25467    0.56837    0.86598    1.000
    C260     C        0.22294    0.56609    0.88422    1.000
    H125     H        0.21082    0.56220    0.87401    1.000
    C261     C        0.20667    0.56893    0.91576    1.000
    H126     H        0.18207    0.56733    0.92963    1.000
    C262     C        0.22212    0.57393    0.92928    1.000
    C263     C        0.27423    0.55930    0.32021    1.000
    C264     C        0.28828    0.55802    0.33509    1.000
    C265     C        0.78778    0.55869    0.32218    1.000
    C266     C        0.76008    0.55757    0.33694    1.000
    C267     C        0.27151    0.56546    0.83353    1.000
    C268     C        0.28593    0.56292    0.80639    1.000
    C269     C        0.43772    0.63272    0.27422    1.000
    C270     C        0.43780    0.68194    0.27438    1.000
    C271     C        0.43220    0.68335    0.22763    1.000
    C272     C        0.43920    0.64887    0.28984    1.000
    H127     H        0.44246    0.63538    0.31369    1.000
    C273     C        0.43409    0.69902    0.24317    1.000
    H128     H        0.43324    0.72438    0.23056    1.000
    C274     C        0.43404    0.65041    0.24300    1.000
    H129     H        0.43314    0.63854    0.23028    1.000
    O33      O        0.59629    0.58372    0.49252    1.000
    O34      O        0.64166    0.58384    0.49299    1.000
    C275     C        0.61258    0.59849    0.49069    1.000
    O35      O        0.59575    0.53154    0.54514    1.000
    O36      O        0.64117    0.53130    0.54588    1.000
    C276     C        0.61193    0.52939    0.56026    1.000
    Cu9      Cu       0.61063    0.53886    0.50003    1.000
    Cu10     Cu       0.66553    0.53869    0.50075    1.000
    O37      O        0.63344    0.49392    0.50774    1.000
    O38      O        0.67893    0.49359    0.50843    1.000
    O39      O        0.63451    0.54609    0.45508    1.000
    O40      O        0.68002    0.54601    0.45546    1.000
    C277     C        0.66241    0.47904    0.51022    1.000
    C278     C        0.66376    0.54796    0.44053    1.000
    H130     H        0.82399    0.50835    0.87287    1.000
    C279     C        0.77847    0.50892    0.87676    1.000
    C280     C        0.76231    0.50872    0.86038    1.000
    H131     H        0.73685    0.50953    0.87277    1.000
    C281     C        0.77833    0.50879    0.82769    1.000
    C282     C        0.81094    0.50898    0.81140    1.000
    H132     H        0.82344    0.50908    0.78617    1.000
    C283     C        0.82750    0.50917    0.82739    1.000
    C284     C        0.81107    0.50910    0.86008    1.000
    C285     C        0.76326    0.52966    0.77775    1.000
    H133     H        0.77757    0.54593    0.76487    1.000
    C286     C        0.74667    0.52992    0.76161    1.000
    H134     H        0.74864    0.54606    0.73643    1.000
    C287     C        0.72756    0.50954    0.77795    1.000
    C288     C        0.72499    0.48893    0.81051    1.000
    H135     H        0.71029    0.47303    0.82328    1.000
    C289     C        0.74151    0.48866    0.82673    1.000
    H136     H        0.73958    0.47225    0.85180    1.000
    C290     C        0.76085    0.50901    0.81049    1.000
    C291     C        0.76404    0.52957    0.92089    1.000
    H137     H        0.77838    0.54580    0.90316    1.000
    C292     C        0.74781    0.52970    0.95338    1.000
    H138     H        0.75005    0.54572    0.96045    1.000
    C293     C        0.72870    0.50935    0.97657    1.000
    C294     C        0.72578    0.48889    0.96720    1.000
    H139     H        0.71107    0.47302    0.98507    1.000
    C295     C        0.74194    0.48875    0.93471    1.000
    H140     H        0.73975    0.47244    0.92800    1.000
    C296     C        0.76127    0.50907    0.91123    1.000
    C297     C        0.87150    0.53004    0.81274    1.000
    H141     H        0.85375    0.54617    0.82724    1.000
    C298     C        0.90392    0.53040    0.79628    1.000
    H142     H        0.91090    0.54649    0.79850    1.000
    C299     C        0.92713    0.51019    0.77695    1.000
    C300     C        0.91787    0.48961    0.77410    1.000
    H143     H        0.93578    0.47382    0.75926    1.000
    C301     C        0.88545    0.48923    0.79051    1.000
    H144     H        0.87884    0.47282    0.78837    1.000
    C302     C        0.86193    0.50946    0.81000    1.000
    C303     C        0.71207    0.50946    0.00999    1.000
    C304     C        0.69807    0.50955    0.03799    1.000
    C305     C        0.71063    0.50974    0.76127    1.000
    C306     C        0.69649    0.50995    0.74722    1.000
    C307     C        0.96044    0.51063    0.75998    1.000
    C308     C        0.98835    0.51100    0.74569    1.000
    C309     C        0.64965    0.50715    0.08852    1.000
    H145     H        0.63779    0.50485    0.07679    1.000
    C310     C        0.63313    0.50773    0.12087    1.000
    H146     H        0.60858    0.50593    0.13392    1.000
    C311     C        0.64822    0.51088    0.13614    1.000
    C312     C        0.67991    0.51333    0.11905    1.000
    H147     H        0.69167    0.51588    0.13069    1.000
    C313     C        0.69643    0.51274    0.08670    1.000
    H148     H        0.72089    0.51478    0.07356    1.000
    C314     C        0.68129    0.50973    0.07137    1.000
    C315     C        0.03693    0.51374    0.69530    1.000
    H149     H        0.02381    0.51502    0.68238    1.000
    C316     C        0.06922    0.51449    0.67855    1.000
    H150     H        0.08085    0.51639    0.65278    1.000
    C317     C        0.08630    0.51300    0.69504    1.000
    C318     C        0.07104    0.51067    0.72832    1.000
    H151     H        0.08409    0.50960    0.74119    1.000
    C319     C        0.03875    0.50992    0.74507    1.000
    H152     H        0.02706    0.50822    0.77079    1.000
    C320     C        0.02163    0.51150    0.72857    1.000
    C321     C        0.64667    0.51156    0.74614    1.000
    H153     H        0.63374    0.51207    0.77118    1.000
    C322     C        0.63017    0.51238    0.72953    1.000
    H154     H        0.60459    0.51357    0.74182    1.000
    C323     C        0.64662    0.51195    0.69708    1.000
    C324     C        0.67966    0.51053    0.68134    1.000
    H155     H        0.69251    0.51028    0.65622    1.000
    C325     C        0.69616    0.50970    0.69795    1.000
    H156     H        0.72166    0.50877    0.68557    1.000
    C326     C        0.67966    0.51030    0.73034    1.000
    C327     C        0.63089    0.51241    0.16904    1.000
    C328     C        0.61621    0.51421    0.19642    1.000
    C329     C        0.11918    0.51458    0.67765    1.000
    C330     C        0.14657    0.51636    0.66301    1.000
    C331     C        0.62938    0.51376    0.67969    1.000
    C332     C        0.61479    0.51577    0.66496    1.000
    O41      O        0.22331    0.58458    0.69003    1.000
    O42      O        0.26924    0.58454    0.64464    1.000
    C333     C        0.23999    0.59925    0.66100    1.000
    O43      O        0.26044    0.54708    0.72802    1.000
    O44      O        0.30624    0.54711    0.68252    1.000
    C334     C        0.28963    0.54916    0.71170    1.000
    Cu11     Cu       0.23695    0.53951    0.71368    1.000
    Cu12     Cu       0.29239    0.53968    0.65878    1.000
    O45      O        0.26087    0.49447    0.72710    1.000
    O46      O        0.30671    0.49476    0.68163    1.000
    O47      O        0.22377    0.53199    0.68919    1.000
    O48      O        0.26966    0.53224    0.64378    1.000
    C335     C        0.29014    0.47991    0.71058    1.000
    C336     C        0.24054    0.53004    0.65995    1.000
    O49      O        0.40592    0.39509    0.68140    1.000
    O50      O        0.40538    0.35003    0.72726    1.000
    C337     C        0.39088    0.37901    0.71056    1.000
    O51      O        0.44342    0.35715    0.64432    1.000
    O52      O        0.44291    0.31203    0.69011    1.000
    C338     C        0.44102    0.32826    0.66091    1.000
    Cu13     Cu       0.45105    0.38047    0.65842    1.000
    Cu14     Cu       0.45058    0.32599    0.71381    1.000
    O53      O        0.49611    0.35706    0.64441    1.000
    O54      O        0.49589    0.31193    0.69019    1.000
    O55      O        0.45855    0.39528    0.68124    1.000
    O56      O        0.45826    0.35021    0.72710    1.000
    C339     C        0.51077    0.32815    0.66099    1.000
    C340     C        0.46045    0.37922    0.71040    1.000
    O57      O        0.40634    0.39420    0.50772    1.000
    O58      O        0.40599    0.34883    0.50768    1.000
    C341     C        0.39141    0.37795    0.50972    1.000
    O59      O        0.45918    0.39369    0.45528    1.000
    O60      O        0.45917    0.34830    0.45495    1.000
    C342     C        0.46132    0.37734    0.44036    1.000
    Cu15     Cu       0.45136    0.37960    0.50037    1.000
    Cu16     Cu       0.45123    0.32471    0.50020    1.000
    O61      O        0.49638    0.35654    0.49299    1.000
    O62      O        0.49651    0.31103    0.49277    1.000
    O63      O        0.44351    0.35651    0.54540    1.000
    O64      O        0.44327    0.31102    0.54549    1.000
    C343     C        0.51120    0.32750    0.49084    1.000
    C344     C        0.44121    0.32756    0.56021    1.000
    O65      O        0.22417    0.58392    0.49143    1.000
    O66      O        0.27007    0.58380    0.49110    1.000
    C345     C        0.24087    0.59857    0.48922    1.000
    O67      O        0.22420    0.53138    0.54430    1.000
    O68      O        0.27005    0.53161    0.54372    1.000
    C346     C        0.24091    0.52948    0.55876    1.000
    Cu17     Cu       0.23762    0.53877    0.49918    1.000
    Cu18     Cu       0.29301    0.53893    0.49860    1.000
    O69      O        0.26161    0.49365    0.50687    1.000
    O70      O        0.30740    0.49398    0.50630    1.000
    O71      O        0.26108    0.54612    0.45389    1.000
    O72      O        0.30684    0.54619    0.45364    1.000
    C347     C        0.29085    0.47908    0.50875    1.000
    C348     C        0.29032    0.54807    0.43903    1.000
    O73      O        0.40515    0.54741    0.68260    1.000
    O74      O        0.40518    0.54734    0.72829    1.000
    C349     C        0.39040    0.54942    0.71181    1.000
    O75      O        0.45779    0.49503    0.68181    1.000
    O76      O        0.45809    0.49465    0.72752    1.000
    C350     C        0.46005    0.48014    0.71083    1.000
    Cu19     Cu       0.45022    0.53992    0.65912    1.000
    Cu20     Cu       0.45050    0.53967    0.71428    1.000
    O77      O        0.49537    0.53233    0.64459    1.000
    O78      O        0.49573    0.53202    0.69024    1.000
    O79      O        0.44280    0.58472    0.64501    1.000
    O80      O        0.44297    0.58476    0.69057    1.000
    C351     C        0.51033    0.53005    0.66101    1.000
    C352     C        0.44092    0.59941    0.66143    1.000
    H157     H        0.73689    0.91126    0.47113    1.000
    C353     C        0.77802    0.86612    0.47081    1.000
    C354     C        0.81083    0.85005    0.47026    1.000
    H158     H        0.82312    0.82484    0.47059    1.000
    C355     C        0.82750    0.86582    0.47056    1.000
    C356     C        0.81100    0.89812    0.47132    1.000
    H159     H        0.82374    0.91042    0.47154    1.000
    C357     C        0.77819    0.91464    0.47183    1.000
    C358     C        0.76189    0.89841    0.47161    1.000
    C359     C        0.87205    0.85016    0.49119    1.000
    H160     H        0.85446    0.86378    0.50816    1.000
    C360     C        0.90467    0.83373    0.49086    1.000
    H161     H        0.91197    0.83512    0.50727    1.000
    C361     C        0.92768    0.81549    0.46956    1.000
    C362     C        0.91798    0.81363    0.44862    1.000
    H162     H        0.93569    0.79962    0.43201    1.000
    C363     C        0.88536    0.82997    0.44898    1.000
    H163     H        0.87836    0.82856    0.43236    1.000
    C364     C        0.86208    0.84845    0.47023    1.000
    C365     C        0.72786    0.85147    0.49139    1.000
    H164     H        0.71508    0.86532    0.50811    1.000
    C366     C        0.71156    0.83533    0.49125    1.000
    H165     H        0.68638    0.83714    0.50757    1.000
    C367     C        0.72779    0.81675    0.47031    1.000
    C368     C        0.76041    0.81428    0.44953    1.000
    H166     H        0.77311    0.79995    0.43324    1.000
    C369     C        0.77678    0.83034    0.44967    1.000
    H167     H        0.80191    0.82842    0.43319    1.000
    C370     C        0.76065    0.84914    0.47059    1.000
    C371     C        0.72807    0.95836    0.49316    1.000
    H168     H        0.71510    0.94074    0.50910    1.000
    C372     C        0.71183    0.99058    0.49380    1.000
    H169     H        0.68653    0.99752    0.50993    1.000
    C373     C        0.72822    0.01367    0.47376    1.000
    C374     C        0.76095    0.00445    0.45315    1.000
    H170     H        0.77374    0.02225    0.43748    1.000
    C375     C        0.77726    0.97222    0.45252    1.000
    H171     H        0.80243    0.96567    0.43605    1.000
    C376     C        0.76097    0.94884    0.47250    1.000
    C377     C        0.71103    0.80005    0.47034    1.000
    C378     C        0.69693    0.78596    0.47058    1.000
    C379     C        0.96121    0.79867    0.46926    1.000
    C380     C        0.98924    0.78461    0.46921    1.000
    C381     C        0.71140    0.04688    0.47420    1.000
    C382     C        0.69726    0.07473    0.47449    1.000
    C383     C        0.69808    0.74065    0.46212    1.000
    H172     H        0.72477    0.73155    0.45434    1.000
    C384     C        0.68162    0.72380    0.46331    1.000
    H173     H        0.69570    0.70178    0.45645    1.000
    C385     C        0.64710    0.73526    0.47356    1.000
    C386     C        0.62908    0.76367    0.48252    1.000
    H174     H        0.60237    0.77261    0.49059    1.000
    C387     C        0.64554    0.78052    0.48133    1.000
    H175     H        0.63145    0.80239    0.48846    1.000
    C388     C        0.68006    0.76900    0.47118    1.000
    C389     C        0.69669    0.12474    0.47396    1.000
    H176     H        0.72222    0.11285    0.47283    1.000
    C390     C        0.68007    0.15696    0.47464    1.000
    H177     H        0.69286    0.16972    0.47410    1.000
    C391     C        0.64702    0.17252    0.47618    1.000
    C392     C        0.63065    0.15575    0.47702    1.000
    H178     H        0.60508    0.16758    0.47830    1.000
    C393     C        0.64727    0.12353    0.47635    1.000
    H179     H        0.63443    0.11069    0.47707    1.000
    C394     C        0.68030    0.10796    0.47486    1.000
    C395     C        0.03993    0.73651    0.46639    1.000
    H180     H        0.02846    0.72487    0.46348    1.000
    C396     C        0.07212    0.71996    0.46736    1.000
    H181     H        0.08531    0.69563    0.46522    1.000
    C397     C        0.08703    0.73472    0.47140    1.000
    C398     C        0.06975    0.76612    0.47431    1.000
    H182     H        0.08109    0.77763    0.47757    1.000
    C399     C        0.03757    0.78266    0.47334    1.000
    H183     H        0.02427    0.80686    0.47581    1.000
    C400     C        0.02258    0.76785    0.46947    1.000
    C401     C        0.63011    0.71757    0.47550    1.000
    C402     C        0.61568    0.70271    0.47752    1.000
    C403     C        0.62976    0.20543    0.47749    1.000
    C404     C        0.61520    0.23286    0.47897    1.000
    C405     C        0.11973    0.71734    0.47341    1.000
    C406     C        0.14693    0.70267    0.47557    1.000
    H184     H        0.08056    0.25257    0.52751    1.000
    C407     C        0.07643    0.21124    0.52792    1.000
    C408     C        0.09305    0.17882    0.52752    1.000
    H185     H        0.08047    0.16627    0.52746    1.000
    C409     C        0.12578    0.16248    0.52725    1.000
    C410     C        0.14188    0.17893    0.52741    1.000
    H186     H        0.16678    0.16614    0.52819    1.000
    C411     C        0.12567    0.21135    0.52779    1.000
    C412     C        0.09294    0.22728    0.52808    1.000
    C413     C        0.17600    0.11873    0.50618    1.000
    H187     H        0.18882    0.13646    0.48994    1.000
    C414     C        0.19233    0.08643    0.50578    1.000
    H188     H        0.21759    0.07953    0.48955    1.000
    C415     C        0.17606    0.06325    0.52612    1.000
    C416     C        0.14340    0.07242    0.54691    1.000
    H189     H        0.13070    0.05456    0.56282    1.000
    C417     C        0.12700    0.10472    0.54731    1.000
    H190     H        0.10186    0.11129    0.56384    1.000
    C418     C        0.14314    0.12820    0.52692    1.000
    C419     C        0.01852    0.24734    0.54885    1.000
    H191     H        0.02537    0.24917    0.56530    1.000
    C420     C        0.98597    0.26360    0.54897    1.000
    H192     H        0.96820    0.27800    0.56521    1.000
    C421     C        0.97644    0.26121    0.52825    1.000
    C422     C        0.99952    0.24245    0.50746    1.000
    H193     H        0.99232    0.24062    0.49125    1.000
    C423     C        0.03207    0.22608    0.50737    1.000
    H194     H        0.04971    0.21204    0.49078    1.000
    C424     C        0.04190    0.22840    0.52806    1.000
    C425     C        0.12649    0.24768    0.54856    1.000
    H195     H        0.10129    0.24968    0.56486    1.000
    C426     C        0.14269    0.26391    0.54871    1.000
    H196     H        0.12977    0.27847    0.56481    1.000
    C427     C        0.17541    0.26126    0.52823    1.000
    C428     C        0.19196    0.24224    0.50767    1.000
    H197     H        0.21728    0.24016    0.49168    1.000
    C429     C        0.17584    0.22592    0.50753    1.000
    H198     H        0.18890    0.21167    0.49113    1.000
    C430     C        0.14289    0.22853    0.52795    1.000
    C431     C        0.94303    0.27817    0.52823    1.000
    C432     C        0.91505    0.29244    0.52814    1.000
    C433     C        0.19287    0.03007    0.52559    1.000
    C434     C        0.20698    0.00229    0.52511    1.000
    C435     C        0.19199    0.27818    0.52817    1.000
    C436     C        0.20598    0.29239    0.52793    1.000
    C437     C        0.86632    0.29487    0.52430    1.000
    H199     H        0.87936    0.27064    0.52190    1.000
    C438     C        0.83403    0.31161    0.52361    1.000
    H200     H        0.82237    0.30020    0.52066    1.000
    C439     C        0.81703    0.34302    0.52653    1.000
    C440     C        0.83237    0.35759    0.53025    1.000
    H201     H        0.81941    0.38190    0.53245    1.000
    C441     C        0.86467    0.34085    0.53093    1.000
    H202     H        0.87644    0.35232    0.53368    1.000
    C442     C        0.88171    0.30950    0.52789    1.000
    C443     C        0.25734    0.29835    0.51648    1.000
    H203     H        0.27149    0.27693    0.50862    1.000
    C444     C        0.27376    0.31509    0.51553    1.000
    H204     H        0.30048    0.30651    0.50691    1.000
    C445     C        0.25570    0.34289    0.52552    1.000
    C446     C        0.22115    0.35383    0.53657    1.000
    H205     H        0.20701    0.37532    0.54431    1.000
    C447     C        0.20473    0.33708    0.53751    1.000
    H206     H        0.17801    0.34573    0.54599    1.000
    C448     C        0.22281    0.30937    0.52739    1.000
    C449     C        0.20946    0.95444    0.51977    1.000
    H207     H        0.18561    0.96799    0.51638    1.000
    C450     C        0.22587    0.92215    0.51931    1.000
    H208     H        0.21461    0.91096    0.51555    1.000
    C451     C        0.25673    0.90445    0.52363    1.000
    C452     C        0.27115    0.91915    0.52837    1.000
    H209     H        0.29504    0.90563    0.53166    1.000
    C453     C        0.25474    0.95144    0.52883    1.000
    H210     H        0.26604    0.96266    0.53250    1.000
    C454     C        0.22387    0.96912    0.52455    1.000
    C455     C        0.78411    0.36048    0.52505    1.000
    C456     C        0.75671    0.37512    0.52337    1.000
    C457     C        0.27267    0.36037    0.52397    1.000
    C458     C        0.28714    0.37503    0.52226    1.000
    C459     C        0.27374    0.87139    0.52280    1.000
    C460     C        0.28809    0.84381    0.52177    1.000
    C461     C        0.67771    0.39413    0.51464    1.000
    C462     C        0.67780    0.44347    0.51455    1.000
    C463     C        0.72424    0.39263    0.52072    1.000
    C464     C        0.66231    0.42733    0.51288    1.000
    H211     H        0.63859    0.44092    0.50929    1.000
    C465     C        0.70887    0.42567    0.51866    1.000
    H212     H        0.72148    0.43752    0.51973    1.000
    C466     C        0.70878    0.37695    0.51874    1.000
    H213     H        0.72132    0.35148    0.51990    1.000
    C467     C        0.46589    0.76380    0.35573    1.000
    C468     C        0.47142    0.81057    0.35418    1.000
    C469     C        0.46562    0.76420    0.40510    1.000
    C470     C        0.46967    0.79492    0.33850    1.000
    H214     H        0.47075    0.80735    0.31301    1.000
    C471     C        0.46936    0.79534    0.38729    1.000
    H215     H        0.47021    0.80808    0.39916    1.000
    C472     C        0.46424    0.74853    0.38894    1.000
    H216     H        0.46094    0.72475    0.40254    1.000
    C473     C        0.59770    0.26539    0.48128    1.000
    C474     C        0.59623    0.31218    0.48673    1.000
    C475     C        0.54684    0.31203    0.48671    1.000
    C476     C        0.61340    0.28095    0.48311    1.000
    H217     H        0.63884    0.26837    0.48225    1.000
    C477     C        0.56306    0.32766    0.48806    1.000
    H218     H        0.54955    0.35159    0.49109    1.000
    C478     C        0.56463    0.28079    0.48312    1.000
    H219     H        0.55274    0.26808    0.48227    1.000
    C479     C        0.35473    0.55353    0.72747    1.000
    C480     C        0.30536    0.55336    0.72748    1.000
    C481     C        0.30362    0.55962    0.77408    1.000
    C482     C        0.33863    0.55173    0.71205    1.000
    H220     H        0.35233    0.54817    0.68828    1.000
    C483     C        0.28799    0.55745    0.75863    1.000
    H221     H        0.26243    0.55860    0.77115    1.000
    C484     C        0.33680    0.55763    0.75860    1.000
    H222     H        0.34862    0.55891    0.77111    1.000
    C485     C        0.59720    0.51882    0.64716    1.000
    C486     C        0.59573    0.52526    0.59591    1.000
    C487     C        0.54606    0.52564    0.64514    1.000
    C488     C        0.61300    0.52081    0.61404    1.000
    H223     H        0.63865    0.51936    0.60239    1.000
    C489     C        0.56230    0.52737    0.61182    1.000
    H224     H        0.54864    0.53125    0.59798    1.000
    C490     C        0.56396    0.52122    0.66263    1.000
    H225     H        0.55205    0.52010    0.68818    1.000
    C491     C        0.22527    0.52573    0.64381    1.000
    C492     C        0.22548    0.52538    0.59440    1.000
    C493     C        0.17898    0.51915    0.64544    1.000
    C494     C        0.24080    0.52741    0.61049    1.000
    H226     H        0.26446    0.53120    0.59680    1.000
    C495     C        0.19447    0.52106    0.61235    1.000
    H227     H        0.18199    0.51968    0.60058    1.000
    C496     C        0.19425    0.52145    0.66109    1.000
    H228     H        0.18159    0.52038    0.68662    1.000
    C497     C        0.30475    0.39256    0.51960    1.000
    C498     C        0.30663    0.44347    0.51321    1.000
    C499     C        0.35579    0.39399    0.51377    1.000
    C500     C        0.28926    0.42568    0.51725    1.000
    H229     H        0.26382    0.43758    0.51809    1.000
    C501     C        0.33982    0.42725    0.51183    1.000
    H230     H        0.35355    0.44081    0.50831    1.000
    C502     C        0.33778    0.37680    0.51788    1.000
    H231     H        0.34946    0.35126    0.51928    1.000
    C503     C        0.30581    0.81071    0.35392    1.000
    C504     C        0.35655    0.76404    0.35569    1.000
    C505     C        0.30698    0.76448    0.40495    1.000
    C506     C        0.33891    0.79509    0.33836    1.000
    H232     H        0.35092    0.80746    0.31285    1.000
    C507     C        0.34021    0.74885    0.38890    1.000
    H233     H        0.35369    0.72514    0.40257    1.000
    C508     C        0.28994    0.79554    0.38703    1.000
    H234     H        0.26443    0.80825    0.39881    1.000
    O81      O        0.59679    0.58293    0.31917    1.000
    O82      O        0.64227    0.58285    0.27334    1.000
    C509     C        0.61313    0.59756    0.28994    1.000
    O83      O        0.63466    0.54563    0.35627    1.000
    O84      O        0.68026    0.54542    0.31056    1.000
    C510     C        0.66389    0.54753    0.33975    1.000
    Cu21     Cu       0.61106    0.53811    0.34233    1.000
    Cu22     Cu       0.66608    0.53779    0.28701    1.000
    O85      O        0.63405    0.49320    0.35663    1.000
    O86      O        0.67963    0.49276    0.31089    1.000
    O87      O        0.59622    0.53050    0.31958    1.000
    O88      O        0.64176    0.53012    0.27380    1.000
    C511     C        0.66307    0.47828    0.34013    1.000
    C512     C        0.61252    0.52819    0.29051    1.000
    H235     H        0.81710    0.82073    0.86810    1.000
    C513     C        0.77190    0.86190    0.87178    1.000
    C514     C        0.75623    0.89468    0.85545    1.000
    H236     H        0.73080    0.90710    0.86770    1.000
    C515     C        0.77284    0.91128    0.82313    1.000
    C516     C        0.80552    0.89463    0.80713    1.000
    H237     H        0.81856    0.90728    0.78228    1.000
    C517     C        0.82160    0.86184    0.82306    1.000
    C518     C        0.80453    0.84566    0.85532    1.000
    C519     C        0.75948    0.95685    0.77297    1.000
    H238     H        0.77383    0.93977    0.75934    1.000
    C520     C        0.74373    0.98967    0.75718    1.000
    H239     H        0.74632    0.99757    0.73160    1.000
    C521     C        0.72461    0.01212    0.77440    1.000
    C522     C        0.72123    0.00166    0.80749    1.000
    H240     H        0.70655    0.01891    0.82097    1.000
    C523     C        0.73688    0.96885    0.82335    1.000
    H241     H        0.73432    0.96132    0.84884    1.000
    C524     C        0.75617    0.94608    0.80626    1.000
    C525     C        0.75722    0.81195    0.91608    1.000
    H242     H        0.77143    0.79897    0.89842    1.000
    C526     C        0.74133    0.79570    0.94875    1.000
    H243     H        0.74369    0.77039    0.95598    1.000
    C527     C        0.72262    0.81205    0.97195    1.000
    C528     C        0.71967    0.84474    0.96239    1.000
    H244     H        0.70537    0.85747    0.98028    1.000
    C529     C        0.73548    0.86105    0.92974    1.000
    H245     H        0.73346    0.88613    0.92298    1.000
    C530     C        0.75449    0.84480    0.90625    1.000
    C531     C        0.86650    0.81196    0.80851    1.000
    H246     H        0.84882    0.79912    0.82191    1.000
    C532     C        0.89938    0.79574    0.79293    1.000
    H247     H        0.90675    0.77059    0.79468    1.000
    C533     C        0.92258    0.81197    0.77510    1.000
    C534     C        0.91281    0.84450    0.77284    1.000
    H248     H        0.93066    0.85719    0.75917    1.000
    C535     C        0.87993    0.86078    0.78834    1.000
    H249     H        0.87294    0.88578    0.78675    1.000
    C536     C        0.85642    0.84468    0.80634    1.000
    C537     C        0.70669    0.79524    0.00567    1.000
    C538     C        0.69340    0.78122    0.03397    1.000
    C539     C        0.70832    0.04582    0.75814    1.000
    C540     C        0.69460    0.07400    0.74445    1.000
    C541     C        0.95638    0.79533    0.75901    1.000
    C542     C        0.98469    0.78147    0.74541    1.000
    C543     C        0.64987    0.78234    0.08775    1.000
    H250     H        0.64034    0.80890    0.07798    1.000
    C544     C        0.63421    0.76595    0.12045    1.000
    H251     H        0.61265    0.77992    0.13572    1.000
    C545     C        0.64625    0.73161    0.13324    1.000
    C546     C        0.67408    0.71373    0.11330    1.000
    H252     H        0.68348    0.68716    0.12301    1.000
    C547     C        0.68974    0.73012    0.08061    1.000
    H253     H        0.71118    0.71612    0.06529    1.000
    C548     C        0.67758    0.76444    0.06774    1.000
    C549     C        0.03900    0.78325    0.70340    1.000
    H254     H        0.02975    0.80981    0.69614    1.000
    C550     C        0.07160    0.76726    0.68694    1.000
    H255     H        0.08732    0.78156    0.66706    1.000
    C551     C        0.08373    0.73295    0.69603    1.000
    C552     C        0.06322    0.71467    0.72177    1.000
    H256     H        0.07242    0.68812    0.72894    1.000
    C553     C        0.03063    0.73065    0.73824    1.000
    H257     H        0.01488    0.71635    0.75804    1.000
    C554     C        0.01842    0.76498    0.72898    1.000
    C555     C        0.64475    0.12300    0.74332    1.000
    H258     H        0.63127    0.10982    0.76757    1.000
    C556     C        0.62859    0.15547    0.72719    1.000
    H259     H        0.60273    0.16716    0.73910    1.000
    C557     C        0.64572    0.17262    0.69569    1.000
    C558     C        0.67913    0.15723    0.68046    1.000
    H260     H        0.69253    0.17028    0.65607    1.000
    C559     C        0.69530    0.12475    0.69661    1.000
    H261     H        0.72108    0.11296    0.68459    1.000
    C560     C        0.67812    0.10756    0.72804    1.000
    C561     C        0.62964    0.71468    0.16656    1.000
    C562     C        0.61550    0.70039    0.19430    1.000
    C563     C        0.11697    0.71649    0.67864    1.000
    C564     C        0.14466    0.70242    0.66403    1.000
    C565     C        0.62885    0.20571    0.67873    1.000
    C566     C        0.61455    0.23325    0.66436    1.000
    O89      O        0.40678    0.54494    0.30959    1.000
    O90      O        0.40612    0.54519    0.35546    1.000
    C567     C        0.39168    0.54711    0.33875    1.000
    O91      O        0.45974    0.49233    0.31030    1.000
    O92      O        0.45879    0.49284    0.35618    1.000
    C568     C        0.46138    0.47787    0.33960    1.000
    Cu23     Cu       0.45214    0.53738    0.28635    1.000
    Cu24     Cu       0.45108    0.53776    0.34187    1.000
    O93      O        0.49724    0.52986    0.27331    1.000
    O94      O        0.49626    0.53028    0.31926    1.000
    O95      O        0.44435    0.58249    0.27287    1.000
    O96      O        0.44359    0.58258    0.31887    1.000
    C569     C        0.51152    0.52798    0.29017    1.000
    C570     C        0.44189    0.59723    0.28963    1.000
    H262     H        0.43277    0.82201    0.86822    1.000
    C571     C        0.43132    0.86314    0.87362    1.000
    C572     C        0.43084    0.89583    0.85783    1.000
    H263     H        0.43060    0.90808    0.87093    1.000
    C573     C        0.43042    0.91289    0.82536    1.000
    C574     C        0.43060    0.89678    0.80866    1.000
    H264     H        0.42925    0.91006    0.78400    1.000
    C575     C        0.43105    0.86410    0.82405    1.000
    C576     C        0.43152    0.84748    0.85649    1.000
    C577     C        0.44840    0.95881    0.77590    1.000
    H265     H        0.46492    0.94194    0.76205    1.000
    C578     C        0.44686    0.99169    0.76047    1.000
    H266     H        0.46190    0.99986    0.73492    1.000
    C579     C        0.42603    0.01389    0.77796    1.000
    C580     C        0.40683    0.00309    0.81099    1.000
    H267     H        0.39058    0.02016    0.82466    1.000
    C581     C        0.40837    0.97019    0.82650    1.000
    H268     H        0.39293    0.96242    0.85192    1.000
    C582     C        0.42914    0.94771    0.80908    1.000
    C583     C        0.41089    0.82592    0.93090    1.000
    H269     H        0.39502    0.82379    0.92354    1.000
    C584     C        0.41041    0.80953    0.96352    1.000
    H270     H        0.39450    0.79476    0.98082    1.000
    C585     C        0.43022    0.81238    0.97380    1.000
    C586     C        0.45064    0.83156    0.95130    1.000
    H271     H        0.46619    0.83372    0.95905    1.000
    C587     C        0.45113    0.84803    0.91865    1.000
    H272     H        0.46737    0.86246    0.90149    1.000
    C588     C        0.43118    0.84544    0.90813    1.000
    C589     C        0.41073    0.82756    0.82296    1.000
    H273     H        0.39521    0.82456    0.84850    1.000
    C590     C        0.41032    0.81181    0.80645    1.000
    H274     H        0.39486    0.79661    0.81947    1.000
    C591     C        0.42971    0.81572    0.77329    1.000
    C592     C        0.44953    0.83546    0.75665    1.000
    H275     H        0.46472    0.83847    0.73100    1.000
    C593     C        0.44998    0.85125    0.77311    1.000
    H276     H        0.46585    0.86603    0.75996    1.000
    C594     C        0.43059    0.84744    0.80647    1.000
    C595     C        0.42950    0.79568    0.00743    1.000
    C596     C        0.42889    0.78171    0.03562    1.000
    C597     C        0.42440    0.04773    0.76190    1.000
    C598     C        0.42332    0.07600    0.74817    1.000
    C599     C        0.42944    0.79925    0.75647    1.000
    C600     C        0.42927    0.78528    0.74251    1.000
    C601     C        0.42745    0.78126    0.08612    1.000
    H277     H        0.42714    0.80645    0.07403    1.000
    C602     C        0.42729    0.76489    0.11866    1.000
    H278     H        0.42691    0.77752    0.13149    1.000
    C603     C        0.42791    0.73225    0.13441    1.000
    C604     C        0.42857    0.71605    0.11759    1.000
    H279     H        0.42919    0.69076    0.12958    1.000
    C605     C        0.42873    0.73242    0.08504    1.000
    H280     H        0.42942    0.71968    0.07212    1.000
    C606     C        0.42824    0.76502    0.06924    1.000
    C607     C        0.45365    0.76596    0.69563    1.000
    H281     H        0.47259    0.77689    0.68444    1.000
    C608     C        0.45384    0.74920    0.67971    1.000
    H282     H        0.47292    0.74729    0.65633    1.000
    C609     C        0.42955    0.73486    0.69406    1.000
    C610     C        0.40503    0.73737    0.72435    1.000
    H283     H        0.38620    0.72631    0.73560    1.000
    C611     C        0.40485    0.75414    0.74027    1.000
    H284     H        0.38587    0.75591    0.76374    1.000
    C612     C        0.42919    0.76841    0.72595    1.000
    C613     C        0.42637    0.12511    0.74570    1.000
    H285     H        0.42958    0.11205    0.76960    1.000
    C614     C        0.42657    0.15746    0.72893    1.000
    H286     H        0.42995    0.16916    0.73997    1.000
    C615     C        0.42288    0.17440    0.69782    1.000
    C616     C        0.41864    0.15901    0.68368    1.000
    H287     H        0.41587    0.17191    0.65960    1.000
    C617     C        0.41842    0.12667    0.70048    1.000
    H288     H        0.41542    0.11483    0.68927    1.000
    C618     C        0.42245    0.10961    0.73144    1.000
    C619     C        0.42875    0.71514    0.16750    1.000
    C620     C        0.43000    0.70071    0.19504    1.000
    C621     C        0.43003    0.71740    0.67773    1.000
    C622     C        0.43090    0.70277    0.66375    1.000
    C623     C        0.42446    0.20717    0.68003    1.000
    C624     C        0.42641    0.23439    0.66508    1.000
