# CIF file generated by openbabel 3.1.0, see https://openbabel.org
data_I
_chemical_name_common 'image0'
_cell_length_a 13.939
_cell_length_b 8.334
_cell_length_c 12.856
_cell_angle_alpha 90
_cell_angle_beta 90
_cell_angle_gamma 90
_space_group_name_H-M_alt 'P 1'
_space_group_name_Hall 'P 1'
loop_
    _symmetry_equiv_pos_as_xyz
    x,y,z
loop_
    _atom_site_label
    _atom_site_type_symbol
    _atom_site_fract_x
    _atom_site_fract_y
    _atom_site_fract_z
    _atom_site_occupancy
    C1       C        0.23649    0.88237    0.16620    1.000
    H1       H        0.19400    0.93320    0.12120    1.000
    C2       C        0.33424    0.91393    0.15736    1.000
    H2       H        0.35570    0.98560    0.10700    1.000
    C3       C        0.36326    0.74186    0.29245    1.000
    H3       H        0.40570    0.69100    0.33740    1.000
    C4       C        0.26513    0.71148    0.30182    1.000
    N1       N        0.20209    0.78094    0.23759    1.000
    N2       N        0.39777    0.84251    0.22030    1.000
    C5       C        0.22685    0.60564    0.38702    1.000
    H4       H        0.19430    0.67250    0.43770    1.000
    H5       H        0.28060    0.55470    0.42180    1.000
    C6       C        0.22649    0.30813    0.28183    1.000
    H6       H        0.19000    0.22780    0.24420    1.000
    H7       H        0.26730    0.36400    0.23260    1.000
    C7       C        0.28700    0.22858    0.36334    1.000
    C8       C        0.38034    0.28022    0.38258    1.000
    H8       H        0.40940    0.35490    0.33900    1.000
    C9       C        0.42954    0.21843    0.46807    1.000
    H9       H        0.49140    0.25500    0.48100    1.000
    C10      C        0.30417    0.05187    0.50966    1.000
    H10      H        0.27900    0.97060    0.55110    1.000
    C11      C        0.24934    0.10842    0.42730    1.000
    H11      H        0.18850    0.06700    0.41490    1.000
    N3       N        0.39187    0.10906    0.53232    1.000
    S1       S        0.14450    0.45084    0.34383    1.000
    Ag1      Ag       0.05638    0.60369    0.20247    1.000
    C12      C        0.76351    0.11763    0.66620    1.000
    H12      H        0.80600    0.06680    0.62120    1.000
    C13      C        0.66576    0.08607    0.65736    1.000
    H13      H        0.64430    0.01440    0.60700    1.000
    C14      C        0.63674    0.25814    0.79245    1.000
    H14      H        0.59430    0.30900    0.83740    1.000
    C15      C        0.73487    0.28852    0.80182    1.000
    N4       N        0.79791    0.21906    0.73759    1.000
    N5       N        0.60223    0.15749    0.72030    1.000
    C16      C        0.77315    0.39436    0.88702    1.000
    H15      H        0.80570    0.32750    0.93770    1.000
    H16      H        0.71940    0.44530    0.92180    1.000
    C17      C        0.77351    0.69187    0.78183    1.000
    H17      H        0.81000    0.77220    0.74420    1.000
    H18      H        0.73270    0.63600    0.73260    1.000
    C18      C        0.71300    0.77142    0.86334    1.000
    C19      C        0.61966    0.71978    0.88258    1.000
    H19      H        0.59060    0.64510    0.83900    1.000
    C20      C        0.57046    0.78157    0.96807    1.000
    H20      H        0.50860    0.74500    0.98100    1.000
    C21      C        0.69583    0.94813    0.00966    1.000
    H21      H        0.72100    0.02940    0.05110    1.000
    C22      C        0.75066    0.89158    0.92730    1.000
    H22      H        0.81150    0.93300    0.91490    1.000
    N6       N        0.60813    0.89094    0.03232    1.000
    S2       S        0.85550    0.54916    0.84383    1.000
    Ag2      Ag       0.94362    0.39631    0.70247    1.000
    C23      C        0.73649    0.61763    0.16620    1.000
    H23      H        0.69400    0.56680    0.12120    1.000
    C24      C        0.83424    0.58607    0.15736    1.000
    H24      H        0.85570    0.51440    0.10700    1.000
    C25      C        0.86326    0.75814    0.29245    1.000
    H25      H        0.90570    0.80900    0.33740    1.000
    C26      C        0.76513    0.78852    0.30182    1.000
    N7       N        0.70209    0.71906    0.23759    1.000
    N8       N        0.89777    0.65749    0.22030    1.000
    C27      C        0.72685    0.89436    0.38702    1.000
    H26      H        0.69430    0.82750    0.43770    1.000
    H27      H        0.78060    0.94530    0.42180    1.000
    C28      C        0.72649    0.19187    0.28183    1.000
    H28      H        0.69000    0.27220    0.24420    1.000
    H29      H        0.76730    0.13600    0.23260    1.000
    C29      C        0.78700    0.27142    0.36334    1.000
    C30      C        0.88034    0.21978    0.38258    1.000
    H30      H        0.90940    0.14510    0.33900    1.000
    C31      C        0.92954    0.28157    0.46807    1.000
    H31      H        0.99140    0.24500    0.48100    1.000
    C32      C        0.80417    0.44813    0.50966    1.000
    H32      H        0.77900    0.52940    0.55110    1.000
    C33      C        0.74934    0.39158    0.42730    1.000
    H33      H        0.68850    0.43300    0.41490    1.000
    N9       N        0.89187    0.39094    0.53232    1.000
    S3       S        0.64450    0.04916    0.34383    1.000
    Ag3      Ag       0.55638    0.89631    0.20247    1.000
    C34      C        0.26351    0.38237    0.66620    1.000
    H34      H        0.30600    0.43320    0.62120    1.000
    C35      C        0.16576    0.41393    0.65736    1.000
    H35      H        0.14430    0.48560    0.60700    1.000
    C36      C        0.13674    0.24186    0.79245    1.000
    H36      H        0.09430    0.19100    0.83740    1.000
    C37      C        0.23487    0.21148    0.80182    1.000
    N10      N        0.29791    0.28094    0.73759    1.000
    N11      N        0.10223    0.34251    0.72030    1.000
    C38      C        0.27315    0.10564    0.88702    1.000
    H37      H        0.30570    0.17250    0.93770    1.000
    H38      H        0.21940    0.05470    0.92180    1.000
    C39      C        0.27351    0.80813    0.78183    1.000
    H39      H        0.31000    0.72780    0.74420    1.000
    H40      H        0.23270    0.86400    0.73260    1.000
    C40      C        0.21300    0.72858    0.86334    1.000
    C41      C        0.11966    0.78022    0.88258    1.000
    H41      H        0.09060    0.85490    0.83900    1.000
    C42      C        0.07046    0.71843    0.96807    1.000
    H42      H        0.00860    0.75500    0.98100    1.000
    C43      C        0.19583    0.55187    0.00966    1.000
    H43      H        0.22100    0.47060    0.05110    1.000
    C44      C        0.25066    0.60842    0.92730    1.000
    H44      H        0.31150    0.56700    0.91490    1.000
    N12      N        0.10813    0.60906    0.03232    1.000
    S4       S        0.35550    0.95084    0.84383    1.000
    Ag4      Ag       0.44362    0.10369    0.70247    1.000
