data_functionalizedCrystal
_audit_creation_method	'EQeq! by Chris Wilmer'
_symmetry_space_group_name_H-M	'P1'
_symmetry_Int_Tables_number	1
_symmetry_cell_setting	triclinic
loop_
_symmetry_equiv_pos_as_xyz
  x,y,z
_cell_length_a	7.181
_cell_length_b	11.3511
_cell_length_c	11.3511
_cell_angle_alpha	66.3221
_cell_angle_beta	71.56
_cell_angle_gamma	71.5599
loop_
_atom_site_label
_atom_site_type_symbol
_atom_site_fract_x
_atom_site_fract_y
_atom_site_fract_z
_atom_site_charge
Mof_Cu	Cu	0.34052	0.88889	0.61111	0.859
Mof_Cu	Cu	0.84052	0.11111	0.38889	0.849
Mof_H 	H 	0.7539	0.8481	0.4413	0.095
Mof_H 	H 	0.2662	0.6285	0.6771	0.225
Mof_H 	H 	0.4155	0.4933	0.7249	0.224
Mof_H 	H 	0.332	0.5291	0.5999	0.227
Mof_H 	H 	0.0749	0.755	0.3312	0.236
Mof_H 	H 	0.0591	0.6495	0.2805	0.223
Mof_H 	H 	0.1447	0.6044	0.4066	0.219
Mof_H 	H 	0.0433	0.1519	0.5587	0.126
Mof_H 	H 	0.5718	0.3715	0.3229	0.208
Mof_H 	H 	0.6337	0.5067	0.2751	0.209
Mof_H 	H 	0.461	0.4709	0.4001	0.213
Mof_H 	H 	0.1611	0.245	0.6688	0.181
Mof_H 	H 	0.9891	0.3505	0.7195	0.14
Mof_H 	H 	0.1557	0.3956	0.5934	0.163
Mof_H 	H 	0.2539	0.9413	0.3481	0.106
Mof_H 	H 	0.7662	0.1771	0.1285	0.219
Mof_H 	H 	0.9155	0.2249	0.9933	0.211
Mof_H 	H 	0.832	0.0999	0.0291	0.224
Mof_H 	H 	0.5749	0.8312	0.255	0.246
Mof_H 	H 	0.5591	0.7805	0.1495	0.231
Mof_H 	H 	0.6447	0.9066	0.1044	0.229
Mof_H 	H 	0.5433	0.0587	0.6519	0.102
Mof_H 	H 	0.0718	0.8229	0.8715	0.185
Mof_H 	H 	0.1337	0.7751	0.0067	0.187
Mof_H 	H 	0.961	0.9001	0.9709	0.161
Mof_H 	H 	0.6611	0.1688	0.745	0.244
Mof_H 	H 	0.4891	0.2195	0.8505	0.231
Mof_H 	H 	0.6557	0.0934	0.8956	0.223
Mof_C 	C 	0.7374	0.5682	0.5016	-0.172
Mof_C 	C 	0.8446	0.667	0.44	0.244
Mof_C 	C 	0.5475	0.6252	0.5646	0.252
Mof_C 	C 	0.375	0.5637	0.6491	-0.749
Mof_C 	C 	0.0485	0.6691	0.3575	-0.709
Mof_C 	C 	0.8072	0.4318	0.4984	-0.13
Mof_C 	C 	0.9516	0.333	0.56	0.182
Mof_C 	C 	0.7373	0.3748	0.4354	0.228
Mof_C 	C 	0.5878	0.4363	0.3509	-0.709
Mof_C 	C 	0.0751	0.3309	0.6425	-0.52
Mof_C 	C 	0.2374	0.0016	0.0682	-0.162
Mof_C 	C 	0.3446	0.94	0.167	0.272
Mof_C 	C 	0.0475	0.0646	0.1252	0.275
Mof_C 	C 	0.875	0.1491	0.0637	-0.755
Mof_C 	C 	0.5485	0.8575	0.1691	-0.766
Mof_C 	C 	0.3072	0.9984	0.9318	-0.149
Mof_C 	C 	0.4516	0.06	0.833	0.269
Mof_C 	C 	0.2373	0.9354	0.8748	0.214
Mof_C 	C 	0.0878	0.8509	0.9363	-0.607
Mof_C 	C 	0.5751	0.1425	0.8309	-0.76
Mof_Br	Br	0.49303	0.09474	0.40526	-0.557
Mof_Br	Br	0.99303	0.90526	0.59474	-0.588
Mof_N 	N 	0.54106	0.75024	0.54444	-0.239
Mof_N 	N 	0.7214	0.7733	0.4685	-0.21
Mof_N 	N 	0.83574	0.24976	0.45556	-0.237
Mof_N 	N 	0.9632	0.2267	0.5315	-0.222
Mof_N 	N 	0.04106	0.04444	0.25024	-0.23
Mof_N 	N 	0.2214	0.9685	0.2733	-0.217
Mof_N 	N 	0.33574	0.95556	0.74976	-0.23
Mof_N 	N 	0.4632	0.0315	0.7267	-0.214
_end
