data_functionalizedCrystal
_audit_creation_method	'EQeq! by Chris Wilmer'
_symmetry_space_group_name_H-M	'P1'
_symmetry_Int_Tables_number	1
_symmetry_cell_setting	triclinic
loop_
_symmetry_equiv_pos_as_xyz
  x,y,z
_cell_length_a	34.7408
_cell_length_b	14.9018
_cell_length_c	31.0584
_cell_angle_alpha	90
_cell_angle_beta	101.437
_cell_angle_gamma	90
loop_
_atom_site_label
_atom_site_type_symbol
_atom_site_fract_x
_atom_site_fract_y
_atom_site_fract_z
_atom_site_charge
Mof_N 	N 	0.81437	0.0027	0.72248	-0.289
Mof_C 	C 	0.7846	0.9686	0.6944	0.082
Mof_H 	H 	0.7673	0.0079	0.6758	-0.02
Mof_C 	C 	0.77784	0.8766	0.6911	-0.129
Mof_H 	H 	0.7564	0.8539	0.6701	0.08
Mof_C 	C 	0.80193	0.819	0.71797	0.06
Mof_C 	C 	0.8335	0.8562	0.7477	-0.122
Mof_H 	H 	0.8511	0.8187	0.767	0.085
Mof_C 	C 	0.8386	0.9483	0.7484	0.072
Mof_H 	H 	0.8603	0.9733	0.7683	-0.02
Mof_N 	N 	0.66907	0.4658	0.6056	-0.282
Mof_C 	C 	0.67669	0.5521	0.60017	0.069
Mof_H 	H 	0.6614	0.5834	0.5761	-0.006
Mof_C 	C 	0.70609	0.5984	0.62824	-0.117
Mof_H 	H 	0.7107	0.6601	0.6235	0.083
Mof_C 	C 	0.72848	0.5529	0.66316	0.044
Mof_C 	C 	0.7203	0.4627	0.6686	-0.123
Mof_H 	H 	0.7351	0.4296	0.6923	0.087
Mof_C 	C 	0.69084	0.4222	0.63964	0.067
Mof_H 	H 	0.6855	0.3606	0.6438	-0.004
Mof_N 	N 	0.87956	0.4446	0.85882	-0.287
Mof_C 	C 	0.886	0.5307	0.8515	0.076
Mof_H 	H 	0.9072	0.5599	0.8702	-0.011
Mof_C 	C 	0.8637	0.5797	0.8184	-0.124
Mof_H 	H 	0.8686	0.6419	0.8153	0.095
Mof_C 	C 	0.83401	0.537	0.78937	0.061
Mof_C 	C 	0.82748	0.4476	0.79636	-0.13
Mof_H 	H 	0.8072	0.416	0.7773	0.072
Mof_C 	C 	0.85076	0.4042	0.8315	0.073
Mof_H 	H 	0.8458	0.3426	0.8362	-0.019
Mof_C 	C 	0.79557	0.7202	0.71855	0.101
Mof_N 	N 	0.76622	0.6856	0.68886	-0.143
Mof_C 	C 	0.76051	0.5983	0.69414	0.085
Mof_N 	N 	0.78101	0.5467	0.72619	-0.143
Mof_C 	C 	0.81026	0.5885	0.75254	0.098
Mof_N 	N 	0.81945	0.6759	0.74974	-0.134
Mof_N 	N 	0.57937	0.4882	0.55729	-0.288
Mof_C 	C 	0.5647	0.5352	0.5219	0.083
Mof_H 	H 	0.5762	0.5298	0.4967	-0.015
Mof_C 	C 	0.5332	0.5919	0.52023	-0.135
Mof_H 	H 	0.5236	0.6256	0.4944	0.08
Mof_C 	C 	0.51585	0.5997	0.55565	0.058
Mof_C 	C 	0.5333	0.5548	0.5938	-0.135
Mof_H 	H 	0.5237	0.5622	0.6201	0.089
Mof_C 	C 	0.5645	0.5	0.5925	0.088
Mof_H 	H 	0.576	0.4687	0.6185	-0.023
Mof_N 	N 	0.43205	0.0175	0.45224	-0.287
Mof_C 	C 	0.46304	0.9648	0.45289	0.077
Mof_H 	H 	0.4814	0.98	0.4352	-0.012
Mof_C 	C 	0.46923	0.8885	0.47872	-0.125
Mof_H 	H 	0.4914	0.8515	0.4784	0.072
Mof_C 	C 	0.44315	0.8669	0.50479	0.055
Mof_C 	C 	0.4117	0.923	0.5052	-0.125
Mof_H 	H 	0.3935	0.9107	0.5235	0.081
Mof_C 	C 	0.4073	0.998	0.478	0.075
Mof_H 	H 	0.3857	0.0368	0.4781	-0.024
Mof_N 	N 	0.35842	0.6572	0.6788	-0.299
Mof_C 	C 	0.3898	0.609	0.6785	0.098
Mof_H 	H 	0.3963	0.5629	0.6998	-0.031
Mof_C 	C 	0.4137	0.6209	0.6493	-0.143
Mof_H 	H 	0.4359	0.583	0.6505	0.089
Mof_C 	C 	0.40613	0.6867	0.6184	0.077
Mof_C 	C 	0.3719	0.7338	0.6166	-0.132
Mof_H 	H 	0.3643	0.778	0.5946	0.087
Mof_C 	C 	0.3489	0.7166	0.6466	0.08
Mof_H 	H 	0.325	0.7487	0.6443	-0.021
Mof_C 	C 	0.48181	0.6598	0.55616	0.089
Mof_N 	N 	0.47654	0.7273	0.52714	-0.149
Mof_C 	C 	0.44802	0.7843	0.53264	0.088
Mof_N 	N 	0.4248	0.7752	0.56107	-0.136
Mof_C 	C 	0.43134	0.7022	0.58672	0.096
Mof_N 	N 	0.46061	0.6438	0.58603	-0.135
Mof_Zn	Zn	0.42022	0.1277	0.40714	0.561
Mof_I 	I 	0.38307	0.23886	0.4416	-0.092
Mof_I 	I 	0.47671	0.15072	0.37206	-0.229
Mof_Zn	Zn	0.821	0.1382	0.7209	0.633
Mof_I 	I 	0.75667	0.219	0.6929	-0.418
Mof_I 	I 	0.8657	0.1687	0.7952	-0.01
Mof_Zn	Zn	0.6219	0.3961	0.562	0.606
Mof_I 	I 	0.6049	0.2645	0.6018	-0.278
Mof_I 	I 	0.6444	0.4049	0.4884	-0.13
Mof_Zn	Zn	0.82944	0.1425	0.73213	0.616
Mof_I 	I 	0.76842	0.23401	0.70818	0.032
Mof_I 	I 	0.87405	0.15885	0.80605	-0.392
Mof_Zn	Zn	0.63074	0.4071	0.5593	0.613
Mof_I 	I 	0.61375	0.2583	0.59246	-0.093
Mof_I 	I 	0.65145	0.4123	0.4888	-0.222
Mof_Zn	Zn	0.4133	0.1123	0.4086	0.631
Mof_I 	I 	0.3717	0.2279	0.44357	-0.258
Mof_I 	I 	0.4757	0.1539	0.3797	-0.1
Mof_N 	N 	0.31437	0.5027	0.72248	-0.287
Mof_C 	C 	0.2846	0.4686	0.6944	0.074
Mof_H 	H 	0.2673	0.5079	0.6758	-0.017
Mof_C 	C 	0.27784	0.3766	0.6911	-0.125
Mof_H 	H 	0.2564	0.3539	0.6701	0.078
Mof_C 	C 	0.30193	0.319	0.71797	0.058
Mof_C 	C 	0.3335	0.3562	0.7477	-0.12
Mof_H 	H 	0.3511	0.3187	0.767	0.084
Mof_C 	C 	0.3386	0.4483	0.7484	0.069
Mof_H 	H 	0.3603	0.4733	0.7683	-0.019
Mof_N 	N 	0.16907	0.9658	0.6056	-0.28
Mof_C 	C 	0.17669	0.0521	0.60017	0.065
Mof_H 	H 	0.1614	0.0834	0.5761	-0.005
Mof_C 	C 	0.20609	0.0984	0.62824	-0.115
Mof_H 	H 	0.2107	0.1601	0.6235	0.082
Mof_C 	C 	0.22848	0.0529	0.66316	0.04
Mof_C 	C 	0.2203	0.9627	0.6686	-0.119
Mof_H 	H 	0.2351	0.9296	0.6923	0.086
Mof_C 	C 	0.19084	0.9222	0.63964	0.066
Mof_H 	H 	0.1855	0.8606	0.6438	-0.003
Mof_N 	N 	0.37956	0.9446	0.85882	-0.286
Mof_C 	C 	0.386	0.0307	0.8515	0.073
Mof_H 	H 	0.4072	0.0599	0.8702	-0.01
Mof_C 	C 	0.3637	0.0797	0.8184	-0.122
Mof_H 	H 	0.3686	0.1419	0.8153	0.093
Mof_C 	C 	0.33401	0.037	0.78937	0.057
Mof_C 	C 	0.32748	0.9476	0.79636	-0.126
Mof_H 	H 	0.3072	0.916	0.7773	0.071
Mof_C 	C 	0.35076	0.9042	0.8315	0.072
Mof_H 	H 	0.3458	0.8426	0.8362	-0.019
Mof_C 	C 	0.29557	0.2202	0.71855	0.102
Mof_N 	N 	0.26622	0.1856	0.68886	-0.143
Mof_C 	C 	0.26051	0.0983	0.69414	0.085
Mof_N 	N 	0.28101	0.0467	0.72619	-0.144
Mof_C 	C 	0.31026	0.0885	0.75254	0.099
Mof_N 	N 	0.31945	0.1759	0.74974	-0.134
Mof_N 	N 	0.07937	0.9882	0.55729	-0.285
Mof_C 	C 	0.0647	0.0352	0.5219	0.079
Mof_H 	H 	0.0762	0.0298	0.4967	-0.014
Mof_C 	C 	0.0332	0.0919	0.52023	-0.132
Mof_H 	H 	0.0236	0.1256	0.4944	0.078
Mof_C 	C 	0.01585	0.0997	0.55565	0.055
Mof_C 	C 	0.0333	0.0548	0.5938	-0.13
Mof_H 	H 	0.0237	0.0622	0.6201	0.087
Mof_C 	C 	0.0645	-2.56285e-32	0.5925	0.08
Mof_H 	H 	0.076	0.9687	0.6185	-0.02
Mof_N 	N 	0.93205	0.5175	0.45224	-0.283
Mof_C 	C 	0.96304	0.4648	0.45289	0.073
Mof_H 	H 	0.9814	0.48	0.4352	-0.012
Mof_C 	C 	0.96923	0.3885	0.47872	-0.123
Mof_H 	H 	0.9914	0.3515	0.4784	0.071
Mof_C 	C 	0.94315	0.3669	0.50479	0.053
Mof_C 	C 	0.9117	0.423	0.5052	-0.121
Mof_H 	H 	0.8935	0.4107	0.5235	0.079
Mof_C 	C 	0.9073	0.498	0.478	0.068
Mof_H 	H 	0.8857	0.5368	0.4781	-0.021
Mof_N 	N 	0.85842	0.1572	0.6788	-0.299
Mof_C 	C 	0.8898	0.109	0.6785	0.098
Mof_H 	H 	0.8963	0.0629	0.6998	-0.031
Mof_C 	C 	0.9137	0.1209	0.6493	-0.143
Mof_H 	H 	0.9359	0.083	0.6505	0.089
Mof_C 	C 	0.90613	0.1867	0.6184	0.077
Mof_C 	C 	0.8719	0.2338	0.6166	-0.132
Mof_H 	H 	0.8643	0.278	0.5946	0.087
Mof_C 	C 	0.8489	0.2166	0.6466	0.08
Mof_H 	H 	0.825	0.2487	0.6443	-0.021
Mof_C 	C 	0.98181	0.1598	0.55616	0.09
Mof_N 	N 	0.97654	0.2273	0.52714	-0.149
Mof_C 	C 	0.94802	0.2843	0.53264	0.089
Mof_N 	N 	0.9248	0.2752	0.56107	-0.137
Mof_C 	C 	0.93134	0.2022	0.58672	0.095
Mof_N 	N 	0.96061	0.1438	0.58603	-0.136
Mof_Zn	Zn	0.92022	0.6277	0.40714	0.561
Mof_I 	I 	0.88307	0.73886	0.4416	-0.091
Mof_I 	I 	0.97671	0.65072	0.37206	-0.229
Mof_Zn	Zn	0.321	0.6382	0.7209	0.633
Mof_I 	I 	0.25667	0.719	0.6929	-0.418
Mof_I 	I 	0.3657	0.6687	0.7952	-0.009
Mof_Zn	Zn	0.1219	0.8961	0.562	0.606
Mof_I 	I 	0.1049	0.7645	0.6018	-0.277
Mof_I 	I 	0.1444	0.9049	0.4884	-0.13
Mof_Zn	Zn	0.32944	0.6425	0.73213	0.616
Mof_I 	I 	0.26842	0.73401	0.70818	0.032
Mof_I 	I 	0.37405	0.65885	0.80605	-0.392
Mof_Zn	Zn	0.13074	0.9071	0.5593	0.613
Mof_I 	I 	0.11375	0.7583	0.59246	-0.093
Mof_I 	I 	0.15145	0.9123	0.4888	-0.221
Mof_Zn	Zn	0.9133	0.6123	0.4086	0.632
Mof_I 	I 	0.8717	0.7279	0.44357	-0.258
Mof_I 	I 	0.9757	0.6539	0.3797	-0.1
Mof_N 	N 	0.81437	0.9973	0.22248	-0.283
Mof_C 	C 	0.7846	0.0314	0.1944	0.066
Mof_H 	H 	0.7673	0.9921	0.1758	-0.014
Mof_C 	C 	0.77784	0.1234	0.1911	-0.121
Mof_H 	H 	0.7564	0.1461	0.1701	0.077
Mof_C 	C 	0.80193	0.181	0.21797	0.055
Mof_C 	C 	0.8335	0.1438	0.2477	-0.117
Mof_H 	H 	0.8511	0.1813	0.267	0.083
Mof_C 	C 	0.8386	0.0517	0.2484	0.065
Mof_H 	H 	0.8603	0.0267	0.2683	-0.019
Mof_N 	N 	0.66907	0.5342	0.1056	-0.282
Mof_C 	C 	0.67669	0.4479	0.10017	0.069
Mof_H 	H 	0.6614	0.4166	0.0761	-0.006
Mof_C 	C 	0.70609	0.4016	0.12824	-0.117
Mof_H 	H 	0.7107	0.3399	0.1235	0.083
Mof_C 	C 	0.72848	0.4471	0.16316	0.043
Mof_C 	C 	0.7203	0.5373	0.1686	-0.123
Mof_H 	H 	0.7351	0.5704	0.1923	0.087
Mof_C 	C 	0.69084	0.5778	0.13964	0.067
Mof_H 	H 	0.6855	0.6394	0.1438	-0.004
Mof_N 	N 	0.87956	0.5554	0.35882	-0.287
Mof_C 	C 	0.886	0.4693	0.3515	0.076
Mof_H 	H 	0.9072	0.4401	0.3702	-0.011
Mof_C 	C 	0.8637	0.4203	0.3184	-0.124
Mof_H 	H 	0.8686	0.3581	0.3153	0.094
Mof_C 	C 	0.83401	0.463	0.28937	0.061
Mof_C 	C 	0.82748	0.5524	0.29636	-0.13
Mof_H 	H 	0.8072	0.584	0.2773	0.072
Mof_C 	C 	0.85076	0.5958	0.3315	0.073
Mof_H 	H 	0.8458	0.6574	0.3362	-0.019
Mof_C 	C 	0.79557	0.2798	0.21855	0.103
Mof_N 	N 	0.76622	0.3144	0.18886	-0.143
Mof_C 	C 	0.76051	0.4017	0.19414	0.085
Mof_N 	N 	0.78101	0.4533	0.22619	-0.143
Mof_C 	C 	0.81026	0.4115	0.25254	0.098
Mof_N 	N 	0.81945	0.3241	0.24974	-0.134
Mof_N 	N 	0.57937	0.5118	0.05729	-0.288
Mof_C 	C 	0.5647	0.4648	0.0219	0.083
Mof_H 	H 	0.5762	0.4702	0.9967	-0.015
Mof_C 	C 	0.5332	0.4081	0.02023	-0.135
Mof_H 	H 	0.5236	0.3744	0.9944	0.08
Mof_C 	C 	0.51585	0.4003	0.05565	0.058
Mof_C 	C 	0.5333	0.4452	0.0938	-0.135
Mof_H 	H 	0.5237	0.4378	0.1201	0.089
Mof_C 	C 	0.5645	0.5	0.0925	0.088
Mof_H 	H 	0.576	0.5313	0.1185	-0.023
Mof_N 	N 	0.43205	0.9825	0.95224	-0.28
Mof_C 	C 	0.46304	0.0352	0.95289	0.07
Mof_H 	H 	0.4814	0.02	0.9352	-0.012
Mof_C 	C 	0.46923	0.1115	0.97872	-0.12
Mof_H 	H 	0.4914	0.1485	0.9784	0.07
Mof_C 	C 	0.44315	0.1331	0.00479	0.05
Mof_C 	C 	0.4117	0.077	0.0052	-0.118
Mof_H 	H 	0.3935	0.0893	0.0235	0.078
Mof_C 	C 	0.4073	0.002	0.978	0.062
Mof_H 	H 	0.3857	0.9632	0.9781	-0.018
Mof_N 	N 	0.35842	0.3428	0.1788	-0.299
Mof_C 	C 	0.3898	0.391	0.1785	0.098
Mof_H 	H 	0.3963	0.4371	0.1998	-0.031
Mof_C 	C 	0.4137	0.3791	0.1493	-0.143
Mof_H 	H 	0.4359	0.417	0.1505	0.09
Mof_C 	C 	0.40613	0.3133	0.1184	0.077
Mof_C 	C 	0.3719	0.2662	0.1166	-0.132
Mof_H 	H 	0.3643	0.222	0.0946	0.086
Mof_C 	C 	0.3489	0.2834	0.1466	0.08
Mof_H 	H 	0.325	0.2513	0.1443	-0.021
Mof_C 	C 	0.48181	0.3402	0.05616	0.089
Mof_N 	N 	0.47654	0.2727	0.02714	-0.149
Mof_C 	C 	0.44802	0.2157	0.03264	0.089
Mof_N 	N 	0.4248	0.2248	0.06107	-0.137
Mof_C 	C 	0.43134	0.2978	0.08672	0.095
Mof_N 	N 	0.46061	0.3562	0.08603	-0.135
Mof_Zn	Zn	0.42022	0.8723	0.90714	0.561
Mof_I 	I 	0.38307	0.76114	0.9416	-0.091
Mof_I 	I 	0.47671	0.84928	0.87206	-0.229
Mof_Zn	Zn	0.821	0.8618	0.2209	0.634
Mof_I 	I 	0.75667	0.781	0.1929	-0.418
Mof_I 	I 	0.8657	0.8313	0.2952	-0.009
Mof_Zn	Zn	0.6219	0.6039	0.062	0.606
Mof_I 	I 	0.6049	0.7355	0.1018	-0.277
Mof_I 	I 	0.6444	0.5951	0.9884	-0.13
Mof_Zn	Zn	0.82944	0.8575	0.23213	0.616
Mof_I 	I 	0.76842	0.76599	0.20818	0.032
Mof_I 	I 	0.87405	0.84115	0.30605	-0.392
Mof_Zn	Zn	0.63074	0.5929	0.0593	0.613
Mof_I 	I 	0.61375	0.7417	0.09246	-0.093
Mof_I 	I 	0.65145	0.5877	0.9888	-0.222
Mof_Zn	Zn	0.4133	0.8877	0.9086	0.632
Mof_I 	I 	0.3717	0.7721	0.94357	-0.258
Mof_I 	I 	0.4757	0.8461	0.8797	-0.099
Mof_N 	N 	0.31437	0.4973	0.22248	-0.287
Mof_C 	C 	0.2846	0.5314	0.1944	0.074
Mof_H 	H 	0.2673	0.4921	0.1758	-0.017
Mof_C 	C 	0.27784	0.6234	0.1911	-0.125
Mof_H 	H 	0.2564	0.6461	0.1701	0.078
Mof_C 	C 	0.30193	0.681	0.21797	0.058
Mof_C 	C 	0.3335	0.6438	0.2477	-0.12
Mof_H 	H 	0.3511	0.6813	0.267	0.084
Mof_C 	C 	0.3386	0.5517	0.2484	0.069
Mof_H 	H 	0.3603	0.5267	0.2683	-0.019
Mof_N 	N 	0.16907	0.0342	0.1056	-0.284
Mof_C 	C 	0.17669	0.9479	0.10017	0.073
Mof_H 	H 	0.1614	0.9166	0.0761	-0.007
Mof_C 	C 	0.20609	0.9016	0.12824	-0.12
Mof_H 	H 	0.2107	0.8399	0.1235	0.084
Mof_C 	C 	0.22848	0.9471	0.16316	0.048
Mof_C 	C 	0.2203	0.0373	0.1686	-0.128
Mof_H 	H 	0.2351	0.0704	0.1923	0.089
Mof_C 	C 	0.19084	0.0778	0.13964	0.069
Mof_H 	H 	0.1855	0.1394	0.1438	-0.005
Mof_N 	N 	0.37956	0.0554	0.35882	-0.289
Mof_C 	C 	0.386	0.9693	0.3515	0.08
Mof_H 	H 	0.4072	0.9401	0.3702	-0.012
Mof_C 	C 	0.3637	0.9203	0.3184	-0.127
Mof_H 	H 	0.3686	0.8581	0.3153	0.096
Mof_C 	C 	0.33401	0.963	0.28937	0.066
Mof_C 	C 	0.32748	0.0524	0.29636	-0.135
Mof_H 	H 	0.3072	0.084	0.2773	0.073
Mof_C 	C 	0.35076	0.0958	0.3315	0.075
Mof_H 	H 	0.3458	0.1574	0.3362	-0.02
Mof_C 	C 	0.29557	0.7798	0.21855	0.102
Mof_N 	N 	0.26622	0.8144	0.18886	-0.143
Mof_C 	C 	0.26051	0.9017	0.19414	0.084
Mof_N 	N 	0.28101	0.9533	0.22619	-0.142
Mof_C 	C 	0.31026	0.9115	0.25254	0.097
Mof_N 	N 	0.31945	0.8241	0.24974	-0.134
Mof_N 	N 	0.07937	0.0118	0.05729	-0.289
Mof_C 	C 	0.0647	0.9648	0.0219	0.085
Mof_H 	H 	0.0762	0.9702	0.9967	-0.015
Mof_C 	C 	0.0332	0.9081	0.02023	-0.135
Mof_H 	H 	0.0236	0.8744	0.9944	0.08
Mof_C 	C 	0.01585	0.9003	0.05565	0.057
Mof_C 	C 	0.0333	0.9452	0.0938	-0.13
Mof_H 	H 	0.0237	0.9378	0.1201	0.088
Mof_C 	C 	0.0645	0	0.0925	0.083
Mof_H 	H 	0.076	0.0313	0.1185	-0.023
Mof_N 	N 	0.93205	0.4825	0.95224	-0.283
Mof_C 	C 	0.96304	0.5352	0.95289	0.073
Mof_H 	H 	0.9814	0.52	0.9352	-0.012
Mof_C 	C 	0.96923	0.6115	0.97872	-0.123
Mof_H 	H 	0.9914	0.6485	0.9784	0.071
Mof_C 	C 	0.94315	0.6331	0.00479	0.053
Mof_C 	C 	0.9117	0.577	0.0052	-0.121
Mof_H 	H 	0.8935	0.5893	0.0235	0.079
Mof_C 	C 	0.9073	0.502	0.978	0.068
Mof_H 	H 	0.8857	0.4632	0.9781	-0.021
Mof_N 	N 	0.85842	0.8428	0.1788	-0.299
Mof_C 	C 	0.8898	0.891	0.1785	0.098
Mof_H 	H 	0.8963	0.9371	0.1998	-0.031
Mof_C 	C 	0.9137	0.8791	0.1493	-0.143
Mof_H 	H 	0.9359	0.917	0.1505	0.09
Mof_C 	C 	0.90613	0.8133	0.1184	0.077
Mof_C 	C 	0.8719	0.7662	0.1166	-0.132
Mof_H 	H 	0.8643	0.722	0.0946	0.087
Mof_C 	C 	0.8489	0.7834	0.1466	0.08
Mof_H 	H 	0.825	0.7513	0.1443	-0.021
Mof_C 	C 	0.98181	0.8402	0.05616	0.09
Mof_N 	N 	0.97654	0.7727	0.02714	-0.149
Mof_C 	C 	0.94802	0.7157	0.03264	0.089
Mof_N 	N 	0.9248	0.7248	0.06107	-0.137
Mof_C 	C 	0.93134	0.7978	0.08672	0.096
Mof_N 	N 	0.96061	0.8562	0.08603	-0.135
Mof_Zn	Zn	0.92022	0.3723	0.90714	0.561
Mof_I 	I 	0.88307	0.26114	0.9416	-0.091
Mof_I 	I 	0.97671	0.34928	0.87206	-0.229
Mof_Zn	Zn	0.321	0.3618	0.2209	0.633
Mof_I 	I 	0.25667	0.281	0.1929	-0.418
Mof_I 	I 	0.3657	0.3313	0.2952	-0.009
Mof_Zn	Zn	0.1219	0.1039	0.062	0.606
Mof_I 	I 	0.1049	0.2355	0.1018	-0.277
Mof_I 	I 	0.1444	0.0951	0.9884	-0.131
Mof_Zn	Zn	0.32944	0.3575	0.23213	0.616
Mof_I 	I 	0.26842	0.26599	0.20818	0.032
Mof_I 	I 	0.37405	0.34115	0.30605	-0.392
Mof_Zn	Zn	0.13074	0.0929	0.0593	0.612
Mof_I 	I 	0.11375	0.2417	0.09246	-0.093
Mof_I 	I 	0.15145	0.0877	0.9888	-0.222
Mof_Zn	Zn	0.9133	0.3877	0.9086	0.632
Mof_I 	I 	0.8717	0.2721	0.94357	-0.258
Mof_I 	I 	0.9757	0.3461	0.8797	-0.1
Mof_N 	N 	0.18563	0.0027	0.77752	-0.29
Mof_C 	C 	0.2154	0.9686	0.8056	0.081
Mof_H 	H 	0.2327	0.0079	0.8242	-0.021
Mof_C 	C 	0.22216	0.8766	0.8089	-0.129
Mof_H 	H 	0.2436	0.8539	0.8299	0.08
Mof_C 	C 	0.19807	0.819	0.78203	0.06
Mof_C 	C 	0.1665	0.8562	0.7523	-0.122
Mof_H 	H 	0.1489	0.8187	0.733	0.085
Mof_C 	C 	0.1614	0.9483	0.7516	0.072
Mof_H 	H 	0.1397	0.9733	0.7317	-0.02
Mof_N 	N 	0.33093	0.4658	0.8944	-0.282
Mof_C 	C 	0.32331	0.5521	0.89983	0.069
Mof_H 	H 	0.3386	0.5834	0.9239	-0.006
Mof_C 	C 	0.29391	0.5984	0.87176	-0.117
Mof_H 	H 	0.2893	0.6601	0.8765	0.083
Mof_C 	C 	0.27152	0.5529	0.83684	0.044
Mof_C 	C 	0.2797	0.4627	0.8314	-0.123
Mof_H 	H 	0.2649	0.4296	0.8077	0.087
Mof_C 	C 	0.30916	0.4222	0.86036	0.067
Mof_H 	H 	0.3145	0.3606	0.8562	-0.004
Mof_N 	N 	0.12044	0.4446	0.64118	-0.287
Mof_C 	C 	0.114	0.5307	0.6485	0.076
Mof_H 	H 	0.0928	0.5599	0.6298	-0.011
Mof_C 	C 	0.1363	0.5797	0.6816	-0.124
Mof_H 	H 	0.1314	0.6419	0.6847	0.095
Mof_C 	C 	0.16599	0.537	0.71063	0.061
Mof_C 	C 	0.17252	0.4476	0.70364	-0.13
Mof_H 	H 	0.1928	0.416	0.7227	0.072
Mof_C 	C 	0.14924	0.4042	0.6685	0.073
Mof_H 	H 	0.1542	0.3426	0.6638	-0.019
Mof_C 	C 	0.20443	0.7202	0.78145	0.101
Mof_N 	N 	0.23378	0.6856	0.81114	-0.143
Mof_C 	C 	0.23949	0.5983	0.80586	0.085
Mof_N 	N 	0.21899	0.5467	0.77381	-0.143
Mof_C 	C 	0.18974	0.5885	0.74746	0.098
Mof_N 	N 	0.18055	0.6759	0.75026	-0.134
Mof_N 	N 	0.42063	0.4882	0.94271	-0.288
Mof_C 	C 	0.4353	0.5352	0.9781	0.083
Mof_H 	H 	0.4238	0.5298	0.0033	-0.015
Mof_C 	C 	0.4668	0.5919	0.97977	-0.135
Mof_H 	H 	0.4764	0.6256	0.0056	0.08
Mof_C 	C 	0.48415	0.5997	0.94435	0.058
Mof_C 	C 	0.4667	0.5548	0.9062	-0.135
Mof_H 	H 	0.4763	0.5622	0.8799	0.089
Mof_C 	C 	0.4355	0.5	0.9075	0.088
Mof_H 	H 	0.424	0.4687	0.8815	-0.023
Mof_N 	N 	0.56795	0.0175	0.04776	-0.287
Mof_C 	C 	0.53696	0.9648	0.04711	0.077
Mof_H 	H 	0.5186	0.98	0.0648	-0.012
Mof_C 	C 	0.53077	0.8885	0.02128	-0.125
Mof_H 	H 	0.5086	0.8515	0.0216	0.072
Mof_C 	C 	0.55685	0.8669	0.99521	0.055
Mof_C 	C 	0.5883	0.923	0.9948	-0.126
Mof_H 	H 	0.6065	0.9107	0.9765	0.081
Mof_C 	C 	0.5927	0.998	0.022	0.076
Mof_H 	H 	0.6143	0.0368	0.0219	-0.025
Mof_N 	N 	0.64158	0.6572	0.8212	-0.299
Mof_C 	C 	0.6102	0.609	0.8215	0.098
Mof_H 	H 	0.6037	0.5629	0.8002	-0.031
Mof_C 	C 	0.5863	0.6209	0.8507	-0.143
Mof_H 	H 	0.5641	0.583	0.8495	0.089
Mof_C 	C 	0.59387	0.6867	0.8816	0.077
Mof_C 	C 	0.6281	0.7338	0.8834	-0.132
Mof_H 	H 	0.6357	0.778	0.9054	0.087
Mof_C 	C 	0.6511	0.7166	0.8534	0.08
Mof_H 	H 	0.675	0.7487	0.8557	-0.021
Mof_C 	C 	0.51819	0.6598	0.94384	0.089
Mof_N 	N 	0.52346	0.7273	0.97286	-0.149
Mof_C 	C 	0.55198	0.7843	0.96736	0.088
Mof_N 	N 	0.5752	0.7752	0.93893	-0.136
Mof_C 	C 	0.56866	0.7022	0.91328	0.096
Mof_N 	N 	0.53939	0.6438	0.91397	-0.135
Mof_Zn	Zn	0.57978	0.1277	0.09286	0.561
Mof_I 	I 	0.61693	0.23886	0.0584	-0.092
Mof_I 	I 	0.52329	0.15072	0.12794	-0.229
Mof_Zn	Zn	0.179	0.1382	0.7791	0.633
Mof_I 	I 	0.24333	0.219	0.8071	-0.418
Mof_I 	I 	0.1343	0.1687	0.7048	-0.01
Mof_Zn	Zn	0.3781	0.3961	0.938	0.606
Mof_I 	I 	0.3951	0.2645	0.8982	-0.277
Mof_I 	I 	0.3556	0.4049	0.0116	-0.13
Mof_Zn	Zn	0.17056	0.1425	0.76787	0.616
Mof_I 	I 	0.23158	0.23401	0.79182	0.032
Mof_I 	I 	0.12595	0.15885	0.69395	-0.392
Mof_Zn	Zn	0.36926	0.4071	0.9407	0.613
Mof_I 	I 	0.38625	0.2583	0.90754	-0.093
Mof_I 	I 	0.34855	0.4123	0.0112	-0.222
Mof_Zn	Zn	0.5867	0.1123	0.0914	0.631
Mof_I 	I 	0.6283	0.2279	0.05643	-0.258
Mof_I 	I 	0.5243	0.1539	0.1203	-0.1
Mof_N 	N 	0.68563	0.5027	0.77752	-0.287
Mof_C 	C 	0.7154	0.4686	0.8056	0.074
Mof_H 	H 	0.7327	0.5079	0.8242	-0.017
Mof_C 	C 	0.72216	0.3766	0.8089	-0.125
Mof_H 	H 	0.7436	0.3539	0.8299	0.078
Mof_C 	C 	0.69807	0.319	0.78203	0.058
Mof_C 	C 	0.6665	0.3562	0.7523	-0.12
Mof_H 	H 	0.6489	0.3187	0.733	0.084
Mof_C 	C 	0.6614	0.4483	0.7516	0.069
Mof_H 	H 	0.6397	0.4733	0.7317	-0.019
Mof_N 	N 	0.83093	0.9658	0.8944	-0.28
Mof_C 	C 	0.82331	0.0521	0.89983	0.065
Mof_H 	H 	0.8386	0.0834	0.9239	-0.005
Mof_C 	C 	0.79391	0.0984	0.87176	-0.115
Mof_H 	H 	0.7893	0.1601	0.8765	0.082
Mof_C 	C 	0.77152	0.0529	0.83684	0.04
Mof_C 	C 	0.7797	0.9627	0.8314	-0.119
Mof_H 	H 	0.7649	0.9296	0.8077	0.086
Mof_C 	C 	0.80916	0.9222	0.86036	0.066
Mof_H 	H 	0.8145	0.8606	0.8562	-0.003
Mof_N 	N 	0.62044	0.9446	0.64118	-0.285
Mof_C 	C 	0.614	0.0307	0.6485	0.073
Mof_H 	H 	0.5928	0.0599	0.6298	-0.01
Mof_C 	C 	0.6363	0.0797	0.6816	-0.121
Mof_H 	H 	0.6314	0.1419	0.6847	0.093
Mof_C 	C 	0.66599	0.037	0.71063	0.057
Mof_C 	C 	0.67252	0.9476	0.70364	-0.126
Mof_H 	H 	0.6928	0.916	0.7227	0.071
Mof_C 	C 	0.64924	0.9042	0.6685	0.072
Mof_H 	H 	0.6542	0.8426	0.6638	-0.019
Mof_C 	C 	0.70443	0.2202	0.78145	0.102
Mof_N 	N 	0.73378	0.1856	0.81114	-0.143
Mof_C 	C 	0.73949	0.0983	0.80586	0.085
Mof_N 	N 	0.71899	0.0467	0.77381	-0.144
Mof_C 	C 	0.68974	0.0885	0.74746	0.099
Mof_N 	N 	0.68055	0.1759	0.75026	-0.134
Mof_N 	N 	0.92063	0.9882	0.94271	-0.285
Mof_C 	C 	0.9353	0.0352	0.9781	0.08
Mof_H 	H 	0.9238	0.0298	0.0033	-0.014
Mof_C 	C 	0.9668	0.0919	0.97977	-0.132
Mof_H 	H 	0.9764	0.1256	0.0056	0.078
Mof_C 	C 	0.98415	0.0997	0.94435	0.055
Mof_C 	C 	0.9667	0.0548	0.9062	-0.13
Mof_H 	H 	0.9763	0.0622	0.8799	0.087
Mof_C 	C 	0.9355	-2.56285e-32	0.9075	0.08
Mof_H 	H 	0.924	0.9687	0.8815	-0.02
Mof_N 	N 	0.06795	0.5175	0.04776	-0.283
Mof_C 	C 	0.03696	0.4648	0.04711	0.073
Mof_H 	H 	0.0186	0.48	0.0648	-0.012
Mof_C 	C 	0.03077	0.3885	0.02128	-0.123
Mof_H 	H 	0.0086	0.3515	0.0216	0.071
Mof_C 	C 	0.05685	0.3669	0.99521	0.053
Mof_C 	C 	0.0883	0.423	0.9948	-0.121
Mof_H 	H 	0.1065	0.4107	0.9765	0.079
Mof_C 	C 	0.0927	0.498	0.022	0.068
Mof_H 	H 	0.1143	0.5368	0.0219	-0.021
Mof_N 	N 	0.14158	0.1572	0.8212	-0.299
Mof_C 	C 	0.1102	0.109	0.8215	0.098
Mof_H 	H 	0.1037	0.0629	0.8002	-0.031
Mof_C 	C 	0.0863	0.1209	0.8507	-0.143
Mof_H 	H 	0.0641	0.083	0.8495	0.089
Mof_C 	C 	0.09387	0.1867	0.8816	0.077
Mof_C 	C 	0.1281	0.2338	0.8834	-0.132
Mof_H 	H 	0.1357	0.278	0.9054	0.087
Mof_C 	C 	0.1511	0.2166	0.8534	0.08
Mof_H 	H 	0.175	0.2487	0.8557	-0.021
Mof_C 	C 	0.01819	0.1598	0.94384	0.09
Mof_N 	N 	0.02346	0.2273	0.97286	-0.149
Mof_C 	C 	0.05198	0.2843	0.96736	0.089
Mof_N 	N 	0.0752	0.2752	0.93893	-0.137
Mof_C 	C 	0.06866	0.2022	0.91328	0.095
Mof_N 	N 	0.03939	0.1438	0.91397	-0.136
Mof_Zn	Zn	0.07978	0.6277	0.09286	0.561
Mof_I 	I 	0.11693	0.73886	0.0584	-0.091
Mof_I 	I 	0.02329	0.65072	0.12794	-0.229
Mof_Zn	Zn	0.679	0.6382	0.7791	0.633
Mof_I 	I 	0.74333	0.719	0.8071	-0.418
Mof_I 	I 	0.6343	0.6687	0.7048	-0.009
Mof_Zn	Zn	0.8781	0.8961	0.938	0.606
Mof_I 	I 	0.8951	0.7645	0.8982	-0.277
Mof_I 	I 	0.8556	0.9049	0.0116	-0.129
Mof_Zn	Zn	0.67056	0.6425	0.76787	0.616
Mof_I 	I 	0.73158	0.73401	0.79182	0.032
Mof_I 	I 	0.62595	0.65885	0.69395	-0.392
Mof_Zn	Zn	0.86926	0.9071	0.9407	0.613
Mof_I 	I 	0.88625	0.7583	0.90754	-0.093
Mof_I 	I 	0.84855	0.9123	0.0112	-0.221
Mof_Zn	Zn	0.0867	0.6123	0.0914	0.632
Mof_I 	I 	0.1283	0.7279	0.05643	-0.258
Mof_I 	I 	0.0243	0.6539	0.1203	-0.1
Mof_N 	N 	0.18563	0.9973	0.27752	-0.283
Mof_C 	C 	0.2154	0.0314	0.3056	0.067
Mof_H 	H 	0.2327	0.9921	0.3242	-0.014
Mof_C 	C 	0.22216	0.1234	0.3089	-0.121
Mof_H 	H 	0.2436	0.1461	0.3299	0.077
Mof_C 	C 	0.19807	0.181	0.28203	0.055
Mof_C 	C 	0.1665	0.1438	0.2523	-0.117
Mof_H 	H 	0.1489	0.1813	0.233	0.083
Mof_C 	C 	0.1614	0.0517	0.2516	0.065
Mof_H 	H 	0.1397	0.0267	0.2317	-0.019
Mof_N 	N 	0.33093	0.5342	0.3944	-0.282
Mof_C 	C 	0.32331	0.4479	0.39983	0.069
Mof_H 	H 	0.3386	0.4166	0.4239	-0.006
Mof_C 	C 	0.29391	0.4016	0.37176	-0.117
Mof_H 	H 	0.2893	0.3399	0.3765	0.083
Mof_C 	C 	0.27152	0.4471	0.33684	0.043
Mof_C 	C 	0.2797	0.5373	0.3314	-0.123
Mof_H 	H 	0.2649	0.5704	0.3077	0.087
Mof_C 	C 	0.30916	0.5778	0.36036	0.067
Mof_H 	H 	0.3145	0.6394	0.3562	-0.004
Mof_N 	N 	0.12044	0.5554	0.14118	-0.287
Mof_C 	C 	0.114	0.4693	0.1485	0.076
Mof_H 	H 	0.0928	0.4401	0.1298	-0.011
Mof_C 	C 	0.1363	0.4203	0.1816	-0.124
Mof_H 	H 	0.1314	0.3581	0.1847	0.094
Mof_C 	C 	0.16599	0.463	0.21063	0.061
Mof_C 	C 	0.17252	0.5524	0.20364	-0.13
Mof_H 	H 	0.1928	0.584	0.2227	0.072
Mof_C 	C 	0.14924	0.5958	0.1685	0.073
Mof_H 	H 	0.1542	0.6574	0.1638	-0.019
Mof_C 	C 	0.20443	0.2798	0.28145	0.103
Mof_N 	N 	0.23378	0.3144	0.31114	-0.143
Mof_C 	C 	0.23949	0.4017	0.30586	0.085
Mof_N 	N 	0.21899	0.4533	0.27381	-0.143
Mof_C 	C 	0.18974	0.4115	0.24746	0.098
Mof_N 	N 	0.18055	0.3241	0.25026	-0.134
Mof_N 	N 	0.42063	0.5118	0.44271	-0.288
Mof_C 	C 	0.4353	0.4648	0.4781	0.083
Mof_H 	H 	0.4238	0.4702	0.5033	-0.015
Mof_C 	C 	0.4668	0.4081	0.47977	-0.135
Mof_H 	H 	0.4764	0.3744	0.5056	0.08
Mof_C 	C 	0.48415	0.4003	0.44435	0.058
Mof_C 	C 	0.4667	0.4452	0.4062	-0.135
Mof_H 	H 	0.4763	0.4378	0.3799	0.089
Mof_C 	C 	0.4355	0.5	0.4075	0.088
Mof_H 	H 	0.424	0.5313	0.3815	-0.023
Mof_N 	N 	0.56795	0.9825	0.54776	-0.28
Mof_C 	C 	0.53696	0.0352	0.54711	0.07
Mof_H 	H 	0.5186	0.02	0.5648	-0.011
Mof_C 	C 	0.53077	0.1115	0.52128	-0.12
Mof_H 	H 	0.5086	0.1485	0.5216	0.07
Mof_C 	C 	0.55685	0.1331	0.49521	0.05
Mof_C 	C 	0.5883	0.077	0.4948	-0.117
Mof_H 	H 	0.6065	0.0893	0.4765	0.078
Mof_C 	C 	0.5927	0.002	0.522	0.061
Mof_H 	H 	0.6143	0.9632	0.5219	-0.017
Mof_N 	N 	0.64158	0.3428	0.3212	-0.299
Mof_C 	C 	0.6102	0.391	0.3215	0.098
Mof_H 	H 	0.6037	0.4371	0.3002	-0.031
Mof_C 	C 	0.5863	0.3791	0.3507	-0.143
Mof_H 	H 	0.5641	0.417	0.3495	0.09
Mof_C 	C 	0.59387	0.3133	0.3816	0.077
Mof_C 	C 	0.6281	0.2662	0.3834	-0.132
Mof_H 	H 	0.6357	0.222	0.4054	0.086
Mof_C 	C 	0.6511	0.2834	0.3534	0.08
Mof_H 	H 	0.675	0.2513	0.3557	-0.021
Mof_C 	C 	0.51819	0.3402	0.44384	0.089
Mof_N 	N 	0.52346	0.2727	0.47286	-0.149
Mof_C 	C 	0.55198	0.2157	0.46736	0.089
Mof_N 	N 	0.5752	0.2248	0.43893	-0.137
Mof_C 	C 	0.56866	0.2978	0.41328	0.095
Mof_N 	N 	0.53939	0.3562	0.41397	-0.135
Mof_Zn	Zn	0.57978	0.8723	0.59286	0.561
Mof_I 	I 	0.61693	0.76114	0.5584	-0.091
Mof_I 	I 	0.52329	0.84928	0.62794	-0.229
Mof_Zn	Zn	0.179	0.8618	0.2791	0.634
Mof_I 	I 	0.24333	0.781	0.3071	-0.418
Mof_I 	I 	0.1343	0.8313	0.2048	-0.009
Mof_Zn	Zn	0.3781	0.6039	0.438	0.606
Mof_I 	I 	0.3951	0.7355	0.3982	-0.277
Mof_I 	I 	0.3556	0.5951	0.5116	-0.13
Mof_Zn	Zn	0.17056	0.8575	0.26787	0.616
Mof_I 	I 	0.23158	0.76599	0.29182	0.032
Mof_I 	I 	0.12595	0.84115	0.19395	-0.392
Mof_Zn	Zn	0.36926	0.5929	0.4407	0.613
Mof_I 	I 	0.38625	0.7417	0.40754	-0.093
Mof_I 	I 	0.34855	0.5877	0.5112	-0.222
Mof_Zn	Zn	0.5867	0.8877	0.5914	0.632
Mof_I 	I 	0.6283	0.7721	0.55643	-0.258
Mof_I 	I 	0.5243	0.8461	0.6203	-0.099
Mof_N 	N 	0.68563	0.4973	0.27752	-0.287
Mof_C 	C 	0.7154	0.5314	0.3056	0.074
Mof_H 	H 	0.7327	0.4921	0.3242	-0.017
Mof_C 	C 	0.72216	0.6234	0.3089	-0.125
Mof_H 	H 	0.7436	0.6461	0.3299	0.078
Mof_C 	C 	0.69807	0.681	0.28203	0.058
Mof_C 	C 	0.6665	0.6438	0.2523	-0.12
Mof_H 	H 	0.6489	0.6813	0.233	0.084
Mof_C 	C 	0.6614	0.5517	0.2516	0.069
Mof_H 	H 	0.6397	0.5267	0.2317	-0.019
Mof_N 	N 	0.83093	0.0342	0.3944	-0.284
Mof_C 	C 	0.82331	0.9479	0.39983	0.073
Mof_H 	H 	0.8386	0.9166	0.4239	-0.006
Mof_C 	C 	0.79391	0.9016	0.37176	-0.12
Mof_H 	H 	0.7893	0.8399	0.3765	0.084
Mof_C 	C 	0.77152	0.9471	0.33684	0.048
Mof_C 	C 	0.7797	0.0373	0.3314	-0.128
Mof_H 	H 	0.7649	0.0704	0.3077	0.089
Mof_C 	C 	0.80916	0.0778	0.36036	0.069
Mof_H 	H 	0.8145	0.1394	0.3562	-0.005
Mof_N 	N 	0.62044	0.0554	0.14118	-0.289
Mof_C 	C 	0.614	0.9693	0.1485	0.08
Mof_H 	H 	0.5928	0.9401	0.1298	-0.012
Mof_C 	C 	0.6363	0.9203	0.1816	-0.127
Mof_H 	H 	0.6314	0.8581	0.1847	0.096
Mof_C 	C 	0.66599	0.963	0.21063	0.066
Mof_C 	C 	0.67252	0.0524	0.20364	-0.135
Mof_H 	H 	0.6928	0.084	0.2227	0.073
Mof_C 	C 	0.64924	0.0958	0.1685	0.075
Mof_H 	H 	0.6542	0.1574	0.1638	-0.02
Mof_C 	C 	0.70443	0.7798	0.28145	0.102
Mof_N 	N 	0.73378	0.8144	0.31114	-0.143
Mof_C 	C 	0.73949	0.9017	0.30586	0.084
Mof_N 	N 	0.71899	0.9533	0.27381	-0.142
Mof_C 	C 	0.68974	0.9115	0.24746	0.097
Mof_N 	N 	0.68055	0.8241	0.25026	-0.134
Mof_N 	N 	0.92063	0.0118	0.44271	-0.289
Mof_C 	C 	0.9353	0.9648	0.4781	0.085
Mof_H 	H 	0.9238	0.9702	0.5033	-0.014
Mof_C 	C 	0.9668	0.9081	0.47977	-0.135
Mof_H 	H 	0.9764	0.8744	0.5056	0.08
Mof_C 	C 	0.98415	0.9003	0.44435	0.057
Mof_C 	C 	0.9667	0.9452	0.4062	-0.131
Mof_H 	H 	0.9763	0.9378	0.3799	0.088
Mof_C 	C 	0.9355	0	0.4075	0.084
Mof_H 	H 	0.924	0.0313	0.3815	-0.023
Mof_N 	N 	0.06795	0.4825	0.54776	-0.283
Mof_C 	C 	0.03696	0.5352	0.54711	0.073
Mof_H 	H 	0.0186	0.52	0.5648	-0.012
Mof_C 	C 	0.03077	0.6115	0.52128	-0.123
Mof_H 	H 	0.0086	0.6485	0.5216	0.071
Mof_C 	C 	0.05685	0.6331	0.49521	0.053
Mof_C 	C 	0.0883	0.577	0.4948	-0.121
Mof_H 	H 	0.1065	0.5893	0.4765	0.079
Mof_C 	C 	0.0927	0.502	0.522	0.068
Mof_H 	H 	0.1143	0.4632	0.5219	-0.021
Mof_N 	N 	0.14158	0.8428	0.3212	-0.299
Mof_C 	C 	0.1102	0.891	0.3215	0.098
Mof_H 	H 	0.1037	0.9371	0.3002	-0.031
Mof_C 	C 	0.0863	0.8791	0.3507	-0.143
Mof_H 	H 	0.0641	0.917	0.3495	0.09
Mof_C 	C 	0.09387	0.8133	0.3816	0.077
Mof_C 	C 	0.1281	0.7662	0.3834	-0.132
Mof_H 	H 	0.1357	0.722	0.4054	0.087
Mof_C 	C 	0.1511	0.7834	0.3534	0.08
Mof_H 	H 	0.175	0.7513	0.3557	-0.021
Mof_C 	C 	0.01819	0.8402	0.44384	0.09
Mof_N 	N 	0.02346	0.7727	0.47286	-0.149
Mof_C 	C 	0.05198	0.7157	0.46736	0.089
Mof_N 	N 	0.0752	0.7248	0.43893	-0.137
Mof_C 	C 	0.06866	0.7978	0.41328	0.096
Mof_N 	N 	0.03939	0.8562	0.41397	-0.135
Mof_Zn	Zn	0.07978	0.3723	0.59286	0.561
Mof_I 	I 	0.11693	0.26114	0.5584	-0.091
Mof_I 	I 	0.02329	0.34928	0.62794	-0.229
Mof_Zn	Zn	0.679	0.3618	0.2791	0.633
Mof_I 	I 	0.74333	0.281	0.3071	-0.418
Mof_I 	I 	0.6343	0.3313	0.2048	-0.009
Mof_Zn	Zn	0.8781	0.1039	0.438	0.606
Mof_I 	I 	0.8951	0.2355	0.3982	-0.277
Mof_I 	I 	0.8556	0.0951	0.5116	-0.131
Mof_Zn	Zn	0.67056	0.3575	0.26787	0.616
Mof_I 	I 	0.73158	0.26599	0.29182	0.032
Mof_I 	I 	0.62595	0.34115	0.19395	-0.392
Mof_Zn	Zn	0.86926	0.0929	0.4407	0.612
Mof_I 	I 	0.88625	0.2417	0.40754	-0.093
Mof_I 	I 	0.84855	0.0877	0.5112	-0.222
Mof_Zn	Zn	0.0867	0.3877	0.5914	0.632
Mof_I 	I 	0.1283	0.2721	0.55643	-0.258
Mof_I 	I 	0.0243	0.3461	0.6203	-0.1
_end
