data_functionalizedCrystal
_audit_creation_method	'EQeq! by Chris Wilmer'
_symmetry_space_group_name_H-M	'P1'
_symmetry_Int_Tables_number	1
_symmetry_cell_setting	triclinic
loop_
_symmetry_equiv_pos_as_xyz
  x,y,z
_cell_length_a	14.251
_cell_length_b	17.797
_cell_length_c	13.043
_cell_angle_alpha	90
_cell_angle_beta	111.247
_cell_angle_gamma	90
loop_
_atom_site_label
_atom_site_type_symbol
_atom_site_fract_x
_atom_site_fract_y
_atom_site_fract_z
_atom_site_charge
Mof_Cd	Cd	0.07893	0.13959	0.08502	0.282
Mof_C 	C 	0.25	0.1342	0.1611	-0.069
Mof_C 	C 	0.3307	0.1346	0.1942	-0.07
Mof_C 	C 	0.0166	0.0279	0.0186	-0.097
Mof_C 	C 	0.4902	0.2341	0.1185	-0.061
Mof_C 	C 	0.016	0.1563	0.2155	-0.103
Mof_C 	C 	0.0274	0.2247	0.9489	-0.078
Mof_Cd	Cd	0.57893	0.63959	0.08502	0.283
Mof_C 	C 	0.75	0.6342	0.1611	-0.069
Mof_C 	C 	0.8307	0.6346	0.1942	-0.057
Mof_C 	C 	0.5166	0.5279	0.0186	-0.064
Mof_C 	C 	0.9902	0.7341	0.1185	-0.047
Mof_C 	C 	0.516	0.6563	0.2155	-0.071
Mof_C 	C 	0.5274	0.7247	0.9489	-0.076
Mof_Cd	Cd	0.92107	0.13959	0.41498	0.279
Mof_C 	C 	0.75	0.1342	0.3389	-0.066
Mof_C 	C 	0.6693	0.1346	0.3058	-0.069
Mof_C 	C 	0.9834	0.0279	0.4814	-0.04
Mof_C 	C 	0.5098	0.2341	0.3815	-0.061
Mof_C 	C 	0.984	0.1563	0.2845	-0.04
Mof_C 	C 	0.9726	0.2247	0.5511	-0.073
Mof_Cd	Cd	0.42107	0.63959	0.41498	0.279
Mof_C 	C 	0.25	0.6342	0.3389	-0.069
Mof_C 	C 	0.1693	0.6346	0.3058	-0.072
Mof_C 	C 	0.4834	0.5279	0.4814	-0.07
Mof_C 	C 	0.0098	0.7341	0.3815	-0.067
Mof_C 	C 	0.484	0.6563	0.2845	-0.072
Mof_C 	C 	0.4726	0.7247	0.5511	-0.073
Mof_Cd	Cd	0.92107	0.86041	0.91498	0.277
Mof_C 	C 	0.75	0.8658	0.8389	-0.067
Mof_C 	C 	0.6693	0.8654	0.8058	-0.069
Mof_C 	C 	0.9834	0.9721	0.9814	-0.045
Mof_C 	C 	0.5098	0.7659	0.8815	-0.061
Mof_C 	C 	0.984	0.8437	0.7845	-0.042
Mof_C 	C 	0.9726	0.7753	0.0511	-0.07
Mof_Cd	Cd	0.42107	0.36041	0.91498	0.278
Mof_C 	C 	0.25	0.3658	0.8389	-0.069
Mof_C 	C 	0.1693	0.3654	0.8058	-0.073
Mof_C 	C 	0.4834	0.4721	0.9814	-0.077
Mof_C 	C 	0.0098	0.2659	0.8815	-0.066
Mof_C 	C 	0.484	0.3437	0.7845	-0.072
Mof_C 	C 	0.4726	0.2753	0.0511	-0.07
Mof_Cd	Cd	0.07893	0.86041	0.58502	0.281
Mof_C 	C 	0.25	0.8658	0.6611	-0.069
Mof_C 	C 	0.3307	0.8654	0.6942	-0.071
Mof_C 	C 	0.0166	0.9721	0.5186	-0.101
Mof_C 	C 	0.4902	0.7659	0.6185	-0.061
Mof_C 	C 	0.016	0.8437	0.7155	-0.102
Mof_C 	C 	0.0274	0.7753	0.4489	-0.076
Mof_Cd	Cd	0.57893	0.36041	0.58502	0.281
Mof_C 	C 	0.75	0.3658	0.6611	-0.07
Mof_C 	C 	0.8307	0.3654	0.6942	-0.058
Mof_C 	C 	0.5166	0.4721	0.5186	-0.07
Mof_C 	C 	0.9902	0.2659	0.6185	-0.048
Mof_C 	C 	0.516	0.3437	0.7155	-0.072
Mof_C 	C 	0.5274	0.2753	0.4489	-0.073
Mof_Cd	Cd	0.5	0.14766	0.25	0.27
Mof_Cd	Cd	-9.21833e-18	0.64766	0.25	0.254
Mof_Cd	Cd	0.5	0.85234	0.75	0.269
Mof_Cd	Cd	-3.68733e-17	0.35234	0.75	0.253
_end
