data_functionalizedCrystal
_audit_creation_method	'EQeq! by Chris Wilmer'
_symmetry_space_group_name_H-M	'P1'
_symmetry_Int_Tables_number	1
_symmetry_cell_setting	triclinic
loop_
_symmetry_equiv_pos_as_xyz
  x,y,z
_cell_length_a	16.697
_cell_length_b	13.848
_cell_length_c	10.873
_cell_angle_alpha	90
_cell_angle_beta	101.62
_cell_angle_gamma	90
loop_
_atom_site_label
_atom_site_type_symbol
_atom_site_fract_x
_atom_site_fract_y
_atom_site_fract_z
_atom_site_charge
Mof_Fe	Fe	0.9348	0.6306	0.8578	2.391
Mof_O 	O 	0.8715	0.4138	0.9718	-0.49
Mof_O 	O 	0.8363	0.5403	0.836	-0.51
Mof_O 	O 	0.7114	0.3511	0.9216	-0.117
Mof_O 	O 	0.624	0.2143	0.0203	-0.503
Mof_O 	O 	0.5175	0.2411	0.8584	-0.536
Mof_O 	O 	0.9915	0.4065	0.8095	-0.531
Mof_O 	O 	0.9813	0.56	0.726	-0.515
Mof_O 	O 	0.8645	0.7115	0.7158	-0.322
Mof_C 	C 	0.8235	0.4612	0.8953	0.438
Mof_C 	C 	0.7346	0.4292	0.8571	0.005
Mof_C 	C 	0.6776	0.457	0.7654	-0.028
Mof_H 	H 	0.6809	0.5068	0.7066	0.063
Mof_C 	C 	0.6064	0.3958	0.7705	-0.012
Mof_H 	H 	0.5536	0.3991	0.7182	0.06
Mof_C 	C 	0.6328	0.3337	0.8664	-0.01
Mof_C 	C 	0.5862	0.255	0.9181	0.519
Mof_C 	C 	0.9866	0.4673	0.7223	0.431
Mof_C 	C 	0.9993	0.4275	0.5975	0.035
Mof_C 	C 	0.9985	0.3264	0.5674	-0.006
Mof_H 	H 	0.9964	0.2728	0.6211	0.063
Mof_Co	Co	0.9342	0.6337	0.8766	-0.528
Mof_Fe	Fe	0.4348	0.1306	0.8578	2.399
Mof_O 	O 	0.3715	0.9138	0.9718	-0.49
Mof_O 	O 	0.3363	0.0403	0.836	-0.453
Mof_O 	O 	0.2114	0.8511	0.9216	-0.133
Mof_O 	O 	0.124	0.7143	0.0203	-0.524
Mof_O 	O 	0.0175	0.7411	0.8584	-0.555
Mof_O 	O 	0.4915	0.9065	0.8095	-0.538
Mof_O 	O 	0.4813	0.06	0.726	-0.467
Mof_O 	O 	0.3645	0.2115	0.7158	-0.319
Mof_C 	C 	0.3235	0.9612	0.8953	0.345
Mof_C 	C 	0.2346	0.9292	0.8571	0.073
Mof_C 	C 	0.1776	0.957	0.7654	-0.2
Mof_H 	H 	0.1809	0.0068	0.7066	0.159
Mof_C 	C 	0.1064	0.8958	0.7705	0.055
Mof_H 	H 	0.0536	0.8991	0.7182	0.02
Mof_C 	C 	0.1328	0.8337	0.8664	-0.043
Mof_C 	C 	0.0862	0.755	0.9181	0.533
Mof_C 	C 	0.4866	0.9673	0.7223	0.36
Mof_C 	C 	0.4993	0.9275	0.5975	0.027
Mof_C 	C 	0.4985	0.8264	0.5674	-0.042
Mof_H 	H 	0.4964	0.7728	0.6211	0.059
Mof_Co	Co	0.4342	0.1337	0.8766	-0.541
Mof_Fe	Fe	0.0652	0.6306	0.1422	2.412
Mof_O 	O 	0.1285	0.4138	0.0282	-0.558
Mof_O 	O 	0.1637	0.5403	0.164	-0.528
Mof_O 	O 	0.2886	0.3511	0.0784	-0.163
Mof_O 	O 	0.376	0.2143	0.9797	-0.378
Mof_O 	O 	0.4825	0.2411	0.1416	-0.518
Mof_O 	O 	0.0085	0.4065	0.1905	-0.583
Mof_O 	O 	0.0187	0.56	0.274	-0.546
Mof_O 	O 	0.1355	0.7115	0.2842	-0.344
Mof_C 	C 	0.1765	0.4612	0.1047	0.439
Mof_C 	C 	0.2654	0.4292	0.1429	-0.012
Mof_C 	C 	0.3224	0.457	0.2346	-0.021
Mof_H 	H 	0.3191	0.5068	0.2934	0.055
Mof_C 	C 	0.3936	0.3958	0.2295	-0.045
Mof_H 	H 	0.4464	0.3991	0.2818	0.065
Mof_C 	C 	0.3672	0.3337	0.1336	0.02
Mof_C 	C 	0.4138	0.255	0.0819	0.363
Mof_C 	C 	0.0134	0.4673	0.2777	0.436
Mof_C 	C 	0.0007	0.4275	0.4025	0.011
Mof_C 	C 	0.0015	0.3264	0.4326	-0.059
Mof_H 	H 	0.0036	0.2728	0.3789	0.06
Mof_Co	Co	0.0658	0.6337	0.1234	-0.572
Mof_Fe	Fe	0.5652	0.1306	0.1422	2.41
Mof_O 	O 	0.6285	0.9138	0.0282	-0.543
Mof_O 	O 	0.6637	0.0403	0.164	-0.456
Mof_O 	O 	0.7886	0.8511	0.0784	-0.18
Mof_O 	O 	0.876	0.7143	0.9797	-0.378
Mof_O 	O 	0.9825	0.7411	0.1416	-0.509
Mof_O 	O 	0.5085	0.9065	0.1905	-0.575
Mof_O 	O 	0.5187	0.06	0.274	-0.476
Mof_O 	O 	0.6355	0.2115	0.2842	-0.326
Mof_C 	C 	0.6765	0.9612	0.1047	0.335
Mof_C 	C 	0.7654	0.9292	0.1429	0.068
Mof_C 	C 	0.8224	0.957	0.2346	-0.205
Mof_H 	H 	0.8191	0.0068	0.2934	0.167
Mof_C 	C 	0.8936	0.8958	0.2295	0.028
Mof_H 	H 	0.9464	0.8991	0.2818	0.033
Mof_C 	C 	0.8672	0.8337	0.1336	-0.005
Mof_C 	C 	0.9138	0.755	0.0819	0.366
Mof_C 	C 	0.5134	0.9673	0.2777	0.358
Mof_C 	C 	0.5007	0.9275	0.4025	0.019
Mof_C 	C 	0.5015	0.8264	0.4326	-0.038
Mof_H 	H 	0.5036	0.7728	0.3789	0.05
Mof_Co	Co	0.5658	0.1337	0.1234	-0.565
Mof_O 	O 	1.46669e-33	0.4829	0.5	-0.165
Mof_O 	O 	0.5	0.9829	0.5	-0.176
Mof_O 	O 	-0	0.5681	-0	-0.963
Mof_Fe	Fe	-0	0.4195	-0	2.455
Mof_Co	Co	-0	0.4323	-0	-0.704
Mof_O 	O 	0.5	0.0681	-0	-0.92
Mof_Fe	Fe	0.5	0.9195	-0	2.465
Mof_Co	Co	0.5	0.9323	-0	-0.726
_end
