data_functionalizedCrystal
_audit_creation_method	'EQeq! by Chris Wilmer'
_symmetry_space_group_name_H-M	'P1'
_symmetry_Int_Tables_number	1
_symmetry_cell_setting	triclinic
loop_
_symmetry_equiv_pos_as_xyz
  x,y,z
_cell_length_a	10.4767
_cell_length_b	10.4874
_cell_length_c	6.3225
_cell_angle_alpha	90
_cell_angle_beta	115.385
_cell_angle_gamma	90
loop_
_atom_site_label
_atom_site_type_symbol
_atom_site_fract_x
_atom_site_fract_y
_atom_site_fract_z
_atom_site_charge
Mof_C 	C 	0.3157	0.2098	0.5467	-0.065
Mof_H 	H 	0.3971	0.2645	0.5827	0.016
Mof_H 	H 	0.3259	0.1697	0.6913	-0.003
Mof_N 	N 	0.3143	0.1109	0.3821	-0.271
Mof_H 	H 	0.3009	0.1483	0.2461	0.061
Mof_H 	H 	0.2404	0.0588	0.3532	0.053
Mof_C 	C 	0.8157	0.7098	0.5467	-0.066
Mof_H 	H 	0.8971	0.7645	0.5827	0.043
Mof_H 	H 	0.8259	0.6697	0.6913	0.022
Mof_N 	N 	0.8143	0.6109	0.3821	-0.265
Mof_H 	H 	0.8009	0.6483	0.2461	0.084
Mof_H 	H 	0.7404	0.5588	0.3532	0.082
Mof_C 	C 	0.6843	0.2098	0.9533	0.032
Mof_H 	H 	0.6029	0.2645	0.9173	-0.008
Mof_H 	H 	0.6741	0.1697	0.8087	-0.029
Mof_N 	N 	0.6857	0.1109	0.1179	-0.296
Mof_H 	H 	0.6991	0.1483	0.2539	0.076
Mof_H 	H 	0.7596	0.0588	0.1468	0.071
Mof_C 	C 	0.1843	0.7098	0.9533	0.036
Mof_H 	H 	0.1029	0.7645	0.9173	-0.02
Mof_H 	H 	0.1741	0.6697	0.8087	-0.03
Mof_N 	N 	0.1857	0.6109	0.1179	-0.298
Mof_H 	H 	0.1991	0.6483	0.2539	0.077
Mof_H 	H 	0.2596	0.5588	0.1468	0.081
Mof_C 	C 	0.6843	0.7902	0.4533	-0.024
Mof_H 	H 	0.6029	0.7355	0.4173	0.006
Mof_H 	H 	0.6741	0.8303	0.3087	0.005
Mof_N 	N 	0.6857	0.8891	0.6179	-0.281
Mof_H 	H 	0.6991	0.8517	0.7539	0.1
Mof_H 	H 	0.7596	0.9412	0.6468	0.116
Mof_C 	C 	0.1843	0.2902	0.4533	-0.02
Mof_H 	H 	0.1029	0.2355	0.4173	-0.022
Mof_H 	H 	0.1741	0.3303	0.3087	-0.021
Mof_N 	N 	0.1857	0.3891	0.6179	-0.288
Mof_H 	H 	0.1991	0.3517	0.7539	0.077
Mof_H 	H 	0.2596	0.4412	0.6468	0.086
Mof_C 	C 	0.3157	0.7902	0.0467	-0.119
Mof_H 	H 	0.3971	0.7355	0.0827	0.031
Mof_H 	H 	0.3259	0.8303	0.1913	0.027
Mof_N 	N 	0.3143	0.8891	0.8821	-0.247
Mof_H 	H 	0.3009	0.8517	0.7461	0.084
Mof_H 	H 	0.2404	0.9412	0.8532	0.097
Mof_C 	C 	0.8157	0.2902	0.0467	-0.122
Mof_H 	H 	0.8971	0.2355	0.0827	0.042
Mof_H 	H 	0.8259	0.3303	0.1913	0.028
Mof_N 	N 	0.8143	0.3891	0.8821	-0.246
Mof_H 	H 	0.8009	0.3517	0.7461	0.082
Mof_H 	H 	0.7404	0.4412	0.8532	0.087
Mof_Ag	Ag	0.5	0	0.5	0.307
Mof_Ag	Ag	1.61635e-33	0.5	0.5	0.309
Mof_Ag	Ag	0.5	0	-0	0.26
Mof_Ag	Ag	-0	0.5	-0	0.263
_end
