data_functionalizedCrystal
_audit_creation_method	'EQeq! by Chris Wilmer'
_symmetry_space_group_name_H-M	'P1'
_symmetry_Int_Tables_number	1
_symmetry_cell_setting	triclinic
loop_
_symmetry_equiv_pos_as_xyz
  x,y,z
_cell_length_a	7.017
_cell_length_b	26.637
_cell_length_c	18.062
_cell_angle_alpha	90
_cell_angle_beta	98.27
_cell_angle_gamma	90
loop_
_atom_site_label
_atom_site_type_symbol
_atom_site_fract_x
_atom_site_fract_y
_atom_site_fract_z
_atom_site_charge
Mof_Sm	Sm	0.68337	0.42946	0.93295	2.061
Mof_O 	O 	0.0589	0.0049	0.9207	-0.612
Mof_Sm	Sm	0.76281	0.06791	0.04918	2.204
Mof_O 	O 	0.5702	0.0377	0.9447	-0.588
Mof_O 	O 	0.4366	0.9758	0.8717	-0.561
Mof_O 	O 	0.6907	0.0515	0.5597	-0.564
Mof_O 	O 	0.584	0.9796	0.6027	-0.571
Mof_O 	O 	0.9546	0.0812	0.9486	-0.532
Mof_O 	O 	0.15	0.9631	0.6691	-0.497
Mof_O 	O 	0.1847	0.0193	0.5819	-0.436
Mof_O 	O 	0.4374	0.1155	0.0451	-0.406
Mof_O 	O 	0.7028	0.1571	0.0145	-0.455
Mof_O 	O 	0.668	0.3411	0.9741	-0.473
Mof_O 	O 	0.3906	0.381	0.9589	-0.437
Mof_N 	N 	0.589	0.2904	0.7695	-0.166
Mof_N 	N 	0.021	0.2952	0.6915	-0.165
Mof_C 	C 	0.096	0.2777	0.7574	0.102
Mof_H 	H 	0.1338	0.3008	0.7952	-0.017
Mof_C 	C 	0.123	0.227	0.7745	-0.167
Mof_H 	H 	0.1821	0.2174	0.8218	0.095
Mof_C 	C 	0.0611	0.1904	0.7204	0.112
Mof_C 	C 	0.986	0.2091	0.6491	-0.156
Mof_H 	H 	0.951	0.187	0.6096	0.084
Mof_C 	C 	0.965	0.2613	0.6377	0.078
Mof_H 	H 	0.9086	0.2728	0.5909	0.004
Mof_C 	C 	0.074	0.1358	0.7382	-0.075
Mof_C 	C 	0.047	0.1198	0.8103	0.057
Mof_H 	H 	0.025	0.1433	0.8462	0.019
Mof_C 	C 	0.0533	0.069	0.8276	-0.184
Mof_C 	C 	0.0816	0.033	0.7736	0.102
Mof_H 	H 	0.083	0.999	0.7854	-0.028
Mof_C 	C 	0.1083	0.049	0.7007	-0.13
Mof_C 	C 	0.1021	0.0998	0.6836	0.038
Mof_H 	H 	0.1166	0.1102	0.6356	0.017
Mof_C 	C 	0.1465	0.0083	0.6473	0.332
Mof_C 	C 	0.0211	0.05	0.9052	0.505
Mof_C 	C 	0.652	0.2605	0.8289	0.093
Mof_H 	H 	0.6997	0.2757	0.874	-0.008
Mof_C 	C 	0.647	0.2084	0.8257	-0.18
Mof_H 	H 	0.6869	0.1897	0.8687	0.101
Mof_C 	C 	0.5844	0.1843	0.7586	0.134
Mof_C 	C 	0.523	0.2153	0.6971	-0.176
Mof_H 	H 	0.4797	0.201	0.6509	0.098
Mof_C 	C 	0.527	0.2673	0.7044	0.099
Mof_H 	H 	0.4853	0.2868	0.6625	-0.007
Mof_C 	C 	0.5828	0.1285	0.7532	-0.116
Mof_C 	C 	0.5566	0.1003	0.8156	0.102
Mof_H 	H 	0.5426	0.1166	0.8601	-0.008
Mof_C 	C 	0.5508	0.0474	0.8128	-0.23
Mof_C 	C 	0.5718	0.0235	0.745	0.16
Mof_H 	H 	0.5633	0.9887	0.7416	-0.048
Mof_C 	C 	0.6052	0.0514	0.6829	-0.227
Mof_C 	C 	0.6068	0.104	0.686	0.097
Mof_H 	H 	0.6237	0.1227	0.6439	0
Mof_C 	C 	0.5197	0.0175	0.8809	0.521
Mof_C 	C 	0.6284	0.0261	0.6101	0.518
Mof_C 	C 	0.523	0.155	0.0195	0.252
Mof_C 	C 	0.4026	0.2017	0.001	-0.078
Mof_C 	C 	0.2008	0.1985	0.9875	0.014
Mof_H 	H 	0.1395	0.1677	0.9906	0.027
Mof_C 	C 	0.0939	0.242	0.9696	-0.098
Mof_H 	H 	0.9603	0.2398	0.9602	0.065
Mof_C 	C 	0.1811	0.2888	0.9652	0.028
Mof_H 	H 	0.1071	0.3174	0.9534	0.004
Mof_C 	C 	0.3833	0.2917	0.9791	-0.101
Mof_C 	C 	0.4874	0.3409	0.9707	0.314
Mof_C 	C 	0.4908	0.2484	0.9952	0.02
Mof_H 	H 	0.6245	0.2504	0.0024	0.04
Mof_Sm	Sm	0.31663	0.92946	0.56705	2.058
Mof_O 	O 	0.9411	0.5049	0.5793	-0.615
Mof_Sm	Sm	0.23719	0.56791	0.45082	2.21
Mof_O 	O 	0.4298	0.5377	0.5553	-0.591
Mof_O 	O 	0.5634	0.4758	0.6283	-0.559
Mof_O 	O 	0.3093	0.5515	0.9403	-0.564
Mof_O 	O 	0.416	0.4796	0.8973	-0.57
Mof_O 	O 	0.0454	0.5812	0.5514	-0.534
Mof_O 	O 	0.85	0.4631	0.8309	-0.495
Mof_O 	O 	0.8153	0.5193	0.9181	-0.435
Mof_O 	O 	0.5626	0.6155	0.4549	-0.405
Mof_O 	O 	0.2972	0.6571	0.4855	-0.454
Mof_O 	O 	0.332	0.8411	0.5259	-0.473
Mof_O 	O 	0.6094	0.881	0.5411	-0.436
Mof_N 	N 	0.411	0.7904	0.7305	-0.166
Mof_N 	N 	0.979	0.7952	0.8085	-0.164
Mof_C 	C 	0.904	0.7777	0.7426	0.102
Mof_H 	H 	0.8662	0.8008	0.7048	-0.016
Mof_C 	C 	0.877	0.727	0.7255	-0.167
Mof_H 	H 	0.8179	0.7174	0.6782	0.095
Mof_C 	C 	0.9389	0.6904	0.7796	0.112
Mof_C 	C 	0.014	0.7091	0.8509	-0.156
Mof_H 	H 	0.049	0.687	0.8904	0.084
Mof_C 	C 	0.035	0.7613	0.8623	0.077
Mof_H 	H 	0.0914	0.7728	0.9091	0.004
Mof_C 	C 	0.926	0.6358	0.7618	-0.074
Mof_C 	C 	0.953	0.6198	0.6897	0.056
Mof_H 	H 	0.975	0.6433	0.6538	0.019
Mof_C 	C 	0.9467	0.569	0.6724	-0.182
Mof_C 	C 	0.9184	0.533	0.7264	0.097
Mof_H 	H 	0.917	0.499	0.7146	-0.024
Mof_C 	C 	0.8917	0.549	0.7993	-0.127
Mof_C 	C 	0.8979	0.5998	0.8164	0.037
Mof_H 	H 	0.8834	0.6102	0.8644	0.018
Mof_C 	C 	0.8535	0.5083	0.8527	0.329
Mof_C 	C 	0.9789	0.55	0.5948	0.505
Mof_C 	C 	0.348	0.7605	0.6711	0.093
Mof_H 	H 	0.3003	0.7757	0.626	-0.008
Mof_C 	C 	0.353	0.7084	0.6743	-0.18
Mof_H 	H 	0.3131	0.6897	0.6313	0.1
Mof_C 	C 	0.4156	0.6843	0.7414	0.134
Mof_C 	C 	0.477	0.7153	0.8029	-0.176
Mof_H 	H 	0.5203	0.701	0.8491	0.098
Mof_C 	C 	0.473	0.7673	0.7956	0.099
Mof_H 	H 	0.5147	0.7868	0.8375	-0.007
Mof_C 	C 	0.4172	0.6285	0.7468	-0.116
Mof_C 	C 	0.4434	0.6003	0.6844	0.102
Mof_H 	H 	0.4574	0.6166	0.6399	-0.008
Mof_C 	C 	0.4492	0.5474	0.6872	-0.228
Mof_C 	C 	0.4282	0.5235	0.755	0.157
Mof_H 	H 	0.4367	0.4887	0.7584	-0.046
Mof_C 	C 	0.3948	0.5514	0.8171	-0.226
Mof_C 	C 	0.3932	0.604	0.814	0.096
Mof_H 	H 	0.3763	0.6227	0.8561	0.001
Mof_C 	C 	0.4803	0.5175	0.6191	0.519
Mof_C 	C 	0.3716	0.5261	0.8899	0.518
Mof_C 	C 	0.477	0.655	0.4805	0.25
Mof_C 	C 	0.5974	0.7017	0.499	-0.071
Mof_C 	C 	0.7992	0.6985	0.5125	0.006
Mof_H 	H 	0.8605	0.6677	0.5094	0.029
Mof_C 	C 	0.9061	0.742	0.5304	-0.09
Mof_H 	H 	0.0397	0.7398	0.5398	0.061
Mof_C 	C 	0.8189	0.7888	0.5348	0.021
Mof_H 	H 	0.8929	0.8174	0.5466	0.007
Mof_C 	C 	0.6167	0.7917	0.5209	-0.096
Mof_C 	C 	0.5126	0.8409	0.5293	0.312
Mof_C 	C 	0.5092	0.7484	0.5048	0.011
Mof_H 	H 	0.3755	0.7504	0.4976	0.044
Mof_Sm	Sm	0.31663	0.57054	0.06705	2.06
Mof_O 	O 	0.9411	0.9951	0.0793	-0.613
Mof_Sm	Sm	0.23719	0.93209	0.95082	2.203
Mof_O 	O 	0.4298	0.9623	0.0553	-0.589
Mof_O 	O 	0.5634	0.0242	0.1283	-0.561
Mof_O 	O 	0.3093	0.9485	0.4403	-0.564
Mof_O 	O 	0.416	0.0204	0.3973	-0.571
Mof_O 	O 	0.0454	0.9188	0.0514	-0.532
Mof_O 	O 	0.85	0.0369	0.3309	-0.497
Mof_O 	O 	0.8153	0.9807	0.4181	-0.436
Mof_O 	O 	0.5626	0.8845	0.9549	-0.406
Mof_O 	O 	0.2972	0.8429	0.9855	-0.455
Mof_O 	O 	0.332	0.6589	0.0259	-0.473
Mof_O 	O 	0.6094	0.619	0.0411	-0.437
Mof_N 	N 	0.411	0.7096	0.2305	-0.166
Mof_N 	N 	0.979	0.7048	0.3085	-0.165
Mof_C 	C 	0.904	0.7223	0.2426	0.102
Mof_H 	H 	0.8662	0.6992	0.2048	-0.017
Mof_C 	C 	0.877	0.773	0.2255	-0.167
Mof_H 	H 	0.8179	0.7826	0.1782	0.095
Mof_C 	C 	0.9389	0.8096	0.2796	0.112
Mof_C 	C 	0.014	0.7909	0.3509	-0.156
Mof_H 	H 	0.049	0.813	0.3904	0.084
Mof_C 	C 	0.035	0.7387	0.3623	0.078
Mof_H 	H 	0.0914	0.7272	0.4091	0.004
Mof_C 	C 	0.926	0.8642	0.2618	-0.075
Mof_C 	C 	0.953	0.8802	0.1897	0.057
Mof_H 	H 	0.975	0.8567	0.1538	0.019
Mof_C 	C 	0.9467	0.931	0.1724	-0.184
Mof_C 	C 	0.9184	0.967	0.2264	0.102
Mof_H 	H 	0.917	0.001	0.2146	-0.028
Mof_C 	C 	0.8917	0.951	0.2993	-0.13
Mof_C 	C 	0.8979	0.9002	0.3164	0.038
Mof_H 	H 	0.8834	0.8898	0.3644	0.017
Mof_C 	C 	0.8535	0.9917	0.3527	0.332
Mof_C 	C 	0.9789	0.95	0.0948	0.505
Mof_C 	C 	0.348	0.7395	0.1711	0.093
Mof_H 	H 	0.3003	0.7243	0.126	-0.008
Mof_C 	C 	0.353	0.7916	0.1743	-0.18
Mof_H 	H 	0.3131	0.8103	0.1313	0.101
Mof_C 	C 	0.4156	0.8157	0.2414	0.134
Mof_C 	C 	0.477	0.7847	0.3029	-0.176
Mof_H 	H 	0.5203	0.799	0.3491	0.098
Mof_C 	C 	0.473	0.7327	0.2956	0.099
Mof_H 	H 	0.5147	0.7132	0.3375	-0.007
Mof_C 	C 	0.4172	0.8715	0.2468	-0.116
Mof_C 	C 	0.4434	0.8997	0.1844	0.102
Mof_H 	H 	0.4574	0.8834	0.1399	-0.008
Mof_C 	C 	0.4492	0.9526	0.1872	-0.23
Mof_C 	C 	0.4282	0.9765	0.255	0.16
Mof_H 	H 	0.4367	0.0113	0.2584	-0.048
Mof_C 	C 	0.3948	0.9486	0.3171	-0.227
Mof_C 	C 	0.3932	0.896	0.314	0.097
Mof_H 	H 	0.3763	0.8773	0.3561	0
Mof_C 	C 	0.4803	0.9825	0.1191	0.521
Mof_C 	C 	0.3716	0.9739	0.3899	0.518
Mof_C 	C 	0.477	0.845	0.9805	0.252
Mof_C 	C 	0.5974	0.7983	0.999	-0.078
Mof_C 	C 	0.7992	0.8015	0.0125	0.014
Mof_H 	H 	0.8605	0.8323	0.0094	0.027
Mof_C 	C 	0.9061	0.758	0.0304	-0.098
Mof_H 	H 	0.0397	0.7602	0.0398	0.065
Mof_C 	C 	0.8189	0.7112	0.0348	0.028
Mof_H 	H 	0.8929	0.6826	0.0466	0.004
Mof_C 	C 	0.6167	0.7083	0.0209	-0.101
Mof_C 	C 	0.5126	0.6591	0.0293	0.314
Mof_C 	C 	0.5092	0.7516	0.0048	0.02
Mof_H 	H 	0.3755	0.7496	0.9976	0.04
Mof_Sm	Sm	0.68337	0.07054	0.43295	2.058
Mof_O 	O 	0.0589	0.4951	0.4207	-0.615
Mof_Sm	Sm	0.76281	0.43209	0.54918	2.21
Mof_O 	O 	0.5702	0.4623	0.4447	-0.591
Mof_O 	O 	0.4366	0.5242	0.3717	-0.559
Mof_O 	O 	0.6907	0.4485	0.0597	-0.564
Mof_O 	O 	0.584	0.5204	0.1027	-0.57
Mof_O 	O 	0.9546	0.4188	0.4486	-0.534
Mof_O 	O 	0.15	0.5369	0.1691	-0.495
Mof_O 	O 	0.1847	0.4807	0.0819	-0.435
Mof_O 	O 	0.4374	0.3845	0.5451	-0.405
Mof_O 	O 	0.7028	0.3429	0.5145	-0.454
Mof_O 	O 	0.668	0.1589	0.4741	-0.473
Mof_O 	O 	0.3906	0.119	0.4589	-0.436
Mof_N 	N 	0.589	0.2096	0.2695	-0.166
Mof_N 	N 	0.021	0.2048	0.1915	-0.164
Mof_C 	C 	0.096	0.2223	0.2574	0.102
Mof_H 	H 	0.1338	0.1992	0.2952	-0.016
Mof_C 	C 	0.123	0.273	0.2745	-0.167
Mof_H 	H 	0.1821	0.2826	0.3218	0.095
Mof_C 	C 	0.0611	0.3096	0.2204	0.112
Mof_C 	C 	0.986	0.2909	0.1491	-0.156
Mof_H 	H 	0.951	0.313	0.1096	0.084
Mof_C 	C 	0.965	0.2387	0.1377	0.077
Mof_H 	H 	0.9086	0.2272	0.0909	0.004
Mof_C 	C 	0.074	0.3642	0.2382	-0.074
Mof_C 	C 	0.047	0.3802	0.3103	0.056
Mof_H 	H 	0.025	0.3567	0.3462	0.019
Mof_C 	C 	0.0533	0.431	0.3276	-0.182
Mof_C 	C 	0.0816	0.467	0.2736	0.097
Mof_H 	H 	0.083	0.501	0.2854	-0.024
Mof_C 	C 	0.1083	0.451	0.2007	-0.127
Mof_C 	C 	0.1021	0.4002	0.1836	0.037
Mof_H 	H 	0.1166	0.3898	0.1356	0.018
Mof_C 	C 	0.1465	0.4917	0.1473	0.329
Mof_C 	C 	0.0211	0.45	0.4052	0.505
Mof_C 	C 	0.652	0.2395	0.3289	0.093
Mof_H 	H 	0.6997	0.2243	0.374	-0.008
Mof_C 	C 	0.647	0.2916	0.3257	-0.18
Mof_H 	H 	0.6869	0.3103	0.3687	0.1
Mof_C 	C 	0.5844	0.3157	0.2586	0.134
Mof_C 	C 	0.523	0.2847	0.1971	-0.176
Mof_H 	H 	0.4797	0.299	0.1509	0.098
Mof_C 	C 	0.527	0.2327	0.2044	0.099
Mof_H 	H 	0.4853	0.2132	0.1625	-0.007
Mof_C 	C 	0.5828	0.3715	0.2532	-0.116
Mof_C 	C 	0.5566	0.3997	0.3156	0.102
Mof_H 	H 	0.5426	0.3834	0.3601	-0.008
Mof_C 	C 	0.5508	0.4526	0.3128	-0.228
Mof_C 	C 	0.5718	0.4765	0.245	0.157
Mof_H 	H 	0.5633	0.5113	0.2416	-0.046
Mof_C 	C 	0.6052	0.4486	0.1829	-0.226
Mof_C 	C 	0.6068	0.396	0.186	0.096
Mof_H 	H 	0.6237	0.3773	0.1439	0.001
Mof_C 	C 	0.5197	0.4825	0.3809	0.519
Mof_C 	C 	0.6284	0.4739	0.1101	0.518
Mof_C 	C 	0.523	0.345	0.5195	0.25
Mof_C 	C 	0.4026	0.2983	0.501	-0.071
Mof_C 	C 	0.2008	0.3015	0.4875	0.006
Mof_H 	H 	0.1395	0.3323	0.4906	0.029
Mof_C 	C 	0.0939	0.258	0.4696	-0.09
Mof_H 	H 	0.9603	0.2602	0.4602	0.061
Mof_C 	C 	0.1811	0.2112	0.4652	0.021
Mof_H 	H 	0.1071	0.1826	0.4534	0.007
Mof_C 	C 	0.3833	0.2083	0.4791	-0.096
Mof_C 	C 	0.4874	0.1591	0.4707	0.312
Mof_C 	C 	0.4908	0.2516	0.4952	0.011
Mof_H 	H 	0.6245	0.2496	0.5024	0.044
_end
