data_functionalizedCrystal
_audit_creation_method	'EQeq! by Chris Wilmer'
_symmetry_space_group_name_H-M	'P1'
_symmetry_Int_Tables_number	1
_symmetry_cell_setting	triclinic
loop_
_symmetry_equiv_pos_as_xyz
  x,y,z
_cell_length_a	6.8306
_cell_length_b	7.6427
_cell_length_c	10.5844
_cell_angle_alpha	111.164
_cell_angle_beta	102.975
_cell_angle_gamma	90
loop_
_atom_site_label
_atom_site_type_symbol
_atom_site_fract_x
_atom_site_fract_y
_atom_site_fract_z
_atom_site_charge
Mof_Fe	Fe	-0	0	-0	0.771
Mof_Fe	Fe	0.5	0	-0	0.806
Mof_H 	H 	0.195	0.8971	0.3348	0.159
Mof_H 	H 	0.6605	0.0497	0.43	0.133
Mof_H 	H 	0.305	0.5623	0.6652	0.078
Mof_H 	H 	0.8395	0.6197	0.57	0.077
Mof_H 	H 	0.805	0.1029	0.6652	-0.03
Mof_H 	H 	0.3395	0.9503	0.57	-0.026
Mof_H 	H 	0.695	0.4377	0.3348	0.05
Mof_H 	H 	0.1605	0.3803	0.43	0.03
Mof_C 	C 	0.9158	0.969	0.363	0.263
Mof_C 	C 	0.1135	0.9401	0.4038	-0.306
Mof_C 	C 	0.8023	0.0289	0.4592	-0.373
Mof_C 	C 	0.8255	0.9359	0.2162	0.251
Mof_C 	C 	0.5842	0.606	0.637	-0.036
Mof_C 	C 	0.3865	0.5363	0.5962	-0.039
Mof_C 	C 	0.6977	0.5697	0.5408	-0.033
Mof_C 	C 	0.6745	0.7197	0.7838	0.338
Mof_C 	C 	0.0842	0.031	0.637	-0.409
Mof_C 	C 	0.8865	0.0599	0.5962	0.285
Mof_C 	C 	0.1977	0.9711	0.5408	0.354
Mof_C 	C 	0.1745	0.0641	0.7838	0.447
Mof_C 	C 	0.4158	0.394	0.363	-0.113
Mof_C 	C 	0.6135	0.4637	0.4038	0.016
Mof_C 	C 	0.3023	0.4303	0.4592	0.015
Mof_C 	C 	0.3255	0.2803	0.2162	0.362
Mof_O 	O 	0.9324	0.8848	0.1274	-0.273
Mof_O 	O 	0.6405	0.9582	0.1778	-0.256
Mof_O 	O 	0.5676	0.7574	0.8726	-0.236
Mof_O 	O 	0.8595	0.7804	0.8222	-0.227
Mof_O 	O 	0.0676	0.1152	0.8726	-0.307
Mof_O 	O 	0.3595	0.0418	0.8222	-0.331
Mof_O 	O 	0.4324	0.2426	0.1274	-0.368
Mof_O 	O 	0.1405	0.2196	0.1778	-0.365
Mof_O 	O 	0.25	0.8865	-0	-0.32
Mof_O 	O 	0.75	0.1135	-0	-0.387
_end
