data_functionalizedCrystal
_audit_creation_method	'EQeq! by Chris Wilmer'
_symmetry_space_group_name_H-M	'P1'
_symmetry_Int_Tables_number	1
_symmetry_cell_setting	triclinic
loop_
_symmetry_equiv_pos_as_xyz
  x,y,z
_cell_length_a	10.872
_cell_length_b	16.737
_cell_length_c	17.38
_cell_angle_alpha	114.48
_cell_angle_beta	92.95
_cell_angle_gamma	99.63
loop_
_atom_site_label
_atom_site_type_symbol
_atom_site_fract_x
_atom_site_fract_y
_atom_site_fract_z
_atom_site_charge
Mof_O 	O 	0.8188	0.9913	0.0515	-0.516
Mof_O 	O 	0.4635	0.2382	0.0383	-0.775
Mof_O 	O 	0.3043	0.1773	0.088	-0.512
Mof_C 	C 	0.4148	0.1874	0.0708	0.423
Mof_C 	C 	0.4928	0.1321	0.0895	-0.02
Mof_O 	O 	0.9288	0.9269	0.888	-0.567
Mof_La	La	0.0826	0.14079	0.01261	2.333
Mof_La	La	0.37069	0.34364	0.99611	2.009
Mof_La	La	0.4386	0.86483	0.40578	1.863
Mof_C 	C 	0.2616	0.9736	0.644	-0.007
Mof_O 	O 	0.9926	0.2527	0.9681	-0.693
Mof_O 	O 	0.6118	0.1365	0.0663	-0.558
Mof_O 	O 	0.841	0.3592	0.947	-0.551
Mof_O 	O 	0.8523	0.1226	0.0403	-0.749
Mof_O 	O 	0.226	0.1657	0.9127	-0.58
Mof_O 	O 	0.6	0.3724	0.9703	-0.779
Mof_O 	O 	0.1537	0.3276	0.9318	-0.528
Mof_O 	O 	0.935	0.052	0.8726	-0.513
Mof_O 	O 	0.7591	0.9645	0.7326	-0.198
Mof_O 	O 	0.3752	0.2118	0.8511	-0.527
Mof_O 	O 	0.2199	0.328	0.0936	-0.586
Mof_O 	O 	0.3824	0.002	0.5454	-0.552
Mof_O 	O 	0.2961	0.4808	0.237	-0.206
Mof_O 	O 	0.6251	0.4949	0.9462	-0.578
Mof_O 	O 	0.0786	0.2738	0.1558	-0.535
Mof_C 	C 	0.1941	0.4201	0.2336	-0.049
Mof_C 	C 	0.662	0.4291	0.9506	0.43
Mof_O 	O 	0.3083	0.0589	0.704	-0.221
Mof_C 	C 	0.2492	0.0671	0.7743	-0.03
Mof_C 	C 	0.7878	0.0614	0.055	0.419
Mof_C 	C 	0.9607	0.3649	0.9248	-0.021
Mof_C 	C 	0.6617	0.0735	0.0804	0.003
Mof_C 	C 	0.0413	0.3101	0.9438	0.41
Mof_O 	O 	0.6258	0.0221	0.6396	-0.505
Mof_O 	O 	0.2741	0.8652	0.5087	-0.432
Mof_C 	C 	0.1632	0.335	0.156	0.393
Mof_C 	C 	0.7904	0.4194	0.9282	-0.024
Mof_O 	O 	0.5546	0.8802	0.5396	-0.479
Mof_C 	C 	0.1694	0.9894	0.7587	-0.033
Mof_H 	H 	0.1195	0.9778	0.7963	0.029
Mof_C 	C 	0.286	0.153	0.8502	0.401
Mof_O 	O 	0.3936	0.707	0.3829	-0.486
Mof_C 	C 	0.9819	0.4256	0.8926	-0.013
Mof_H 	H 	0.0552	0.4415	0.8724	-0.04
Mof_C 	C 	0.8979	0.9693	0.848	0.428
Mof_C 	C 	0.8724	0.4606	0.895	-0.06
Mof_H 	H 	0.8597	0.504	0.8769	0.011
Mof_C 	C 	0.6177	0.9379	0.6081	0.407
Mof_C 	C 	0.4673	0.0695	0.119	-0.025
Mof_H 	H 	0.3938	0.0543	0.1394	-0.003
Mof_C 	C 	0.6891	0.9036	0.6581	-0.017
Mof_C 	C 	0.8153	0.918	0.7675	-0.041
Mof_C 	C 	0.177	0.9295	0.6744	-0.054
Mof_H 	H 	0.132	0.8707	0.6451	0.041
Mof_C 	C 	0.3089	0.946	0.5611	0.356
Mof_C 	C 	0.7826	0.8296	0.7183	-0.023
Mof_H 	H 	0.8073	0.7841	0.7288	0.032
Mof_C 	C 	0.5775	0.0304	0.1128	-0.068
Mof_H 	H 	0.5886	0.9847	0.1281	0.016
Mof_C 	C 	0.2056	0.5451	0.3489	-0.08
Mof_H 	H 	0.1876	0.5873	0.3998	0.044
Mof_O 	O 	0.4959	0.6183	0.2846	-0.344
Mof_C 	C 	0.2994	0.5566	0.3081	0.017
Mof_C 	C 	0.7006	0.8198	0.6451	-0.047
Mof_H 	H 	0.6632	0.7664	0.5984	0.038
Mof_C 	C 	0.1363	0.4562	0.3013	-0.023
Mof_H 	H 	0.0646	0.4286	0.3148	-0.003
Mof_C 	C 	0.4067	0.633	0.3261	0.329
Mof_K 	K 	0.73014	0.25633	0.01824	3.217
Mof_O 	O 	0.1812	0.0087	0.9485	-0.515
Mof_O 	O 	0.5365	0.7618	0.9617	-0.774
Mof_O 	O 	0.6957	0.8227	0.912	-0.511
Mof_C 	C 	0.5852	0.8126	0.9292	0.424
Mof_C 	C 	0.5072	0.8679	0.9105	-0.02
Mof_O 	O 	0.0712	0.0731	0.112	-0.567
Mof_La	La	0.9174	0.85921	0.98739	2.333
Mof_La	La	0.62931	0.65636	0.00389	2.009
Mof_La	La	0.5614	0.13517	0.59422	1.863
Mof_C 	C 	0.7384	0.0264	0.356	-0.007
Mof_O 	O 	0.0074	0.7473	0.0319	-0.693
Mof_O 	O 	0.3882	0.8635	0.9337	-0.558
Mof_O 	O 	0.159	0.6408	0.053	-0.551
Mof_O 	O 	0.1477	0.8774	0.9597	-0.749
Mof_O 	O 	0.774	0.8343	0.0873	-0.58
Mof_O 	O 	0.4	0.6276	0.0297	-0.779
Mof_O 	O 	0.8463	0.6724	0.0682	-0.528
Mof_O 	O 	0.065	0.948	0.1274	-0.513
Mof_O 	O 	0.2409	0.0355	0.2674	-0.198
Mof_O 	O 	0.6248	0.7882	0.1489	-0.527
Mof_O 	O 	0.7801	0.672	0.9064	-0.586
Mof_O 	O 	0.6176	0.998	0.4546	-0.552
Mof_O 	O 	0.7039	0.5192	0.763	-0.206
Mof_O 	O 	0.3749	0.5051	0.0538	-0.578
Mof_O 	O 	0.9214	0.7262	0.8442	-0.535
Mof_C 	C 	0.8059	0.5799	0.7664	-0.049
Mof_C 	C 	0.338	0.5709	0.0494	0.43
Mof_O 	O 	0.6917	0.9411	0.296	-0.221
Mof_C 	C 	0.7508	0.9329	0.2257	-0.03
Mof_C 	C 	0.2122	0.9386	0.945	0.419
Mof_C 	C 	0.0393	0.6351	0.0752	-0.021
Mof_C 	C 	0.3383	0.9265	0.9196	0.003
Mof_C 	C 	0.9587	0.6899	0.0562	0.41
Mof_O 	O 	0.3742	0.9779	0.3604	-0.505
Mof_O 	O 	0.7259	0.1348	0.4913	-0.432
Mof_C 	C 	0.8368	0.665	0.844	0.393
Mof_C 	C 	0.2096	0.5806	0.0718	-0.024
Mof_O 	O 	0.4454	0.1198	0.4604	-0.479
Mof_C 	C 	0.8306	0.0106	0.2413	-0.033
Mof_H 	H 	0.8805	0.0222	0.2037	0.029
Mof_C 	C 	0.714	0.847	0.1498	0.401
Mof_O 	O 	0.6064	0.293	0.6171	-0.486
Mof_C 	C 	0.0181	0.5744	0.1074	-0.013
Mof_H 	H 	0.9448	0.5585	0.1276	-0.04
Mof_C 	C 	0.1021	0.0307	0.152	0.428
Mof_C 	C 	0.1276	0.5394	0.105	-0.06
Mof_H 	H 	0.1403	0.496	0.1231	0.011
Mof_C 	C 	0.3823	0.0621	0.3919	0.407
Mof_C 	C 	0.5327	0.9305	0.881	-0.025
Mof_H 	H 	0.6062	0.9457	0.8606	-0.003
Mof_C 	C 	0.3109	0.0964	0.3419	-0.017
Mof_C 	C 	0.1847	0.082	0.2325	-0.041
Mof_C 	C 	0.823	0.0705	0.3256	-0.054
Mof_H 	H 	0.868	0.1293	0.3549	0.041
Mof_C 	C 	0.6911	0.054	0.4389	0.356
Mof_C 	C 	0.2174	0.1704	0.2817	-0.023
Mof_H 	H 	0.1927	0.2159	0.2712	0.032
Mof_C 	C 	0.4225	0.9696	0.8872	-0.068
Mof_H 	H 	0.4114	0.0153	0.8719	0.016
Mof_C 	C 	0.7944	0.4549	0.6511	-0.08
Mof_H 	H 	0.8124	0.4127	0.6002	0.044
Mof_O 	O 	0.5041	0.3817	0.7154	-0.344
Mof_C 	C 	0.7006	0.4434	0.6919	0.017
Mof_C 	C 	0.2994	0.1802	0.3549	-0.047
Mof_H 	H 	0.3368	0.2336	0.4016	0.038
Mof_C 	C 	0.8637	0.5438	0.6987	-0.023
Mof_H 	H 	0.9354	0.5714	0.6852	-0.003
Mof_C 	C 	0.5933	0.367	0.6739	0.329
Mof_K 	K 	0.26986	0.74367	0.98176	3.217
_end
