# CIF file generated by openbabel 3.1.0, see https://openbabel.org
data_I
_chemical_name_common 'image0'
_cell_length_a 13.8078
_cell_length_b 13.249
_cell_length_c 13.842
_cell_angle_alpha 90
_cell_angle_beta 91.328
_cell_angle_gamma 90
_space_group_name_H-M_alt 'P 1'
_space_group_name_Hall 'P 1'
loop_
    _symmetry_equiv_pos_as_xyz
    x,y,z
loop_
    _atom_site_label
    _atom_site_type_symbol
    _atom_site_fract_x
    _atom_site_fract_y
    _atom_site_fract_z
    _atom_site_occupancy
    Ga1      Ga       0.12330    0.86070    0.22430    1.000
    Co1      Co       0.02640    0.73910    0.62280    1.000
    Co2      Co       0.87670    0.13930    0.77570    1.000
    P1       P        0.96820    0.26090    0.60600    1.000
    P2       P        0.85580    0.62270    0.71590    1.000
    O1       O        0.92570    0.26410    0.50280    1.000
    O2       O        0.00810    0.36590    0.63300    1.000
    O3       O        0.88190    0.51710    0.75100    1.000
    O4       O        0.92100    0.65000    0.63380    1.000
    O5       O        0.90990    0.00130    0.74440    1.000
    O6       O        0.86650    0.69970    0.79700    1.000
    O7       O        0.00300    0.87310    0.84180    1.000
    O8       O        0.88410    0.23600    0.67260    1.000
    O9       O        0.75210    0.62190    0.67660    1.000
    O10      O        0.04770    0.18240    0.61200    1.000
    Ga2      Ga       0.62330    0.36070    0.22430    1.000
    Co3      Co       0.52640    0.23910    0.62280    1.000
    Co4      Co       0.37670    0.63930    0.77570    1.000
    P3       P        0.46820    0.76090    0.60600    1.000
    P4       P        0.35580    0.12270    0.71590    1.000
    O11      O        0.42570    0.76410    0.50280    1.000
    O12      O        0.50810    0.86590    0.63300    1.000
    O13      O        0.38190    0.01710    0.75100    1.000
    O14      O        0.42100    0.15000    0.63380    1.000
    O15      O        0.40990    0.50130    0.74440    1.000
    O16      O        0.36650    0.19970    0.79700    1.000
    O17      O        0.50300    0.37310    0.84180    1.000
    O18      O        0.38410    0.73600    0.67260    1.000
    O19      O        0.25210    0.12190    0.67660    1.000
    O20      O        0.54770    0.68240    0.61200    1.000
    Ga3      Ga       0.87670    0.86070    0.27570    1.000
    Co5      Co       0.97360    0.73910    0.87720    1.000
    Co6      Co       0.12330    0.13930    0.72430    1.000
    P5       P        0.03180    0.26090    0.89400    1.000
    P6       P        0.14420    0.62270    0.78410    1.000
    O21      O        0.07430    0.26410    0.99720    1.000
    O22      O        0.99190    0.36590    0.86700    1.000
    O23      O        0.11810    0.51710    0.74900    1.000
    O24      O        0.07900    0.65000    0.86620    1.000
    O25      O        0.09010    0.00130    0.75560    1.000
    O26      O        0.13350    0.69970    0.70300    1.000
    O27      O        0.99700    0.87310    0.65820    1.000
    O28      O        0.11590    0.23600    0.82740    1.000
    O29      O        0.24790    0.62190    0.82340    1.000
    O30      O        0.95230    0.18240    0.88800    1.000
    Ga4      Ga       0.37670    0.36070    0.27570    1.000
    Co7      Co       0.47360    0.23910    0.87720    1.000
    Co8      Co       0.62330    0.63930    0.72430    1.000
    P7       P        0.53180    0.76090    0.89400    1.000
    P8       P        0.64420    0.12270    0.78410    1.000
    O31      O        0.57430    0.76410    0.99720    1.000
    O32      O        0.49190    0.86590    0.86700    1.000
    O33      O        0.61810    0.01710    0.74900    1.000
    O34      O        0.57900    0.15000    0.86620    1.000
    O35      O        0.59010    0.50130    0.75560    1.000
    O36      O        0.63350    0.19970    0.70300    1.000
    O37      O        0.49700    0.37310    0.65820    1.000
    O38      O        0.61590    0.73600    0.82740    1.000
    O39      O        0.74790    0.12190    0.82340    1.000
    O40      O        0.45230    0.68240    0.88800    1.000
    Co9      Co       0.97360    0.26090    0.37720    1.000
    P9       P        0.03180    0.73910    0.39400    1.000
    P10      P        0.14420    0.37730    0.28410    1.000
    O41      O        0.07430    0.73590    0.49720    1.000
    O42      O        0.99190    0.63410    0.36700    1.000
    O43      O        0.11810    0.48290    0.24900    1.000
    O44      O        0.07900    0.35000    0.36620    1.000
    O45      O        0.09010    0.99870    0.25560    1.000
    O46      O        0.13350    0.30030    0.20300    1.000
    O47      O        0.99700    0.12690    0.15820    1.000
    O48      O        0.11590    0.76400    0.32740    1.000
    O49      O        0.24790    0.37810    0.32340    1.000
    O50      O        0.95230    0.81760    0.38800    1.000
    Co10     Co       0.47360    0.76090    0.37720    1.000
    P11      P        0.53180    0.23910    0.39400    1.000
    P12      P        0.64420    0.87730    0.28410    1.000
    O51      O        0.57430    0.23590    0.49720    1.000
    O52      O        0.49190    0.13410    0.36700    1.000
    O53      O        0.61810    0.98290    0.24900    1.000
    O54      O        0.57900    0.85000    0.36620    1.000
    O55      O        0.59010    0.49870    0.25560    1.000
    O56      O        0.63350    0.80030    0.20300    1.000
    O57      O        0.49700    0.62690    0.15820    1.000
    O58      O        0.61590    0.26400    0.32740    1.000
    O59      O        0.74790    0.87810    0.32340    1.000
    O60      O        0.45230    0.31760    0.38800    1.000
    Co11     Co       0.02640    0.26090    0.12280    1.000
    P13      P        0.96820    0.73910    0.10600    1.000
    P14      P        0.85580    0.37730    0.21590    1.000
    O61      O        0.92570    0.73590    0.00280    1.000
    O62      O        0.00810    0.63410    0.13300    1.000
    O63      O        0.88190    0.48290    0.25100    1.000
    O64      O        0.92100    0.35000    0.13380    1.000
    O65      O        0.90990    0.99870    0.24440    1.000
    O66      O        0.86650    0.30030    0.29700    1.000
    O67      O        0.00300    0.12690    0.34180    1.000
    O68      O        0.88410    0.76400    0.17260    1.000
    O69      O        0.75210    0.37810    0.17660    1.000
    O70      O        0.04770    0.81760    0.11200    1.000
    Co12     Co       0.52640    0.76090    0.12280    1.000
    P15      P        0.46820    0.23910    0.10600    1.000
    P16      P        0.35580    0.87730    0.21590    1.000
    O71      O        0.42570    0.23590    0.00280    1.000
    O72      O        0.50810    0.13410    0.13300    1.000
    O73      O        0.38190    0.98290    0.25100    1.000
    O74      O        0.42100    0.85000    0.13380    1.000
    O75      O        0.40990    0.49870    0.24440    1.000
    O76      O        0.36650    0.80030    0.29700    1.000
    O77      O        0.50300    0.62690    0.34180    1.000
    O78      O        0.38410    0.26400    0.17260    1.000
    O79      O        0.25210    0.87810    0.17660    1.000
    O80      O        0.54770    0.31760    0.11200    1.000
    Co13     Co       0.00000    0.44120    0.75000    1.000
    P17      P        0.00000    0.93790    0.75000    1.000
    Co14     Co       0.50000    0.94120    0.75000    1.000
    P18      P        0.50000    0.43790    0.75000    1.000
    Co15     Co       0.00000    0.55880    0.25000    1.000
    P19      P        0.00000    0.06210    0.25000    1.000
    Co16     Co       0.50000    0.05880    0.25000    1.000
    P20      P        0.50000    0.56210    0.25000    1.000
