# CIF file generated by openbabel 3.1.0, see https://openbabel.org
data_I
_chemical_name_common 'image0'
_cell_length_a 15.119
_cell_length_b 6.6612
_cell_length_c 14.342
_cell_angle_alpha 90
_cell_angle_beta 90
_cell_angle_gamma 90
_space_group_name_H-M_alt 'P 1'
_space_group_name_Hall 'P 1'
loop_
    _symmetry_equiv_pos_as_xyz
    x,y,z
loop_
    _atom_site_label
    _atom_site_type_symbol
    _atom_site_fract_x
    _atom_site_fract_y
    _atom_site_fract_z
    _atom_site_occupancy
    O1       O        0.35070    0.41630    0.13500    1.000
    O2       O        0.29450    0.41420    0.74210    1.000
    O3       O        0.14930    0.58370    0.63500    1.000
    O4       O        0.20550    0.58580    0.24210    1.000
    O5       O        0.64930    0.91630    0.86500    1.000
    O6       O        0.70550    0.91420    0.25790    1.000
    O7       O        0.85070    0.08370    0.36500    1.000
    O8       O        0.79450    0.08580    0.75790    1.000
    O9       O        0.64930    0.58370    0.86500    1.000
    O10      O        0.70550    0.58580    0.25790    1.000
    O11      O        0.85070    0.41630    0.36500    1.000
    O12      O        0.79450    0.41420    0.75790    1.000
    O13      O        0.35070    0.08370    0.13500    1.000
    O14      O        0.29450    0.08580    0.74210    1.000
    O15      O        0.14930    0.91630    0.63500    1.000
    O16      O        0.20550    0.91420    0.24210    1.000
    C1       C        0.57530    0.25000    0.06680    1.000
    C2       C        0.50480    0.25000    0.99220    1.000
    C3       C        0.41320    0.25000    0.00590    1.000
    C4       C        0.36940    0.25000    0.10270    1.000
    C5       C        0.32320    0.25000    0.77170    1.000
    C6       C        0.39020    0.25000    0.84740    1.000
    C7       C        0.48210    0.25000    0.83200    1.000
    C8       C        0.52900    0.25000    0.73850    1.000
    N1       N        0.53750    0.25000    0.90630    1.000
    N2       N        0.35750    0.25000    0.93370    1.000
    O17      O        0.65440    0.25000    0.03770    1.000
    O18      O        0.55170    0.25000    0.14860    1.000
    O19      O        0.48090    0.25000    0.66830    1.000
    O20      O        0.61220    0.25000    0.74230    1.000
    Tb1      Tb       0.70091    0.25000    0.87957    1.000
    K1       K        0.27110    0.25000    0.30910    1.000
    C9       C        0.92470    0.75000    0.56680    1.000
    C10      C        0.99520    0.75000    0.49220    1.000
    C11      C        0.08680    0.75000    0.50590    1.000
    C12      C        0.13060    0.75000    0.60270    1.000
    C13      C        0.17680    0.75000    0.27170    1.000
    C14      C        0.10980    0.75000    0.34740    1.000
    C15      C        0.01790    0.75000    0.33200    1.000
    C16      C        0.97100    0.75000    0.23850    1.000
    N3       N        0.96250    0.75000    0.40630    1.000
    N4       N        0.14250    0.75000    0.43370    1.000
    O21      O        0.84560    0.75000    0.53770    1.000
    O22      O        0.94830    0.75000    0.64860    1.000
    O23      O        0.01910    0.75000    0.16830    1.000
    O24      O        0.88780    0.75000    0.24230    1.000
    Tb2      Tb       0.79909    0.75000    0.37957    1.000
    K2       K        0.22890    0.75000    0.80910    1.000
    C17      C        0.42470    0.75000    0.93320    1.000
    C18      C        0.49520    0.75000    0.00780    1.000
    C19      C        0.58680    0.75000    0.99410    1.000
    C20      C        0.63060    0.75000    0.89730    1.000
    C21      C        0.67680    0.75000    0.22830    1.000
    C22      C        0.60980    0.75000    0.15260    1.000
    C23      C        0.51790    0.75000    0.16800    1.000
    C24      C        0.47100    0.75000    0.26150    1.000
    N5       N        0.46250    0.75000    0.09370    1.000
    N6       N        0.64250    0.75000    0.06630    1.000
    O25      O        0.34560    0.75000    0.96230    1.000
    O26      O        0.44830    0.75000    0.85140    1.000
    O27      O        0.51910    0.75000    0.33170    1.000
    O28      O        0.38780    0.75000    0.25770    1.000
    Tb3      Tb       0.29909    0.75000    0.12043    1.000
    K3       K        0.72890    0.75000    0.69090    1.000
    C25      C        0.07530    0.25000    0.43320    1.000
    C26      C        0.00480    0.25000    0.50780    1.000
    C27      C        0.91320    0.25000    0.49410    1.000
    C28      C        0.86940    0.25000    0.39730    1.000
    C29      C        0.82320    0.25000    0.72830    1.000
    C30      C        0.89020    0.25000    0.65260    1.000
    C31      C        0.98210    0.25000    0.66800    1.000
    C32      C        0.02900    0.25000    0.76150    1.000
    N7       N        0.03750    0.25000    0.59370    1.000
    N8       N        0.85750    0.25000    0.56630    1.000
    O29      O        0.15440    0.25000    0.46230    1.000
    O30      O        0.05170    0.25000    0.35140    1.000
    O31      O        0.98090    0.25000    0.83170    1.000
    O32      O        0.11220    0.25000    0.75770    1.000
    Tb4      Tb       0.20091    0.25000    0.62043    1.000
    K4       K        0.77110    0.25000    0.19090    1.000
