data_functionalizedCrystal
_audit_creation_method	'EQeq! by Chris Wilmer'
_symmetry_space_group_name_H-M	'P1'
_symmetry_Int_Tables_number	1
_symmetry_cell_setting	triclinic
loop_
_symmetry_equiv_pos_as_xyz
  x,y,z
_cell_length_a	7.4054
_cell_length_b	18.811
_cell_length_c	12.006
_cell_angle_alpha	90
_cell_angle_beta	97.06
_cell_angle_gamma	90
loop_
_atom_site_label
_atom_site_type_symbol
_atom_site_fract_x
_atom_site_fract_y
_atom_site_fract_z
_atom_site_charge
Mof_C 	C 	0.0314	0.1764	0.3261	0.422
Mof_C 	C 	0.9597	0.2389	0.2569	-0.254
Mof_C 	C 	0.7773	0.2572	0.2526	0.227
Mof_H 	H 	0.702	0.2315	0.2943	-0.025
Mof_C 	C 	0.7082	0.3122	0.1882	-0.345
Mof_H 	H 	0.5853	0.323	0.1861	0.168
Mof_C 	C 	0.8164	0.3537	0.124	0.345
Mof_C 	C 	4.28092e-18	0.3354	0.1269	-0.291
Mof_C 	C 	0.0693	0.2778	0.195	0.206
Mof_H 	H 	0.1918	0.266	0.198	-0.011
Mof_C 	C 	0.1243	0.3748	0.0614	0.401
Mof_Cu	Cu	0.93761	0.07552	0.49378	0.921
Mof_Cu	Cu	0.3174	0.05901	0.4315	0.898
Mof_O 	O 	0.9111	0.1455	0.3769	-0.421
Mof_O 	O 	0.1951	0.15894	0.331	-0.37
Mof_O 	O 	0.2949	0.36657	0.0877	-0.398
Mof_O 	O 	0.0665	0.41676	0.9817	-0.48
Mof_O 	O 	0.9197	0.9916	0.5898	-0.521
Mof_O 	O 	0.7369	0.40738	0.0667	-0.478
Mof_C 	C 	0.4686	0.6764	0.1739	0.387
Mof_C 	C 	0.5403	0.7389	0.2431	-0.217
Mof_C 	C 	0.7227	0.7572	0.2474	0.205
Mof_H 	H 	0.798	0.7315	0.2057	-0.02
Mof_C 	C 	0.7918	0.8122	0.3118	-0.334
Mof_H 	H 	0.9147	0.823	0.3139	0.161
Mof_C 	C 	0.6836	0.8537	0.376	0.348
Mof_C 	C 	0.5	0.8354	0.3731	-0.293
Mof_C 	C 	0.4307	0.7778	0.305	0.177
Mof_H 	H 	0.3082	0.766	0.302	-0.001
Mof_C 	C 	0.3757	0.8748	0.4386	0.404
Mof_Cu	Cu	0.56239	0.57552	0.00622	0.925
Mof_Cu	Cu	0.1826	0.55901	0.0685	0.898
Mof_O 	O 	0.5889	0.6455	0.1231	-0.405
Mof_O 	O 	0.3049	0.65894	0.169	-0.362
Mof_O 	O 	0.2051	0.86657	0.4123	-0.396
Mof_O 	O 	0.4335	0.91676	0.5183	-0.491
Mof_O 	O 	0.5803	0.4916	0.9102	-0.515
Mof_O 	O 	0.7631	0.90738	0.4333	-0.48
Mof_C 	C 	0.9686	0.8236	0.6739	0.334
Mof_C 	C 	0.0403	0.7611	0.7431	-0.135
Mof_C 	C 	0.2227	0.7428	0.7474	0.146
Mof_H 	H 	0.298	0.7685	0.7057	0.002
Mof_C 	C 	0.2918	0.6878	0.8118	-0.283
Mof_H 	H 	0.4147	0.677	0.8139	0.146
Mof_C 	C 	0.1836	0.6463	0.876	0.31
Mof_C 	C 	5.95964e-33	0.6646	0.8731	-0.219
Mof_C 	C 	0.9307	0.7222	0.805	0.081
Mof_H 	H 	0.8082	0.734	0.802	0.028
Mof_C 	C 	0.8757	0.6252	0.9386	0.365
Mof_Cu	Cu	0.06239	0.92448	0.50622	0.929
Mof_Cu	Cu	0.6826	0.94099	0.5685	0.897
Mof_O 	O 	0.0889	0.8545	0.6231	-0.383
Mof_O 	O 	0.8049	0.84106	0.669	-0.353
Mof_O 	O 	0.7051	0.63343	0.9123	-0.39
Mof_O 	O 	0.9335	0.58324	0.0183	-0.485
Mof_O 	O 	0.0803	0.0084	0.4102	-0.508
Mof_O 	O 	0.2631	0.59262	0.9333	-0.464
Mof_C 	C 	0.5314	0.3236	0.8261	0.389
Mof_C 	C 	0.4597	0.2611	0.7569	-0.22
Mof_C 	C 	0.2773	0.2428	0.7526	0.21
Mof_H 	H 	0.202	0.2685	0.7943	-0.017
Mof_C 	C 	0.2082	0.1878	0.6882	-0.335
Mof_H 	H 	0.0853	0.177	0.6861	0.17
Mof_C 	C 	0.3164	0.1463	0.624	0.352
Mof_C 	C 	0.5	0.1646	0.6269	-0.296
Mof_C 	C 	0.5693	0.2222	0.695	0.181
Mof_H 	H 	0.6918	0.234	0.698	-0.006
Mof_C 	C 	0.6243	0.1252	0.5614	0.407
Mof_Cu	Cu	0.43761	0.42448	0.99378	0.926
Mof_Cu	Cu	0.8174	0.44099	0.9315	0.892
Mof_O 	O 	0.4111	0.3545	0.8769	-0.404
Mof_O 	O 	0.6951	0.34106	0.831	-0.368
Mof_O 	O 	0.7949	0.13343	0.5877	-0.403
Mof_O 	O 	0.5665	0.08324	0.4817	-0.492
Mof_O 	O 	0.4197	0.5084	0.0898	-0.515
Mof_O 	O 	0.2369	0.09262	0.5667	-0.474
_end
