# CIF file generated by openbabel 3.1.0, see https://openbabel.org
data_I
_chemical_name_common 'REYCEF_clean'
_cell_length_a 8.0062
_cell_length_b 12.7171
_cell_length_c 12.7171
_cell_angle_alpha 106.16
_cell_angle_beta 102.608
_cell_angle_gamma 77.3925
_space_group_name_H-M_alt 'P 1'
_space_group_name_Hall 'P 1'
loop_
    _symmetry_equiv_pos_as_xyz
    x,y,z
loop_
    _atom_site_label
    _atom_site_type_symbol
    _atom_site_fract_x
    _atom_site_fract_y
    _atom_site_fract_z
    _atom_site_occupancy
    Zn1      Zn       0.96822    0.45700    0.71394    1.000
    Zn2      Zn       0.53178    0.71394    0.45700    1.000
    Zn3      Zn       0.03178    0.54300    0.28606    1.000
    Zn4      Zn       0.46822    0.28606    0.54300    1.000
    H1       H        0.79460    0.55460    0.04940    1.000
    H2       H        0.33370    0.72090    0.13230    1.000
    H3       H        0.40040    0.63680    0.81400    1.000
    H4       H        0.02740    0.72710    0.03910    1.000
    H5       H        0.11450    0.83400    0.07220    1.000
    H6       H        0.72580    0.78810    0.00930    1.000
    H7       H        0.47960    0.87920    0.91740    1.000
    H8       H        0.70540    0.04940    0.55460    1.000
    H9       H        0.16630    0.13230    0.72090    1.000
    H10      H        0.09960    0.81400    0.63680    1.000
    H11      H        0.47260    0.03910    0.72710    1.000
    H12      H        0.38550    0.07220    0.83400    1.000
    H13      H        0.77420    0.00930    0.78810    1.000
    H14      H        0.02040    0.91740    0.87920    1.000
    H15      H        0.20540    0.44540    0.95060    1.000
    H16      H        0.66630    0.27910    0.86770    1.000
    H17      H        0.59960    0.36320    0.18600    1.000
    H18      H        0.97260    0.27290    0.96090    1.000
    H19      H        0.88550    0.16600    0.92780    1.000
    H20      H        0.27420    0.21190    0.99070    1.000
    H21      H        0.52040    0.12080    0.08260    1.000
    H22      H        0.29460    0.95060    0.44540    1.000
    H23      H        0.83370    0.86770    0.27910    1.000
    H24      H        0.90040    0.18600    0.36320    1.000
    H25      H        0.52740    0.96090    0.27290    1.000
    H26      H        0.61450    0.92780    0.16600    1.000
    H27      H        0.22580    0.99070    0.21190    1.000
    H28      H        0.97960    0.08260    0.12080    1.000
    C1       C        0.72930    0.54628    0.83272    1.000
    C2       C        0.61400    0.59096    0.91804    1.000
    C3       C        0.68140    0.58903    0.02957    1.000
    C4       C        0.57640    0.63942    0.10938    1.000
    C5       C        0.63900    0.64028    0.23012    1.000
    C6       C        0.40380    0.68750    0.07850    1.000
    C7       C        0.33780    0.68554    0.96826    1.000
    C8       C        0.44450    0.63735    0.88805    1.000
    C9       C        0.05780    0.78230    0.01050    1.000
    C10      C        0.89920    0.84230    0.95230    1.000
    C11      C        0.73640    0.83200    0.96420    1.000
    C12      C        0.58860    0.88690    0.90910    1.000
    C13      C        0.77070    0.83272    0.54628    1.000
    C14      C        0.88600    0.91804    0.59096    1.000
    C15      C        0.81860    0.02957    0.58903    1.000
    C16      C        0.92360    0.10938    0.63942    1.000
    C17      C        0.86100    0.23012    0.64028    1.000
    C18      C        0.09620    0.07850    0.68750    1.000
    C19      C        0.16220    0.96826    0.68554    1.000
    C20      C        0.05550    0.88805    0.63735    1.000
    C21      C        0.44220    0.01050    0.78230    1.000
    C22      C        0.60080    0.95230    0.84230    1.000
    C23      C        0.76360    0.96420    0.83200    1.000
    C24      C        0.91140    0.90910    0.88690    1.000
    C25      C        0.27070    0.45372    0.16728    1.000
    C26      C        0.38600    0.40904    0.08196    1.000
    C27      C        0.31860    0.41097    0.97043    1.000
    C28      C        0.42360    0.36058    0.89062    1.000
    C29      C        0.36100    0.35972    0.76988    1.000
    C30      C        0.59620    0.31250    0.92150    1.000
    C31      C        0.66220    0.31446    0.03174    1.000
    C32      C        0.55550    0.36265    0.11195    1.000
    C33      C        0.94220    0.21770    0.98950    1.000
    C34      C        0.10080    0.15770    0.04770    1.000
    C35      C        0.26360    0.16800    0.03580    1.000
    C36      C        0.41140    0.11310    0.09090    1.000
    C37      C        0.22930    0.16728    0.45372    1.000
    C38      C        0.11400    0.08196    0.40904    1.000
    C39      C        0.18140    0.97043    0.41097    1.000
    C40      C        0.07640    0.89062    0.36058    1.000
    C41      C        0.13900    0.76988    0.35972    1.000
    C42      C        0.90380    0.92150    0.31250    1.000
    C43      C        0.83780    0.03174    0.31446    1.000
    C44      C        0.94450    0.11195    0.36265    1.000
    C45      C        0.55780    0.98950    0.21770    1.000
    C46      C        0.39920    0.04770    0.15770    1.000
    C47      C        0.23640    0.03580    0.16800    1.000
    C48      C        0.08860    0.09090    0.11310    1.000
    O1       O        0.88780    0.51463    0.86287    1.000
    O2       O        0.66620    0.54177    0.73105    1.000
    O3       O        0.77140    0.57366    0.25710    1.000
    O4       O        0.54710    0.70539    0.29641    1.000
    O5       O        0.17100    0.72990    0.93052    1.000
    O6       O        0.61220    0.86287    0.51463    1.000
    O7       O        0.83380    0.73105    0.54177    1.000
    O8       O        0.72860    0.25710    0.57366    1.000
    O9       O        0.95290    0.29641    0.70539    1.000
    O10      O        0.32900    0.93052    0.72990    1.000
    O11      O        0.11220    0.48537    0.13713    1.000
    O12      O        0.33380    0.45823    0.26895    1.000
    O13      O        0.22860    0.42634    0.74290    1.000
    O14      O        0.45290    0.29461    0.70359    1.000
    O15      O        0.82900    0.27010    0.06948    1.000
    O16      O        0.38780    0.13713    0.48537    1.000
    O17      O        0.16620    0.26895    0.45823    1.000
    O18      O        0.27140    0.74290    0.42634    1.000
    O19      O        0.04710    0.70359    0.29461    1.000
    O20      O        0.67100    0.06948    0.27010    1.000
