# CIF file generated by openbabel 3.1.0, see https://openbabel.org
data_I
_chemical_name_common 'image0'
_cell_length_a 10.2354
_cell_length_b 15.455
_cell_length_c 17.536
_cell_angle_alpha 90
_cell_angle_beta 98.718
_cell_angle_gamma 90
_space_group_name_H-M_alt 'P 1'
_space_group_name_Hall 'P 1'
loop_
    _symmetry_equiv_pos_as_xyz
    x,y,z
loop_
    _atom_site_label
    _atom_site_type_symbol
    _atom_site_fract_x
    _atom_site_fract_y
    _atom_site_fract_z
    _atom_site_occupancy
    Ba1      Ba       0.18060    0.03334    0.45055    1.000
    V1       V        0.19515    0.40097    0.34085    1.000
    O1       O        0.00362    0.37283    0.34102    1.000
    O2       O        0.82274    0.40520    0.39242    1.000
    O3       O        0.12968    0.50502    0.41216    1.000
    O4       O        0.93914    0.56433    0.43419    1.000
    O5       O        0.02063    0.07367    0.16461    1.000
    O6       O        0.13332    0.96225    0.12949    1.000
    O7       O        0.22350    0.10350    0.28506    1.000
    O8       O        0.33304    0.99440    0.23928    1.000
    O9       O        0.23701    0.34349    0.44436    1.000
    O10      O        0.15897    0.21016    0.41460    1.000
    O11      O        0.22843    0.32087    0.28877    1.000
    O12      O        0.06110    0.88167    0.49920    1.000
    H1       H        0.04500    0.84500    0.46800    1.000
    H2       H        0.10500    0.84800    0.53100    1.000
    C1       C        0.93480    0.42175    0.37877    1.000
    C2       C        0.00600    0.50589    0.41108    1.000
    C3       C        0.11910    0.02742    0.17277    1.000
    C4       C        0.23500    0.04527    0.23893    1.000
    C5       C        0.21890    0.26379    0.45881    1.000
    Ba2      Ba       0.68060    0.53334    0.45055    1.000
    V2       V        0.69515    0.90097    0.34085    1.000
    O13      O        0.50362    0.87283    0.34102    1.000
    O14      O        0.32274    0.90520    0.39242    1.000
    O15      O        0.62968    0.00502    0.41216    1.000
    O16      O        0.43914    0.06433    0.43419    1.000
    O17      O        0.52063    0.57367    0.16461    1.000
    O18      O        0.63332    0.46225    0.12949    1.000
    O19      O        0.72350    0.60350    0.28506    1.000
    O20      O        0.83304    0.49440    0.23928    1.000
    O21      O        0.73701    0.84349    0.44436    1.000
    O22      O        0.65897    0.71016    0.41460    1.000
    O23      O        0.72843    0.82087    0.28877    1.000
    O24      O        0.56110    0.38167    0.49920    1.000
    H3       H        0.54500    0.34500    0.46800    1.000
    H4       H        0.60500    0.34800    0.53100    1.000
    C6       C        0.43480    0.92175    0.37877    1.000
    C7       C        0.50600    0.00589    0.41108    1.000
    C8       C        0.61910    0.52742    0.17277    1.000
    C9       C        0.73500    0.54527    0.23893    1.000
    C10      C        0.71890    0.76379    0.45881    1.000
    Ba3      Ba       0.81940    0.03334    0.04945    1.000
    V3       V        0.80485    0.40097    0.15915    1.000
    O25      O        0.99638    0.37283    0.15898    1.000
    O26      O        0.17726    0.40520    0.10758    1.000
    O27      O        0.87032    0.50502    0.08784    1.000
    O28      O        0.06086    0.56433    0.06581    1.000
    O29      O        0.97937    0.07367    0.33539    1.000
    O30      O        0.86668    0.96225    0.37051    1.000
    O31      O        0.77650    0.10350    0.21494    1.000
    O32      O        0.66696    0.99440    0.26072    1.000
    O33      O        0.76299    0.34349    0.05564    1.000
    O34      O        0.84103    0.21016    0.08540    1.000
    O35      O        0.77157    0.32087    0.21123    1.000
    O36      O        0.93890    0.88167    0.00080    1.000
    H5       H        0.95500    0.84500    0.03200    1.000
    H6       H        0.89500    0.84800    0.96900    1.000
    C11      C        0.06520    0.42175    0.12123    1.000
    C12      C        0.99400    0.50589    0.08892    1.000
    C13      C        0.88090    0.02742    0.32723    1.000
    C14      C        0.76500    0.04527    0.26107    1.000
    C15      C        0.78110    0.26379    0.04119    1.000
    Ba4      Ba       0.31940    0.53334    0.04945    1.000
    V4       V        0.30485    0.90097    0.15915    1.000
    O37      O        0.49638    0.87283    0.15898    1.000
    O38      O        0.67726    0.90520    0.10758    1.000
    O39      O        0.37032    0.00502    0.08784    1.000
    O40      O        0.56086    0.06433    0.06581    1.000
    O41      O        0.47937    0.57367    0.33539    1.000
    O42      O        0.36668    0.46225    0.37051    1.000
    O43      O        0.27650    0.60350    0.21494    1.000
    O44      O        0.16696    0.49440    0.26072    1.000
    O45      O        0.26299    0.84349    0.05564    1.000
    O46      O        0.34103    0.71016    0.08540    1.000
    O47      O        0.27157    0.82087    0.21123    1.000
    O48      O        0.43890    0.38167    0.00080    1.000
    H7       H        0.45500    0.34500    0.03200    1.000
    H8       H        0.39500    0.34800    0.96900    1.000
    C16      C        0.56520    0.92175    0.12123    1.000
    C17      C        0.49400    0.00589    0.08892    1.000
    C18      C        0.38090    0.52742    0.32723    1.000
    C19      C        0.26500    0.54527    0.26107    1.000
    C20      C        0.28110    0.76379    0.04119    1.000
    Ba5      Ba       0.81940    0.96666    0.54945    1.000
    V5       V        0.80485    0.59903    0.65915    1.000
    O49      O        0.99638    0.62717    0.65898    1.000
    O50      O        0.17726    0.59480    0.60758    1.000
    O51      O        0.87032    0.49498    0.58784    1.000
    O52      O        0.06086    0.43567    0.56581    1.000
    O53      O        0.97937    0.92633    0.83539    1.000
    O54      O        0.86668    0.03775    0.87051    1.000
    O55      O        0.77650    0.89650    0.71494    1.000
    O56      O        0.66696    0.00560    0.76072    1.000
    O57      O        0.76299    0.65651    0.55564    1.000
    O58      O        0.84103    0.78984    0.58540    1.000
    O59      O        0.77157    0.67913    0.71123    1.000
    O60      O        0.93890    0.11833    0.50080    1.000
    H9       H        0.95500    0.15500    0.53200    1.000
    H10      H        0.89500    0.15200    0.46900    1.000
    C21      C        0.06520    0.57825    0.62123    1.000
    C22      C        0.99400    0.49411    0.58892    1.000
    C23      C        0.88090    0.97258    0.82723    1.000
    C24      C        0.76500    0.95473    0.76107    1.000
    C25      C        0.78110    0.73621    0.54119    1.000
    Ba6      Ba       0.31940    0.46666    0.54945    1.000
    V6       V        0.30485    0.09903    0.65915    1.000
    O61      O        0.49638    0.12717    0.65898    1.000
    O62      O        0.67726    0.09480    0.60758    1.000
    O63      O        0.37032    0.99498    0.58784    1.000
    O64      O        0.56086    0.93567    0.56581    1.000
    O65      O        0.47937    0.42633    0.83539    1.000
    O66      O        0.36668    0.53775    0.87051    1.000
    O67      O        0.27650    0.39650    0.71494    1.000
    O68      O        0.16696    0.50560    0.76072    1.000
    O69      O        0.26299    0.15651    0.55564    1.000
    O70      O        0.34103    0.28984    0.58540    1.000
    O71      O        0.27157    0.17913    0.71123    1.000
    O72      O        0.43890    0.61833    0.50080    1.000
    H11      H        0.45500    0.65500    0.53200    1.000
    H12      H        0.39500    0.65200    0.46900    1.000
    C26      C        0.56520    0.07825    0.62123    1.000
    C27      C        0.49400    0.99411    0.58892    1.000
    C28      C        0.38090    0.47258    0.82723    1.000
    C29      C        0.26500    0.45473    0.76107    1.000
    C30      C        0.28110    0.23621    0.54119    1.000
    Ba7      Ba       0.18060    0.96666    0.95055    1.000
    V7       V        0.19515    0.59903    0.84085    1.000
    O73      O        0.00362    0.62717    0.84102    1.000
    O74      O        0.82274    0.59480    0.89242    1.000
    O75      O        0.12968    0.49498    0.91216    1.000
    O76      O        0.93914    0.43567    0.93419    1.000
    O77      O        0.02063    0.92633    0.66461    1.000
    O78      O        0.13332    0.03775    0.62949    1.000
    O79      O        0.22350    0.89650    0.78506    1.000
    O80      O        0.33304    0.00560    0.73928    1.000
    O81      O        0.23701    0.65651    0.94436    1.000
    O82      O        0.15897    0.78984    0.91460    1.000
    O83      O        0.22843    0.67913    0.78877    1.000
    O84      O        0.06110    0.11833    0.99920    1.000
    H13      H        0.04500    0.15500    0.96800    1.000
    H14      H        0.10500    0.15200    0.03100    1.000
    C31      C        0.93480    0.57825    0.87877    1.000
    C32      C        0.00600    0.49411    0.91108    1.000
    C33      C        0.11910    0.97258    0.67277    1.000
    C34      C        0.23500    0.95473    0.73893    1.000
    C35      C        0.21890    0.73621    0.95881    1.000
    Ba8      Ba       0.68060    0.46666    0.95055    1.000
    V8       V        0.69515    0.09903    0.84085    1.000
    O85      O        0.50362    0.12717    0.84102    1.000
    O86      O        0.32274    0.09480    0.89242    1.000
    O87      O        0.62968    0.99498    0.91216    1.000
    O88      O        0.43914    0.93567    0.93419    1.000
    O89      O        0.52063    0.42633    0.66461    1.000
    O90      O        0.63332    0.53775    0.62949    1.000
    O91      O        0.72350    0.39650    0.78506    1.000
    O92      O        0.83304    0.50560    0.73928    1.000
    O93      O        0.73701    0.15651    0.94436    1.000
    O94      O        0.65897    0.28984    0.91460    1.000
    O95      O        0.72843    0.17913    0.78877    1.000
    O96      O        0.56110    0.61833    0.99920    1.000
    H15      H        0.54500    0.65500    0.96800    1.000
    H16      H        0.60500    0.65200    0.03100    1.000
    C36      C        0.43480    0.07825    0.87877    1.000
    C37      C        0.50600    0.99411    0.91108    1.000
    C38      C        0.61910    0.47258    0.67277    1.000
    C39      C        0.73500    0.45473    0.73893    1.000
    C40      C        0.71890    0.23621    0.95881    1.000
    Ba9      Ba       0.00000    0.21819    0.25000    1.000
    Ba10     Ba       0.50000    0.71819    0.25000    1.000
    Ba11     Ba       0.00000    0.78181    0.75000    1.000
    Ba12     Ba       0.50000    0.28181    0.75000    1.000
