# CIF file generated by openbabel 3.1.0, see https://openbabel.org
data_I
_chemical_name_common 'XEWRUO_clean'
_cell_length_a 9.9411
_cell_length_b 9.9411
_cell_length_c 11.21
_cell_angle_alpha 63.6786
_cell_angle_beta 63.6786
_cell_angle_gamma 89.9999
_space_group_name_H-M_alt 'P 1'
_space_group_name_Hall 'P 1'
loop_
    _symmetry_equiv_pos_as_xyz
    x,y,z
loop_
    _atom_site_label
    _atom_site_type_symbol
    _atom_site_fract_x
    _atom_site_fract_y
    _atom_site_fract_z
    _atom_site_occupancy
    Cd1      Cd       0.86416    0.61416    0.77168    1.000
    Cd2      Cd       0.61416    0.86416    0.27168    1.000
    Cd3      Cd       0.13584    0.38584    0.22832    1.000
    Cd4      Cd       0.38584    0.13584    0.72832    1.000
    C1       C        0.61300    0.55860    0.55820    1.000
    C2       C        0.32880    0.88320    0.55820    1.000
    C3       C        0.55860    0.32880    0.05820    1.000
    C4       C        0.88320    0.61300    0.05820    1.000
    C5       C        0.38700    0.44140    0.44180    1.000
    C6       C        0.67120    0.11680    0.44180    1.000
    C7       C        0.44140    0.67120    0.94180    1.000
    C8       C        0.11680    0.38700    0.94180    1.000
    N1       N        0.75368    0.75252    0.51484    1.000
    N2       N        0.74791    0.62566    0.63060    1.000
    N3       N        0.66005    0.50206    0.66034    1.000
    N4       N        0.66775    0.71116    0.46770    1.000
    N5       N        0.51751    0.46270    0.55132    1.000
    N6       N        0.23148    0.73264    0.51484    1.000
    N7       N        0.12149    0.74374    0.63060    1.000
    N8       N        0.17961    0.83760    0.66034    1.000
    N9       N        0.36455    0.82114    0.46770    1.000
    N10      N        0.43117    0.98598    0.55132    1.000
    N11      N        0.75252    0.23148    0.01484    1.000
    N12      N        0.62566    0.12149    0.13060    1.000
    N13      N        0.50206    0.17961    0.16034    1.000
    N14      N        0.71116    0.36455    0.96770    1.000
    N15      N        0.46270    0.43117    0.05132    1.000
    N16      N        0.73264    0.75368    0.01484    1.000
    N17      N        0.74374    0.74791    0.13060    1.000
    N18      N        0.83760    0.66005    0.16034    1.000
    N19      N        0.82114    0.66775    0.96770    1.000
    N20      N        0.98598    0.51751    0.05132    1.000
    N21      N        0.24632    0.24748    0.48516    1.000
    N22      N        0.25209    0.37434    0.36940    1.000
    N23      N        0.33995    0.49794    0.33966    1.000
    N24      N        0.33225    0.28884    0.53230    1.000
    N25      N        0.48249    0.53730    0.44868    1.000
    N26      N        0.76852    0.26736    0.48516    1.000
    N27      N        0.87851    0.25626    0.36940    1.000
    N28      N        0.82039    0.16240    0.33966    1.000
    N29      N        0.63545    0.17886    0.53230    1.000
    N30      N        0.56883    0.01402    0.44868    1.000
    N31      N        0.24748    0.76852    0.98516    1.000
    N32      N        0.37434    0.87851    0.86940    1.000
    N33      N        0.49794    0.82039    0.83966    1.000
    N34      N        0.28884    0.63545    0.03230    1.000
    N35      N        0.53730    0.56883    0.94868    1.000
    N36      N        0.26736    0.24632    0.98516    1.000
    N37      N        0.25626    0.25209    0.86940    1.000
    N38      N        0.16240    0.33995    0.83966    1.000
    N39      N        0.17886    0.33225    0.03230    1.000
    N40      N        0.01402    0.48249    0.94868    1.000
