# CIF file generated by openbabel 3.1.0, see https://openbabel.org
data_I
_chemical_name_common 'image0'
_cell_length_a 14.138
_cell_length_b 11.686
_cell_length_c 16.583
_cell_angle_alpha 90
_cell_angle_beta 90
_cell_angle_gamma 90
_space_group_name_H-M_alt 'P 1'
_space_group_name_Hall 'P 1'
loop_
    _symmetry_equiv_pos_as_xyz
    x,y,z
loop_
    _atom_site_label
    _atom_site_type_symbol
    _atom_site_fract_x
    _atom_site_fract_y
    _atom_site_fract_z
    _atom_site_occupancy
    Mn1      Mn       0.61063    0.46860    0.56065    1.000
    O1       O        0.79860    0.52350    0.95520    1.000
    O2       O        0.78670    0.37930    0.03990    1.000
    O3       O        0.60480    0.30930    0.64140    1.000
    O4       O        0.48890    0.05850    0.86380    1.000
    C1       C        0.63960    0.28570    0.94320    1.000
    H1       H        0.63250    0.27210    0.99810    1.000
    O5       O        0.50220    0.12020    0.99180    1.000
    C2       C        0.76250    0.43100    0.97500    1.000
    C3       C        0.70080    0.39960    0.83520    1.000
    H2       H        0.73600    0.46190    0.81730    1.000
    C4       C        0.64970    0.36800    0.69280    1.000
    C5       C        0.70090    0.36740    0.91780    1.000
    C6       C        0.52390    0.12800    0.91440    1.000
    O6       O        0.69620    0.45190    0.67170    1.000
    C7       C        0.59340    0.24300    0.80590    1.000
    H3       H        0.56260    0.19670    0.76860    1.000
    C8       C        0.58750    0.22230    0.88850    1.000
    C9       C        0.64720    0.33600    0.78220    1.000
    Mn2      Mn       0.88937    0.53140    0.06065    1.000
    O7       O        0.70140    0.47650    0.45520    1.000
    O8       O        0.71330    0.62070    0.53990    1.000
    O9       O        0.89520    0.69070    0.14140    1.000
    O10      O        0.01110    0.94150    0.36380    1.000
    C10      C        0.86040    0.71430    0.44320    1.000
    H4       H        0.86750    0.72790    0.49810    1.000
    O11      O        0.99780    0.87980    0.49180    1.000
    C11      C        0.73750    0.56900    0.47500    1.000
    C12      C        0.79920    0.60040    0.33520    1.000
    H5       H        0.76400    0.53810    0.31730    1.000
    C13      C        0.85030    0.63200    0.19280    1.000
    C14      C        0.79910    0.63260    0.41780    1.000
    C15      C        0.97610    0.87200    0.41440    1.000
    O12      O        0.80380    0.54810    0.17170    1.000
    C16      C        0.90660    0.75700    0.30590    1.000
    H6       H        0.93740    0.80330    0.26860    1.000
    C17      C        0.91250    0.77770    0.38850    1.000
    C18      C        0.85280    0.66400    0.28220    1.000
    Mn3      Mn       0.38937    0.96860    0.93935    1.000
    O13      O        0.20140    0.02350    0.54480    1.000
    O14      O        0.21330    0.87930    0.46010    1.000
    O15      O        0.39520    0.80930    0.85860    1.000
    O16      O        0.51110    0.55850    0.63620    1.000
    C19      C        0.36040    0.78570    0.55680    1.000
    H7       H        0.36750    0.77210    0.50190    1.000
    O17      O        0.49780    0.62020    0.50820    1.000
    C20      C        0.23750    0.93100    0.52500    1.000
    C21      C        0.29920    0.89960    0.66480    1.000
    H8       H        0.26400    0.96190    0.68270    1.000
    C22      C        0.35030    0.86800    0.80720    1.000
    C23      C        0.29910    0.86740    0.58220    1.000
    C24      C        0.47610    0.62800    0.58560    1.000
    O18      O        0.30380    0.95190    0.82830    1.000
    C25      C        0.40660    0.74300    0.69410    1.000
    H9       H        0.43740    0.69670    0.73140    1.000
    C26      C        0.41250    0.72230    0.61150    1.000
    C27      C        0.35280    0.83600    0.71780    1.000
    Mn4      Mn       0.11063    0.03140    0.43935    1.000
    O19      O        0.29860    0.97650    0.04480    1.000
    O20      O        0.28670    0.12070    0.96010    1.000
    O21      O        0.10480    0.19070    0.35860    1.000
    O22      O        0.98890    0.44150    0.13620    1.000
    C28      C        0.13960    0.21430    0.05680    1.000
    H10      H        0.13250    0.22790    0.00190    1.000
    O23      O        0.00220    0.37980    0.00820    1.000
    C29      C        0.26250    0.06900    0.02500    1.000
    C30      C        0.20080    0.10040    0.16480    1.000
    H11      H        0.23600    0.03810    0.18270    1.000
    C31      C        0.14970    0.13200    0.30720    1.000
    C32      C        0.20090    0.13260    0.08220    1.000
    C33      C        0.02390    0.37200    0.08560    1.000
    O24      O        0.19620    0.04810    0.32830    1.000
    C34      C        0.09340    0.25700    0.19410    1.000
    H12      H        0.06260    0.30330    0.23140    1.000
    C35      C        0.08750    0.27770    0.11150    1.000
    C36      C        0.14720    0.16400    0.21780    1.000
    Mn5      Mn       0.38937    0.53140    0.43935    1.000
    O25      O        0.20140    0.47650    0.04480    1.000
    O26      O        0.21330    0.62070    0.96010    1.000
    O27      O        0.39520    0.69070    0.35860    1.000
    O28      O        0.51110    0.94150    0.13620    1.000
    C37      C        0.36040    0.71430    0.05680    1.000
    H13      H        0.36750    0.72790    0.00190    1.000
    O29      O        0.49780    0.87980    0.00820    1.000
    C38      C        0.23750    0.56900    0.02500    1.000
    C39      C        0.29920    0.60040    0.16480    1.000
    H14      H        0.26400    0.53810    0.18270    1.000
    C40      C        0.35030    0.63200    0.30720    1.000
    C41      C        0.29910    0.63260    0.08220    1.000
    C42      C        0.47610    0.87200    0.08560    1.000
    O30      O        0.30380    0.54810    0.32830    1.000
    C43      C        0.40660    0.75700    0.19410    1.000
    H15      H        0.43740    0.80330    0.23140    1.000
    C44      C        0.41250    0.77770    0.11150    1.000
    C45      C        0.35280    0.66400    0.21780    1.000
    Mn6      Mn       0.11063    0.46860    0.93935    1.000
    O31      O        0.29860    0.52350    0.54480    1.000
    O32      O        0.28670    0.37930    0.46010    1.000
    O33      O        0.10480    0.30930    0.85860    1.000
    O34      O        0.98890    0.05850    0.63620    1.000
    C46      C        0.13960    0.28570    0.55680    1.000
    H16      H        0.13250    0.27210    0.50190    1.000
    O35      O        0.00220    0.12020    0.50820    1.000
    C47      C        0.26250    0.43100    0.52500    1.000
    C48      C        0.20080    0.39960    0.66480    1.000
    H17      H        0.23600    0.46190    0.68270    1.000
    C49      C        0.14970    0.36800    0.80720    1.000
    C50      C        0.20090    0.36740    0.58220    1.000
    C51      C        0.02390    0.12800    0.58560    1.000
    O36      O        0.19620    0.45190    0.82830    1.000
    C52      C        0.09340    0.24300    0.69410    1.000
    H18      H        0.06260    0.19670    0.73140    1.000
    C53      C        0.08750    0.22230    0.61150    1.000
    C54      C        0.14720    0.33600    0.71780    1.000
    Mn7      Mn       0.61063    0.03140    0.06065    1.000
    O37      O        0.79860    0.97650    0.45520    1.000
    O38      O        0.78670    0.12070    0.53990    1.000
    O39      O        0.60480    0.19070    0.14140    1.000
    O40      O        0.48890    0.44150    0.36380    1.000
    C55      C        0.63960    0.21430    0.44320    1.000
    H19      H        0.63250    0.22790    0.49810    1.000
    O41      O        0.50220    0.37980    0.49180    1.000
    C56      C        0.76250    0.06900    0.47500    1.000
    C57      C        0.70080    0.10040    0.33520    1.000
    H20      H        0.73600    0.03810    0.31730    1.000
    C58      C        0.64970    0.13200    0.19280    1.000
    C59      C        0.70090    0.13260    0.41780    1.000
    C60      C        0.52390    0.37200    0.41440    1.000
    O42      O        0.69620    0.04810    0.17170    1.000
    C61      C        0.59340    0.25700    0.30590    1.000
    H21      H        0.56260    0.30330    0.26860    1.000
    C62      C        0.58750    0.27770    0.38850    1.000
    C63      C        0.64720    0.16400    0.28220    1.000
    Mn8      Mn       0.88937    0.96860    0.56065    1.000
    O43      O        0.70140    0.02350    0.95520    1.000
    O44      O        0.71330    0.87930    0.03990    1.000
    O45      O        0.89520    0.80930    0.64140    1.000
    O46      O        0.01110    0.55850    0.86380    1.000
    C64      C        0.86040    0.78570    0.94320    1.000
    H22      H        0.86750    0.77210    0.99810    1.000
    O47      O        0.99780    0.62020    0.99180    1.000
    C65      C        0.73750    0.93100    0.97500    1.000
    C66      C        0.79920    0.89960    0.83520    1.000
    H23      H        0.76400    0.96190    0.81730    1.000
    C67      C        0.85030    0.86800    0.69280    1.000
    C68      C        0.79910    0.86740    0.91780    1.000
    C69      C        0.97610    0.62800    0.91440    1.000
    O48      O        0.80380    0.95190    0.67170    1.000
    C70      C        0.90660    0.74300    0.80590    1.000
    H24      H        0.93740    0.69670    0.76860    1.000
    C71      C        0.91250    0.72230    0.88850    1.000
    C72      C        0.85280    0.83600    0.78220    1.000
