data_functionalizedCrystal
_audit_creation_method	'EQeq! by Chris Wilmer'
_symmetry_space_group_name_H-M	'P1'
_symmetry_Int_Tables_number	1
_symmetry_cell_setting	triclinic
loop_
_symmetry_equiv_pos_as_xyz
  x,y,z
_cell_length_a	19.722
_cell_length_b	28.0588
_cell_length_c	28.0835
_cell_angle_alpha	90
_cell_angle_beta	94.423
_cell_angle_gamma	90
loop_
_atom_site_label
_atom_site_type_symbol
_atom_site_fract_x
_atom_site_fract_y
_atom_site_fract_z
_atom_site_charge
Mof_Zn	Zn	0.39004	0.25358	0.66131	1.216
Mof_Zn	Zn	0.39004	0.24642	0.16131	1.216
Mof_Zn	Zn	0.89337	0.74742	0.65309	1.22
Mof_Zn	Zn	0.88477	0.74817	0.04834	1.216
Mof_Zn	Zn	0.39189	0.25065	0.55708	1.215
Mof_Zn	Zn	0.39189	0.24935	0.05708	1.215
Mof_Zn	Zn	0.89337	0.75258	0.15309	1.22
Mof_Zn	Zn	0.88477	0.75183	0.54834	1.216
Mof_H 	H 	0.2336	0.1414	0.1716	0.047
Mof_H 	H 	0.2898	0.253	0.7367	0.003
Mof_H 	H 	0.7695	0.6127	0.0324	0.009
Mof_H 	H 	0.6378	0.0863	0.5641	0.05
Mof_H 	H 	0.3132	0.1049	0.5384	0
Mof_H 	H 	0.1282	0.0132	0.1307	0.137
Mof_H 	H 	0.1109	0.5683	0.0519	0.048
Mof_H 	H 	0.2064	0.1646	0.0296	0.049
Mof_H 	H 	0.1826	0.5202	0.0717	0.125
Mof_H 	H 	0.7983	0.7854	0.4633	0.01
Mof_H 	H 	0.7073	0.5417	0.0391	0.097
Mof_H 	H 	0.9728	0.7165	0.474	0.005
Mof_H 	H 	0.1423	0.9018	0.6888	0.074
Mof_H 	H 	0.0736	0.6641	0.1808	0.038
Mof_H 	H 	0.1559	0.4203	0.665	0.041
Mof_H 	H 	0.9758	0.7864	0.8926	0.077
Mof_H 	H 	0.5272	0.0334	0.0398	0.132
Mof_H 	H 	0.5048	0.3854	0.6824	0.008
Mof_H 	H 	0.0269	0.9655	0.0336	0.137
Mof_H 	H 	0.9323	0.6873	0.3173	0.08
Mof_H 	H 	0.7073	0.9583	0.5391	0.097
Mof_H 	H 	0.1257	0.3965	0.5221	0.058
Mof_H 	H 	0.4746	0.2883	0.481	0.004
Mof_H 	H 	0.072	0.5518	0.6753	0.115
Mof_H 	H 	0.3063	0.2905	0.8913	0.082
Mof_H 	H 	0.5274	0.3591	0.1926	0.037
Mof_H 	H 	0.6182	0.6046	0.5197	0.065
Mof_H 	H 	0.1109	0.9317	0.5519	0.048
Mof_H 	H 	0.981	0.8856	0.0308	0.007
Mof_H 	H 	0.6105	0.5218	0.6396	0.129
Mof_H 	H 	0.6516	0.0131	0.5815	0.129
Mof_H 	H 	0.2031	0.4447	0.1695	0.124
Mof_H 	H 	0.9272	0.8123	0.7346	-0.002
Mof_H 	H 	0.6998	0.6642	0.5227	0.044
Mof_H 	H 	0.7998	0.7875	0.3802	0.079
Mof_H 	H 	0.7794	0.6278	0.1753	0.005
Mof_H 	H 	0.1257	0.1035	0.0221	0.058
Mof_H 	H 	0.309	0.2888	0.9732	0.008
Mof_H 	H 	0.6378	0.4137	0.0641	0.05
Mof_H 	H 	0.2626	0.4696	0.0377	0.104
Mof_H 	H 	0.3063	0.2095	0.3913	0.082
Mof_H 	H 	0.7347	0.6452	0.6652	0.043
Mof_H 	H 	0.6537	0.9152	0.1615	0.044
Mof_H 	H 	0.1282	0.4868	0.6307	0.137
Mof_H 	H 	0.2031	0.0553	0.6695	0.124
Mof_H 	H 	0.6182	0.8954	0.0197	0.065
Mof_H 	H 	0.6105	0.9782	0.1396	0.129
Mof_H 	H 	0.1423	0.5982	0.1888	0.074
Mof_H 	H 	0.0269	0.5345	0.5336	0.137
Mof_H 	H 	0.4896	0.2473	0.246	0.004
Mof_H 	H 	0.5715	0.1556	0.5563	0.036
Mof_H 	H 	0.4938	0.2516	0.8286	0.075
Mof_H 	H 	0.309	0.2112	0.4732	0.008
Mof_H 	H 	0.9272	0.6877	0.2346	-0.002
Mof_H 	H 	0.981	0.6144	0.5308	0.007
Mof_H 	H 	0.9323	0.8127	0.8173	0.08
Mof_H 	H 	0.288	0.2495	0.3192	0.084
Mof_H 	H 	0.5715	0.3444	0.0563	0.036
Mof_H 	H 	0.6516	0.4869	0.0815	0.129
Mof_H 	H 	0.9758	0.7136	0.3926	0.077
Mof_H 	H 	0.8427	0.6846	0.8119	0.078
Mof_H 	H 	0.2558	0.3689	0.1696	0.002
Mof_H 	H 	0.7695	0.8873	0.5324	0.009
Mof_H 	H 	0.7794	0.8722	0.6753	0.005
Mof_H 	H 	0.4746	0.2117	0.981	0.004
Mof_H 	H 	0.6998	0.8358	0.0227	0.044
Mof_H 	H 	0.0736	0.8359	0.6808	0.038
Mof_H 	H 	0.2064	0.3354	0.5296	0.049
Mof_H 	H 	0.4775	0.2891	0.3993	0.079
Mof_H 	H 	0.0077	0.6194	0.6717	-0.001
Mof_H 	H 	0.0336	0.8649	0.542	0.038
Mof_H 	H 	0.4828	0.389	0.539	0.015
Mof_H 	H 	0.7998	0.7125	0.8802	0.079
Mof_H 	H 	0.0336	0.6351	0.042	0.039
Mof_H 	H 	0.7983	0.7146	0.9633	0.01
Mof_H 	H 	0.5272	0.4666	0.5398	0.132
Mof_H 	H 	0.8448	0.6861	0.73	-0
Mof_H 	H 	0.2898	0.247	0.2367	0.003
Mof_H 	H 	0.3132	0.3951	0.0384	0
Mof_H 	H 	0.2336	0.3586	0.6716	0.047
Mof_H 	H 	0.9728	0.7835	0.974	0.005
Mof_H 	H 	0.4775	0.2109	0.8993	0.079
Mof_H 	H 	0.072	0.9482	0.1753	0.115
Mof_H 	H 	0.8448	0.8139	0.23	-0
Mof_H 	H 	0.0077	0.8806	0.1717	-0.001
Mof_H 	H 	0.5048	0.1146	0.1824	0.008
Mof_H 	H 	0.594	0.0757	0.7021	0.071
Mof_H 	H 	0.1559	0.0797	0.165	0.041
Mof_H 	H 	0.8427	0.8154	0.3119	0.078
Mof_H 	H 	0.6537	0.5848	0.6615	0.044
Mof_H 	H 	0.7347	0.8548	0.1652	0.043
Mof_H 	H 	0.4938	0.2484	0.3286	0.075
Mof_H 	H 	0.2626	0.0304	0.5377	0.103
Mof_H 	H 	0.4896	0.2527	0.746	0.004
Mof_H 	H 	0.594	0.4243	0.2021	0.071
Mof_H 	H 	0.722	0.9442	0.682	0.125
Mof_H 	H 	0.2558	0.1311	0.6696	0.002
Mof_H 	H 	0.288	0.2505	0.8192	0.084
Mof_H 	H 	0.1826	0.9798	0.5717	0.125
Mof_H 	H 	0.4828	0.111	0.039	0.015
Mof_H 	H 	0.5536	0.4602	0.6839	0.105
Mof_H 	H 	0.5274	0.1409	0.6926	0.037
Mof_H 	H 	0.5536	0.0398	0.1839	0.105
Mof_H 	H 	0.722	0.5558	0.182	0.125
Mof_C 	C 	0.0499	0.9378	0.1458	-0.237
Mof_C 	C 	0.889	0.7515	0.37719	0.051
Mof_C 	C 	0.3439	0.2271	0.45787	0.084
Mof_C 	C 	0.7835	0.69596	0.59596	0.394
Mof_C 	C 	0.6218	0.0751	0.6346	-0.006
Mof_C 	C 	0.0499	0.5622	0.6458	-0.237
Mof_C 	C 	0.643	0.6119	0.5491	-0.053
Mof_C 	C 	0.213	0.133	0.1411	0.003
Mof_C 	C 	0.727	0.84049	0.0937	-0.097
Mof_C 	C 	0.3301	0.2512	0.80489	-0.129
Mof_C 	C 	0.8636	0.7122	0.7481	0.082
Mof_C 	C 	0.711	0.5416	0.1101	0.202
Mof_C 	C 	0.392	0.249	0.38592	0.059
Mof_C 	C 	0.392	0.251	0.88592	0.059
Mof_C 	C 	0.5103	0.0985	0.1532	0.123
Mof_C 	C 	0.9922	0.8053	0.6074	0.413
Mof_C 	C 	0.8355	0.7282	0.94856	0.071
Mof_C 	C 	0.912	0.785	0.7506	0.089
Mof_C 	C 	0.9912	0.876	0.1009	-0.211
Mof_C 	C 	0.2603	0.4493	0.0646	-0.232
Mof_C 	C 	0.1966	0.3532	0.557	0.003
Mof_C 	C 	0.1665	0.4033	0.6373	-0.04
Mof_C 	C 	0.2254	0.0657	0.6425	-0.208
Mof_C 	C 	0.0785	0.6444	0.1538	0.033
Mof_C 	C 	0.0553	0.628	0.0725	0.024
Mof_C 	C 	0.6681	0.471	0.145	0.23
Mof_C 	C 	0.5243	0.4496	0.5689	-0.201
Mof_C 	C 	0.5391	0.0542	0.1543	-0.208
Mof_C 	C 	0.7797	0.6276	0.1033	-0.183
Mof_C 	C 	0.6681	0.029	0.645	0.23
Mof_C 	C 	0.9574	0.8283	0.1022	0.445
Mof_C 	C 	0.1015	0.9126	0.5785	-0.067
Mof_C 	C 	0.5831	0.548	0.584	0.198
Mof_C 	C 	0.6155	0.0982	0.5904	-0.073
Mof_C 	C 	0.7315	0.5675	0.1514	-0.207
Mof_C 	C 	0.4481	0.2476	0.2611	0.076
Mof_C 	C 	0.3908	0.2491	0.33269	0.058
Mof_C 	C 	0.6911	0.8524	0.051	0.014
Mof_C 	C 	0.4401	0.2282	0.9622	0.081
Mof_C 	C 	0.3908	0.2509	0.83269	0.058
Mof_C 	C 	0.3235	0.17308	0.60352	0.414
Mof_C 	C 	0.6307	0.5866	0.5905	-0.03
Mof_C 	C 	0.4401	0.2718	0.4622	0.081
Mof_C 	C 	0.7592	0.6016	0.0629	0.115
Mof_C 	C 	0.4423	0.2727	0.41364	-0.128
Mof_C 	C 	0.9964	0.6004	0.5604	0.14
Mof_C 	C 	0.5103	0.4015	0.6532	0.123
Mof_C 	C 	0.2894	0.1252	0.6036	-0.186
Mof_C 	C 	0.052	0.9645	0.1049	0.206
Mof_C 	C 	0.2304	0.1576	0.1008	-0.093
Mof_C 	C 	0.4423	0.2273	0.91364	-0.128
Mof_C 	C 	0.3418	0.2741	0.9091	-0.127
Mof_C 	C 	0.7656	0.6102	0.1474	0.122
Mof_C 	C 	0.8179	0.82686	0.5988	0.422
Mof_C 	C 	0.052	0.5355	0.6049	0.206
Mof_C 	C 	0.2273	0.0367	0.6023	0.209
Mof_C 	C 	0.5243	0.0504	0.0689	-0.201
Mof_C 	C 	0.3318	0.2524	0.75572	0.079
Mof_C 	C 	0.0553	0.872	0.5725	0.025
Mof_C 	C 	0.1308	0.9226	0.6227	-0.008
Mof_C 	C 	0.5429	0.3448	0.1237	-0.114
Mof_C 	C 	0.2906	0.4051	0.0654	0.134
Mof_C 	C 	0.711	0.9584	0.6101	0.202
Mof_C 	C 	0.0156	0.8966	0.1428	0.159
Mof_C 	C 	0.889	0.7485	0.87719	0.051
Mof_C 	C 	0.7656	0.8898	0.6474	0.122
Mof_C 	C 	0.9396	0.7704	0.9062	-0.123
Mof_C 	C 	0.5892	0.0915	0.6722	-0.077
Mof_C 	C 	0.7121	0.8636	0.1354	0.008
Mof_C 	C 	0.5429	0.1552	0.6237	-0.114
Mof_C 	C 	0.6307	0.9134	0.0905	-0.03
Mof_C 	C 	0.1484	0.1104	0.0523	-0.036
Mof_C 	C 	0.5892	0.4085	0.1722	-0.077
Mof_C 	C 	0.1711	0.9659	0.6312	0.184
Mof_C 	C 	0.1341	0.4156	0.5921	-0.055
Mof_C 	C 	0.3235	0.32692	0.10352	0.414
Mof_C 	C 	0.664	0.6004	0.6329	-0.049
Mof_C 	C 	0.7315	0.9325	0.6514	-0.207
Mof_C 	C 	0.0435	0.6556	0.1109	-0.116
Mof_C 	C 	0.9964	0.8996	0.0604	0.14
Mof_C 	C 	0.4511	0.2484	0.3103	-0.124
Mof_C 	C 	0.5759	0.1389	0.5858	0.029
Mof_C 	C 	0.2603	0.0507	0.5646	-0.232
Mof_C 	C 	0.5508	0.13	0.6663	0.035
Mof_C 	C 	0.8179	0.67314	0.0988	0.422
Mof_C 	C 	0.1202	0.6052	0.1583	-0.072
Mof_C 	C 	0.5759	0.3611	0.0858	0.029
Mof_C 	C 	0.9912	0.624	0.6009	-0.211
Mof_C 	C 	0.2254	0.4343	0.1425	-0.208
Mof_C 	C 	0.1484	0.3896	0.5523	-0.036
Mof_C 	C 	0.8359	0.7274	0.89904	-0.114
Mof_C 	C 	0.6218	0.4249	0.1346	-0.006
Mof_C 	C 	0.0865	0.4552	0.5844	0.257
Mof_C 	C 	0.4481	0.2524	0.7611	0.076
Mof_C 	C 	0.1711	0.5341	0.1312	0.184
Mof_C 	C 	0.2844	0.19444	0.10526	0.388
Mof_C 	C 	0.2844	0.30556	0.60526	0.388
Mof_C 	C 	0.4891	0.3797	0.6106	-0.175
Mof_C 	C 	0.4966	0.0962	0.0686	0.119
Mof_C 	C 	0.213	0.367	0.6411	0.003
Mof_C 	C 	0.1308	0.5774	0.1227	-0.008
Mof_C 	C 	0.257	0.3893	0.1426	0.119
Mof_C 	C 	0.2906	0.0949	0.5654	0.134
Mof_C 	C 	0.4511	0.2516	0.8103	-0.124
Mof_C 	C 	0.9574	0.6717	0.6022	0.445
Mof_C 	C 	0.8891	0.749	0.82412	0.068
Mof_C 	C 	0.8636	0.7878	0.2481	0.082
Mof_C 	C 	0.4943	0.3033	0.1195	0.403
Mof_C 	C 	0.9396	0.7296	0.4062	-0.123
Mof_C 	C 	0.937	0.7311	0.4546	0.08
Mof_C 	C 	0.8891	0.751	0.32412	0.068
Mof_C 	C 	0.4576	0.3311	0.6096	0.409
Mof_C 	C 	0.5472	0.0302	0.1116	0.195
Mof_C 	C 	0.0435	0.8444	0.6109	-0.116
Mof_C 	C 	0.7835	0.80404	0.09596	0.394
Mof_C 	C 	0.912	0.715	0.2506	0.089
Mof_C 	C 	0.8359	0.7726	0.39904	-0.115
Mof_C 	C 	0.9137	0.7859	0.8003	-0.137
Mof_C 	C 	0.4943	0.1967	0.6195	0.403
Mof_C 	C 	0.6911	0.6476	0.551	0.014
Mof_C 	C 	0.664	0.8996	0.1329	-0.049
Mof_C 	C 	0.4576	0.1689	0.1096	0.409
Mof_C 	C 	0.5472	0.4698	0.6116	0.195
Mof_C 	C 	0.5508	0.37	0.1663	0.035
Mof_C 	C 	0.3439	0.2729	0.95787	0.084
Mof_C 	C 	0.1665	0.0967	0.1373	-0.04
Mof_C 	C 	0.257	0.1107	0.6426	0.119
Mof_C 	C 	0.937	0.7689	0.9546	0.08
Mof_C 	C 	0.9137	0.7141	0.3003	-0.137
Mof_C 	C 	0.3318	0.2476	0.25572	0.079
Mof_C 	C 	0.4891	0.1203	0.1106	-0.175
Mof_C 	C 	0.7592	0.8984	0.5629	0.115
Mof_C 	C 	0.1966	0.1468	0.057	0.003
Mof_C 	C 	0.7231	0.9413	0.5671	-0.212
Mof_C 	C 	0.0785	0.8556	0.6538	0.033
Mof_C 	C 	0.3301	0.2488	0.30489	-0.129
Mof_C 	C 	0.0156	0.6034	0.6428	0.159
Mof_C 	C 	0.643	0.8881	0.0491	-0.053
Mof_C 	C 	0.9922	0.6947	0.1074	0.412
Mof_C 	C 	0.6155	0.4018	0.0904	-0.073
Mof_C 	C 	0.3418	0.2259	0.4091	-0.127
Mof_C 	C 	0.5831	0.952	0.084	0.198
Mof_C 	C 	0.0258	0.947	0.0619	-0.209
Mof_C 	C 	0.8355	0.7718	0.44856	0.071
Mof_C 	C 	0.5391	0.4458	0.6543	-0.208
Mof_C 	C 	0.727	0.65951	0.5937	-0.096
Mof_C 	C 	0.2304	0.3424	0.6008	-0.093
Mof_C 	C 	0.0865	0.0448	0.0844	0.257
Mof_C 	C 	0.4966	0.4038	0.5686	0.119
Mof_C 	C 	0.0258	0.553	0.5619	-0.209
Mof_C 	C 	0.1341	0.0844	0.0921	-0.055
Mof_C 	C 	0.2273	0.4633	0.1023	0.209
Mof_C 	C 	0.1202	0.8948	0.6583	-0.073
Mof_C 	C 	0.7121	0.6364	0.6354	0.008
Mof_C 	C 	0.7797	0.8724	0.6033	-0.183
Mof_C 	C 	0.1015	0.5874	0.0785	-0.067
Mof_C 	C 	0.7231	0.5587	0.0671	-0.212
Mof_C 	C 	0.8621	0.7111	0.7969	-0.132
Mof_C 	C 	0.8621	0.7889	0.2969	-0.132
Mof_C 	C 	0.2894	0.3748	0.1036	-0.186
Mof_N 	N 	0.6723	0.0037	0.6087	-0.258
Mof_N 	N 	0.3923	0.24925	0.48484	-0.252
Mof_N 	N 	0.5842	0.5165	0.6134	-0.249
Mof_N 	N 	0.5842	0.9835	0.1134	-0.249
Mof_N 	N 	0.0946	0.4881	0.6082	-0.273
Mof_N 	N 	0.3896	0.25291	0.73362	-0.248
Mof_N 	N 	0.0946	0.0119	0.1082	-0.273
Mof_N 	N 	0.1912	0.991	0.6008	-0.251
Mof_N 	N 	0.8903	0.74823	0.72482	-0.255
Mof_N 	N 	0.3923	0.25075	0.98484	-0.252
Mof_N 	N 	0.1912	0.509	0.1008	-0.251
Mof_N 	N 	0.8868	0.752	0.47586	-0.247
Mof_N 	N 	0.3896	0.24709	0.23362	-0.248
Mof_N 	N 	0.6723	0.4963	0.1087	-0.258
Mof_N 	N 	0.8868	0.748	0.97586	-0.247
Mof_N 	N 	0.8903	0.75177	0.22482	-0.255
Mof_O 	O 	0.191	0.5235	0.1812	-0.196
Mof_O 	O 	0.9674	0.70642	0.06689	-0.468
Mof_O 	O 	0.0366	0.0466	0.0498	-0.227
Mof_O 	O 	0.9768	0.78753	0.64552	-0.468
Mof_O 	O 	0.6932	0.0209	0.6859	-0.235
Mof_O 	O 	0.8269	0.68867	0.0581	-0.462
Mof_O 	O 	0.305	0.28854	0.56738	-0.461
Mof_O 	O 	0.9472	0.68811	0.64193	-0.478
Mof_O 	O 	0.4707	0.21064	0.65687	-0.47
Mof_O 	O 	0.3313	0.30476	0.14299	-0.467
Mof_O 	O 	0.8269	0.81133	0.5581	-0.462
Mof_O 	O 	0.3313	0.19524	0.64299	-0.467
Mof_O 	O 	0.4782	0.21316	0.57873	-0.461
Mof_O 	O 	0.305	0.21146	0.06738	-0.461
Mof_O 	O 	0.9417	0.80786	0.06318	-0.478
Mof_O 	O 	0.8016	0.71098	0.55702	-0.464
Mof_O 	O 	0.3407	0.31164	0.06481	-0.468
Mof_O 	O 	0.4432	0.18774	0.0695	-0.467
Mof_O 	O 	0.4432	0.31226	0.5695	-0.467
Mof_O 	O 	0.5293	0.9494	0.0471	-0.201
Mof_O 	O 	0.3068	0.2948	0.64656	-0.46
Mof_O 	O 	0.9674	0.79358	0.56689	-0.468
Mof_O 	O 	0.8084	0.7915	0.13624	-0.471
Mof_O 	O 	0.0366	0.4534	0.5498	-0.227
Mof_O 	O 	0.8016	0.78902	0.05702	-0.464
Mof_O 	O 	0.3407	0.18836	0.56481	-0.468
Mof_O 	O 	0.5293	0.5506	0.5471	-0.201
Mof_O 	O 	0.838	0.69299	0.1372	-0.481
Mof_O 	O 	0.8084	0.7085	0.63624	-0.471
Mof_O 	O 	0.191	0.9765	0.6812	-0.196
Mof_O 	O 	0.9417	0.69214	0.56318	-0.478
Mof_O 	O 	0.4782	0.28684	0.07873	-0.461
Mof_O 	O 	0.4475	0.31204	0.64934	-0.462
Mof_O 	O 	0.3068	0.2052	0.14656	-0.46
Mof_O 	O 	0.9472	0.81189	0.14193	-0.478
Mof_O 	O 	0.6932	0.4791	0.1859	-0.235
Mof_O 	O 	0.4707	0.28936	0.15687	-0.47
Mof_O 	O 	0.838	0.80701	0.6372	-0.481
Mof_O 	O 	0.4475	0.18796	0.14934	-0.462
Mof_O 	O 	0.9768	0.71247	0.14552	-0.468
Mof_Zn	Zn	0.60996	0.74642	0.33869	1.217
Mof_Zn	Zn	0.60811	0.74935	0.44292	1.215
Mof_Zn	Zn	0.11523	0.24817	0.45166	1.216
Mof_Zn	Zn	0.10663	0.25258	0.34691	1.22
Mof_Zn	Zn	0.10663	0.24742	0.84691	1.22
Mof_Zn	Zn	0.11523	0.25183	0.95166	1.216
Mof_Zn	Zn	0.60811	0.75065	0.94292	1.215
Mof_Zn	Zn	0.60996	0.75358	0.83869	1.217
Mof_H 	H 	0.8718	0.5132	0.3693	0.137
Mof_H 	H 	0.5254	0.7883	0.019	0.004
Mof_H 	H 	0.2017	0.2854	0.0367	0.01
Mof_H 	H 	0.0272	0.2835	0.526	0.005
Mof_H 	H 	0.0677	0.1873	0.1827	0.08
Mof_H 	H 	0.3463	0.0848	0.8385	0.044
Mof_H 	H 	0.0677	0.3127	0.6827	0.08
Mof_H 	H 	0.2653	0.3548	0.3348	0.043
Mof_H 	H 	0.7936	0.8354	0.9704	0.049
Mof_H 	H 	0.691	0.7112	0.0268	0.008
Mof_H 	H 	0.1573	0.1846	0.6881	0.078
Mof_H 	H 	0.1573	0.3154	0.1881	0.078
Mof_H 	H 	0.8441	0.5797	0.335	0.041
Mof_H 	H 	0.2305	0.3873	0.9676	0.009
Mof_H 	H 	0.712	0.7495	0.1808	0.084
Mof_H 	H 	0.1552	0.1861	0.77	-0
Mof_H 	H 	0.928	0.0518	0.8247	0.115
Mof_H 	H 	0.7374	0.5304	0.9623	0.104
Mof_H 	H 	0.8891	0.4317	0.9481	0.048
Mof_H 	H 	0.5172	0.611	0.461	0.015
Mof_H 	H 	0.1552	0.3139	0.27	-0
Mof_H 	H 	0.5225	0.7109	0.6007	0.079
Mof_H 	H 	0.6937	0.7905	0.6087	0.082
Mof_H 	H 	0.2017	0.2146	0.5367	0.01
Mof_H 	H 	0.3895	0.4782	0.3604	0.129
Mof_H 	H 	0.406	0.5757	0.7979	0.071
Mof_H 	H 	0.7442	0.6311	0.8304	0.002
Mof_H 	H 	0.2206	0.3722	0.8247	0.005
Mof_H 	H 	0.8174	0.0202	0.4283	0.125
Mof_H 	H 	0.2206	0.1278	0.3247	0.005
Mof_H 	H 	0.4464	0.9602	0.8161	0.105
Mof_H 	H 	0.0242	0.2864	0.6074	0.077
Mof_H 	H 	0.9731	0.0345	0.9664	0.137
Mof_H 	H 	0.8743	0.6035	0.4779	0.058
Mof_H 	H 	0.019	0.3856	0.4692	0.007
Mof_H 	H 	0.5062	0.7484	0.1714	0.075
Mof_H 	H 	0.9264	0.1641	0.3192	0.038
Mof_H 	H 	0.2927	0.4583	0.9609	0.097
Mof_H 	H 	0.3002	0.1642	0.9773	0.044
Mof_H 	H 	0.5104	0.7527	0.754	0.004
Mof_H 	H 	0.7374	0.9696	0.4623	0.103
Mof_H 	H 	0.019	0.1144	0.9692	0.007
Mof_H 	H 	0.5062	0.7516	0.6714	0.075
Mof_H 	H 	0.7102	0.747	0.2633	0.003
Mof_H 	H 	0.3622	0.9137	0.4359	0.05
Mof_H 	H 	0.3895	0.0218	0.8604	0.129
Mof_H 	H 	0.3463	0.4152	0.3385	0.044
Mof_H 	H 	0.7664	0.8586	0.8284	0.047
Mof_H 	H 	0.8441	0.9203	0.835	0.041
Mof_H 	H 	0.406	0.9243	0.2979	0.071
Mof_H 	H 	0.0728	0.3123	0.7654	-0.002
Mof_H 	H 	0.7969	0.9447	0.3305	0.124
Mof_H 	H 	0.8743	0.8965	0.9779	0.058
Mof_H 	H 	0.691	0.7888	0.5268	0.008
Mof_H 	H 	0.8577	0.0982	0.3112	0.074
Mof_H 	H 	0.4728	0.5334	0.4602	0.132
Mof_H 	H 	0.928	0.4482	0.3247	0.115
Mof_H 	H 	0.2927	0.0417	0.4609	0.097
Mof_H 	H 	0.3484	0.9869	0.4185	0.129
Mof_H 	H 	0.4726	0.6409	0.8074	0.037
Mof_H 	H 	0.4952	0.8854	0.8176	0.008
Mof_H 	H 	0.4285	0.6556	0.9437	0.036
Mof_H 	H 	0.9664	0.3649	0.958	0.039
Mof_H 	H 	0.7969	0.5553	0.8305	0.124
Mof_H 	H 	0.2305	0.1127	0.4676	0.009
Mof_H 	H 	0.5172	0.889	0.961	0.015
Mof_H 	H 	0.3818	0.1046	0.9803	0.065
Mof_H 	H 	0.3002	0.3358	0.4773	0.044
Mof_H 	H 	0.0728	0.1877	0.2654	-0.002
Mof_H 	H 	0.5254	0.7117	0.519	0.004
Mof_H 	H 	0.9731	0.4655	0.4664	0.137
Mof_H 	H 	0.4726	0.8591	0.3074	0.037
Mof_H 	H 	0.9664	0.1351	0.458	0.038
Mof_H 	H 	0.5104	0.7473	0.254	0.004
Mof_H 	H 	0.8577	0.4018	0.8112	0.074
Mof_H 	H 	0.278	0.4442	0.818	0.125
Mof_H 	H 	0.7936	0.6646	0.4704	0.049
Mof_H 	H 	0.2002	0.2875	0.1198	0.079
Mof_H 	H 	0.6868	0.8951	0.4616	0
Mof_H 	H 	0.6868	0.6049	0.9616	0
Mof_H 	H 	0.0272	0.2165	0.026	0.005
Mof_H 	H 	0.712	0.7505	0.6808	0.084
Mof_H 	H 	0.0242	0.2136	0.1074	0.077
Mof_H 	H 	0.8718	0.9868	0.8693	0.137
Mof_H 	H 	0.7442	0.8689	0.3304	0.002
Mof_H 	H 	0.4285	0.8444	0.4437	0.036
Mof_H 	H 	0.9264	0.3359	0.8192	0.038
Mof_H 	H 	0.7102	0.753	0.7633	0.003
Mof_H 	H 	0.8174	0.4798	0.9283	0.125
Mof_H 	H 	0.3818	0.3954	0.4803	0.065
Mof_H 	H 	0.5225	0.7891	0.1007	0.079
Mof_H 	H 	0.9923	0.1194	0.8283	-0.001
Mof_H 	H 	0.6937	0.7095	0.1087	0.082
Mof_H 	H 	0.3484	0.5131	0.9185	0.129
Mof_H 	H 	0.4728	0.9666	0.9602	0.132
Mof_H 	H 	0.3622	0.5863	0.9359	0.05
Mof_H 	H 	0.9923	0.3806	0.3283	-0.001
Mof_H 	H 	0.4464	0.5398	0.3161	0.105
Mof_H 	H 	0.4952	0.6146	0.3176	0.008
Mof_H 	H 	0.7664	0.6414	0.3284	0.047
Mof_H 	H 	0.2002	0.2125	0.6198	0.079
Mof_H 	H 	0.8891	0.0683	0.4481	0.048
Mof_H 	H 	0.278	0.0558	0.318	0.125
Mof_H 	H 	0.2653	0.1452	0.8348	0.043
Mof_C 	C 	0.111	0.2515	0.12281	0.051
Mof_C 	C 	0.7156	0.80556	0.89474	0.388
Mof_C 	C 	0.2203	0.1276	0.3967	-0.183
Mof_C 	C 	0.7397	0.5507	0.9354	-0.232
Mof_C 	C 	0.1645	0.2282	0.55144	0.071
Mof_C 	C 	0.0036	0.1004	0.9396	0.14
Mof_C 	C 	0.6699	0.7488	0.19511	-0.129
Mof_C 	C 	0.273	0.34049	0.4063	-0.096
Mof_C 	C 	0.4571	0.8448	0.3763	-0.114
Mof_C 	C 	0.9742	0.053	0.9381	-0.209
Mof_C 	C 	0.357	0.1119	0.9509	-0.053
Mof_C 	C 	0.2685	0.4325	0.8486	-0.207
Mof_C 	C 	0.7106	0.6252	0.8964	-0.186
Mof_C 	C 	0.6582	0.7741	0.5909	-0.127
Mof_C 	C 	0.0036	0.3996	0.4396	0.14
Mof_C 	C 	0.2769	0.4413	0.9329	-0.212
Mof_C 	C 	0.6561	0.7729	0.54213	0.084
Mof_C 	C 	0.7397	0.9493	0.4354	-0.232
Mof_C 	C 	0.5577	0.7273	0.58636	-0.128
Mof_C 	C 	0.0426	0.1717	0.8978	0.445
Mof_C 	C 	0.7696	0.8424	0.8992	-0.093
Mof_C 	C 	0.273	0.15951	0.9063	-0.097
Mof_C 	C 	0.6561	0.7271	0.04213	0.084
Mof_C 	C 	0.5034	0.5962	0.4314	0.119
Mof_C 	C 	0.3782	0.9249	0.3654	-0.006
Mof_C 	C 	0.8034	0.6468	0.443	0.003
Mof_C 	C 	0.1821	0.17314	0.4012	0.422
Mof_C 	C 	0.5489	0.7484	0.1897	-0.124
Mof_C 	C 	0.4757	0.5504	0.4311	-0.201
Mof_C 	C 	0.9565	0.3444	0.8891	-0.116
Mof_C 	C 	0.1379	0.2889	0.2031	-0.132
Mof_C 	C 	0.4897	0.5985	0.3468	0.123
Mof_C 	C 	0.4609	0.9458	0.8457	-0.208
Mof_C 	C 	0.608	0.751	0.61408	0.059
Mof_C 	C 	0.088	0.215	0.2494	0.089
Mof_C 	C 	0.8516	0.8896	0.9477	-0.036
Mof_C 	C 	0.1645	0.2718	0.05144	0.071
Mof_C 	C 	0.063	0.2311	0.0454	0.08
Mof_C 	C 	0.0088	0.376	0.3991	-0.211
Mof_C 	C 	0.4492	0.87	0.3337	0.035
Mof_C 	C 	0.8659	0.9156	0.9079	-0.055
Mof_C 	C 	0.1109	0.251	0.17588	0.068
Mof_C 	C 	0.1379	0.2111	0.7031	-0.132
Mof_C 	C 	0.3089	0.1476	0.949	0.014
Mof_C 	C 	0.8798	0.3948	0.8417	-0.072
Mof_C 	C 	0.8034	0.8532	0.943	0.003
Mof_C 	C 	0.9844	0.3966	0.3572	0.159
Mof_C 	C 	0.4528	0.5302	0.3884	0.195
Mof_C 	C 	0.7094	0.5949	0.9346	0.134
Mof_C 	C 	0.8692	0.4226	0.8773	-0.008
Mof_C 	C 	0.2203	0.3724	0.8967	-0.183
Mof_C 	C 	0.4571	0.6552	0.8763	-0.114
Mof_C 	C 	0.9215	0.3556	0.8462	0.033
Mof_C 	C 	0.5599	0.7718	0.0378	0.081
Mof_C 	C 	0.4241	0.8611	0.4142	0.029
Mof_C 	C 	0.7727	0.5367	0.8977	0.209
Mof_C 	C 	0.0604	0.2704	0.5938	-0.123
Mof_C 	C 	0.336	0.3996	0.3671	-0.049
Mof_C 	C 	0.5034	0.9038	0.9314	0.119
Mof_C 	C 	0.2408	0.1016	0.4371	0.115
Mof_C 	C 	0.9135	0.5448	0.4156	0.257
Mof_C 	C 	0.1641	0.2726	0.10096	-0.114
Mof_C 	C 	0.9742	0.447	0.4381	-0.209
Mof_C 	C 	0.6765	0.67308	0.89648	0.414
Mof_C 	C 	0.8985	0.0874	0.4215	-0.067
Mof_C 	C 	0.289	0.4584	0.8899	0.202
Mof_C 	C 	0.6092	0.7509	0.66731	0.058
Mof_C 	C 	0.0078	0.3053	0.8926	0.412
Mof_C 	C 	0.7696	0.6576	0.3992	-0.093
Mof_C 	C 	0.7156	0.69444	0.39474	0.388
Mof_C 	C 	0.9135	0.9552	0.9156	0.257
Mof_C 	C 	0.3693	0.0866	0.9095	-0.03
Mof_C 	C 	0.9447	0.372	0.9275	0.024
Mof_C 	C 	0.743	0.6107	0.8574	0.119
Mof_C 	C 	0.4108	0.5915	0.8278	-0.077
Mof_C 	C 	0.088	0.285	0.7494	0.089
Mof_C 	C 	0.5424	0.6689	0.3904	0.409
Mof_C 	C 	0.289	0.0416	0.3899	0.202
Mof_C 	C 	0.8985	0.4126	0.9215	-0.067
Mof_C 	C 	0.5577	0.7727	0.08636	-0.128
Mof_C 	C 	0.7727	0.9633	0.3977	0.209
Mof_C 	C 	0.2165	0.19596	0.90404	0.394
Mof_C 	C 	0.4757	0.9496	0.9311	-0.201
Mof_C 	C 	0.3845	0.5982	0.9096	-0.073
Mof_C 	C 	0.8289	0.0341	0.3688	0.184
Mof_C 	C 	0.3319	0.529	0.855	0.23
Mof_C 	C 	0.4241	0.6389	0.9142	0.029
Mof_C 	C 	0.3845	0.9018	0.4096	-0.073
Mof_C 	C 	0.0863	0.2859	0.6997	-0.137
Mof_C 	C 	0.4169	0.048	0.916	0.198
Mof_C 	C 	0.5519	0.7476	0.2389	0.076
Mof_C 	C 	0.1109	0.249	0.67588	0.068
Mof_C 	C 	0.4609	0.5542	0.3457	-0.208
Mof_C 	C 	0.9844	0.1034	0.8572	0.159
Mof_C 	C 	0.2344	0.3898	0.8526	0.122
Mof_C 	C 	0.336	0.1004	0.8671	-0.049
Mof_C 	C 	0.4528	0.9698	0.8884	0.195
Mof_C 	C 	0.111	0.2485	0.62281	0.051
Mof_C 	C 	0.9447	0.128	0.4275	0.025
Mof_C 	C 	0.2344	0.1102	0.3526	0.122
Mof_C 	C 	0.0863	0.2141	0.1997	-0.137
Mof_C 	C 	0.0088	0.124	0.8991	-0.211
Mof_C 	C 	0.8692	0.0774	0.3773	-0.008
Mof_C 	C 	0.2685	0.0675	0.3486	-0.207
Mof_C 	C 	0.7746	0.9343	0.3575	-0.208
Mof_C 	C 	0.8516	0.6104	0.4477	-0.036
Mof_C 	C 	0.787	0.867	0.8589	0.003
Mof_C 	C 	0.2879	0.1364	0.8646	0.008
Mof_C 	C 	0.1364	0.2122	0.7519	0.082
Mof_C 	C 	0.608	0.749	0.11408	0.059
Mof_C 	C 	0.9501	0.0622	0.8542	-0.237
Mof_C 	C 	0.2769	0.0587	0.4329	-0.212
Mof_C 	C 	0.1641	0.2274	0.60096	-0.115
Mof_C 	C 	0.5057	0.8033	0.3805	0.403
Mof_C 	C 	0.8289	0.4659	0.8688	0.184
Mof_C 	C 	0.5519	0.7524	0.7389	0.076
Mof_C 	C 	0.0604	0.2296	0.0938	-0.123
Mof_C 	C 	0.4169	0.452	0.416	0.198
Mof_C 	C 	0.7094	0.9051	0.4346	0.134
Mof_C 	C 	0.0426	0.3283	0.3978	0.445
Mof_C 	C 	0.9565	0.1556	0.3891	-0.116
Mof_C 	C 	0.7746	0.5657	0.8575	-0.208
Mof_C 	C 	0.5057	0.6967	0.8805	0.403
Mof_C 	C 	0.948	0.0355	0.8951	0.206
Mof_C 	C 	0.1821	0.32686	0.9012	0.422
Mof_C 	C 	0.6765	0.82692	0.39648	0.414
Mof_C 	C 	0.6092	0.7491	0.16731	0.058
Mof_C 	C 	0.2408	0.3984	0.9371	0.115
Mof_C 	C 	0.743	0.8893	0.3574	0.119
Mof_C 	C 	0.6582	0.7259	0.0909	-0.127
Mof_C 	C 	0.8335	0.5967	0.3627	-0.04
Mof_C 	C 	0.5424	0.8311	0.8904	0.409
Mof_C 	C 	0.5109	0.6203	0.3894	-0.175
Mof_C 	C 	0.4108	0.9085	0.3278	-0.077
Mof_C 	C 	0.948	0.4645	0.3951	0.206
Mof_C 	C 	0.3089	0.3524	0.449	0.014
Mof_C 	C 	0.063	0.2689	0.5454	0.08
Mof_C 	C 	0.6682	0.7524	0.74428	0.079
Mof_C 	C 	0.8335	0.9033	0.8627	-0.04
Mof_C 	C 	0.787	0.633	0.3589	0.003
Mof_C 	C 	0.5109	0.8797	0.8894	-0.175
Mof_C 	C 	0.0078	0.1947	0.3926	0.413
Mof_C 	C 	0.3319	0.971	0.355	0.23
Mof_C 	C 	0.8798	0.1052	0.3417	-0.073
Mof_C 	C 	0.7106	0.8748	0.3964	-0.186
Mof_C 	C 	0.5599	0.7282	0.5378	0.081
Mof_C 	C 	0.3782	0.5751	0.8654	-0.006
Mof_C 	C 	0.6682	0.7476	0.24428	0.079
Mof_C 	C 	0.1364	0.2878	0.2519	0.082
Mof_C 	C 	0.4897	0.9015	0.8468	0.123
Mof_C 	C 	0.9501	0.4378	0.3542	-0.237
Mof_C 	C 	0.4492	0.63	0.8337	0.035
Mof_C 	C 	0.5489	0.7516	0.6897	-0.124
Mof_C 	C 	0.9215	0.1444	0.3462	0.033
Mof_C 	C 	0.6699	0.7512	0.69511	-0.129
Mof_C 	C 	0.2879	0.3636	0.3646	0.008
Mof_C 	C 	0.2165	0.30404	0.40404	0.394
Mof_C 	C 	0.357	0.3881	0.4509	-0.053
Mof_C 	C 	0.8659	0.5844	0.4079	-0.055
Mof_C 	C 	0.3693	0.4134	0.4095	-0.03
Mof_N 	N 	0.9054	0.5119	0.3918	-0.273
Mof_N 	N 	0.8088	0.491	0.8992	-0.251
Mof_N 	N 	0.3277	0.5037	0.8913	-0.258
Mof_N 	N 	0.4158	0.0165	0.8866	-0.249
Mof_N 	N 	0.6077	0.75075	0.51516	-0.252
Mof_N 	N 	0.9054	0.9881	0.8918	-0.273
Mof_N 	N 	0.1097	0.25177	0.27518	-0.255
Mof_N 	N 	0.8088	0.009	0.3992	-0.251
Mof_N 	N 	0.3277	0.9963	0.3913	-0.258
Mof_N 	N 	0.1132	0.248	0.52414	-0.247
Mof_N 	N 	0.6104	0.74709	0.26638	-0.248
Mof_N 	N 	0.6077	0.74925	0.01516	-0.252
Mof_N 	N 	0.1097	0.24823	0.77518	-0.255
Mof_N 	N 	0.6104	0.75291	0.76638	-0.248
Mof_N 	N 	0.4158	0.4835	0.3866	-0.249
Mof_N 	N 	0.1132	0.252	0.02414	-0.247
Mof_O 	O 	0.0232	0.21247	0.35448	-0.468
Mof_O 	O 	0.5218	0.78684	0.42127	-0.461
Mof_O 	O 	0.5293	0.78936	0.34313	-0.47
Mof_O 	O 	0.162	0.30701	0.8628	-0.481
Mof_O 	O 	0.0232	0.28753	0.85448	-0.468
Mof_O 	O 	0.0528	0.18811	0.85807	-0.478
Mof_O 	O 	0.1731	0.31133	0.9419	-0.462
Mof_O 	O 	0.3068	0.9791	0.3141	-0.235
Mof_O 	O 	0.6687	0.80476	0.35701	-0.467
Mof_O 	O 	0.3068	0.5209	0.8141	-0.235
Mof_O 	O 	0.9634	0.9534	0.9502	-0.227
Mof_O 	O 	0.809	0.4765	0.8188	-0.196
Mof_O 	O 	0.5568	0.81226	0.9305	-0.467
Mof_O 	O 	0.0326	0.29358	0.93311	-0.468
Mof_O 	O 	0.695	0.71146	0.43262	-0.461
Mof_O 	O 	0.0528	0.31189	0.35807	-0.478
Mof_O 	O 	0.6687	0.69524	0.85701	-0.467
Mof_O 	O 	0.9634	0.5466	0.4502	-0.227
Mof_O 	O 	0.1731	0.18867	0.4419	-0.462
Mof_O 	O 	0.6932	0.7052	0.35344	-0.46
Mof_O 	O 	0.695	0.78854	0.93262	-0.461
Mof_O 	O 	0.5525	0.81204	0.85066	-0.462
Mof_O 	O 	0.6593	0.81164	0.43519	-0.468
Mof_O 	O 	0.5525	0.68796	0.35066	-0.462
Mof_O 	O 	0.5293	0.71064	0.84313	-0.47
Mof_O 	O 	0.5568	0.68774	0.4305	-0.467
Mof_O 	O 	0.162	0.19299	0.3628	-0.481
Mof_O 	O 	0.5218	0.71316	0.92127	-0.461
Mof_O 	O 	0.0583	0.19214	0.93682	-0.478
Mof_O 	O 	0.6932	0.7948	0.85344	-0.46
Mof_O 	O 	0.1916	0.2085	0.86376	-0.471
Mof_O 	O 	0.0326	0.20642	0.43311	-0.468
Mof_O 	O 	0.0583	0.30786	0.43682	-0.478
Mof_O 	O 	0.1984	0.28902	0.44298	-0.464
Mof_O 	O 	0.4707	0.4494	0.4529	-0.201
Mof_O 	O 	0.1916	0.2915	0.36376	-0.471
Mof_O 	O 	0.6593	0.68836	0.93519	-0.468
Mof_O 	O 	0.4707	0.0506	0.9529	-0.201
Mof_O 	O 	0.809	0.0235	0.3188	-0.196
Mof_O 	O 	0.1984	0.21098	0.94298	-0.464
_end
