data_functionalizedCrystal
_audit_creation_method	'EQeq! by Chris Wilmer'
_symmetry_space_group_name_H-M	'P1'
_symmetry_Int_Tables_number	1
_symmetry_cell_setting	triclinic
loop_
_symmetry_equiv_pos_as_xyz
  x,y,z
_cell_length_a	10.043
_cell_length_b	10.043
_cell_length_c	13.828
_cell_angle_alpha	90
_cell_angle_beta	90
_cell_angle_gamma	90
loop_
_atom_site_label
_atom_site_type_symbol
_atom_site_fract_x
_atom_site_fract_y
_atom_site_fract_z
_atom_site_charge
Mof_O 	O 	0.0601	0.2366	0.757	-1.004
Mof_O 	O 	0.1636	0.9893	0.0761	-0.739
Mof_O 	O 	0.4399	0.2634	0.757	-0.965
Mof_O 	O 	0.3364	0.5107	0.0761	-1.159
Mof_O 	O 	0.2634	0.0601	0.257	-1.019
Mof_O 	O 	0.5107	0.1636	0.5761	-1.135
Mof_O 	O 	0.2366	0.4399	0.257	-1.026
Mof_O 	O 	0.9893	0.3364	0.5761	-0.99
Mof_O 	O 	0.9399	0.7366	0.743	-1.062
Mof_O 	O 	0.8364	0.4893	0.4239	-1.118
Mof_O 	O 	0.5601	0.7634	0.743	-1.041
Mof_O 	O 	0.6636	0.0107	0.4239	-1.254
Mof_O 	O 	0.7366	0.5601	0.243	-1.084
Mof_O 	O 	0.4893	0.6636	0.9239	-0.935
Mof_O 	O 	0.7634	0.9399	0.243	-1.031
Mof_O 	O 	0.0107	0.8364	0.9239	-0.805
Mof_O 	O 	0.9399	0.7634	0.243	-1.031
Mof_O 	O 	0.8364	0.0107	0.9239	-0.805
Mof_O 	O 	0.5601	0.7366	0.243	-1.084
Mof_O 	O 	0.6636	0.4893	0.9239	-0.935
Mof_O 	O 	0.7366	0.9399	0.743	-1.062
Mof_O 	O 	0.4893	0.8364	0.4239	-1.118
Mof_O 	O 	0.7634	0.5601	0.743	-1.041
Mof_O 	O 	0.0107	0.6636	0.4239	-1.254
Mof_O 	O 	0.0601	0.2634	0.257	-1.019
Mof_O 	O 	0.1636	0.5107	0.5761	-1.135
Mof_O 	O 	0.4399	0.2366	0.257	-1.026
Mof_O 	O 	0.3364	0.9893	0.5761	-0.99
Mof_O 	O 	0.2634	0.4399	0.757	-0.965
Mof_O 	O 	0.5107	0.3364	0.0761	-1.159
Mof_O 	O 	0.2366	0.0601	0.757	-1.003
Mof_O 	O 	0.9893	0.1636	0.0761	-0.738
Mof_Ga	Ga	-0	0	-0	0.881
Mof_Ga	Ga	0.5	0.5	-0	2.507
Mof_Ga	Ga	0.5	0	0.5	3.012
Mof_Ga	Ga	-6.46846e-33	0.5	0.5	3.012
Mof_Ga	Ga	0.8764	0.8764	0.82208	4.627
Mof_P 	P 	0.0976	0.0976	0.7917	0.757
Mof_O 	O 	0.0999	0.0999	0.9043	-0.388
Mof_O 	O 	0.9967	0.9967	0.7555	-0.76
Mof_Ga	Ga	0.6236	0.6236	0.82208	4.223
Mof_P 	P 	0.4024	0.4024	0.7917	1.009
Mof_O 	O 	0.4001	0.4001	0.9043	-0.584
Mof_O 	O 	0.5033	0.5033	0.7555	-0.959
Mof_Ga	Ga	0.6236	0.8764	0.32208	4.388
Mof_P 	P 	0.4024	0.0976	0.2917	0.918
Mof_O 	O 	0.4001	0.0999	0.4043	-0.822
Mof_O 	O 	0.5033	0.9967	0.2555	-0.881
Mof_Ga	Ga	0.8764	0.6236	0.32208	4.388
Mof_P 	P 	0.0976	0.4024	0.2917	0.918
Mof_O 	O 	0.0999	0.4001	0.4043	-0.822
Mof_O 	O 	0.9967	0.5033	0.2555	-0.881
Mof_Ga	Ga	0.1236	0.3764	0.67792	3.918
Mof_P 	P 	0.9024	0.5976	0.7083	1.169
Mof_O 	O 	0.9001	0.5999	0.5957	-0.729
Mof_O 	O 	0.0033	0.4967	0.7445	-1.041
Mof_Ga	Ga	0.3764	0.1236	0.67792	3.918
Mof_P 	P 	0.5976	0.9024	0.7083	1.169
Mof_O 	O 	0.5999	0.9001	0.5957	-0.729
Mof_O 	O 	0.4967	0.0033	0.7445	-1.041
Mof_Ga	Ga	0.3764	0.3764	0.17792	4.13
Mof_P 	P 	0.5976	0.5976	0.2083	1.052
Mof_O 	O 	0.5999	0.5999	0.0957	-0.784
Mof_O 	O 	0.4967	0.4967	0.2445	-0.965
Mof_Ga	Ga	0.1236	0.1236	0.17792	3.688
Mof_P 	P 	0.9024	0.9024	0.2083	1.214
Mof_O 	O 	0.9001	0.9001	0.0957	-0.429
Mof_O 	O 	0.0033	0.0033	0.2445	-1.153
Mof_F 	F 	0.75	0.75	0.8872	-1.278
Mof_F 	F 	0.75	0.75	0.3872	-1.312
Mof_F 	F 	0.25	0.25	0.6128	-1.279
Mof_F 	F 	0.25	0.25	0.1128	-1.329
_end
