data_functionalizedCrystal
_audit_creation_method	'EQeq! by Chris Wilmer'
_symmetry_space_group_name_H-M	'P1'
_symmetry_Int_Tables_number	1
_symmetry_cell_setting	triclinic
loop_
_symmetry_equiv_pos_as_xyz
  x,y,z
_cell_length_a	15.1316
_cell_length_b	24.7369
_cell_length_c	15.3613
_cell_angle_alpha	90
_cell_angle_beta	110.847
_cell_angle_gamma	90
loop_
_atom_site_label
_atom_site_type_symbol
_atom_site_fract_x
_atom_site_fract_y
_atom_site_fract_z
_atom_site_charge
Mof_Co	Co	0.89788	0.52065	0.11014	1.12
Mof_N 	N 	0.9426	0.5213	0.2625	-0.245
Mof_O 	O 	0.0395	0.5091	0.1222	-0.367
Mof_N 	N 	0.7478	0.5145	0.0717	-0.256
Mof_N 	N 	0.8984	0.606	0.1116	-0.253
Mof_O 	O 	0.1187	0.4841	0.0297	-0.372
Mof_C 	C 	0.0238	0.4714	0.4001	-0.147
Mof_H 	H 	0.0608	0.4418	0.4281	0.077
Mof_C 	C 	0.9928	0.5058	0.4512	0.063
Mof_C 	C 	0.0441	0.4983	0.0436	0.192
Mof_C 	C 	0.5957	0.521	0.9584	-0.168
Mof_H 	H 	0.5601	0.5297	0.897	0.084
Mof_C 	C 	0.5519	0.5019	0.015	0.064
Mof_C 	C 	0.0011	0.4802	0.31	0.078
Mof_H 	H 	0.0261	0.4573	0.2767	-0.015
Mof_C 	C 	0.903	0.722	0.116	0.056
Mof_C 	C 	0.7106	0.4979	0.1347	0.056
Mof_H 	H 	0.7479	0.4917	0.1967	-0.016
Mof_C 	C 	0.9376	0.549	0.4078	-0.141
Mof_H 	H 	0.913	0.5723	0.441	0.073
Mof_C 	C 	0.6876	0.5274	0.9889	0.114
Mof_H 	H 	0.7129	0.5426	0.9475	-0.012
Mof_C 	C 	0.9188	0.5575	0.3109	0.083
Mof_H 	H 	0.8894	0.5892	0.2825	-0.013
Mof_C 	C 	0.6116	0.4904	0.1014	-0.132
Mof_H 	H 	0.5854	0.4763	0.1428	0.07
Mof_C 	C 	0.975	0.6326	0.1465	0.081
Mof_H 	H 	0.0308	0.6129	0.1703	-0.007
Mof_C 	C 	0.9827	0.6911	0.1523	-0.142
Mof_H 	H 	0.0414	0.7074	0.1805	0.078
Mof_C 	C 	0.8217	0.6919	0.0813	-0.141
Mof_H 	H 	0.7639	0.7098	0.059	0.074
Mof_C 	C 	0.8222	0.6357	0.078	0.087
Mof_H 	H 	0.7647	0.6181	0.0502	-0.016
Mof_Co	Co	0.10212	0.02065	0.88986	1.118
Mof_N 	N 	0.0574	0.0213	0.7375	-0.246
Mof_O 	O 	0.9605	0.0091	0.8778	-0.368
Mof_N 	N 	0.2522	0.0145	0.9283	-0.258
Mof_N 	N 	0.1016	0.106	0.8884	-0.253
Mof_O 	O 	0.8813	0.9841	0.9703	-0.372
Mof_C 	C 	0.9762	0.9714	0.5999	-0.148
Mof_H 	H 	0.9392	0.9418	0.5719	0.076
Mof_C 	C 	0.0072	0.0058	0.5488	0.061
Mof_C 	C 	0.9559	0.9983	0.9564	0.19
Mof_C 	C 	0.4043	0.021	0.0416	-0.166
Mof_H 	H 	0.4399	0.0297	0.103	0.084
Mof_C 	C 	0.4481	0.0019	0.985	0.062
Mof_C 	C 	0.9989	0.9802	0.69	0.078
Mof_H 	H 	0.9739	0.9573	0.7233	-0.015
Mof_C 	C 	0.097	0.222	0.884	0.056
Mof_C 	C 	0.2894	0.9979	0.8653	0.057
Mof_H 	H 	0.2521	0.9917	0.8033	-0.016
Mof_C 	C 	0.0624	0.049	0.5922	-0.141
Mof_H 	H 	0.087	0.0723	0.559	0.073
Mof_C 	C 	0.3124	0.0274	0.0111	0.114
Mof_H 	H 	0.2871	0.0426	0.0525	-0.012
Mof_C 	C 	0.0812	0.0575	0.6891	0.083
Mof_H 	H 	0.1106	0.0892	0.7175	-0.013
Mof_C 	C 	0.3884	0.9904	0.8986	-0.13
Mof_H 	H 	0.4146	0.9763	0.8572	0.07
Mof_C 	C 	0.025	0.1326	0.8535	0.08
Mof_H 	H 	0.9692	0.1129	0.8297	-0.006
Mof_C 	C 	0.0173	0.1911	0.8477	-0.142
Mof_H 	H 	0.9586	0.2074	0.8195	0.078
Mof_C 	C 	0.1783	0.1919	0.9187	-0.141
Mof_H 	H 	0.2361	0.2098	0.941	0.074
Mof_C 	C 	0.1778	0.1357	0.922	0.087
Mof_H 	H 	0.2353	0.1181	0.9498	-0.016
Mof_Co	Co	0.10212	0.47935	0.88986	1.119
Mof_N 	N 	0.0574	0.4787	0.7375	-0.246
Mof_O 	O 	0.9605	0.4909	0.8778	-0.368
Mof_N 	N 	0.2522	0.4855	0.9283	-0.257
Mof_N 	N 	0.1016	0.394	0.8884	-0.254
Mof_O 	O 	0.8813	0.5159	0.9703	-0.373
Mof_C 	C 	0.9762	0.5286	0.5999	-0.148
Mof_H 	H 	0.9392	0.5582	0.5719	0.076
Mof_C 	C 	0.0072	0.4942	0.5488	0.062
Mof_C 	C 	0.9559	0.5017	0.9564	0.191
Mof_C 	C 	0.4043	0.479	0.0416	-0.168
Mof_H 	H 	0.4399	0.4703	0.103	0.084
Mof_C 	C 	0.4481	0.4981	0.985	0.064
Mof_C 	C 	0.9989	0.5198	0.69	0.078
Mof_H 	H 	0.9739	0.5427	0.7233	-0.015
Mof_C 	C 	0.097	0.278	0.884	0.056
Mof_C 	C 	0.2894	0.5021	0.8653	0.056
Mof_H 	H 	0.2521	0.5083	0.8033	-0.016
Mof_C 	C 	0.0624	0.451	0.5922	-0.141
Mof_H 	H 	0.087	0.4277	0.559	0.073
Mof_C 	C 	0.3124	0.4726	0.0111	0.114
Mof_H 	H 	0.2871	0.4574	0.0525	-0.012
Mof_C 	C 	0.0812	0.4425	0.6891	0.083
Mof_H 	H 	0.1106	0.4108	0.7175	-0.013
Mof_C 	C 	0.3884	0.5096	0.8986	-0.132
Mof_H 	H 	0.4146	0.5237	0.8572	0.07
Mof_C 	C 	0.025	0.3674	0.8535	0.081
Mof_H 	H 	0.9692	0.3871	0.8297	-0.007
Mof_C 	C 	0.0173	0.3089	0.8477	-0.142
Mof_H 	H 	0.9586	0.2926	0.8195	0.078
Mof_C 	C 	0.1783	0.3081	0.9187	-0.141
Mof_H 	H 	0.2361	0.2902	0.941	0.074
Mof_C 	C 	0.1778	0.3643	0.922	0.087
Mof_H 	H 	0.2353	0.3819	0.9498	-0.016
Mof_Co	Co	0.89788	0.97935	0.11014	1.118
Mof_N 	N 	0.9426	0.9787	0.2625	-0.246
Mof_O 	O 	0.0395	0.9909	0.1222	-0.368
Mof_N 	N 	0.7478	0.9855	0.0717	-0.258
Mof_N 	N 	0.8984	0.894	0.1116	-0.253
Mof_O 	O 	0.1187	0.0159	0.0297	-0.372
Mof_C 	C 	0.0238	0.0286	0.4001	-0.148
Mof_H 	H 	0.0608	0.0582	0.4281	0.076
Mof_C 	C 	0.9928	0.9942	0.4512	0.061
Mof_C 	C 	0.0441	0.0017	0.0436	0.19
Mof_C 	C 	0.5957	0.979	0.9584	-0.166
Mof_H 	H 	0.5601	0.9703	0.897	0.084
Mof_C 	C 	0.5519	0.9981	0.015	0.062
Mof_C 	C 	0.0011	0.0198	0.31	0.078
Mof_H 	H 	0.0261	0.0427	0.2767	-0.015
Mof_C 	C 	0.903	0.778	0.116	0.056
Mof_C 	C 	0.7106	0.0021	0.1347	0.057
Mof_H 	H 	0.7479	0.0083	0.1967	-0.016
Mof_C 	C 	0.9376	0.951	0.4078	-0.141
Mof_H 	H 	0.913	0.9277	0.441	0.073
Mof_C 	C 	0.6876	0.9726	0.9889	0.114
Mof_H 	H 	0.7129	0.9574	0.9475	-0.012
Mof_C 	C 	0.9188	0.9425	0.3109	0.083
Mof_H 	H 	0.8894	0.9108	0.2825	-0.013
Mof_C 	C 	0.6116	0.0096	0.1014	-0.13
Mof_H 	H 	0.5854	0.0237	0.1428	0.07
Mof_C 	C 	0.975	0.8674	0.1465	0.08
Mof_H 	H 	0.0308	0.8871	0.1703	-0.006
Mof_C 	C 	0.9827	0.8089	0.1523	-0.142
Mof_H 	H 	0.0414	0.7926	0.1805	0.078
Mof_C 	C 	0.8217	0.8081	0.0813	-0.141
Mof_H 	H 	0.7639	0.7902	0.059	0.074
Mof_C 	C 	0.8222	0.8643	0.078	0.087
Mof_H 	H 	0.7647	0.8819	0.0502	-0.016
_end
