data_functionalizedCrystal
_audit_creation_method	'EQeq! by Chris Wilmer'
_symmetry_space_group_name_H-M	'P1'
_symmetry_Int_Tables_number	1
_symmetry_cell_setting	triclinic
loop_
_symmetry_equiv_pos_as_xyz
  x,y,z
_cell_length_a	24.9778
_cell_length_b	24.9778
_cell_length_c	24.9778
_cell_angle_alpha	60
_cell_angle_beta	60
_cell_angle_gamma	60
loop_
_atom_site_label
_atom_site_type_symbol
_atom_site_fract_x
_atom_site_fract_y
_atom_site_fract_z
_atom_site_charge
Mof_Zr	Zr	0.88373	0.52235	0.52235	3.251
Mof_Zr	Zr	0.97765	0.47765	0.92843	3.252
Mof_Zr	Zr	0.02235	0.07157	0.38373	3.246
Mof_Zr	Zr	0.42843	0.47765	0.61627	3.25
Mof_Zr	Zr	0.42843	0.61627	0.47765	3.25
Mof_Zr	Zr	0.42843	0.47765	0.47765	3.25
Mof_Zr	Zr	0.02235	0.38373	0.07157	3.246
Mof_Zr	Zr	0.97765	0.47765	0.61627	3.253
Mof_Zr	Zr	0.88373	0.52235	0.07157	3.251
Mof_Zr	Zr	0.57157	0.38373	0.52235	3.25
Mof_Zr	Zr	0.97765	0.61627	0.92843	3.252
Mof_Zr	Zr	0.88373	0.07157	0.52235	3.251
Mof_Zr	Zr	0.97765	0.61627	0.47765	3.253
Mof_Zr	Zr	0.02235	0.52235	0.07157	3.246
Mof_Zr	Zr	0.02235	0.52235	0.38373	3.248
Mof_Zr	Zr	0.57157	0.52235	0.38373	3.25
Mof_Zr	Zr	0.97765	0.92843	0.61627	3.252
Mof_Zr	Zr	0.11627	0.47765	0.47765	3.25
Mof_Zr	Zr	0.11627	0.92843	0.47765	3.25
Mof_Zr	Zr	0.11627	0.47765	0.92843	3.25
Mof_Zr	Zr	0.57157	0.52235	0.52235	3.25
Mof_Zr	Zr	0.02235	0.07157	0.52235	3.246
Mof_Zr	Zr	0.02235	0.38373	0.52235	3.248
Mof_Zr	Zr	0.97765	0.92843	0.47765	3.252
Mof_H 	H 	0.0754	0.741	0.4426	0.027
Mof_H 	H 	0.9246	0.259	0.259	0.038
Mof_H 	H 	0.759	0.259	0.5574	0.03
Mof_H 	H 	0.9246	0.5574	0.259	0.036
Mof_H 	H 	0.9426	0.5754	0.741	0.032
Mof_H 	H 	0.0574	0.259	0.259	0.025
Mof_H 	H 	0.0754	0.4426	0.741	0.027
Mof_H 	H 	0.9426	0.741	0.741	0.031
Mof_H 	H 	0.9246	0.259	0.5574	0.036
Mof_H 	H 	0.0754	0.741	0.741	0.029
Mof_H 	H 	0.241	0.4426	0.741	0.029
Mof_H 	H 	0.241	0.4426	0.5754	0.029
Mof_H 	H 	0.241	0.741	0.4426	0.029
Mof_H 	H 	0.241	0.741	0.5754	0.029
Mof_H 	H 	0.0574	0.259	0.4246	0.026
Mof_H 	H 	0.9426	0.741	0.5754	0.032
Mof_H 	H 	0.759	0.5574	0.4246	0.03
Mof_H 	H 	0.241	0.5754	0.4426	0.029
Mof_H 	H 	0.0574	0.4246	0.259	0.026
Mof_H 	H 	0.241	0.5754	0.741	0.029
Mof_H 	H 	0.759	0.4246	0.259	0.03
Mof_H 	H 	0.759	0.259	0.4246	0.03
Mof_H 	H 	0.759	0.4246	0.5574	0.03
Mof_H 	H 	0.759	0.5574	0.259	0.03
Mof_C 	C 	0.9421	0.65372	0.65372	-0.201
Mof_C 	C 	0.15372	0.75046	0.4421	-0.207
Mof_C 	C 	0.21812	0.62126	0.71812	0.105
Mof_C 	C 	0.21812	0.71812	0.4425	0.105
Mof_C 	C 	0.84628	0.24954	0.5579	-0.2
Mof_C 	C 	0.68276	0.5528	0.38222	0.43
Mof_C 	C 	0.9425	0.71812	0.71812	0.105
Mof_C 	C 	0.31724	0.4472	0.61778	0.431
Mof_C 	C 	0.0575	0.28188	0.37874	0.105
Mof_C 	C 	0.78188	0.37874	0.28188	0.102
Mof_C 	C 	0.84628	0.24954	0.34628	-0.199
Mof_C 	C 	0.11778	0.4472	0.61778	0.431
Mof_C 	C 	0.87874	0.28188	0.5575	0.102
Mof_C 	C 	0.88222	0.5528	0.18276	0.427
Mof_C 	C 	0.84628	0.34628	0.5579	-0.2
Mof_C 	C 	0.11778	0.81724	0.61778	0.431
Mof_C 	C 	0.21812	0.4425	0.62126	0.105
Mof_C 	C 	0.25046	0.65372	0.65372	-0.205
Mof_C 	C 	0.9425	0.71812	0.62126	0.104
Mof_C 	C 	0.0528	0.38222	0.38222	0.431
Mof_C 	C 	0.15372	0.65372	0.4421	-0.207
Mof_C 	C 	0.15372	0.4421	0.65372	-0.207
Mof_C 	C 	0.0575	0.37874	0.28188	0.105
Mof_C 	C 	0.31724	0.61778	0.4472	0.431
Mof_C 	C 	0.78188	0.37874	0.5575	0.103
Mof_C 	C 	0.0528	0.18276	0.38222	0.43
Mof_C 	C 	0.84628	0.34628	0.24954	-0.199
Mof_C 	C 	0.78188	0.5575	0.28188	0.102
Mof_C 	C 	0.21812	0.71812	0.62126	0.105
Mof_C 	C 	0.15372	0.75046	0.65372	-0.205
Mof_C 	C 	0.78188	0.5575	0.37874	0.103
Mof_C 	C 	0.11778	0.61778	0.81724	0.431
Mof_C 	C 	0.0579	0.34628	0.24954	-0.21
Mof_C 	C 	0.74954	0.34628	0.34628	-0.203
Mof_C 	C 	0.11778	0.61778	0.4472	0.431
Mof_C 	C 	0.78188	0.28188	0.37874	0.102
Mof_C 	C 	0.9421	0.65372	0.75046	-0.202
Mof_C 	C 	0.21812	0.62126	0.4425	0.105
Mof_C 	C 	0.11778	0.81724	0.4472	0.432
Mof_C 	C 	0.88222	0.38222	0.18276	0.426
Mof_C 	C 	0.88222	0.18276	0.5528	0.427
Mof_C 	C 	0.88222	0.38222	0.5528	0.429
Mof_C 	C 	0.15372	0.65372	0.75046	-0.205
Mof_C 	C 	0.0528	0.38222	0.18276	0.43
Mof_C 	C 	0.84628	0.5579	0.24954	-0.2
Mof_C 	C 	0.9472	0.61778	0.61778	0.43
Mof_C 	C 	0.21812	0.4425	0.71812	0.105
Mof_C 	C 	0.84628	0.5579	0.34628	-0.2
Mof_C 	C 	0.9425	0.62126	0.71812	0.104
Mof_C 	C 	0.15372	0.4421	0.75046	-0.207
Mof_C 	C 	0.9472	0.81724	0.61778	0.431
Mof_C 	C 	0.74954	0.5579	0.34628	-0.203
Mof_C 	C 	0.9421	0.75046	0.65372	-0.202
Mof_C 	C 	0.12126	0.4425	0.71812	0.105
Mof_C 	C 	0.11778	0.4472	0.81724	0.432
Mof_C 	C 	0.0579	0.24954	0.34628	-0.21
Mof_C 	C 	0.25046	0.65372	0.4421	-0.206
Mof_C 	C 	0.25046	0.4421	0.65372	-0.206
Mof_C 	C 	0.78188	0.28188	0.5575	0.102
Mof_C 	C 	0.0579	0.34628	0.34628	-0.21
Mof_C 	C 	0.12126	0.71812	0.4425	0.105
Mof_C 	C 	0.0575	0.28188	0.28188	0.104
Mof_C 	C 	0.68276	0.38222	0.38222	0.43
Mof_C 	C 	0.68276	0.38222	0.5528	0.43
Mof_C 	C 	0.9472	0.61778	0.81724	0.431
Mof_C 	C 	0.31724	0.61778	0.61778	0.431
Mof_C 	C 	0.12126	0.71812	0.71812	0.105
Mof_C 	C 	0.88222	0.18276	0.38222	0.426
Mof_C 	C 	0.87874	0.28188	0.28188	0.101
Mof_C 	C 	0.88222	0.5528	0.38222	0.429
Mof_C 	C 	0.87874	0.5575	0.28188	0.102
Mof_C 	C 	0.74954	0.34628	0.5579	-0.203
Mof_S 	S 	0.1898	0.3102	-0	0.203
Mof_S 	S 	0.5507	0.2571	0.5961	0.314
Mof_S 	S 	0.8102	0.6898	0.5	0.24
Mof_S 	S 	0.8102	0.5	0.6898	0.24
Mof_S 	S 	0.0961	0.0507	0.2571	0.284
Mof_S 	S 	0.9039	0.9493	0.7429	0.33
Mof_S 	S 	0.9039	0.7429	0.4039	0.316
Mof_S 	S 	0.7571	0.0507	0.5961	0.3
Mof_S 	S 	0.2429	0.9493	0.4039	0.348
Mof_S 	S 	0.5	0.6898	0.3102	0.24
Mof_S 	S 	2.06344e-17	2.06344e-17	0.3102	0.172
Mof_S 	S 	0.9039	0.4039	0.7429	0.316
Mof_S 	S 	0.5	0.5	0.3102	0.238
Mof_S 	S 	0.8102	2.06344e-17	0.5	0.22
Mof_S 	S 	0.9039	0.9493	0.4039	0.333
Mof_S 	S 	0.1898	0.5	0.3102	0.24
Mof_S 	S 	0.8102	4.12689e-17	0.6898	0.223
Mof_S 	S 	0.8102	0.6898	-0	0.223
Mof_S 	S 	-0	0.3102	-0	0.172
Mof_S 	S 	0.1898	0.5	-0	0.205
Mof_S 	S 	0.5	0.3102	0.6898	0.24
Mof_S 	S 	0.4493	0.7429	0.4039	0.314
Mof_S 	S 	-6.19033e-17	0.6898	0.3102	0.221
Mof_S 	S 	0.1898	2.06344e-17	0.3102	0.203
Mof_S 	S 	0.1898	2.06344e-17	0.5	0.205
Mof_S 	S 	0.7571	0.5961	0.0507	0.3
Mof_S 	S 	0.5	0.3102	0.5	0.238
Mof_S 	S 	0.4493	0.4039	0.7429	0.314
Mof_S 	S 	0.5507	0.5961	0.5961	0.315
Mof_S 	S 	0.9039	0.4039	0.9493	0.333
Mof_S 	S 	0.2429	0.4039	0.9493	0.348
Mof_S 	S 	0.7571	0.5961	0.5961	0.313
Mof_S 	S 	0.1898	0.3102	0.5	0.24
Mof_S 	S 	0.0961	0.2571	0.5961	0.314
Mof_S 	S 	0.5	0.5	0.6898	0.242
Mof_S 	S 	2.06344e-17	4.12689e-17	0.6898	0.188
Mof_S 	S 	0.0961	0.5961	0.2571	0.314
Mof_S 	S 	0.5	0.6898	0.5	0.242
Mof_S 	S 	0.0961	0.5961	0.0507	0.287
Mof_S 	S 	0.4493	0.4039	0.4039	0.314
Mof_S 	S 	0.0961	0.2571	0.0507	0.284
Mof_S 	S 	0.8102	0.5	-0	0.22
Mof_S 	S 	0.2429	0.4039	0.4039	0.315
Mof_S 	S 	0.5507	0.5961	0.2571	0.314
Mof_S 	S 	0.0961	0.0507	0.5961	0.287
Mof_S 	S 	-2.06344e-17	0.3102	0.6898	0.221
Mof_S 	S 	0.9039	0.7429	0.9493	0.33
Mof_S 	S 	-4.12689e-17	0.6898	-0	0.188
Mof_O 	O 	0.8954	0.322	0.7102	-0.045
Mof_O 	O 	0.2102	0.3954	0.0724	-0.051
Mof_O 	O 	0.7898	0.6046	0.678	-0.053
Mof_O 	O 	0.879	0.9442	0.6968	-0.206
Mof_O 	O 	0.822	0.3954	0.7102	-0.053
Mof_O 	O 	0.0657	0.5657	0.4049	-0.333
Mof_O 	O 	0.0516	0.971	0.4258	-0.432
Mof_O 	O 	0.1046	0.2898	0.9276	-0.045
Mof_O 	O 	0.4276	0.2898	0.678	-0.053
Mof_O 	O 	0.4111	0.8083	0.3903	-0.145
Mof_O 	O 	0.7632	0.6316	0.6316	-0.117
Mof_O 	O 	0.1178	0.2996	0.0672	-0.263
Mof_O 	O 	0.7996	0.6178	0.0672	-0.266
Mof_O 	O 	0.8822	0.7004	0.4846	-0.268
Mof_O 	O 	0.7898	0.678	0.9276	-0.049
Mof_O 	O 	0.2368	0.3684	0.0264	-0.135
Mof_O 	O 	0.7996	0.0672	0.5154	-0.266
Mof_O 	O 	0.1046	0.678	0.9276	-0.042
Mof_O 	O 	0.05861	0.84293	0.44975	-0.81
Mof_O 	O 	0.9049	0.9637	0.5657	-0.248
Mof_O 	O 	0.0154	0.0672	0.2996	-0.261
Mof_O 	O 	0.65707	0.55025	0.35129	-0.807
Mof_O 	O 	0.3881	0.5373	0.5373	8.309
Mof_O 	O 	0.5363	0.5951	0.4343	-0.297
Mof_O 	O 	0.471	0.5516	0.4258	-0.486
Mof_O 	O 	0.471	0.4258	0.5516	-0.486
Mof_O 	O 	0.5363	0.4343	0.4343	-0.299
Mof_O 	O 	0.5558	0.3032	0.52	-0.206
Mof_O 	O 	0.94139	0.35129	0.15707	-0.794
Mof_O 	O 	0.5363	0.4343	0.5951	-0.297
Mof_O 	O 	0.879	0.9442	0.48	-0.206
Mof_O 	O 	0.1097	0.0889	0.1917	-0.153
Mof_O 	O 	0.4276	0.678	0.6046	-0.051
Mof_O 	O 	0.8684	0.0264	0.3684	-0.124
Mof_O 	O 	0.7996	0.0672	0.6178	-0.266
Mof_O 	O 	0.94975	0.55861	0.64871	-0.803
Mof_O 	O 	0.7996	0.5154	0.6178	-0.268
Mof_O 	O 	0.0154	0.2996	0.6178	-0.265
Mof_O 	O 	0.8684	0.3684	0.7368	-0.116
Mof_O 	O 	0.4736	0.6316	0.2632	-0.117
Mof_O 	O 	0.9343	0.0363	0.4343	-0.273
Mof_O 	O 	0.9049	0.5657	0.9637	-0.248
Mof_O 	O 	0.05025	0.35129	0.44139	-0.812
Mof_O 	O 	0.5889	0.6097	0.6097	-0.146
Mof_O 	O 	0.1097	0.1917	0.6097	-0.152
Mof_O 	O 	0.121	0.3032	0.0558	-0.206
Mof_O 	O 	0.65707	0.44139	0.35129	-0.807
Mof_O 	O 	0.8903	0.8083	0.9111	-0.142
Mof_O 	O 	0.1097	0.6097	0.1917	-0.152
Mof_O 	O 	0.0282	0.9154	0.5282	-9.648
Mof_O 	O 	0.98	0.9442	0.6968	-0.203
Mof_O 	O 	0.4276	0.2898	0.6046	-0.054
Mof_O 	O 	0.8903	0.9111	0.3903	-0.143
Mof_O 	O 	0.2004	0.9328	0.3822	-0.251
Mof_O 	O 	0.4442	0.48	0.6968	-0.205
Mof_O 	O 	0.3083	0.3903	0.9111	-0.149
Mof_O 	O 	0.5724	0.7102	0.3954	-0.052
Mof_O 	O 	0.1316	0.9736	0.2632	-0.092
Mof_O 	O 	0.4328	0.3822	0.7004	-0.267
Mof_O 	O 	0.8822	0.4846	0.7004	-0.268
Mof_O 	O 	0.2368	0.0264	0.3684	-0.135
Mof_O 	O 	0.9484	0.4484	0.029	-0.507
Mof_O 	O 	0.05025	0.35129	0.15707	-0.817
Mof_O 	O 	0.0373	0.5373	0.8881	8.291
Mof_O 	O 	0.9627	0.4627	0.1119	8.429
Mof_O 	O 	0.9343	0.5951	0.0363	-0.268
Mof_O 	O 	0.879	0.48	0.6968	-0.205
Mof_O 	O 	0.1316	0.2632	0.6316	-0.117
Mof_O 	O 	0.7632	0.6316	0.9736	-0.105
Mof_O 	O 	0.8032	0.52	0.0558	-0.205
Mof_O 	O 	0.9846	0.9328	0.3822	-0.244
Mof_O 	O 	0.94139	0.15707	0.55025	-0.796
Mof_O 	O 	0.4637	0.5657	0.4049	-0.299
Mof_O 	O 	0.1178	0.2996	0.5154	-0.266
Mof_O 	O 	0.1046	0.9276	0.678	-0.042
Mof_O 	O 	0.8903	0.3903	0.9111	-0.143
Mof_O 	O 	0.2102	0.0724	0.3954	-0.051
Mof_O 	O 	0.9343	0.4343	0.5951	-0.26
Mof_O 	O 	0.9627	0.4627	0.4627	8.274
Mof_O 	O 	0.2004	0.4846	0.9328	-0.251
Mof_O 	O 	0.94139	0.55025	0.35129	-0.796
Mof_O 	O 	0.0516	0.4258	0.5516	-0.457
Mof_O 	O 	0.0657	0.9637	0.4049	-0.341
Mof_O 	O 	0.9258	0.971	0.5516	-0.527
Mof_O 	O 	0.8822	0.4846	0.9328	-0.26
Mof_O 	O 	0.5558	0.3032	0.621	-0.205
Mof_O 	O 	0.9343	0.4343	0.0363	-0.273
Mof_O 	O 	0.65707	0.35129	0.44139	-0.807
Mof_O 	O 	0.1968	0.9442	0.48	-0.207
Mof_O 	O 	0.121	0.3032	0.52	-0.206
Mof_O 	O 	0.4328	0.7004	0.3822	-0.267
Mof_O 	O 	0.2004	0.3822	0.9328	-0.251
Mof_O 	O 	0.34293	0.55861	0.64871	-0.807
Mof_O 	O 	0.94975	0.64871	0.84293	-0.804
Mof_O 	O 	0.8954	0.7102	0.322	-0.045
Mof_O 	O 	0.34293	0.64871	0.44975	-0.807
Mof_O 	O 	0.8032	0.621	0.52	-0.205
Mof_O 	O 	0.8822	0.9328	0.7004	-0.261
Mof_O 	O 	0.178	0.9276	0.6046	-0.044
Mof_O 	O 	0.4154	0.5282	0.5282	-9.662
Mof_O 	O 	0.8903	0.8083	0.3903	-0.142
Mof_O 	O 	0.5724	0.322	0.3954	-0.054
Mof_O 	O 	0.1046	0.9276	0.2898	-0.045
Mof_O 	O 	0.822	0.3954	0.0724	-0.054
Mof_O 	O 	0.5724	0.322	0.7102	-0.053
Mof_O 	O 	0.8903	0.9111	0.8083	-0.142
Mof_O 	O 	0.1316	0.6316	0.9736	-0.092
Mof_O 	O 	0.0742	0.4484	0.029	-0.375
Mof_O 	O 	0.8684	0.0264	0.7368	-0.123
Mof_O 	O 	0.4442	0.379	0.6968	-0.205
Mof_O 	O 	0.9846	0.3822	0.9328	-0.244
Mof_O 	O 	0.05861	0.44975	0.84293	-0.81
Mof_O 	O 	0.5558	0.621	0.3032	-0.205
Mof_O 	O 	0.9484	0.5742	0.4484	-0.518
Mof_O 	O 	0.4442	0.379	0.48	-0.206
Mof_O 	O 	0.879	0.6968	0.9442	-0.206
Mof_O 	O 	0.0516	0.5516	0.971	-0.439
Mof_O 	O 	0.14871	0.84293	0.44975	-0.807
Mof_O 	O 	0.5889	0.6097	0.1917	-0.149
Mof_O 	O 	0.5264	0.3684	0.3684	-0.118
Mof_O 	O 	0.5889	0.1917	0.6097	-0.149
Mof_O 	O 	0.85129	0.44139	0.15707	-0.807
Mof_O 	O 	0.2368	0.3684	0.3684	-0.117
Mof_O 	O 	0.1968	0.48	0.9442	-0.207
Mof_O 	O 	0.3083	0.3903	0.3903	-0.15
Mof_O 	O 	0.5672	0.5154	0.2996	-0.267
Mof_O 	O 	0.9846	0.9328	0.7004	-0.25
Mof_O 	O 	0.02	0.621	0.3032	-0.211
Mof_O 	O 	0.5846	0.4718	0.4718	-9.666
Mof_O 	O 	0.822	0.7102	0.0724	-0.052
Mof_O 	O 	0.5264	0.3684	0.7368	-0.116
Mof_O 	O 	0.1316	0.9736	0.6316	-0.092
Mof_O 	O 	0.0742	0.029	0.4484	-0.375
Mof_O 	O 	0.9718	0.0846	0.4718	-9.773
Mof_O 	O 	0.9484	0.5742	0.029	-0.513
Mof_O 	O 	0.8032	0.0558	0.52	-0.205
Mof_O 	O 	0.822	0.0724	0.7102	-0.052
Mof_O 	O 	0.9484	0.029	0.4484	-0.507
Mof_O 	O 	0.0657	0.9637	0.5657	-0.333
Mof_O 	O 	0.05025	0.44139	0.15707	-0.816
Mof_O 	O 	0.8954	0.0724	0.7102	-0.042
Mof_O 	O 	0.98	0.9442	0.379	-0.201
Mof_O 	O 	0.1178	0.5154	0.0672	-0.263
Mof_O 	O 	0.4442	0.48	0.379	-0.206
Mof_O 	O 	0.94975	0.84293	0.55861	-0.803
Mof_O 	O 	0.9846	0.7004	0.3822	-0.258
Mof_O 	O 	0.0154	0.2996	0.0672	-0.261
Mof_O 	O 	0.0657	0.4049	0.5657	-0.333
Mof_O 	O 	0.14871	0.55861	0.84293	-0.806
Mof_O 	O 	0.7898	0.6046	0.9276	-0.049
Mof_O 	O 	0.1968	0.379	0.48	-0.206
Mof_O 	O 	0.34293	0.44975	0.55861	-0.807
Mof_O 	O 	0.1046	0.2898	0.678	-0.054
Mof_O 	O 	0.5558	0.52	0.3032	-0.206
Mof_O 	O 	0.4442	0.6968	0.379	-0.205
Mof_O 	O 	0.8032	0.621	0.0558	-0.205
Mof_O 	O 	0.98	0.6968	0.379	-0.199
Mof_O 	O 	0.05025	0.15707	0.35129	-0.817
Mof_O 	O 	0.2102	0.0724	0.322	-0.051
Mof_O 	O 	0.0154	0.0672	0.6178	-0.263
Mof_O 	O 	0.94139	0.55025	0.15707	-0.796
Mof_O 	O 	0.05861	0.84293	0.64871	-0.807
Mof_O 	O 	0.178	0.6046	0.2898	-0.054
Mof_O 	O 	0.05025	0.15707	0.44139	-0.816
Mof_O 	O 	0.1046	0.678	0.2898	-0.054
Mof_O 	O 	0.178	0.2898	0.9276	-0.046
Mof_O 	O 	0.1968	0.9442	0.379	-0.207
Mof_O 	O 	0.65707	0.44139	0.55025	-0.807
Mof_O 	O 	0.8684	0.7368	0.3684	-0.116
Mof_O 	O 	0.9718	0.4718	0.0846	-9.773
Mof_O 	O 	0.7996	0.5154	0.0672	-0.266
Mof_O 	O 	0.0742	0.4484	0.4484	-0.415
Mof_O 	O 	0.9718	0.4718	0.4718	-9.614
Mof_O 	O 	0.8954	0.7102	0.0724	-0.042
Mof_O 	O 	0.9343	0.5951	0.4343	-0.26
Mof_O 	O 	0.121	0.0558	0.3032	-0.206
Mof_O 	O 	0.94975	0.64871	0.55861	-0.803
Mof_O 	O 	0.0373	0.5373	0.5373	8.352
Mof_O 	O 	0.5672	0.6178	0.5154	-0.267
Mof_O 	O 	0.4276	0.6046	0.2898	-0.054
Mof_O 	O 	0.1178	0.5154	0.2996	-0.266
Mof_O 	O 	0.7898	0.678	0.6046	-0.053
Mof_O 	O 	0.02	0.0558	0.621	-0.211
Mof_O 	O 	0.4111	0.3903	0.3903	-0.149
Mof_O 	O 	0.05861	0.64871	0.44975	-0.813
Mof_O 	O 	0.4736	0.2632	0.6316	-0.117
Mof_O 	O 	0.02	0.621	0.0558	-0.211
Mof_O 	O 	0.9846	0.3822	0.7004	-0.258
Mof_O 	O 	0.822	0.7102	0.3954	-0.053
Mof_O 	O 	0.6917	0.6097	0.0889	-0.147
Mof_O 	O 	0.94975	0.55861	0.84293	-0.803
Mof_O 	O 	0.94139	0.15707	0.35129	-0.794
Mof_O 	O 	0.85129	0.15707	0.44139	-0.807
Mof_O 	O 	0.0657	0.5657	0.9637	-0.333
Mof_O 	O 	0.94975	0.84293	0.64871	-0.804
Mof_O 	O 	0.05025	0.44139	0.35129	-0.812
Mof_O 	O 	0.85129	0.15707	0.55025	-0.808
Mof_O 	O 	0.1178	0.0672	0.2996	-0.263
Mof_O 	O 	0.8032	0.52	0.621	-0.205
Mof_O 	O 	0.02	0.3032	0.0558	-0.214
Mof_O 	O 	0.4276	0.678	0.2898	-0.053
Mof_O 	O 	0.1178	0.0672	0.5154	-0.263
Mof_O 	O 	0.0282	0.5282	0.5282	-9.713
Mof_O 	O 	0.2004	0.4846	0.3822	-0.266
Mof_O 	O 	0.178	0.6046	0.9276	-0.044
Mof_O 	O 	0.0657	0.4049	0.9637	-0.341
Mof_O 	O 	0.879	0.48	0.9442	-0.206
Mof_O 	O 	0.9484	0.029	0.5742	-0.513
Mof_O 	O 	0.2004	0.9328	0.4846	-0.251
Mof_O 	O 	0.5724	0.3954	0.7102	-0.052
Mof_O 	O 	0.4328	0.4846	0.3822	-0.267
Mof_O 	O 	0.1316	0.6316	0.2632	-0.117
Mof_O 	O 	0.2102	0.322	0.3954	-0.053
Mof_O 	O 	0.6917	0.0889	0.6097	-0.147
Mof_O 	O 	0.5264	0.7368	0.3684	-0.116
Mof_O 	O 	0.3083	0.9111	0.3903	-0.149
Mof_O 	O 	0.0951	0.0363	0.4343	-0.429
Mof_O 	O 	0.14871	0.55861	0.44975	-0.808
Mof_O 	O 	0.1968	0.48	0.379	-0.206
Mof_O 	O 	0.0154	0.6178	0.0672	-0.263
Mof_O 	O 	0.8032	0.0558	0.621	-0.205
Mof_O 	O 	0.98	0.6968	0.9442	-0.203
Mof_O 	O 	0.121	0.52	0.3032	-0.206
Mof_O 	O 	0.8822	0.7004	0.9328	-0.261
Mof_O 	O 	0.178	0.9276	0.2898	-0.046
Mof_O 	O 	0.5724	0.3954	0.322	-0.054
Mof_O 	O 	0.85129	0.55025	0.15707	-0.808
Mof_O 	O 	0.85129	0.44139	0.55025	-0.805
Mof_O 	O 	0.98	0.379	0.9442	-0.201
Mof_O 	O 	0.7996	0.6178	0.5154	-0.268
Mof_O 	O 	0.5672	0.6178	0.2996	-0.267
Mof_O 	O 	0.4328	0.7004	0.4846	-0.267
Mof_O 	O 	0.0951	0.4343	0.4343	-0.375
Mof_O 	O 	0.34293	0.64871	0.55861	-0.807
Mof_O 	O 	0.34293	0.55861	0.44975	-0.807
Mof_O 	O 	0.7632	0.9736	0.6316	-0.105
Mof_O 	O 	0.65707	0.35129	0.55025	-0.807
Mof_O 	O 	0.34293	0.44975	0.64871	-0.807
Mof_O 	O 	0.6917	0.6097	0.6097	-0.145
Mof_O 	O 	0.1097	0.0889	0.6097	-0.147
Mof_O 	O 	0.2102	0.322	0.0724	-0.051
Mof_O 	O 	0.879	0.6968	0.48	-0.205
Mof_O 	O 	0.5672	0.2996	0.5154	-0.267
Mof_O 	O 	0.02	0.3032	0.621	-0.211
Mof_O 	O 	0.85129	0.55025	0.44139	-0.805
Mof_O 	O 	0.1968	0.379	0.9442	-0.207
Mof_O 	O 	0.4111	0.3903	0.8083	-0.145
Mof_O 	O 	0.98	0.379	0.6968	-0.199
Mof_O 	O 	0.8954	0.0724	0.322	-0.04
Mof_O 	O 	0.4442	0.6968	0.48	-0.205
Mof_O 	O 	0.1097	0.6097	0.0889	-0.147
Mof_O 	O 	0.5672	0.5154	0.6178	-0.267
Mof_O 	O 	0.4637	0.4049	0.5657	-0.299
Mof_O 	O 	0.9627	0.1119	0.4627	8.429
Mof_O 	O 	0.8903	0.3903	0.8083	-0.142
Mof_O 	O 	0.4328	0.3822	0.4846	-0.267
Mof_O 	O 	0.9343	0.0363	0.5951	-0.268
Mof_O 	O 	0.0282	0.5282	0.9154	-9.648
Mof_O 	O 	0.02	0.0558	0.3032	-0.214
Mof_O 	O 	0.8684	0.3684	0.0264	-0.124
Mof_O 	O 	0.5724	0.7102	0.322	-0.053
Mof_O 	O 	0.0154	0.6178	0.2996	-0.265
Mof_O 	O 	0.9846	0.7004	0.9328	-0.25
Mof_O 	O 	0.05861	0.44975	0.64871	-0.813
Mof_O 	O 	0.2102	0.3954	0.322	-0.053
Mof_O 	O 	0.14871	0.84293	0.55861	-0.806
Mof_O 	O 	0.529	0.4484	0.4484	-0.487
Mof_O 	O 	0.471	0.5516	0.5516	-0.488
Mof_O 	O 	0.7898	0.9276	0.678	-0.049
Mof_O 	O 	0.05861	0.64871	0.84293	-0.807
Mof_O 	O 	0.121	0.0558	0.52	-0.205
Mof_O 	O 	0.9258	0.5516	0.971	-0.527
Mof_O 	O 	0.178	0.2898	0.6046	-0.054
Mof_O 	O 	0.94139	0.35129	0.55025	-0.796
Mof_O 	O 	0.0516	0.5516	0.4258	-0.457
Mof_O 	O 	0.14871	0.44975	0.84293	-0.807
Mof_O 	O 	0.5672	0.2996	0.6178	-0.267
Mof_O 	O 	0.8954	0.322	0.0724	-0.04
Mof_O 	O 	0.5558	0.52	0.621	-0.205
Mof_O 	O 	0.9258	0.5516	0.5516	-0.565
Mof_O 	O 	0.6119	0.4627	0.4627	8.313
Mof_O 	O 	0.9484	0.4484	0.5742	-0.518
Mof_O 	O 	0.5558	0.621	0.52	-0.205
Mof_O 	O 	0.529	0.5742	0.4484	-0.489
Mof_O 	O 	0.822	0.0724	0.3954	-0.054
Mof_O 	O 	0.4637	0.5657	0.5657	-0.297
Mof_O 	O 	0.1316	0.2632	0.9736	-0.092
Mof_O 	O 	0.4736	0.6316	0.6316	-0.116
Mof_O 	O 	0.8822	0.9328	0.4846	-0.26
Mof_O 	O 	0.0516	0.4258	0.971	-0.432
Mof_O 	O 	0.7898	0.9276	0.6046	-0.049
Mof_O 	O 	0.14871	0.44975	0.55861	-0.808
Mof_O 	O 	0.4276	0.6046	0.678	-0.051
Mof_O 	O 	0.529	0.4484	0.5742	-0.489
Mof_O 	O 	0.1097	0.1917	0.0889	-0.153
Mof_O 	O 	0.2004	0.3822	0.4846	-0.266
Mof_O 	O 	0.8684	0.7368	0.0264	-0.123
Mof_O 	O 	0.0951	0.4343	0.0363	-0.429
Mof_O 	O 	0.0373	0.8881	0.5373	8.291
Mof_O 	O 	0.121	0.52	0.0558	-0.205
Mof_O 	O 	0.0516	0.971	0.5516	-0.439
Mof_O 	O 	0.9049	0.5657	0.5657	-0.216
Mof_O 	O 	0.4328	0.4846	0.7004	-0.267
Mof_O 	O 	0.65707	0.55025	0.44139	-0.807
_end
