data_functionalizedCrystal
_audit_creation_method	'EQeq! by Chris Wilmer'
_symmetry_space_group_name_H-M	'P1'
_symmetry_Int_Tables_number	1
_symmetry_cell_setting	triclinic
loop_
_symmetry_equiv_pos_as_xyz
  x,y,z
_cell_length_a	36.218
_cell_length_b	36.218
_cell_length_c	23.612
_cell_angle_alpha	90
_cell_angle_beta	90
_cell_angle_gamma	120
loop_
_atom_site_label
_atom_site_type_symbol
_atom_site_fract_x
_atom_site_fract_y
_atom_site_fract_z
_atom_site_charge
Mof_In	In	0.63437	0.87228	0.73985	2.9
Mof_Cu	Cu	0.70141	0.87709	0.84568	0.925
Mof_O 	O 	0.66552	0.8418	0.7798	-0.748
Mof_O 	O 	0.5783	0.7696	0.7846	-0.52
Mof_O 	O 	0.5793	0.8163	0.7225	-0.771
Mof_O 	O 	0.685	0.933	0.7521	-0.808
Mof_O 	O 	0.7332	0.9297	0.8033	-0.482
Mof_O 	O 	0.0912	0.3236	0.7875	-0.381
Mof_O 	O 	0.8443	0.147	0.3235	-0.354
Mof_O 	O 	0.065	0.2731	0.8532	-0.803
Mof_O 	O 	0.872	0.2164	0.3388	-0.79
Mof_C 	C 	0.5625	0.7814	0.7517	0.559
Mof_C 	C 	0.513	0.7552	0.7455	-0.228
Mof_C 	C 	0.4922	0.7191	0.7743	0.133
Mof_H 	H 	0.5072	0.7094	0.7958	-0.003
Mof_C 	C 	0.4478	0.6957	0.7721	-0.198
Mof_H 	H 	0.4331	0.6696	0.7907	0.096
Mof_C 	C 	0.4258	0.7114	0.7424	0.122
Mof_C 	C 	0.4483	0.7478	0.7111	-0.218
Mof_H 	H 	0.4338	0.7575	0.6885	0.105
Mof_C 	C 	0.4916	0.7699	0.713	0.155
Mof_H 	H 	0.5067	0.7949	0.6923	-0.024
Mof_C 	C 	0.3784	0.6884	0.7419	-0.021
Mof_C 	C 	0.3557	0.7091	0.7426	-0.048
Mof_H 	H 	0.3712	0.7387	0.7436	0.045
Mof_C 	C 	0.0607	0.2879	0.8089	0.337
Mof_C 	C 	0.0218	0.2654	0.7749	-0.102
Mof_C 	C 	0.0197	0.2704	0.7221	-0.072
Mof_H 	H 	0.0436	0.291	0.7029	0.056
Mof_C 	C 	0.9815	0.245	0.6925	0.107
Mof_H 	H 	0.9788	0.2536	0.6564	-0.015
Mof_C 	C 	0.9549	0.2076	0.7664	-0.126
Mof_H 	H 	0.9339	0.1833	0.7843	0.064
Mof_C 	C 	0.9485	0.209	0.7135	0.032
Mof_C 	C 	0.9854	0.2338	0.8005	0.052
Mof_C 	C 	0.9098	0.1778	0.6828	0.034
Mof_C 	C 	0.9056	0.1835	0.6261	-0.093
Mof_H 	H 	0.9273	0.2071	0.6078	0.057
Mof_C 	C 	0.8692	0.1546	0.5948	0.012
Mof_C 	C 	0.8392	0.1191	0.6235	-0.085
Mof_H 	H 	0.8148	0.0995	0.604	0.057
Mof_C 	C 	0.843	0.1112	0.6775	0.022
Mof_C 	C 	0.8786	0.1423	0.7075	-0.096
Mof_H 	H 	0.8807	0.1382	0.746	0.06
Mof_C 	C 	0.8632	0.1607	0.5326	0.105
Mof_C 	C 	0.8796	0.2024	0.5115	-0.196
Mof_H 	H 	0.8917	0.2261	0.535	0.1
Mof_C 	C 	0.8765	0.2057	0.4525	0.146
Mof_H 	H 	0.8879	0.2329	0.4373	-0.013
Mof_C 	C 	0.8584	0.1727	0.4169	-0.234
Mof_C 	C 	0.8429	0.1336	0.4405	0.139
Mof_H 	H 	0.83	0.1101	0.4167	-0.011
Mof_C 	C 	0.845	0.1264	0.4969	-0.2
Mof_H 	H 	0.8344	0.0989	0.5107	0.098
Mof_C 	C 	0.8602	0.1789	0.3542	0.52
Mof_C 	C 	0.8117	0.0712	0.7049	0.078
Mof_C 	C 	0.7681	0.0526	0.6915	-0.184
Mof_H 	H 	0.7591	0.0666	0.6671	0.09
Mof_C 	C 	0.7394	0.0146	0.7137	0.132
Mof_H 	H 	0.7108	0.0027	0.7041	-0.02
Mof_C 	C 	0.7524	0.9917	0.7529	-0.249
Mof_C 	C 	0.7951	0.0099	0.7663	0.119
Mof_H 	H 	0.8039	0.9955	0.7905	0.001
Mof_C 	C 	0.8257	0.0497	0.744	-0.161
Mof_H 	H 	0.8543	0.0621	0.7542	0.085
Mof_C 	C 	0.7218	0.949	0.7707	0.6
Mof_C 	C 	0.6118	0.878	0.859	0.122
Mof_C 	C 	0.5826	0.8866	0.896	-0.021
Mof_C 	C 	0.5769	0.8813	0.949	0.066
Mof_C 	C 	0.5564	0.9013	0.9807	-0.199
Mof_C 	C 	0.5469	0.9367	0.8918	0.001
Mof_H 	H 	0.5857	0.8645	0.9681	0.016
Mof_H 	H 	0.5526	0.897	0.0196	0.092
Mof_H 	H 	0.5383	0.9537	0.873	0.017
Mof_In	In	0.30104	0.20561	0.07318	2.901
Mof_Cu	Cu	0.36808	0.21042	0.17901	0.926
Mof_O 	O 	0.33219	0.17513	0.11313	-0.747
Mof_O 	O 	0.24497	0.10293	0.11793	-0.519
Mof_O 	O 	0.24597	0.14963	0.05583	-0.77
Mof_O 	O 	0.35167	0.26633	0.08543	-0.807
Mof_O 	O 	0.39987	0.26303	0.13663	-0.481
Mof_O 	O 	0.75787	0.65693	0.12083	-0.38
Mof_O 	O 	0.51097	0.48033	0.65683	-0.353
Mof_O 	O 	0.73167	0.60643	0.18653	-0.802
Mof_O 	O 	0.53867	0.54973	0.67213	-0.789
Mof_C 	C 	0.22917	0.11473	0.08503	0.56
Mof_C 	C 	0.17967	0.08853	0.07883	-0.227
Mof_C 	C 	0.15887	0.05243	0.10763	0.135
Mof_H 	H 	0.17387	0.04273	0.12913	-0.002
Mof_C 	C 	0.11447	0.02903	0.10543	-0.198
Mof_H 	H 	0.09977	0.00293	0.12403	0.097
Mof_C 	C 	0.09247	0.04473	0.07573	0.123
Mof_C 	C 	0.11497	0.08113	0.04443	-0.218
Mof_H 	H 	0.10047	0.09083	0.02183	0.106
Mof_C 	C 	0.15827	0.10323	0.04633	0.156
Mof_H 	H 	0.17337	0.12823	0.02563	-0.024
Mof_C 	C 	0.04507	0.02173	0.07523	-0.023
Mof_C 	C 	0.02237	0.04243	0.07593	-0.046
Mof_H 	H 	0.03787	0.07203	0.07693	0.044
Mof_C 	C 	0.72737	0.62123	0.14223	0.337
Mof_C 	C 	0.68847	0.59873	0.10823	-0.102
Mof_C 	C 	0.68637	0.60373	0.05543	-0.072
Mof_H 	H 	0.71027	0.62433	0.03623	0.056
Mof_C 	C 	0.64817	0.57833	0.02583	0.107
Mof_H 	H 	0.64547	0.58693	0.98973	-0.015
Mof_C 	C 	0.62157	0.54093	0.09973	-0.126
Mof_H 	H 	0.60057	0.51663	0.11763	0.064
Mof_C 	C 	0.61517	0.54233	0.04683	0.032
Mof_C 	C 	0.65207	0.56713	0.13383	0.052
Mof_C 	C 	0.57647	0.51113	0.01613	0.034
Mof_C 	C 	0.57227	0.51683	0.95943	-0.093
Mof_H 	H 	0.59397	0.54043	0.94113	0.057
Mof_C 	C 	0.53587	0.48793	0.92813	0.012
Mof_C 	C 	0.50587	0.45243	0.95683	-0.085
Mof_H 	H 	0.48147	0.43283	0.93733	0.057
Mof_C 	C 	0.50967	0.44453	0.01083	0.022
Mof_C 	C 	0.54527	0.47563	0.04083	-0.096
Mof_H 	H 	0.54737	0.47153	0.07933	0.06
Mof_C 	C 	0.52987	0.49403	0.86593	0.105
Mof_C 	C 	0.54627	0.53573	0.84483	-0.196
Mof_H 	H 	0.55837	0.55943	0.86833	0.1
Mof_C 	C 	0.54317	0.53903	0.78583	0.146
Mof_H 	H 	0.55457	0.56623	0.77063	-0.013
Mof_C 	C 	0.52507	0.50603	0.75023	-0.234
Mof_C 	C 	0.50957	0.46693	0.77383	0.139
Mof_H 	H 	0.49667	0.44343	0.75003	-0.011
Mof_C 	C 	0.51167	0.45973	0.83023	-0.2
Mof_H 	H 	0.50107	0.43223	0.84403	0.098
Mof_C 	C 	0.52687	0.51223	0.68753	0.52
Mof_C 	C 	0.47837	0.40453	0.03823	0.078
Mof_C 	C 	0.43477	0.38593	0.02483	-0.184
Mof_H 	H 	0.42577	0.39993	0.00043	0.089
Mof_C 	C 	0.40607	0.34793	0.04703	0.131
Mof_H 	H 	0.37747	0.33603	0.03743	-0.02
Mof_C 	C 	0.41907	0.32503	0.08623	-0.248
Mof_C 	C 	0.46177	0.34323	0.09963	0.118
Mof_H 	H 	0.47057	0.32883	0.12383	0.001
Mof_C 	C 	0.49237	0.38303	0.07733	-0.16
Mof_H 	H 	0.52097	0.39543	0.08753	0.085
Mof_C 	C 	0.38847	0.28233	0.10403	0.599
Mof_C 	C 	0.27847	0.21133	0.19233	0.122
Mof_C 	C 	0.24927	0.21993	0.22933	-0.021
Mof_C 	C 	0.24357	0.21463	0.28233	0.066
Mof_C 	C 	0.22307	0.23463	0.31403	-0.199
Mof_C 	C 	0.21357	0.27003	0.22513	0.001
Mof_H 	H 	0.25237	0.19783	0.30143	0.016
Mof_H 	H 	0.21927	0.23033	0.35293	0.092
Mof_H 	H 	0.20497	0.28703	0.20633	0.017
Mof_In	In	0.9677	0.53895	0.40652	2.902
Mof_Cu	Cu	0.03474	0.54376	0.51235	0.926
Mof_O 	O 	0.99885	0.50847	0.44647	-0.747
Mof_O 	O 	0.91163	0.43627	0.45127	-0.519
Mof_O 	O 	0.91263	0.48297	0.38917	-0.77
Mof_O 	O 	0.01833	0.59967	0.41877	-0.807
Mof_O 	O 	0.06653	0.59637	0.46997	-0.481
Mof_O 	O 	0.42453	0.99027	0.45417	-0.38
Mof_O 	O 	0.17763	0.81367	0.99017	-0.354
Mof_O 	O 	0.39833	0.93977	0.51987	-0.802
Mof_O 	O 	0.20533	0.88307	0.00547	-0.788
Mof_C 	C 	0.89583	0.44807	0.41837	0.56
Mof_C 	C 	0.84633	0.42187	0.41217	-0.227
Mof_C 	C 	0.82553	0.38577	0.44097	0.134
Mof_H 	H 	0.84053	0.37607	0.46247	-0.002
Mof_C 	C 	0.78113	0.36237	0.43877	-0.197
Mof_H 	H 	0.76643	0.33627	0.45737	0.097
Mof_C 	C 	0.75913	0.37807	0.40907	0.122
Mof_C 	C 	0.78163	0.41447	0.37777	-0.218
Mof_H 	H 	0.76713	0.42417	0.35517	0.105
Mof_C 	C 	0.82493	0.43657	0.37967	0.155
Mof_H 	H 	0.84003	0.46157	0.35897	-0.024
Mof_C 	C 	0.71173	0.35507	0.40857	-0.021
Mof_C 	C 	0.68903	0.37577	0.40927	-0.048
Mof_H 	H 	0.70453	0.40537	0.41027	0.045
Mof_C 	C 	0.39403	0.95457	0.47557	0.337
Mof_C 	C 	0.35513	0.93207	0.44157	-0.101
Mof_C 	C 	0.35303	0.93707	0.38877	-0.072
Mof_H 	H 	0.37693	0.95767	0.36957	0.056
Mof_C 	C 	0.31483	0.91167	0.35917	0.106
Mof_H 	H 	0.31213	0.92027	0.32307	-0.015
Mof_C 	C 	0.28823	0.87427	0.43307	-0.126
Mof_H 	H 	0.26723	0.84997	0.45097	0.064
Mof_C 	C 	0.28183	0.87567	0.38017	0.032
Mof_C 	C 	0.31873	0.90047	0.46717	0.052
Mof_C 	C 	0.24313	0.84447	0.34947	0.035
Mof_C 	C 	0.23893	0.85017	0.29277	-0.093
Mof_H 	H 	0.26063	0.87377	0.27447	0.057
Mof_C 	C 	0.20253	0.82127	0.26147	0.012
Mof_C 	C 	0.17253	0.78577	0.29017	-0.085
Mof_H 	H 	0.14813	0.76617	0.27067	0.057
Mof_C 	C 	0.17633	0.77787	0.34417	0.023
Mof_C 	C 	0.21193	0.80897	0.37417	-0.096
Mof_H 	H 	0.21403	0.80487	0.41267	0.06
Mof_C 	C 	0.19653	0.82737	0.19927	0.105
Mof_C 	C 	0.21293	0.86907	0.17817	-0.196
Mof_H 	H 	0.22503	0.89277	0.20167	0.1
Mof_C 	C 	0.20983	0.87237	0.11917	0.146
Mof_H 	H 	0.22123	0.89957	0.10397	-0.013
Mof_C 	C 	0.19173	0.83937	0.08357	-0.235
Mof_C 	C 	0.17623	0.80027	0.10717	0.139
Mof_H 	H 	0.16333	0.77677	0.08337	-0.011
Mof_C 	C 	0.17833	0.79307	0.16357	-0.2
Mof_H 	H 	0.16773	0.76557	0.17737	0.098
Mof_C 	C 	0.19353	0.84557	0.02087	0.52
Mof_C 	C 	0.14503	0.73787	0.37157	0.078
Mof_C 	C 	0.10143	0.71927	0.35817	-0.183
Mof_H 	H 	0.09243	0.73327	0.33377	0.09
Mof_C 	C 	0.07273	0.68127	0.38037	0.131
Mof_H 	H 	0.04413	0.66937	0.37077	-0.02
Mof_C 	C 	0.08573	0.65837	0.41957	-0.248
Mof_C 	C 	0.12843	0.67657	0.43297	0.118
Mof_H 	H 	0.13723	0.66217	0.45717	0.001
Mof_C 	C 	0.15903	0.71637	0.41067	-0.16
Mof_H 	H 	0.18763	0.72877	0.42087	0.085
Mof_C 	C 	0.05513	0.61567	0.43737	0.6
Mof_C 	C 	0.94513	0.54467	0.52567	0.122
Mof_C 	C 	0.91593	0.55327	0.56267	-0.021
Mof_C 	C 	0.91023	0.54797	0.61567	0.066
Mof_C 	C 	0.88973	0.56797	0.64737	-0.199
Mof_C 	C 	0.88023	0.60337	0.55847	0.001
Mof_H 	H 	0.91903	0.53117	0.63477	0.016
Mof_H 	H 	0.88593	0.56367	0.68627	0.092
Mof_H 	H 	0.87163	0.62037	0.53967	0.017
Mof_In	In	0.12772	0.76209	0.73985	2.902
Mof_Cu	Cu	0.12291	0.82432	0.84568	0.926
Mof_O 	O 	0.1582	0.82372	0.7798	-0.747
Mof_O 	O 	0.2304	0.8087	0.7846	-0.519
Mof_O 	O 	0.1837	0.763	0.7225	-0.77
Mof_O 	O 	0.067	0.752	0.7521	-0.807
Mof_O 	O 	0.0703	0.8035	0.8033	-0.481
Mof_O 	O 	0.6764	0.7676	0.7875	-0.38
Mof_O 	O 	0.853	0.6973	0.3235	-0.353
Mof_O 	O 	0.7269	0.7919	0.8532	-0.802
Mof_O 	O 	0.7836	0.6556	0.3388	-0.789
Mof_C 	C 	0.2186	0.7811	0.7517	0.56
Mof_C 	C 	0.2448	0.7578	0.7455	-0.227
Mof_C 	C 	0.2809	0.7731	0.7743	0.134
Mof_H 	H 	0.2906	0.7978	0.7958	-0.002
Mof_C 	C 	0.3043	0.7521	0.7721	-0.197
Mof_H 	H 	0.3304	0.7635	0.7907	0.096
Mof_C 	C 	0.2886	0.7144	0.7424	0.122
Mof_C 	C 	0.2522	0.7005	0.7111	-0.218
Mof_H 	H 	0.2425	0.6763	0.6885	0.105
Mof_C 	C 	0.2301	0.7217	0.713	0.155
Mof_H 	H 	0.2051	0.7118	0.6923	-0.024
Mof_C 	C 	0.3116	0.69	0.7419	-0.021
Mof_C 	C 	0.2909	0.6466	0.7426	-0.048
Mof_H 	H 	0.2613	0.6325	0.7436	0.045
Mof_C 	C 	0.7121	0.7728	0.8089	0.337
Mof_C 	C 	0.7346	0.7564	0.7749	-0.101
Mof_C 	C 	0.7296	0.7493	0.7221	-0.072
Mof_H 	H 	0.709	0.7526	0.7029	0.056
Mof_C 	C 	0.755	0.7365	0.6925	0.106
Mof_H 	H 	0.7464	0.7252	0.6564	-0.015
Mof_C 	C 	0.7924	0.7473	0.7664	-0.126
Mof_H 	H 	0.8167	0.7506	0.7843	0.064
Mof_C 	C 	0.791	0.7395	0.7135	0.032
Mof_C 	C 	0.7662	0.7516	0.8005	0.052
Mof_C 	C 	0.8222	0.732	0.6828	0.034
Mof_C 	C 	0.8165	0.7221	0.6261	-0.093
Mof_H 	H 	0.7929	0.7202	0.6078	0.057
Mof_C 	C 	0.8454	0.7146	0.5948	0.012
Mof_C 	C 	0.8809	0.7201	0.6235	-0.085
Mof_H 	H 	0.9005	0.7153	0.604	0.057
Mof_C 	C 	0.8888	0.7318	0.6775	0.022
Mof_C 	C 	0.8577	0.7363	0.7075	-0.096
Mof_H 	H 	0.8618	0.7425	0.746	0.06
Mof_C 	C 	0.8393	0.7025	0.5326	0.105
Mof_C 	C 	0.7976	0.6772	0.5115	-0.196
Mof_H 	H 	0.7739	0.6656	0.535	0.1
Mof_C 	C 	0.7943	0.6708	0.4525	0.146
Mof_H 	H 	0.7671	0.655	0.4373	-0.013
Mof_C 	C 	0.8273	0.6857	0.4169	-0.234
Mof_C 	C 	0.8664	0.7093	0.4405	0.139
Mof_H 	H 	0.8899	0.7199	0.4167	-0.011
Mof_C 	C 	0.8736	0.7186	0.4969	-0.2
Mof_H 	H 	0.9011	0.7355	0.5107	0.098
Mof_C 	C 	0.8211	0.6813	0.3542	0.52
Mof_C 	C 	0.9288	0.7405	0.7049	0.079
Mof_C 	C 	0.9474	0.7155	0.6915	-0.184
Mof_H 	H 	0.9334	0.6925	0.6671	0.09
Mof_C 	C 	0.9854	0.7248	0.7137	0.132
Mof_H 	H 	0.9973	0.7081	0.7041	-0.02
Mof_C 	C 	0.0083	0.7607	0.7529	-0.249
Mof_C 	C 	0.9901	0.7852	0.7663	0.119
Mof_H 	H 	0.0045	0.8084	0.7905	0.001
Mof_C 	C 	0.9503	0.776	0.744	-0.161
Mof_H 	H 	0.9379	0.7922	0.7542	0.085
Mof_C 	C 	0.051	0.7728	0.7707	0.6
Mof_C 	C 	0.122	0.7338	0.859	0.122
Mof_C 	C 	0.1134	0.696	0.896	-0.021
Mof_C 	C 	0.1187	0.6956	0.949	0.066
Mof_C 	C 	0.0987	0.6551	0.9807	-0.199
Mof_C 	C 	0.0633	0.6102	0.8918	0.001
Mof_H 	H 	0.1355	0.7212	0.9681	0.016
Mof_H 	H 	0.103	0.6556	0.0196	0.093
Mof_H 	H 	0.0463	0.5846	0.873	0.017
Mof_In	In	0.79439	0.09542	0.07318	2.901
Mof_Cu	Cu	0.78958	0.15765	0.17901	0.926
Mof_O 	O 	0.82487	0.15705	0.11313	-0.747
Mof_O 	O 	0.89707	0.14203	0.11793	-0.519
Mof_O 	O 	0.85037	0.09633	0.05583	-0.77
Mof_O 	O 	0.73367	0.08533	0.08543	-0.807
Mof_O 	O 	0.73697	0.13683	0.13663	-0.481
Mof_O 	O 	0.34307	0.10093	0.12083	-0.38
Mof_O 	O 	0.51967	0.03063	0.65683	-0.353
Mof_O 	O 	0.39357	0.12523	0.18653	-0.802
Mof_O 	O 	0.45027	0.98893	0.67213	-0.789
Mof_C 	C 	0.88527	0.11443	0.08503	0.56
Mof_C 	C 	0.91147	0.09113	0.07883	-0.227
Mof_C 	C 	0.94757	0.10643	0.10763	0.135
Mof_H 	H 	0.95727	0.13113	0.12913	-0.002
Mof_C 	C 	0.97097	0.08543	0.10543	-0.198
Mof_H 	H 	0.99707	0.09683	0.12403	0.097
Mof_C 	C 	0.95527	0.04773	0.07573	0.123
Mof_C 	C 	0.91887	0.03383	0.04443	-0.219
Mof_H 	H 	0.90917	0.00963	0.02183	0.106
Mof_C 	C 	0.89677	0.05503	0.04633	0.156
Mof_H 	H 	0.87177	0.04513	0.02563	-0.024
Mof_C 	C 	0.97827	0.02333	0.07523	-0.023
Mof_C 	C 	0.95757	0.97993	0.07593	-0.046
Mof_H 	H 	0.92797	0.96583	0.07693	0.044
Mof_C 	C 	0.37877	0.10613	0.14223	0.337
Mof_C 	C 	0.40127	0.08973	0.10823	-0.101
Mof_C 	C 	0.39627	0.08263	0.05543	-0.072
Mof_H 	H 	0.37567	0.08593	0.03623	0.056
Mof_C 	C 	0.42167	0.06983	0.02583	0.106
Mof_H 	H 	0.41307	0.05853	0.98973	-0.015
Mof_C 	C 	0.45907	0.08063	0.09973	-0.126
Mof_H 	H 	0.48337	0.08393	0.11763	0.064
Mof_C 	C 	0.45767	0.07283	0.04683	0.033
Mof_C 	C 	0.43287	0.08493	0.13383	0.052
Mof_C 	C 	0.48887	0.06533	0.01613	0.033
Mof_C 	C 	0.48317	0.05543	0.95943	-0.092
Mof_H 	H 	0.45957	0.05353	0.94113	0.057
Mof_C 	C 	0.51207	0.04793	0.92813	0.012
Mof_C 	C 	0.54757	0.05343	0.95683	-0.084
Mof_H 	H 	0.56717	0.04863	0.93733	0.057
Mof_C 	C 	0.55547	0.06513	0.01083	0.022
Mof_C 	C 	0.52437	0.06963	0.04083	-0.095
Mof_H 	H 	0.52847	0.07583	0.07933	0.06
Mof_C 	C 	0.50597	0.03583	0.86593	0.105
Mof_C 	C 	0.46427	0.01053	0.84483	-0.196
Mof_H 	H 	0.44057	0.99893	0.86833	0.099
Mof_C 	C 	0.46097	0.00413	0.78583	0.146
Mof_H 	H 	0.43377	0.98833	0.77063	-0.013
Mof_C 	C 	0.49397	0.01903	0.75023	-0.235
Mof_C 	C 	0.53307	0.04263	0.77383	0.139
Mof_H 	H 	0.55657	0.05323	0.75003	-0.011
Mof_C 	C 	0.54027	0.05193	0.83023	-0.2
Mof_H 	H 	0.56777	0.06883	0.84403	0.098
Mof_C 	C 	0.48777	0.01463	0.68753	0.52
Mof_C 	C 	0.59547	0.07383	0.03823	0.078
Mof_C 	C 	0.61407	0.04883	0.02483	-0.184
Mof_H 	H 	0.60007	0.02583	0.00043	0.089
Mof_C 	C 	0.65207	0.05813	0.04703	0.131
Mof_H 	H 	0.66397	0.04143	0.03743	-0.02
Mof_C 	C 	0.67497	0.09403	0.08623	-0.248
Mof_C 	C 	0.65677	0.11853	0.09963	0.118
Mof_H 	H 	0.67117	0.14173	0.12383	0.001
Mof_C 	C 	0.61697	0.10933	0.07733	-0.16
Mof_H 	H 	0.60457	0.12553	0.08753	0.085
Mof_C 	C 	0.71767	0.10613	0.10403	0.599
Mof_C 	C 	0.78867	0.06713	0.19233	0.122
Mof_C 	C 	0.78007	0.02933	0.22933	-0.021
Mof_C 	C 	0.78537	0.02893	0.28233	0.066
Mof_C 	C 	0.76537	0.98843	0.31403	-0.199
Mof_C 	C 	0.72997	0.94353	0.22513	0.001
Mof_H 	H 	0.80217	0.05453	0.30143	0.016
Mof_H 	H 	0.76967	0.98893	0.35293	0.092
Mof_H 	H 	0.71297	0.91793	0.20633	0.017
Mof_In	In	0.46105	0.42876	0.40652	2.901
Mof_Cu	Cu	0.45624	0.49099	0.51235	0.926
Mof_O 	O 	0.49153	0.49039	0.44647	-0.747
Mof_O 	O 	0.56373	0.47537	0.45127	-0.519
Mof_O 	O 	0.51703	0.42967	0.38917	-0.77
Mof_O 	O 	0.40033	0.41867	0.41877	-0.807
Mof_O 	O 	0.40363	0.47017	0.46997	-0.481
Mof_O 	O 	0.00973	0.43427	0.45417	-0.38
Mof_O 	O 	0.18633	0.36397	0.99017	-0.354
Mof_O 	O 	0.06023	0.45857	0.51987	-0.802
Mof_O 	O 	0.11693	0.32227	0.00547	-0.789
Mof_C 	C 	0.55193	0.44777	0.41837	0.56
Mof_C 	C 	0.57813	0.42447	0.41217	-0.227
Mof_C 	C 	0.61423	0.43977	0.44097	0.134
Mof_H 	H 	0.62393	0.46447	0.46247	-0.002
Mof_C 	C 	0.63763	0.41877	0.43877	-0.197
Mof_H 	H 	0.66373	0.43017	0.45737	0.097
Mof_C 	C 	0.62193	0.38107	0.40907	0.122
Mof_C 	C 	0.58553	0.36717	0.37777	-0.218
Mof_H 	H 	0.57583	0.34297	0.35517	0.105
Mof_C 	C 	0.56343	0.38837	0.37967	0.155
Mof_H 	H 	0.53843	0.37847	0.35897	-0.024
Mof_C 	C 	0.64493	0.35667	0.40857	-0.021
Mof_C 	C 	0.62423	0.31327	0.40927	-0.048
Mof_H 	H 	0.59463	0.29917	0.41027	0.045
Mof_C 	C 	0.04543	0.43947	0.47557	0.337
Mof_C 	C 	0.06793	0.42307	0.44157	-0.102
Mof_C 	C 	0.06293	0.41597	0.38877	-0.072
Mof_H 	H 	0.04233	0.41927	0.36957	0.056
Mof_C 	C 	0.08833	0.40317	0.35917	0.107
Mof_H 	H 	0.07973	0.39187	0.32307	-0.015
Mof_C 	C 	0.12573	0.41397	0.43307	-0.126
Mof_H 	H 	0.15003	0.41727	0.45097	0.064
Mof_C 	C 	0.12433	0.40617	0.38017	0.032
Mof_C 	C 	0.09953	0.41827	0.46717	0.052
Mof_C 	C 	0.15553	0.39867	0.34947	0.034
Mof_C 	C 	0.14983	0.38877	0.29277	-0.093
Mof_H 	H 	0.12623	0.38687	0.27447	0.057
Mof_C 	C 	0.17873	0.38127	0.26147	0.012
Mof_C 	C 	0.21423	0.38677	0.29017	-0.085
Mof_H 	H 	0.23383	0.38197	0.27067	0.057
Mof_C 	C 	0.22213	0.39847	0.34417	0.023
Mof_C 	C 	0.19103	0.40297	0.37417	-0.096
Mof_H 	H 	0.19513	0.40917	0.41267	0.06
Mof_C 	C 	0.17263	0.36917	0.19927	0.105
Mof_C 	C 	0.13093	0.34387	0.17817	-0.196
Mof_H 	H 	0.10723	0.33227	0.20167	0.1
Mof_C 	C 	0.12763	0.33747	0.11917	0.146
Mof_H 	H 	0.10043	0.32167	0.10397	-0.013
Mof_C 	C 	0.16063	0.35237	0.08357	-0.234
Mof_C 	C 	0.19973	0.37597	0.10717	0.139
Mof_H 	H 	0.22323	0.38657	0.08337	-0.011
Mof_C 	C 	0.20693	0.38527	0.16357	-0.2
Mof_H 	H 	0.23443	0.40217	0.17737	0.098
Mof_C 	C 	0.15443	0.34797	0.02087	0.52
Mof_C 	C 	0.26213	0.40717	0.37157	0.078
Mof_C 	C 	0.28073	0.38217	0.35817	-0.183
Mof_H 	H 	0.26673	0.35917	0.33377	0.09
Mof_C 	C 	0.31873	0.39147	0.38037	0.131
Mof_H 	H 	0.33063	0.37477	0.37077	-0.02
Mof_C 	C 	0.34163	0.42737	0.41957	-0.248
Mof_C 	C 	0.32343	0.45187	0.43297	0.118
Mof_H 	H 	0.33783	0.47507	0.45717	0.001
Mof_C 	C 	0.28363	0.44267	0.41067	-0.16
Mof_H 	H 	0.27123	0.45887	0.42087	0.085
Mof_C 	C 	0.38433	0.43947	0.43737	0.599
Mof_C 	C 	0.45533	0.40047	0.52567	0.123
Mof_C 	C 	0.44673	0.36267	0.56267	-0.021
Mof_C 	C 	0.45203	0.36227	0.61567	0.065
Mof_C 	C 	0.43203	0.32177	0.64737	-0.199
Mof_C 	C 	0.39663	0.27687	0.55847	0.001
Mof_H 	H 	0.46883	0.38787	0.63477	0.016
Mof_H 	H 	0.43633	0.32227	0.68627	0.092
Mof_H 	H 	0.37963	0.25127	0.53967	0.017
Mof_In	In	0.23791	0.36563	0.73985	2.901
Mof_Cu	Cu	0.17568	0.29859	0.84568	0.926
Mof_O 	O 	0.17628	0.33448	0.7798	-0.747
Mof_O 	O 	0.1913	0.4217	0.7846	-0.519
Mof_O 	O 	0.237	0.4207	0.7225	-0.77
Mof_O 	O 	0.248	0.315	0.7521	-0.807
Mof_O 	O 	0.1965	0.2668	0.8033	-0.481
Mof_O 	O 	0.2324	0.9088	0.7875	-0.38
Mof_O 	O 	0.3027	0.1557	0.3235	-0.353
Mof_O 	O 	0.2081	0.935	0.8532	-0.802
Mof_O 	O 	0.3444	0.128	0.3388	-0.788
Mof_C 	C 	0.2189	0.4375	0.7517	0.56
Mof_C 	C 	0.2422	0.487	0.7455	-0.227
Mof_C 	C 	0.2269	0.5078	0.7743	0.134
Mof_H 	H 	0.2022	0.4928	0.7958	-0.002
Mof_C 	C 	0.2479	0.5522	0.7721	-0.197
Mof_H 	H 	0.2365	0.5669	0.7907	0.096
Mof_C 	C 	0.2856	0.5742	0.7424	0.122
Mof_C 	C 	0.2995	0.5517	0.7111	-0.218
Mof_H 	H 	0.3237	0.5662	0.6885	0.105
Mof_C 	C 	0.2783	0.5084	0.713	0.155
Mof_H 	H 	0.2882	0.4933	0.6923	-0.024
Mof_C 	C 	0.31	0.6216	0.7419	-0.021
Mof_C 	C 	0.3534	0.6443	0.7426	-0.048
Mof_H 	H 	0.3675	0.6288	0.7436	0.045
Mof_C 	C 	0.2272	0.9393	0.8089	0.337
Mof_C 	C 	0.2436	0.9782	0.7749	-0.102
Mof_C 	C 	0.2507	0.9803	0.7221	-0.072
Mof_H 	H 	0.2474	0.9564	0.7029	0.056
Mof_C 	C 	0.2635	0.0185	0.6925	0.107
Mof_H 	H 	0.2748	0.0212	0.6564	-0.015
Mof_C 	C 	0.2527	0.0451	0.7664	-0.126
Mof_H 	H 	0.2494	0.0661	0.7843	0.064
Mof_C 	C 	0.2605	0.0515	0.7135	0.032
Mof_C 	C 	0.2484	0.0146	0.8005	0.052
Mof_C 	C 	0.268	0.0902	0.6828	0.034
Mof_C 	C 	0.2779	0.0944	0.6261	-0.093
Mof_H 	H 	0.2798	0.0727	0.6078	0.057
Mof_C 	C 	0.2854	0.1308	0.5948	0.012
Mof_C 	C 	0.2799	0.1608	0.6235	-0.085
Mof_H 	H 	0.2847	0.1852	0.604	0.057
Mof_C 	C 	0.2682	0.157	0.6775	0.023
Mof_C 	C 	0.2637	0.1214	0.7075	-0.096
Mof_H 	H 	0.2575	0.1193	0.746	0.06
Mof_C 	C 	0.2975	0.1368	0.5326	0.104
Mof_C 	C 	0.3228	0.1204	0.5115	-0.196
Mof_H 	H 	0.3344	0.1083	0.535	0.1
Mof_C 	C 	0.3292	0.1235	0.4525	0.146
Mof_H 	H 	0.345	0.1121	0.4373	-0.013
Mof_C 	C 	0.3143	0.1416	0.4169	-0.234
Mof_C 	C 	0.2907	0.1571	0.4405	0.139
Mof_H 	H 	0.2801	0.17	0.4167	-0.011
Mof_C 	C 	0.2814	0.155	0.4969	-0.2
Mof_H 	H 	0.2645	0.1656	0.5107	0.098
Mof_C 	C 	0.3187	0.1398	0.3542	0.52
Mof_C 	C 	0.2595	0.1883	0.7049	0.078
Mof_C 	C 	0.2845	0.2319	0.6915	-0.183
Mof_H 	H 	0.3075	0.2409	0.6671	0.09
Mof_C 	C 	0.2752	0.2606	0.7137	0.131
Mof_H 	H 	0.2919	0.2892	0.7041	-0.02
Mof_C 	C 	0.2393	0.2476	0.7529	-0.248
Mof_C 	C 	0.2148	0.2049	0.7663	0.118
Mof_H 	H 	0.1916	0.1961	0.7905	0.001
Mof_C 	C 	0.224	0.1743	0.744	-0.16
Mof_H 	H 	0.2078	0.1457	0.7542	0.085
Mof_C 	C 	0.2272	0.2782	0.7707	0.599
Mof_C 	C 	0.2662	0.3882	0.859	0.122
Mof_C 	C 	0.304	0.4174	0.896	-0.021
Mof_C 	C 	0.3044	0.4231	0.949	0.066
Mof_C 	C 	0.3449	0.4436	0.9807	-0.199
Mof_C 	C 	0.3898	0.4531	0.8918	0.001
Mof_H 	H 	0.2788	0.4143	0.9681	0.016
Mof_H 	H 	0.3444	0.4474	0.0196	0.092
Mof_H 	H 	0.4154	0.4617	0.873	0.017
Mof_In	In	0.90458	0.69896	0.07318	2.901
Mof_Cu	Cu	0.84235	0.63192	0.17901	0.926
Mof_O 	O 	0.84295	0.66781	0.11313	-0.747
Mof_O 	O 	0.85797	0.75503	0.11793	-0.519
Mof_O 	O 	0.90367	0.75403	0.05583	-0.77
Mof_O 	O 	0.91467	0.64833	0.08543	-0.807
Mof_O 	O 	0.86317	0.60013	0.13663	-0.481
Mof_O 	O 	0.89907	0.24213	0.12083	-0.38
Mof_O 	O 	0.96937	0.48903	0.65683	-0.353
Mof_O 	O 	0.87477	0.26833	0.18653	-0.802
Mof_O 	O 	0.01107	0.46133	0.67213	-0.789
Mof_C 	C 	0.88557	0.77083	0.08503	0.56
Mof_C 	C 	0.90887	0.82033	0.07883	-0.227
Mof_C 	C 	0.89357	0.84113	0.10763	0.135
Mof_H 	H 	0.86887	0.82613	0.12913	-0.002
Mof_C 	C 	0.91457	0.88553	0.10543	-0.198
Mof_H 	H 	0.90317	0.90023	0.12403	0.097
Mof_C 	C 	0.95227	0.90753	0.07573	0.123
Mof_C 	C 	0.96617	0.88503	0.04443	-0.219
Mof_H 	H 	0.99037	0.89953	0.02183	0.106
Mof_C 	C 	0.94497	0.84173	0.04633	0.156
Mof_H 	H 	0.95487	0.82663	0.02563	-0.024
Mof_C 	C 	0.97667	0.95493	0.07523	-0.023
Mof_C 	C 	0.02007	0.97763	0.07593	-0.046
Mof_H 	H 	0.03417	0.96213	0.07693	0.044
Mof_C 	C 	0.89387	0.27263	0.14223	0.337
Mof_C 	C 	0.91027	0.31153	0.10823	-0.101
Mof_C 	C 	0.91737	0.31363	0.05543	-0.072
Mof_H 	H 	0.91407	0.28973	0.03623	0.056
Mof_C 	C 	0.93017	0.35183	0.02583	0.106
Mof_H 	H 	0.94147	0.35453	0.98973	-0.015
Mof_C 	C 	0.91937	0.37843	0.09973	-0.126
Mof_H 	H 	0.91607	0.39943	0.11763	0.064
Mof_C 	C 	0.92717	0.38483	0.04683	0.033
Mof_C 	C 	0.91507	0.34793	0.13383	0.052
Mof_C 	C 	0.93467	0.42353	0.01613	0.033
Mof_C 	C 	0.94457	0.42773	0.95943	-0.092
Mof_H 	H 	0.94647	0.40603	0.94113	0.057
Mof_C 	C 	0.95207	0.46413	0.92813	0.012
Mof_C 	C 	0.94657	0.49413	0.95683	-0.084
Mof_H 	H 	0.95137	0.51853	0.93733	0.057
Mof_C 	C 	0.93487	0.49033	0.01083	0.021
Mof_C 	C 	0.93037	0.45473	0.04083	-0.095
Mof_H 	H 	0.92417	0.45263	0.07933	0.06
Mof_C 	C 	0.96417	0.47013	0.86593	0.105
Mof_C 	C 	0.98947	0.45373	0.84483	-0.196
Mof_H 	H 	0.00107	0.44163	0.86833	0.099
Mof_C 	C 	0.99587	0.45683	0.78583	0.146
Mof_H 	H 	0.01167	0.44543	0.77063	-0.013
Mof_C 	C 	0.98097	0.47493	0.75023	-0.235
Mof_C 	C 	0.95737	0.49043	0.77383	0.139
Mof_H 	H 	0.94677	0.50333	0.75003	-0.011
Mof_C 	C 	0.94807	0.48833	0.83023	-0.2
Mof_H 	H 	0.93117	0.49893	0.84403	0.098
Mof_C 	C 	0.98537	0.47313	0.68753	0.52
Mof_C 	C 	0.92617	0.52163	0.03823	0.079
Mof_C 	C 	0.95117	0.56523	0.02483	-0.184
Mof_H 	H 	0.97417	0.57423	0.00043	0.09
Mof_C 	C 	0.94187	0.59393	0.04703	0.131
Mof_H 	H 	0.95857	0.62253	0.03743	-0.02
Mof_C 	C 	0.90597	0.58093	0.08623	-0.248
Mof_C 	C 	0.88147	0.53823	0.09963	0.118
Mof_H 	H 	0.85827	0.52943	0.12383	0.001
Mof_C 	C 	0.89067	0.50763	0.07733	-0.16
Mof_H 	H 	0.87447	0.47903	0.08753	0.085
Mof_C 	C 	0.89387	0.61153	0.10403	0.6
Mof_C 	C 	0.93287	0.72153	0.19233	0.122
Mof_C 	C 	0.97067	0.75073	0.22933	-0.021
Mof_C 	C 	0.97107	0.75643	0.28233	0.066
Mof_C 	C 	0.01157	0.77693	0.31403	-0.199
Mof_C 	C 	0.05647	0.78643	0.22513	0.001
Mof_H 	H 	0.94547	0.74763	0.30143	0.016
Mof_H 	H 	0.01107	0.78073	0.35293	0.092
Mof_H 	H 	0.08207	0.79503	0.20633	0.017
Mof_In	In	0.57124	0.0323	0.40652	2.902
Mof_Cu	Cu	0.50901	0.96526	0.51235	0.926
Mof_O 	O 	0.50961	0.00115	0.44647	-0.747
Mof_O 	O 	0.52463	0.08837	0.45127	-0.519
Mof_O 	O 	0.57033	0.08737	0.38917	-0.77
Mof_O 	O 	0.58133	0.98167	0.41877	-0.807
Mof_O 	O 	0.52983	0.93347	0.46997	-0.481
Mof_O 	O 	0.56573	0.57547	0.45417	-0.38
Mof_O 	O 	0.63603	0.82237	0.99017	-0.354
Mof_O 	O 	0.54143	0.60167	0.51987	-0.802
Mof_O 	O 	0.67773	0.79467	0.00547	-0.789
Mof_C 	C 	0.55223	0.10417	0.41837	0.56
Mof_C 	C 	0.57553	0.15367	0.41217	-0.227
Mof_C 	C 	0.56023	0.17447	0.44097	0.134
Mof_H 	H 	0.53553	0.15947	0.46247	-0.002
Mof_C 	C 	0.58123	0.21887	0.43877	-0.197
Mof_H 	H 	0.56983	0.23357	0.45737	0.096
Mof_C 	C 	0.61893	0.24087	0.40907	0.122
Mof_C 	C 	0.63283	0.21837	0.37777	-0.218
Mof_H 	H 	0.65703	0.23287	0.35517	0.105
Mof_C 	C 	0.61163	0.17507	0.37967	0.155
Mof_H 	H 	0.62153	0.15997	0.35897	-0.024
Mof_C 	C 	0.64333	0.28827	0.40857	-0.021
Mof_C 	C 	0.68673	0.31097	0.40927	-0.048
Mof_H 	H 	0.70083	0.29547	0.41027	0.045
Mof_C 	C 	0.56053	0.60597	0.47557	0.337
Mof_C 	C 	0.57693	0.64487	0.44157	-0.102
Mof_C 	C 	0.58403	0.64697	0.38877	-0.072
Mof_H 	H 	0.58073	0.62307	0.36957	0.056
Mof_C 	C 	0.59683	0.68517	0.35917	0.107
Mof_H 	H 	0.60813	0.68787	0.32307	-0.015
Mof_C 	C 	0.58603	0.71177	0.43307	-0.126
Mof_H 	H 	0.58273	0.73277	0.45097	0.064
Mof_C 	C 	0.59383	0.71817	0.38017	0.032
Mof_C 	C 	0.58173	0.68127	0.46717	0.052
Mof_C 	C 	0.60133	0.75687	0.34947	0.035
Mof_C 	C 	0.61123	0.76107	0.29277	-0.093
Mof_H 	H 	0.61313	0.73937	0.27447	0.057
Mof_C 	C 	0.61873	0.79747	0.26147	0.012
Mof_C 	C 	0.61323	0.82747	0.29017	-0.085
Mof_H 	H 	0.61803	0.85187	0.27067	0.057
Mof_C 	C 	0.60153	0.82367	0.34417	0.023
Mof_C 	C 	0.59703	0.78807	0.37417	-0.096
Mof_H 	H 	0.59083	0.78597	0.41267	0.06
Mof_C 	C 	0.63083	0.80347	0.19927	0.105
Mof_C 	C 	0.65613	0.78707	0.17817	-0.196
Mof_H 	H 	0.66773	0.77497	0.20167	0.1
Mof_C 	C 	0.66253	0.79017	0.11917	0.146
Mof_H 	H 	0.67833	0.77877	0.10397	-0.013
Mof_C 	C 	0.64763	0.80827	0.08357	-0.234
Mof_C 	C 	0.62403	0.82377	0.10717	0.139
Mof_H 	H 	0.61343	0.83667	0.08337	-0.011
Mof_C 	C 	0.61473	0.82167	0.16357	-0.2
Mof_H 	H 	0.59783	0.83227	0.17737	0.098
Mof_C 	C 	0.65203	0.80647	0.02087	0.52
Mof_C 	C 	0.59283	0.85497	0.37157	0.078
Mof_C 	C 	0.61783	0.89857	0.35817	-0.183
Mof_H 	H 	0.64083	0.90757	0.33377	0.09
Mof_C 	C 	0.60853	0.92727	0.38037	0.131
Mof_H 	H 	0.62523	0.95587	0.37077	-0.02
Mof_C 	C 	0.57263	0.91427	0.41957	-0.248
Mof_C 	C 	0.54813	0.87157	0.43297	0.118
Mof_H 	H 	0.52493	0.86277	0.45717	0.001
Mof_C 	C 	0.55733	0.84097	0.41067	-0.16
Mof_H 	H 	0.54113	0.81237	0.42087	0.085
Mof_C 	C 	0.56053	0.94487	0.43737	0.599
Mof_C 	C 	0.59953	0.05487	0.52567	0.122
Mof_C 	C 	0.63733	0.08407	0.56267	-0.021
Mof_C 	C 	0.63773	0.08977	0.61567	0.066
Mof_C 	C 	0.67823	0.11027	0.64737	-0.198
Mof_C 	C 	0.72313	0.11977	0.55847	0.001
Mof_H 	H 	0.61213	0.08097	0.63477	0.016
Mof_H 	H 	0.67773	0.11407	0.68627	0.092
Mof_H 	H 	0.74873	0.12837	0.53967	0.017
Mof_In	In	0.36563	0.12772	0.26015	2.901
Mof_Cu	Cu	0.29859	0.12291	0.15432	0.926
Mof_O 	O 	0.33448	0.1582	0.2202	-0.747
Mof_O 	O 	0.4217	0.2304	0.2154	-0.519
Mof_O 	O 	0.4207	0.1837	0.2775	-0.77
Mof_O 	O 	0.315	0.067	0.2479	-0.807
Mof_O 	O 	0.2668	0.0703	0.1967	-0.481
Mof_O 	O 	0.9088	0.6764	0.2125	-0.38
Mof_O 	O 	0.1557	0.853	0.6765	-0.353
Mof_O 	O 	0.935	0.7269	0.1468	-0.802
Mof_O 	O 	0.128	0.7836	0.6612	-0.789
Mof_C 	C 	0.4375	0.2186	0.2483	0.56
Mof_C 	C 	0.487	0.2448	0.2545	-0.227
Mof_C 	C 	0.5078	0.2809	0.2257	0.134
Mof_H 	H 	0.4928	0.2906	0.2042	-0.002
Mof_C 	C 	0.5522	0.3043	0.2279	-0.197
Mof_H 	H 	0.5669	0.3304	0.2093	0.096
Mof_C 	C 	0.5742	0.2886	0.2576	0.122
Mof_C 	C 	0.5517	0.2522	0.2889	-0.218
Mof_H 	H 	0.5662	0.2425	0.3115	0.105
Mof_C 	C 	0.5084	0.2301	0.287	0.155
Mof_H 	H 	0.4933	0.2051	0.3077	-0.024
Mof_C 	C 	0.6216	0.3116	0.2581	-0.021
Mof_C 	C 	0.6443	0.2909	0.2574	-0.048
Mof_H 	H 	0.6288	0.2613	0.2564	0.045
Mof_C 	C 	0.9393	0.7121	0.1911	0.337
Mof_C 	C 	0.9782	0.7346	0.2251	-0.102
Mof_C 	C 	0.9803	0.7296	0.2779	-0.072
Mof_H 	H 	0.9564	0.709	0.2971	0.056
Mof_C 	C 	0.0185	0.755	0.3075	0.107
Mof_H 	H 	0.0212	0.7464	0.3436	-0.015
Mof_C 	C 	0.0451	0.7924	0.2336	-0.126
Mof_H 	H 	0.0661	0.8167	0.2157	0.064
Mof_C 	C 	0.0515	0.791	0.2865	0.032
Mof_C 	C 	0.0146	0.7662	0.1995	0.052
Mof_C 	C 	0.0902	0.8222	0.3172	0.034
Mof_C 	C 	0.0944	0.8165	0.3739	-0.093
Mof_H 	H 	0.0727	0.7929	0.3922	0.057
Mof_C 	C 	0.1308	0.8454	0.4052	0.012
Mof_C 	C 	0.1608	0.8809	0.3765	-0.085
Mof_H 	H 	0.1852	0.9005	0.396	0.057
Mof_C 	C 	0.157	0.8888	0.3225	0.022
Mof_C 	C 	0.1214	0.8577	0.2925	-0.096
Mof_H 	H 	0.1193	0.8618	0.254	0.06
Mof_C 	C 	0.1368	0.8393	0.4674	0.105
Mof_C 	C 	0.1204	0.7976	0.4885	-0.196
Mof_H 	H 	0.1083	0.7739	0.465	0.1
Mof_C 	C 	0.1235	0.7943	0.5475	0.146
Mof_H 	H 	0.1121	0.7671	0.5627	-0.013
Mof_C 	C 	0.1416	0.8273	0.5831	-0.234
Mof_C 	C 	0.1571	0.8664	0.5595	0.139
Mof_H 	H 	0.17	0.8899	0.5833	-0.011
Mof_C 	C 	0.155	0.8736	0.5031	-0.2
Mof_H 	H 	0.1656	0.9011	0.4893	0.098
Mof_C 	C 	0.1398	0.8211	0.6458	0.52
Mof_C 	C 	0.1883	0.9288	0.2951	0.078
Mof_C 	C 	0.2319	0.9474	0.3085	-0.184
Mof_H 	H 	0.2409	0.9334	0.3329	0.09
Mof_C 	C 	0.2606	0.9854	0.2863	0.132
Mof_H 	H 	0.2892	0.9973	0.2959	-0.02
Mof_C 	C 	0.2476	0.0083	0.2471	-0.249
Mof_C 	C 	0.2049	0.9901	0.2337	0.119
Mof_H 	H 	0.1961	0.0045	0.2095	0.001
Mof_C 	C 	0.1743	0.9503	0.256	-0.161
Mof_H 	H 	0.1457	0.9379	0.2458	0.085
Mof_C 	C 	0.2782	0.051	0.2293	0.6
Mof_C 	C 	0.3882	0.122	0.141	0.122
Mof_C 	C 	0.4174	0.1134	0.104	-0.021
Mof_C 	C 	0.4231	0.1187	0.051	0.066
Mof_C 	C 	0.4436	0.0987	0.0193	-0.199
Mof_C 	C 	0.4531	0.0633	0.1082	0.001
Mof_H 	H 	0.4143	0.1355	0.0319	0.016
Mof_H 	H 	0.4474	0.103	0.9804	0.092
Mof_H 	H 	0.4617	0.0463	0.127	0.017
Mof_In	In	0.0323	0.46105	0.59348	2.902
Mof_Cu	Cu	0.96526	0.45624	0.48765	0.926
Mof_O 	O 	0.00115	0.49153	0.55353	-0.747
Mof_O 	O 	0.08837	0.56373	0.54873	-0.519
Mof_O 	O 	0.08737	0.51703	0.61083	-0.77
Mof_O 	O 	0.98167	0.40033	0.58123	-0.807
Mof_O 	O 	0.93347	0.40363	0.53003	-0.481
Mof_O 	O 	0.57547	0.00973	0.54583	-0.38
Mof_O 	O 	0.82237	0.18633	0.00983	-0.354
Mof_O 	O 	0.60167	0.06023	0.48013	-0.802
Mof_O 	O 	0.79467	0.11693	0.99453	-0.788
Mof_C 	C 	0.10417	0.55193	0.58163	0.56
Mof_C 	C 	0.15367	0.57813	0.58783	-0.227
Mof_C 	C 	0.17447	0.61423	0.55903	0.134
Mof_H 	H 	0.15947	0.62393	0.53753	-0.002
Mof_C 	C 	0.21887	0.63763	0.56123	-0.197
Mof_H 	H 	0.23357	0.66373	0.54263	0.097
Mof_C 	C 	0.24087	0.62193	0.59093	0.122
Mof_C 	C 	0.21837	0.58553	0.62223	-0.218
Mof_H 	H 	0.23287	0.57583	0.64483	0.105
Mof_C 	C 	0.17507	0.56343	0.62033	0.155
Mof_H 	H 	0.15997	0.53843	0.64103	-0.024
Mof_C 	C 	0.28827	0.64493	0.59143	-0.021
Mof_C 	C 	0.31097	0.62423	0.59073	-0.048
Mof_H 	H 	0.29547	0.59463	0.58973	0.045
Mof_C 	C 	0.60597	0.04543	0.52443	0.337
Mof_C 	C 	0.64487	0.06793	0.55843	-0.101
Mof_C 	C 	0.64697	0.06293	0.61123	-0.072
Mof_H 	H 	0.62307	0.04233	0.63043	0.056
Mof_C 	C 	0.68517	0.08833	0.64083	0.106
Mof_H 	H 	0.68787	0.07973	0.67693	-0.015
Mof_C 	C 	0.71177	0.12573	0.56693	-0.126
Mof_H 	H 	0.73277	0.15003	0.54903	0.064
Mof_C 	C 	0.71817	0.12433	0.61983	0.032
Mof_C 	C 	0.68127	0.09953	0.53283	0.052
Mof_C 	C 	0.75687	0.15553	0.65053	0.035
Mof_C 	C 	0.76107	0.14983	0.70723	-0.093
Mof_H 	H 	0.73937	0.12623	0.72553	0.057
Mof_C 	C 	0.79747	0.17873	0.73853	0.012
Mof_C 	C 	0.82747	0.21423	0.70983	-0.085
Mof_H 	H 	0.85187	0.23383	0.72933	0.057
Mof_C 	C 	0.82367	0.22213	0.65583	0.023
Mof_C 	C 	0.78807	0.19103	0.62583	-0.096
Mof_H 	H 	0.78597	0.19513	0.58733	0.06
Mof_C 	C 	0.80347	0.17263	0.80073	0.105
Mof_C 	C 	0.78707	0.13093	0.82183	-0.196
Mof_H 	H 	0.77497	0.10723	0.79833	0.1
Mof_C 	C 	0.79017	0.12763	0.88083	0.146
Mof_H 	H 	0.77877	0.10043	0.89603	-0.013
Mof_C 	C 	0.80827	0.16063	0.91643	-0.235
Mof_C 	C 	0.82377	0.19973	0.89283	0.139
Mof_H 	H 	0.83667	0.22323	0.91663	-0.011
Mof_C 	C 	0.82167	0.20693	0.83643	-0.2
Mof_H 	H 	0.83227	0.23443	0.82263	0.098
Mof_C 	C 	0.80647	0.15443	0.97913	0.52
Mof_C 	C 	0.85497	0.26213	0.62843	0.078
Mof_C 	C 	0.89857	0.28073	0.64183	-0.183
Mof_H 	H 	0.90757	0.26673	0.66623	0.09
Mof_C 	C 	0.92727	0.31873	0.61963	0.131
Mof_H 	H 	0.95587	0.33063	0.62923	-0.02
Mof_C 	C 	0.91427	0.34163	0.58043	-0.248
Mof_C 	C 	0.87157	0.32343	0.56703	0.118
Mof_H 	H 	0.86277	0.33783	0.54283	0.001
Mof_C 	C 	0.84097	0.28363	0.58933	-0.16
Mof_H 	H 	0.81237	0.27123	0.57913	0.085
Mof_C 	C 	0.94487	0.38433	0.56263	0.6
Mof_C 	C 	0.05487	0.45533	0.47433	0.122
Mof_C 	C 	0.08407	0.44673	0.43733	-0.021
Mof_C 	C 	0.08977	0.45203	0.38433	0.066
Mof_C 	C 	0.11027	0.43203	0.35263	-0.199
Mof_C 	C 	0.11977	0.39663	0.44153	0.001
Mof_H 	H 	0.08097	0.46883	0.36523	0.016
Mof_H 	H 	0.11407	0.43633	0.31373	0.092
Mof_H 	H 	0.12837	0.37963	0.46033	0.017
Mof_In	In	0.69896	0.79439	0.92682	2.901
Mof_Cu	Cu	0.63192	0.78958	0.82099	0.926
Mof_O 	O 	0.66781	0.82487	0.88687	-0.747
Mof_O 	O 	0.75503	0.89707	0.88207	-0.519
Mof_O 	O 	0.75403	0.85037	0.94417	-0.77
Mof_O 	O 	0.64833	0.73367	0.91457	-0.807
Mof_O 	O 	0.60013	0.73697	0.86337	-0.481
Mof_O 	O 	0.24213	0.34307	0.87917	-0.38
Mof_O 	O 	0.48903	0.51967	0.34317	-0.353
Mof_O 	O 	0.26833	0.39357	0.81347	-0.802
Mof_O 	O 	0.46133	0.45027	0.32787	-0.789
Mof_C 	C 	0.77083	0.88527	0.91497	0.56
Mof_C 	C 	0.82033	0.91147	0.92117	-0.227
Mof_C 	C 	0.84113	0.94757	0.89237	0.135
Mof_H 	H 	0.82613	0.95727	0.87087	-0.002
Mof_C 	C 	0.88553	0.97097	0.89457	-0.198
Mof_H 	H 	0.90023	0.99707	0.87597	0.097
Mof_C 	C 	0.90753	0.95527	0.92427	0.123
Mof_C 	C 	0.88503	0.91887	0.95557	-0.218
Mof_H 	H 	0.89953	0.90917	0.97817	0.106
Mof_C 	C 	0.84173	0.89677	0.95367	0.156
Mof_H 	H 	0.82663	0.87177	0.97437	-0.024
Mof_C 	C 	0.95493	0.97827	0.92477	-0.023
Mof_C 	C 	0.97763	0.95757	0.92407	-0.046
Mof_H 	H 	0.96213	0.92797	0.92307	0.044
Mof_C 	C 	0.27263	0.37877	0.85777	0.337
Mof_C 	C 	0.31153	0.40127	0.89177	-0.102
Mof_C 	C 	0.31363	0.39627	0.94457	-0.072
Mof_H 	H 	0.28973	0.37567	0.96377	0.056
Mof_C 	C 	0.35183	0.42167	0.97417	0.107
Mof_H 	H 	0.35453	0.41307	0.01027	-0.015
Mof_C 	C 	0.37843	0.45907	0.90027	-0.126
Mof_H 	H 	0.39943	0.48337	0.88237	0.064
Mof_C 	C 	0.38483	0.45767	0.95317	0.032
Mof_C 	C 	0.34793	0.43287	0.86617	0.052
Mof_C 	C 	0.42353	0.48887	0.98387	0.034
Mof_C 	C 	0.42773	0.48317	0.04057	-0.093
Mof_H 	H 	0.40603	0.45957	0.05887	0.057
Mof_C 	C 	0.46413	0.51207	0.07187	0.012
Mof_C 	C 	0.49413	0.54757	0.04317	-0.085
Mof_H 	H 	0.51853	0.56717	0.06267	0.057
Mof_C 	C 	0.49033	0.55547	0.98917	0.022
Mof_C 	C 	0.45473	0.52437	0.95917	-0.096
Mof_H 	H 	0.45263	0.52847	0.92067	0.06
Mof_C 	C 	0.47013	0.50597	0.13407	0.105
Mof_C 	C 	0.45373	0.46427	0.15517	-0.196
Mof_H 	H 	0.44163	0.44057	0.13167	0.1
Mof_C 	C 	0.45683	0.46097	0.21417	0.146
Mof_H 	H 	0.44543	0.43377	0.22937	-0.013
Mof_C 	C 	0.47493	0.49397	0.24977	-0.234
Mof_C 	C 	0.49043	0.53307	0.22617	0.139
Mof_H 	H 	0.50333	0.55657	0.24997	-0.011
Mof_C 	C 	0.48833	0.54027	0.16977	-0.2
Mof_H 	H 	0.49893	0.56777	0.15597	0.098
Mof_C 	C 	0.47313	0.48777	0.31247	0.52
Mof_C 	C 	0.52163	0.59547	0.96177	0.078
Mof_C 	C 	0.56523	0.61407	0.97517	-0.184
Mof_H 	H 	0.57423	0.60007	0.99957	0.089
Mof_C 	C 	0.59393	0.65207	0.95297	0.131
Mof_H 	H 	0.62253	0.66397	0.96257	-0.02
Mof_C 	C 	0.58093	0.67497	0.91377	-0.248
Mof_C 	C 	0.53823	0.65677	0.90037	0.118
Mof_H 	H 	0.52943	0.67117	0.87617	0.001
Mof_C 	C 	0.50763	0.61697	0.92267	-0.16
Mof_H 	H 	0.47903	0.60457	0.91247	0.085
Mof_C 	C 	0.61153	0.71767	0.89597	0.599
Mof_C 	C 	0.72153	0.78867	0.80767	0.122
Mof_C 	C 	0.75073	0.78007	0.77067	-0.021
Mof_C 	C 	0.75643	0.78537	0.71767	0.066
Mof_C 	C 	0.77693	0.76537	0.68597	-0.199
Mof_C 	C 	0.78643	0.72997	0.77487	0.001
Mof_H 	H 	0.74763	0.80217	0.69857	0.016
Mof_H 	H 	0.78073	0.76967	0.64707	0.092
Mof_H 	H 	0.79503	0.71297	0.79367	0.017
Mof_In	In	0.87228	0.23791	0.26015	2.902
Mof_Cu	Cu	0.87709	0.17568	0.15432	0.926
Mof_O 	O 	0.8418	0.17628	0.2202	-0.747
Mof_O 	O 	0.7696	0.1913	0.2154	-0.519
Mof_O 	O 	0.8163	0.237	0.2775	-0.77
Mof_O 	O 	0.933	0.248	0.2479	-0.807
Mof_O 	O 	0.9297	0.1965	0.1967	-0.481
Mof_O 	O 	0.3236	0.2324	0.2125	-0.38
Mof_O 	O 	0.147	0.3027	0.6765	-0.353
Mof_O 	O 	0.2731	0.2081	0.1468	-0.802
Mof_O 	O 	0.2164	0.3444	0.6612	-0.789
Mof_C 	C 	0.7814	0.2189	0.2483	0.56
Mof_C 	C 	0.7552	0.2422	0.2545	-0.227
Mof_C 	C 	0.7191	0.2269	0.2257	0.134
Mof_H 	H 	0.7094	0.2022	0.2042	-0.002
Mof_C 	C 	0.6957	0.2479	0.2279	-0.197
Mof_H 	H 	0.6696	0.2365	0.2093	0.096
Mof_C 	C 	0.7114	0.2856	0.2576	0.122
Mof_C 	C 	0.7478	0.2995	0.2889	-0.218
Mof_H 	H 	0.7575	0.3237	0.3115	0.105
Mof_C 	C 	0.7699	0.2783	0.287	0.155
Mof_H 	H 	0.7949	0.2882	0.3077	-0.024
Mof_C 	C 	0.6884	0.31	0.2581	-0.021
Mof_C 	C 	0.7091	0.3534	0.2574	-0.048
Mof_H 	H 	0.7387	0.3675	0.2564	0.045
Mof_C 	C 	0.2879	0.2272	0.1911	0.337
Mof_C 	C 	0.2654	0.2436	0.2251	-0.101
Mof_C 	C 	0.2704	0.2507	0.2779	-0.072
Mof_H 	H 	0.291	0.2474	0.2971	0.056
Mof_C 	C 	0.245	0.2635	0.3075	0.106
Mof_H 	H 	0.2536	0.2748	0.3436	-0.015
Mof_C 	C 	0.2076	0.2527	0.2336	-0.126
Mof_H 	H 	0.1833	0.2494	0.2157	0.064
Mof_C 	C 	0.209	0.2605	0.2865	0.032
Mof_C 	C 	0.2338	0.2484	0.1995	0.052
Mof_C 	C 	0.1778	0.268	0.3172	0.034
Mof_C 	C 	0.1835	0.2779	0.3739	-0.093
Mof_H 	H 	0.2071	0.2798	0.3922	0.057
Mof_C 	C 	0.1546	0.2854	0.4052	0.012
Mof_C 	C 	0.1191	0.2799	0.3765	-0.085
Mof_H 	H 	0.0995	0.2847	0.396	0.057
Mof_C 	C 	0.1112	0.2682	0.3225	0.022
Mof_C 	C 	0.1423	0.2637	0.2925	-0.096
Mof_H 	H 	0.1382	0.2575	0.254	0.06
Mof_C 	C 	0.1607	0.2975	0.4674	0.105
Mof_C 	C 	0.2024	0.3228	0.4885	-0.196
Mof_H 	H 	0.2261	0.3344	0.465	0.1
Mof_C 	C 	0.2057	0.3292	0.5475	0.146
Mof_H 	H 	0.2329	0.345	0.5627	-0.013
Mof_C 	C 	0.1727	0.3143	0.5831	-0.234
Mof_C 	C 	0.1336	0.2907	0.5595	0.139
Mof_H 	H 	0.1101	0.2801	0.5833	-0.011
Mof_C 	C 	0.1264	0.2814	0.5031	-0.2
Mof_H 	H 	0.0989	0.2645	0.4893	0.098
Mof_C 	C 	0.1789	0.3187	0.6458	0.52
Mof_C 	C 	0.0712	0.2595	0.2951	0.079
Mof_C 	C 	0.0526	0.2845	0.3085	-0.184
Mof_H 	H 	0.0666	0.3075	0.3329	0.09
Mof_C 	C 	0.0146	0.2752	0.2863	0.132
Mof_H 	H 	0.0027	0.2919	0.2959	-0.02
Mof_C 	C 	0.9917	0.2393	0.2471	-0.249
Mof_C 	C 	0.0099	0.2148	0.2337	0.119
Mof_H 	H 	0.9955	0.1916	0.2095	0.001
Mof_C 	C 	0.0497	0.224	0.256	-0.161
Mof_H 	H 	0.0621	0.2078	0.2458	0.085
Mof_C 	C 	0.949	0.2272	0.2293	0.6
Mof_C 	C 	0.878	0.2662	0.141	0.122
Mof_C 	C 	0.8866	0.304	0.104	-0.021
Mof_C 	C 	0.8813	0.3044	0.051	0.066
Mof_C 	C 	0.9013	0.3449	0.0193	-0.199
Mof_C 	C 	0.9367	0.3898	0.1082	0.001
Mof_H 	H 	0.8645	0.2788	0.0319	0.016
Mof_H 	H 	0.897	0.3444	0.9804	0.093
Mof_H 	H 	0.9537	0.4154	0.127	0.017
Mof_In	In	0.53895	0.57124	0.59348	2.901
Mof_Cu	Cu	0.54376	0.50901	0.48765	0.926
Mof_O 	O 	0.50847	0.50961	0.55353	-0.747
Mof_O 	O 	0.43627	0.52463	0.54873	-0.519
Mof_O 	O 	0.48297	0.57033	0.61083	-0.77
Mof_O 	O 	0.59967	0.58133	0.58123	-0.807
Mof_O 	O 	0.59637	0.52983	0.53003	-0.481
Mof_O 	O 	0.99027	0.56573	0.54583	-0.38
Mof_O 	O 	0.81367	0.63603	0.00983	-0.354
Mof_O 	O 	0.93977	0.54143	0.48013	-0.802
Mof_O 	O 	0.88307	0.67773	0.99453	-0.789
Mof_C 	C 	0.44807	0.55223	0.58163	0.56
Mof_C 	C 	0.42187	0.57553	0.58783	-0.227
Mof_C 	C 	0.38577	0.56023	0.55903	0.134
Mof_H 	H 	0.37607	0.53553	0.53753	-0.002
Mof_C 	C 	0.36237	0.58123	0.56123	-0.197
Mof_H 	H 	0.33627	0.56983	0.54263	0.097
Mof_C 	C 	0.37807	0.61893	0.59093	0.122
Mof_C 	C 	0.41447	0.63283	0.62223	-0.218
Mof_H 	H 	0.42417	0.65703	0.64483	0.105
Mof_C 	C 	0.43657	0.61163	0.62033	0.155
Mof_H 	H 	0.46157	0.62153	0.64103	-0.024
Mof_C 	C 	0.35507	0.64333	0.59143	-0.021
Mof_C 	C 	0.37577	0.68673	0.59073	-0.048
Mof_H 	H 	0.40537	0.70083	0.58973	0.045
Mof_C 	C 	0.95457	0.56053	0.52443	0.337
Mof_C 	C 	0.93207	0.57693	0.55843	-0.102
Mof_C 	C 	0.93707	0.58403	0.61123	-0.072
Mof_H 	H 	0.95767	0.58073	0.63043	0.056
Mof_C 	C 	0.91167	0.59683	0.64083	0.107
Mof_H 	H 	0.92027	0.60813	0.67693	-0.015
Mof_C 	C 	0.87427	0.58603	0.56693	-0.126
Mof_H 	H 	0.84997	0.58273	0.54903	0.064
Mof_C 	C 	0.87567	0.59383	0.61983	0.032
Mof_C 	C 	0.90047	0.58173	0.53283	0.052
Mof_C 	C 	0.84447	0.60133	0.65053	0.034
Mof_C 	C 	0.85017	0.61123	0.70723	-0.093
Mof_H 	H 	0.87377	0.61313	0.72553	0.057
Mof_C 	C 	0.82127	0.61873	0.73853	0.012
Mof_C 	C 	0.78577	0.61323	0.70983	-0.085
Mof_H 	H 	0.76617	0.61803	0.72933	0.057
Mof_C 	C 	0.77787	0.60153	0.65583	0.023
Mof_C 	C 	0.80897	0.59703	0.62583	-0.096
Mof_H 	H 	0.80487	0.59083	0.58733	0.06
Mof_C 	C 	0.82737	0.63083	0.80073	0.105
Mof_C 	C 	0.86907	0.65613	0.82183	-0.196
Mof_H 	H 	0.89277	0.66773	0.79833	0.1
Mof_C 	C 	0.87237	0.66253	0.88083	0.146
Mof_H 	H 	0.89957	0.67833	0.89603	-0.013
Mof_C 	C 	0.83937	0.64763	0.91643	-0.234
Mof_C 	C 	0.80027	0.62403	0.89283	0.139
Mof_H 	H 	0.77677	0.61343	0.91663	-0.011
Mof_C 	C 	0.79307	0.61473	0.83643	-0.2
Mof_H 	H 	0.76557	0.59783	0.82263	0.098
Mof_C 	C 	0.84557	0.65203	0.97913	0.52
Mof_C 	C 	0.73787	0.59283	0.62843	0.078
Mof_C 	C 	0.71927	0.61783	0.64183	-0.183
Mof_H 	H 	0.73327	0.64083	0.66623	0.09
Mof_C 	C 	0.68127	0.60853	0.61963	0.131
Mof_H 	H 	0.66937	0.62523	0.62923	-0.02
Mof_C 	C 	0.65837	0.57263	0.58043	-0.248
Mof_C 	C 	0.67657	0.54813	0.56703	0.118
Mof_H 	H 	0.66217	0.52493	0.54283	0.001
Mof_C 	C 	0.71637	0.55733	0.58933	-0.16
Mof_H 	H 	0.72877	0.54113	0.57913	0.085
Mof_C 	C 	0.61567	0.56053	0.56263	0.599
Mof_C 	C 	0.54467	0.59953	0.47433	0.123
Mof_C 	C 	0.55327	0.63733	0.43733	-0.021
Mof_C 	C 	0.54797	0.63773	0.38433	0.065
Mof_C 	C 	0.56797	0.67823	0.35263	-0.199
Mof_C 	C 	0.60337	0.72313	0.44153	0.001
Mof_H 	H 	0.53117	0.61213	0.36523	0.016
Mof_H 	H 	0.56367	0.67773	0.31373	0.092
Mof_H 	H 	0.62037	0.74873	0.46033	0.017
Mof_In	In	0.20561	0.90458	0.92682	2.901
Mof_Cu	Cu	0.21042	0.84235	0.82099	0.926
Mof_O 	O 	0.17513	0.84295	0.88687	-0.747
Mof_O 	O 	0.10293	0.85797	0.88207	-0.519
Mof_O 	O 	0.14963	0.90367	0.94417	-0.77
Mof_O 	O 	0.26633	0.91467	0.91457	-0.807
Mof_O 	O 	0.26303	0.86317	0.86337	-0.481
Mof_O 	O 	0.65693	0.89907	0.87917	-0.38
Mof_O 	O 	0.48033	0.96937	0.34317	-0.353
Mof_O 	O 	0.60643	0.87477	0.81347	-0.802
Mof_O 	O 	0.54973	0.01107	0.32787	-0.789
Mof_C 	C 	0.11473	0.88557	0.91497	0.56
Mof_C 	C 	0.08853	0.90887	0.92117	-0.227
Mof_C 	C 	0.05243	0.89357	0.89237	0.135
Mof_H 	H 	0.04273	0.86887	0.87087	-0.002
Mof_C 	C 	0.02903	0.91457	0.89457	-0.198
Mof_H 	H 	0.00293	0.90317	0.87597	0.097
Mof_C 	C 	0.04473	0.95227	0.92427	0.123
Mof_C 	C 	0.08113	0.96617	0.95557	-0.219
Mof_H 	H 	0.09083	0.99037	0.97817	0.106
Mof_C 	C 	0.10323	0.94497	0.95367	0.156
Mof_H 	H 	0.12823	0.95487	0.97437	-0.024
Mof_C 	C 	0.02173	0.97667	0.92477	-0.023
Mof_C 	C 	0.04243	0.02007	0.92407	-0.046
Mof_H 	H 	0.07203	0.03417	0.92307	0.044
Mof_C 	C 	0.62123	0.89387	0.85777	0.337
Mof_C 	C 	0.59873	0.91027	0.89177	-0.101
Mof_C 	C 	0.60373	0.91737	0.94457	-0.072
Mof_H 	H 	0.62433	0.91407	0.96377	0.056
Mof_C 	C 	0.57833	0.93017	0.97417	0.106
Mof_H 	H 	0.58693	0.94147	0.01027	-0.015
Mof_C 	C 	0.54093	0.91937	0.90027	-0.126
Mof_H 	H 	0.51663	0.91607	0.88237	0.064
Mof_C 	C 	0.54233	0.92717	0.95317	0.033
Mof_C 	C 	0.56713	0.91507	0.86617	0.052
Mof_C 	C 	0.51113	0.93467	0.98387	0.033
Mof_C 	C 	0.51683	0.94457	0.04057	-0.092
Mof_H 	H 	0.54043	0.94647	0.05887	0.057
Mof_C 	C 	0.48793	0.95207	0.07187	0.012
Mof_C 	C 	0.45243	0.94657	0.04317	-0.084
Mof_H 	H 	0.43283	0.95137	0.06267	0.057
Mof_C 	C 	0.44453	0.93487	0.98917	0.022
Mof_C 	C 	0.47563	0.93037	0.95917	-0.095
Mof_H 	H 	0.47153	0.92417	0.92067	0.06
Mof_C 	C 	0.49403	0.96417	0.13407	0.105
Mof_C 	C 	0.53573	0.98947	0.15517	-0.196
Mof_H 	H 	0.55943	0.00107	0.13167	0.099
Mof_C 	C 	0.53903	0.99587	0.21417	0.146
Mof_H 	H 	0.56623	0.01167	0.22937	-0.013
Mof_C 	C 	0.50603	0.98097	0.24977	-0.235
Mof_C 	C 	0.46693	0.95737	0.22617	0.139
Mof_H 	H 	0.44343	0.94677	0.24997	-0.011
Mof_C 	C 	0.45973	0.94807	0.16977	-0.2
Mof_H 	H 	0.43223	0.93117	0.15597	0.098
Mof_C 	C 	0.51223	0.98537	0.31247	0.52
Mof_C 	C 	0.40453	0.92617	0.96177	0.078
Mof_C 	C 	0.38593	0.95117	0.97517	-0.184
Mof_H 	H 	0.39993	0.97417	0.99957	0.089
Mof_C 	C 	0.34793	0.94187	0.95297	0.131
Mof_H 	H 	0.33603	0.95857	0.96257	-0.02
Mof_C 	C 	0.32503	0.90597	0.91377	-0.248
Mof_C 	C 	0.34323	0.88147	0.90037	0.118
Mof_H 	H 	0.32883	0.85827	0.87617	0.001
Mof_C 	C 	0.38303	0.89067	0.92267	-0.16
Mof_H 	H 	0.39543	0.87447	0.91247	0.085
Mof_C 	C 	0.28233	0.89387	0.89597	0.599
Mof_C 	C 	0.21133	0.93287	0.80767	0.122
Mof_C 	C 	0.21993	0.97067	0.77067	-0.021
Mof_C 	C 	0.21463	0.97107	0.71767	0.066
Mof_C 	C 	0.23463	0.01157	0.68597	-0.199
Mof_C 	C 	0.27003	0.05647	0.77487	0.001
Mof_H 	H 	0.19783	0.94547	0.69857	0.016
Mof_H 	H 	0.23033	0.01107	0.64707	0.092
Mof_H 	H 	0.28703	0.08207	0.79367	0.017
Mof_In	In	0.76209	0.63437	0.26015	2.901
Mof_Cu	Cu	0.82432	0.70141	0.15432	0.926
Mof_O 	O 	0.82372	0.66552	0.2202	-0.747
Mof_O 	O 	0.8087	0.5783	0.2154	-0.519
Mof_O 	O 	0.763	0.5793	0.2775	-0.77
Mof_O 	O 	0.752	0.685	0.2479	-0.807
Mof_O 	O 	0.8035	0.7332	0.1967	-0.481
Mof_O 	O 	0.7676	0.0912	0.2125	-0.38
Mof_O 	O 	0.6973	0.8443	0.6765	-0.353
Mof_O 	O 	0.7919	0.065	0.1468	-0.802
Mof_O 	O 	0.6556	0.872	0.6612	-0.788
Mof_C 	C 	0.7811	0.5625	0.2483	0.56
Mof_C 	C 	0.7578	0.513	0.2545	-0.227
Mof_C 	C 	0.7731	0.4922	0.2257	0.134
Mof_H 	H 	0.7978	0.5072	0.2042	-0.002
Mof_C 	C 	0.7521	0.4478	0.2279	-0.197
Mof_H 	H 	0.7635	0.4331	0.2093	0.096
Mof_C 	C 	0.7144	0.4258	0.2576	0.122
Mof_C 	C 	0.7005	0.4483	0.2889	-0.218
Mof_H 	H 	0.6763	0.4338	0.3115	0.105
Mof_C 	C 	0.7217	0.4916	0.287	0.155
Mof_H 	H 	0.7118	0.5067	0.3077	-0.024
Mof_C 	C 	0.69	0.3784	0.2581	-0.021
Mof_C 	C 	0.6466	0.3557	0.2574	-0.048
Mof_H 	H 	0.6325	0.3712	0.2564	0.045
Mof_C 	C 	0.7728	0.0607	0.1911	0.337
Mof_C 	C 	0.7564	0.0218	0.2251	-0.102
Mof_C 	C 	0.7493	0.0197	0.2779	-0.072
Mof_H 	H 	0.7526	0.0436	0.2971	0.056
Mof_C 	C 	0.7365	0.9815	0.3075	0.107
Mof_H 	H 	0.7252	0.9788	0.3436	-0.015
Mof_C 	C 	0.7473	0.9549	0.2336	-0.126
Mof_H 	H 	0.7506	0.9339	0.2157	0.064
Mof_C 	C 	0.7395	0.9485	0.2865	0.032
Mof_C 	C 	0.7516	0.9854	0.1995	0.052
Mof_C 	C 	0.732	0.9098	0.3172	0.034
Mof_C 	C 	0.7221	0.9056	0.3739	-0.093
Mof_H 	H 	0.7202	0.9273	0.3922	0.057
Mof_C 	C 	0.7146	0.8692	0.4052	0.012
Mof_C 	C 	0.7201	0.8392	0.3765	-0.085
Mof_H 	H 	0.7153	0.8148	0.396	0.057
Mof_C 	C 	0.7318	0.843	0.3225	0.023
Mof_C 	C 	0.7363	0.8786	0.2925	-0.096
Mof_H 	H 	0.7425	0.8807	0.254	0.06
Mof_C 	C 	0.7025	0.8632	0.4674	0.104
Mof_C 	C 	0.6772	0.8796	0.4885	-0.196
Mof_H 	H 	0.6656	0.8917	0.465	0.1
Mof_C 	C 	0.6708	0.8765	0.5475	0.146
Mof_H 	H 	0.655	0.8879	0.5627	-0.013
Mof_C 	C 	0.6857	0.8584	0.5831	-0.234
Mof_C 	C 	0.7093	0.8429	0.5595	0.139
Mof_H 	H 	0.7199	0.83	0.5833	-0.011
Mof_C 	C 	0.7186	0.845	0.5031	-0.2
Mof_H 	H 	0.7355	0.8344	0.4893	0.098
Mof_C 	C 	0.6813	0.8602	0.6458	0.52
Mof_C 	C 	0.7405	0.8117	0.2951	0.078
Mof_C 	C 	0.7155	0.7681	0.3085	-0.183
Mof_H 	H 	0.6925	0.7591	0.3329	0.09
Mof_C 	C 	0.7248	0.7394	0.2863	0.131
Mof_H 	H 	0.7081	0.7108	0.2959	-0.02
Mof_C 	C 	0.7607	0.7524	0.2471	-0.248
Mof_C 	C 	0.7852	0.7951	0.2337	0.118
Mof_H 	H 	0.8084	0.8039	0.2095	0.001
Mof_C 	C 	0.776	0.8257	0.256	-0.16
Mof_H 	H 	0.7922	0.8543	0.2458	0.085
Mof_C 	C 	0.7728	0.7218	0.2293	0.599
Mof_C 	C 	0.7338	0.6118	0.141	0.122
Mof_C 	C 	0.696	0.5826	0.104	-0.021
Mof_C 	C 	0.6956	0.5769	0.051	0.066
Mof_C 	C 	0.6551	0.5564	0.0193	-0.199
Mof_C 	C 	0.6102	0.5469	0.1082	0.001
Mof_H 	H 	0.7212	0.5857	0.0319	0.016
Mof_H 	H 	0.6556	0.5526	0.9804	0.092
Mof_H 	H 	0.5846	0.5383	0.127	0.017
Mof_In	In	0.42876	0.9677	0.59348	2.902
Mof_Cu	Cu	0.49099	0.03474	0.48765	0.926
Mof_O 	O 	0.49039	0.99885	0.55353	-0.747
Mof_O 	O 	0.47537	0.91163	0.54873	-0.519
Mof_O 	O 	0.42967	0.91263	0.61083	-0.77
Mof_O 	O 	0.41867	0.01833	0.58123	-0.807
Mof_O 	O 	0.47017	0.06653	0.53003	-0.481
Mof_O 	O 	0.43427	0.42453	0.54583	-0.38
Mof_O 	O 	0.36397	0.17763	0.00983	-0.354
Mof_O 	O 	0.45857	0.39833	0.48013	-0.802
Mof_O 	O 	0.32227	0.20533	0.99453	-0.789
Mof_C 	C 	0.44777	0.89583	0.58163	0.56
Mof_C 	C 	0.42447	0.84633	0.58783	-0.227
Mof_C 	C 	0.43977	0.82553	0.55903	0.134
Mof_H 	H 	0.46447	0.84053	0.53753	-0.002
Mof_C 	C 	0.41877	0.78113	0.56123	-0.197
Mof_H 	H 	0.43017	0.76643	0.54263	0.096
Mof_C 	C 	0.38107	0.75913	0.59093	0.122
Mof_C 	C 	0.36717	0.78163	0.62223	-0.218
Mof_H 	H 	0.34297	0.76713	0.64483	0.105
Mof_C 	C 	0.38837	0.82493	0.62033	0.155
Mof_H 	H 	0.37847	0.84003	0.64103	-0.024
Mof_C 	C 	0.35667	0.71173	0.59143	-0.021
Mof_C 	C 	0.31327	0.68903	0.59073	-0.048
Mof_H 	H 	0.29917	0.70453	0.58973	0.045
Mof_C 	C 	0.43947	0.39403	0.52443	0.337
Mof_C 	C 	0.42307	0.35513	0.55843	-0.102
Mof_C 	C 	0.41597	0.35303	0.61123	-0.072
Mof_H 	H 	0.41927	0.37693	0.63043	0.056
Mof_C 	C 	0.40317	0.31483	0.64083	0.107
Mof_H 	H 	0.39187	0.31213	0.67693	-0.015
Mof_C 	C 	0.41397	0.28823	0.56693	-0.126
Mof_H 	H 	0.41727	0.26723	0.54903	0.064
Mof_C 	C 	0.40617	0.28183	0.61983	0.032
Mof_C 	C 	0.41827	0.31873	0.53283	0.052
Mof_C 	C 	0.39867	0.24313	0.65053	0.035
Mof_C 	C 	0.38877	0.23893	0.70723	-0.093
Mof_H 	H 	0.38687	0.26063	0.72553	0.057
Mof_C 	C 	0.38127	0.20253	0.73853	0.012
Mof_C 	C 	0.38677	0.17253	0.70983	-0.085
Mof_H 	H 	0.38197	0.14813	0.72933	0.057
Mof_C 	C 	0.39847	0.17633	0.65583	0.023
Mof_C 	C 	0.40297	0.21193	0.62583	-0.096
Mof_H 	H 	0.40917	0.21403	0.58733	0.06
Mof_C 	C 	0.36917	0.19653	0.80073	0.105
Mof_C 	C 	0.34387	0.21293	0.82183	-0.196
Mof_H 	H 	0.33227	0.22503	0.79833	0.1
Mof_C 	C 	0.33747	0.20983	0.88083	0.146
Mof_H 	H 	0.32167	0.22123	0.89603	-0.013
Mof_C 	C 	0.35237	0.19173	0.91643	-0.234
Mof_C 	C 	0.37597	0.17623	0.89283	0.139
Mof_H 	H 	0.38657	0.16333	0.91663	-0.011
Mof_C 	C 	0.38527	0.17833	0.83643	-0.2
Mof_H 	H 	0.40217	0.16773	0.82263	0.098
Mof_C 	C 	0.34797	0.19353	0.97913	0.52
Mof_C 	C 	0.40717	0.14503	0.62843	0.078
Mof_C 	C 	0.38217	0.10143	0.64183	-0.183
Mof_H 	H 	0.35917	0.09243	0.66623	0.09
Mof_C 	C 	0.39147	0.07273	0.61963	0.131
Mof_H 	H 	0.37477	0.04413	0.62923	-0.02
Mof_C 	C 	0.42737	0.08573	0.58043	-0.248
Mof_C 	C 	0.45187	0.12843	0.56703	0.118
Mof_H 	H 	0.47507	0.13723	0.54283	0.001
Mof_C 	C 	0.44267	0.15903	0.58933	-0.16
Mof_H 	H 	0.45887	0.18763	0.57913	0.085
Mof_C 	C 	0.43947	0.05513	0.56263	0.599
Mof_C 	C 	0.40047	0.94513	0.47433	0.122
Mof_C 	C 	0.36267	0.91593	0.43733	-0.021
Mof_C 	C 	0.36227	0.91023	0.38433	0.066
Mof_C 	C 	0.32177	0.88973	0.35263	-0.198
Mof_C 	C 	0.27687	0.88023	0.44153	0.001
Mof_H 	H 	0.38787	0.91903	0.36523	0.016
Mof_H 	H 	0.32227	0.88593	0.31373	0.092
Mof_H 	H 	0.25127	0.87163	0.46033	0.017
Mof_In	In	0.09542	0.30104	0.92682	2.901
Mof_Cu	Cu	0.15765	0.36808	0.82099	0.926
Mof_O 	O 	0.15705	0.33219	0.88687	-0.747
Mof_O 	O 	0.14203	0.24497	0.88207	-0.519
Mof_O 	O 	0.09633	0.24597	0.94417	-0.77
Mof_O 	O 	0.08533	0.35167	0.91457	-0.807
Mof_O 	O 	0.13683	0.39987	0.86337	-0.481
Mof_O 	O 	0.10093	0.75787	0.87917	-0.38
Mof_O 	O 	0.03063	0.51097	0.34317	-0.353
Mof_O 	O 	0.12523	0.73167	0.81347	-0.802
Mof_O 	O 	0.98893	0.53867	0.32787	-0.789
Mof_C 	C 	0.11443	0.22917	0.91497	0.56
Mof_C 	C 	0.09113	0.17967	0.92117	-0.227
Mof_C 	C 	0.10643	0.15887	0.89237	0.135
Mof_H 	H 	0.13113	0.17387	0.87087	-0.002
Mof_C 	C 	0.08543	0.11447	0.89457	-0.198
Mof_H 	H 	0.09683	0.09977	0.87597	0.097
Mof_C 	C 	0.04773	0.09247	0.92427	0.123
Mof_C 	C 	0.03383	0.11497	0.95557	-0.219
Mof_H 	H 	0.00963	0.10047	0.97817	0.106
Mof_C 	C 	0.05503	0.15827	0.95367	0.156
Mof_H 	H 	0.04513	0.17337	0.97437	-0.024
Mof_C 	C 	0.02333	0.04507	0.92477	-0.023
Mof_C 	C 	0.97993	0.02237	0.92407	-0.046
Mof_H 	H 	0.96583	0.03787	0.92307	0.044
Mof_C 	C 	0.10613	0.72737	0.85777	0.337
Mof_C 	C 	0.08973	0.68847	0.89177	-0.101
Mof_C 	C 	0.08263	0.68637	0.94457	-0.072
Mof_H 	H 	0.08593	0.71027	0.96377	0.056
Mof_C 	C 	0.06983	0.64817	0.97417	0.106
Mof_H 	H 	0.05853	0.64547	0.01027	-0.015
Mof_C 	C 	0.08063	0.62157	0.90027	-0.126
Mof_H 	H 	0.08393	0.60057	0.88237	0.064
Mof_C 	C 	0.07283	0.61517	0.95317	0.033
Mof_C 	C 	0.08493	0.65207	0.86617	0.052
Mof_C 	C 	0.06533	0.57647	0.98387	0.033
Mof_C 	C 	0.05543	0.57227	0.04057	-0.092
Mof_H 	H 	0.05353	0.59397	0.05887	0.057
Mof_C 	C 	0.04793	0.53587	0.07187	0.012
Mof_C 	C 	0.05343	0.50587	0.04317	-0.084
Mof_H 	H 	0.04863	0.48147	0.06267	0.057
Mof_C 	C 	0.06513	0.50967	0.98917	0.021
Mof_C 	C 	0.06963	0.54527	0.95917	-0.095
Mof_H 	H 	0.07583	0.54737	0.92067	0.06
Mof_C 	C 	0.03583	0.52987	0.13407	0.105
Mof_C 	C 	0.01053	0.54627	0.15517	-0.196
Mof_H 	H 	0.99893	0.55837	0.13167	0.099
Mof_C 	C 	0.00413	0.54317	0.21417	0.146
Mof_H 	H 	0.98833	0.55457	0.22937	-0.013
Mof_C 	C 	0.01903	0.52507	0.24977	-0.235
Mof_C 	C 	0.04263	0.50957	0.22617	0.139
Mof_H 	H 	0.05323	0.49667	0.24997	-0.011
Mof_C 	C 	0.05193	0.51167	0.16977	-0.2
Mof_H 	H 	0.06883	0.50107	0.15597	0.098
Mof_C 	C 	0.01463	0.52687	0.31247	0.52
Mof_C 	C 	0.07383	0.47837	0.96177	0.079
Mof_C 	C 	0.04883	0.43477	0.97517	-0.184
Mof_H 	H 	0.02583	0.42577	0.99957	0.09
Mof_C 	C 	0.05813	0.40607	0.95297	0.131
Mof_H 	H 	0.04143	0.37747	0.96257	-0.02
Mof_C 	C 	0.09403	0.41907	0.91377	-0.248
Mof_C 	C 	0.11853	0.46177	0.90037	0.118
Mof_H 	H 	0.14173	0.47057	0.87617	0.001
Mof_C 	C 	0.10933	0.49237	0.92267	-0.16
Mof_H 	H 	0.12553	0.52097	0.91247	0.085
Mof_C 	C 	0.10613	0.38847	0.89597	0.6
Mof_C 	C 	0.06713	0.27847	0.80767	0.122
Mof_C 	C 	0.02933	0.24927	0.77067	-0.021
Mof_C 	C 	0.02893	0.24357	0.71767	0.066
Mof_C 	C 	0.98843	0.22307	0.68597	-0.199
Mof_C 	C 	0.94353	0.21357	0.77487	0.001
Mof_H 	H 	0.05453	0.25237	0.69857	0.016
Mof_H 	H 	0.98893	0.21927	0.64707	0.092
Mof_H 	H 	0.91793	0.20497	0.79367	0.017
_end
