data_functionalizedCrystal
_audit_creation_method	'EQeq! by Chris Wilmer'
_symmetry_space_group_name_H-M	'P1'
_symmetry_Int_Tables_number	1
_symmetry_cell_setting	triclinic
loop_
_symmetry_equiv_pos_as_xyz
  x,y,z
_cell_length_a	20.7604
_cell_length_b	20.7604
_cell_length_c	20.7604
_cell_angle_alpha	90
_cell_angle_beta	90
_cell_angle_gamma	90
loop_
_atom_site_label
_atom_site_type_symbol
_atom_site_fract_x
_atom_site_fract_y
_atom_site_fract_z
_atom_site_charge
Mof_Zr	Zr	0.11931	0	-0	3.198
Mof_Zr	Zr	0.11931	0.5	0.5	3.266
Mof_Zr	Zr	0.61931	0	0.5	3.217
Mof_Zr	Zr	0.61931	0.5	-0	3.217
Mof_Zr	Zr	0.88069	0	-0	3.166
Mof_Zr	Zr	0.88069	0.5	0.5	3.231
Mof_Zr	Zr	0.38069	0	0.5	3.216
Mof_Zr	Zr	0.38069	0.5	-0	3.216
Mof_Zr	Zr	-0	0.11931	-0	3.198
Mof_Zr	Zr	-3.76782e-33	0.61931	0.5	3.217
Mof_Zr	Zr	0.5	0.11931	0.5	3.266
Mof_Zr	Zr	0.5	0.61931	-0	3.217
Mof_Zr	Zr	-0	0.88069	-0	3.166
Mof_Zr	Zr	7.51722e-33	0.38069	0.5	3.216
Mof_Zr	Zr	0.5	0.88069	0.5	3.231
Mof_Zr	Zr	0.5	0.38069	-0	3.216
Mof_Zr	Zr	4.47341e-34	0	0.11931	3.198
Mof_Zr	Zr	-3.32048e-33	0.5	0.61931	3.217
Mof_Zr	Zr	0.5	0	0.61931	3.217
Mof_Zr	Zr	0.5	0.5	0.11931	3.266
Mof_Zr	Zr	3.30206e-33	0	0.88069	3.166
Mof_Zr	Zr	9.89114e-33	0.5	0.38069	3.216
Mof_Zr	Zr	0.5	0	0.38069	3.216
Mof_Zr	Zr	0.5	0.5	0.88069	3.231
Mof_O 	O 	0.1698	0.0947	-0	-0.342
Mof_C 	C 	0.267	0.1855	-0	-0.04
Mof_H 	H 	0.2789	0.1413	-0	0.006
Mof_O 	O 	0.1846	0.0805	-0	-0.328
Mof_O 	O 	0.1698	0.5947	0.5	-0.204
Mof_C 	C 	0.267	0.6855	0.5	0.003
Mof_H 	H 	0.2789	0.6413	0.5	0.065
Mof_O 	O 	0.1846	0.5805	0.5	-0.324
Mof_O 	O 	0.6698	0.0947	0.5	-0.236
Mof_C 	C 	0.767	0.1855	0.5	0.019
Mof_H 	H 	0.7789	0.1413	0.5	0.075
Mof_O 	O 	0.6846	0.0805	0.5	-0.313
Mof_O 	O 	0.6698	0.5947	-0	-0.289
Mof_C 	C 	0.767	0.6855	-0	0.014
Mof_H 	H 	0.7789	0.6413	-0	0.04
Mof_O 	O 	0.6846	0.5805	-0	-0.338
Mof_O 	O 	0.8302	0.9053	-0	-0.133
Mof_C 	C 	0.733	0.8145	-0	-0.098
Mof_H 	H 	0.7211	0.8587	-0	0.118
Mof_O 	O 	0.8154	0.9195	-0	-0.335
Mof_O 	O 	0.8302	0.4053	0.5	-0.259
Mof_C 	C 	0.733	0.3145	0.5	-0.058
Mof_H 	H 	0.7211	0.3587	0.5	0.084
Mof_O 	O 	0.8154	0.4195	0.5	-0.265
Mof_O 	O 	0.3302	0.9053	0.5	-0.004
Mof_C 	C 	0.233	0.8145	0.5	-0.058
Mof_H 	H 	0.2211	0.8587	0.5	0.148
Mof_O 	O 	0.3154	0.9195	0.5	-0.364
Mof_O 	O 	0.3302	0.4053	-0	-0.323
Mof_C 	C 	0.233	0.3145	-0	-0.063
Mof_H 	H 	0.2211	0.3587	-0	0.018
Mof_O 	O 	0.3154	0.4195	-0	-0.323
Mof_O 	O 	0.8302	0.0947	-0	-0.394
Mof_C 	C 	0.733	0.1855	-0	-0.07
Mof_H 	H 	0.7211	0.1413	-0	0.018
Mof_O 	O 	0.8154	0.0805	-0	-0.267
Mof_O 	O 	0.8302	0.5947	0.5	-0.257
Mof_C 	C 	0.733	0.6855	0.5	-0.028
Mof_H 	H 	0.7211	0.6413	0.5	0.077
Mof_O 	O 	0.8154	0.5805	0.5	-0.265
Mof_O 	O 	0.3302	0.0947	0.5	-0.269
Mof_C 	C 	0.233	0.1855	0.5	-0.029
Mof_H 	H 	0.2211	0.1413	0.5	0.046
Mof_O 	O 	0.3154	0.0805	0.5	-0.297
Mof_O 	O 	0.3302	0.5947	-0	-0.322
Mof_C 	C 	0.233	0.6855	-0	-0.033
Mof_H 	H 	0.2211	0.6413	-0	0.011
Mof_O 	O 	0.3154	0.5805	-0	-0.322
Mof_O 	O 	0.1698	0.9053	-0	-0.08
Mof_C 	C 	0.267	0.8145	-0	-0.069
Mof_H 	H 	0.2789	0.8587	-0	0.107
Mof_O 	O 	0.1846	0.9195	-0	-0.394
Mof_O 	O 	0.1698	0.4053	0.5	-0.207
Mof_C 	C 	0.267	0.3145	0.5	-0.028
Mof_H 	H 	0.2789	0.3587	0.5	0.071
Mof_O 	O 	0.1846	0.4195	0.5	-0.325
Mof_O 	O 	0.6698	0.9053	0.5	0.025
Mof_C 	C 	0.767	0.8145	0.5	-0.009
Mof_H 	H 	0.7789	0.8587	0.5	0.175
Mof_O 	O 	0.6846	0.9195	0.5	-0.378
Mof_O 	O 	0.6698	0.4053	-0	-0.291
Mof_C 	C 	0.767	0.3145	-0	-0.015
Mof_H 	H 	0.7789	0.3587	-0	0.047
Mof_O 	O 	0.6846	0.4195	-0	-0.339
Mof_O 	O 	1.06038e-33	0.1698	0.0947	-0.343
Mof_C 	C 	3.51677e-33	0.267	0.1855	-0.041
Mof_H 	H 	1.94042e-33	0.2789	0.1413	0.005
Mof_O 	O 	1.00714e-33	0.1846	0.0805	-0.329
Mof_O 	O 	7.87229e-33	0.6698	0.5947	-0.289
Mof_C 	C 	8.21274e-33	0.767	0.6855	0.014
Mof_H 	H 	1.36895e-32	0.7789	0.6413	0.04
Mof_O 	O 	-3.466e-33	0.6846	0.5805	-0.338
Mof_O 	O 	0.5	0.1698	0.5947	-0.205
Mof_C 	C 	0.5	0.267	0.6855	0.002
Mof_H 	H 	0.5	0.2789	0.6413	0.064
Mof_O 	O 	0.5	0.1846	0.5805	-0.325
Mof_O 	O 	0.5	0.6698	0.0947	-0.237
Mof_C 	C 	0.5	0.767	0.1855	0.019
Mof_H 	H 	0.5	0.7789	0.1413	0.075
Mof_O 	O 	0.5	0.6846	0.0805	-0.313
Mof_O 	O 	-7.89071e-33	0.8302	0.9053	-0.133
Mof_C 	C 	1.43389e-32	0.733	0.8145	-0.098
Mof_H 	H 	-1.93505e-32	0.7211	0.8587	0.118
Mof_O 	O 	-1.91225e-32	0.8154	0.9195	-0.335
Mof_O 	O 	4.34089e-33	0.3302	0.4053	-0.323
Mof_C 	C 	-4.46334e-33	0.233	0.3145	-0.063
Mof_H 	H 	1.34491e-33	0.2211	0.3587	0.018
Mof_O 	O 	7.2154e-33	0.3154	0.4195	-0.323
Mof_O 	O 	0.5	0.8302	0.4053	-0.259
Mof_C 	C 	0.5	0.733	0.3145	-0.058
Mof_H 	H 	0.5	0.7211	0.3587	0.084
Mof_O 	O 	0.5	0.8154	0.4195	-0.265
Mof_O 	O 	0.5	0.3302	0.9053	-0.004
Mof_C 	C 	0.5	0.233	0.8145	-0.058
Mof_H 	H 	0.5	0.2211	0.8587	0.148
Mof_O 	O 	0.5	0.3154	0.9195	-0.364
Mof_O 	O 	-4.58214e-33	0.8302	0.0947	-0.394
Mof_C 	C 	6.95514e-34	0.733	0.1855	-0.07
Mof_H 	H 	-8.8084e-34	0.7211	0.1413	0.018
Mof_O 	O 	-3.22475e-33	0.8154	0.0805	-0.267
Mof_O 	O 	7.87229e-33	0.3302	0.5947	-0.322
Mof_C 	C 	-3.07231e-33	0.233	0.6855	-0.033
Mof_H 	H 	-8.88055e-33	0.2211	0.6413	0.011
Mof_O 	O 	-3.466e-33	0.3154	0.5805	-0.322
Mof_O 	O 	0.5	0.8302	0.5947	-0.257
Mof_C 	C 	0.5	0.733	0.6855	-0.028
Mof_H 	H 	0.5	0.7211	0.6413	0.077
Mof_O 	O 	0.5	0.8154	0.5805	-0.265
Mof_O 	O 	0.5	0.3302	0.0947	-0.269
Mof_C 	C 	0.5	0.233	0.1855	-0.029
Mof_H 	H 	0.5	0.2211	0.1413	0.046
Mof_O 	O 	0.5	0.3154	0.0805	-0.297
Mof_O 	O 	3.39433e-33	0.1698	0.9053	-0.08
Mof_C 	C 	-2.58864e-33	0.267	0.8145	-0.069
Mof_H 	H 	-8.06543e-33	0.2789	0.8587	0.107
Mof_O 	O 	-7.83747e-33	0.1846	0.9195	-0.394
Mof_O 	O 	1.51963e-33	0.6698	0.4053	-0.291
Mof_C 	C 	-1.64207e-33	0.767	0.3145	-0.015
Mof_H 	H 	4.16617e-33	0.7789	0.3587	0.047
Mof_O 	O 	1.57287e-33	0.6846	0.4195	-0.339
Mof_O 	O 	0.5	0.1698	0.4053	-0.207
Mof_C 	C 	0.5	0.267	0.3145	-0.028
Mof_H 	H 	0.5	0.2789	0.3587	0.071
Mof_O 	O 	0.5	0.1846	0.4195	-0.325
Mof_O 	O 	0.5	0.6698	0.9053	0.025
Mof_C 	C 	0.5	0.767	0.8145	-0.009
Mof_H 	H 	0.5	0.7789	0.8587	0.175
Mof_O 	O 	0.5	0.6846	0.9195	-0.378
Mof_O 	O 	0.0947	-1.41063e-33	0.1698	-0.343
Mof_C 	C 	0.1855	0	0.267	-0.041
Mof_H 	H 	0.1413	0	0.2789	0.005
Mof_O 	O 	0.0805	0	0.1846	-0.329
Mof_O 	O 	0.0947	0.5	0.6698	-0.237
Mof_C 	C 	0.1855	0.5	0.767	0.019
Mof_H 	H 	0.1413	0.5	0.7789	0.075
Mof_O 	O 	0.0805	0.5	0.6846	-0.313
Mof_O 	O 	0.5947	0	0.6698	-0.289
Mof_C 	C 	0.6855	0	0.767	0.014
Mof_H 	H 	0.6413	0	0.7789	0.04
Mof_O 	O 	0.5805	-5.64252e-33	0.6846	-0.338
Mof_O 	O 	0.5947	0.5	0.1698	-0.205
Mof_C 	C 	0.6855	0.5	0.267	0.002
Mof_H 	H 	0.6413	0.5	0.2789	0.064
Mof_O 	O 	0.5805	0.5	0.1846	-0.325
Mof_O 	O 	0.9053	-1.1285e-32	0.8302	-0.133
Mof_C 	C 	0.8145	0	0.733	-0.098
Mof_H 	H 	0.8587	0	0.7211	0.118
Mof_O 	O 	0.9195	-5.64252e-33	0.8154	-0.335
Mof_O 	O 	0.9053	0.5	0.3302	-0.004
Mof_C 	C 	0.8145	0.5	0.233	-0.058
Mof_H 	H 	0.8587	0.5	0.2211	0.148
Mof_O 	O 	0.9195	0.5	0.3154	-0.364
Mof_O 	O 	0.4053	0	0.3302	-0.323
Mof_C 	C 	0.3145	0	0.233	-0.063
Mof_H 	H 	0.3587	-2.82126e-33	0.2211	0.018
Mof_O 	O 	0.4195	2.82126e-33	0.3154	-0.323
Mof_O 	O 	0.4053	0.5	0.8302	-0.259
Mof_C 	C 	0.3145	0.5	0.733	-0.058
Mof_H 	H 	0.3587	0.5	0.7211	0.084
Mof_O 	O 	0.4195	0.5	0.8154	-0.265
Mof_O 	O 	0.0947	-1.1285e-32	0.8302	-0.394
Mof_C 	C 	0.1855	0	0.733	-0.07
Mof_H 	H 	0.1413	0	0.7211	0.018
Mof_O 	O 	0.0805	-5.64252e-33	0.8154	-0.267
Mof_O 	O 	0.0947	0.5	0.3302	-0.269
Mof_C 	C 	0.1855	0.5	0.233	-0.029
Mof_H 	H 	0.1413	0.5	0.2211	0.046
Mof_O 	O 	0.0805	0.5	0.3154	-0.297
Mof_O 	O 	0.5947	0	0.3302	-0.322
Mof_C 	C 	0.6855	0	0.233	-0.033
Mof_H 	H 	0.6413	-2.82126e-33	0.2211	0.011
Mof_O 	O 	0.5805	2.82126e-33	0.3154	-0.322
Mof_O 	O 	0.5947	0.5	0.8302	-0.257
Mof_C 	C 	0.6855	0.5	0.733	-0.028
Mof_H 	H 	0.6413	0.5	0.7211	0.077
Mof_O 	O 	0.5805	0.5	0.8154	-0.265
Mof_O 	O 	0.9053	-1.41063e-33	0.1698	-0.08
Mof_C 	C 	0.8145	0	0.267	-0.069
Mof_H 	H 	0.8587	0	0.2789	0.107
Mof_O 	O 	0.9195	0	0.1846	-0.394
Mof_O 	O 	0.9053	0.5	0.6698	0.025
Mof_C 	C 	0.8145	0.5	0.767	-0.009
Mof_H 	H 	0.8587	0.5	0.7789	0.175
Mof_O 	O 	0.9195	0.5	0.6846	-0.378
Mof_O 	O 	0.4053	0	0.6698	-0.291
Mof_C 	C 	0.3145	0	0.767	-0.015
Mof_H 	H 	0.3587	0	0.7789	0.047
Mof_O 	O 	0.4195	-5.64252e-33	0.6846	-0.339
Mof_O 	O 	0.4053	0.5	0.1698	-0.207
Mof_C 	C 	0.3145	0.5	0.267	-0.028
Mof_H 	H 	0.3587	0.5	0.2789	0.071
Mof_O 	O 	0.4195	0.5	0.1846	-0.325
Mof_O 	O 	0.0947	0.1698	-0	-0.343
Mof_C 	C 	0.1855	0.267	-0	-0.041
Mof_H 	H 	0.1413	0.2789	-0	0.005
Mof_O 	O 	0.0805	0.1846	-0	-0.329
Mof_O 	O 	0.0947	0.6698	0.5	-0.237
Mof_C 	C 	0.1855	0.767	0.5	0.019
Mof_H 	H 	0.1413	0.7789	0.5	0.075
Mof_O 	O 	0.0805	0.6846	0.5	-0.313
Mof_O 	O 	0.5947	0.1698	0.5	-0.205
Mof_C 	C 	0.6855	0.267	0.5	0.002
Mof_H 	H 	0.6413	0.2789	0.5	0.064
Mof_O 	O 	0.5805	0.1846	0.5	-0.325
Mof_O 	O 	0.5947	0.6698	-0	-0.289
Mof_C 	C 	0.6855	0.767	-0	0.014
Mof_H 	H 	0.6413	0.7789	-0	0.04
Mof_O 	O 	0.5805	0.6846	-0	-0.338
Mof_O 	O 	0.9053	0.8302	-0	-0.133
Mof_C 	C 	0.8145	0.733	-0	-0.098
Mof_H 	H 	0.8587	0.7211	-0	0.118
Mof_O 	O 	0.9195	0.8154	-0	-0.335
Mof_O 	O 	0.9053	0.3302	0.5	-0.004
Mof_C 	C 	0.8145	0.233	0.5	-0.058
Mof_H 	H 	0.8587	0.2211	0.5	0.148
Mof_O 	O 	0.9195	0.3154	0.5	-0.364
Mof_O 	O 	0.4053	0.8302	0.5	-0.259
Mof_C 	C 	0.3145	0.733	0.5	-0.058
Mof_H 	H 	0.3587	0.7211	0.5	0.084
Mof_O 	O 	0.4195	0.8154	0.5	-0.265
Mof_O 	O 	0.4053	0.3302	-0	-0.323
Mof_C 	C 	0.3145	0.233	-0	-0.063
Mof_H 	H 	0.3587	0.2211	-0	0.018
Mof_O 	O 	0.4195	0.3154	-0	-0.323
Mof_O 	O 	0.0947	0.8302	-0	-0.394
Mof_C 	C 	0.1855	0.733	-0	-0.07
Mof_H 	H 	0.1413	0.7211	-0	0.018
Mof_O 	O 	0.0805	0.8154	-0	-0.267
Mof_O 	O 	0.0947	0.3302	0.5	-0.269
Mof_C 	C 	0.1855	0.233	0.5	-0.029
Mof_H 	H 	0.1413	0.2211	0.5	0.046
Mof_O 	O 	0.0805	0.3154	0.5	-0.297
Mof_O 	O 	0.5947	0.8302	0.5	-0.257
Mof_C 	C 	0.6855	0.733	0.5	-0.028
Mof_H 	H 	0.6413	0.7211	0.5	0.077
Mof_O 	O 	0.5805	0.8154	0.5	-0.265
Mof_O 	O 	0.5947	0.3302	-0	-0.322
Mof_C 	C 	0.6855	0.233	-0	-0.033
Mof_H 	H 	0.6413	0.2211	-0	0.011
Mof_O 	O 	0.5805	0.3154	-0	-0.322
Mof_O 	O 	0.9053	0.1698	-0	-0.08
Mof_C 	C 	0.8145	0.267	-0	-0.069
Mof_H 	H 	0.8587	0.2789	-0	0.107
Mof_O 	O 	0.9195	0.1846	-0	-0.394
Mof_O 	O 	0.9053	0.6698	0.5	0.025
Mof_C 	C 	0.8145	0.767	0.5	-0.009
Mof_H 	H 	0.8587	0.7789	0.5	0.175
Mof_O 	O 	0.9195	0.6846	0.5	-0.378
Mof_O 	O 	0.4053	0.1698	0.5	-0.207
Mof_C 	C 	0.3145	0.267	0.5	-0.028
Mof_H 	H 	0.3587	0.2789	0.5	0.071
Mof_O 	O 	0.4195	0.1846	0.5	-0.325
Mof_O 	O 	0.4053	0.6698	-0	-0.291
Mof_C 	C 	0.3145	0.767	-0	-0.015
Mof_H 	H 	0.3587	0.7789	-0	0.047
Mof_O 	O 	0.4195	0.6846	-0	-0.339
Mof_O 	O 	0.1698	0	0.9053	-0.08
Mof_C 	C 	0.267	0	0.8145	-0.069
Mof_H 	H 	0.2789	-1.1285e-32	0.8587	0.107
Mof_O 	O 	0.1846	0	0.9195	-0.394
Mof_O 	O 	0.1698	0.5	0.4053	-0.207
Mof_C 	C 	0.267	0.5	0.3145	-0.028
Mof_H 	H 	0.2789	0.5	0.3587	0.071
Mof_O 	O 	0.1846	0.5	0.4195	-0.325
Mof_O 	O 	0.6698	-2.82126e-33	0.4053	-0.291
Mof_C 	C 	0.767	0	0.3145	-0.015
Mof_H 	H 	0.7789	0	0.3587	0.047
Mof_O 	O 	0.6846	0	0.4195	-0.339
Mof_O 	O 	0.6698	0.5	0.9053	0.025
Mof_C 	C 	0.767	0.5	0.8145	-0.009
Mof_H 	H 	0.7789	0.5	0.8587	0.175
Mof_O 	O 	0.6846	0.5	0.9195	-0.378
Mof_O 	O 	0.8302	7.05315e-34	0.0947	-0.394
Mof_C 	C 	0.733	0	0.1855	-0.07
Mof_H 	H 	0.7211	0	0.1413	0.018
Mof_O 	O 	0.8154	0	0.0805	-0.267
Mof_O 	O 	0.8302	0.5	0.5947	-0.257
Mof_C 	C 	0.733	0.5	0.6855	-0.028
Mof_H 	H 	0.7211	0.5	0.6413	0.077
Mof_O 	O 	0.8154	0.5	0.5805	-0.265
Mof_O 	O 	0.3302	0	0.5947	-0.322
Mof_C 	C 	0.233	0	0.6855	-0.033
Mof_H 	H 	0.2211	-5.64252e-33	0.6413	0.011
Mof_O 	O 	0.3154	0	0.5805	-0.322
Mof_O 	O 	0.3302	0.5	0.0947	-0.269
Mof_C 	C 	0.233	0.5	0.1855	-0.029
Mof_H 	H 	0.2211	0.5	0.1413	0.046
Mof_O 	O 	0.3154	0.5	0.0805	-0.297
Mof_O 	O 	0.8302	0	0.9053	-0.133
Mof_C 	C 	0.733	0	0.8145	-0.098
Mof_H 	H 	0.7211	-1.1285e-32	0.8587	0.118
Mof_O 	O 	0.8154	0	0.9195	-0.335
Mof_O 	O 	0.8302	0.5	0.4053	-0.259
Mof_C 	C 	0.733	0.5	0.3145	-0.058
Mof_H 	H 	0.7211	0.5	0.3587	0.084
Mof_O 	O 	0.8154	0.5	0.4195	-0.265
Mof_O 	O 	0.3302	-2.82126e-33	0.4053	-0.323
Mof_C 	C 	0.233	0	0.3145	-0.063
Mof_H 	H 	0.2211	0	0.3587	0.018
Mof_O 	O 	0.3154	0	0.4195	-0.323
Mof_O 	O 	0.3302	0.5	0.9053	-0.004
Mof_C 	C 	0.233	0.5	0.8145	-0.058
Mof_H 	H 	0.2211	0.5	0.8587	0.148
Mof_O 	O 	0.3154	0.5	0.9195	-0.364
Mof_O 	O 	0.1698	7.05315e-34	0.0947	-0.343
Mof_C 	C 	0.267	0	0.1855	-0.041
Mof_H 	H 	0.2789	0	0.1413	0.005
Mof_O 	O 	0.1846	0	0.0805	-0.329
Mof_O 	O 	0.1698	0.5	0.5947	-0.205
Mof_C 	C 	0.267	0.5	0.6855	0.002
Mof_H 	H 	0.2789	0.5	0.6413	0.064
Mof_O 	O 	0.1846	0.5	0.5805	-0.325
Mof_O 	O 	0.6698	0	0.5947	-0.289
Mof_C 	C 	0.767	0	0.6855	0.014
Mof_H 	H 	0.7789	-5.64252e-33	0.6413	0.04
Mof_O 	O 	0.6846	0	0.5805	-0.338
Mof_O 	O 	0.6698	0.5	0.0947	-0.237
Mof_C 	C 	0.767	0.5	0.1855	0.019
Mof_H 	H 	0.7789	0.5	0.1413	0.075
Mof_O 	O 	0.6846	0.5	0.0805	-0.313
Mof_O 	O 	-8.17229e-33	0.0947	0.8302	-0.394
Mof_C 	C 	2.74831e-33	0.1855	0.733	-0.07
Mof_H 	H 	-2.93883e-33	0.1413	0.7211	0.018
Mof_O 	O 	-2.58526e-33	0.0805	0.8154	-0.267
Mof_O 	O 	6.88057e-33	0.5947	0.3302	-0.322
Mof_C 	C 	-1.94765e-33	0.6855	0.233	-0.033
Mof_H 	H 	-4.81353e-33	0.6413	0.2211	0.011
Mof_O 	O 	-1.6387e-33	0.5805	0.3154	-0.322
Mof_O 	O 	0.5	0.0947	0.3302	-0.269
Mof_C 	C 	0.5	0.1855	0.233	-0.029
Mof_H 	H 	0.5	0.1413	0.2211	0.046
Mof_O 	O 	0.5	0.0805	0.3154	-0.297
Mof_O 	O 	0.5	0.5947	0.8302	-0.257
Mof_C 	C 	0.5	0.6855	0.733	-0.028
Mof_H 	H 	0.5	0.6413	0.7211	0.077
Mof_O 	O 	0.5	0.5805	0.8154	-0.265
Mof_O 	O 	-2.18461e-33	0.9053	0.1698	-0.08
Mof_C 	C 	-1.82017e-33	0.8145	0.267	-0.069
Mof_H 	H 	-7.41808e-33	0.8587	0.2789	0.107
Mof_O 	O 	-3.53975e-33	0.9195	0.1846	-0.394
Mof_O 	O 	2.51135e-33	0.4053	0.6698	-0.291
Mof_C 	C 	-2.76673e-33	0.3145	0.767	-0.015
Mof_H 	H 	2.92041e-33	0.3587	0.7789	0.047
Mof_O 	O 	2.56684e-33	0.4195	0.6846	-0.339
Mof_O 	O 	0.5	0.9053	0.6698	0.025
Mof_C 	C 	0.5	0.8145	0.767	-0.009
Mof_H 	H 	0.5	0.8587	0.7789	0.175
Mof_O 	O 	0.5	0.9195	0.6846	-0.378
Mof_O 	O 	0.5	0.4053	0.1698	-0.207
Mof_C 	C 	0.5	0.3145	0.267	-0.028
Mof_H 	H 	0.5	0.3587	0.2789	0.071
Mof_O 	O 	0.5	0.4195	0.1846	-0.325
Mof_O 	O 	6.36648e-34	0.0947	0.1698	-0.343
Mof_C 	C 	3.82235e-33	0.1855	0.267	-0.041
Mof_H 	H 	1.04571e-33	0.1413	0.2789	0.005
Mof_O 	O 	6.92139e-34	0.0805	0.1846	-0.329
Mof_O 	O 	8.15387e-33	0.5947	0.6698	-0.289
Mof_C 	C 	2.87579e-33	0.6855	0.767	0.014
Mof_H 	H 	8.56293e-33	0.6413	0.7789	0.04
Mof_O 	O 	-3.07568e-33	0.5805	0.6846	-0.338
Mof_O 	O 	0.5	0.0947	0.6698	-0.237
Mof_C 	C 	0.5	0.1855	0.767	0.019
Mof_H 	H 	0.5	0.1413	0.7789	0.075
Mof_O 	O 	0.5	0.0805	0.6846	-0.313
Mof_O 	O 	0.5	0.5947	0.1698	-0.205
Mof_C 	C 	0.5	0.6855	0.267	0.002
Mof_H 	H 	0.5	0.6413	0.2789	0.064
Mof_O 	O 	0.5	0.5805	0.1846	-0.325
Mof_O 	O 	-8.17229e-33	0.9053	0.8302	-0.133
Mof_C 	C 	1.96759e-32	0.8145	0.733	-0.098
Mof_H 	H 	-1.42239e-32	0.8587	0.7211	0.118
Mof_O 	O 	-1.38703e-32	0.9195	0.8154	-0.335
Mof_O 	O 	6.88057e-33	0.4053	0.3302	-0.323
Mof_C 	C 	-4.76891e-33	0.3145	0.233	-0.063
Mof_H 	H 	3.65025e-33	0.3587	0.2211	0.018
Mof_O 	O 	9.64634e-33	0.4195	0.3154	-0.323
Mof_O 	O 	0.5	0.9053	0.3302	-0.004
Mof_C 	C 	0.5	0.8145	0.233	-0.058
Mof_H 	H 	0.5	0.8587	0.2211	0.148
Mof_O 	O 	0.5	0.9195	0.3154	-0.364
Mof_O 	O 	0.5	0.4053	0.8302	-0.259
Mof_C 	C 	0.5	0.3145	0.733	-0.058
Mof_H 	H 	0.5	0.3587	0.7211	0.084
Mof_O 	O 	0.5	0.4195	0.8154	-0.265
Mof_C 	C 	0.1518	0.1518	-0	0.213
Mof_C 	C 	0.2027	0.2027	-0	-0.064
Mof_C 	C 	0.1518	0.6518	0.5	0.22
Mof_C 	C 	0.2027	0.7027	0.5	-0.016
Mof_C 	C 	0.6518	0.1518	0.5	0.22
Mof_C 	C 	0.7027	0.2027	0.5	-0.016
Mof_C 	C 	0.6518	0.6518	-0	0.189
Mof_C 	C 	0.7027	0.7027	-0	-0.063
Mof_C 	C 	0.8482	0.8482	-0	0.106
Mof_C 	C 	0.7973	0.7973	-0	0.075
Mof_C 	C 	0.8482	0.3482	0.5	0.165
Mof_C 	C 	0.7973	0.2973	0.5	0.063
Mof_C 	C 	0.3482	0.8482	0.5	0.165
Mof_C 	C 	0.2973	0.7973	0.5	0.063
Mof_C 	C 	0.3482	0.3482	-0	0.189
Mof_C 	C 	0.2973	0.2973	-0	-0.046
Mof_C 	C 	0.8482	0.1518	-0	0.159
Mof_C 	C 	0.7973	0.2027	-0	0.006
Mof_C 	C 	0.8482	0.6518	0.5	0.165
Mof_C 	C 	0.7973	0.7027	0.5	0.054
Mof_C 	C 	0.3482	0.1518	0.5	0.22
Mof_C 	C 	0.2973	0.2027	0.5	-0.007
Mof_C 	C 	0.3482	0.6518	-0	0.189
Mof_C 	C 	0.2973	0.7027	-0	-0.055
Mof_C 	C 	0.1518	0.8482	-0	0.159
Mof_C 	C 	0.2027	0.7973	-0	0.006
Mof_C 	C 	0.1518	0.3482	0.5	0.22
Mof_C 	C 	0.2027	0.2973	0.5	-0.007
Mof_C 	C 	0.6518	0.8482	0.5	0.165
Mof_C 	C 	0.7027	0.7973	0.5	0.054
Mof_C 	C 	0.6518	0.3482	-0	0.189
Mof_C 	C 	0.7027	0.2973	-0	-0.055
Mof_C 	C 	5.69159e-34	0.1518	0.1518	0.213
Mof_C 	C 	3.58126e-33	0.2027	0.2027	-0.064
Mof_C 	C 	1.37289e-32	0.6518	0.6518	0.189
Mof_C 	C 	8.27722e-33	0.7027	0.7027	-0.063
Mof_C 	C 	0.5	0.1518	0.6518	0.22
Mof_C 	C 	0.5	0.2027	0.7027	-0.016
Mof_C 	C 	0.5	0.6518	0.1518	0.22
Mof_C 	C 	0.5	0.7027	0.2027	-0.016
Mof_C 	C 	2.57503e-32	0.8482	0.8482	0.106
Mof_C 	C 	-8.29565e-33	0.7973	0.7973	0.075
Mof_C 	C 	6.94806e-33	0.3482	0.3482	0.189
Mof_C 	C 	1.1147e-33	0.2973	0.2973	-0.046
Mof_C 	C 	0.5	0.8482	0.3482	0.165
Mof_C 	C 	0.5	0.7973	0.2973	0.063
Mof_C 	C 	0.5	0.3482	0.8482	0.165
Mof_C 	C 	0.5	0.2973	0.7973	0.063
Mof_C 	C 	1.32648e-32	0.8482	0.1518	0.159
Mof_C 	C 	-3.47189e-33	0.7973	0.2027	0.006
Mof_C 	C 	8.08638e-33	0.3482	0.6518	0.189
Mof_C 	C 	8.27722e-33	0.2973	0.7027	-0.055
Mof_C 	C 	0.5	0.8482	0.6518	0.165
Mof_C 	C 	0.5	0.7973	0.7027	0.054
Mof_C 	C 	0.5	0.3482	0.1518	0.22
Mof_C 	C 	0.5	0.2973	0.2027	-0.007
Mof_C 	C 	1.44653e-32	0.1518	0.8482	0.159
Mof_C 	C 	-2.65313e-33	0.2027	0.7973	0.006
Mof_C 	C 	9.76932e-33	0.6518	0.3482	0.189
Mof_C 	C 	9.57848e-33	0.7027	0.2973	-0.055
Mof_C 	C 	0.5	0.1518	0.3482	0.22
Mof_C 	C 	0.5	0.2027	0.2973	-0.007
Mof_C 	C 	0.5	0.6518	0.8482	0.165
Mof_C 	C 	0.5	0.7027	0.7973	0.054
Mof_C 	C 	0.1518	0	0.1518	0.213
Mof_C 	C 	0.2027	0	0.2027	-0.064
Mof_C 	C 	0.1518	0.5	0.6518	0.22
Mof_C 	C 	0.2027	0.5	0.7027	-0.016
Mof_C 	C 	0.6518	0	0.6518	0.189
Mof_C 	C 	0.7027	-5.64252e-33	0.7027	-0.063
Mof_C 	C 	0.6518	0.5	0.1518	0.22
Mof_C 	C 	0.7027	0.5	0.2027	-0.016
Mof_C 	C 	0.8482	0	0.8482	0.106
Mof_C 	C 	0.7973	0	0.7973	0.075
Mof_C 	C 	0.8482	0.5	0.3482	0.165
Mof_C 	C 	0.7973	0.5	0.2973	0.063
Mof_C 	C 	0.3482	0	0.3482	0.189
Mof_C 	C 	0.2973	-2.82126e-33	0.2973	-0.046
Mof_C 	C 	0.3482	0.5	0.8482	0.165
Mof_C 	C 	0.2973	0.5	0.7973	0.063
Mof_C 	C 	0.1518	0	0.8482	0.159
Mof_C 	C 	0.2027	0	0.7973	0.006
Mof_C 	C 	0.1518	0.5	0.3482	0.22
Mof_C 	C 	0.2027	0.5	0.2973	-0.007
Mof_C 	C 	0.6518	0	0.3482	0.189
Mof_C 	C 	0.7027	-2.82126e-33	0.2973	-0.055
Mof_C 	C 	0.6518	0.5	0.8482	0.165
Mof_C 	C 	0.7027	0.5	0.7973	0.054
Mof_C 	C 	0.8482	0	0.1518	0.159
Mof_C 	C 	0.7973	0	0.2027	0.006
Mof_C 	C 	0.8482	0.5	0.6518	0.165
Mof_C 	C 	0.7973	0.5	0.7027	0.054
Mof_C 	C 	0.3482	0	0.6518	0.189
Mof_C 	C 	0.2973	-5.64252e-33	0.7027	-0.055
Mof_C 	C 	0.3482	0.5	0.1518	0.22
Mof_C 	C 	0.2973	0.5	0.2027	-0.007
Mof_O 	O 	0.05	0.05	0.05	-4.458
Mof_O 	O 	0.0674	0.0674	0.0674	3.703
Mof_H 	H 	0.0958	0.0958	0.0958	-1.089
Mof_O 	O 	0.05	0.55	0.55	-2.807
Mof_O 	O 	0.0674	0.5674	0.5674	1.99
Mof_H 	H 	0.0958	0.5958	0.5958	-0.607
Mof_O 	O 	0.55	0.05	0.55	-2.807
Mof_O 	O 	0.5674	0.0674	0.5674	1.99
Mof_H 	H 	0.5958	0.0958	0.5958	-0.607
Mof_O 	O 	0.55	0.55	0.05	-2.807
Mof_O 	O 	0.5674	0.5674	0.0674	1.99
Mof_H 	H 	0.5958	0.5958	0.0958	-0.607
Mof_O 	O 	0.95	0.95	0.05	-1.167
Mof_O 	O 	0.9326	0.9326	0.0674	0.411
Mof_H 	H 	0.9042	0.9042	0.0958	-0.02
Mof_O 	O 	0.95	0.45	0.55	-1.307
Mof_O 	O 	0.9326	0.4326	0.5674	0.5
Mof_H 	H 	0.9042	0.4042	0.5958	-0.118
Mof_O 	O 	0.45	0.95	0.55	-1.307
Mof_O 	O 	0.4326	0.9326	0.5674	0.5
Mof_H 	H 	0.4042	0.9042	0.5958	-0.118
Mof_O 	O 	0.45	0.45	0.05	-2.841
Mof_O 	O 	0.4326	0.4326	0.0674	2.028
Mof_H 	H 	0.4042	0.4042	0.0958	-0.623
Mof_O 	O 	0.95	0.05	0.95	-1.167
Mof_O 	O 	0.9326	0.0674	0.9326	0.411
Mof_H 	H 	0.9042	0.0958	0.9042	-0.02
Mof_O 	O 	0.95	0.55	0.45	-1.307
Mof_O 	O 	0.9326	0.5674	0.4326	0.5
Mof_H 	H 	0.9042	0.5958	0.4042	-0.118
Mof_O 	O 	0.45	0.05	0.45	-2.841
Mof_O 	O 	0.4326	0.0674	0.4326	2.028
Mof_H 	H 	0.4042	0.0958	0.4042	-0.623
Mof_O 	O 	0.45	0.55	0.95	-1.307
Mof_O 	O 	0.4326	0.5674	0.9326	0.5
Mof_H 	H 	0.4042	0.5958	0.9042	-0.118
Mof_O 	O 	0.05	0.95	0.95	-1.167
Mof_O 	O 	0.0674	0.9326	0.9326	0.411
Mof_H 	H 	0.0958	0.9042	0.9042	-0.02
Mof_O 	O 	0.05	0.45	0.45	-2.841
Mof_O 	O 	0.0674	0.4326	0.4326	2.028
Mof_H 	H 	0.0958	0.4042	0.4042	-0.623
Mof_O 	O 	0.55	0.95	0.45	-1.307
Mof_O 	O 	0.5674	0.9326	0.4326	0.5
Mof_H 	H 	0.5958	0.9042	0.4042	-0.118
Mof_O 	O 	0.55	0.45	0.95	-1.307
Mof_O 	O 	0.5674	0.4326	0.9326	0.5
Mof_H 	H 	0.5958	0.4042	0.9042	-0.118
Mof_O 	O 	0.05	0.05	0.95	-2.633
Mof_O 	O 	0.0674	0.0674	0.9326	1.869
Mof_H 	H 	0.0958	0.0958	0.9042	-0.501
Mof_O 	O 	0.05	0.55	0.45	-2.824
Mof_O 	O 	0.0674	0.5674	0.4326	2.009
Mof_H 	H 	0.0958	0.5958	0.4042	-0.615
Mof_O 	O 	0.55	0.05	0.45	-2.824
Mof_O 	O 	0.5674	0.0674	0.4326	2.009
Mof_H 	H 	0.5958	0.0958	0.4042	-0.615
Mof_O 	O 	0.55	0.55	0.95	-1.309
Mof_O 	O 	0.5674	0.5674	0.9326	0.501
Mof_H 	H 	0.5958	0.5958	0.9042	-0.116
Mof_O 	O 	0.95	0.95	0.95	-0.061
Mof_O 	O 	0.9326	0.9326	0.9326	-0.67
Mof_H 	H 	0.9042	0.9042	0.9042	0.352
Mof_O 	O 	0.95	0.45	0.45	-1.306
Mof_O 	O 	0.9326	0.4326	0.4326	0.501
Mof_H 	H 	0.9042	0.4042	0.4042	-0.12
Mof_O 	O 	0.45	0.95	0.45	-1.306
Mof_O 	O 	0.4326	0.9326	0.4326	0.501
Mof_H 	H 	0.4042	0.9042	0.4042	-0.12
Mof_O 	O 	0.45	0.45	0.95	-1.306
Mof_O 	O 	0.4326	0.4326	0.9326	0.501
Mof_H 	H 	0.4042	0.4042	0.9042	-0.12
Mof_O 	O 	0.05	0.95	0.05	-2.633
Mof_O 	O 	0.0674	0.9326	0.0674	1.869
Mof_H 	H 	0.0958	0.9042	0.0958	-0.501
Mof_O 	O 	0.05	0.45	0.55	-2.824
Mof_O 	O 	0.0674	0.4326	0.5674	2.009
Mof_H 	H 	0.0958	0.4042	0.5958	-0.615
Mof_O 	O 	0.55	0.95	0.55	-1.309
Mof_O 	O 	0.5674	0.9326	0.5674	0.501
Mof_H 	H 	0.5958	0.9042	0.5958	-0.116
Mof_O 	O 	0.55	0.45	0.05	-2.824
Mof_O 	O 	0.5674	0.4326	0.0674	2.009
Mof_H 	H 	0.5958	0.4042	0.0958	-0.615
Mof_O 	O 	0.95	0.05	0.05	-2.633
Mof_O 	O 	0.9326	0.0674	0.0674	1.869
Mof_H 	H 	0.9042	0.0958	0.0958	-0.501
Mof_O 	O 	0.95	0.55	0.55	-1.309
Mof_O 	O 	0.9326	0.5674	0.5674	0.501
Mof_H 	H 	0.9042	0.5958	0.5958	-0.116
Mof_O 	O 	0.45	0.05	0.55	-2.824
Mof_O 	O 	0.4326	0.0674	0.5674	2.009
Mof_H 	H 	0.4042	0.0958	0.5958	-0.615
Mof_O 	O 	0.45	0.55	0.05	-2.824
Mof_O 	O 	0.4326	0.5674	0.0674	2.009
Mof_H 	H 	0.4042	0.5958	0.0958	-0.615
_end
