data_functionalizedCrystal
_audit_creation_method	'EQeq! by Chris Wilmer'
_symmetry_space_group_name_H-M	'P1'
_symmetry_Int_Tables_number	1
_symmetry_cell_setting	triclinic
loop_
_symmetry_equiv_pos_as_xyz
  x,y,z
_cell_length_a	13.199
_cell_length_b	13.645
_cell_length_c	20.033
_cell_angle_alpha	90
_cell_angle_beta	90
_cell_angle_gamma	90
loop_
_atom_site_label
_atom_site_type_symbol
_atom_site_fract_x
_atom_site_fract_y
_atom_site_fract_z
_atom_site_charge
Mof_Cd	Cd	0.13371	0.56158	0.6489	0.412
Mof_Cd	Cd	0.36629	0.56158	0.3511	0.412
Mof_Cd	Cd	0.36629	0.06158	0.1489	0.413
Mof_Cd	Cd	0.13371	0.06158	0.8511	0.412
Mof_H 	H 	0.7935	0.1617	0.7331	0.089
Mof_H 	H 	0.9091	0.0622	0.7843	0.04
Mof_H 	H 	0.1249	0.2507	0.7539	0.032
Mof_H 	H 	0.4249	0.9538	0.0064	0.044
Mof_H 	H 	0.399	0.8723	0.059	0.052
Mof_H 	H 	0.3021	0.0784	0.9812	0.055
Mof_H 	H 	0.3407	0.9539	0.9004	0.061
Mof_H 	H 	0.2604	0.8723	0.8841	0.057
Mof_H 	H 	0.2215	0.7548	0.9658	0.047
Mof_H 	H 	0.7065	0.1617	0.2669	0.089
Mof_H 	H 	0.5909	0.0622	0.2157	0.04
Mof_H 	H 	0.3751	0.2507	0.2461	0.031
Mof_H 	H 	0.0751	0.9538	0.9936	0.043
Mof_H 	H 	0.101	0.8723	0.941	0.051
Mof_H 	H 	0.1979	0.0784	0.0188	0.056
Mof_H 	H 	0.1593	0.9539	0.0996	0.061
Mof_H 	H 	0.2396	0.8723	0.1159	0.056
Mof_H 	H 	0.2785	0.7548	0.0342	0.047
Mof_H 	H 	0.7065	0.6617	0.2331	0.088
Mof_H 	H 	0.5909	0.5622	0.2843	0.039
Mof_H 	H 	0.3751	0.7507	0.2539	0.03
Mof_H 	H 	0.0751	0.4538	0.5064	0.042
Mof_H 	H 	0.101	0.3723	0.559	0.051
Mof_H 	H 	0.1979	0.5784	0.4812	0.057
Mof_H 	H 	0.1593	0.4539	0.4004	0.06
Mof_H 	H 	0.2396	0.3723	0.3841	0.056
Mof_H 	H 	0.2785	0.2548	0.4658	0.048
Mof_H 	H 	0.7935	0.6617	0.7669	0.088
Mof_H 	H 	0.9091	0.5622	0.7157	0.039
Mof_H 	H 	0.1249	0.7507	0.7461	0.031
Mof_H 	H 	0.4249	0.4538	0.4936	0.043
Mof_H 	H 	0.399	0.3723	0.441	0.051
Mof_H 	H 	0.3021	0.5784	0.5188	0.057
Mof_H 	H 	0.3407	0.4539	0.5996	0.06
Mof_H 	H 	0.2604	0.3723	0.6159	0.056
Mof_H 	H 	0.2215	0.2548	0.5342	0.048
Mof_C 	C 	0.0371	0.8879	0.813	0.302
Mof_C 	C 	0.9947	0.7966	0.7839	-0.083
Mof_C 	C 	0.8898	0.7717	0.7883	0.01
Mof_C 	C 	0.8088	0.339	0.6859	0.277
Mof_C 	C 	0.8606	0.6819	0.7631	-0.089
Mof_C 	C 	0.9306	0.6224	0.7323	0.063
Mof_C 	C 	0.0573	0.2332	0.749	0.067
Mof_C 	C 	0.1294	0.9138	0.9757	-0.008
Mof_C 	C 	0.2124	0.9133	0.0806	-0.021
Mof_C 	C 	0.4629	0.8879	0.187	0.306
Mof_C 	C 	0.5053	0.7966	0.2161	-0.088
Mof_C 	C 	0.6102	0.7717	0.2117	0.012
Mof_C 	C 	0.6912	0.339	0.3141	0.277
Mof_C 	C 	0.6394	0.6819	0.2369	-0.09
Mof_C 	C 	0.5694	0.6224	0.2677	0.063
Mof_C 	C 	0.4427	0.2332	0.251	0.069
Mof_C 	C 	0.3706	0.9138	0.0243	-0.006
Mof_C 	C 	0.2876	0.9133	0.9194	-0.021
Mof_C 	C 	0.4629	0.3879	0.313	0.306
Mof_C 	C 	0.5053	0.2966	0.2839	-0.088
Mof_C 	C 	0.6102	0.2717	0.2883	0.012
Mof_C 	C 	0.6912	0.839	0.1859	0.277
Mof_C 	C 	0.6394	0.1819	0.2631	-0.09
Mof_C 	C 	0.5694	0.1224	0.2323	0.063
Mof_C 	C 	0.4427	0.7332	0.249	0.069
Mof_C 	C 	0.3706	0.4138	0.4757	-0.007
Mof_C 	C 	0.2876	0.4133	0.5806	-0.021
Mof_C 	C 	0.0371	0.3879	0.687	0.304
Mof_C 	C 	0.9947	0.2966	0.7161	-0.086
Mof_C 	C 	0.8898	0.2717	0.7117	0.011
Mof_C 	C 	0.8088	0.839	0.8141	0.277
Mof_C 	C 	0.8606	0.1819	0.7369	-0.09
Mof_C 	C 	0.9306	0.1224	0.7677	0.064
Mof_C 	C 	0.0573	0.7332	0.751	0.065
Mof_C 	C 	0.1294	0.4138	0.5243	-0.007
Mof_C 	C 	0.2124	0.4133	0.4194	-0.021
Mof_C 	C 	0.25	0.0366	-0	-0.012
Mof_C 	C 	0.25	0.7968	-0	0.007
Mof_C 	C 	0.25	0.5366	0.5	-0.017
Mof_C 	C 	0.25	0.2968	0.5	0.002
Mof_N 	N 	0.027	0.6467	0.7253	-0.14
Mof_N 	N 	0.2059	0.9766	0.9469	-0.113
Mof_N 	N 	0.1706	0.8524	0.0287	-0.098
Mof_N 	N 	0.473	0.6467	0.2747	-0.14
Mof_N 	N 	0.2941	0.9766	0.0531	-0.113
Mof_N 	N 	0.3294	0.8524	0.9713	-0.1
Mof_N 	N 	0.473	0.1467	0.2253	-0.14
Mof_N 	N 	0.2941	0.4766	0.4469	-0.112
Mof_N 	N 	0.3294	0.3524	0.5287	-0.098
Mof_N 	N 	0.027	0.1467	0.7747	-0.14
Mof_N 	N 	0.2059	0.4766	0.5531	-0.112
Mof_N 	N 	0.1706	0.3524	0.4713	-0.098
Mof_O 	O 	0.1259	0.9131	0.796	-0.271
Mof_O 	O 	0.9856	0.4386	0.6479	-0.271
Mof_O 	O 	0.7682	0.3139	0.6307	-0.252
Mof_O 	O 	0.7801	0.4087	0.7197	-0.253
Mof_O 	O 	0.3741	0.9131	0.204	-0.272
Mof_O 	O 	0.5144	0.4386	0.3521	-0.272
Mof_O 	O 	0.7318	0.3139	0.3693	-0.252
Mof_O 	O 	0.7199	0.4087	0.2803	-0.253
Mof_O 	O 	0.3741	0.4131	0.296	-0.272
Mof_O 	O 	0.5144	0.9386	0.1479	-0.272
Mof_O 	O 	0.7318	0.8139	0.1307	-0.252
Mof_O 	O 	0.7199	0.9087	0.2197	-0.253
Mof_O 	O 	0.1259	0.4131	0.704	-0.271
Mof_O 	O 	0.9856	0.9386	0.8521	-0.269
Mof_O 	O 	0.7682	0.8139	0.8693	-0.252
Mof_O 	O 	0.7801	0.9087	0.7803	-0.253
Mof_Cd	Cd	0.63371	0.93842	0.8511	0.412
Mof_Cd	Cd	0.86629	0.93842	0.1489	0.411
Mof_Cd	Cd	0.86629	0.43842	0.3511	0.411
Mof_Cd	Cd	0.63371	0.43842	0.6489	0.411
Mof_H 	H 	0.2935	0.3383	0.7669	0.088
Mof_H 	H 	0.4091	0.4378	0.7157	0.039
Mof_H 	H 	0.6249	0.2493	0.7461	0.03
Mof_H 	H 	0.9249	0.5462	0.4936	0.042
Mof_H 	H 	0.899	0.6277	0.441	0.051
Mof_H 	H 	0.8021	0.4216	0.5188	0.057
Mof_H 	H 	0.8407	0.5461	0.5996	0.06
Mof_H 	H 	0.7604	0.6277	0.6159	0.056
Mof_H 	H 	0.7215	0.7452	0.5342	0.048
Mof_H 	H 	0.2065	0.3383	0.2331	0.088
Mof_H 	H 	0.0909	0.4378	0.2843	0.039
Mof_H 	H 	0.8751	0.2493	0.2539	0.031
Mof_H 	H 	0.5751	0.5462	0.5064	0.043
Mof_H 	H 	0.601	0.6277	0.559	0.051
Mof_H 	H 	0.6979	0.4216	0.4812	0.057
Mof_H 	H 	0.6593	0.5461	0.4004	0.06
Mof_H 	H 	0.7396	0.6277	0.3841	0.056
Mof_H 	H 	0.7785	0.7452	0.4658	0.048
Mof_H 	H 	0.2065	0.8383	0.2669	0.088
Mof_H 	H 	0.0909	0.9378	0.2157	0.039
Mof_H 	H 	0.8751	0.7493	0.2461	0.031
Mof_H 	H 	0.5751	0.0462	0.9936	0.042
Mof_H 	H 	0.601	0.1277	0.941	0.051
Mof_H 	H 	0.6979	0.9216	0.0188	0.057
Mof_H 	H 	0.6593	0.0461	0.0996	0.06
Mof_H 	H 	0.7396	0.1277	0.1159	0.056
Mof_H 	H 	0.7785	0.2452	0.0342	0.048
Mof_H 	H 	0.2935	0.8383	0.7331	0.088
Mof_H 	H 	0.4091	0.9378	0.7843	0.039
Mof_H 	H 	0.6249	0.7493	0.7539	0.03
Mof_H 	H 	0.9249	0.0462	0.0064	0.042
Mof_H 	H 	0.899	0.1277	0.059	0.051
Mof_H 	H 	0.8021	0.9216	0.9812	0.057
Mof_H 	H 	0.8407	0.0461	0.9004	0.06
Mof_H 	H 	0.7604	0.1277	0.8841	0.056
Mof_H 	H 	0.7215	0.2452	0.9658	0.049
Mof_C 	C 	0.5371	0.6121	0.687	0.306
Mof_C 	C 	0.4947	0.7034	0.7161	-0.088
Mof_C 	C 	0.3898	0.7283	0.7117	0.012
Mof_C 	C 	0.3088	0.161	0.8141	0.277
Mof_C 	C 	0.3606	0.8181	0.7369	-0.09
Mof_C 	C 	0.4306	0.8776	0.7677	0.063
Mof_C 	C 	0.5573	0.2668	0.751	0.069
Mof_C 	C 	0.6294	0.5862	0.5243	-0.007
Mof_C 	C 	0.7124	0.5867	0.4194	-0.021
Mof_C 	C 	0.9629	0.6121	0.313	0.304
Mof_C 	C 	0.0053	0.7034	0.2839	-0.086
Mof_C 	C 	0.1102	0.7283	0.2883	0.011
Mof_C 	C 	0.1912	0.161	0.1859	0.277
Mof_C 	C 	0.1394	0.8181	0.2631	-0.09
Mof_C 	C 	0.0694	0.8776	0.2323	0.064
Mof_C 	C 	0.9427	0.2668	0.249	0.065
Mof_C 	C 	0.8706	0.5862	0.4757	-0.007
Mof_C 	C 	0.7876	0.5867	0.5806	-0.021
Mof_C 	C 	0.9629	0.1121	0.187	0.302
Mof_C 	C 	0.0053	0.2034	0.2161	-0.083
Mof_C 	C 	0.1102	0.2283	0.2117	0.01
Mof_C 	C 	0.1912	0.661	0.3141	0.277
Mof_C 	C 	0.1394	0.3181	0.2369	-0.089
Mof_C 	C 	0.0694	0.3776	0.2677	0.064
Mof_C 	C 	0.9427	0.7668	0.251	0.067
Mof_C 	C 	0.8706	0.0862	0.0243	-0.007
Mof_C 	C 	0.7876	0.0867	0.9194	-0.021
Mof_C 	C 	0.5371	0.1121	0.813	0.306
Mof_C 	C 	0.4947	0.2034	0.7839	-0.088
Mof_C 	C 	0.3898	0.2283	0.7883	0.012
Mof_C 	C 	0.3088	0.661	0.6859	0.277
Mof_C 	C 	0.3606	0.3181	0.7631	-0.09
Mof_C 	C 	0.4306	0.3776	0.7323	0.063
Mof_C 	C 	0.5573	0.7668	0.749	0.069
Mof_C 	C 	0.6294	0.0862	0.9757	-0.007
Mof_C 	C 	0.7124	0.0867	0.0806	-0.021
Mof_C 	C 	0.75	0.4634	0.5	-0.017
Mof_C 	C 	0.75	0.7032	0.5	0.002
Mof_C 	C 	0.75	0.9634	-0	-0.018
Mof_C 	C 	0.75	0.2032	-0	0.001
Mof_N 	N 	0.527	0.8533	0.7747	-0.14
Mof_N 	N 	0.7059	0.5234	0.5531	-0.112
Mof_N 	N 	0.6706	0.6476	0.4713	-0.098
Mof_N 	N 	0.973	0.8533	0.2253	-0.14
Mof_N 	N 	0.7941	0.5234	0.4469	-0.112
Mof_N 	N 	0.8294	0.6476	0.5287	-0.098
Mof_N 	N 	0.973	0.3533	0.2747	-0.14
Mof_N 	N 	0.7941	0.0234	0.0531	-0.112
Mof_N 	N 	0.8294	0.1476	0.9713	-0.097
Mof_N 	N 	0.527	0.3533	0.7253	-0.14
Mof_N 	N 	0.7059	0.0234	0.9469	-0.112
Mof_N 	N 	0.6706	0.1476	0.0287	-0.098
Mof_O 	O 	0.6259	0.5869	0.704	-0.272
Mof_O 	O 	0.4856	0.0614	0.8521	-0.272
Mof_O 	O 	0.2682	0.1861	0.8693	-0.252
Mof_O 	O 	0.2801	0.0913	0.7803	-0.253
Mof_O 	O 	0.8741	0.5869	0.296	-0.271
Mof_O 	O 	0.0144	0.0614	0.1479	-0.269
Mof_O 	O 	0.2318	0.1861	0.1307	-0.251
Mof_O 	O 	0.2199	0.0913	0.2197	-0.253
Mof_O 	O 	0.8741	0.0869	0.204	-0.271
Mof_O 	O 	0.0144	0.5614	0.3521	-0.271
Mof_O 	O 	0.2318	0.6861	0.3693	-0.252
Mof_O 	O 	0.2199	0.5913	0.2803	-0.253
Mof_O 	O 	0.6259	0.0869	0.796	-0.272
Mof_O 	O 	0.4856	0.5614	0.6479	-0.272
Mof_O 	O 	0.2682	0.6861	0.6307	-0.252
Mof_O 	O 	0.2801	0.5913	0.7197	-0.253
_end
