# CIF file generated by openbabel 3.1.0, see https://openbabel.org
data_I
_chemical_name_common 'image0'
_cell_length_a 15.75
_cell_length_b 14.501
_cell_length_c 19.363
_cell_angle_alpha 90
_cell_angle_beta 113.67
_cell_angle_gamma 90
_space_group_name_H-M_alt 'P 1'
_space_group_name_Hall 'P 1'
loop_
    _symmetry_equiv_pos_as_xyz
    x,y,z
loop_
    _atom_site_label
    _atom_site_type_symbol
    _atom_site_fract_x
    _atom_site_fract_y
    _atom_site_fract_z
    _atom_site_occupancy
    Cd1      Cd       0.20624    0.85687    0.46326    1.000
    Cd2      Cd       0.65509    0.30050    0.34824    1.000
    Cd3      Cd       0.76699    0.41976    0.21520    1.000
    O1       O        0.09090    0.95330    0.38517    1.000
    O2       O        0.88340    0.22650    0.10632    1.000
    O3       O        0.78990    0.29830    0.14822    1.000
    O4       O        0.30470    0.97320    0.50186    1.000
    O5       O        0.66750    0.24660    0.47698    1.000
    O6       O        0.86840    0.12740    0.46074    1.000
    O7       O        0.73710    0.16670    0.36440    1.000
    O8       O        0.77780    0.38280    0.41488    1.000
    O9       O        0.65010    0.17150    0.72833    1.000
    O10      O        0.50790    0.19340    0.72032    1.000
    O11      O        0.54170    0.22630    0.37277    1.000
    O12      O        0.84750    0.37140    0.33493    1.000
    O13      O        0.10390    0.99100    0.27738    1.000
    O14      O        0.31490    0.99610    0.39092    1.000
    C1       C        0.06830    0.99650    0.32510    1.000
    C2       C        0.98730    0.06230    0.30540    1.000
    C3       C        0.85080    0.23580    0.15460    1.000
    C4       C        0.88140    0.17490    0.22290    1.000
    C5       C        0.95650    0.11460    0.23960    1.000
    C6       C        0.58500    0.21810    0.44320    1.000
    C7       C        0.53620    0.17640    0.48790    1.000
    C8       C        0.57090    0.19250    0.56550    1.000
    C9       C        0.52530    0.15470    0.60740    1.000
    C10      C        0.33820    0.01140    0.46020    1.000
    C11      C        0.41520    0.08010    0.49580    1.000
    C12      C        0.45830    0.12020    0.45340    1.000
    C13      C        0.82100    0.14320    0.39160    1.000
    C14      C        0.86830    0.13030    0.33840    1.000
    C15      C        0.94450    0.07230    0.35570    1.000
    C16      C        0.83440    0.18040    0.27030    1.000
    C17      C        0.84430    0.39730    0.39540    1.000
    C18      C        0.92520    0.45030    0.44960    1.000
    C19      C        0.98560    0.49440    0.42390    1.000
    C20      C        0.93920    0.45640    0.52600    1.000
    C21      C        0.56220    0.17430    0.69030    1.000
    C22      C        0.44750    0.09940    0.57310    1.000
    Cd4      Cd       0.79376    0.35687    0.03674    1.000
    Cd5      Cd       0.34491    0.80050    0.15176    1.000
    Cd6      Cd       0.23301    0.91976    0.28480    1.000
    O15      O        0.90910    0.45330    0.11483    1.000
    O16      O        0.11660    0.72650    0.39368    1.000
    O17      O        0.21010    0.79830    0.35178    1.000
    O18      O        0.69530    0.47320    0.99814    1.000
    O19      O        0.33250    0.74660    0.02302    1.000
    O20      O        0.13160    0.62740    0.03926    1.000
    O21      O        0.26290    0.66670    0.13560    1.000
    O22      O        0.22220    0.88280    0.08512    1.000
    O23      O        0.34990    0.67150    0.77167    1.000
    O24      O        0.49210    0.69340    0.77968    1.000
    O25      O        0.45830    0.72630    0.12723    1.000
    O26      O        0.15250    0.87140    0.16507    1.000
    O27      O        0.89610    0.49100    0.22262    1.000
    O28      O        0.68510    0.49610    0.10908    1.000
    C23      C        0.93170    0.49650    0.17490    1.000
    C24      C        0.01270    0.56230    0.19460    1.000
    C25      C        0.14920    0.73580    0.34540    1.000
    C26      C        0.11860    0.67490    0.27710    1.000
    C27      C        0.04350    0.61460    0.26040    1.000
    C28      C        0.41500    0.71810    0.05680    1.000
    C29      C        0.46380    0.67640    0.01210    1.000
    C30      C        0.42910    0.69250    0.93450    1.000
    C31      C        0.47470    0.65470    0.89260    1.000
    C32      C        0.66180    0.51140    0.03980    1.000
    C33      C        0.58480    0.58010    0.00420    1.000
    C34      C        0.54170    0.62020    0.04660    1.000
    C35      C        0.17900    0.64320    0.10840    1.000
    C36      C        0.13170    0.63030    0.16160    1.000
    C37      C        0.05550    0.57230    0.14430    1.000
    C38      C        0.16560    0.68040    0.22970    1.000
    C39      C        0.15570    0.89730    0.10460    1.000
    C40      C        0.07480    0.95030    0.05040    1.000
    C41      C        0.01440    0.99440    0.07610    1.000
    C42      C        0.06080    0.95640    0.97400    1.000
    C43      C        0.43780    0.67430    0.80970    1.000
    C44      C        0.55250    0.59940    0.92690    1.000
    Cd7      Cd       0.79376    0.14313    0.53674    1.000
    Cd8      Cd       0.34491    0.69950    0.65176    1.000
    Cd9      Cd       0.23301    0.58024    0.78480    1.000
    O29      O        0.90910    0.04670    0.61483    1.000
    O30      O        0.11660    0.77350    0.89368    1.000
    O31      O        0.21010    0.70170    0.85178    1.000
    O32      O        0.69530    0.02680    0.49814    1.000
    O33      O        0.33250    0.75340    0.52302    1.000
    O34      O        0.13160    0.87260    0.53926    1.000
    O35      O        0.26290    0.83330    0.63560    1.000
    O36      O        0.22220    0.61720    0.58512    1.000
    O37      O        0.34990    0.82850    0.27167    1.000
    O38      O        0.49210    0.80660    0.27968    1.000
    O39      O        0.45830    0.77370    0.62723    1.000
    O40      O        0.15250    0.62860    0.66507    1.000
    O41      O        0.89610    0.00900    0.72262    1.000
    O42      O        0.68510    0.00390    0.60908    1.000
    C45      C        0.93170    0.00350    0.67490    1.000
    C46      C        0.01270    0.93770    0.69460    1.000
    C47      C        0.14920    0.76420    0.84540    1.000
    C48      C        0.11860    0.82510    0.77710    1.000
    C49      C        0.04350    0.88540    0.76040    1.000
    C50      C        0.41500    0.78190    0.55680    1.000
    C51      C        0.46380    0.82360    0.51210    1.000
    C52      C        0.42910    0.80750    0.43450    1.000
    C53      C        0.47470    0.84530    0.39260    1.000
    C54      C        0.66180    0.98860    0.53980    1.000
    C55      C        0.58480    0.91990    0.50420    1.000
    C56      C        0.54170    0.87980    0.54660    1.000
    C57      C        0.17900    0.85680    0.60840    1.000
    C58      C        0.13170    0.86970    0.66160    1.000
    C59      C        0.05550    0.92770    0.64430    1.000
    C60      C        0.16560    0.81960    0.72970    1.000
    C61      C        0.15570    0.60270    0.60460    1.000
    C62      C        0.07480    0.54970    0.55040    1.000
    C63      C        0.01440    0.50560    0.57610    1.000
    C64      C        0.06080    0.54360    0.47400    1.000
    C65      C        0.43780    0.82570    0.30970    1.000
    C66      C        0.55250    0.90060    0.42690    1.000
    Cd10     Cd       0.20624    0.64313    0.96326    1.000
    Cd11     Cd       0.65509    0.19950    0.84824    1.000
    Cd12     Cd       0.76699    0.08024    0.71520    1.000
    O43      O        0.09090    0.54670    0.88517    1.000
    O44      O        0.88340    0.27350    0.60632    1.000
    O45      O        0.78990    0.20170    0.64822    1.000
    O46      O        0.30470    0.52680    0.00186    1.000
    O47      O        0.66750    0.25340    0.97698    1.000
    O48      O        0.86840    0.37260    0.96074    1.000
    O49      O        0.73710    0.33330    0.86440    1.000
    O50      O        0.77780    0.11720    0.91488    1.000
    O51      O        0.65010    0.32850    0.22833    1.000
    O52      O        0.50790    0.30660    0.22032    1.000
    O53      O        0.54170    0.27370    0.87277    1.000
    O54      O        0.84750    0.12860    0.83493    1.000
    O55      O        0.10390    0.50900    0.77738    1.000
    O56      O        0.31490    0.50390    0.89092    1.000
    C67      C        0.06830    0.50350    0.82510    1.000
    C68      C        0.98730    0.43770    0.80540    1.000
    C69      C        0.85080    0.26420    0.65460    1.000
    C70      C        0.88140    0.32510    0.72290    1.000
    C71      C        0.95650    0.38540    0.73960    1.000
    C72      C        0.58500    0.28190    0.94320    1.000
    C73      C        0.53620    0.32360    0.98790    1.000
    C74      C        0.57090    0.30750    0.06550    1.000
    C75      C        0.52530    0.34530    0.10740    1.000
    C76      C        0.33820    0.48860    0.96020    1.000
    C77      C        0.41520    0.41990    0.99580    1.000
    C78      C        0.45830    0.37980    0.95340    1.000
    C79      C        0.82100    0.35680    0.89160    1.000
    C80      C        0.86830    0.36970    0.83840    1.000
    C81      C        0.94450    0.42770    0.85570    1.000
    C82      C        0.83440    0.31960    0.77030    1.000
    C83      C        0.84430    0.10270    0.89540    1.000
    C84      C        0.92520    0.04970    0.94960    1.000
    C85      C        0.98560    0.00560    0.92390    1.000
    C86      C        0.93920    0.04360    0.02600    1.000
    C87      C        0.56220    0.32570    0.19030    1.000
    C88      C        0.44750    0.40060    0.07310    1.000
