data_functionalizedCrystal
_audit_creation_method	'EQeq! by Chris Wilmer'
_symmetry_space_group_name_H-M	'P1'
_symmetry_Int_Tables_number	1
_symmetry_cell_setting	triclinic
loop_
_symmetry_equiv_pos_as_xyz
  x,y,z
_cell_length_a	7.5999
_cell_length_b	21.092
_cell_length_c	19.515
_cell_angle_alpha	90
_cell_angle_beta	98.305
_cell_angle_gamma	90
loop_
_atom_site_label
_atom_site_type_symbol
_atom_site_fract_x
_atom_site_fract_y
_atom_site_fract_z
_atom_site_charge
Mof_Nd	Nd	0.98859	0.72359	0.75539	2.459
Mof_O 	O 	0.8293	0.6738	0.6479	-0.496
Mof_O 	O 	0.7002	0.7609	0.675	-0.67
Mof_C 	C 	0.7175	0.7161	0.6322	0.456
Mof_C 	C 	0.6022	0.7158	0.5643	-0.167
Mof_C 	C 	0.5521	0.6584	0.5322	0.097
Mof_C 	C 	0.5488	0.7728	0.5324	0.103
Mof_N 	N 	0.599	0.8264	0.554	-0.095
Mof_O 	O 	0.3146	0.7105	0.8225	-0.687
Mof_O 	O 	0.0909	0.683	0.8737	-0.496
Mof_C 	C 	0.2543	0.6901	0.8758	0.462
Mof_C 	C 	0.3781	0.678	0.9389	-0.145
Mof_C 	C 	0.3173	0.6748	0.0033	0.116
Mof_C 	C 	0.5589	0.6755	0.9377	-0.017
Mof_H 	H 	0.5993	0.6743	0.8949	0.037
Mof_O 	O 	0.2345	0.8333	0.786	-0.623
Mof_O 	O 	0.9829	0.8374	0.7179	-0.503
Mof_C 	C 	0.1137	0.8646	0.7519	0.489
Mof_C 	C 	0.1212	0.9349	0.7507	-0.185
Mof_C 	C 	0.0044	0.9676	0.7025	0.104
Mof_C 	C 	0.2425	0.9667	0.7974	0.088
Mof_N 	N 	0.363	0.9427	0.8497	-0.1
Mof_N 	N 	0.1467	0.6609	0.0095	-0.082
Mof_N 	N 	0.636	0.5991	0.5519	-0.068
Mof_N 	N 	0.877	0.9397	0.6604	-0.091
Mof_Nd	Nd	0.48859	0.22359	0.75539	2.469
Mof_O 	O 	0.3293	0.1738	0.6479	-0.495
Mof_O 	O 	0.2002	0.2609	0.675	-0.667
Mof_C 	C 	0.2175	0.2161	0.6322	0.457
Mof_C 	C 	0.1022	0.2158	0.5643	-0.165
Mof_C 	C 	0.0521	0.1584	0.5322	0.098
Mof_C 	C 	0.0488	0.2728	0.5324	0.104
Mof_N 	N 	0.099	0.3264	0.554	-0.094
Mof_O 	O 	0.8146	0.2105	0.8225	-0.688
Mof_O 	O 	0.5909	0.183	0.8737	-0.5
Mof_C 	C 	0.7543	0.1901	0.8758	0.465
Mof_C 	C 	0.8781	0.178	0.9389	-0.151
Mof_C 	C 	0.8173	0.1748	0.0033	0.118
Mof_C 	C 	0.0589	0.1755	0.9377	-0.012
Mof_H 	H 	0.0993	0.1743	0.8949	0.036
Mof_O 	O 	0.7345	0.3333	0.786	-0.622
Mof_O 	O 	0.4829	0.3374	0.7179	-0.499
Mof_C 	C 	0.6137	0.3646	0.7519	0.484
Mof_C 	C 	0.6212	0.4349	0.7507	-0.183
Mof_C 	C 	0.5044	0.4676	0.7025	0.101
Mof_C 	C 	0.7425	0.4667	0.7974	0.088
Mof_N 	N 	0.863	0.4427	0.8497	-0.1
Mof_N 	N 	0.6467	0.1609	0.0095	-0.082
Mof_N 	N 	0.136	0.0991	0.5519	-0.068
Mof_N 	N 	0.377	0.4397	0.6604	-0.089
Mof_Nd	Nd	0.01141	0.72359	0.24461	2.46
Mof_O 	O 	0.1707	0.6738	0.3521	-0.495
Mof_O 	O 	0.2998	0.7609	0.325	-0.669
Mof_C 	C 	0.2825	0.7161	0.3678	0.457
Mof_C 	C 	0.3978	0.7158	0.4357	-0.166
Mof_C 	C 	0.4479	0.6584	0.4678	0.098
Mof_C 	C 	0.4512	0.7728	0.4676	0.104
Mof_N 	N 	0.401	0.8264	0.446	-0.094
Mof_O 	O 	0.6854	0.7105	0.1775	-0.686
Mof_O 	O 	0.9091	0.683	0.1263	-0.495
Mof_C 	C 	0.7457	0.6901	0.1242	0.463
Mof_C 	C 	0.6219	0.678	0.0611	-0.144
Mof_C 	C 	0.6827	0.6748	0.9967	0.116
Mof_C 	C 	0.4411	0.6755	0.0623	-0.017
Mof_H 	H 	0.4007	0.6743	0.1051	0.037
Mof_O 	O 	0.7655	0.8333	0.214	-0.623
Mof_O 	O 	0.0171	0.8374	0.2821	-0.503
Mof_C 	C 	0.8863	0.8646	0.2481	0.489
Mof_C 	C 	0.8788	0.9349	0.2493	-0.185
Mof_C 	C 	0.9956	0.9676	0.2975	0.104
Mof_C 	C 	0.7575	0.9667	0.2026	0.088
Mof_N 	N 	0.637	0.9427	0.1503	-0.1
Mof_N 	N 	0.8533	0.6609	0.9905	-0.082
Mof_N 	N 	0.364	0.5991	0.4481	-0.068
Mof_N 	N 	0.123	0.9397	0.3396	-0.091
Mof_Nd	Nd	0.51141	0.22359	0.24461	2.469
Mof_O 	O 	0.6707	0.1738	0.3521	-0.495
Mof_O 	O 	0.7998	0.2609	0.325	-0.667
Mof_C 	C 	0.7825	0.2161	0.3678	0.457
Mof_C 	C 	0.8978	0.2158	0.4357	-0.165
Mof_C 	C 	0.9479	0.1584	0.4678	0.098
Mof_C 	C 	0.9512	0.2728	0.4676	0.104
Mof_N 	N 	0.901	0.3264	0.446	-0.094
Mof_O 	O 	0.1854	0.2105	0.1775	-0.688
Mof_O 	O 	0.4091	0.183	0.1263	-0.5
Mof_C 	C 	0.2457	0.1901	0.1242	0.465
Mof_C 	C 	0.1219	0.178	0.0611	-0.151
Mof_C 	C 	0.1827	0.1748	0.9967	0.118
Mof_C 	C 	0.9411	0.1755	0.0623	-0.012
Mof_H 	H 	0.9007	0.1743	0.1051	0.036
Mof_O 	O 	0.2655	0.3333	0.214	-0.622
Mof_O 	O 	0.5171	0.3374	0.2821	-0.499
Mof_C 	C 	0.3863	0.3646	0.2481	0.484
Mof_C 	C 	0.3788	0.4349	0.2493	-0.183
Mof_C 	C 	0.4956	0.4676	0.2975	0.101
Mof_C 	C 	0.2575	0.4667	0.2026	0.088
Mof_N 	N 	0.137	0.4427	0.1503	-0.1
Mof_N 	N 	0.3533	0.1609	0.9905	-0.082
Mof_N 	N 	0.864	0.0991	0.4481	-0.068
Mof_N 	N 	0.623	0.4397	0.3396	-0.089
Mof_Nd	Nd	0.01141	0.27641	0.24461	2.46
Mof_O 	O 	0.1707	0.3262	0.3521	-0.495
Mof_O 	O 	0.2998	0.2391	0.325	-0.669
Mof_C 	C 	0.2825	0.2839	0.3678	0.457
Mof_C 	C 	0.3978	0.2842	0.4357	-0.166
Mof_C 	C 	0.4479	0.3416	0.4678	0.098
Mof_C 	C 	0.4512	0.2272	0.4676	0.104
Mof_N 	N 	0.401	0.1736	0.446	-0.094
Mof_O 	O 	0.6854	0.2895	0.1775	-0.686
Mof_O 	O 	0.9091	0.317	0.1263	-0.495
Mof_C 	C 	0.7457	0.3099	0.1242	0.463
Mof_C 	C 	0.6219	0.322	0.0611	-0.144
Mof_C 	C 	0.6827	0.3252	0.9967	0.116
Mof_C 	C 	0.4411	0.3245	0.0623	-0.017
Mof_H 	H 	0.4007	0.3257	0.1051	0.037
Mof_O 	O 	0.7655	0.1667	0.214	-0.623
Mof_O 	O 	0.0171	0.1626	0.2821	-0.503
Mof_C 	C 	0.8863	0.1354	0.2481	0.489
Mof_C 	C 	0.8788	0.0651	0.2493	-0.185
Mof_C 	C 	0.9956	0.0324	0.2975	0.104
Mof_C 	C 	0.7575	0.0333	0.2026	0.088
Mof_N 	N 	0.637	0.0573	0.1503	-0.1
Mof_N 	N 	0.8533	0.3391	0.9905	-0.082
Mof_N 	N 	0.364	0.4009	0.4481	-0.068
Mof_N 	N 	0.123	0.0603	0.3396	-0.091
Mof_Nd	Nd	0.51141	0.77641	0.24461	2.469
Mof_O 	O 	0.6707	0.8262	0.3521	-0.495
Mof_O 	O 	0.7998	0.7391	0.325	-0.667
Mof_C 	C 	0.7825	0.7839	0.3678	0.457
Mof_C 	C 	0.8978	0.7842	0.4357	-0.165
Mof_C 	C 	0.9479	0.8416	0.4678	0.098
Mof_C 	C 	0.9512	0.7272	0.4676	0.104
Mof_N 	N 	0.901	0.6736	0.446	-0.094
Mof_O 	O 	0.1854	0.7895	0.1775	-0.688
Mof_O 	O 	0.4091	0.817	0.1263	-0.5
Mof_C 	C 	0.2457	0.8099	0.1242	0.465
Mof_C 	C 	0.1219	0.822	0.0611	-0.151
Mof_C 	C 	0.1827	0.8252	0.9967	0.118
Mof_C 	C 	0.9411	0.8245	0.0623	-0.012
Mof_H 	H 	0.9007	0.8257	0.1051	0.036
Mof_O 	O 	0.2655	0.6667	0.214	-0.622
Mof_O 	O 	0.5171	0.6626	0.2821	-0.499
Mof_C 	C 	0.3863	0.6354	0.2481	0.484
Mof_C 	C 	0.3788	0.5651	0.2493	-0.183
Mof_C 	C 	0.4956	0.5324	0.2975	0.101
Mof_C 	C 	0.2575	0.5333	0.2026	0.088
Mof_N 	N 	0.137	0.5573	0.1503	-0.1
Mof_N 	N 	0.3533	0.8391	0.9905	-0.082
Mof_N 	N 	0.864	0.9009	0.4481	-0.068
Mof_N 	N 	0.623	0.5603	0.3396	-0.089
Mof_Nd	Nd	0.98859	0.27641	0.75539	2.46
Mof_O 	O 	0.8293	0.3262	0.6479	-0.495
Mof_O 	O 	0.7002	0.2391	0.675	-0.669
Mof_C 	C 	0.7175	0.2839	0.6322	0.457
Mof_C 	C 	0.6022	0.2842	0.5643	-0.166
Mof_C 	C 	0.5521	0.3416	0.5322	0.098
Mof_C 	C 	0.5488	0.2272	0.5324	0.104
Mof_N 	N 	0.599	0.1736	0.554	-0.094
Mof_O 	O 	0.3146	0.2895	0.8225	-0.686
Mof_O 	O 	0.0909	0.317	0.8737	-0.495
Mof_C 	C 	0.2543	0.3099	0.8758	0.463
Mof_C 	C 	0.3781	0.322	0.9389	-0.144
Mof_C 	C 	0.3173	0.3252	0.0033	0.116
Mof_C 	C 	0.5589	0.3245	0.9377	-0.017
Mof_H 	H 	0.5993	0.3257	0.8949	0.037
Mof_O 	O 	0.2345	0.1667	0.786	-0.623
Mof_O 	O 	0.9829	0.1626	0.7179	-0.503
Mof_C 	C 	0.1137	0.1354	0.7519	0.489
Mof_C 	C 	0.1212	0.0651	0.7507	-0.185
Mof_C 	C 	0.0044	0.0324	0.7025	0.104
Mof_C 	C 	0.2425	0.0333	0.7974	0.088
Mof_N 	N 	0.363	0.0573	0.8497	-0.1
Mof_N 	N 	0.1467	0.3391	0.0095	-0.082
Mof_N 	N 	0.636	0.4009	0.5519	-0.068
Mof_N 	N 	0.877	0.0603	0.6604	-0.091
Mof_Nd	Nd	0.48859	0.77641	0.75539	2.469
Mof_O 	O 	0.3293	0.8262	0.6479	-0.495
Mof_O 	O 	0.2002	0.7391	0.675	-0.667
Mof_C 	C 	0.2175	0.7839	0.6322	0.457
Mof_C 	C 	0.1022	0.7842	0.5643	-0.165
Mof_C 	C 	0.0521	0.8416	0.5322	0.098
Mof_C 	C 	0.0488	0.7272	0.5324	0.104
Mof_N 	N 	0.099	0.6736	0.554	-0.094
Mof_O 	O 	0.8146	0.7895	0.8225	-0.688
Mof_O 	O 	0.5909	0.817	0.8737	-0.5
Mof_C 	C 	0.7543	0.8099	0.8758	0.465
Mof_C 	C 	0.8781	0.822	0.9389	-0.151
Mof_C 	C 	0.8173	0.8252	0.0033	0.118
Mof_C 	C 	0.0589	0.8245	0.9377	-0.012
Mof_H 	H 	0.0993	0.8257	0.8949	0.036
Mof_O 	O 	0.7345	0.6667	0.786	-0.622
Mof_O 	O 	0.4829	0.6626	0.7179	-0.499
Mof_C 	C 	0.6137	0.6354	0.7519	0.484
Mof_C 	C 	0.6212	0.5651	0.7507	-0.183
Mof_C 	C 	0.5044	0.5324	0.7025	0.101
Mof_C 	C 	0.7425	0.5333	0.7974	0.088
Mof_N 	N 	0.863	0.5573	0.8497	-0.1
Mof_N 	N 	0.6467	0.8391	0.0095	-0.082
Mof_N 	N 	0.136	0.9009	0.5519	-0.068
Mof_N 	N 	0.377	0.5603	0.6604	-0.089
_end
