data_functionalizedCrystal
_audit_creation_method	'EQeq! by Chris Wilmer'
_symmetry_space_group_name_H-M	'P1'
_symmetry_Int_Tables_number	1
_symmetry_cell_setting	triclinic
loop_
_symmetry_equiv_pos_as_xyz
  x,y,z
_cell_length_a	13.0338
_cell_length_b	13.0338
_cell_length_c	13.0338
_cell_angle_alpha	90
_cell_angle_beta	90
_cell_angle_gamma	90
loop_
_atom_site_label
_atom_site_type_symbol
_atom_site_fract_x
_atom_site_fract_y
_atom_site_fract_z
_atom_site_charge
Mof_N 	N 	0.4668	0.1444	0.9412	-0.106
Mof_N 	N 	0.4668	0.6444	0.4412	-0.034
Mof_N 	N 	0.9668	0.1444	0.4412	0.084
Mof_N 	N 	0.9668	0.6444	0.9412	0.016
Mof_N 	N 	0.5332	0.8556	0.9412	-0.049
Mof_N 	N 	0.5332	0.3556	0.4412	-0.033
Mof_N 	N 	0.0332	0.8556	0.4412	-0.075
Mof_N 	N 	0.0332	0.3556	0.9412	-0.204
Mof_N 	N 	0.5332	0.1444	0.0588	0.025
Mof_N 	N 	0.5332	0.6444	0.5588	-0.035
Mof_N 	N 	0.0332	0.1444	0.5588	-0.147
Mof_N 	N 	0.0332	0.6444	0.0588	-0.07
Mof_N 	N 	0.4668	0.8556	0.0588	-0.012
Mof_N 	N 	0.4668	0.3556	0.5588	-0.033
Mof_N 	N 	0.9668	0.8556	0.5588	-0.005
Mof_N 	N 	0.9668	0.3556	0.0588	0.113
Mof_N 	N 	0.9412	0.4668	0.1444	-0.107
Mof_N 	N 	0.9412	0.9668	0.6444	0.015
Mof_N 	N 	0.4412	0.4668	0.6444	-0.035
Mof_N 	N 	0.4412	0.9668	0.1444	0.083
Mof_N 	N 	0.9412	0.5332	0.8556	-0.05
Mof_N 	N 	0.9412	0.0332	0.3556	-0.205
Mof_N 	N 	0.4412	0.5332	0.3556	-0.034
Mof_N 	N 	0.4412	0.0332	0.8556	-0.076
Mof_N 	N 	0.0588	0.5332	0.1444	0.024
Mof_N 	N 	0.0588	0.0332	0.6444	-0.07
Mof_N 	N 	0.5588	0.5332	0.6444	-0.036
Mof_N 	N 	0.5588	0.0332	0.1444	-0.148
Mof_N 	N 	0.0588	0.4668	0.8556	-0.012
Mof_N 	N 	0.0588	0.9668	0.3556	0.113
Mof_N 	N 	0.5588	0.4668	0.3556	-0.033
Mof_N 	N 	0.5588	0.9668	0.8556	-0.005
Mof_N 	N 	0.1444	0.9412	0.4668	-0.107
Mof_N 	N 	0.1444	0.4412	0.9668	0.083
Mof_N 	N 	0.6444	0.9412	0.9668	0.015
Mof_N 	N 	0.6444	0.4412	0.4668	-0.035
Mof_N 	N 	0.8556	0.9412	0.5332	-0.05
Mof_N 	N 	0.8556	0.4412	0.0332	-0.076
Mof_N 	N 	0.3556	0.9412	0.0332	-0.205
Mof_N 	N 	0.3556	0.4412	0.5332	-0.034
Mof_N 	N 	0.1444	0.0588	0.5332	0.024
Mof_N 	N 	0.1444	0.5588	0.0332	-0.148
Mof_N 	N 	0.6444	0.0588	0.0332	-0.07
Mof_N 	N 	0.6444	0.5588	0.5332	-0.036
Mof_N 	N 	0.8556	0.0588	0.4668	-0.012
Mof_N 	N 	0.8556	0.5588	0.9668	-0.005
Mof_N 	N 	0.3556	0.0588	0.9668	0.113
Mof_N 	N 	0.3556	0.5588	0.4668	-0.033
Mof_N 	N 	0.1444	0.4668	0.0588	0.033
Mof_N 	N 	0.1444	0.9668	0.5588	0.081
Mof_N 	N 	0.6444	0.4668	0.5588	-0.035
Mof_N 	N 	0.6444	0.9668	0.0588	0.045
Mof_N 	N 	0.8556	0.5332	0.0588	-0.022
Mof_N 	N 	0.8556	0.0332	0.5588	-0.073
Mof_N 	N 	0.3556	0.5332	0.5588	-0.033
Mof_N 	N 	0.3556	0.0332	0.0588	-0.101
Mof_N 	N 	0.1444	0.5332	0.9412	-0.1
Mof_N 	N 	0.1444	0.0332	0.4412	-0.15
Mof_N 	N 	0.6444	0.5332	0.4412	-0.036
Mof_N 	N 	0.6444	0.0332	0.9412	-0.147
Mof_N 	N 	0.8556	0.4668	0.9412	-0.057
Mof_N 	N 	0.8556	0.9668	0.4412	-0.005
Mof_N 	N 	0.3556	0.4668	0.4412	-0.034
Mof_N 	N 	0.3556	0.9668	0.9412	0.055
Mof_N 	N 	0.4668	0.9412	0.8556	-0.057
Mof_N 	N 	0.4668	0.4412	0.3556	-0.034
Mof_N 	N 	0.9668	0.9412	0.3556	0.055
Mof_N 	N 	0.9668	0.4412	0.8556	-0.005
Mof_N 	N 	0.5332	0.9412	0.1444	-0.1
Mof_N 	N 	0.5332	0.4412	0.6444	-0.036
Mof_N 	N 	0.0332	0.9412	0.6444	-0.147
Mof_N 	N 	0.0332	0.4412	0.1444	-0.15
Mof_N 	N 	0.5332	0.0588	0.8556	-0.022
Mof_N 	N 	0.5332	0.5588	0.3556	-0.033
Mof_N 	N 	0.0332	0.0588	0.3556	-0.101
Mof_N 	N 	0.0332	0.5588	0.8556	-0.073
Mof_N 	N 	0.4668	0.0588	0.1444	0.033
Mof_N 	N 	0.4668	0.5588	0.6444	-0.035
Mof_N 	N 	0.9668	0.0588	0.6444	0.045
Mof_N 	N 	0.9668	0.5588	0.1444	0.081
Mof_N 	N 	0.9412	0.1444	0.5332	-0.1
Mof_N 	N 	0.9412	0.6444	0.0332	-0.147
Mof_N 	N 	0.4412	0.1444	0.0332	-0.15
Mof_N 	N 	0.4412	0.6444	0.5332	-0.036
Mof_N 	N 	0.9412	0.8556	0.4668	-0.057
Mof_N 	N 	0.9412	0.3556	0.9668	0.055
Mof_N 	N 	0.4412	0.8556	0.9668	-0.005
Mof_N 	N 	0.4412	0.3556	0.4668	-0.034
Mof_N 	N 	0.0588	0.1444	0.4668	0.033
Mof_N 	N 	0.0588	0.6444	0.9668	0.045
Mof_N 	N 	0.5588	0.1444	0.9668	0.081
Mof_N 	N 	0.5588	0.6444	0.4668	-0.035
Mof_N 	N 	0.0588	0.8556	0.5332	-0.022
Mof_N 	N 	0.0588	0.3556	0.0332	-0.101
Mof_N 	N 	0.5588	0.8556	0.0332	-0.073
Mof_N 	N 	0.5588	0.3556	0.5332	-0.033
Mof_N 	N 	0.5332	0.8556	0.0588	-0.022
Mof_N 	N 	0.5332	0.3556	0.5588	-0.033
Mof_N 	N 	0.0332	0.8556	0.5588	-0.073
Mof_N 	N 	0.0332	0.3556	0.0588	-0.101
Mof_N 	N 	0.4668	0.1444	0.0588	0.033
Mof_N 	N 	0.4668	0.6444	0.5588	-0.035
Mof_N 	N 	0.9668	0.1444	0.5588	0.081
Mof_N 	N 	0.9668	0.6444	0.0588	0.045
Mof_N 	N 	0.4668	0.8556	0.9412	-0.057
Mof_N 	N 	0.4668	0.3556	0.4412	-0.034
Mof_N 	N 	0.9668	0.8556	0.4412	-0.005
Mof_N 	N 	0.9668	0.3556	0.9412	0.055
Mof_N 	N 	0.5332	0.1444	0.9412	-0.1
Mof_N 	N 	0.5332	0.6444	0.4412	-0.036
Mof_N 	N 	0.0332	0.1444	0.4412	-0.15
Mof_N 	N 	0.0332	0.6444	0.9412	-0.147
Mof_N 	N 	0.0588	0.5332	0.8556	-0.022
Mof_N 	N 	0.0588	0.0332	0.3556	-0.101
Mof_N 	N 	0.5588	0.5332	0.3556	-0.033
Mof_N 	N 	0.5588	0.0332	0.8556	-0.073
Mof_N 	N 	0.0588	0.4668	0.1444	0.033
Mof_N 	N 	0.0588	0.9668	0.6444	0.045
Mof_N 	N 	0.5588	0.4668	0.6444	-0.035
Mof_N 	N 	0.5588	0.9668	0.1444	0.081
Mof_N 	N 	0.9412	0.4668	0.8556	-0.057
Mof_N 	N 	0.9412	0.9668	0.3556	0.055
Mof_N 	N 	0.4412	0.4668	0.3556	-0.034
Mof_N 	N 	0.4412	0.9668	0.8556	-0.005
Mof_N 	N 	0.9412	0.5332	0.1444	-0.1
Mof_N 	N 	0.9412	0.0332	0.6444	-0.147
Mof_N 	N 	0.4412	0.5332	0.6444	-0.036
Mof_N 	N 	0.4412	0.0332	0.1444	-0.15
Mof_N 	N 	0.8556	0.0588	0.5332	-0.022
Mof_N 	N 	0.8556	0.5588	0.0332	-0.073
Mof_N 	N 	0.3556	0.0588	0.0332	-0.101
Mof_N 	N 	0.3556	0.5588	0.5332	-0.033
Mof_N 	N 	0.1444	0.0588	0.4668	0.033
Mof_N 	N 	0.1444	0.5588	0.9668	0.081
Mof_N 	N 	0.6444	0.0588	0.9668	0.045
Mof_N 	N 	0.6444	0.5588	0.4668	-0.035
Mof_N 	N 	0.8556	0.9412	0.4668	-0.057
Mof_N 	N 	0.8556	0.4412	0.9668	-0.005
Mof_N 	N 	0.3556	0.9412	0.9668	0.055
Mof_N 	N 	0.3556	0.4412	0.4668	-0.034
Mof_N 	N 	0.1444	0.9412	0.5332	-0.1
Mof_N 	N 	0.1444	0.4412	0.0332	-0.15
Mof_N 	N 	0.6444	0.9412	0.0332	-0.147
Mof_N 	N 	0.6444	0.4412	0.5332	-0.036
Mof_N 	N 	0.8556	0.5332	0.9412	-0.05
Mof_N 	N 	0.8556	0.0332	0.4412	-0.076
Mof_N 	N 	0.3556	0.5332	0.4412	-0.034
Mof_N 	N 	0.3556	0.0332	0.9412	-0.205
Mof_N 	N 	0.1444	0.4668	0.9412	-0.107
Mof_N 	N 	0.1444	0.9668	0.4412	0.083
Mof_N 	N 	0.6444	0.4668	0.4412	-0.035
Mof_N 	N 	0.6444	0.9668	0.9412	0.015
Mof_N 	N 	0.8556	0.4668	0.0588	-0.012
Mof_N 	N 	0.8556	0.9668	0.5588	-0.005
Mof_N 	N 	0.3556	0.4668	0.5588	-0.033
Mof_N 	N 	0.3556	0.9668	0.0588	0.113
Mof_N 	N 	0.1444	0.5332	0.0588	0.024
Mof_N 	N 	0.1444	0.0332	0.5588	-0.148
Mof_N 	N 	0.6444	0.5332	0.5588	-0.036
Mof_N 	N 	0.6444	0.0332	0.0588	-0.07
Mof_N 	N 	0.5332	0.0588	0.1444	0.024
Mof_N 	N 	0.5332	0.5588	0.6444	-0.036
Mof_N 	N 	0.0332	0.0588	0.6444	-0.07
Mof_N 	N 	0.0332	0.5588	0.1444	-0.148
Mof_N 	N 	0.4668	0.0588	0.8556	-0.012
Mof_N 	N 	0.4668	0.5588	0.3556	-0.033
Mof_N 	N 	0.9668	0.0588	0.3556	0.113
Mof_N 	N 	0.9668	0.5588	0.8556	-0.005
Mof_N 	N 	0.4668	0.9412	0.1444	-0.107
Mof_N 	N 	0.4668	0.4412	0.6444	-0.035
Mof_N 	N 	0.9668	0.9412	0.6444	0.015
Mof_N 	N 	0.9668	0.4412	0.1444	0.083
Mof_N 	N 	0.5332	0.9412	0.8556	-0.05
Mof_N 	N 	0.5332	0.4412	0.3556	-0.034
Mof_N 	N 	0.0332	0.9412	0.3556	-0.205
Mof_N 	N 	0.0332	0.4412	0.8556	-0.076
Mof_N 	N 	0.0588	0.8556	0.4668	-0.012
Mof_N 	N 	0.0588	0.3556	0.9668	0.113
Mof_N 	N 	0.5588	0.8556	0.9668	-0.005
Mof_N 	N 	0.5588	0.3556	0.4668	-0.033
Mof_N 	N 	0.0588	0.1444	0.5332	0.024
Mof_N 	N 	0.0588	0.6444	0.0332	-0.07
Mof_N 	N 	0.5588	0.1444	0.0332	-0.148
Mof_N 	N 	0.5588	0.6444	0.5332	-0.036
Mof_N 	N 	0.9412	0.8556	0.5332	-0.05
Mof_N 	N 	0.9412	0.3556	0.0332	-0.205
Mof_N 	N 	0.4412	0.8556	0.0332	-0.076
Mof_N 	N 	0.4412	0.3556	0.5332	-0.034
Mof_N 	N 	0.9412	0.1444	0.4668	-0.107
Mof_N 	N 	0.9412	0.6444	0.9668	0.015
Mof_N 	N 	0.4412	0.1444	0.9668	0.083
Mof_N 	N 	0.4412	0.6444	0.4668	-0.035
Mof_Fe	Fe	0.5	0	-0	1.042
Mof_Fe	Fe	0.5	0.5	0.5	0.959
Mof_Fe	Fe	1.8747e-33	0	0.5	1.042
Mof_Fe	Fe	-0	0.5	-0	1.042
Mof_Na	Na	0.5	0.5	-0	2.187
Mof_Na	Na	1.8747e-33	0.5	0.5	2.187
Mof_Na	Na	0.5	0	0.5	2.187
Mof_Na	Na	-0	0	-0	2.414
Mof_N 	N 	0.4803	0.2262	0.9803	-0.137
Mof_N 	N 	0.4803	0.7262	0.4803	0.002
Mof_N 	N 	0.5197	0.7738	0.9803	-0.099
Mof_N 	N 	0.5197	0.2738	0.4803	0.001
Mof_N 	N 	0.0197	0.7738	0.4803	0.095
Mof_N 	N 	0.5197	0.2262	0.0197	0.141
Mof_N 	N 	0.5197	0.7262	0.5197	-0.004
Mof_N 	N 	0.0197	0.7262	0.0197	0.345
Mof_N 	N 	0.4803	0.7738	0.0197	0.095
Mof_N 	N 	0.4803	0.2738	0.5197	0.001
Mof_N 	N 	0.9803	0.4803	0.2262	-0.137
Mof_N 	N 	0.9803	0.9803	0.7262	-0.44
Mof_N 	N 	0.4803	0.4803	0.7262	0.002
Mof_N 	N 	0.9803	0.5197	0.7738	-0.099
Mof_N 	N 	0.9803	0.0197	0.2738	0.047
Mof_N 	N 	0.4803	0.0197	0.7738	0.095
Mof_N 	N 	0.0197	0.5197	0.2262	0.141
Mof_N 	N 	0.0197	0.0197	0.7262	0.345
Mof_N 	N 	0.0197	0.4803	0.7738	0.095
Mof_N 	N 	0.0197	0.9803	0.2738	0.047
Mof_N 	N 	0.2262	0.9803	0.4803	-0.137
Mof_N 	N 	0.7262	0.9803	0.9803	-0.44
Mof_N 	N 	0.7262	0.4803	0.4803	0.002
Mof_N 	N 	0.7738	0.9803	0.5197	-0.099
Mof_N 	N 	0.7738	0.4803	0.0197	0.095
Mof_N 	N 	0.2738	0.9803	0.0197	0.047
Mof_N 	N 	0.2262	0.0197	0.5197	0.141
Mof_N 	N 	0.7262	0.0197	0.0197	0.345
Mof_N 	N 	0.7738	0.0197	0.4803	0.095
Mof_N 	N 	0.2738	0.0197	0.9803	0.047
Mof_N 	N 	0.2262	0.4803	0.0197	0.179
Mof_N 	N 	0.7262	0.4803	0.5197	-0.001
Mof_N 	N 	0.7738	0.5197	0.0197	0.073
Mof_N 	N 	0.2738	0.5197	0.5197	-0.032
Mof_N 	N 	0.2738	0.0197	0.0197	0.712
Mof_N 	N 	0.2262	0.5197	0.9803	-0.181
Mof_N 	N 	0.2262	0.0197	0.4803	0.179
Mof_N 	N 	0.7262	0.5197	0.4803	-0.001
Mof_N 	N 	0.7738	0.4803	0.9803	-0.071
Mof_N 	N 	0.2738	0.4803	0.4803	0.034
Mof_N 	N 	0.4803	0.9803	0.7738	-0.071
Mof_N 	N 	0.4803	0.4803	0.2738	0.034
Mof_N 	N 	0.5197	0.9803	0.2262	-0.181
Mof_N 	N 	0.5197	0.4803	0.7262	-0.001
Mof_N 	N 	0.0197	0.4803	0.2262	0.179
Mof_N 	N 	0.5197	0.0197	0.7738	0.073
Mof_N 	N 	0.5197	0.5197	0.2738	-0.032
Mof_N 	N 	0.0197	0.0197	0.2738	0.712
Mof_N 	N 	0.4803	0.0197	0.2262	0.179
Mof_N 	N 	0.4803	0.5197	0.7262	-0.001
Mof_N 	N 	0.9803	0.2262	0.5197	-0.181
Mof_N 	N 	0.9803	0.7262	0.0197	0.043
Mof_N 	N 	0.4803	0.2262	0.0197	0.179
Mof_N 	N 	0.9803	0.7738	0.4803	-0.071
Mof_N 	N 	0.9803	0.2738	0.9803	-0.802
Mof_N 	N 	0.4803	0.2738	0.4803	0.034
Mof_N 	N 	0.0197	0.2262	0.4803	0.179
Mof_N 	N 	0.0197	0.7262	0.9803	0.043
Mof_N 	N 	0.0197	0.7738	0.5197	0.073
Mof_N 	N 	0.0197	0.2738	0.0197	0.712
Mof_N 	N 	0.5197	0.7738	0.0197	0.073
Mof_N 	N 	0.5197	0.2738	0.5197	-0.032
Mof_N 	N 	0.4803	0.7262	0.5197	-0.001
Mof_N 	N 	0.4803	0.7738	0.9803	-0.071
Mof_N 	N 	0.5197	0.2262	0.9803	-0.181
Mof_N 	N 	0.5197	0.7262	0.4803	-0.001
Mof_N 	N 	0.0197	0.5197	0.7738	0.073
Mof_N 	N 	0.0197	0.9803	0.7262	0.043
Mof_N 	N 	0.9803	0.4803	0.7738	-0.071
Mof_N 	N 	0.9803	0.9803	0.2738	-0.802
Mof_N 	N 	0.9803	0.5197	0.2262	-0.181
Mof_N 	N 	0.9803	0.0197	0.7262	0.043
Mof_N 	N 	0.7738	0.0197	0.5197	0.073
Mof_N 	N 	0.7262	0.0197	0.9803	0.043
Mof_N 	N 	0.7738	0.9803	0.4803	-0.071
Mof_N 	N 	0.2738	0.9803	0.9803	-0.802
Mof_N 	N 	0.2262	0.9803	0.5197	-0.181
Mof_N 	N 	0.7262	0.9803	0.0197	0.043
Mof_N 	N 	0.7738	0.5197	0.9803	-0.099
Mof_N 	N 	0.2738	0.5197	0.4803	0.001
Mof_N 	N 	0.2262	0.4803	0.9803	-0.137
Mof_N 	N 	0.2738	0.4803	0.5197	0.001
Mof_N 	N 	0.2262	0.5197	0.0197	0.141
Mof_N 	N 	0.7262	0.5197	0.5197	-0.004
Mof_N 	N 	0.5197	0.0197	0.2262	0.141
Mof_N 	N 	0.5197	0.5197	0.7262	-0.004
Mof_N 	N 	0.4803	0.5197	0.2738	0.001
Mof_N 	N 	0.4803	0.9803	0.2262	-0.137
Mof_N 	N 	0.5197	0.9803	0.7738	-0.099
Mof_N 	N 	0.5197	0.4803	0.2738	0.001
Mof_N 	N 	0.0197	0.2738	0.9803	0.047
Mof_N 	N 	0.0197	0.2262	0.5197	0.141
Mof_N 	N 	0.9803	0.7738	0.5197	-0.099
Mof_N 	N 	0.9803	0.2738	0.0197	0.047
Mof_N 	N 	0.9803	0.2262	0.4803	-0.137
Mof_N 	N 	0.9803	0.7262	0.9803	-0.44
Mof_N 	N 	0.5	0.307	0.018	-0.505
Mof_N 	N 	0.5	0.807	0.518	-0.066
Mof_N 	N 	1.94219e-33	0.307	0.518	-0.02
Mof_N 	N 	4.87722e-33	0.807	0.018	-0.79
Mof_N 	N 	0.5	0.693	0.018	-0.333
Mof_N 	N 	0.5	0.193	0.518	-0.006
Mof_N 	N 	-9.45866e-33	0.693	0.518	-0.034
Mof_N 	N 	6.01904e-34	0.193	0.018	-1.36
Mof_N 	N 	0.5	0.307	0.982	0.434
Mof_N 	N 	0.5	0.807	0.482	-0.07
Mof_N 	N 	-9.59364e-33	0.307	0.482	-0.152
Mof_N 	N 	1.50828e-32	0.807	0.982	0.632
Mof_N 	N 	0.5	0.693	0.982	0.227
Mof_N 	N 	0.5	0.193	0.482	-0.112
Mof_N 	N 	-9.59364e-33	0.693	0.482	-0.116
Mof_N 	N 	3.68191e-33	0.193	0.982	1.25
Mof_N 	N 	0.018	0.5	0.307	-0.505
Mof_N 	N 	0.018	0	0.807	-0.79
Mof_N 	N 	0.518	0.5	0.807	-0.066
Mof_N 	N 	0.518	-2.85021e-33	0.307	-0.02
Mof_N 	N 	0.018	0.5	0.693	-0.333
Mof_N 	N 	0.018	1.42511e-33	0.193	-1.36
Mof_N 	N 	0.518	0.5	0.193	-0.006
Mof_N 	N 	0.518	-5.70043e-33	0.693	-0.034
Mof_N 	N 	0.982	0.5	0.307	0.434
Mof_N 	N 	0.982	0	0.807	0.632
Mof_N 	N 	0.482	0.5	0.807	-0.07
Mof_N 	N 	0.482	-2.85021e-33	0.307	-0.152
Mof_N 	N 	0.982	0.5	0.693	0.227
Mof_N 	N 	0.982	1.42511e-33	0.193	1.25
Mof_N 	N 	0.482	0.5	0.193	-0.112
Mof_N 	N 	0.482	-5.70043e-33	0.693	-0.116
Mof_N 	N 	0.307	0.018	0.5	-0.505
Mof_N 	N 	0.307	0.518	-0	-0.02
Mof_N 	N 	0.807	0.018	-0	-0.79
Mof_N 	N 	0.807	0.518	0.5	-0.066
Mof_N 	N 	0.693	0.018	0.5	-0.333
Mof_N 	N 	0.693	0.518	-0	-0.034
Mof_N 	N 	0.193	0.018	-0	-1.36
Mof_N 	N 	0.193	0.518	0.5	-0.006
Mof_N 	N 	0.307	0.982	0.5	0.434
Mof_N 	N 	0.307	0.482	-0	-0.152
Mof_N 	N 	0.807	0.982	-0	0.632
Mof_N 	N 	0.807	0.482	0.5	-0.07
Mof_N 	N 	0.693	0.982	0.5	0.227
Mof_N 	N 	0.693	0.482	-0	-0.116
Mof_N 	N 	0.193	0.982	-0	1.25
Mof_N 	N 	0.193	0.482	0.5	-0.112
Mof_N 	N 	0.307	0.5	0.982	0.434
Mof_N 	N 	0.307	-5.70043e-33	0.482	-0.152
Mof_N 	N 	0.807	0.5	0.482	-0.07
Mof_N 	N 	0.807	0	0.982	0.632
Mof_N 	N 	0.693	0.5	0.982	0.227
Mof_N 	N 	0.693	-5.70043e-33	0.482	-0.116
Mof_N 	N 	0.193	0.5	0.482	-0.112
Mof_N 	N 	0.193	0	0.982	1.25
Mof_N 	N 	0.307	0.5	0.018	-0.505
Mof_N 	N 	0.307	0	0.518	-0.02
Mof_N 	N 	0.807	0.5	0.518	-0.066
Mof_N 	N 	0.807	0	0.018	-0.79
Mof_N 	N 	0.693	0.5	0.018	-0.333
Mof_N 	N 	0.693	0	0.518	-0.034
Mof_N 	N 	0.193	0.5	0.518	-0.006
Mof_N 	N 	0.193	0	0.018	-1.36
Mof_N 	N 	0.5	0.018	0.693	-0.333
Mof_N 	N 	0.5	0.518	0.193	-0.006
Mof_N 	N 	7.23634e-34	0.018	0.193	-1.36
Mof_N 	N 	-1.45029e-32	0.518	0.693	-0.034
Mof_N 	N 	0.5	0.018	0.307	-0.505
Mof_N 	N 	0.5	0.518	0.807	-0.066
Mof_N 	N 	3.02577e-33	0.018	0.807	-0.79
Mof_N 	N 	-1.69915e-33	0.518	0.307	-0.02
Mof_N 	N 	0.5	0.982	0.693	0.227
Mof_N 	N 	0.5	0.482	0.193	-0.112
Mof_N 	N 	4.99895e-33	0.982	0.193	1.25
Mof_N 	N 	-1.45029e-32	0.482	0.693	-0.116
Mof_N 	N 	0.5	0.982	0.307	0.434
Mof_N 	N 	0.5	0.482	0.807	-0.07
Mof_N 	N 	8.72619e-33	0.982	0.807	0.632
Mof_N 	N 	-7.39957e-33	0.482	0.307	-0.152
Mof_N 	N 	0.018	0.307	0.5	-0.505
Mof_N 	N 	0.018	0.807	-0	-0.79
Mof_N 	N 	0.518	0.307	-0	-0.02
Mof_N 	N 	0.518	0.807	0.5	-0.066
Mof_N 	N 	0.018	0.693	0.5	-0.333
Mof_N 	N 	0.018	0.193	-0	-1.36
Mof_N 	N 	0.518	0.693	-0	-0.034
Mof_N 	N 	0.518	0.193	0.5	-0.006
Mof_N 	N 	0.982	0.307	0.5	0.434
Mof_N 	N 	0.982	0.807	-0	0.632
Mof_N 	N 	0.482	0.307	-0	-0.152
Mof_N 	N 	0.482	0.807	0.5	-0.07
Mof_N 	N 	0.982	0.693	0.5	0.227
Mof_N 	N 	0.982	0.193	-0	1.25
Mof_N 	N 	0.482	0.693	-0	-0.116
Mof_N 	N 	0.482	0.193	0.5	-0.112
_end
