# CIF file generated by openbabel 3.1.0, see https://openbabel.org
data_I
_chemical_name_common 'image0'
_cell_length_a 18.313
_cell_length_b 8.8229
_cell_length_c 16.221
_cell_angle_alpha 90
_cell_angle_beta 111.7
_cell_angle_gamma 90
_space_group_name_H-M_alt 'P 1'
_space_group_name_Hall 'P 1'
loop_
    _symmetry_equiv_pos_as_xyz
    x,y,z
loop_
    _atom_site_label
    _atom_site_type_symbol
    _atom_site_fract_x
    _atom_site_fract_y
    _atom_site_fract_z
    _atom_site_occupancy
    In1      In       0.26462    0.71957    0.33978    1.000
    P1       P        0.13801    0.85149    0.43152    1.000
    P2       P        0.87366    0.92416    0.31375    1.000
    P3       P        0.13147    0.45252    0.24136    1.000
    O1       O        0.19370    0.52480    0.32224    1.000
    O2       O        0.09369    0.00790    0.40114    1.000
    H1       H        0.07580    0.01260    0.34680    1.000
    O3       O        0.21308    0.85860    0.41153    1.000
    O4       O        0.16062    0.40450    0.16769    1.000
    O5       O        0.93857    0.90380    0.27757    1.000
    O6       O        0.81380    0.79600    0.28740    1.000
    O7       O        0.08359    0.72270    0.38360    1.000
    O8       O        0.83676    0.08130    0.28821    1.000
    O9       O        0.05913    0.55360    0.20158    1.000
    O10      O        0.10438    0.30490    0.27730    1.000
    H2       H        0.12060    0.22980    0.25960    1.000
    O11      O        0.15451    0.84820    0.53099    1.000
    O12      O        0.91377    0.91440    0.41813    1.000
    H3       H        0.89690    0.98260    0.44060    1.000
    In2      In       0.76462    0.21957    0.33978    1.000
    P4       P        0.63801    0.35149    0.43152    1.000
    P5       P        0.37366    0.42416    0.31375    1.000
    P6       P        0.63147    0.95252    0.24136    1.000
    O13      O        0.69370    0.02480    0.32224    1.000
    O14      O        0.59369    0.50790    0.40114    1.000
    H4       H        0.57580    0.51260    0.34680    1.000
    O15      O        0.71308    0.35860    0.41153    1.000
    O16      O        0.66062    0.90450    0.16769    1.000
    O17      O        0.43857    0.40380    0.27757    1.000
    O18      O        0.31380    0.29600    0.28740    1.000
    O19      O        0.58359    0.22270    0.38360    1.000
    O20      O        0.33676    0.58130    0.28821    1.000
    O21      O        0.55913    0.05360    0.20158    1.000
    O22      O        0.60438    0.80490    0.27730    1.000
    H5       H        0.62060    0.72980    0.25960    1.000
    O23      O        0.65451    0.34820    0.53099    1.000
    O24      O        0.41377    0.41440    0.41813    1.000
    H6       H        0.39690    0.48260    0.44060    1.000
    In3      In       0.73538    0.71957    0.16022    1.000
    P7       P        0.86199    0.85149    0.06848    1.000
    P8       P        0.12634    0.92416    0.18625    1.000
    P9       P        0.86853    0.45252    0.25864    1.000
    O25      O        0.80630    0.52480    0.17776    1.000
    O26      O        0.90631    0.00790    0.09886    1.000
    H7       H        0.92420    0.01260    0.15320    1.000
    O27      O        0.78692    0.85860    0.08847    1.000
    O28      O        0.83938    0.40450    0.33231    1.000
    O29      O        0.06143    0.90380    0.22243    1.000
    O30      O        0.18620    0.79600    0.21260    1.000
    O31      O        0.91641    0.72270    0.11640    1.000
    O32      O        0.16324    0.08130    0.21179    1.000
    O33      O        0.94087    0.55360    0.29842    1.000
    O34      O        0.89562    0.30490    0.22270    1.000
    H8       H        0.87940    0.22980    0.24040    1.000
    O35      O        0.84549    0.84820    0.96901    1.000
    O36      O        0.08623    0.91440    0.08187    1.000
    H9       H        0.10310    0.98260    0.05940    1.000
    In4      In       0.23538    0.21957    0.16022    1.000
    P10      P        0.36199    0.35149    0.06848    1.000
    P11      P        0.62634    0.42416    0.18625    1.000
    P12      P        0.36853    0.95252    0.25864    1.000
    O37      O        0.30630    0.02480    0.17776    1.000
    O38      O        0.40631    0.50790    0.09886    1.000
    H10      H        0.42420    0.51260    0.15320    1.000
    O39      O        0.28692    0.35860    0.08847    1.000
    O40      O        0.33938    0.90450    0.33231    1.000
    O41      O        0.56143    0.40380    0.22243    1.000
    O42      O        0.68620    0.29600    0.21260    1.000
    O43      O        0.41641    0.22270    0.11640    1.000
    O44      O        0.66324    0.58130    0.21179    1.000
    O45      O        0.44087    0.05360    0.29842    1.000
    O46      O        0.39562    0.80490    0.22270    1.000
    H11      H        0.37940    0.72980    0.24040    1.000
    O47      O        0.34549    0.34820    0.96901    1.000
    O48      O        0.58623    0.41440    0.08187    1.000
    H12      H        0.60310    0.48260    0.05940    1.000
    In5      In       0.73538    0.28043    0.66022    1.000
    P13      P        0.86199    0.14851    0.56848    1.000
    P14      P        0.12634    0.07584    0.68625    1.000
    P15      P        0.86853    0.54748    0.75864    1.000
    O49      O        0.80630    0.47520    0.67776    1.000
    O50      O        0.90631    0.99210    0.59886    1.000
    H13      H        0.92420    0.98740    0.65320    1.000
    O51      O        0.78692    0.14140    0.58847    1.000
    O52      O        0.83938    0.59550    0.83231    1.000
    O53      O        0.06143    0.09620    0.72243    1.000
    O54      O        0.18620    0.20400    0.71260    1.000
    O55      O        0.91641    0.27730    0.61640    1.000
    O56      O        0.16324    0.91870    0.71179    1.000
    O57      O        0.94087    0.44640    0.79842    1.000
    O58      O        0.89562    0.69510    0.72270    1.000
    H14      H        0.87940    0.77020    0.74040    1.000
    O59      O        0.84549    0.15180    0.46901    1.000
    O60      O        0.08623    0.08560    0.58187    1.000
    H15      H        0.10310    0.01740    0.55940    1.000
    In6      In       0.23538    0.78043    0.66022    1.000
    P16      P        0.36199    0.64851    0.56848    1.000
    P17      P        0.62634    0.57584    0.68625    1.000
    P18      P        0.36853    0.04748    0.75864    1.000
    O61      O        0.30630    0.97520    0.67776    1.000
    O62      O        0.40631    0.49210    0.59886    1.000
    H16      H        0.42420    0.48740    0.65320    1.000
    O63      O        0.28692    0.64140    0.58847    1.000
    O64      O        0.33938    0.09550    0.83231    1.000
    O65      O        0.56143    0.59620    0.72243    1.000
    O66      O        0.68620    0.70400    0.71260    1.000
    O67      O        0.41641    0.77730    0.61640    1.000
    O68      O        0.66324    0.41870    0.71179    1.000
    O69      O        0.44087    0.94640    0.79842    1.000
    O70      O        0.39562    0.19510    0.72270    1.000
    H17      H        0.37940    0.27020    0.74040    1.000
    O71      O        0.34549    0.65180    0.46901    1.000
    O72      O        0.58623    0.58560    0.58187    1.000
    H18      H        0.60310    0.51740    0.55940    1.000
    In7      In       0.26462    0.28043    0.83978    1.000
    P19      P        0.13801    0.14851    0.93152    1.000
    P20      P        0.87366    0.07584    0.81375    1.000
    P21      P        0.13147    0.54748    0.74136    1.000
    O73      O        0.19370    0.47520    0.82224    1.000
    O74      O        0.09369    0.99210    0.90114    1.000
    H19      H        0.07580    0.98740    0.84680    1.000
    O75      O        0.21308    0.14140    0.91153    1.000
    O76      O        0.16062    0.59550    0.66769    1.000
    O77      O        0.93857    0.09620    0.77757    1.000
    O78      O        0.81380    0.20400    0.78740    1.000
    O79      O        0.08359    0.27730    0.88360    1.000
    O80      O        0.83676    0.91870    0.78821    1.000
    O81      O        0.05913    0.44640    0.70158    1.000
    O82      O        0.10438    0.69510    0.77730    1.000
    H20      H        0.12060    0.77020    0.75960    1.000
    O83      O        0.15451    0.15180    0.03099    1.000
    O84      O        0.91377    0.08560    0.91813    1.000
    H21      H        0.89690    0.01740    0.94060    1.000
    In8      In       0.76462    0.78043    0.83978    1.000
    P22      P        0.63801    0.64851    0.93152    1.000
    P23      P        0.37366    0.57584    0.81375    1.000
    P24      P        0.63147    0.04748    0.74136    1.000
    O85      O        0.69370    0.97520    0.82224    1.000
    O86      O        0.59369    0.49210    0.90114    1.000
    H22      H        0.57580    0.48740    0.84680    1.000
    O87      O        0.71308    0.64140    0.91153    1.000
    O88      O        0.66062    0.09550    0.66769    1.000
    O89      O        0.43857    0.59620    0.77757    1.000
    O90      O        0.31380    0.70400    0.78740    1.000
    O91      O        0.58359    0.77730    0.88360    1.000
    O92      O        0.33676    0.41870    0.78821    1.000
    O93      O        0.55913    0.94640    0.70158    1.000
    O94      O        0.60438    0.19510    0.77730    1.000
    H23      H        0.62060    0.27020    0.75960    1.000
    O95      O        0.65451    0.65180    0.03099    1.000
    O96      O        0.41377    0.58560    0.91813    1.000
    H24      H        0.39690    0.51740    0.94060    1.000
    In9      In       0.00000    0.71412    0.25000    1.000
    In10     In       0.50000    0.21412    0.25000    1.000
    In11     In       0.00000    0.28588    0.75000    1.000
    In12     In       0.50000    0.78588    0.75000    1.000
