data_functionalizedCrystal
_audit_creation_method	'EQeq! by Chris Wilmer'
_symmetry_space_group_name_H-M	'P1'
_symmetry_Int_Tables_number	1
_symmetry_cell_setting	triclinic
loop_
_symmetry_equiv_pos_as_xyz
  x,y,z
_cell_length_a	16.3693
_cell_length_b	24.803
_cell_length_c	24.803
_cell_angle_alpha	120
_cell_angle_beta	90
_cell_angle_gamma	90
loop_
_atom_site_label
_atom_site_type_symbol
_atom_site_fract_x
_atom_site_fract_y
_atom_site_fract_z
_atom_site_charge
Mof_Co	Co	0.34638	0.34345	0.10763	1.163
Mof_Co	Co	0.34638	0.76418	0.65655	1.163
Mof_Co	Co	0.34638	0.89237	0.23582	1.163
Mof_Co	Co	0.84638	0.65655	0.89237	1.163
Mof_Co	Co	0.84638	0.23582	0.34345	1.163
Mof_Co	Co	0.84638	0.10763	0.76418	1.163
Mof_Co	Co	0.65362	0.65655	0.89237	1.163
Mof_Co	Co	0.65362	0.23582	0.34345	1.163
Mof_Co	Co	0.65362	0.10763	0.76418	1.163
Mof_Co	Co	0.15362	0.34345	0.10763	1.163
Mof_Co	Co	0.15362	0.76418	0.65655	1.162
Mof_Co	Co	0.15362	0.89237	0.23582	1.162
Mof_Co	Co	0.75	0.64102	0.24182	1.192
Mof_Co	Co	0.75	0.6008	0.35898	1.192
Mof_Co	Co	0.75	0.75818	0.3992	1.192
Mof_Co	Co	0.25	0.35898	0.75818	1.192
Mof_Co	Co	0.25	0.3992	0.64102	1.192
Mof_Co	Co	0.25	0.24182	0.6008	1.192
Mof_Co	Co	0.25	0.20157	0.08008	1.166
Mof_Co	Co	0.25	0.87851	0.79843	1.166
Mof_Co	Co	0.25	0.91992	0.12149	1.166
Mof_Co	Co	0.75	0.79843	0.91992	1.166
Mof_Co	Co	0.75	0.12149	0.20157	1.166
Mof_Co	Co	0.75	0.08008	0.87851	1.166
Mof_H 	H 	0.6316	0.6155	0.1355	0.021
Mof_H 	H 	0.6259	0.6141	0.0426	0.064
Mof_H 	H 	0.4197	0.4273	0.2385	0.017
Mof_H 	H 	0.5246	0.4943	0.2865	0.06
Mof_H 	H 	0.5704	0.4944	0.1279	0.064
Mof_H 	H 	0.4651	0.4254	0.0834	0.014
Mof_H 	H 	0.3799	0.2755	0.9653	-0
Mof_H 	H 	0.4766	0.2168	0.8931	0.065
Mof_H 	H 	0.6155	0.2285	0.0328	0.063
Mof_H 	H 	0.5145	0.2852	0.0995	0.013
Mof_H 	H 	0.6316	0.52	0.3845	0.021
Mof_H 	H 	0.6259	0.4285	0.3859	0.064
Mof_H 	H 	0.4197	0.8112	0.5727	0.017
Mof_H 	H 	0.5246	0.7922	0.5057	0.06
Mof_H 	H 	0.5704	0.6335	0.5056	0.064
Mof_H 	H 	0.4651	0.658	0.5746	0.014
Mof_H 	H 	0.3799	0.6898	0.7245	-0
Mof_H 	H 	0.4766	0.6763	0.7832	0.065
Mof_H 	H 	0.6155	0.8043	0.7715	0.063
Mof_H 	H 	0.5145	0.8143	0.7148	0.013
Mof_H 	H 	0.6316	0.8645	0.48	0.021
Mof_H 	H 	0.6259	0.9574	0.5715	0.064
Mof_H 	H 	0.4197	0.7615	0.1888	0.017
Mof_H 	H 	0.5246	0.7135	0.2078	0.06
Mof_H 	H 	0.5704	0.8721	0.3665	0.064
Mof_H 	H 	0.4651	0.9166	0.342	0.014
Mof_H 	H 	0.3799	0.0347	0.3102	-0
Mof_H 	H 	0.4766	0.1069	0.3237	0.065
Mof_H 	H 	0.6155	0.9672	0.1957	0.063
Mof_H 	H 	0.5145	0.9005	0.1857	0.013
Mof_H 	H 	0.1316	0.3845	0.8645	0.021
Mof_H 	H 	0.1259	0.3859	0.9574	0.064
Mof_H 	H 	0.9197	0.5727	0.7615	0.017
Mof_H 	H 	0.0246	0.5057	0.7135	0.06
Mof_H 	H 	0.0704	0.5056	0.8721	0.064
Mof_H 	H 	0.9651	0.5746	0.9166	0.014
Mof_H 	H 	0.8799	0.7245	0.0347	-0
Mof_H 	H 	0.9766	0.7832	0.1069	0.065
Mof_H 	H 	0.1155	0.7715	0.9672	0.063
Mof_H 	H 	0.0145	0.7148	0.9005	0.013
Mof_H 	H 	0.1316	0.48	0.6155	0.021
Mof_H 	H 	0.1259	0.5715	0.6141	0.064
Mof_H 	H 	0.9197	0.1888	0.4273	0.017
Mof_H 	H 	0.0246	0.2078	0.4943	0.06
Mof_H 	H 	0.0704	0.3665	0.4944	0.064
Mof_H 	H 	0.9651	0.342	0.4254	0.014
Mof_H 	H 	0.8799	0.3102	0.2755	-0
Mof_H 	H 	0.9766	0.3237	0.2168	0.065
Mof_H 	H 	0.1155	0.1957	0.2285	0.063
Mof_H 	H 	0.0145	0.1857	0.2852	0.013
Mof_H 	H 	0.1316	0.1355	0.52	0.021
Mof_H 	H 	0.1259	0.0426	0.4285	0.064
Mof_H 	H 	0.9197	0.2385	0.8112	0.017
Mof_H 	H 	0.0246	0.2865	0.7922	0.061
Mof_H 	H 	0.0704	0.1279	0.6335	0.064
Mof_H 	H 	0.9651	0.0834	0.658	0.014
Mof_H 	H 	0.8799	0.9653	0.6898	-0
Mof_H 	H 	0.9766	0.8931	0.6763	0.065
Mof_H 	H 	0.1155	0.0328	0.8043	0.063
Mof_H 	H 	0.0145	0.0995	0.8143	0.013
Mof_H 	H 	0.3684	0.3845	0.8645	0.021
Mof_H 	H 	0.3741	0.3859	0.9574	0.064
Mof_H 	H 	0.5803	0.5727	0.7615	0.017
Mof_H 	H 	0.4754	0.5057	0.7135	0.06
Mof_H 	H 	0.4296	0.5056	0.8721	0.064
Mof_H 	H 	0.5349	0.5746	0.9166	0.014
Mof_H 	H 	0.6201	0.7245	0.0347	-0
Mof_H 	H 	0.5234	0.7832	0.1069	0.065
Mof_H 	H 	0.3845	0.7715	0.9672	0.063
Mof_H 	H 	0.4855	0.7148	0.9005	0.013
Mof_H 	H 	0.3684	0.48	0.6155	0.021
Mof_H 	H 	0.3741	0.5715	0.6141	0.064
Mof_H 	H 	0.5803	0.1888	0.4273	0.017
Mof_H 	H 	0.4754	0.2078	0.4943	0.06
Mof_H 	H 	0.4296	0.3665	0.4944	0.064
Mof_H 	H 	0.5349	0.342	0.4254	0.014
Mof_H 	H 	0.6201	0.3102	0.2755	-0
Mof_H 	H 	0.5234	0.3237	0.2168	0.065
Mof_H 	H 	0.3845	0.1957	0.2285	0.063
Mof_H 	H 	0.4855	0.1857	0.2852	0.013
Mof_H 	H 	0.3684	0.1355	0.52	0.021
Mof_H 	H 	0.3741	0.0426	0.4285	0.064
Mof_H 	H 	0.5803	0.2385	0.8112	0.017
Mof_H 	H 	0.4754	0.2865	0.7922	0.06
Mof_H 	H 	0.4296	0.1279	0.6335	0.064
Mof_H 	H 	0.5349	0.0834	0.658	0.014
Mof_H 	H 	0.6201	0.9653	0.6898	-0
Mof_H 	H 	0.5234	0.8931	0.6763	0.065
Mof_H 	H 	0.3845	0.0328	0.8043	0.063
Mof_H 	H 	0.4855	0.0995	0.8143	0.013
Mof_H 	H 	0.8684	0.6155	0.1355	0.021
Mof_H 	H 	0.8741	0.6141	0.0426	0.064
Mof_H 	H 	0.0803	0.4273	0.2385	0.017
Mof_H 	H 	0.9754	0.4943	0.2865	0.06
Mof_H 	H 	0.9296	0.4944	0.1279	0.064
Mof_H 	H 	0.0349	0.4254	0.0834	0.014
Mof_H 	H 	0.1201	0.2755	0.9653	-0
Mof_H 	H 	0.0234	0.2168	0.8931	0.065
Mof_H 	H 	0.8845	0.2285	0.0328	0.063
Mof_H 	H 	0.9855	0.2852	0.0995	0.013
Mof_H 	H 	0.8684	0.52	0.3845	0.021
Mof_H 	H 	0.8741	0.4285	0.3859	0.064
Mof_H 	H 	0.0803	0.8112	0.5727	0.017
Mof_H 	H 	0.9754	0.7922	0.5057	0.06
Mof_H 	H 	0.9296	0.6335	0.5056	0.064
Mof_H 	H 	0.0349	0.658	0.5746	0.014
Mof_H 	H 	0.1201	0.6898	0.7245	-0
Mof_H 	H 	0.0234	0.6763	0.7832	0.065
Mof_H 	H 	0.8845	0.8043	0.7715	0.063
Mof_H 	H 	0.9855	0.8143	0.7148	0.013
Mof_H 	H 	0.8684	0.8645	0.48	0.021
Mof_H 	H 	0.8741	0.9574	0.5715	0.064
Mof_H 	H 	0.0803	0.7615	0.1888	0.017
Mof_H 	H 	0.9754	0.7135	0.2078	0.061
Mof_H 	H 	0.9296	0.8721	0.3665	0.064
Mof_H 	H 	0.0349	0.9166	0.342	0.014
Mof_H 	H 	0.1201	0.0347	0.3102	-0
Mof_H 	H 	0.0234	0.1069	0.3237	0.065
Mof_H 	H 	0.8845	0.9672	0.1957	0.063
Mof_H 	H 	0.9855	0.9005	0.1857	0.013
Mof_H 	H 	0.25	0.2648	0.0305	0.247
Mof_H 	H 	0.25	0.4095	0.2124	0.263
Mof_H 	H 	0.25	0.7657	0.7352	0.247
Mof_H 	H 	0.25	0.8029	0.5905	0.263
Mof_H 	H 	0.25	0.9695	0.2343	0.247
Mof_H 	H 	0.25	0.7876	0.1971	0.263
Mof_H 	H 	0.75	0.7352	0.9695	0.247
Mof_H 	H 	0.75	0.5905	0.7876	0.263
Mof_H 	H 	0.75	0.2343	0.2648	0.247
Mof_H 	H 	0.75	0.1971	0.4095	0.263
Mof_H 	H 	0.75	0.0305	0.7657	0.247
Mof_H 	H 	0.75	0.2124	0.8029	0.263
Mof_C 	C 	0.6803	0.6164	0.1166	0.046
Mof_C 	C 	0.676	0.6145	0.0603	-0.066
Mof_C 	C 	0.4514	0.4402	0.2159	0.03
Mof_C 	C 	0.5135	0.4811	0.2449	-0.049
Mof_C 	C 	0.5602	0.5034	0.2142	-0.053
Mof_C 	C 	0.541	0.4811	0.1512	-0.06
Mof_C 	C 	0.4779	0.4392	0.1248	0.048
Mof_C 	C 	0.6326	0.5467	0.2442	0.397
Mof_C 	C 	0.428	0.2662	0.9788	0.052
Mof_C 	C 	0.4859	0.2302	0.9349	-0.072
Mof_C 	C 	0.5553	0.2144	0.9521	-0.022
Mof_C 	C 	0.5678	0.2373	0.0183	-0.069
Mof_C 	C 	0.5079	0.2717	0.0574	0.055
Mof_C 	C 	0.6172	0.1705	0.9048	0.32
Mof_C 	C 	0.6803	0.5002	0.3836	0.046
Mof_C 	C 	0.676	0.4458	0.3855	-0.066
Mof_C 	C 	0.4514	0.7757	0.5598	0.03
Mof_C 	C 	0.5135	0.7638	0.5189	-0.049
Mof_C 	C 	0.5602	0.7108	0.4966	-0.053
Mof_C 	C 	0.541	0.6701	0.5189	-0.06
Mof_C 	C 	0.4779	0.6856	0.5608	0.048
Mof_C 	C 	0.6326	0.6975	0.4533	0.397
Mof_C 	C 	0.428	0.7126	0.7338	0.052
Mof_C 	C 	0.4859	0.7047	0.7698	-0.072
Mof_C 	C 	0.5553	0.7377	0.7856	-0.022
Mof_C 	C 	0.5678	0.781	0.7627	-0.069
Mof_C 	C 	0.5079	0.7857	0.7283	0.055
Mof_C 	C 	0.6172	0.7343	0.8295	0.32
Mof_C 	C 	0.6803	0.8834	0.4998	0.046
Mof_C 	C 	0.676	0.9397	0.5542	-0.066
Mof_C 	C 	0.4514	0.7841	0.2243	0.03
Mof_C 	C 	0.5135	0.7551	0.2362	-0.049
Mof_C 	C 	0.5602	0.7858	0.2892	-0.053
Mof_C 	C 	0.541	0.8488	0.3299	-0.06
Mof_C 	C 	0.4779	0.8752	0.3144	0.048
Mof_C 	C 	0.6326	0.7558	0.3025	0.397
Mof_C 	C 	0.428	0.0212	0.2874	0.052
Mof_C 	C 	0.4859	0.0651	0.2953	-0.072
Mof_C 	C 	0.5553	0.0479	0.2623	-0.022
Mof_C 	C 	0.5678	0.9817	0.219	-0.07
Mof_C 	C 	0.5079	0.9426	0.2143	0.055
Mof_C 	C 	0.6172	0.0952	0.2657	0.32
Mof_C 	C 	0.1803	0.3836	0.8834	0.046
Mof_C 	C 	0.176	0.3855	0.9397	-0.066
Mof_C 	C 	0.9514	0.5598	0.7841	0.03
Mof_C 	C 	0.0135	0.5189	0.7551	-0.05
Mof_C 	C 	0.0602	0.4966	0.7858	-0.053
Mof_C 	C 	0.041	0.5189	0.8488	-0.06
Mof_C 	C 	0.9779	0.5608	0.8752	0.048
Mof_C 	C 	0.1326	0.4533	0.7558	0.397
Mof_C 	C 	0.928	0.7338	0.0212	0.052
Mof_C 	C 	0.9859	0.7698	0.0651	-0.073
Mof_C 	C 	0.0553	0.7856	0.0479	-0.021
Mof_C 	C 	0.0678	0.7627	0.9817	-0.07
Mof_C 	C 	0.0079	0.7283	0.9426	0.055
Mof_C 	C 	0.1172	0.8295	0.0952	0.32
Mof_C 	C 	0.1803	0.4998	0.6164	0.046
Mof_C 	C 	0.176	0.5542	0.6145	-0.066
Mof_C 	C 	0.9514	0.2243	0.4402	0.03
Mof_C 	C 	0.0135	0.2362	0.4811	-0.05
Mof_C 	C 	0.0602	0.2892	0.5034	-0.053
Mof_C 	C 	0.041	0.3299	0.4811	-0.06
Mof_C 	C 	0.9779	0.3144	0.4392	0.048
Mof_C 	C 	0.1326	0.3025	0.5467	0.397
Mof_C 	C 	0.928	0.2874	0.2662	0.052
Mof_C 	C 	0.9859	0.2953	0.2302	-0.072
Mof_C 	C 	0.0553	0.2623	0.2144	-0.022
Mof_C 	C 	0.0678	0.219	0.2373	-0.069
Mof_C 	C 	0.0079	0.2143	0.2717	0.055
Mof_C 	C 	0.1172	0.2657	0.1705	0.32
Mof_C 	C 	0.1803	0.1166	0.5002	0.046
Mof_C 	C 	0.176	0.0603	0.4458	-0.066
Mof_C 	C 	0.9514	0.2159	0.7757	0.031
Mof_C 	C 	0.0135	0.2449	0.7638	-0.05
Mof_C 	C 	0.0602	0.2142	0.7108	-0.053
Mof_C 	C 	0.041	0.1512	0.6701	-0.061
Mof_C 	C 	0.9779	0.1248	0.6856	0.048
Mof_C 	C 	0.1326	0.2442	0.6975	0.397
Mof_C 	C 	0.928	0.9788	0.7126	0.052
Mof_C 	C 	0.9859	0.9349	0.7047	-0.073
Mof_C 	C 	0.0553	0.9521	0.7377	-0.021
Mof_C 	C 	0.0678	0.0183	0.781	-0.07
Mof_C 	C 	0.0079	0.0574	0.7857	0.055
Mof_C 	C 	0.1172	0.9048	0.7343	0.32
Mof_C 	C 	0.3197	0.3836	0.8834	0.046
Mof_C 	C 	0.324	0.3855	0.9397	-0.066
Mof_C 	C 	0.5486	0.5598	0.7841	0.03
Mof_C 	C 	0.4865	0.5189	0.7551	-0.049
Mof_C 	C 	0.4398	0.4966	0.7858	-0.053
Mof_C 	C 	0.459	0.5189	0.8488	-0.06
Mof_C 	C 	0.5221	0.5608	0.8752	0.048
Mof_C 	C 	0.3674	0.4533	0.7558	0.397
Mof_C 	C 	0.572	0.7338	0.0212	0.052
Mof_C 	C 	0.5141	0.7698	0.0651	-0.072
Mof_C 	C 	0.4447	0.7856	0.0479	-0.022
Mof_C 	C 	0.4322	0.7627	0.9817	-0.069
Mof_C 	C 	0.4921	0.7283	0.9426	0.055
Mof_C 	C 	0.3828	0.8295	0.0952	0.32
Mof_C 	C 	0.3197	0.4998	0.6164	0.046
Mof_C 	C 	0.324	0.5542	0.6145	-0.066
Mof_C 	C 	0.5486	0.2243	0.4402	0.03
Mof_C 	C 	0.4865	0.2362	0.4811	-0.049
Mof_C 	C 	0.4398	0.2892	0.5034	-0.053
Mof_C 	C 	0.459	0.3299	0.4811	-0.06
Mof_C 	C 	0.5221	0.3144	0.4392	0.048
Mof_C 	C 	0.3674	0.3025	0.5467	0.397
Mof_C 	C 	0.572	0.2874	0.2662	0.052
Mof_C 	C 	0.5141	0.2953	0.2302	-0.072
Mof_C 	C 	0.4447	0.2623	0.2144	-0.022
Mof_C 	C 	0.4322	0.219	0.2373	-0.069
Mof_C 	C 	0.4921	0.2143	0.2717	0.055
Mof_C 	C 	0.3828	0.2657	0.1705	0.32
Mof_C 	C 	0.3197	0.1166	0.5002	0.046
Mof_C 	C 	0.324	0.0603	0.4458	-0.066
Mof_C 	C 	0.5486	0.2159	0.7757	0.03
Mof_C 	C 	0.4865	0.2449	0.7638	-0.049
Mof_C 	C 	0.4398	0.2142	0.7108	-0.053
Mof_C 	C 	0.459	0.1512	0.6701	-0.06
Mof_C 	C 	0.5221	0.1248	0.6856	0.048
Mof_C 	C 	0.3674	0.2442	0.6975	0.397
Mof_C 	C 	0.572	0.9788	0.7126	0.052
Mof_C 	C 	0.5141	0.9349	0.7047	-0.072
Mof_C 	C 	0.4447	0.9521	0.7377	-0.022
Mof_C 	C 	0.4322	0.0183	0.781	-0.07
Mof_C 	C 	0.4921	0.0574	0.7857	0.055
Mof_C 	C 	0.3828	0.9048	0.7343	0.32
Mof_C 	C 	0.8197	0.6164	0.1166	0.046
Mof_C 	C 	0.824	0.6145	0.0603	-0.066
Mof_C 	C 	0.0486	0.4402	0.2159	0.03
Mof_C 	C 	0.9865	0.4811	0.2449	-0.05
Mof_C 	C 	0.9398	0.5034	0.2142	-0.053
Mof_C 	C 	0.959	0.4811	0.1512	-0.06
Mof_C 	C 	0.0221	0.4392	0.1248	0.048
Mof_C 	C 	0.8674	0.5467	0.2442	0.397
Mof_C 	C 	0.072	0.2662	0.9788	0.052
Mof_C 	C 	0.0141	0.2302	0.9349	-0.073
Mof_C 	C 	0.9447	0.2144	0.9521	-0.021
Mof_C 	C 	0.9322	0.2373	0.0183	-0.07
Mof_C 	C 	0.9921	0.2717	0.0574	0.055
Mof_C 	C 	0.8828	0.1705	0.9048	0.32
Mof_C 	C 	0.8197	0.5002	0.3836	0.046
Mof_C 	C 	0.824	0.4458	0.3855	-0.066
Mof_C 	C 	0.0486	0.7757	0.5598	0.03
Mof_C 	C 	0.9865	0.7638	0.5189	-0.05
Mof_C 	C 	0.9398	0.7108	0.4966	-0.053
Mof_C 	C 	0.959	0.6701	0.5189	-0.06
Mof_C 	C 	0.0221	0.6856	0.5608	0.048
Mof_C 	C 	0.8674	0.6975	0.4533	0.397
Mof_C 	C 	0.072	0.7126	0.7338	0.052
Mof_C 	C 	0.0141	0.7047	0.7698	-0.072
Mof_C 	C 	0.9447	0.7377	0.7856	-0.022
Mof_C 	C 	0.9322	0.781	0.7627	-0.069
Mof_C 	C 	0.9921	0.7857	0.7283	0.055
Mof_C 	C 	0.8828	0.7343	0.8295	0.32
Mof_C 	C 	0.8197	0.8834	0.4998	0.046
Mof_C 	C 	0.824	0.9397	0.5542	-0.066
Mof_C 	C 	0.0486	0.7841	0.2243	0.031
Mof_C 	C 	0.9865	0.7551	0.2362	-0.05
Mof_C 	C 	0.9398	0.7858	0.2892	-0.053
Mof_C 	C 	0.959	0.8488	0.3299	-0.061
Mof_C 	C 	0.0221	0.8752	0.3144	0.048
Mof_C 	C 	0.8674	0.7558	0.3025	0.397
Mof_C 	C 	0.072	0.0212	0.2874	0.052
Mof_C 	C 	0.0141	0.0651	0.2953	-0.073
Mof_C 	C 	0.9447	0.0479	0.2623	-0.021
Mof_C 	C 	0.9322	0.9817	0.219	-0.07
Mof_C 	C 	0.9921	0.9426	0.2143	0.055
Mof_C 	C 	0.8828	0.0952	0.2657	0.32
Mof_C 	C 	0.75	0.6133	0.0303	-0.044
Mof_C 	C 	0.75	0.6173	0.9717	0.347
Mof_C 	C 	0.75	0.417	0.3867	-0.044
Mof_C 	C 	0.75	0.3544	0.3827	0.347
Mof_C 	C 	0.75	0.9697	0.583	-0.044
Mof_C 	C 	0.75	0.0283	0.6456	0.347
Mof_C 	C 	0.25	0.3867	0.9697	-0.044
Mof_C 	C 	0.25	0.3827	0.0283	0.347
Mof_C 	C 	0.25	0.583	0.6133	-0.044
Mof_C 	C 	0.25	0.6456	0.6173	0.347
Mof_C 	C 	0.25	0.0303	0.417	-0.044
Mof_C 	C 	0.25	0.9717	0.3544	0.347
Mof_N 	N 	0.4345	0.4176	0.1543	-0.208
Mof_N 	N 	0.4379	0.288	0.0395	-0.218
Mof_N 	N 	0.4345	0.7367	0.5824	-0.208
Mof_N 	N 	0.4379	0.7515	0.712	-0.218
Mof_N 	N 	0.4345	0.8457	0.2633	-0.208
Mof_N 	N 	0.4379	0.9605	0.2485	-0.218
Mof_N 	N 	0.9345	0.5824	0.8457	-0.208
Mof_N 	N 	0.9379	0.712	0.9605	-0.218
Mof_N 	N 	0.9345	0.2633	0.4176	-0.208
Mof_N 	N 	0.9379	0.2485	0.288	-0.218
Mof_N 	N 	0.9345	0.1543	0.7367	-0.208
Mof_N 	N 	0.9379	0.0395	0.7515	-0.218
Mof_N 	N 	0.5655	0.5824	0.8457	-0.208
Mof_N 	N 	0.5621	0.712	0.9605	-0.218
Mof_N 	N 	0.5655	0.2633	0.4176	-0.208
Mof_N 	N 	0.5621	0.2485	0.288	-0.218
Mof_N 	N 	0.5655	0.1543	0.7367	-0.208
Mof_N 	N 	0.5621	0.0395	0.7515	-0.218
Mof_N 	N 	0.0655	0.4176	0.1543	-0.208
Mof_N 	N 	0.0621	0.288	0.0395	-0.218
Mof_N 	N 	0.0655	0.7367	0.5824	-0.208
Mof_N 	N 	0.0621	0.7515	0.712	-0.218
Mof_N 	N 	0.0655	0.8457	0.2633	-0.208
Mof_N 	N 	0.0621	0.9605	0.2485	-0.218
Mof_N 	N 	0.75	0.6196	0.146	-0.2
Mof_N 	N 	0.75	0.5264	0.3804	-0.2
Mof_N 	N 	0.75	0.854	0.4736	-0.2
Mof_N 	N 	0.25	0.3804	0.854	-0.2
Mof_N 	N 	0.25	0.4736	0.6196	-0.2
Mof_N 	N 	0.25	0.146	0.5264	-0.2
Mof_O 	O 	0.6815	0.6211	0.9511	-0.429
Mof_O 	O 	0.6583	0.5737	0.2181	-0.429
Mof_O 	O 	0.6555	0.5523	0.2942	-0.424
Mof_O 	O 	0.6158	0.1668	0.8537	-0.44
Mof_O 	O 	0.6504	0.1284	0.9171	-0.397
Mof_O 	O 	0.1343	0.1658	0.036	-0.259
Mof_O 	O 	0.6815	0.33	0.3789	-0.429
Mof_O 	O 	0.6583	0.6444	0.4263	-0.429
Mof_O 	O 	0.6555	0.7419	0.4477	-0.424
Mof_O 	O 	0.6158	0.6869	0.8332	-0.44
Mof_O 	O 	0.6504	0.7887	0.8716	-0.397
Mof_O 	O 	0.1343	0.8702	0.8342	-0.259
Mof_O 	O 	0.6815	0.0489	0.67	-0.429
Mof_O 	O 	0.6583	0.7819	0.3556	-0.429
Mof_O 	O 	0.6555	0.7058	0.2581	-0.424
Mof_O 	O 	0.6158	0.1463	0.3131	-0.44
Mof_O 	O 	0.6504	0.0829	0.2113	-0.397
Mof_O 	O 	0.1343	0.964	0.1298	-0.259
Mof_O 	O 	0.1815	0.3789	0.0489	-0.429
Mof_O 	O 	0.1583	0.4263	0.7819	-0.429
Mof_O 	O 	0.1555	0.4477	0.7058	-0.424
Mof_O 	O 	0.1158	0.8332	0.1463	-0.44
Mof_O 	O 	0.1504	0.8716	0.0829	-0.397
Mof_O 	O 	0.6343	0.8342	0.964	-0.259
Mof_O 	O 	0.1815	0.67	0.6211	-0.429
Mof_O 	O 	0.1583	0.3556	0.5737	-0.429
Mof_O 	O 	0.1555	0.2581	0.5523	-0.424
Mof_O 	O 	0.1158	0.3131	0.1668	-0.44
Mof_O 	O 	0.1504	0.2113	0.1284	-0.397
Mof_O 	O 	0.6343	0.1298	0.1658	-0.259
Mof_O 	O 	0.1815	0.9511	0.33	-0.429
Mof_O 	O 	0.1583	0.2181	0.6444	-0.429
Mof_O 	O 	0.1555	0.2942	0.7419	-0.424
Mof_O 	O 	0.1158	0.8537	0.6869	-0.44
Mof_O 	O 	0.1504	0.9171	0.7887	-0.397
Mof_O 	O 	0.6343	0.036	0.8702	-0.259
Mof_O 	O 	0.3185	0.3789	0.0489	-0.429
Mof_O 	O 	0.3417	0.4263	0.7819	-0.429
Mof_O 	O 	0.3445	0.4477	0.7058	-0.424
Mof_O 	O 	0.3842	0.8332	0.1463	-0.44
Mof_O 	O 	0.3496	0.8716	0.0829	-0.397
Mof_O 	O 	0.8657	0.8342	0.964	-0.259
Mof_O 	O 	0.3185	0.67	0.6211	-0.429
Mof_O 	O 	0.3417	0.3556	0.5737	-0.429
Mof_O 	O 	0.3445	0.2581	0.5523	-0.424
Mof_O 	O 	0.3842	0.3131	0.1668	-0.44
Mof_O 	O 	0.3496	0.2113	0.1284	-0.397
Mof_O 	O 	0.8657	0.1298	0.1658	-0.259
Mof_O 	O 	0.3185	0.9511	0.33	-0.429
Mof_O 	O 	0.3417	0.2181	0.6444	-0.429
Mof_O 	O 	0.3445	0.2942	0.7419	-0.424
Mof_O 	O 	0.3842	0.8537	0.6869	-0.44
Mof_O 	O 	0.3496	0.9171	0.7887	-0.397
Mof_O 	O 	0.8657	0.036	0.8702	-0.259
Mof_O 	O 	0.8185	0.6211	0.9511	-0.429
Mof_O 	O 	0.8417	0.5737	0.2181	-0.429
Mof_O 	O 	0.8445	0.5523	0.2942	-0.424
Mof_O 	O 	0.8842	0.1668	0.8537	-0.44
Mof_O 	O 	0.8496	0.1284	0.9171	-0.397
Mof_O 	O 	0.3657	0.1658	0.036	-0.259
Mof_O 	O 	0.8185	0.33	0.3789	-0.429
Mof_O 	O 	0.8417	0.6444	0.4263	-0.429
Mof_O 	O 	0.8445	0.7419	0.4477	-0.424
Mof_O 	O 	0.8842	0.6869	0.8332	-0.44
Mof_O 	O 	0.8496	0.7887	0.8716	-0.397
Mof_O 	O 	0.3657	0.8702	0.8342	-0.259
Mof_O 	O 	0.8185	0.0489	0.67	-0.429
Mof_O 	O 	0.8417	0.7819	0.3556	-0.429
Mof_O 	O 	0.8445	0.7058	0.2581	-0.424
Mof_O 	O 	0.8842	0.1463	0.3131	-0.44
Mof_O 	O 	0.8496	0.0829	0.2113	-0.397
Mof_O 	O 	0.3657	0.964	0.1298	-0.259
Mof_O 	O 	0.25	0.2778	0.0693	-0.772
Mof_O 	O 	0.25	0.3988	0.174	-0.597
Mof_O 	O 	0.25	0.7915	0.7222	-0.772
Mof_O 	O 	0.25	0.7752	0.6012	-0.597
Mof_O 	O 	0.25	0.9307	0.2085	-0.772
Mof_O 	O 	0.25	0.826	0.2248	-0.597
Mof_O 	O 	0.75	0.7222	0.9307	-0.772
Mof_O 	O 	0.75	0.6012	0.826	-0.597
Mof_O 	O 	0.75	0.2085	0.2778	-0.772
Mof_O 	O 	0.75	0.2248	0.3988	-0.597
Mof_O 	O 	0.75	0.0693	0.7915	-0.772
Mof_O 	O 	0.75	0.174	0.7752	-0.597
Mof_O 	O 	0.75	0.66667	0.33334	-0.582
Mof_O 	O 	0.25	0.33333	0.66666	-0.582
_end
