data_functionalizedCrystal
_audit_creation_method	'EQeq! by Chris Wilmer'
_symmetry_space_group_name_H-M	'P1'
_symmetry_Int_Tables_number	1
_symmetry_cell_setting	triclinic
loop_
_symmetry_equiv_pos_as_xyz
  x,y,z
_cell_length_a	20.8131
_cell_length_b	20.8131
_cell_length_c	23.185
_cell_angle_alpha	90
_cell_angle_beta	90
_cell_angle_gamma	120
loop_
_atom_site_label
_atom_site_type_symbol
_atom_site_fract_x
_atom_site_fract_y
_atom_site_fract_z
_atom_site_charge
Mof_O 	O 	0.79935	0.4536	0.68419	-0.742
Mof_O 	O 	0.79948	0.34574	0.68415	-0.738
Mof_C 	C 	0.9489	0.4177	0.54826	-0.202
Mof_H 	H 	0.9661	0.3875	0.5336	0.085
Mof_C 	C 	0.9482	0.5306	0.5482	-0.205
Mof_H 	H 	0.9648	0.5778	0.5334	0.086
Mof_C 	C 	0.8986	0.5048	0.59356	0.166
Mof_H 	H 	0.8814	0.5348	0.6086	-0.037
Mof_C 	C 	0.8991	0.3934	0.59338	0.158
Mof_H 	H 	0.8818	0.3461	0.6083	-0.035
Mof_C 	C 	0.9728	0.4862	0.5251	0.086
Mof_C 	C 	0.87496	0.4377	0.61635	-0.279
Mof_C 	C 	0.81855	0.4094	0.66577	0.617
Mof_O 	O 	0.5464	0.34575	0.68419	-0.74
Mof_O 	O 	0.65426	0.45374	0.68415	-0.737
Mof_C 	C 	0.5823	0.5312	0.54826	-0.201
Mof_H 	H 	0.6125	0.5786	0.5336	0.086
Mof_C 	C 	0.4694	0.4176	0.5482	-0.204
Mof_H 	H 	0.4222	0.387	0.5334	0.087
Mof_C 	C 	0.4952	0.3938	0.59356	0.167
Mof_H 	H 	0.4652	0.3466	0.6086	-0.036
Mof_C 	C 	0.6066	0.5057	0.59338	0.159
Mof_H 	H 	0.6539	0.5357	0.6083	-0.034
Mof_C 	C 	0.5138	0.4866	0.5251	0.086
Mof_C 	C 	0.5623	0.43726	0.61635	-0.279
Mof_C 	C 	0.5906	0.40915	0.66577	0.617
Mof_O 	O 	0.65425	0.20065	0.68419	-0.74
Mof_O 	O 	0.54626	0.20052	0.68415	-0.737
Mof_C 	C 	0.4688	0.0511	0.54826	-0.201
Mof_H 	H 	0.4214	0.0339	0.5336	0.086
Mof_C 	C 	0.5824	0.0518	0.5482	-0.204
Mof_H 	H 	0.613	0.0352	0.5334	0.087
Mof_C 	C 	0.6062	0.1014	0.59356	0.167
Mof_H 	H 	0.6534	0.1186	0.6086	-0.036
Mof_C 	C 	0.4943	0.1009	0.59338	0.159
Mof_H 	H 	0.4643	0.1182	0.6083	-0.034
Mof_C 	C 	0.5134	0.0272	0.5251	0.086
Mof_C 	C 	0.56274	0.12504	0.61635	-0.279
Mof_C 	C 	0.59085	0.18145	0.66577	0.617
Mof_O 	O 	0.5464	0.20065	0.81581	-0.741
Mof_O 	O 	0.65426	0.20052	0.81585	-0.737
Mof_C 	C 	0.5823	0.0511	0.95174	-0.201
Mof_H 	H 	0.6125	0.0339	0.9664	0.086
Mof_C 	C 	0.4694	0.0518	0.9518	-0.204
Mof_H 	H 	0.4222	0.0352	0.9666	0.087
Mof_C 	C 	0.4952	0.1014	0.90644	0.167
Mof_H 	H 	0.4652	0.1186	0.8914	-0.036
Mof_C 	C 	0.6066	0.1009	0.90662	0.159
Mof_H 	H 	0.6539	0.1182	0.8917	-0.034
Mof_C 	C 	0.5138	0.0272	0.9749	0.086
Mof_C 	C 	0.5623	0.12504	0.88365	-0.279
Mof_C 	C 	0.5906	0.18145	0.83423	0.617
Mof_O 	O 	0.65425	0.4536	0.81581	-0.74
Mof_O 	O 	0.54626	0.34574	0.81585	-0.737
Mof_C 	C 	0.4688	0.4177	0.95174	-0.201
Mof_H 	H 	0.4214	0.3875	0.9664	0.086
Mof_C 	C 	0.5824	0.5306	0.9518	-0.204
Mof_H 	H 	0.613	0.5778	0.9666	0.087
Mof_C 	C 	0.6062	0.5048	0.90644	0.167
Mof_H 	H 	0.6534	0.5348	0.8914	-0.036
Mof_C 	C 	0.4943	0.3934	0.90662	0.159
Mof_H 	H 	0.4643	0.3461	0.8917	-0.034
Mof_C 	C 	0.5134	0.4862	0.9749	0.086
Mof_C 	C 	0.56274	0.4377	0.88365	-0.279
Mof_C 	C 	0.59085	0.4094	0.83423	0.617
Mof_O 	O 	0.79935	0.34575	0.81581	-0.741
Mof_O 	O 	0.79948	0.45374	0.81585	-0.737
Mof_C 	C 	0.9489	0.5312	0.95174	-0.201
Mof_H 	H 	0.9661	0.5786	0.9664	0.086
Mof_C 	C 	0.9482	0.4176	0.9518	-0.204
Mof_H 	H 	0.9648	0.387	0.9666	0.087
Mof_C 	C 	0.8986	0.3938	0.90644	0.167
Mof_H 	H 	0.8814	0.3466	0.8914	-0.036
Mof_C 	C 	0.8991	0.5057	0.90662	0.159
Mof_H 	H 	0.8818	0.5357	0.8917	-0.034
Mof_C 	C 	0.9728	0.4866	0.9749	0.086
Mof_C 	C 	0.87496	0.43726	0.88365	-0.279
Mof_C 	C 	0.81855	0.40915	0.83423	0.617
Mof_O 	O 	0.20065	0.5464	0.31581	-0.741
Mof_O 	O 	0.20052	0.65426	0.31585	-0.737
Mof_C 	C 	0.0511	0.5823	0.45174	-0.201
Mof_H 	H 	0.0339	0.6125	0.4664	0.086
Mof_C 	C 	0.0518	0.4694	0.4518	-0.204
Mof_H 	H 	0.0352	0.4222	0.4666	0.087
Mof_C 	C 	0.1014	0.4952	0.40644	0.167
Mof_H 	H 	0.1186	0.4652	0.3914	-0.036
Mof_C 	C 	0.1009	0.6066	0.40662	0.159
Mof_H 	H 	0.1182	0.6539	0.3917	-0.034
Mof_C 	C 	0.0272	0.5138	0.4749	0.086
Mof_C 	C 	0.12504	0.5623	0.38365	-0.279
Mof_C 	C 	0.18145	0.5906	0.33423	0.617
Mof_O 	O 	0.4536	0.65425	0.31581	-0.74
Mof_O 	O 	0.34574	0.54626	0.31585	-0.737
Mof_C 	C 	0.4177	0.4688	0.45174	-0.201
Mof_H 	H 	0.3875	0.4214	0.4664	0.086
Mof_C 	C 	0.5306	0.5824	0.4518	-0.204
Mof_H 	H 	0.5778	0.613	0.4666	0.087
Mof_C 	C 	0.5048	0.6062	0.40644	0.167
Mof_H 	H 	0.5348	0.6534	0.3914	-0.036
Mof_C 	C 	0.3934	0.4943	0.40662	0.159
Mof_H 	H 	0.3461	0.4643	0.3917	-0.034
Mof_C 	C 	0.4862	0.5134	0.4749	0.086
Mof_C 	C 	0.4377	0.56274	0.38365	-0.279
Mof_C 	C 	0.4094	0.59085	0.33423	0.617
Mof_O 	O 	0.34575	0.79935	0.31581	-0.74
Mof_O 	O 	0.45374	0.79948	0.31585	-0.737
Mof_C 	C 	0.5312	0.9489	0.45174	-0.201
Mof_H 	H 	0.5786	0.9661	0.4664	0.086
Mof_C 	C 	0.4176	0.9482	0.4518	-0.204
Mof_H 	H 	0.387	0.9648	0.4666	0.087
Mof_C 	C 	0.3938	0.8986	0.40644	0.167
Mof_H 	H 	0.3466	0.8814	0.3914	-0.036
Mof_C 	C 	0.5057	0.8991	0.40662	0.159
Mof_H 	H 	0.5357	0.8818	0.3917	-0.034
Mof_C 	C 	0.4866	0.9728	0.4749	0.086
Mof_C 	C 	0.43726	0.87496	0.38365	-0.279
Mof_C 	C 	0.40915	0.81855	0.33423	0.617
Mof_O 	O 	0.4536	0.79935	0.18419	-0.741
Mof_O 	O 	0.34574	0.79948	0.18415	-0.737
Mof_C 	C 	0.4177	0.9489	0.04826	-0.201
Mof_H 	H 	0.3875	0.9661	0.0336	0.086
Mof_C 	C 	0.5306	0.9482	0.0482	-0.204
Mof_H 	H 	0.5778	0.9648	0.0334	0.087
Mof_C 	C 	0.5048	0.8986	0.09356	0.167
Mof_H 	H 	0.5348	0.8814	0.1086	-0.036
Mof_C 	C 	0.3934	0.8991	0.09338	0.159
Mof_H 	H 	0.3461	0.8818	0.1083	-0.034
Mof_C 	C 	0.4862	0.9728	0.0251	0.086
Mof_C 	C 	0.4377	0.87496	0.11635	-0.279
Mof_C 	C 	0.4094	0.81855	0.16577	0.617
Mof_O 	O 	0.34575	0.5464	0.18419	-0.74
Mof_O 	O 	0.45374	0.65426	0.18415	-0.737
Mof_C 	C 	0.5312	0.5823	0.04826	-0.201
Mof_H 	H 	0.5786	0.6125	0.0336	0.086
Mof_C 	C 	0.4176	0.4694	0.0482	-0.204
Mof_H 	H 	0.387	0.4222	0.0334	0.087
Mof_C 	C 	0.3938	0.4952	0.09356	0.167
Mof_H 	H 	0.3466	0.4652	0.1086	-0.036
Mof_C 	C 	0.5057	0.6066	0.09338	0.159
Mof_H 	H 	0.5357	0.6539	0.1083	-0.034
Mof_C 	C 	0.4866	0.5138	0.0251	0.086
Mof_C 	C 	0.43726	0.5623	0.11635	-0.279
Mof_C 	C 	0.40915	0.5906	0.16577	0.617
Mof_O 	O 	0.20065	0.65425	0.18419	-0.741
Mof_O 	O 	0.20052	0.54626	0.18415	-0.737
Mof_C 	C 	0.0511	0.4688	0.04826	-0.201
Mof_H 	H 	0.0339	0.4214	0.0336	0.086
Mof_C 	C 	0.0518	0.5824	0.0482	-0.204
Mof_H 	H 	0.0352	0.613	0.0334	0.087
Mof_C 	C 	0.1014	0.6062	0.09356	0.167
Mof_H 	H 	0.1186	0.6534	0.1086	-0.036
Mof_C 	C 	0.1009	0.4943	0.09338	0.159
Mof_H 	H 	0.1182	0.4643	0.1083	-0.034
Mof_C 	C 	0.0272	0.5134	0.0251	0.086
Mof_C 	C 	0.12504	0.56274	0.11635	-0.279
Mof_C 	C 	0.18145	0.59085	0.16577	0.617
Mof_In	In	0.72308	0.27692	0.75	2.501
Mof_In	In	0.72308	0.44615	0.75	2.501
Mof_In	In	0.55385	0.27692	0.75	2.501
Mof_In	In	0.27692	0.72308	0.25	2.501
Mof_In	In	0.27692	0.55385	0.25	2.501
Mof_In	In	0.44615	0.72308	0.25	2.501
Mof_O 	O 	0.66667	0.33333	0.75	-1.321
Mof_O 	O 	0.33333	0.66667	0.25	-1.321
_end
