data_functionalizedCrystal
_audit_creation_method	'EQeq! by Chris Wilmer'
_symmetry_space_group_name_H-M	'P1'
_symmetry_Int_Tables_number	1
_symmetry_cell_setting	triclinic
loop_
_symmetry_equiv_pos_as_xyz
  x,y,z
_cell_length_a	11.72
_cell_length_b	13.7
_cell_length_c	21.05
_cell_angle_alpha	90
_cell_angle_beta	90
_cell_angle_gamma	90
loop_
_atom_site_label
_atom_site_type_symbol
_atom_site_fract_x
_atom_site_fract_y
_atom_site_fract_z
_atom_site_charge
Mof_Cd	Cd	2.92487e-33	0.59869	0.43433	0.462
Mof_Cd	Cd	1.12781e-32	0.40131	0.56567	0.462
Mof_Cd	Cd	2.12295e-32	0.90131	0.93433	0.461
Mof_Cd	Cd	-4.91363e-34	0.09869	0.06567	0.461
Mof_H 	H 	0.7833	0.4724	0.3803	0.021
Mof_H 	H 	0.5853	0.4727	0.3785	0.071
Mof_H 	H 	0.5828	0.7138	0.4873	0.07
Mof_H 	H 	0.7807	0.7135	0.489	0.026
Mof_H 	H 	0.7833	0.5276	0.6197	0.021
Mof_H 	H 	0.5853	0.5273	0.6215	0.071
Mof_H 	H 	0.5828	0.2862	0.5127	0.07
Mof_H 	H 	0.7807	0.2865	0.511	0.026
Mof_H 	H 	0.2167	0.0276	0.8803	0.021
Mof_H 	H 	0.4147	0.0273	0.8785	0.072
Mof_H 	H 	0.4172	0.7862	0.9873	0.07
Mof_H 	H 	0.2193	0.7865	0.989	0.026
Mof_H 	H 	0.2167	0.9724	0.1197	0.021
Mof_H 	H 	0.4147	0.9727	0.1215	0.072
Mof_H 	H 	0.4172	0.2138	0.0127	0.07
Mof_H 	H 	0.2193	0.2135	0.011	0.026
Mof_H 	H 	0.2167	0.5276	0.6197	0.021
Mof_H 	H 	0.4147	0.5273	0.6215	0.071
Mof_H 	H 	0.4172	0.2862	0.5127	0.07
Mof_H 	H 	0.2193	0.2865	0.511	0.026
Mof_H 	H 	0.2167	0.4724	0.3803	0.021
Mof_H 	H 	0.4147	0.4727	0.3785	0.071
Mof_H 	H 	0.4172	0.7138	0.4873	0.07
Mof_H 	H 	0.2193	0.7135	0.489	0.026
Mof_H 	H 	0.7833	0.9724	0.1197	0.021
Mof_H 	H 	0.5853	0.9727	0.1215	0.072
Mof_H 	H 	0.5828	0.2138	0.0127	0.07
Mof_H 	H 	0.7807	0.2135	0.011	0.026
Mof_H 	H 	0.7833	0.0276	0.8803	0.021
Mof_H 	H 	0.5853	0.0273	0.8785	0.072
Mof_H 	H 	0.5828	0.7862	0.9873	0.07
Mof_H 	H 	0.7807	0.7865	0.989	0.026
Mof_H 	H 	4.53751e-33	0.5772	0.6738	0.115
Mof_H 	H 	-9.75897e-33	0.651	0.769	-0.026
Mof_H 	H 	4.02571e-33	0.843	0.5978	0.111
Mof_H 	H 	1.93997e-32	0.9754	0.6626	0.147
Mof_H 	H 	4.96041e-33	0.9692	0.7366	0.167
Mof_H 	H 	2.1967e-33	0.4228	0.3262	0.115
Mof_H 	H 	-2.17879e-33	0.349	0.231	-0.026
Mof_H 	H 	2.7085e-33	0.157	0.4022	0.111
Mof_H 	H 	-5.19667e-33	0.0246	0.3374	0.147
Mof_H 	H 	1.77379e-33	0.0308	0.2634	0.167
Mof_H 	H 	8.63919e-33	0.9228	0.1738	0.115
Mof_H 	H 	-9.39168e-33	0.849	0.269	-0.026
Mof_H 	H 	4.393e-33	0.657	0.0978	0.111
Mof_H 	H 	4.82938e-33	0.5246	0.1626	0.147
Mof_H 	H 	5.32771e-33	0.5308	0.2366	0.167
Mof_H 	H 	2.05014e-32	0.0772	0.8262	0.115
Mof_H 	H 	-1.00149e-32	0.151	0.731	-0.026
Mof_H 	H 	-8.86198e-33	0.343	0.9022	0.111
Mof_H 	H 	-9.29835e-33	0.4754	0.8374	0.147
Mof_H 	H 	2.00785e-32	0.4692	0.7634	0.167
Mof_C 	C 	0.7431	0.5208	0.40173	0.064
Mof_C 	C 	0.6245	0.521	0.40069	-0.116
Mof_C 	C 	0.56442	0.5933	0.43273	0.052
Mof_C 	C 	0.6229	0.6654	0.46581	-0.115
Mof_C 	C 	0.7415	0.6652	0.46686	0.061
Mof_C 	C 	0.7431	0.4792	0.59827	0.064
Mof_C 	C 	0.6245	0.479	0.59931	-0.116
Mof_C 	C 	0.56442	0.4067	0.56727	0.052
Mof_C 	C 	0.6229	0.3346	0.53419	-0.115
Mof_C 	C 	0.7415	0.3348	0.53314	0.061
Mof_C 	C 	0.2569	0.9792	0.90173	0.064
Mof_C 	C 	0.3755	0.979	0.90069	-0.116
Mof_C 	C 	0.43558	0.9067	0.93273	0.052
Mof_C 	C 	0.3771	0.8346	0.96581	-0.115
Mof_C 	C 	0.2585	0.8348	0.96686	0.061
Mof_C 	C 	0.2569	0.0208	0.09827	0.064
Mof_C 	C 	0.3755	0.021	0.09931	-0.116
Mof_C 	C 	0.43558	0.0933	0.06727	0.052
Mof_C 	C 	0.3771	0.1654	0.03419	-0.115
Mof_C 	C 	0.2585	0.1652	0.03314	0.061
Mof_C 	C 	0.2569	0.4792	0.59827	0.064
Mof_C 	C 	0.3755	0.479	0.59931	-0.116
Mof_C 	C 	0.43558	0.4067	0.56727	0.052
Mof_C 	C 	0.3771	0.3346	0.53419	-0.115
Mof_C 	C 	0.2585	0.3348	0.53314	0.061
Mof_C 	C 	0.2569	0.5208	0.40173	0.064
Mof_C 	C 	0.3755	0.521	0.40069	-0.116
Mof_C 	C 	0.43558	0.5933	0.43273	0.052
Mof_C 	C 	0.3771	0.6654	0.46581	-0.115
Mof_C 	C 	0.2585	0.6652	0.46686	0.061
Mof_C 	C 	0.7431	0.0208	0.09827	0.064
Mof_C 	C 	0.6245	0.021	0.09931	-0.116
Mof_C 	C 	0.56442	0.0933	0.06727	0.052
Mof_C 	C 	0.6229	0.1654	0.03419	-0.115
Mof_C 	C 	0.7415	0.1652	0.03314	0.061
Mof_C 	C 	0.7431	0.9792	0.90173	0.064
Mof_C 	C 	0.6245	0.979	0.90069	-0.116
Mof_C 	C 	0.56442	0.9067	0.93273	0.052
Mof_C 	C 	0.6229	0.8346	0.96581	-0.115
Mof_C 	C 	0.7415	0.8348	0.96686	0.061
Mof_C 	C 	2.61789e-32	0.6612	0.5602	0.264
Mof_C 	C 	4.21965e-33	0.704	0.6266	0.062
Mof_C 	C 	4.5705e-33	0.6446	0.6787	-0.181
Mof_C 	C 	4.97792e-33	0.6862	0.7392	0.161
Mof_C 	C 	-1.06627e-32	0.8022	0.6348	-0.202
Mof_C 	C 	4.6796e-33	0.8427	0.6949	0.24
Mof_C 	C 	5.03947e-33	0.7838	0.74834	-0.229
Mof_C 	C 	-9.45102e-33	0.8239	0.81473	0.38
Mof_C 	C 	2.9617e-33	0.3388	0.4398	0.264
Mof_C 	C 	-4.95424e-33	0.296	0.3734	0.062
Mof_C 	C 	9.63249e-33	0.3554	0.3213	-0.181
Mof_C 	C 	5.49067e-33	0.3138	0.2608	0.161
Mof_C 	C 	9.92812e-33	0.1978	0.3652	-0.202
Mof_C 	C 	1.32578e-32	0.1573	0.3051	0.24
Mof_C 	C 	5.42912e-33	0.2162	0.25166	-0.229
Mof_C 	C 	-2.48675e-33	0.1761	0.18527	0.38
Mof_C 	C 	-3.32899e-33	0.8388	0.0602	0.264
Mof_C 	C 	1.01885e-32	0.796	0.1266	0.062
Mof_C 	C 	-2.53099e-33	0.8554	0.1787	-0.182
Mof_C 	C 	1.61082e-33	0.8138	0.2392	0.161
Mof_C 	C 	1.02438e-32	0.6978	0.1348	-0.202
Mof_C 	C 	1.3125e-33	0.6573	0.1949	0.24
Mof_C 	C 	5.40677e-33	0.7162	0.24834	-0.229
Mof_C 	C 	2.11946e-33	0.6761	0.31473	0.38
Mof_C 	C 	2.12664e-32	0.1612	0.9398	0.264
Mof_C 	C 	5.88165e-33	0.204	0.8734	0.062
Mof_C 	C 	-9.40678e-33	0.1446	0.8213	-0.182
Mof_C 	C 	3.49985e-32	0.1862	0.7608	0.161
Mof_C 	C 	5.82643e-33	0.3022	0.8652	-0.202
Mof_C 	C 	-9.51587e-33	0.3427	0.8051	0.24
Mof_C 	C 	1.99994e-32	0.2838	0.75166	-0.229
Mof_C 	C 	4.61475e-33	0.3239	0.68527	0.38
Mof_N 	N 	0.8016	0.5929	0.43482	-0.134
Mof_N 	N 	0.8016	0.4071	0.56518	-0.134
Mof_N 	N 	0.1984	0.9071	0.93482	-0.134
Mof_N 	N 	0.1984	0.0929	0.06518	-0.134
Mof_N 	N 	0.1984	0.4071	0.56518	-0.134
Mof_N 	N 	0.1984	0.5929	0.43482	-0.134
Mof_N 	N 	0.8016	0.0929	0.06518	-0.134
Mof_N 	N 	0.8016	0.9071	0.93482	-0.134
Mof_N 	N 	-1.02344e-32	0.9395	0.6984	-0.313
Mof_N 	N 	5.76543e-33	0.0605	0.3016	-0.313
Mof_N 	N 	1.33607e-33	0.5605	0.1984	-0.313
Mof_N 	N 	5.39814e-33	0.4395	0.8016	-0.313
Mof_O 	O 	-4.00909e-33	0.7171	0.51375	-0.266
Mof_O 	O 	1.1199e-32	0.5711	0.55392	-0.287
Mof_O 	O 	-9.14151e-33	0.7668	0.86069	-0.285
Mof_O 	O 	-9.39782e-33	0.9126	0.82263	-0.32
Mof_O 	O 	1.07433e-32	0.2829	0.48625	-0.266
Mof_O 	O 	3.00399e-33	0.4289	0.44608	-0.287
Mof_O 	O 	9.38142e-34	0.2332	0.13931	-0.285
Mof_O 	O 	1.19445e-33	0.0874	0.17737	-0.32
Mof_O 	O 	-7.37619e-33	0.7829	0.01375	-0.266
Mof_O 	O 	-1.50409e-33	0.9289	0.05392	-0.287
Mof_O 	O 	9.89775e-33	0.7332	0.36069	-0.285
Mof_O 	O 	-2.02337e-32	0.5874	0.32263	-0.32
Mof_O 	O 	2.15792e-32	0.2171	0.98625	-0.266
Mof_O 	O 	2.13087e-32	0.0711	0.94608	-0.287
Mof_O 	O 	4.30524e-33	0.2668	0.63931	-0.285
Mof_O 	O 	4.56155e-33	0.4126	0.67737	-0.32
_end
