data_functionalizedCrystal
_audit_creation_method	'EQeq! by Chris Wilmer'
_symmetry_space_group_name_H-M	'P1'
_symmetry_Int_Tables_number	1
_symmetry_cell_setting	triclinic
loop_
_symmetry_equiv_pos_as_xyz
  x,y,z
_cell_length_a	17.518
_cell_length_b	13.309
_cell_length_c	11.181
_cell_angle_alpha	90
_cell_angle_beta	95.873
_cell_angle_gamma	90
loop_
_atom_site_label
_atom_site_type_symbol
_atom_site_fract_x
_atom_site_fract_y
_atom_site_fract_z
_atom_site_charge
Mof_Co	Co	0.91929	0.94188	0.99851	1.155
Mof_C 	C 	0.6339	0.7188	0.1702	0.357
Mof_C 	C 	0.6972	0.7908	0.2193	-0.082
Mof_C 	C 	0.7498	0.8283	0.1473	-0.059
Mof_H 	H 	0.7465	0.8124	0.0659	0.066
Mof_C 	C 	0.8084	0.8912	0.1996	0.045
Mof_C 	C 	0.811	0.9135	0.3252	0.078
Mof_C 	C 	0.7576	0.877	0.3985	-0.14
Mof_H 	H 	0.7596	0.8934	0.4796	0.063
Mof_C 	C 	0.7017	0.8151	0.3432	0.032
Mof_H 	H 	0.6654	0.7881	0.3891	0.02
Mof_N 	N 	0.873	0.9741	0.3531	-0.215
Mof_N 	N 	0.9073	0.986	0.251	-0.164
Mof_N 	N 	0.87	0.9388	0.1602	-0.202
Mof_O 	O 	0.5823	0.7019	0.2361	-0.452
Mof_O 	O 	0.6369	0.683	0.0634	-0.447
Mof_O 	O 	0.9781	0.0764	0.0645	-0.727
Mof_H 	H 	0.951	0.13	0.061	0.257
Mof_Co	Co	0.41929	0.44188	0.99851	1.136
Mof_C 	C 	0.1339	0.2188	0.1702	0.358
Mof_C 	C 	0.1972	0.2908	0.2193	-0.096
Mof_C 	C 	0.2498	0.3283	0.1473	-0.058
Mof_H 	H 	0.2465	0.3124	0.0659	0.057
Mof_C 	C 	0.3084	0.3912	0.1996	0.034
Mof_C 	C 	0.311	0.4135	0.3252	0.076
Mof_C 	C 	0.2576	0.377	0.3985	-0.15
Mof_H 	H 	0.2596	0.3934	0.4796	0.061
Mof_C 	C 	0.2017	0.3151	0.3432	0.033
Mof_H 	H 	0.1654	0.2881	0.3891	0.01
Mof_N 	N 	0.373	0.4741	0.3531	-0.224
Mof_N 	N 	0.4073	0.486	0.251	-0.189
Mof_N 	N 	0.37	0.4388	0.1602	-0.211
Mof_O 	O 	0.0823	0.2019	0.2361	-0.481
Mof_O 	O 	0.1369	0.183	0.0634	-0.468
Mof_O 	O 	0.4781	0.5764	0.0645	-0.798
Mof_H 	H 	0.451	0.63	0.061	0.256
Mof_Co	Co	0.08071	0.94188	0.50149	1.114
Mof_C 	C 	0.3661	0.7188	0.3298	0.355
Mof_C 	C 	0.3028	0.7908	0.2807	-0.087
Mof_C 	C 	0.2502	0.8283	0.3527	-0.062
Mof_H 	H 	0.2535	0.8124	0.4341	0.062
Mof_C 	C 	0.1916	0.8912	0.3004	0.035
Mof_C 	C 	0.189	0.9135	0.1748	0.074
Mof_C 	C 	0.2424	0.877	0.1015	-0.145
Mof_H 	H 	0.2404	0.8934	0.0204	0.065
Mof_C 	C 	0.2983	0.8151	0.1568	0.031
Mof_H 	H 	0.3346	0.7881	0.1109	0.02
Mof_N 	N 	0.127	0.9741	0.1469	-0.229
Mof_N 	N 	0.0927	0.986	0.249	-0.201
Mof_N 	N 	0.13	0.9388	0.3398	-0.215
Mof_O 	O 	0.4177	0.7019	0.2639	-0.452
Mof_O 	O 	0.3631	0.683	0.4366	-0.451
Mof_O 	O 	0.0219	0.0764	0.4355	-0.856
Mof_H 	H 	0.049	0.13	0.439	0.257
Mof_Co	Co	0.58071	0.44188	0.50149	1.136
Mof_C 	C 	0.8661	0.2188	0.3298	0.35
Mof_C 	C 	0.8028	0.2908	0.2807	-0.072
Mof_C 	C 	0.7502	0.3283	0.3527	-0.064
Mof_H 	H 	0.7535	0.3124	0.4341	0.068
Mof_C 	C 	0.6916	0.3912	0.3004	0.044
Mof_C 	C 	0.689	0.4135	0.1748	0.075
Mof_C 	C 	0.7424	0.377	0.1015	-0.136
Mof_H 	H 	0.7404	0.3934	0.0204	0.066
Mof_C 	C 	0.7983	0.3151	0.1568	0.028
Mof_H 	H 	0.8346	0.2881	0.1109	0.031
Mof_N 	N 	0.627	0.4741	0.1469	-0.222
Mof_N 	N 	0.5927	0.486	0.249	-0.188
Mof_N 	N 	0.63	0.4388	0.3398	-0.21
Mof_O 	O 	0.9177	0.2019	0.2639	-0.407
Mof_O 	O 	0.8631	0.183	0.4366	-0.431
Mof_O 	O 	0.5219	0.5764	0.4355	-0.798
Mof_H 	H 	0.549	0.63	0.439	0.256
Mof_Co	Co	0.08071	0.05812	0.00149	1.112
Mof_C 	C 	0.3661	0.2812	0.8298	0.355
Mof_C 	C 	0.3028	0.2092	0.7807	-0.086
Mof_C 	C 	0.2502	0.1717	0.8527	-0.063
Mof_H 	H 	0.2535	0.1876	0.9341	0.064
Mof_C 	C 	0.1916	0.1088	0.8004	0.036
Mof_C 	C 	0.189	0.0865	0.6748	0.073
Mof_C 	C 	0.2424	0.123	0.6015	-0.144
Mof_H 	H 	0.2404	0.1066	0.5204	0.063
Mof_C 	C 	0.2983	0.1849	0.6568	0.03
Mof_H 	H 	0.3346	0.2119	0.6109	0.02
Mof_N 	N 	0.127	0.0259	0.6469	-0.23
Mof_N 	N 	0.0927	0.014	0.749	-0.2
Mof_N 	N 	0.13	0.0612	0.8398	-0.213
Mof_O 	O 	0.4177	0.2981	0.7639	-0.452
Mof_O 	O 	0.3631	0.317	0.9366	-0.45
Mof_O 	O 	0.0219	0.9236	0.9355	-0.854
Mof_H 	H 	0.049	0.87	0.939	0.257
Mof_Co	Co	0.58071	0.55812	0.00149	1.137
Mof_C 	C 	0.8661	0.7812	0.8298	0.351
Mof_C 	C 	0.8028	0.7092	0.7807	-0.074
Mof_C 	C 	0.7502	0.6717	0.8527	-0.063
Mof_H 	H 	0.7535	0.6876	0.9341	0.066
Mof_C 	C 	0.6916	0.6088	0.8004	0.042
Mof_C 	C 	0.689	0.5865	0.6748	0.075
Mof_C 	C 	0.7424	0.623	0.6015	-0.136
Mof_H 	H 	0.7404	0.6066	0.5204	0.066
Mof_C 	C 	0.7983	0.6849	0.6568	0.028
Mof_H 	H 	0.8346	0.7119	0.6109	0.031
Mof_N 	N 	0.627	0.5259	0.6469	-0.223
Mof_N 	N 	0.5927	0.514	0.749	-0.188
Mof_N 	N 	0.63	0.5612	0.8398	-0.211
Mof_O 	O 	0.9177	0.7981	0.7639	-0.409
Mof_O 	O 	0.8631	0.817	0.9366	-0.434
Mof_O 	O 	0.5219	0.4236	0.9355	-0.799
Mof_H 	H 	0.549	0.37	0.939	0.256
Mof_Co	Co	0.91929	0.05812	0.49851	1.159
Mof_C 	C 	0.6339	0.2812	0.6702	0.357
Mof_C 	C 	0.6972	0.2092	0.7193	-0.084
Mof_C 	C 	0.7498	0.1717	0.6473	-0.058
Mof_H 	H 	0.7465	0.1876	0.5659	0.063
Mof_C 	C 	0.8084	0.1088	0.6996	0.043
Mof_C 	C 	0.811	0.0865	0.8252	0.078
Mof_C 	C 	0.7576	0.123	0.8985	-0.141
Mof_H 	H 	0.7596	0.1066	0.9796	0.064
Mof_C 	C 	0.7017	0.1849	0.8432	0.032
Mof_H 	H 	0.6654	0.2119	0.8891	0.02
Mof_N 	N 	0.873	0.0259	0.8531	-0.215
Mof_N 	N 	0.9073	0.014	0.751	-0.165
Mof_N 	N 	0.87	0.0612	0.6602	-0.204
Mof_O 	O 	0.5823	0.2981	0.7361	-0.452
Mof_O 	O 	0.6369	0.317	0.5634	-0.449
Mof_O 	O 	0.9781	0.9236	0.5645	-0.728
Mof_H 	H 	0.951	0.87	0.561	0.257
Mof_Co	Co	0.41929	0.55812	0.49851	1.136
Mof_C 	C 	0.1339	0.7812	0.6702	0.357
Mof_C 	C 	0.1972	0.7092	0.7193	-0.096
Mof_C 	C 	0.2498	0.6717	0.6473	-0.059
Mof_H 	H 	0.2465	0.6876	0.5659	0.058
Mof_C 	C 	0.3084	0.6088	0.6996	0.035
Mof_C 	C 	0.311	0.5865	0.8252	0.076
Mof_C 	C 	0.2576	0.623	0.8985	-0.15
Mof_H 	H 	0.2596	0.6066	0.9796	0.061
Mof_C 	C 	0.2017	0.6849	0.8432	0.033
Mof_H 	H 	0.1654	0.7119	0.8891	0.01
Mof_N 	N 	0.373	0.5259	0.8531	-0.224
Mof_N 	N 	0.4073	0.514	0.751	-0.189
Mof_N 	N 	0.37	0.5612	0.6602	-0.21
Mof_O 	O 	0.0823	0.7981	0.7361	-0.48
Mof_O 	O 	0.1369	0.817	0.5634	-0.466
Mof_O 	O 	0.4781	0.4236	0.5645	-0.798
Mof_H 	H 	0.451	0.37	0.561	0.256
Mof_Co	Co	6.59488e-34	0.09134	0.25	1.092
Mof_Co	Co	0.5	0.59134	0.25	1.141
Mof_Co	Co	1.97846e-33	0.90866	0.75	1.094
Mof_Co	Co	0.5	0.40866	0.75	1.141
_end
