data_functionalizedCrystal
_audit_creation_method	'EQeq! by Chris Wilmer'
_symmetry_space_group_name_H-M	'P1'
_symmetry_Int_Tables_number	1
_symmetry_cell_setting	triclinic
loop_
_symmetry_equiv_pos_as_xyz
  x,y,z
_cell_length_a	19.806
_cell_length_b	7.366
_cell_length_c	7.055
_cell_angle_alpha	90
_cell_angle_beta	104.36
_cell_angle_gamma	90
loop_
_atom_site_label
_atom_site_type_symbol
_atom_site_fract_x
_atom_site_fract_y
_atom_site_fract_z
_atom_site_charge
Mof_Al	Al	0.99872	0.0002	0.9987	-4.738
Mof_O 	O 	0.9998	0.8899	0.7445	-0.203
Mof_O 	O 	0.22	0.22	0.19	0.526
Mof_O 	O 	0.29	0.27	0.25	0.355
Mof_C 	C 	0.07	0.12	0.06	2.935
Mof_C 	C 	0.93	0.13	0.86	0.885
Mof_C 	C 	0.19	0.2	0.99	-0.639
Mof_C 	C 	0.22	0.22	0.86	0.336
Mof_C 	C 	0.29	0.27	0.91	-0.49
Mof_C 	C 	0.32	0.29	0.11	-0.352
Mof_C 	C 	0.11	0.14	0.93	-1.546
Mof_C 	C 	0.08	0.88	0.25	0.315
Mof_C 	C 	0.9	0.15	0.67	-0.259
Mof_C 	C 	0.93	0.87	0.04	2.338
Mof_Al	Al	0.49872	0.5002	0.9987	20.265
Mof_O 	O 	0.4998	0.3899	0.7445	-7.071
Mof_O 	O 	0.72	0.72	0.19	1.011
Mof_O 	O 	0.79	0.77	0.25	-0.702
Mof_C 	C 	0.57	0.62	0.06	-5.384
Mof_C 	C 	0.43	0.63	0.86	-8.547
Mof_C 	C 	0.69	0.7	0.99	-2.399
Mof_C 	C 	0.72	0.72	0.86	1.386
Mof_C 	C 	0.79	0.77	0.91	-1.935
Mof_C 	C 	0.82	0.79	0.11	1.9
Mof_C 	C 	0.61	0.64	0.93	3.849
Mof_C 	C 	0.58	0.38	0.25	-4.693
Mof_C 	C 	0.4	0.65	0.67	9.639
Mof_C 	C 	0.43	0.37	0.04	-7.149
Mof_Al	Al	0.99872	0.9998	0.4987	2.077
Mof_O 	O 	0.9998	0.1101	0.2445	0.524
Mof_O 	O 	0.22	0.78	0.69	-0.438
Mof_O 	O 	0.29	0.73	0.75	0.365
Mof_C 	C 	0.07	0.88	0.56	-1.072
Mof_C 	C 	0.93	0.87	0.36	-0.286
Mof_C 	C 	0.19	0.8	0.49	0.339
Mof_C 	C 	0.22	0.78	0.36	-0.402
Mof_C 	C 	0.29	0.73	0.41	1.334
Mof_C 	C 	0.32	0.71	0.61	-2.257
Mof_C 	C 	0.11	0.86	0.43	-0.087
Mof_C 	C 	0.08	0.12	0.75	0.462
Mof_C 	C 	0.9	0.85	0.17	-1.144
Mof_C 	C 	0.93	0.13	0.54	-0.18
Mof_Al	Al	0.49872	0.4998	0.4987	38.605
Mof_O 	O 	0.4998	0.6101	0.2445	-7.143
Mof_O 	O 	0.72	0.28	0.69	0.414
Mof_O 	O 	0.79	0.23	0.75	-0.402
Mof_C 	C 	0.57	0.38	0.56	-12.768
Mof_C 	C 	0.43	0.37	0.36	-11.722
Mof_C 	C 	0.69	0.3	0.49	-1.418
Mof_C 	C 	0.72	0.28	0.36	1.033
Mof_C 	C 	0.79	0.23	0.41	-0.053
Mof_C 	C 	0.82	0.21	0.61	0.329
Mof_C 	C 	0.61	0.36	0.43	5.906
Mof_C 	C 	0.58	0.62	0.75	-5.891
Mof_C 	C 	0.4	0.35	0.17	8.067
Mof_C 	C 	0.43	0.63	0.54	-13.825
_end
