data_functionalizedCrystal
_audit_creation_method	'EQeq! by Chris Wilmer'
_symmetry_space_group_name_H-M	'P1'
_symmetry_Int_Tables_number	1
_symmetry_cell_setting	triclinic
loop_
_symmetry_equiv_pos_as_xyz
  x,y,z
_cell_length_a	13.1603
_cell_length_b	33.4072
_cell_length_c	42.253
_cell_angle_alpha	90
_cell_angle_beta	98.111
_cell_angle_gamma	90
loop_
_atom_site_label
_atom_site_type_symbol
_atom_site_fract_x
_atom_site_fract_y
_atom_site_fract_z
_atom_site_charge
Mof_Er	Er	0.60319	0.68083	0.11831	2.249
Mof_Er	Er	0.76954	0.56346	0.13381	2.054
Mof_Er	Er	0.84722	0.4312	0.10492	2.113
Mof_Er	Er	0.97964	0.30415	0.13397	2.304
Mof_O 	O 	0.711	0.59455	0.17828	-0.51
Mof_O 	O 	0.7099	0.65666	0.15914	-0.601
Mof_O 	O 	0.507	0.69526	0.34791	-0.61
Mof_O 	O 	0.5419	0.75628	0.33072	-0.601
Mof_O 	O 	0.7778	0.61107	0.09709	-0.612
Mof_O 	O 	0.7008	0.66726	0.08073	-0.62
Mof_O 	O 	0.0528	0.60818	0.92202	-0.631
Mof_O 	O 	0.9713	0.66355	0.90708	-0.652
Mof_O 	O 	0.9182	0.54131	0.1183	-0.605
Mof_O 	O 	0.954	0.482	0.10079	-0.638
Mof_O 	O 	0.5925	0.55933	0.12524	-0.551
Mof_O 	O 	0.5361	0.62104	0.11265	-0.623
Mof_O 	O 	0.7826	0.51369	0.16922	-0.584
Mof_O 	O 	0.7959	0.45261	0.15095	-0.58
Mof_O 	O 	0.0184	0.41671	0.35535	-0.555
Mof_O 	O 	0.9903	0.3559	0.33464	-0.62
Mof_O 	O 	0.715	0.5251	0.0893	-0.538
Mof_O 	O 	0.6914	0.4594	0.08908	-0.573
Mof_O 	O 	0.437	0.75873	0.09644	-0.651
Mof_O 	O 	0.491	0.70377	0.07659	-0.586
Mof_O 	O 	0.7521	0.37784	0.11388	-0.605
Mof_O 	O 	0.8155	0.31893	0.13065	-0.636
Mof_O 	O 	0.1493	0.29607	0.1453	-0.63
Mof_O 	O 	0.191	0.23713	0.12708	-0.637
Mof_S 	S 	0.6565	0.61046	0.2406	0.042
Mof_S 	S 	0.5867	0.64723	0.30205	0.046
Mof_S 	S 	0.8784	0.59321	0.04296	0.053
Mof_S 	S 	0.9734	0.59172	0.97924	0.027
Mof_S 	S 	0.09916	0.58215	0.11019	0.04
Mof_S 	S 	0.32579	0.61043	0.11186	0.049
Mof_S 	S 	0.8503	0.4994	0.23583	0.017
Mof_S 	S 	0.9287	0.465	0.30351	0.011
Mof_S 	S 	0.548	0.4513	0.0341	0.02
Mof_S 	S 	0.3631	0.7019	0.0162	0.035
Mof_S 	S 	0.63183	0.2767	0.13305	0.054
Mof_S 	S 	0.40838	0.24656	0.13604	0.04
Mof_C 	C 	0.7058	0.6316	0.1817	0.482
Mof_C 	C 	0.5444	0.7188	0.32925	0.567
Mof_C 	C 	0.6884	0.6474	0.21322	-0.198
Mof_C 	C 	0.6901	0.6872	0.2234	0.183
Mof_C 	C 	0.6543	0.6865	0.25542	-0.1
Mof_C 	C 	0.6346	0.6489	0.2661	0.006
Mof_C 	C 	0.5906	0.6997	0.30278	-0.212
Mof_C 	C 	0.6282	0.7198	0.2772	0.196
Mof_C 	C 	0.7151	0.7166	0.21011	-0.195
Mof_H 	H 	0.7345	0.7393	0.1998	0.103
Mof_C 	C 	0.6356	0.7547	0.273	-0.196
Mof_H 	H 	0.6414	0.7821	0.2696	0.113
Mof_C 	C 	0.757	0.6382	0.07686	0.608
Mof_C 	C 	0.9899	0.6341	0.9256	0.641
Mof_C 	C 	0.7999	0.6344	0.04658	-0.307
Mof_C 	C 	0.7889	0.659	0.0202	0.374
Mof_C 	C 	0.8476	0.644	0.9961	-0.271
Mof_C 	C 	0.8992	0.6092	0.00592	0.046
Mof_C 	C 	0.9378	0.6325	0.95406	-0.334
Mof_C 	C 	0.87	0.6572	0.9656	0.378
Mof_C 	C 	0.7186	0.6943	0.0157	-0.875
Mof_H 	H 	0.653	0.6871	0.0214	0.295
Mof_H 	H 	0.7104	0.7026	0.9937	0.263
Mof_H 	H 	0.7473	0.7159	0.029	0.274
Mof_C 	C 	0.8287	0.6948	0.9492	-0.852
Mof_H 	H 	0.8447	0.6951	0.9277	0.28
Mof_H 	H 	0.8593	0.7177	0.9606	0.261
Mof_H 	H 	0.7556	0.6958	0.9487	0.256
Mof_C 	C 	0.9767	0.5165	0.10904	0.643
Mof_C 	C 	0.5218	0.584	0.11723	0.585
Mof_C 	C 	0.0834	0.5307	0.1081	-0.312
Mof_C 	C 	0.1742	0.5099	0.1085	0.377
Mof_C 	C 	0.2598	0.5369	0.11037	-0.268
Mof_C 	C 	0.228	0.5764	0.1102	0.046
Mof_C 	C 	0.4147	0.571	0.1138	-0.3
Mof_C 	C 	0.3694	0.5338	0.11208	0.371
Mof_C 	C 	0.1829	0.4651	0.1083	-0.884
Mof_H 	H 	0.1165	0.4535	0.1088	0.301
Mof_H 	H 	0.2289	0.4566	0.1268	0.27
Mof_H 	H 	0.209	0.4567	0.0893	0.275
Mof_C 	C 	0.4274	0.4949	0.1123	-0.873
Mof_H 	H 	0.4027	0.4799	0.0934	0.273
Mof_H 	H 	0.4171	0.4796	0.1309	0.266
Mof_H 	H 	0.4992	0.5003	0.1128	0.301
Mof_C 	C 	0.7947	0.4767	0.17284	0.578
Mof_C 	C 	0.9819	0.3933	0.3335	0.556
Mof_C 	C 	0.8129	0.4612	0.20654	-0.226
Mof_C 	C 	0.8097	0.4238	0.2186	0.112
Mof_C 	C 	0.8558	0.4162	0.2492	-0.064
Mof_C 	C 	0.8721	0.4565	0.262	-0.061
Mof_C 	C 	0.9275	0.4109	0.303	-0.218
Mof_C 	C 	0.8735	0.3932	0.2766	0.102
Mof_C 	C 	0.785	0.3888	0.1997	-0.048
Mof_C 	C 	0.871	0.3501	0.2716	-0.037
Mof_C 	C 	0.6727	0.4939	0.0788	0.507
Mof_C 	C 	0.6014	0.4959	0.0477	-0.193
Mof_C 	C 	0.572	0.5294	0.0289	0.062
Mof_C 	C 	0.4902	0.4782	0.0012	-0.047
Mof_C 	C 	0.597	0.5731	0.0323	-0.045
Mof_C 	C 	0.4338	0.7342	0.0747	0.584
Mof_C 	C 	0.3629	0.739	0.0447	-0.224
Mof_C 	C 	0.294	0.7706	0.0368	0.072
Mof_C 	C 	0.2693	0.7312	0.9939	-0.049
Mof_C 	C 	0.266	0.8084	0.054	-0.064
Mof_C 	C 	0.7431	0.3429	0.1247	0.626
Mof_C 	C 	0.2123	0.2725	0.1363	0.603
Mof_C 	C 	0.6401	0.3289	0.1293	-0.323
Mof_C 	C 	0.55	0.3479	0.1306	0.394
Mof_C 	C 	0.4701	0.32	0.1337	-0.272
Mof_C 	C 	0.504	0.2809	0.135	0.045
Mof_C 	C 	0.3188	0.2843	0.1368	-0.308
Mof_C 	C 	0.3609	0.3229	0.1359	0.357
Mof_C 	C 	0.5368	0.3926	0.1295	-0.907
Mof_H 	H 	0.6016	0.4052	0.1365	0.31
Mof_H 	H 	0.4884	0.4003	0.1434	0.276
Mof_H 	H 	0.5119	0.4007	0.108	0.289
Mof_C 	C 	0.3001	0.3607	0.1359	-0.869
Mof_H 	H 	0.2283	0.3547	0.1308	0.286
Mof_H 	H 	0.32	0.3787	0.1202	0.26
Mof_H 	H 	0.313	0.3729	0.1566	0.273
Mof_S 	S 	0.2918	0.786	0.0468	0.02
Mof_C 	C 	0.344	0.7165	0.0174	0.068
Mof_C 	C 	0.393	0.6781	0.0107	-0.062
Mof_S 	S 	0.5909	0.5457	0.0326	0.016
Mof_C 	C 	0.546	0.4665	0.03	0.057
Mof_C 	C 	0.546	0.4225	0.0376	-0.069
Mof_S 	S 	0.8153	0.4071	0.20621	-0.007
Mof_S 	S 	0.8956	0.3724	0.27319	-0.005
Mof_C 	C 	0.832	0.4789	0.2356	0.096
Mof_C 	C 	0.907	0.4492	0.2935	0.096
Mof_C 	C 	0.85	0.5209	0.239	-0.05
Mof_C 	C 	0.931	0.4855	0.3115	-0.061
Mof_Er	Er	0.10319	0.18083	0.11831	2.25
Mof_Er	Er	0.26954	0.06346	0.13381	2.055
Mof_Er	Er	0.34722	0.9312	0.10492	2.113
Mof_Er	Er	0.47964	0.80415	0.13397	2.305
Mof_O 	O 	0.211	0.09455	0.17828	-0.51
Mof_O 	O 	0.2099	0.15666	0.15914	-0.601
Mof_O 	O 	0.007	0.19526	0.34791	-0.61
Mof_O 	O 	0.0419	0.25628	0.33072	-0.601
Mof_O 	O 	0.2778	0.11107	0.09709	-0.612
Mof_O 	O 	0.2008	0.16726	0.08073	-0.62
Mof_O 	O 	0.5528	0.10818	0.92202	-0.631
Mof_O 	O 	0.4713	0.16355	0.90708	-0.652
Mof_O 	O 	0.4182	0.04131	0.1183	-0.605
Mof_O 	O 	0.454	0.982	0.10079	-0.638
Mof_O 	O 	0.0925	0.05933	0.12524	-0.551
Mof_O 	O 	0.0361	0.12104	0.11265	-0.623
Mof_O 	O 	0.2826	0.01369	0.16922	-0.584
Mof_O 	O 	0.2959	0.95261	0.15095	-0.58
Mof_O 	O 	0.5184	0.91671	0.35535	-0.555
Mof_O 	O 	0.4903	0.8559	0.33464	-0.62
Mof_O 	O 	0.215	0.0251	0.0893	-0.538
Mof_O 	O 	0.1914	0.9594	0.08908	-0.573
Mof_O 	O 	0.937	0.25873	0.09644	-0.651
Mof_O 	O 	0.991	0.20377	0.07659	-0.586
Mof_O 	O 	0.2521	0.87784	0.11388	-0.605
Mof_O 	O 	0.3155	0.81893	0.13065	-0.636
Mof_O 	O 	0.6493	0.79607	0.1453	-0.629
Mof_O 	O 	0.691	0.73713	0.12708	-0.637
Mof_S 	S 	0.1565	0.11046	0.2406	0.042
Mof_S 	S 	0.0867	0.14723	0.30205	0.046
Mof_S 	S 	0.3784	0.09321	0.04296	0.053
Mof_S 	S 	0.4734	0.09172	0.97924	0.027
Mof_S 	S 	0.59916	0.08215	0.11019	0.04
Mof_S 	S 	0.82579	0.11043	0.11186	0.049
Mof_S 	S 	0.3503	0.9994	0.23583	0.017
Mof_S 	S 	0.4287	0.965	0.30351	0.011
Mof_S 	S 	0.048	0.9513	0.0341	0.02
Mof_S 	S 	0.8631	0.2019	0.0162	0.035
Mof_S 	S 	0.13183	0.7767	0.13305	0.054
Mof_S 	S 	0.90838	0.74656	0.13604	0.04
Mof_C 	C 	0.2058	0.1316	0.1817	0.482
Mof_C 	C 	0.0444	0.2188	0.32925	0.566
Mof_C 	C 	0.1884	0.1474	0.21322	-0.198
Mof_C 	C 	0.1901	0.1872	0.2234	0.183
Mof_C 	C 	0.1543	0.1865	0.25542	-0.1
Mof_C 	C 	0.1346	0.1489	0.2661	0.006
Mof_C 	C 	0.0906	0.1997	0.30278	-0.212
Mof_C 	C 	0.1282	0.2198	0.2772	0.196
Mof_C 	C 	0.2151	0.2166	0.21011	-0.195
Mof_H 	H 	0.2345	0.2393	0.1998	0.103
Mof_C 	C 	0.1356	0.2547	0.273	-0.196
Mof_H 	H 	0.1414	0.2821	0.2696	0.113
Mof_C 	C 	0.257	0.1382	0.07686	0.608
Mof_C 	C 	0.4899	0.1341	0.9256	0.641
Mof_C 	C 	0.2999	0.1344	0.04658	-0.307
Mof_C 	C 	0.2889	0.159	0.0202	0.374
Mof_C 	C 	0.3476	0.144	0.9961	-0.271
Mof_C 	C 	0.3992	0.1092	0.00592	0.046
Mof_C 	C 	0.4378	0.1325	0.95406	-0.334
Mof_C 	C 	0.37	0.1572	0.9656	0.378
Mof_C 	C 	0.2186	0.1943	0.0157	-0.875
Mof_H 	H 	0.153	0.1871	0.0214	0.295
Mof_H 	H 	0.2104	0.2026	0.9937	0.263
Mof_H 	H 	0.2473	0.2159	0.029	0.274
Mof_C 	C 	0.3287	0.1948	0.9492	-0.852
Mof_H 	H 	0.3447	0.1951	0.9277	0.28
Mof_H 	H 	0.3593	0.2177	0.9606	0.261
Mof_H 	H 	0.2556	0.1958	0.9487	0.256
Mof_C 	C 	0.4767	0.0165	0.10904	0.643
Mof_C 	C 	0.0218	0.084	0.11723	0.585
Mof_C 	C 	0.5834	0.0307	0.1081	-0.312
Mof_C 	C 	0.6742	0.0099	0.1085	0.376
Mof_C 	C 	0.7598	0.0369	0.11037	-0.268
Mof_C 	C 	0.728	0.0764	0.1102	0.046
Mof_C 	C 	0.9147	0.071	0.1138	-0.3
Mof_C 	C 	0.8694	0.0338	0.11208	0.37
Mof_C 	C 	0.6829	0.9651	0.1083	-0.884
Mof_H 	H 	0.6165	0.9535	0.1088	0.301
Mof_H 	H 	0.7289	0.9566	0.1268	0.27
Mof_H 	H 	0.709	0.9567	0.0893	0.275
Mof_C 	C 	0.9274	0.9949	0.1123	-0.873
Mof_H 	H 	0.9027	0.9799	0.0934	0.273
Mof_H 	H 	0.9171	0.9796	0.1309	0.266
Mof_H 	H 	0.9992	0.0003	0.1128	0.3
Mof_C 	C 	0.2947	0.9767	0.17284	0.579
Mof_C 	C 	0.4819	0.8933	0.3335	0.556
Mof_C 	C 	0.3129	0.9612	0.20654	-0.226
Mof_C 	C 	0.3097	0.9238	0.2186	0.112
Mof_C 	C 	0.3558	0.9162	0.2492	-0.064
Mof_C 	C 	0.3721	0.9565	0.262	-0.061
Mof_C 	C 	0.4275	0.9109	0.303	-0.218
Mof_C 	C 	0.3735	0.8932	0.2766	0.102
Mof_C 	C 	0.285	0.8888	0.1997	-0.048
Mof_C 	C 	0.371	0.8501	0.2716	-0.037
Mof_C 	C 	0.1727	0.9939	0.0788	0.507
Mof_C 	C 	0.1014	0.9959	0.0477	-0.193
Mof_C 	C 	0.072	0.0294	0.0289	0.062
Mof_C 	C 	0.9902	0.9782	0.0012	-0.047
Mof_C 	C 	0.097	0.0731	0.0323	-0.045
Mof_C 	C 	0.9338	0.2342	0.0747	0.584
Mof_C 	C 	0.8629	0.239	0.0447	-0.224
Mof_C 	C 	0.794	0.2706	0.0368	0.072
Mof_C 	C 	0.7693	0.2312	0.9939	-0.049
Mof_C 	C 	0.766	0.3084	0.054	-0.064
Mof_C 	C 	0.2431	0.8429	0.1247	0.626
Mof_C 	C 	0.7123	0.7725	0.1363	0.603
Mof_C 	C 	0.1401	0.8289	0.1293	-0.323
Mof_C 	C 	0.05	0.8479	0.1306	0.394
Mof_C 	C 	0.9701	0.82	0.1337	-0.273
Mof_C 	C 	0.004	0.7809	0.135	0.046
Mof_C 	C 	0.8188	0.7843	0.1368	-0.308
Mof_C 	C 	0.8609	0.8229	0.1359	0.357
Mof_C 	C 	0.0368	0.8926	0.1295	-0.907
Mof_H 	H 	0.1016	0.9052	0.1365	0.31
Mof_H 	H 	0.9884	0.9003	0.1434	0.276
Mof_H 	H 	0.0119	0.9007	0.108	0.289
Mof_C 	C 	0.8001	0.8607	0.1359	-0.869
Mof_H 	H 	0.7283	0.8547	0.1308	0.286
Mof_H 	H 	0.82	0.8787	0.1202	0.26
Mof_H 	H 	0.813	0.8729	0.1566	0.273
Mof_S 	S 	0.7918	0.286	0.0468	0.02
Mof_C 	C 	0.844	0.2165	0.0174	0.068
Mof_C 	C 	0.893	0.1781	0.0107	-0.062
Mof_S 	S 	0.0909	0.0457	0.0326	0.016
Mof_C 	C 	0.046	0.9665	0.03	0.057
Mof_C 	C 	0.046	0.9225	0.0376	-0.069
Mof_S 	S 	0.3153	0.9071	0.20621	-0.007
Mof_S 	S 	0.3956	0.8724	0.27319	-0.005
Mof_C 	C 	0.332	0.9789	0.2356	0.096
Mof_C 	C 	0.407	0.9492	0.2935	0.096
Mof_C 	C 	0.35	0.0209	0.239	-0.05
Mof_C 	C 	0.431	0.9855	0.3115	-0.061
Mof_Er	Er	0.39681	0.68083	0.38169	2.25
Mof_Er	Er	0.23046	0.56346	0.36619	2.055
Mof_Er	Er	0.15278	0.4312	0.39508	2.114
Mof_Er	Er	0.02036	0.30415	0.36603	2.305
Mof_O 	O 	0.289	0.59455	0.32172	-0.51
Mof_O 	O 	0.2901	0.65666	0.34086	-0.601
Mof_O 	O 	0.493	0.69526	0.15209	-0.61
Mof_O 	O 	0.4581	0.75628	0.16928	-0.601
Mof_O 	O 	0.2222	0.61107	0.40291	-0.612
Mof_O 	O 	0.2992	0.66726	0.41927	-0.62
Mof_O 	O 	0.9472	0.60818	0.57798	-0.631
Mof_O 	O 	0.0287	0.66355	0.59292	-0.652
Mof_O 	O 	0.0818	0.54131	0.3817	-0.605
Mof_O 	O 	0.046	0.482	0.39921	-0.638
Mof_O 	O 	0.4075	0.55933	0.37476	-0.551
Mof_O 	O 	0.4639	0.62104	0.38735	-0.623
Mof_O 	O 	0.2174	0.51369	0.33078	-0.584
Mof_O 	O 	0.2041	0.45261	0.34905	-0.58
Mof_O 	O 	0.9816	0.41671	0.14465	-0.555
Mof_O 	O 	0.0097	0.3559	0.16536	-0.62
Mof_O 	O 	0.285	0.5251	0.4107	-0.538
Mof_O 	O 	0.3086	0.4594	0.41092	-0.573
Mof_O 	O 	0.563	0.75873	0.40356	-0.651
Mof_O 	O 	0.509	0.70377	0.42341	-0.586
Mof_O 	O 	0.2479	0.37784	0.38612	-0.605
Mof_O 	O 	0.1845	0.31893	0.36935	-0.636
Mof_O 	O 	0.8507	0.29607	0.3547	-0.63
Mof_O 	O 	0.809	0.23713	0.37292	-0.637
Mof_S 	S 	0.3435	0.61046	0.2594	0.042
Mof_S 	S 	0.4133	0.64723	0.19795	0.046
Mof_S 	S 	0.1216	0.59321	0.45704	0.053
Mof_S 	S 	0.0266	0.59172	0.52076	0.027
Mof_S 	S 	0.90084	0.58215	0.38981	0.04
Mof_S 	S 	0.67421	0.61043	0.38814	0.049
Mof_S 	S 	0.1497	0.4994	0.26417	0.017
Mof_S 	S 	0.0713	0.465	0.19649	0.011
Mof_S 	S 	0.452	0.4513	0.4659	0.02
Mof_S 	S 	0.6369	0.7019	0.4838	0.035
Mof_S 	S 	0.36817	0.2767	0.36695	0.054
Mof_S 	S 	0.59162	0.24656	0.36396	0.04
Mof_C 	C 	0.2942	0.6316	0.3183	0.482
Mof_C 	C 	0.4556	0.7188	0.17075	0.567
Mof_C 	C 	0.3116	0.6474	0.28678	-0.198
Mof_C 	C 	0.3099	0.6872	0.2766	0.183
Mof_C 	C 	0.3457	0.6865	0.24458	-0.1
Mof_C 	C 	0.3654	0.6489	0.2339	0.006
Mof_C 	C 	0.4094	0.6997	0.19722	-0.212
Mof_C 	C 	0.3718	0.7198	0.2228	0.196
Mof_C 	C 	0.2849	0.7166	0.28989	-0.195
Mof_H 	H 	0.2655	0.7393	0.3002	0.103
Mof_C 	C 	0.3644	0.7547	0.227	-0.196
Mof_H 	H 	0.3586	0.7821	0.2304	0.113
Mof_C 	C 	0.243	0.6382	0.42314	0.608
Mof_C 	C 	0.0101	0.6341	0.5744	0.641
Mof_C 	C 	0.2001	0.6344	0.45342	-0.307
Mof_C 	C 	0.2111	0.659	0.4798	0.374
Mof_C 	C 	0.1524	0.644	0.5039	-0.271
Mof_C 	C 	0.1008	0.6092	0.49408	0.046
Mof_C 	C 	0.0622	0.6325	0.54594	-0.334
Mof_C 	C 	0.13	0.6572	0.5344	0.378
Mof_C 	C 	0.2814	0.6943	0.4843	-0.875
Mof_H 	H 	0.347	0.6871	0.4786	0.295
Mof_H 	H 	0.2896	0.7026	0.5063	0.263
Mof_H 	H 	0.2527	0.7159	0.471	0.274
Mof_C 	C 	0.1713	0.6948	0.5508	-0.852
Mof_H 	H 	0.1553	0.6951	0.5723	0.28
Mof_H 	H 	0.1407	0.7177	0.5394	0.261
Mof_H 	H 	0.2444	0.6958	0.5513	0.256
Mof_C 	C 	0.0233	0.5165	0.39096	0.643
Mof_C 	C 	0.4782	0.584	0.38277	0.585
Mof_C 	C 	0.9166	0.5307	0.3919	-0.312
Mof_C 	C 	0.8258	0.5099	0.3915	0.377
Mof_C 	C 	0.7402	0.5369	0.38963	-0.268
Mof_C 	C 	0.772	0.5764	0.3898	0.046
Mof_C 	C 	0.5853	0.571	0.3862	-0.3
Mof_C 	C 	0.6306	0.5338	0.38792	0.371
Mof_C 	C 	0.8171	0.4651	0.3917	-0.884
Mof_H 	H 	0.8835	0.4535	0.3912	0.301
Mof_H 	H 	0.7711	0.4566	0.3732	0.27
Mof_H 	H 	0.791	0.4567	0.4107	0.275
Mof_C 	C 	0.5726	0.4949	0.3877	-0.873
Mof_H 	H 	0.5973	0.4799	0.4066	0.273
Mof_H 	H 	0.5829	0.4796	0.3691	0.266
Mof_H 	H 	0.5008	0.5003	0.3872	0.301
Mof_C 	C 	0.2053	0.4767	0.32716	0.578
Mof_C 	C 	0.0181	0.3933	0.1665	0.556
Mof_C 	C 	0.1871	0.4612	0.29346	-0.226
Mof_C 	C 	0.1903	0.4238	0.2814	0.112
Mof_C 	C 	0.1442	0.4162	0.2508	-0.064
Mof_C 	C 	0.1279	0.4565	0.238	-0.061
Mof_C 	C 	0.0725	0.4109	0.197	-0.218
Mof_C 	C 	0.1265	0.3932	0.2234	0.102
Mof_C 	C 	0.215	0.3888	0.3003	-0.048
Mof_C 	C 	0.129	0.3501	0.2284	-0.037
Mof_C 	C 	0.3273	0.4939	0.4212	0.507
Mof_C 	C 	0.3986	0.4959	0.4523	-0.193
Mof_C 	C 	0.428	0.5294	0.4711	0.062
Mof_C 	C 	0.5098	0.4782	0.4988	-0.047
Mof_C 	C 	0.403	0.5731	0.4677	-0.045
Mof_C 	C 	0.5662	0.7342	0.4253	0.584
Mof_C 	C 	0.6371	0.739	0.4553	-0.224
Mof_C 	C 	0.706	0.7706	0.4632	0.072
Mof_C 	C 	0.7307	0.7312	0.5061	-0.049
Mof_C 	C 	0.734	0.8084	0.446	-0.064
Mof_C 	C 	0.2569	0.3429	0.3753	0.626
Mof_C 	C 	0.7877	0.2725	0.3637	0.603
Mof_C 	C 	0.3599	0.3289	0.3707	-0.323
Mof_C 	C 	0.45	0.3479	0.3694	0.394
Mof_C 	C 	0.5299	0.32	0.3663	-0.272
Mof_C 	C 	0.496	0.2809	0.365	0.045
Mof_C 	C 	0.6812	0.2843	0.3632	-0.308
Mof_C 	C 	0.6391	0.3229	0.3641	0.357
Mof_C 	C 	0.4632	0.3926	0.3705	-0.907
Mof_H 	H 	0.3984	0.4052	0.3635	0.31
Mof_H 	H 	0.5116	0.4003	0.3566	0.276
Mof_H 	H 	0.4881	0.4007	0.392	0.289
Mof_C 	C 	0.6999	0.3607	0.3641	-0.869
Mof_H 	H 	0.7717	0.3547	0.3692	0.286
Mof_H 	H 	0.68	0.3787	0.3798	0.26
Mof_H 	H 	0.687	0.3729	0.3434	0.273
Mof_S 	S 	0.7082	0.786	0.4532	0.02
Mof_C 	C 	0.656	0.7165	0.4826	0.068
Mof_C 	C 	0.607	0.6781	0.4893	-0.062
Mof_S 	S 	0.4091	0.5457	0.4674	0.016
Mof_C 	C 	0.454	0.4665	0.47	0.057
Mof_C 	C 	0.454	0.4225	0.4624	-0.069
Mof_S 	S 	0.1847	0.4071	0.29379	-0.007
Mof_S 	S 	0.1044	0.3724	0.22681	-0.005
Mof_C 	C 	0.168	0.4789	0.2644	0.096
Mof_C 	C 	0.093	0.4492	0.2065	0.096
Mof_C 	C 	0.15	0.5209	0.261	-0.05
Mof_C 	C 	0.069	0.4855	0.1885	-0.061
Mof_Er	Er	0.89681	0.18083	0.38169	2.25
Mof_Er	Er	0.73046	0.06346	0.36619	2.055
Mof_Er	Er	0.65278	0.9312	0.39508	2.113
Mof_Er	Er	0.52036	0.80415	0.36603	2.305
Mof_O 	O 	0.789	0.09455	0.32172	-0.51
Mof_O 	O 	0.7901	0.15666	0.34086	-0.601
Mof_O 	O 	0.993	0.19526	0.15209	-0.61
Mof_O 	O 	0.9581	0.25628	0.16928	-0.601
Mof_O 	O 	0.7222	0.11107	0.40291	-0.612
Mof_O 	O 	0.7992	0.16726	0.41927	-0.62
Mof_O 	O 	0.4472	0.10818	0.57798	-0.631
Mof_O 	O 	0.5287	0.16355	0.59292	-0.652
Mof_O 	O 	0.5818	0.04131	0.3817	-0.605
Mof_O 	O 	0.546	0.982	0.39921	-0.638
Mof_O 	O 	0.9075	0.05933	0.37476	-0.551
Mof_O 	O 	0.9639	0.12104	0.38735	-0.623
Mof_O 	O 	0.7174	0.01369	0.33078	-0.584
Mof_O 	O 	0.7041	0.95261	0.34905	-0.58
Mof_O 	O 	0.4816	0.91671	0.14465	-0.555
Mof_O 	O 	0.5097	0.8559	0.16536	-0.62
Mof_O 	O 	0.785	0.0251	0.4107	-0.538
Mof_O 	O 	0.8086	0.9594	0.41092	-0.573
Mof_O 	O 	0.063	0.25873	0.40356	-0.651
Mof_O 	O 	0.009	0.20377	0.42341	-0.586
Mof_O 	O 	0.7479	0.87784	0.38612	-0.605
Mof_O 	O 	0.6845	0.81893	0.36935	-0.636
Mof_O 	O 	0.3507	0.79607	0.3547	-0.629
Mof_O 	O 	0.309	0.73713	0.37292	-0.637
Mof_S 	S 	0.8435	0.11046	0.2594	0.042
Mof_S 	S 	0.9133	0.14723	0.19795	0.046
Mof_S 	S 	0.6216	0.09321	0.45704	0.053
Mof_S 	S 	0.5266	0.09172	0.52076	0.027
Mof_S 	S 	0.40084	0.08215	0.38981	0.04
Mof_S 	S 	0.17421	0.11043	0.38814	0.049
Mof_S 	S 	0.6497	0.9994	0.26417	0.017
Mof_S 	S 	0.5713	0.965	0.19649	0.011
Mof_S 	S 	0.952	0.9513	0.4659	0.02
Mof_S 	S 	0.1369	0.2019	0.4838	0.035
Mof_S 	S 	0.86817	0.7767	0.36695	0.054
Mof_S 	S 	0.09162	0.74656	0.36396	0.04
Mof_C 	C 	0.7942	0.1316	0.3183	0.482
Mof_C 	C 	0.9556	0.2188	0.17075	0.566
Mof_C 	C 	0.8116	0.1474	0.28678	-0.198
Mof_C 	C 	0.8099	0.1872	0.2766	0.183
Mof_C 	C 	0.8457	0.1865	0.24458	-0.1
Mof_C 	C 	0.8654	0.1489	0.2339	0.006
Mof_C 	C 	0.9094	0.1997	0.19722	-0.212
Mof_C 	C 	0.8718	0.2198	0.2228	0.196
Mof_C 	C 	0.7849	0.2166	0.28989	-0.195
Mof_H 	H 	0.7655	0.2393	0.3002	0.103
Mof_C 	C 	0.8644	0.2547	0.227	-0.196
Mof_H 	H 	0.8586	0.2821	0.2304	0.113
Mof_C 	C 	0.743	0.1382	0.42314	0.608
Mof_C 	C 	0.5101	0.1341	0.5744	0.641
Mof_C 	C 	0.7001	0.1344	0.45342	-0.307
Mof_C 	C 	0.7111	0.159	0.4798	0.374
Mof_C 	C 	0.6524	0.144	0.5039	-0.271
Mof_C 	C 	0.6008	0.1092	0.49408	0.046
Mof_C 	C 	0.5622	0.1325	0.54594	-0.334
Mof_C 	C 	0.63	0.1572	0.5344	0.378
Mof_C 	C 	0.7814	0.1943	0.4843	-0.875
Mof_H 	H 	0.847	0.1871	0.4786	0.295
Mof_H 	H 	0.7896	0.2026	0.5063	0.263
Mof_H 	H 	0.7527	0.2159	0.471	0.274
Mof_C 	C 	0.6713	0.1948	0.5508	-0.852
Mof_H 	H 	0.6553	0.1951	0.5723	0.28
Mof_H 	H 	0.6407	0.2177	0.5394	0.261
Mof_H 	H 	0.7444	0.1958	0.5513	0.256
Mof_C 	C 	0.5233	0.0165	0.39096	0.643
Mof_C 	C 	0.9782	0.084	0.38277	0.585
Mof_C 	C 	0.4166	0.0307	0.3919	-0.312
Mof_C 	C 	0.3258	0.0099	0.3915	0.376
Mof_C 	C 	0.2402	0.0369	0.38963	-0.268
Mof_C 	C 	0.272	0.0764	0.3898	0.046
Mof_C 	C 	0.0853	0.071	0.3862	-0.3
Mof_C 	C 	0.1306	0.0338	0.38792	0.37
Mof_C 	C 	0.3171	0.9651	0.3917	-0.884
Mof_H 	H 	0.3835	0.9535	0.3912	0.301
Mof_H 	H 	0.2711	0.9566	0.3732	0.27
Mof_H 	H 	0.291	0.9567	0.4107	0.275
Mof_C 	C 	0.0726	0.9949	0.3877	-0.873
Mof_H 	H 	0.0973	0.9799	0.4066	0.273
Mof_H 	H 	0.0829	0.9796	0.3691	0.266
Mof_H 	H 	0.0008	0.0003	0.3872	0.301
Mof_C 	C 	0.7053	0.9767	0.32716	0.578
Mof_C 	C 	0.5181	0.8933	0.1665	0.556
Mof_C 	C 	0.6871	0.9612	0.29346	-0.226
Mof_C 	C 	0.6903	0.9238	0.2814	0.112
Mof_C 	C 	0.6442	0.9162	0.2508	-0.064
Mof_C 	C 	0.6279	0.9565	0.238	-0.061
Mof_C 	C 	0.5725	0.9109	0.197	-0.218
Mof_C 	C 	0.6265	0.8932	0.2234	0.102
Mof_C 	C 	0.715	0.8888	0.3003	-0.048
Mof_C 	C 	0.629	0.8501	0.2284	-0.037
Mof_C 	C 	0.8273	0.9939	0.4212	0.507
Mof_C 	C 	0.8986	0.9959	0.4523	-0.193
Mof_C 	C 	0.928	0.0294	0.4711	0.062
Mof_C 	C 	0.0098	0.9782	0.4988	-0.047
Mof_C 	C 	0.903	0.0731	0.4677	-0.045
Mof_C 	C 	0.0662	0.2342	0.4253	0.584
Mof_C 	C 	0.1371	0.239	0.4553	-0.224
Mof_C 	C 	0.206	0.2706	0.4632	0.072
Mof_C 	C 	0.2307	0.2312	0.5061	-0.049
Mof_C 	C 	0.234	0.3084	0.446	-0.064
Mof_C 	C 	0.7569	0.8429	0.3753	0.626
Mof_C 	C 	0.2877	0.7725	0.3637	0.603
Mof_C 	C 	0.8599	0.8289	0.3707	-0.323
Mof_C 	C 	0.95	0.8479	0.3694	0.394
Mof_C 	C 	0.0299	0.82	0.3663	-0.273
Mof_C 	C 	0.996	0.7809	0.365	0.046
Mof_C 	C 	0.1812	0.7843	0.3632	-0.308
Mof_C 	C 	0.1391	0.8229	0.3641	0.357
Mof_C 	C 	0.9632	0.8926	0.3705	-0.907
Mof_H 	H 	0.8984	0.9052	0.3635	0.31
Mof_H 	H 	0.0116	0.9003	0.3566	0.276
Mof_H 	H 	0.9881	0.9007	0.392	0.289
Mof_C 	C 	0.1999	0.8607	0.3641	-0.869
Mof_H 	H 	0.2717	0.8547	0.3692	0.286
Mof_H 	H 	0.18	0.8787	0.3798	0.26
Mof_H 	H 	0.187	0.8729	0.3434	0.273
Mof_S 	S 	0.2082	0.286	0.4532	0.02
Mof_C 	C 	0.156	0.2165	0.4826	0.068
Mof_C 	C 	0.107	0.1781	0.4893	-0.062
Mof_S 	S 	0.9091	0.0457	0.4674	0.016
Mof_C 	C 	0.954	0.9665	0.47	0.057
Mof_C 	C 	0.954	0.9225	0.4624	-0.069
Mof_S 	S 	0.6847	0.9071	0.29379	-0.007
Mof_S 	S 	0.6044	0.8724	0.22681	-0.005
Mof_C 	C 	0.668	0.9789	0.2644	0.096
Mof_C 	C 	0.593	0.9492	0.2065	0.096
Mof_C 	C 	0.65	0.0209	0.261	-0.05
Mof_C 	C 	0.569	0.9855	0.1885	-0.061
Mof_Er	Er	0.39681	0.31917	0.88169	2.25
Mof_Er	Er	0.23046	0.43654	0.86619	2.055
Mof_Er	Er	0.15278	0.5688	0.89508	2.114
Mof_Er	Er	0.02036	0.69585	0.86603	2.305
Mof_O 	O 	0.289	0.40545	0.82172	-0.51
Mof_O 	O 	0.2901	0.34334	0.84086	-0.601
Mof_O 	O 	0.493	0.30474	0.65209	-0.61
Mof_O 	O 	0.4581	0.24372	0.66928	-0.601
Mof_O 	O 	0.2222	0.38893	0.90291	-0.612
Mof_O 	O 	0.2992	0.33274	0.91927	-0.62
Mof_O 	O 	0.9472	0.39182	0.07798	-0.631
Mof_O 	O 	0.0287	0.33645	0.09292	-0.652
Mof_O 	O 	0.0818	0.45869	0.8817	-0.605
Mof_O 	O 	0.046	0.518	0.89921	-0.638
Mof_O 	O 	0.4075	0.44067	0.87476	-0.551
Mof_O 	O 	0.4639	0.37896	0.88735	-0.623
Mof_O 	O 	0.2174	0.48631	0.83078	-0.584
Mof_O 	O 	0.2041	0.54739	0.84905	-0.58
Mof_O 	O 	0.9816	0.58329	0.64465	-0.555
Mof_O 	O 	0.0097	0.6441	0.66536	-0.62
Mof_O 	O 	0.285	0.4749	0.9107	-0.538
Mof_O 	O 	0.3086	0.5406	0.91092	-0.573
Mof_O 	O 	0.563	0.24127	0.90356	-0.651
Mof_O 	O 	0.509	0.29623	0.92341	-0.586
Mof_O 	O 	0.2479	0.62216	0.88612	-0.605
Mof_O 	O 	0.1845	0.68107	0.86935	-0.636
Mof_O 	O 	0.8507	0.70393	0.8547	-0.63
Mof_O 	O 	0.809	0.76287	0.87292	-0.637
Mof_S 	S 	0.3435	0.38954	0.7594	0.042
Mof_S 	S 	0.4133	0.35277	0.69795	0.046
Mof_S 	S 	0.1216	0.40679	0.95704	0.053
Mof_S 	S 	0.0266	0.40828	0.02076	0.027
Mof_S 	S 	0.90084	0.41785	0.88981	0.04
Mof_S 	S 	0.67421	0.38957	0.88814	0.049
Mof_S 	S 	0.1497	0.5006	0.76417	0.017
Mof_S 	S 	0.0713	0.535	0.69649	0.011
Mof_S 	S 	0.452	0.5487	0.9659	0.02
Mof_S 	S 	0.6369	0.2981	0.9838	0.035
Mof_S 	S 	0.36817	0.7233	0.86695	0.054
Mof_S 	S 	0.59162	0.75344	0.86396	0.04
Mof_C 	C 	0.2942	0.3684	0.8183	0.482
Mof_C 	C 	0.4556	0.2812	0.67075	0.567
Mof_C 	C 	0.3116	0.3526	0.78678	-0.198
Mof_C 	C 	0.3099	0.3128	0.7766	0.183
Mof_C 	C 	0.3457	0.3135	0.74458	-0.1
Mof_C 	C 	0.3654	0.3511	0.7339	0.006
Mof_C 	C 	0.4094	0.3003	0.69722	-0.212
Mof_C 	C 	0.3718	0.2802	0.7228	0.196
Mof_C 	C 	0.2849	0.2834	0.78989	-0.195
Mof_H 	H 	0.2655	0.2607	0.8002	0.103
Mof_C 	C 	0.3644	0.2453	0.727	-0.196
Mof_H 	H 	0.3586	0.2179	0.7304	0.113
Mof_C 	C 	0.243	0.3618	0.92314	0.608
Mof_C 	C 	0.0101	0.3659	0.0744	0.641
Mof_C 	C 	0.2001	0.3656	0.95342	-0.307
Mof_C 	C 	0.2111	0.341	0.9798	0.374
Mof_C 	C 	0.1524	0.356	0.0039	-0.271
Mof_C 	C 	0.1008	0.3908	0.99408	0.046
Mof_C 	C 	0.0622	0.3675	0.04594	-0.334
Mof_C 	C 	0.13	0.3428	0.0344	0.378
Mof_C 	C 	0.2814	0.3057	0.9843	-0.875
Mof_H 	H 	0.347	0.3129	0.9786	0.295
Mof_H 	H 	0.2896	0.2974	0.0063	0.263
Mof_H 	H 	0.2527	0.2841	0.971	0.274
Mof_C 	C 	0.1713	0.3052	0.0508	-0.852
Mof_H 	H 	0.1553	0.3049	0.0723	0.28
Mof_H 	H 	0.1407	0.2823	0.0394	0.261
Mof_H 	H 	0.2444	0.3042	0.0513	0.256
Mof_C 	C 	0.0233	0.4835	0.89096	0.643
Mof_C 	C 	0.4782	0.416	0.88277	0.585
Mof_C 	C 	0.9166	0.4693	0.8919	-0.312
Mof_C 	C 	0.8258	0.4901	0.8915	0.377
Mof_C 	C 	0.7402	0.4631	0.88963	-0.268
Mof_C 	C 	0.772	0.4236	0.8898	0.046
Mof_C 	C 	0.5853	0.429	0.8862	-0.3
Mof_C 	C 	0.6306	0.4662	0.88792	0.371
Mof_C 	C 	0.8171	0.5349	0.8917	-0.884
Mof_H 	H 	0.8835	0.5465	0.8912	0.301
Mof_H 	H 	0.7711	0.5434	0.8732	0.27
Mof_H 	H 	0.791	0.5433	0.9107	0.275
Mof_C 	C 	0.5726	0.5051	0.8877	-0.873
Mof_H 	H 	0.5973	0.5201	0.9066	0.273
Mof_H 	H 	0.5829	0.5204	0.8691	0.266
Mof_H 	H 	0.5008	0.4997	0.8872	0.301
Mof_C 	C 	0.2053	0.5233	0.82716	0.578
Mof_C 	C 	0.0181	0.6067	0.6665	0.556
Mof_C 	C 	0.1871	0.5388	0.79346	-0.226
Mof_C 	C 	0.1903	0.5762	0.7814	0.112
Mof_C 	C 	0.1442	0.5838	0.7508	-0.064
Mof_C 	C 	0.1279	0.5435	0.738	-0.061
Mof_C 	C 	0.0725	0.5891	0.697	-0.218
Mof_C 	C 	0.1265	0.6068	0.7234	0.102
Mof_C 	C 	0.215	0.6112	0.8003	-0.048
Mof_C 	C 	0.129	0.6499	0.7284	-0.037
Mof_C 	C 	0.3273	0.5061	0.9212	0.507
Mof_C 	C 	0.3986	0.5041	0.9523	-0.193
Mof_C 	C 	0.428	0.4706	0.9711	0.062
Mof_C 	C 	0.5098	0.5218	0.9988	-0.047
Mof_C 	C 	0.403	0.4269	0.9677	-0.045
Mof_C 	C 	0.5662	0.2658	0.9253	0.584
Mof_C 	C 	0.6371	0.261	0.9553	-0.224
Mof_C 	C 	0.706	0.2294	0.9632	0.072
Mof_C 	C 	0.7307	0.2688	0.0061	-0.049
Mof_C 	C 	0.734	0.1916	0.946	-0.064
Mof_C 	C 	0.2569	0.6571	0.8753	0.626
Mof_C 	C 	0.7877	0.7275	0.8637	0.603
Mof_C 	C 	0.3599	0.6711	0.8707	-0.323
Mof_C 	C 	0.45	0.6521	0.8694	0.394
Mof_C 	C 	0.5299	0.68	0.8663	-0.272
Mof_C 	C 	0.496	0.7191	0.865	0.045
Mof_C 	C 	0.6812	0.7157	0.8632	-0.308
Mof_C 	C 	0.6391	0.6771	0.8641	0.357
Mof_C 	C 	0.4632	0.6074	0.8705	-0.907
Mof_H 	H 	0.3984	0.5948	0.8635	0.31
Mof_H 	H 	0.5116	0.5997	0.8566	0.276
Mof_H 	H 	0.4881	0.5993	0.892	0.289
Mof_C 	C 	0.6999	0.6393	0.8641	-0.869
Mof_H 	H 	0.7717	0.6453	0.8692	0.286
Mof_H 	H 	0.68	0.6213	0.8798	0.26
Mof_H 	H 	0.687	0.6271	0.8434	0.273
Mof_S 	S 	0.7082	0.214	0.9532	0.02
Mof_C 	C 	0.656	0.2835	0.9826	0.068
Mof_C 	C 	0.607	0.3219	0.9893	-0.062
Mof_S 	S 	0.4091	0.4543	0.9674	0.016
Mof_C 	C 	0.454	0.5335	0.97	0.057
Mof_C 	C 	0.454	0.5775	0.9624	-0.069
Mof_S 	S 	0.1847	0.5929	0.79379	-0.007
Mof_S 	S 	0.1044	0.6276	0.72681	-0.005
Mof_C 	C 	0.168	0.5211	0.7644	0.096
Mof_C 	C 	0.093	0.5508	0.7065	0.096
Mof_C 	C 	0.15	0.4791	0.761	-0.05
Mof_C 	C 	0.069	0.5145	0.6885	-0.061
Mof_Er	Er	0.89681	0.81917	0.88169	2.25
Mof_Er	Er	0.73046	0.93654	0.86619	2.055
Mof_Er	Er	0.65278	0.0688	0.89508	2.113
Mof_Er	Er	0.52036	0.19585	0.86603	2.305
Mof_O 	O 	0.789	0.90545	0.82172	-0.51
Mof_O 	O 	0.7901	0.84334	0.84086	-0.601
Mof_O 	O 	0.993	0.80474	0.65209	-0.61
Mof_O 	O 	0.9581	0.74372	0.66928	-0.601
Mof_O 	O 	0.7222	0.88893	0.90291	-0.612
Mof_O 	O 	0.7992	0.83274	0.91927	-0.62
Mof_O 	O 	0.4472	0.89182	0.07798	-0.631
Mof_O 	O 	0.5287	0.83645	0.09292	-0.652
Mof_O 	O 	0.5818	0.95869	0.8817	-0.605
Mof_O 	O 	0.546	0.018	0.89921	-0.638
Mof_O 	O 	0.9075	0.94067	0.87476	-0.551
Mof_O 	O 	0.9639	0.87896	0.88735	-0.623
Mof_O 	O 	0.7174	0.98631	0.83078	-0.584
Mof_O 	O 	0.7041	0.04739	0.84905	-0.58
Mof_O 	O 	0.4816	0.08329	0.64465	-0.555
Mof_O 	O 	0.5097	0.1441	0.66536	-0.62
Mof_O 	O 	0.785	0.9749	0.9107	-0.538
Mof_O 	O 	0.8086	0.0406	0.91092	-0.573
Mof_O 	O 	0.063	0.74127	0.90356	-0.651
Mof_O 	O 	0.009	0.79623	0.92341	-0.586
Mof_O 	O 	0.7479	0.12216	0.88612	-0.605
Mof_O 	O 	0.6845	0.18107	0.86935	-0.636
Mof_O 	O 	0.3507	0.20393	0.8547	-0.629
Mof_O 	O 	0.309	0.26287	0.87292	-0.637
Mof_S 	S 	0.8435	0.88954	0.7594	0.042
Mof_S 	S 	0.9133	0.85277	0.69795	0.046
Mof_S 	S 	0.6216	0.90679	0.95704	0.053
Mof_S 	S 	0.5266	0.90828	0.02076	0.027
Mof_S 	S 	0.40084	0.91785	0.88981	0.04
Mof_S 	S 	0.17421	0.88957	0.88814	0.049
Mof_S 	S 	0.6497	0.0006	0.76417	0.017
Mof_S 	S 	0.5713	0.035	0.69649	0.011
Mof_S 	S 	0.952	0.0487	0.9659	0.02
Mof_S 	S 	0.1369	0.7981	0.9838	0.035
Mof_S 	S 	0.86817	0.2233	0.86695	0.054
Mof_S 	S 	0.09162	0.25344	0.86396	0.04
Mof_C 	C 	0.7942	0.8684	0.8183	0.482
Mof_C 	C 	0.9556	0.7812	0.67075	0.566
Mof_C 	C 	0.8116	0.8526	0.78678	-0.198
Mof_C 	C 	0.8099	0.8128	0.7766	0.183
Mof_C 	C 	0.8457	0.8135	0.74458	-0.1
Mof_C 	C 	0.8654	0.8511	0.7339	0.006
Mof_C 	C 	0.9094	0.8003	0.69722	-0.212
Mof_C 	C 	0.8718	0.7802	0.7228	0.196
Mof_C 	C 	0.7849	0.7834	0.78989	-0.195
Mof_H 	H 	0.7655	0.7607	0.8002	0.103
Mof_C 	C 	0.8644	0.7453	0.727	-0.196
Mof_H 	H 	0.8586	0.7179	0.7304	0.113
Mof_C 	C 	0.743	0.8618	0.92314	0.608
Mof_C 	C 	0.5101	0.8659	0.0744	0.641
Mof_C 	C 	0.7001	0.8656	0.95342	-0.307
Mof_C 	C 	0.7111	0.841	0.9798	0.374
Mof_C 	C 	0.6524	0.856	0.0039	-0.271
Mof_C 	C 	0.6008	0.8908	0.99408	0.046
Mof_C 	C 	0.5622	0.8675	0.04594	-0.334
Mof_C 	C 	0.63	0.8428	0.0344	0.378
Mof_C 	C 	0.7814	0.8057	0.9843	-0.875
Mof_H 	H 	0.847	0.8129	0.9786	0.295
Mof_H 	H 	0.7896	0.7974	0.0063	0.263
Mof_H 	H 	0.7527	0.7841	0.971	0.274
Mof_C 	C 	0.6713	0.8052	0.0508	-0.852
Mof_H 	H 	0.6553	0.8049	0.0723	0.28
Mof_H 	H 	0.6407	0.7823	0.0394	0.261
Mof_H 	H 	0.7444	0.8042	0.0513	0.256
Mof_C 	C 	0.5233	0.9835	0.89096	0.643
Mof_C 	C 	0.9782	0.916	0.88277	0.585
Mof_C 	C 	0.4166	0.9693	0.8919	-0.312
Mof_C 	C 	0.3258	0.9901	0.8915	0.376
Mof_C 	C 	0.2402	0.9631	0.88963	-0.268
Mof_C 	C 	0.272	0.9236	0.8898	0.046
Mof_C 	C 	0.0853	0.929	0.8862	-0.3
Mof_C 	C 	0.1306	0.9662	0.88792	0.37
Mof_C 	C 	0.3171	0.0349	0.8917	-0.884
Mof_H 	H 	0.3835	0.0465	0.8912	0.301
Mof_H 	H 	0.2711	0.0434	0.8732	0.27
Mof_H 	H 	0.291	0.0433	0.9107	0.275
Mof_C 	C 	0.0726	0.0051	0.8877	-0.873
Mof_H 	H 	0.0973	0.0201	0.9066	0.273
Mof_H 	H 	0.0829	0.0204	0.8691	0.266
Mof_H 	H 	0.0008	0.9997	0.8872	0.3
Mof_C 	C 	0.7053	0.0233	0.82716	0.579
Mof_C 	C 	0.5181	0.1067	0.6665	0.556
Mof_C 	C 	0.6871	0.0388	0.79346	-0.226
Mof_C 	C 	0.6903	0.0762	0.7814	0.112
Mof_C 	C 	0.6442	0.0838	0.7508	-0.064
Mof_C 	C 	0.6279	0.0435	0.738	-0.061
Mof_C 	C 	0.5725	0.0891	0.697	-0.218
Mof_C 	C 	0.6265	0.1068	0.7234	0.102
Mof_C 	C 	0.715	0.1112	0.8003	-0.048
Mof_C 	C 	0.629	0.1499	0.7284	-0.037
Mof_C 	C 	0.8273	0.0061	0.9212	0.507
Mof_C 	C 	0.8986	0.0041	0.9523	-0.193
Mof_C 	C 	0.928	0.9706	0.9711	0.062
Mof_C 	C 	0.0098	0.0218	0.9988	-0.047
Mof_C 	C 	0.903	0.9269	0.9677	-0.045
Mof_C 	C 	0.0662	0.7658	0.9253	0.584
Mof_C 	C 	0.1371	0.761	0.9553	-0.224
Mof_C 	C 	0.206	0.7294	0.9632	0.072
Mof_C 	C 	0.2307	0.7688	0.0061	-0.049
Mof_C 	C 	0.234	0.6916	0.946	-0.064
Mof_C 	C 	0.7569	0.1571	0.8753	0.626
Mof_C 	C 	0.2877	0.2275	0.8637	0.603
Mof_C 	C 	0.8599	0.1711	0.8707	-0.323
Mof_C 	C 	0.95	0.1521	0.8694	0.394
Mof_C 	C 	0.0299	0.18	0.8663	-0.273
Mof_C 	C 	0.996	0.2191	0.865	0.046
Mof_C 	C 	0.1812	0.2157	0.8632	-0.308
Mof_C 	C 	0.1391	0.1771	0.8641	0.357
Mof_C 	C 	0.9632	0.1074	0.8705	-0.907
Mof_H 	H 	0.8984	0.0948	0.8635	0.31
Mof_H 	H 	0.0116	0.0997	0.8566	0.276
Mof_H 	H 	0.9881	0.0993	0.892	0.289
Mof_C 	C 	0.1999	0.1393	0.8641	-0.869
Mof_H 	H 	0.2717	0.1453	0.8692	0.286
Mof_H 	H 	0.18	0.1213	0.8798	0.26
Mof_H 	H 	0.187	0.1271	0.8434	0.273
Mof_S 	S 	0.2082	0.714	0.9532	0.02
Mof_C 	C 	0.156	0.7835	0.9826	0.068
Mof_C 	C 	0.107	0.8219	0.9893	-0.062
Mof_S 	S 	0.9091	0.9543	0.9674	0.016
Mof_C 	C 	0.954	0.0335	0.97	0.057
Mof_C 	C 	0.954	0.0775	0.9624	-0.069
Mof_S 	S 	0.6847	0.0929	0.79379	-0.007
Mof_S 	S 	0.6044	0.1276	0.72681	-0.005
Mof_C 	C 	0.668	0.0211	0.7644	0.096
Mof_C 	C 	0.593	0.0508	0.7065	0.096
Mof_C 	C 	0.65	0.9791	0.761	-0.05
Mof_C 	C 	0.569	0.0145	0.6885	-0.061
Mof_Er	Er	0.60319	0.31917	0.61831	2.25
Mof_Er	Er	0.76954	0.43654	0.63381	2.055
Mof_Er	Er	0.84722	0.5688	0.60492	2.114
Mof_Er	Er	0.97964	0.69585	0.63397	2.305
Mof_O 	O 	0.711	0.40545	0.67828	-0.51
Mof_O 	O 	0.7099	0.34334	0.65914	-0.601
Mof_O 	O 	0.507	0.30474	0.84791	-0.61
Mof_O 	O 	0.5419	0.24372	0.83072	-0.601
Mof_O 	O 	0.7778	0.38893	0.59709	-0.612
Mof_O 	O 	0.7008	0.33274	0.58073	-0.62
Mof_O 	O 	0.0528	0.39182	0.42202	-0.631
Mof_O 	O 	0.9713	0.33645	0.40708	-0.652
Mof_O 	O 	0.9182	0.45869	0.6183	-0.605
Mof_O 	O 	0.954	0.518	0.60079	-0.638
Mof_O 	O 	0.5925	0.44067	0.62524	-0.551
Mof_O 	O 	0.5361	0.37896	0.61265	-0.623
Mof_O 	O 	0.7826	0.48631	0.66922	-0.584
Mof_O 	O 	0.7959	0.54739	0.65095	-0.58
Mof_O 	O 	0.0184	0.58329	0.85535	-0.555
Mof_O 	O 	0.9903	0.6441	0.83464	-0.62
Mof_O 	O 	0.715	0.4749	0.5893	-0.538
Mof_O 	O 	0.6914	0.5406	0.58908	-0.573
Mof_O 	O 	0.437	0.24127	0.59644	-0.651
Mof_O 	O 	0.491	0.29623	0.57659	-0.586
Mof_O 	O 	0.7521	0.62216	0.61388	-0.605
Mof_O 	O 	0.8155	0.68107	0.63065	-0.636
Mof_O 	O 	0.1493	0.70393	0.6453	-0.63
Mof_O 	O 	0.191	0.76287	0.62708	-0.637
Mof_S 	S 	0.6565	0.38954	0.7406	0.042
Mof_S 	S 	0.5867	0.35277	0.80205	0.046
Mof_S 	S 	0.8784	0.40679	0.54296	0.053
Mof_S 	S 	0.9734	0.40828	0.47924	0.027
Mof_S 	S 	0.09916	0.41785	0.61019	0.04
Mof_S 	S 	0.32579	0.38957	0.61186	0.049
Mof_S 	S 	0.8503	0.5006	0.73583	0.017
Mof_S 	S 	0.9287	0.535	0.80351	0.011
Mof_S 	S 	0.548	0.5487	0.5341	0.02
Mof_S 	S 	0.3631	0.2981	0.5162	0.035
Mof_S 	S 	0.63183	0.7233	0.63305	0.054
Mof_S 	S 	0.40838	0.75344	0.63604	0.04
Mof_C 	C 	0.7058	0.3684	0.6817	0.482
Mof_C 	C 	0.5444	0.2812	0.82925	0.567
Mof_C 	C 	0.6884	0.3526	0.71322	-0.198
Mof_C 	C 	0.6901	0.3128	0.7234	0.183
Mof_C 	C 	0.6543	0.3135	0.75542	-0.1
Mof_C 	C 	0.6346	0.3511	0.7661	0.006
Mof_C 	C 	0.5906	0.3003	0.80278	-0.212
Mof_C 	C 	0.6282	0.2802	0.7772	0.196
Mof_C 	C 	0.7151	0.2834	0.71011	-0.195
Mof_H 	H 	0.7345	0.2607	0.6998	0.103
Mof_C 	C 	0.6356	0.2453	0.773	-0.196
Mof_H 	H 	0.6414	0.2179	0.7696	0.113
Mof_C 	C 	0.757	0.3618	0.57686	0.608
Mof_C 	C 	0.9899	0.3659	0.4256	0.641
Mof_C 	C 	0.7999	0.3656	0.54658	-0.307
Mof_C 	C 	0.7889	0.341	0.5202	0.374
Mof_C 	C 	0.8476	0.356	0.4961	-0.271
Mof_C 	C 	0.8992	0.3908	0.50592	0.046
Mof_C 	C 	0.9378	0.3675	0.45406	-0.334
Mof_C 	C 	0.87	0.3428	0.4656	0.378
Mof_C 	C 	0.7186	0.3057	0.5157	-0.875
Mof_H 	H 	0.653	0.3129	0.5214	0.295
Mof_H 	H 	0.7104	0.2974	0.4937	0.263
Mof_H 	H 	0.7473	0.2841	0.529	0.274
Mof_C 	C 	0.8287	0.3052	0.4492	-0.852
Mof_H 	H 	0.8447	0.3049	0.4277	0.28
Mof_H 	H 	0.8593	0.2823	0.4606	0.261
Mof_H 	H 	0.7556	0.3042	0.4487	0.256
Mof_C 	C 	0.9767	0.4835	0.60904	0.643
Mof_C 	C 	0.5218	0.416	0.61723	0.585
Mof_C 	C 	0.0834	0.4693	0.6081	-0.312
Mof_C 	C 	0.1742	0.4901	0.6085	0.377
Mof_C 	C 	0.2598	0.4631	0.61037	-0.268
Mof_C 	C 	0.228	0.4236	0.6102	0.046
Mof_C 	C 	0.4147	0.429	0.6138	-0.3
Mof_C 	C 	0.3694	0.4662	0.61208	0.371
Mof_C 	C 	0.1829	0.5349	0.6083	-0.884
Mof_H 	H 	0.1165	0.5465	0.6088	0.301
Mof_H 	H 	0.2289	0.5434	0.6268	0.27
Mof_H 	H 	0.209	0.5433	0.5893	0.275
Mof_C 	C 	0.4274	0.5051	0.6123	-0.873
Mof_H 	H 	0.4027	0.5201	0.5934	0.273
Mof_H 	H 	0.4171	0.5204	0.6309	0.266
Mof_H 	H 	0.4992	0.4997	0.6128	0.301
Mof_C 	C 	0.7947	0.5233	0.67284	0.578
Mof_C 	C 	0.9819	0.6067	0.8335	0.556
Mof_C 	C 	0.8129	0.5388	0.70654	-0.226
Mof_C 	C 	0.8097	0.5762	0.7186	0.112
Mof_C 	C 	0.8558	0.5838	0.7492	-0.064
Mof_C 	C 	0.8721	0.5435	0.762	-0.061
Mof_C 	C 	0.9275	0.5891	0.803	-0.218
Mof_C 	C 	0.8735	0.6068	0.7766	0.102
Mof_C 	C 	0.785	0.6112	0.6997	-0.048
Mof_C 	C 	0.871	0.6499	0.7716	-0.037
Mof_C 	C 	0.6727	0.5061	0.5788	0.507
Mof_C 	C 	0.6014	0.5041	0.5477	-0.193
Mof_C 	C 	0.572	0.4706	0.5289	0.062
Mof_C 	C 	0.4902	0.5218	0.5012	-0.047
Mof_C 	C 	0.597	0.4269	0.5323	-0.045
Mof_C 	C 	0.4338	0.2658	0.5747	0.584
Mof_C 	C 	0.3629	0.261	0.5447	-0.224
Mof_C 	C 	0.294	0.2294	0.5368	0.072
Mof_C 	C 	0.2693	0.2688	0.4939	-0.049
Mof_C 	C 	0.266	0.1916	0.554	-0.064
Mof_C 	C 	0.7431	0.6571	0.6247	0.626
Mof_C 	C 	0.2123	0.7275	0.6363	0.603
Mof_C 	C 	0.6401	0.6711	0.6293	-0.323
Mof_C 	C 	0.55	0.6521	0.6306	0.394
Mof_C 	C 	0.4701	0.68	0.6337	-0.272
Mof_C 	C 	0.504	0.7191	0.635	0.045
Mof_C 	C 	0.3188	0.7157	0.6368	-0.308
Mof_C 	C 	0.3609	0.6771	0.6359	0.357
Mof_C 	C 	0.5368	0.6074	0.6295	-0.907
Mof_H 	H 	0.6016	0.5948	0.6365	0.31
Mof_H 	H 	0.4884	0.5997	0.6434	0.276
Mof_H 	H 	0.5119	0.5993	0.608	0.289
Mof_C 	C 	0.3001	0.6393	0.6359	-0.869
Mof_H 	H 	0.2283	0.6453	0.6308	0.286
Mof_H 	H 	0.32	0.6213	0.6202	0.26
Mof_H 	H 	0.313	0.6271	0.6566	0.273
Mof_S 	S 	0.2918	0.214	0.5468	0.02
Mof_C 	C 	0.344	0.2835	0.5174	0.068
Mof_C 	C 	0.393	0.3219	0.5107	-0.062
Mof_S 	S 	0.5909	0.4543	0.5326	0.016
Mof_C 	C 	0.546	0.5335	0.53	0.057
Mof_C 	C 	0.546	0.5775	0.5376	-0.069
Mof_S 	S 	0.8153	0.5929	0.70621	-0.007
Mof_S 	S 	0.8956	0.6276	0.77319	-0.005
Mof_C 	C 	0.832	0.5211	0.7356	0.096
Mof_C 	C 	0.907	0.5508	0.7935	0.096
Mof_C 	C 	0.85	0.4791	0.739	-0.05
Mof_C 	C 	0.931	0.5145	0.8115	-0.061
Mof_Er	Er	0.10319	0.81917	0.61831	2.25
Mof_Er	Er	0.26954	0.93654	0.63381	2.055
Mof_Er	Er	0.34722	0.0688	0.60492	2.113
Mof_Er	Er	0.47964	0.19585	0.63397	2.305
Mof_O 	O 	0.211	0.90545	0.67828	-0.51
Mof_O 	O 	0.2099	0.84334	0.65914	-0.601
Mof_O 	O 	0.007	0.80474	0.84791	-0.61
Mof_O 	O 	0.0419	0.74372	0.83072	-0.601
Mof_O 	O 	0.2778	0.88893	0.59709	-0.612
Mof_O 	O 	0.2008	0.83274	0.58073	-0.62
Mof_O 	O 	0.5528	0.89182	0.42202	-0.631
Mof_O 	O 	0.4713	0.83645	0.40708	-0.652
Mof_O 	O 	0.4182	0.95869	0.6183	-0.605
Mof_O 	O 	0.454	0.018	0.60079	-0.638
Mof_O 	O 	0.0925	0.94067	0.62524	-0.551
Mof_O 	O 	0.0361	0.87896	0.61265	-0.623
Mof_O 	O 	0.2826	0.98631	0.66922	-0.584
Mof_O 	O 	0.2959	0.04739	0.65095	-0.58
Mof_O 	O 	0.5184	0.08329	0.85535	-0.555
Mof_O 	O 	0.4903	0.1441	0.83464	-0.62
Mof_O 	O 	0.215	0.9749	0.5893	-0.538
Mof_O 	O 	0.1914	0.0406	0.58908	-0.573
Mof_O 	O 	0.937	0.74127	0.59644	-0.651
Mof_O 	O 	0.991	0.79623	0.57659	-0.586
Mof_O 	O 	0.2521	0.12216	0.61388	-0.605
Mof_O 	O 	0.3155	0.18107	0.63065	-0.636
Mof_O 	O 	0.6493	0.20393	0.6453	-0.629
Mof_O 	O 	0.691	0.26287	0.62708	-0.637
Mof_S 	S 	0.1565	0.88954	0.7406	0.042
Mof_S 	S 	0.0867	0.85277	0.80205	0.046
Mof_S 	S 	0.3784	0.90679	0.54296	0.053
Mof_S 	S 	0.4734	0.90828	0.47924	0.027
Mof_S 	S 	0.59916	0.91785	0.61019	0.04
Mof_S 	S 	0.82579	0.88957	0.61186	0.049
Mof_S 	S 	0.3503	0.0006	0.73583	0.017
Mof_S 	S 	0.4287	0.035	0.80351	0.011
Mof_S 	S 	0.048	0.0487	0.5341	0.02
Mof_S 	S 	0.8631	0.7981	0.5162	0.035
Mof_S 	S 	0.13183	0.2233	0.63305	0.054
Mof_S 	S 	0.90838	0.25344	0.63604	0.04
Mof_C 	C 	0.2058	0.8684	0.6817	0.482
Mof_C 	C 	0.0444	0.7812	0.82925	0.566
Mof_C 	C 	0.1884	0.8526	0.71322	-0.198
Mof_C 	C 	0.1901	0.8128	0.7234	0.183
Mof_C 	C 	0.1543	0.8135	0.75542	-0.1
Mof_C 	C 	0.1346	0.8511	0.7661	0.006
Mof_C 	C 	0.0906	0.8003	0.80278	-0.212
Mof_C 	C 	0.1282	0.7802	0.7772	0.196
Mof_C 	C 	0.2151	0.7834	0.71011	-0.195
Mof_H 	H 	0.2345	0.7607	0.6998	0.103
Mof_C 	C 	0.1356	0.7453	0.773	-0.196
Mof_H 	H 	0.1414	0.7179	0.7696	0.113
Mof_C 	C 	0.257	0.8618	0.57686	0.608
Mof_C 	C 	0.4899	0.8659	0.4256	0.641
Mof_C 	C 	0.2999	0.8656	0.54658	-0.307
Mof_C 	C 	0.2889	0.841	0.5202	0.374
Mof_C 	C 	0.3476	0.856	0.4961	-0.271
Mof_C 	C 	0.3992	0.8908	0.50592	0.046
Mof_C 	C 	0.4378	0.8675	0.45406	-0.334
Mof_C 	C 	0.37	0.8428	0.4656	0.378
Mof_C 	C 	0.2186	0.8057	0.5157	-0.875
Mof_H 	H 	0.153	0.8129	0.5214	0.295
Mof_H 	H 	0.2104	0.7974	0.4937	0.263
Mof_H 	H 	0.2473	0.7841	0.529	0.274
Mof_C 	C 	0.3287	0.8052	0.4492	-0.852
Mof_H 	H 	0.3447	0.8049	0.4277	0.28
Mof_H 	H 	0.3593	0.7823	0.4606	0.261
Mof_H 	H 	0.2556	0.8042	0.4487	0.256
Mof_C 	C 	0.4767	0.9835	0.60904	0.643
Mof_C 	C 	0.0218	0.916	0.61723	0.585
Mof_C 	C 	0.5834	0.9693	0.6081	-0.312
Mof_C 	C 	0.6742	0.9901	0.6085	0.376
Mof_C 	C 	0.7598	0.9631	0.61037	-0.268
Mof_C 	C 	0.728	0.9236	0.6102	0.046
Mof_C 	C 	0.9147	0.929	0.6138	-0.3
Mof_C 	C 	0.8694	0.9662	0.61208	0.37
Mof_C 	C 	0.6829	0.0349	0.6083	-0.884
Mof_H 	H 	0.6165	0.0465	0.6088	0.301
Mof_H 	H 	0.7289	0.0434	0.6268	0.27
Mof_H 	H 	0.709	0.0433	0.5893	0.275
Mof_C 	C 	0.9274	0.0051	0.6123	-0.873
Mof_H 	H 	0.9027	0.0201	0.5934	0.273
Mof_H 	H 	0.9171	0.0204	0.6309	0.266
Mof_H 	H 	0.9992	0.9997	0.6128	0.301
Mof_C 	C 	0.2947	0.0233	0.67284	0.578
Mof_C 	C 	0.4819	0.1067	0.8335	0.556
Mof_C 	C 	0.3129	0.0388	0.70654	-0.226
Mof_C 	C 	0.3097	0.0762	0.7186	0.112
Mof_C 	C 	0.3558	0.0838	0.7492	-0.064
Mof_C 	C 	0.3721	0.0435	0.762	-0.061
Mof_C 	C 	0.4275	0.0891	0.803	-0.218
Mof_C 	C 	0.3735	0.1068	0.7766	0.102
Mof_C 	C 	0.285	0.1112	0.6997	-0.048
Mof_C 	C 	0.371	0.1499	0.7716	-0.037
Mof_C 	C 	0.1727	0.0061	0.5788	0.507
Mof_C 	C 	0.1014	0.0041	0.5477	-0.193
Mof_C 	C 	0.072	0.9706	0.5289	0.062
Mof_C 	C 	0.9902	0.0218	0.5012	-0.047
Mof_C 	C 	0.097	0.9269	0.5323	-0.045
Mof_C 	C 	0.9338	0.7658	0.5747	0.584
Mof_C 	C 	0.8629	0.761	0.5447	-0.224
Mof_C 	C 	0.794	0.7294	0.5368	0.072
Mof_C 	C 	0.7693	0.7688	0.4939	-0.049
Mof_C 	C 	0.766	0.6916	0.554	-0.064
Mof_C 	C 	0.2431	0.1571	0.6247	0.626
Mof_C 	C 	0.7123	0.2275	0.6363	0.603
Mof_C 	C 	0.1401	0.1711	0.6293	-0.323
Mof_C 	C 	0.05	0.1521	0.6306	0.394
Mof_C 	C 	0.9701	0.18	0.6337	-0.273
Mof_C 	C 	0.004	0.2191	0.635	0.046
Mof_C 	C 	0.8188	0.2157	0.6368	-0.308
Mof_C 	C 	0.8609	0.1771	0.6359	0.357
Mof_C 	C 	0.0368	0.1074	0.6295	-0.907
Mof_H 	H 	0.1016	0.0948	0.6365	0.31
Mof_H 	H 	0.9884	0.0997	0.6434	0.276
Mof_H 	H 	0.0119	0.0993	0.608	0.289
Mof_C 	C 	0.8001	0.1393	0.6359	-0.869
Mof_H 	H 	0.7283	0.1453	0.6308	0.286
Mof_H 	H 	0.82	0.1213	0.6202	0.26
Mof_H 	H 	0.813	0.1271	0.6566	0.273
Mof_S 	S 	0.7918	0.714	0.5468	0.02
Mof_C 	C 	0.844	0.7835	0.5174	0.068
Mof_C 	C 	0.893	0.8219	0.5107	-0.062
Mof_S 	S 	0.0909	0.9543	0.5326	0.016
Mof_C 	C 	0.046	0.0335	0.53	0.057
Mof_C 	C 	0.046	0.0775	0.5376	-0.069
Mof_S 	S 	0.3153	0.0929	0.70621	-0.007
Mof_S 	S 	0.3956	0.1276	0.77319	-0.005
Mof_C 	C 	0.332	0.0211	0.7356	0.096
Mof_C 	C 	0.407	0.0508	0.7935	0.096
Mof_C 	C 	0.35	0.9791	0.739	-0.05
Mof_C 	C 	0.431	0.0145	0.8115	-0.061
_end
