data_functionalizedCrystal
_audit_creation_method	'EQeq! by Chris Wilmer'
_symmetry_space_group_name_H-M	'P1'
_symmetry_Int_Tables_number	1
_symmetry_cell_setting	triclinic
loop_
_symmetry_equiv_pos_as_xyz
  x,y,z
_cell_length_a	30.3249
_cell_length_b	15.7864
_cell_length_c	40.4555
_cell_angle_alpha	90
_cell_angle_beta	90
_cell_angle_gamma	90
loop_
_atom_site_label
_atom_site_type_symbol
_atom_site_fract_x
_atom_site_fract_y
_atom_site_fract_z
_atom_site_charge
Mof_Al	Al	0.44962	0.54022	0.5855	4.252
Mof_Al	Al	0.47754	0.46924	0.65596	4.179
Mof_Al	Al	0.53361	0.61432	0.62151	4.38
Mof_Al	Al	0.28628	0.89095	0.38001	4.432
Mof_Al	Al	0.229	0.0307	0.34332	4.163
Mof_Al	Al	0.20218	0.96789	0.41528	4.473
Mof_C 	C 	0.53487	0.55981	0.55363	1
Mof_C 	C 	0.56371	0.5466	0.52364	-0.515
Mof_C 	C 	0.54572	0.5556	0.49295	0.372
Mof_H 	H 	0.5158	0.5665	0.4905	-0.117
Mof_C 	C 	0.57286	0.5482	0.46534	-0.418
Mof_H 	H 	0.5608	0.555	0.4444	0.163
Mof_C 	C 	0.61621	0.53136	0.46829	0.306
Mof_C 	C 	0.63315	0.5159	0.50047	-0.421
Mof_H 	H 	0.662	0.4969	0.503	0.164
Mof_C 	C 	0.60766	0.5284	0.52738	0.389
Mof_H 	H 	0.6199	0.5247	0.5484	-0.111
Mof_C 	C 	0.69896	0.85394	0.3946	1.078
Mof_C 	C 	0.68667	0.77053	0.4055	-0.617
Mof_C 	C 	0.68558	0.70103	0.38482	0.451
Mof_H 	H 	0.6944	0.7073	0.3629	-0.14
Mof_C 	C 	0.67192	0.62313	0.39557	-0.478
Mof_H 	H 	0.671	0.5781	0.3808	0.186
Mof_C 	C 	0.65936	0.61	0.42816	0.353
Mof_C 	C 	0.66219	0.6788	0.44972	-0.468
Mof_H 	H 	0.6557	0.6714	0.472	0.183
Mof_C 	C 	0.67448	0.75719	0.4383	0.443
Mof_H 	H 	0.6747	0.8027	0.4529	-0.134
Mof_C 	C 	0.72009	0.21081	0.4118	1.081
Mof_C 	C 	0.70194	0.29426	0.41862	-0.582
Mof_C 	C 	0.72513	0.36968	0.41207	0.414
Mof_H 	H 	0.7529	0.3661	0.4024	-0.123
Mof_C 	C 	0.7089	0.44625	0.41919	-0.432
Mof_H 	H 	0.726	0.4944	0.4158	0.169
Mof_C 	C 	0.66452	0.4539	0.43218	0.297
Mof_C 	C 	0.64123	0.3787	0.43816	-0.429
Mof_H 	H 	0.6121	0.3808	0.4454	0.173
Mof_C 	C 	0.66167	0.302	0.43328	0.424
Mof_H 	H 	0.6474	0.2531	0.4403	-0.127
Mof_C 	C 	0.32186	0.04084	0.34794	1.053
Mof_C 	C 	0.36526	0.08066	0.33874	-0.419
Mof_C 	C 	0.40507	0.0389	0.34545	0.263
Mof_H 	H 	0.405	0.9881	0.357	-0.074
Mof_C 	C 	0.44512	0.0743	0.33456	-0.312
Mof_H 	H 	0.4715	0.0458	0.3383	0.131
Mof_C 	C 	0.44534	0.1496	0.31869	0.195
Mof_C 	C 	0.40583	0.1952	0.3138	-0.156
Mof_C 	C 	0.36675	0.1595	0.32316	0.196
Mof_H 	H 	0.3406	0.1883	0.3191	-0.044
Mof_C 	C 	0.64435	0.04399	0.36002	0.999
Mof_C 	C 	0.60217	0.08136	0.346	-0.473
Mof_C 	C 	0.59541	0.0828	0.31288	0.339
Mof_H 	H 	0.6167	0.0614	0.2986	-0.096
Mof_C 	C 	0.55597	0.1169	0.30005	-0.394
Mof_H 	H 	0.5503	0.1147	0.2775	0.16
Mof_C 	C 	0.5266	0.1527	0.32067	0.295
Mof_C 	C 	0.53438	0.1585	0.354	-0.371
Mof_H 	H 	0.514	0.1845	0.3678	0.153
Mof_C 	C 	0.57388	0.1242	0.36717	0.312
Mof_H 	H 	0.5807	0.1304	0.3895	-0.085
Mof_C 	C 	0.49258	0.37663	0.18878	0.962
Mof_C 	C 	0.49191	0.3274	0.21972	-0.478
Mof_C 	C 	0.51373	0.3555	0.24773	0.323
Mof_H 	H 	0.5285	0.4071	0.2477	-0.093
Mof_C 	C 	0.51324	0.304	0.27659	-0.374
Mof_H 	H 	0.5309	0.319	0.2945	0.152
Mof_C 	C 	0.48779	0.2338	0.27866	0.301
Mof_C 	C 	0.46488	0.2075	0.25027	-0.399
Mof_H 	H 	0.4477	0.1588	0.251	0.16
Mof_C 	C 	0.46778	0.2528	0.22188	0.357
Mof_H 	H 	0.4531	0.2332	0.2032	-0.102
Mof_C 	C 	0.44947	0.36458	0.60095	0.989
Mof_C 	C 	0.43699	0.28061	0.58889	-0.477
Mof_C 	C 	0.42426	0.26715	0.55651	0.316
Mof_H 	H 	0.4253	0.3121	0.5417	-0.089
Mof_C 	C 	0.40985	0.18793	0.54531	-0.35
Mof_H 	H 	0.3994	0.1821	0.5238	0.144
Mof_C 	C 	0.41112	0.11647	0.56658	0.26
Mof_C 	C 	0.42294	0.1301	0.59977	-0.353
Mof_H 	H 	0.4217	0.0856	0.6148	0.142
Mof_C 	C 	0.43665	0.21049	0.61017	0.306
Mof_H 	H 	0.4458	0.2176	0.6319	-0.088
Mof_C 	C 	0.28659	0.96623	0.44554	0.964
Mof_C 	C 	0.31667	0.9934	0.47396	-0.438
Mof_C 	C 	0.35896	0.9652	0.47294	0.277
Mof_H 	H 	0.3691	0.9357	0.4546	-0.076
Mof_C 	C 	0.38847	0.9814	0.50075	-0.325
Mof_H 	H 	0.4171	0.9606	0.5013	0.135
Mof_C 	C 	0.37136	0.02946	0.52625	0.255
Mof_C 	C 	0.32853	0.0626	0.52554	-0.347
Mof_H 	H 	0.3184	0.0968	0.5426	0.139
Mof_C 	C 	0.30111	0.0433	0.49845	0.299
Mof_H 	H 	0.2726	0.0646	0.4974	-0.08
Mof_C 	C 	0.46709	0.71691	0.59135	0.978
Mof_C 	C 	0.4488	0.80524	0.58495	-0.446
Mof_C 	C 	0.47606	0.8749	0.58634	0.308
Mof_H 	H 	0.5054	0.87	0.5928	-0.09
Mof_C 	C 	0.4577	0.95484	0.57751	-0.38
Mof_H 	H 	0.475	0.0033	0.5789	0.152
Mof_C 	C 	0.41565	0.9613	0.56711	0.306
Mof_C 	C 	0.38862	0.89236	0.56817	-0.388
Mof_H 	H 	0.3591	0.8984	0.5625	0.158
Mof_C 	C 	0.40433	0.8134	0.57758	0.322
Mof_H 	H 	0.3855	0.7671	0.5789	-0.085
Mof_C 	C 	0.39152	0.53728	0.64175	0.952
Mof_C 	C 	0.35101	0.5776	0.65592	-0.443
Mof_C 	C 	0.31987	0.6122	0.63436	0.3
Mof_H 	H 	0.3249	0.6122	0.6117	-0.085
Mof_C 	C 	0.28126	0.6466	0.64724	-0.356
Mof_H 	H 	0.26	0.6684	0.633	0.145
Mof_C 	C 	0.27439	0.6485	0.68082	0.264
Mof_C 	C 	0.30493	0.6124	0.70258	-0.343
Mof_H 	H 	0.2996	0.6121	0.7252	0.143
Mof_C 	C 	0.34377	0.5767	0.68982	0.291
Mof_H 	H 	0.3645	0.5527	0.7039	-0.077
Mof_C 	C 	0.07193	0.53686	0.65202	0.955
Mof_C 	C 	0.11346	0.57699	0.66178	-0.51
Mof_C 	C 	0.1535	0.5322	0.65857	0.398
Mof_H 	H 	0.1528	0.4785	0.6492	-0.119
Mof_C 	C 	0.19153	0.5625	0.66814	-0.431
Mof_H 	H 	0.2169	0.5297	0.6662	0.171
Mof_C 	C 	0.19411	0.6472	0.68182	0.299
Mof_C 	C 	0.15435	0.6909	0.68539	-0.408
Mof_H 	H 	0.1547	0.7446	0.6948	0.162
Mof_C 	C 	0.11501	0.6575	0.67546	0.366
Mof_H 	H 	0.0892	0.6887	0.6779	-0.107
Mof_C 	C 	0.2409	0.87758	0.81194	1.084
Mof_C 	C 	0.23913	0.82357	0.78088	-0.502
Mof_C 	C 	0.21191	0.7535	0.7797	0.345
Mof_H 	H 	0.1953	0.738	0.798	-0.102
Mof_C 	C 	0.20971	0.7061	0.75045	-0.38
Mof_H 	H 	0.1913	0.659	0.7493	0.153
Mof_C 	C 	0.23505	0.7293	0.72295	0.291
Mof_C 	C 	0.26204	0.7993	0.7251	-0.398
Mof_H 	H 	0.2788	0.8152	0.7069	0.16
Mof_C 	C 	0.26463	0.846	0.75369	0.354
Mof_H 	H 	0.2834	0.8925	0.7548	-0.103
Mof_N 	N 	0.64375	0.53269	0.43903	-0.268
Mof_N 	N 	0.48575	0.1872	0.30809	-0.235
Mof_N 	N 	0.39852	0.0379	0.55423	-0.249
Mof_N 	N 	0.23337	0.6801	0.69361	-0.251
Mof_O 	O 	0.49465	0.54938	0.55216	-1.226
Mof_O 	O 	0.5559	0.57976	0.57945	-1.226
Mof_O 	O 	0.71401	0.86894	0.36633	-1.242
Mof_O 	O 	0.69272	0.91568	0.41489	-1.298
Mof_O 	O 	0.75575	0.20448	0.39467	-1.288
Mof_O 	O 	0.70293	0.14994	0.42538	-1.31
Mof_O 	O 	0.28809	0.07132	0.33969	-1.276
Mof_O 	O 	0.32697	0.9721	0.3641	-1.272
Mof_O 	O 	0.65074	0.05153	0.39012	-1.277
Mof_O 	O 	0.66758	0.00211	0.3406	-1.178
Mof_O 	O 	0.4789	0.33755	0.16306	-1.22
Mof_O 	O 	0.50588	0.45126	0.18958	-1.193
Mof_O 	O 	0.44974	0.42457	0.57964	-1.271
Mof_O 	O 	0.45895	0.3722	0.63052	-1.2
Mof_O 	O 	0.30395	0.91995	0.42348	-1.252
Mof_O 	O 	0.24784	0.99173	0.44614	-1.242
Mof_O 	O 	0.4402	0.65839	0.58525	-1.234
Mof_O 	O 	0.50465	0.71001	0.6028	-1.258
Mof_O 	O 	0.39707	0.53613	0.61205	-1.211
Mof_O 	O 	0.41971	0.50587	0.6629	-1.198
Mof_O 	O 	0.26031	0.944	0.81097	-1.26
Mof_O 	O 	0.2219	0.84762	0.83659	-1.279
Mof_O 	O 	0.07387	0.46045	0.64103	-1.245
Mof_O 	O 	0.03605	0.5764	0.65644	-1.171
Mof_O 	O 	0.4875	0.54109	0.6213	-2.463
Mof_O 	O 	0.23888	0.96251	0.37954	-2.5
Mof_Al	Al	0.55038	0.45978	0.0855	4.251
Mof_Al	Al	0.52246	0.53076	0.15596	4.178
Mof_Al	Al	0.46639	0.38568	0.12151	4.379
Mof_Al	Al	0.71372	0.10905	0.88001	4.43
Mof_Al	Al	0.771	0.9693	0.84332	4.162
Mof_Al	Al	0.79782	0.03211	0.91528	4.47
Mof_C 	C 	0.46513	0.44019	0.05363	0.995
Mof_C 	C 	0.43629	0.4534	0.02364	-0.504
Mof_C 	C 	0.45428	0.4444	0.99295	0.359
Mof_H 	H 	0.4842	0.4335	0.9905	-0.114
Mof_C 	C 	0.42714	0.4518	0.96534	-0.408
Mof_H 	H 	0.4392	0.445	0.9444	0.16
Mof_C 	C 	0.38379	0.46864	0.96829	0.297
Mof_C 	C 	0.36685	0.4841	0.00047	-0.408
Mof_H 	H 	0.338	0.5031	0.003	0.161
Mof_C 	C 	0.39234	0.4716	0.02738	0.378
Mof_H 	H 	0.3801	0.4753	0.0484	-0.107
Mof_C 	C 	0.30104	0.14606	0.8946	1.078
Mof_C 	C 	0.31333	0.22947	0.9055	-0.617
Mof_C 	C 	0.31442	0.29897	0.88482	0.45
Mof_H 	H 	0.3056	0.2927	0.8629	-0.14
Mof_C 	C 	0.32808	0.37687	0.89557	-0.478
Mof_H 	H 	0.329	0.4219	0.8808	0.186
Mof_C 	C 	0.34064	0.39	0.92816	0.353
Mof_C 	C 	0.33781	0.3212	0.94972	-0.468
Mof_H 	H 	0.3443	0.3286	0.972	0.182
Mof_C 	C 	0.32552	0.24281	0.9383	0.442
Mof_H 	H 	0.3253	0.1973	0.9529	-0.134
Mof_C 	C 	0.27991	0.78919	0.9118	1.081
Mof_C 	C 	0.29806	0.70574	0.91862	-0.582
Mof_C 	C 	0.27487	0.63032	0.91207	0.413
Mof_H 	H 	0.2471	0.6339	0.9024	-0.123
Mof_C 	C 	0.2911	0.55375	0.91919	-0.431
Mof_H 	H 	0.274	0.5056	0.9158	0.169
Mof_C 	C 	0.33548	0.5461	0.93218	0.297
Mof_C 	C 	0.35877	0.6213	0.93816	-0.429
Mof_H 	H 	0.3879	0.6192	0.9454	0.172
Mof_C 	C 	0.33833	0.698	0.93328	0.424
Mof_H 	H 	0.3526	0.7469	0.9403	-0.127
Mof_C 	C 	0.67814	0.95916	0.84794	1.053
Mof_C 	C 	0.63474	0.91934	0.83874	-0.419
Mof_C 	C 	0.59493	0.9611	0.84545	0.263
Mof_H 	H 	0.595	0.0119	0.857	-0.075
Mof_C 	C 	0.55488	0.9257	0.83456	-0.312
Mof_H 	H 	0.5285	0.9542	0.8383	0.13
Mof_C 	C 	0.55466	0.8504	0.81869	0.195
Mof_C 	C 	0.59417	0.8048	0.8138	-0.156
Mof_C 	C 	0.63325	0.8405	0.82316	0.197
Mof_H 	H 	0.6594	0.8117	0.8191	-0.044
Mof_C 	C 	0.35565	0.95601	0.86002	0.999
Mof_C 	C 	0.39783	0.91864	0.846	-0.473
Mof_C 	C 	0.40459	0.9172	0.81288	0.339
Mof_H 	H 	0.3833	0.9386	0.7986	-0.096
Mof_C 	C 	0.44403	0.8831	0.80005	-0.394
Mof_H 	H 	0.4497	0.8853	0.7775	0.16
Mof_C 	C 	0.4734	0.8473	0.82067	0.295
Mof_C 	C 	0.46562	0.8415	0.854	-0.371
Mof_H 	H 	0.486	0.8155	0.8678	0.153
Mof_C 	C 	0.42612	0.8758	0.86717	0.312
Mof_H 	H 	0.4193	0.8696	0.8895	-0.085
Mof_C 	C 	0.50742	0.62337	0.68878	0.962
Mof_C 	C 	0.50809	0.6726	0.71972	-0.478
Mof_C 	C 	0.48627	0.6445	0.74773	0.323
Mof_H 	H 	0.4715	0.5929	0.7477	-0.093
Mof_C 	C 	0.48676	0.696	0.77659	-0.374
Mof_H 	H 	0.4691	0.681	0.7945	0.152
Mof_C 	C 	0.51221	0.7662	0.77866	0.301
Mof_C 	C 	0.53512	0.7925	0.75027	-0.399
Mof_H 	H 	0.5523	0.8412	0.751	0.16
Mof_C 	C 	0.53222	0.7472	0.72188	0.357
Mof_H 	H 	0.5469	0.7668	0.7032	-0.102
Mof_C 	C 	0.55053	0.63542	0.10095	0.989
Mof_C 	C 	0.56301	0.71939	0.08889	-0.477
Mof_C 	C 	0.57574	0.73285	0.05651	0.316
Mof_H 	H 	0.5747	0.6879	0.0417	-0.089
Mof_C 	C 	0.59015	0.81207	0.04531	-0.35
Mof_H 	H 	0.6006	0.8179	0.0238	0.144
Mof_C 	C 	0.58888	0.88353	0.06658	0.26
Mof_C 	C 	0.57706	0.8699	0.09977	-0.353
Mof_H 	H 	0.5783	0.9144	0.1148	0.142
Mof_C 	C 	0.56335	0.78951	0.11017	0.306
Mof_H 	H 	0.5542	0.7824	0.1319	-0.087
Mof_C 	C 	0.71341	0.03377	0.94554	0.961
Mof_C 	C 	0.68333	0.0066	0.97396	-0.431
Mof_C 	C 	0.64104	0.0348	0.97294	0.266
Mof_H 	H 	0.6309	0.0643	0.9546	-0.073
Mof_C 	C 	0.61153	0.0186	0.00075	-0.315
Mof_H 	H 	0.5829	0.0394	0.0013	0.132
Mof_C 	C 	0.62864	0.97054	0.02625	0.249
Mof_C 	C 	0.67147	0.9374	0.02554	-0.336
Mof_H 	H 	0.6816	0.9032	0.0426	0.136
Mof_C 	C 	0.69889	0.9567	0.99845	0.287
Mof_H 	H 	0.7274	0.9354	0.9974	-0.077
Mof_C 	C 	0.53291	0.28309	0.09135	0.978
Mof_C 	C 	0.5512	0.19476	0.08495	-0.445
Mof_C 	C 	0.52394	0.1251	0.08634	0.308
Mof_H 	H 	0.4946	0.13	0.0928	-0.089
Mof_C 	C 	0.5423	0.04516	0.07751	-0.38
Mof_H 	H 	0.525	0.9967	0.0789	0.152
Mof_C 	C 	0.58435	0.0387	0.06711	0.306
Mof_C 	C 	0.61138	0.10764	0.06817	-0.387
Mof_H 	H 	0.6409	0.1016	0.0625	0.158
Mof_C 	C 	0.59567	0.1866	0.07758	0.322
Mof_H 	H 	0.6145	0.2329	0.0789	-0.085
Mof_C 	C 	0.60848	0.46272	0.14175	0.952
Mof_C 	C 	0.64899	0.4224	0.15592	-0.443
Mof_C 	C 	0.68013	0.3878	0.13436	0.3
Mof_H 	H 	0.6751	0.3878	0.1117	-0.084
Mof_C 	C 	0.71874	0.3534	0.14724	-0.356
Mof_H 	H 	0.74	0.3316	0.133	0.145
Mof_C 	C 	0.72561	0.3515	0.18082	0.264
Mof_C 	C 	0.69507	0.3876	0.20258	-0.343
Mof_H 	H 	0.7004	0.3879	0.2252	0.143
Mof_C 	C 	0.65623	0.4233	0.18982	0.291
Mof_H 	H 	0.6355	0.4473	0.2039	-0.077
Mof_C 	C 	0.92807	0.46314	0.15202	0.955
Mof_C 	C 	0.88654	0.42301	0.16178	-0.51
Mof_C 	C 	0.8465	0.4678	0.15857	0.398
Mof_H 	H 	0.8472	0.5215	0.1492	-0.119
Mof_C 	C 	0.80847	0.4375	0.16814	-0.431
Mof_H 	H 	0.7831	0.4703	0.1662	0.171
Mof_C 	C 	0.80589	0.3528	0.18182	0.299
Mof_C 	C 	0.84565	0.3091	0.18539	-0.407
Mof_H 	H 	0.8453	0.2554	0.1948	0.162
Mof_C 	C 	0.88499	0.3425	0.17546	0.366
Mof_H 	H 	0.9108	0.3113	0.1779	-0.107
Mof_C 	C 	0.7591	0.12242	0.31194	1.085
Mof_C 	C 	0.76087	0.17643	0.28088	-0.502
Mof_C 	C 	0.78809	0.2465	0.2797	0.345
Mof_H 	H 	0.8047	0.262	0.298	-0.102
Mof_C 	C 	0.79029	0.2939	0.25045	-0.38
Mof_H 	H 	0.8087	0.341	0.2493	0.153
Mof_C 	C 	0.76495	0.2707	0.22295	0.291
Mof_C 	C 	0.73796	0.2007	0.2251	-0.398
Mof_H 	H 	0.7212	0.1848	0.2069	0.16
Mof_C 	C 	0.73537	0.154	0.25369	0.354
Mof_H 	H 	0.7166	0.1075	0.2548	-0.103
Mof_N 	N 	0.35625	0.46731	0.93903	-0.266
Mof_N 	N 	0.51425	0.8128	0.80809	-0.235
Mof_N 	N 	0.60148	0.9621	0.05423	-0.247
Mof_N 	N 	0.76663	0.3199	0.19361	-0.251
Mof_O 	O 	0.50535	0.45062	0.05216	-1.224
Mof_O 	O 	0.4441	0.42024	0.07945	-1.225
Mof_O 	O 	0.28599	0.13106	0.86633	-1.242
Mof_O 	O 	0.30728	0.08432	0.91489	-1.298
Mof_O 	O 	0.24425	0.79552	0.89467	-1.288
Mof_O 	O 	0.29707	0.85006	0.92538	-1.31
Mof_O 	O 	0.71191	0.92868	0.83969	-1.276
Mof_O 	O 	0.67303	0.0279	0.8641	-1.271
Mof_O 	O 	0.34926	0.94847	0.89012	-1.277
Mof_O 	O 	0.33242	0.99789	0.8406	-1.178
Mof_O 	O 	0.5211	0.66245	0.66306	-1.22
Mof_O 	O 	0.49412	0.54874	0.68958	-1.193
Mof_O 	O 	0.55026	0.57543	0.07964	-1.271
Mof_O 	O 	0.54105	0.6278	0.13052	-1.2
Mof_O 	O 	0.69605	0.08005	0.92348	-1.251
Mof_O 	O 	0.75216	0.00827	0.94614	-1.241
Mof_O 	O 	0.5598	0.34161	0.08525	-1.234
Mof_O 	O 	0.49535	0.28999	0.1028	-1.258
Mof_O 	O 	0.60293	0.46387	0.11205	-1.211
Mof_O 	O 	0.58029	0.49413	0.1629	-1.198
Mof_O 	O 	0.73969	0.056	0.31097	-1.26
Mof_O 	O 	0.7781	0.15238	0.33659	-1.279
Mof_O 	O 	0.92613	0.53955	0.14103	-1.245
Mof_O 	O 	0.96395	0.4236	0.15644	-1.17
Mof_O 	O 	0.5125	0.45891	0.1213	-2.463
Mof_O 	O 	0.76112	0.03749	0.87954	-2.5
Mof_Al	Al	0.94962	0.45978	0.5855	4.251
Mof_Al	Al	0.97754	0.53076	0.65596	4.177
Mof_Al	Al	0.03361	0.38568	0.62151	4.379
Mof_Al	Al	0.78628	0.10905	0.38001	4.43
Mof_Al	Al	0.729	0.9693	0.34332	4.163
Mof_Al	Al	0.70218	0.03211	0.41528	4.47
Mof_C 	C 	0.03487	0.44019	0.55363	0.998
Mof_C 	C 	0.06371	0.4534	0.52364	-0.515
Mof_C 	C 	0.04572	0.4444	0.49295	0.372
Mof_H 	H 	0.0158	0.4335	0.4905	-0.117
Mof_C 	C 	0.07286	0.4518	0.46534	-0.418
Mof_H 	H 	0.0608	0.445	0.4444	0.163
Mof_C 	C 	0.11621	0.46864	0.46829	0.306
Mof_C 	C 	0.13315	0.4841	0.50047	-0.421
Mof_H 	H 	0.162	0.5031	0.503	0.164
Mof_C 	C 	0.10766	0.4716	0.52738	0.389
Mof_H 	H 	0.1199	0.4753	0.5484	-0.111
Mof_C 	C 	0.19896	0.14606	0.3946	1.078
Mof_C 	C 	0.18667	0.22947	0.4055	-0.617
Mof_C 	C 	0.18558	0.29897	0.38482	0.451
Mof_H 	H 	0.1944	0.2927	0.3629	-0.14
Mof_C 	C 	0.17192	0.37687	0.39557	-0.478
Mof_H 	H 	0.171	0.4219	0.3808	0.186
Mof_C 	C 	0.15936	0.39	0.42816	0.353
Mof_C 	C 	0.16219	0.3212	0.44972	-0.468
Mof_H 	H 	0.1557	0.3286	0.472	0.183
Mof_C 	C 	0.17448	0.24281	0.4383	0.443
Mof_H 	H 	0.1747	0.1973	0.4529	-0.134
Mof_C 	C 	0.22009	0.78919	0.4118	1.081
Mof_C 	C 	0.20194	0.70574	0.41862	-0.582
Mof_C 	C 	0.22513	0.63032	0.41207	0.414
Mof_H 	H 	0.2529	0.6339	0.4024	-0.123
Mof_C 	C 	0.2089	0.55375	0.41919	-0.432
Mof_H 	H 	0.226	0.5056	0.4158	0.169
Mof_C 	C 	0.16452	0.5461	0.43218	0.297
Mof_C 	C 	0.14123	0.6213	0.43816	-0.429
Mof_H 	H 	0.1121	0.6192	0.4454	0.173
Mof_C 	C 	0.16167	0.698	0.43328	0.424
Mof_H 	H 	0.1474	0.7469	0.4403	-0.127
Mof_C 	C 	0.82186	0.95916	0.34794	1.052
Mof_C 	C 	0.86526	0.91934	0.33874	-0.417
Mof_C 	C 	0.90507	0.9611	0.34545	0.258
Mof_H 	H 	0.905	0.0119	0.357	-0.072
Mof_C 	C 	0.94512	0.9257	0.33456	-0.309
Mof_H 	H 	0.9715	0.9542	0.3383	0.129
Mof_C 	C 	0.94534	0.8504	0.31869	0.193
Mof_C 	C 	0.90583	0.8048	0.3138	-0.156
Mof_C 	C 	0.86675	0.8405	0.32316	0.195
Mof_H 	H 	0.8406	0.8117	0.3191	-0.044
Mof_C 	C 	0.14435	0.95601	0.36002	0.999
Mof_C 	C 	0.10217	0.91864	0.346	-0.473
Mof_C 	C 	0.09541	0.9172	0.31288	0.34
Mof_H 	H 	0.1167	0.9386	0.2986	-0.096
Mof_C 	C 	0.05597	0.8831	0.30005	-0.395
Mof_H 	H 	0.0503	0.8853	0.2775	0.161
Mof_C 	C 	0.0266	0.8473	0.32067	0.296
Mof_C 	C 	0.03438	0.8415	0.354	-0.372
Mof_H 	H 	0.014	0.8155	0.3678	0.153
Mof_C 	C 	0.07388	0.8758	0.36717	0.312
Mof_H 	H 	0.0807	0.8696	0.3895	-0.085
Mof_C 	C 	0.99258	0.62337	0.18878	0.961
Mof_C 	C 	0.99191	0.6726	0.21972	-0.478
Mof_C 	C 	0.01373	0.6445	0.24773	0.323
Mof_H 	H 	0.0285	0.5929	0.2477	-0.093
Mof_C 	C 	0.01324	0.696	0.27659	-0.372
Mof_H 	H 	0.0309	0.681	0.2945	0.152
Mof_C 	C 	0.98779	0.7662	0.27866	0.299
Mof_C 	C 	0.96488	0.7925	0.25027	-0.399
Mof_H 	H 	0.9477	0.8412	0.251	0.159
Mof_C 	C 	0.96778	0.7472	0.22188	0.357
Mof_H 	H 	0.9531	0.7668	0.2032	-0.102
Mof_C 	C 	0.94947	0.63542	0.60095	0.989
Mof_C 	C 	0.93699	0.71939	0.58889	-0.477
Mof_C 	C 	0.92426	0.73285	0.55651	0.316
Mof_H 	H 	0.9253	0.6879	0.5417	-0.089
Mof_C 	C 	0.90985	0.81207	0.54531	-0.35
Mof_H 	H 	0.8994	0.8179	0.5238	0.144
Mof_C 	C 	0.91112	0.88353	0.56658	0.26
Mof_C 	C 	0.92294	0.8699	0.59977	-0.353
Mof_H 	H 	0.9217	0.9144	0.6148	0.142
Mof_C 	C 	0.93665	0.78951	0.61017	0.306
Mof_H 	H 	0.9458	0.7824	0.6319	-0.088
Mof_C 	C 	0.78659	0.03377	0.44554	0.963
Mof_C 	C 	0.81667	0.0066	0.47396	-0.436
Mof_C 	C 	0.85896	0.0348	0.47294	0.275
Mof_H 	H 	0.8691	0.0643	0.4546	-0.076
Mof_C 	C 	0.88847	0.0186	0.50075	-0.323
Mof_H 	H 	0.9171	0.0394	0.5013	0.134
Mof_C 	C 	0.87136	0.97054	0.52625	0.252
Mof_C 	C 	0.82853	0.9374	0.52554	-0.345
Mof_H 	H 	0.8184	0.9032	0.5426	0.139
Mof_C 	C 	0.80111	0.9567	0.49845	0.297
Mof_H 	H 	0.7726	0.9354	0.4974	-0.08
Mof_C 	C 	0.96709	0.28309	0.59135	0.98
Mof_C 	C 	0.9488	0.19476	0.58495	-0.447
Mof_C 	C 	0.97606	0.1251	0.58634	0.311
Mof_H 	H 	0.0054	0.13	0.5928	-0.092
Mof_C 	C 	0.9577	0.04516	0.57751	-0.378
Mof_H 	H 	0.975	0.9967	0.5789	0.15
Mof_C 	C 	0.91565	0.0387	0.56711	0.307
Mof_C 	C 	0.88862	0.10764	0.56817	-0.388
Mof_H 	H 	0.8591	0.1016	0.5625	0.159
Mof_C 	C 	0.90433	0.1866	0.57758	0.323
Mof_H 	H 	0.8855	0.2329	0.5789	-0.085
Mof_C 	C 	0.89152	0.46272	0.64175	0.952
Mof_C 	C 	0.85101	0.4224	0.65592	-0.443
Mof_C 	C 	0.81987	0.3878	0.63436	0.3
Mof_H 	H 	0.8249	0.3878	0.6117	-0.085
Mof_C 	C 	0.78126	0.3534	0.64724	-0.356
Mof_H 	H 	0.76	0.3316	0.633	0.145
Mof_C 	C 	0.77439	0.3515	0.68082	0.264
Mof_C 	C 	0.80493	0.3876	0.70258	-0.343
Mof_H 	H 	0.7996	0.3879	0.7252	0.143
Mof_C 	C 	0.84377	0.4233	0.68982	0.291
Mof_H 	H 	0.8645	0.4473	0.7039	-0.077
Mof_C 	C 	0.57193	0.46314	0.65202	0.956
Mof_C 	C 	0.61346	0.42301	0.66178	-0.51
Mof_C 	C 	0.6535	0.4678	0.65857	0.398
Mof_H 	H 	0.6528	0.5215	0.6492	-0.119
Mof_C 	C 	0.69153	0.4375	0.66814	-0.431
Mof_H 	H 	0.7169	0.4703	0.6662	0.171
Mof_C 	C 	0.69411	0.3528	0.68182	0.299
Mof_C 	C 	0.65435	0.3091	0.68539	-0.408
Mof_H 	H 	0.6547	0.2554	0.6948	0.162
Mof_C 	C 	0.61501	0.3425	0.67546	0.366
Mof_H 	H 	0.5892	0.3113	0.6779	-0.108
Mof_C 	C 	0.7409	0.12242	0.81194	1.084
Mof_C 	C 	0.73913	0.17643	0.78088	-0.502
Mof_C 	C 	0.71191	0.2465	0.7797	0.345
Mof_H 	H 	0.6953	0.262	0.798	-0.102
Mof_C 	C 	0.70971	0.2939	0.75045	-0.38
Mof_H 	H 	0.6913	0.341	0.7493	0.152
Mof_C 	C 	0.73505	0.2707	0.72295	0.291
Mof_C 	C 	0.76204	0.2007	0.7251	-0.398
Mof_H 	H 	0.7788	0.1848	0.7069	0.16
Mof_C 	C 	0.76463	0.154	0.75369	0.354
Mof_H 	H 	0.7834	0.1075	0.7548	-0.103
Mof_N 	N 	0.14375	0.46731	0.43903	-0.268
Mof_N 	N 	0.98575	0.8128	0.30809	-0.236
Mof_N 	N 	0.89852	0.9621	0.55423	-0.249
Mof_N 	N 	0.73337	0.3199	0.69361	-0.251
Mof_O 	O 	0.99465	0.45062	0.55216	-1.226
Mof_O 	O 	0.0559	0.42024	0.57945	-1.226
Mof_O 	O 	0.21401	0.13106	0.36633	-1.242
Mof_O 	O 	0.19272	0.08432	0.41489	-1.298
Mof_O 	O 	0.25575	0.79552	0.39467	-1.288
Mof_O 	O 	0.20293	0.85006	0.42538	-1.311
Mof_O 	O 	0.78809	0.92868	0.33969	-1.275
Mof_O 	O 	0.82697	0.0279	0.3641	-1.271
Mof_O 	O 	0.15074	0.94847	0.39012	-1.277
Mof_O 	O 	0.16758	0.99789	0.3406	-1.178
Mof_O 	O 	0.9789	0.66245	0.16306	-1.22
Mof_O 	O 	0.00588	0.54874	0.18958	-1.192
Mof_O 	O 	0.94974	0.57543	0.57964	-1.271
Mof_O 	O 	0.95895	0.6278	0.63052	-1.2
Mof_O 	O 	0.80395	0.08005	0.42348	-1.251
Mof_O 	O 	0.74784	0.00827	0.44614	-1.241
Mof_O 	O 	0.9402	0.34161	0.58525	-1.234
Mof_O 	O 	0.00465	0.28999	0.6028	-1.259
Mof_O 	O 	0.89707	0.46387	0.61205	-1.211
Mof_O 	O 	0.91971	0.49413	0.6629	-1.198
Mof_O 	O 	0.76031	0.056	0.81097	-1.26
Mof_O 	O 	0.7219	0.15238	0.83659	-1.279
Mof_O 	O 	0.57387	0.53955	0.64103	-1.245
Mof_O 	O 	0.53605	0.4236	0.65644	-1.171
Mof_O 	O 	0.9875	0.45891	0.6213	-2.462
Mof_O 	O 	0.73888	0.03749	0.37954	-2.5
Mof_Al	Al	0.05038	0.54022	0.0855	4.251
Mof_Al	Al	0.02246	0.46924	0.15596	4.177
Mof_Al	Al	0.96639	0.61432	0.12151	4.379
Mof_Al	Al	0.21372	0.89095	0.88001	4.429
Mof_Al	Al	0.271	0.0307	0.84332	4.163
Mof_Al	Al	0.29782	0.96789	0.91528	4.469
Mof_C 	C 	0.96513	0.55981	0.05363	0.995
Mof_C 	C 	0.93629	0.5466	0.02364	-0.504
Mof_C 	C 	0.95428	0.5556	0.99295	0.359
Mof_H 	H 	0.9842	0.5665	0.9905	-0.114
Mof_C 	C 	0.92714	0.5482	0.96534	-0.408
Mof_H 	H 	0.9392	0.555	0.9444	0.16
Mof_C 	C 	0.88379	0.53136	0.96829	0.297
Mof_C 	C 	0.86685	0.5159	0.00047	-0.408
Mof_H 	H 	0.838	0.4969	0.003	0.161
Mof_C 	C 	0.89234	0.5284	0.02738	0.378
Mof_H 	H 	0.8801	0.5247	0.0484	-0.107
Mof_C 	C 	0.80104	0.85394	0.8946	1.078
Mof_C 	C 	0.81333	0.77053	0.9055	-0.617
Mof_C 	C 	0.81442	0.70103	0.88482	0.45
Mof_H 	H 	0.8056	0.7073	0.8629	-0.14
Mof_C 	C 	0.82808	0.62313	0.89557	-0.478
Mof_H 	H 	0.829	0.5781	0.8808	0.186
Mof_C 	C 	0.84064	0.61	0.92816	0.353
Mof_C 	C 	0.83781	0.6788	0.94972	-0.468
Mof_H 	H 	0.8443	0.6714	0.972	0.182
Mof_C 	C 	0.82552	0.75719	0.9383	0.442
Mof_H 	H 	0.8253	0.8027	0.9529	-0.134
Mof_C 	C 	0.77991	0.21081	0.9118	1.081
Mof_C 	C 	0.79806	0.29426	0.91862	-0.582
Mof_C 	C 	0.77487	0.36968	0.91207	0.413
Mof_H 	H 	0.7471	0.3661	0.9024	-0.123
Mof_C 	C 	0.7911	0.44625	0.91919	-0.431
Mof_H 	H 	0.774	0.4944	0.9158	0.169
Mof_C 	C 	0.83548	0.4539	0.93218	0.297
Mof_C 	C 	0.85877	0.3787	0.93816	-0.429
Mof_H 	H 	0.8879	0.3808	0.9454	0.172
Mof_C 	C 	0.83833	0.302	0.93328	0.424
Mof_H 	H 	0.8526	0.2531	0.9403	-0.127
Mof_C 	C 	0.17814	0.04084	0.84794	1.051
Mof_C 	C 	0.13474	0.08066	0.83874	-0.417
Mof_C 	C 	0.09493	0.0389	0.84545	0.258
Mof_H 	H 	0.095	0.9881	0.857	-0.072
Mof_C 	C 	0.05488	0.0743	0.83456	-0.31
Mof_H 	H 	0.0285	0.0458	0.8383	0.129
Mof_C 	C 	0.05466	0.1496	0.81869	0.193
Mof_C 	C 	0.09417	0.1952	0.8138	-0.156
Mof_C 	C 	0.13325	0.1595	0.82316	0.195
Mof_H 	H 	0.1594	0.1883	0.8191	-0.044
Mof_C 	C 	0.85565	0.04399	0.86002	0.999
Mof_C 	C 	0.89783	0.08136	0.846	-0.473
Mof_C 	C 	0.90459	0.0828	0.81288	0.34
Mof_H 	H 	0.8833	0.0614	0.7986	-0.096
Mof_C 	C 	0.94403	0.1169	0.80005	-0.395
Mof_H 	H 	0.9497	0.1147	0.7775	0.161
Mof_C 	C 	0.9734	0.1527	0.82067	0.296
Mof_C 	C 	0.96562	0.1585	0.854	-0.372
Mof_H 	H 	0.986	0.1845	0.8678	0.153
Mof_C 	C 	0.92612	0.1242	0.86717	0.312
Mof_H 	H 	0.9193	0.1304	0.8895	-0.085
Mof_C 	C 	0.00742	0.37663	0.68878	0.961
Mof_C 	C 	0.00809	0.3274	0.71972	-0.478
Mof_C 	C 	0.98627	0.3555	0.74773	0.323
Mof_H 	H 	0.9715	0.4071	0.7477	-0.093
Mof_C 	C 	0.98676	0.304	0.77659	-0.372
Mof_H 	H 	0.9691	0.319	0.7945	0.152
Mof_C 	C 	0.01221	0.2338	0.77866	0.299
Mof_C 	C 	0.03512	0.2075	0.75027	-0.399
Mof_H 	H 	0.0523	0.1588	0.751	0.159
Mof_C 	C 	0.03222	0.2528	0.72188	0.357
Mof_H 	H 	0.0469	0.2332	0.7032	-0.102
Mof_C 	C 	0.05053	0.36458	0.10095	0.989
Mof_C 	C 	0.06301	0.28061	0.08889	-0.477
Mof_C 	C 	0.07574	0.26715	0.05651	0.316
Mof_H 	H 	0.0747	0.3121	0.0417	-0.089
Mof_C 	C 	0.09015	0.18793	0.04531	-0.35
Mof_H 	H 	0.1006	0.1821	0.0238	0.144
Mof_C 	C 	0.08888	0.11647	0.06658	0.26
Mof_C 	C 	0.07706	0.1301	0.09977	-0.353
Mof_H 	H 	0.0783	0.0856	0.1148	0.142
Mof_C 	C 	0.06335	0.21049	0.11017	0.306
Mof_H 	H 	0.0542	0.2176	0.1319	-0.088
Mof_C 	C 	0.21341	0.96623	0.94554	0.96
Mof_C 	C 	0.18333	0.9934	0.97396	-0.429
Mof_C 	C 	0.14104	0.9652	0.97294	0.264
Mof_H 	H 	0.1309	0.9357	0.9546	-0.073
Mof_C 	C 	0.11153	0.9814	0.00075	-0.313
Mof_H 	H 	0.0829	0.9606	0.0013	0.131
Mof_C 	C 	0.12864	0.02946	0.02625	0.246
Mof_C 	C 	0.17147	0.0626	0.02554	-0.334
Mof_H 	H 	0.1816	0.0968	0.0426	0.135
Mof_C 	C 	0.19889	0.0433	0.99845	0.285
Mof_H 	H 	0.2274	0.0646	0.9974	-0.077
Mof_C 	C 	0.03291	0.71691	0.09135	0.98
Mof_C 	C 	0.0512	0.80524	0.08495	-0.446
Mof_C 	C 	0.02394	0.8749	0.08634	0.311
Mof_H 	H 	0.9946	0.87	0.0928	-0.091
Mof_C 	C 	0.0423	0.95484	0.07751	-0.377
Mof_H 	H 	0.025	0.0033	0.0789	0.15
Mof_C 	C 	0.08435	0.9613	0.06711	0.306
Mof_C 	C 	0.11138	0.89236	0.06817	-0.388
Mof_H 	H 	0.1409	0.8984	0.0625	0.159
Mof_C 	C 	0.09567	0.8134	0.07758	0.323
Mof_H 	H 	0.1145	0.7671	0.0789	-0.085
Mof_C 	C 	0.10848	0.53728	0.14175	0.952
Mof_C 	C 	0.14899	0.5776	0.15592	-0.443
Mof_C 	C 	0.18013	0.6122	0.13436	0.3
Mof_H 	H 	0.1751	0.6122	0.1117	-0.084
Mof_C 	C 	0.21874	0.6466	0.14724	-0.356
Mof_H 	H 	0.24	0.6684	0.133	0.145
Mof_C 	C 	0.22561	0.6485	0.18082	0.264
Mof_C 	C 	0.19507	0.6124	0.20258	-0.343
Mof_H 	H 	0.2004	0.6121	0.2252	0.143
Mof_C 	C 	0.15623	0.5767	0.18982	0.291
Mof_H 	H 	0.1355	0.5527	0.2039	-0.077
Mof_C 	C 	0.42807	0.53686	0.15202	0.956
Mof_C 	C 	0.38654	0.57699	0.16178	-0.51
Mof_C 	C 	0.3465	0.5322	0.15857	0.398
Mof_H 	H 	0.3472	0.4785	0.1492	-0.119
Mof_C 	C 	0.30847	0.5625	0.16814	-0.431
Mof_H 	H 	0.2831	0.5297	0.1662	0.171
Mof_C 	C 	0.30589	0.6472	0.18182	0.299
Mof_C 	C 	0.34565	0.6909	0.18539	-0.408
Mof_H 	H 	0.3453	0.7446	0.1948	0.162
Mof_C 	C 	0.38499	0.6575	0.17546	0.366
Mof_H 	H 	0.4108	0.6887	0.1779	-0.108
Mof_C 	C 	0.2591	0.87758	0.31194	1.084
Mof_C 	C 	0.26087	0.82357	0.28088	-0.502
Mof_C 	C 	0.28809	0.7535	0.2797	0.345
Mof_H 	H 	0.3047	0.738	0.298	-0.102
Mof_C 	C 	0.29029	0.7061	0.25045	-0.38
Mof_H 	H 	0.3087	0.659	0.2493	0.153
Mof_C 	C 	0.26495	0.7293	0.22295	0.291
Mof_C 	C 	0.23796	0.7993	0.2251	-0.398
Mof_H 	H 	0.2212	0.8152	0.2069	0.16
Mof_C 	C 	0.23537	0.846	0.25369	0.354
Mof_H 	H 	0.2166	0.8925	0.2548	-0.103
Mof_N 	N 	0.85625	0.53269	0.93903	-0.266
Mof_N 	N 	0.01425	0.1872	0.80809	-0.236
Mof_N 	N 	0.10148	0.0379	0.05423	-0.248
Mof_N 	N 	0.26663	0.6801	0.19361	-0.251
Mof_O 	O 	0.00535	0.54938	0.05216	-1.224
Mof_O 	O 	0.9441	0.57976	0.07945	-1.225
Mof_O 	O 	0.78599	0.86894	0.86633	-1.242
Mof_O 	O 	0.80728	0.91568	0.91489	-1.298
Mof_O 	O 	0.74425	0.20448	0.89467	-1.288
Mof_O 	O 	0.79707	0.14994	0.92538	-1.311
Mof_O 	O 	0.21191	0.07132	0.83969	-1.275
Mof_O 	O 	0.17303	0.9721	0.8641	-1.271
Mof_O 	O 	0.84926	0.05153	0.89012	-1.277
Mof_O 	O 	0.83242	0.00211	0.8406	-1.178
Mof_O 	O 	0.0211	0.33755	0.66306	-1.22
Mof_O 	O 	0.99412	0.45126	0.68958	-1.192
Mof_O 	O 	0.05026	0.42457	0.07964	-1.271
Mof_O 	O 	0.04105	0.3722	0.13052	-1.2
Mof_O 	O 	0.19605	0.91995	0.92348	-1.251
Mof_O 	O 	0.25216	0.99173	0.94614	-1.241
Mof_O 	O 	0.0598	0.65839	0.08525	-1.234
Mof_O 	O 	0.99535	0.71001	0.1028	-1.259
Mof_O 	O 	0.10293	0.53613	0.11205	-1.211
Mof_O 	O 	0.08029	0.50587	0.1629	-1.198
Mof_O 	O 	0.23969	0.944	0.31097	-1.26
Mof_O 	O 	0.2781	0.84762	0.33659	-1.279
Mof_O 	O 	0.42613	0.46045	0.14103	-1.245
Mof_O 	O 	0.46395	0.5764	0.15644	-1.171
Mof_O 	O 	0.0125	0.54109	0.1213	-2.463
Mof_O 	O 	0.26112	0.96251	0.87954	-2.5
_end
