# CIF file generated by openbabel 3.1.0, see https://openbabel.org
data_I
_chemical_name_common 'image0'
_cell_length_a 11.5486
_cell_length_b 40.8635
_cell_length_c 16.7777
_cell_angle_alpha 90
_cell_angle_beta 90
_cell_angle_gamma 90
_space_group_name_H-M_alt 'P 1'
_space_group_name_Hall 'P 1'
loop_
    _symmetry_equiv_pos_as_xyz
    x,y,z
loop_
    _atom_site_label
    _atom_site_type_symbol
    _atom_site_fract_x
    _atom_site_fract_y
    _atom_site_fract_z
    _atom_site_occupancy
    Gd1      Gd       0.73139    0.51445    0.71280    1.000
    O1       O        0.71030    0.65220    0.75060    1.000
    O2       O        0.55810    0.54077    0.72710    1.000
    C1       C        0.44280    0.58770    0.71020    1.000
    C2       C        0.20720    0.64890    0.66050    1.000
    O3       O        0.53740    0.68516    0.53160    1.000
    O4       O        0.78930    0.55165    0.61350    1.000
    N1       N        0.11340    0.63139    0.63730    1.000
    O5       O        0.68230    0.71771    0.50280    1.000
    C3       C        0.53510    0.60870    0.72310    1.000
    H1       H        0.60880    0.60020    0.73740    1.000
    O6       O        0.60190    0.69558    0.72500    1.000
    O7       O        0.63550    0.56328    0.53960    1.000
    N2       N        0.18590    0.68010    0.66530    1.000
    C4       C        0.72710    0.57151    0.57470    1.000
    O8       O        0.36710    0.53469    0.73090    1.000
    C5       C        0.51880    0.64240    0.71500    1.000
    C6       C        0.83930    0.67142    0.57480    1.000
    H2       H        0.86530    0.69350    0.57330    1.000
    C7       C        0.87720    0.61422    0.59840    1.000
    H3       H        0.92880    0.59720    0.61350    1.000
    C8       C        0.03180    0.65468    0.62560    1.000
    C9       C        0.41230    0.65473    0.69280    1.000
    H4       H        0.40280    0.67770    0.68630    1.000
    N3       N        0.06990    0.68439    0.64310    1.000
    C10      C        0.64370    0.69043    0.52730    1.000
    C11      C        0.72720    0.66399    0.55190    1.000
    C12      C        0.31880    0.63392    0.67990    1.000
    C13      C        0.68940    0.63174    0.55170    1.000
    H5       H        0.61250    0.62660    0.53590    1.000
    C14      C        0.61370    0.66635    0.73100    1.000
    C15      C        0.33310    0.60003    0.68950    1.000
    H6       H        0.26950    0.58560    0.68200    1.000
    C16      C        0.76510    0.60692    0.57480    1.000
    C17      C        0.45630    0.55134    0.72340    1.000
    C18      C        0.91380    0.64694    0.59970    1.000
    H7       H        0.75200    0.66590    0.77400    1.000
    H8       H        0.04800    0.69200    0.59600    1.000
    Gd2      Gd       0.73139    0.01445    0.21280    1.000
    O9       O        0.71030    0.15220    0.25060    1.000
    O10      O        0.55810    0.04077    0.22710    1.000
    C19      C        0.44280    0.08770    0.21020    1.000
    C20      C        0.20720    0.14890    0.16050    1.000
    O11      O        0.53740    0.18516    0.03160    1.000
    O12      O        0.78930    0.05165    0.11350    1.000
    N4       N        0.11340    0.13139    0.13730    1.000
    O13      O        0.68230    0.21771    0.00280    1.000
    C21      C        0.53510    0.10870    0.22310    1.000
    H9       H        0.60880    0.10020    0.23740    1.000
    O14      O        0.60190    0.19558    0.22500    1.000
    O15      O        0.63550    0.06328    0.03960    1.000
    N5       N        0.18590    0.18010    0.16530    1.000
    C22      C        0.72710    0.07151    0.07470    1.000
    O16      O        0.36710    0.03469    0.23090    1.000
    C23      C        0.51880    0.14240    0.21500    1.000
    C24      C        0.83930    0.17142    0.07480    1.000
    H10      H        0.86530    0.19350    0.07330    1.000
    C25      C        0.87720    0.11422    0.09840    1.000
    H11      H        0.92880    0.09720    0.11350    1.000
    C26      C        0.03180    0.15468    0.12560    1.000
    C27      C        0.41230    0.15473    0.19280    1.000
    H12      H        0.40280    0.17770    0.18630    1.000
    N6       N        0.06990    0.18439    0.14310    1.000
    C28      C        0.64370    0.19043    0.02730    1.000
    C29      C        0.72720    0.16399    0.05190    1.000
    C30      C        0.31880    0.13392    0.17990    1.000
    C31      C        0.68940    0.13174    0.05170    1.000
    H13      H        0.61250    0.12660    0.03590    1.000
    C32      C        0.61370    0.16635    0.23100    1.000
    C33      C        0.33310    0.10003    0.18950    1.000
    H14      H        0.26950    0.08560    0.18200    1.000
    C34      C        0.76510    0.10692    0.07480    1.000
    C35      C        0.45630    0.05134    0.22340    1.000
    C36      C        0.91380    0.14694    0.09970    1.000
    H15      H        0.75200    0.16590    0.27400    1.000
    H16      H        0.04800    0.19200    0.09600    1.000
    Gd3      Gd       0.23139    0.51445    0.21280    1.000
    O17      O        0.21030    0.65220    0.25060    1.000
    O18      O        0.05810    0.54077    0.22710    1.000
    C37      C        0.94280    0.58770    0.21020    1.000
    C38      C        0.70720    0.64890    0.16050    1.000
    O19      O        0.03740    0.68516    0.03160    1.000
    O20      O        0.28930    0.55165    0.11350    1.000
    N7       N        0.61340    0.63139    0.13730    1.000
    O21      O        0.18230    0.71771    0.00280    1.000
    C39      C        0.03510    0.60870    0.22310    1.000
    H17      H        0.10880    0.60020    0.23740    1.000
    O22      O        0.10190    0.69558    0.22500    1.000
    O23      O        0.13550    0.56328    0.03960    1.000
    N8       N        0.68590    0.68010    0.16530    1.000
    C40      C        0.22710    0.57151    0.07470    1.000
    O24      O        0.86710    0.53469    0.23090    1.000
    C41      C        0.01880    0.64240    0.21500    1.000
    C42      C        0.33930    0.67142    0.07480    1.000
    H18      H        0.36530    0.69350    0.07330    1.000
    C43      C        0.37720    0.61422    0.09840    1.000
    H19      H        0.42880    0.59720    0.11350    1.000
    C44      C        0.53180    0.65468    0.12560    1.000
    C45      C        0.91230    0.65473    0.19280    1.000
    H20      H        0.90280    0.67770    0.18630    1.000
    N9       N        0.56990    0.68439    0.14310    1.000
    C46      C        0.14370    0.69043    0.02730    1.000
    C47      C        0.22720    0.66399    0.05190    1.000
    C48      C        0.81880    0.63392    0.17990    1.000
    C49      C        0.18940    0.63174    0.05170    1.000
    H21      H        0.11250    0.62660    0.03590    1.000
    C50      C        0.11370    0.66635    0.23100    1.000
    C51      C        0.83310    0.60003    0.18950    1.000
    H22      H        0.76950    0.58560    0.18200    1.000
    C52      C        0.26510    0.60692    0.07480    1.000
    C53      C        0.95630    0.55134    0.22340    1.000
    C54      C        0.41380    0.64694    0.09970    1.000
    H23      H        0.25200    0.66590    0.27400    1.000
    H24      H        0.54800    0.69200    0.09600    1.000
    Gd4      Gd       0.23139    0.01445    0.71280    1.000
    O25      O        0.21030    0.15220    0.75060    1.000
    O26      O        0.05810    0.04077    0.72710    1.000
    C55      C        0.94280    0.08770    0.71020    1.000
    C56      C        0.70720    0.14890    0.66050    1.000
    O27      O        0.03740    0.18516    0.53160    1.000
    O28      O        0.28930    0.05165    0.61350    1.000
    N10      N        0.61340    0.13139    0.63730    1.000
    O29      O        0.18230    0.21771    0.50280    1.000
    C57      C        0.03510    0.10870    0.72310    1.000
    H25      H        0.10880    0.10020    0.73740    1.000
    O30      O        0.10190    0.19558    0.72500    1.000
    O31      O        0.13550    0.06328    0.53960    1.000
    N11      N        0.68590    0.18010    0.66530    1.000
    C58      C        0.22710    0.07151    0.57470    1.000
    O32      O        0.86710    0.03469    0.73090    1.000
    C59      C        0.01880    0.14240    0.71500    1.000
    C60      C        0.33930    0.17142    0.57480    1.000
    H26      H        0.36530    0.19350    0.57330    1.000
    C61      C        0.37720    0.11422    0.59840    1.000
    H27      H        0.42880    0.09720    0.61350    1.000
    C62      C        0.53180    0.15468    0.62560    1.000
    C63      C        0.91230    0.15473    0.69280    1.000
    H28      H        0.90280    0.17770    0.68630    1.000
    N12      N        0.56990    0.18439    0.64310    1.000
    C64      C        0.14370    0.19043    0.52730    1.000
    C65      C        0.22720    0.16399    0.55190    1.000
    C66      C        0.81880    0.13392    0.67990    1.000
    C67      C        0.18940    0.13174    0.55170    1.000
    H29      H        0.11250    0.12660    0.53590    1.000
    C68      C        0.11370    0.16635    0.73100    1.000
    C69      C        0.83310    0.10003    0.68950    1.000
    H30      H        0.76950    0.08560    0.68200    1.000
    C70      C        0.26510    0.10692    0.57480    1.000
    C71      C        0.95630    0.05134    0.72340    1.000
    C72      C        0.41380    0.14694    0.59970    1.000
    H31      H        0.25200    0.16590    0.77400    1.000
    H32      H        0.54800    0.19200    0.59600    1.000
    Gd5      Gd       0.26861    0.48555    0.71280    1.000
    O33      O        0.28970    0.34780    0.75060    1.000
    O34      O        0.44190    0.45923    0.72710    1.000
    C73      C        0.55720    0.41230    0.71020    1.000
    C74      C        0.79280    0.35110    0.66050    1.000
    O35      O        0.46260    0.31484    0.53160    1.000
    O36      O        0.21070    0.44835    0.61350    1.000
    N13      N        0.88660    0.36861    0.63730    1.000
    O37      O        0.31770    0.28229    0.50280    1.000
    C75      C        0.46490    0.39130    0.72310    1.000
    H33      H        0.39120    0.39980    0.73740    1.000
    O38      O        0.39810    0.30442    0.72500    1.000
    O39      O        0.36450    0.43672    0.53960    1.000
    N14      N        0.81410    0.31990    0.66530    1.000
    C76      C        0.27290    0.42849    0.57470    1.000
    O40      O        0.63290    0.46531    0.73090    1.000
    C77      C        0.48120    0.35760    0.71500    1.000
    C78      C        0.16070    0.32858    0.57480    1.000
    H34      H        0.13470    0.30650    0.57330    1.000
    C79      C        0.12280    0.38578    0.59840    1.000
    H35      H        0.07120    0.40280    0.61350    1.000
    C80      C        0.96820    0.34532    0.62560    1.000
    C81      C        0.58770    0.34527    0.69280    1.000
    H36      H        0.59720    0.32230    0.68630    1.000
    N15      N        0.93010    0.31561    0.64310    1.000
    C82      C        0.35630    0.30957    0.52730    1.000
    C83      C        0.27280    0.33601    0.55190    1.000
    C84      C        0.68120    0.36608    0.67990    1.000
    C85      C        0.31060    0.36826    0.55170    1.000
    H37      H        0.38750    0.37340    0.53590    1.000
    C86      C        0.38630    0.33365    0.73100    1.000
    C87      C        0.66690    0.39997    0.68950    1.000
    H38      H        0.73050    0.41440    0.68200    1.000
    C88      C        0.23490    0.39308    0.57480    1.000
    C89      C        0.54370    0.44866    0.72340    1.000
    C90      C        0.08620    0.35306    0.59970    1.000
    H39      H        0.24800    0.33410    0.77400    1.000
    H40      H        0.95200    0.30800    0.59600    1.000
    Gd6      Gd       0.26861    0.98555    0.21280    1.000
    O41      O        0.28970    0.84780    0.25060    1.000
    O42      O        0.44190    0.95923    0.22710    1.000
    C91      C        0.55720    0.91230    0.21020    1.000
    C92      C        0.79280    0.85110    0.16050    1.000
    O43      O        0.46260    0.81484    0.03160    1.000
    O44      O        0.21070    0.94835    0.11350    1.000
    N16      N        0.88660    0.86861    0.13730    1.000
    O45      O        0.31770    0.78229    0.00280    1.000
    C93      C        0.46490    0.89130    0.22310    1.000
    H41      H        0.39120    0.89980    0.23740    1.000
    O46      O        0.39810    0.80442    0.22500    1.000
    O47      O        0.36450    0.93672    0.03960    1.000
    N17      N        0.81410    0.81990    0.16530    1.000
    C94      C        0.27290    0.92849    0.07470    1.000
    O48      O        0.63290    0.96531    0.23090    1.000
    C95      C        0.48120    0.85760    0.21500    1.000
    C96      C        0.16070    0.82858    0.07480    1.000
    H42      H        0.13470    0.80650    0.07330    1.000
    C97      C        0.12280    0.88578    0.09840    1.000
    H43      H        0.07120    0.90280    0.11350    1.000
    C98      C        0.96820    0.84532    0.12560    1.000
    C99      C        0.58770    0.84527    0.19280    1.000
    H44      H        0.59720    0.82230    0.18630    1.000
    N18      N        0.93010    0.81561    0.14310    1.000
    C100     C        0.35630    0.80957    0.02730    1.000
    C101     C        0.27280    0.83601    0.05190    1.000
    C102     C        0.68120    0.86608    0.17990    1.000
    C103     C        0.31060    0.86826    0.05170    1.000
    H45      H        0.38750    0.87340    0.03590    1.000
    C104     C        0.38630    0.83365    0.23100    1.000
    C105     C        0.66690    0.89997    0.18950    1.000
    H46      H        0.73050    0.91440    0.18200    1.000
    C106     C        0.23490    0.89308    0.07480    1.000
    C107     C        0.54370    0.94866    0.22340    1.000
    C108     C        0.08620    0.85306    0.09970    1.000
    H47      H        0.24800    0.83410    0.27400    1.000
    H48      H        0.95200    0.80800    0.09600    1.000
    Gd7      Gd       0.76861    0.48555    0.21280    1.000
    O49      O        0.78970    0.34780    0.25060    1.000
    O50      O        0.94190    0.45923    0.22710    1.000
    C109     C        0.05720    0.41230    0.21020    1.000
    C110     C        0.29280    0.35110    0.16050    1.000
    O51      O        0.96260    0.31484    0.03160    1.000
    O52      O        0.71070    0.44835    0.11350    1.000
    N19      N        0.38660    0.36861    0.13730    1.000
    O53      O        0.81770    0.28229    0.00280    1.000
    C111     C        0.96490    0.39130    0.22310    1.000
    H49      H        0.89120    0.39980    0.23740    1.000
    O54      O        0.89810    0.30442    0.22500    1.000
    O55      O        0.86450    0.43672    0.03960    1.000
    N20      N        0.31410    0.31990    0.16530    1.000
    C112     C        0.77290    0.42849    0.07470    1.000
    O56      O        0.13290    0.46531    0.23090    1.000
    C113     C        0.98120    0.35760    0.21500    1.000
    C114     C        0.66070    0.32858    0.07480    1.000
    H50      H        0.63470    0.30650    0.07330    1.000
    C115     C        0.62280    0.38578    0.09840    1.000
    H51      H        0.57120    0.40280    0.11350    1.000
    C116     C        0.46820    0.34532    0.12560    1.000
    C117     C        0.08770    0.34527    0.19280    1.000
    H52      H        0.09720    0.32230    0.18630    1.000
    N21      N        0.43010    0.31561    0.14310    1.000
    C118     C        0.85630    0.30957    0.02730    1.000
    C119     C        0.77280    0.33601    0.05190    1.000
    C120     C        0.18120    0.36608    0.17990    1.000
    C121     C        0.81060    0.36826    0.05170    1.000
    H53      H        0.88750    0.37340    0.03590    1.000
    C122     C        0.88630    0.33365    0.23100    1.000
    C123     C        0.16690    0.39997    0.18950    1.000
    H54      H        0.23050    0.41440    0.18200    1.000
    C124     C        0.73490    0.39308    0.07480    1.000
    C125     C        0.04370    0.44866    0.22340    1.000
    C126     C        0.58620    0.35306    0.09970    1.000
    H55      H        0.74800    0.33410    0.27400    1.000
    H56      H        0.45200    0.30800    0.09600    1.000
    Gd8      Gd       0.76861    0.98555    0.71280    1.000
    O57      O        0.78970    0.84780    0.75060    1.000
    O58      O        0.94190    0.95923    0.72710    1.000
    C127     C        0.05720    0.91230    0.71020    1.000
    C128     C        0.29280    0.85110    0.66050    1.000
    O59      O        0.96260    0.81484    0.53160    1.000
    O60      O        0.71070    0.94835    0.61350    1.000
    N22      N        0.38660    0.86861    0.63730    1.000
    O61      O        0.81770    0.78229    0.50280    1.000
    C129     C        0.96490    0.89130    0.72310    1.000
    H57      H        0.89120    0.89980    0.73740    1.000
    O62      O        0.89810    0.80442    0.72500    1.000
    O63      O        0.86450    0.93672    0.53960    1.000
    N23      N        0.31410    0.81990    0.66530    1.000
    C130     C        0.77290    0.92849    0.57470    1.000
    O64      O        0.13290    0.96531    0.73090    1.000
    C131     C        0.98120    0.85760    0.71500    1.000
    C132     C        0.66070    0.82858    0.57480    1.000
    H58      H        0.63470    0.80650    0.57330    1.000
    C133     C        0.62280    0.88578    0.59840    1.000
    H59      H        0.57120    0.90280    0.61350    1.000
    C134     C        0.46820    0.84532    0.62560    1.000
    C135     C        0.08770    0.84527    0.69280    1.000
    H60      H        0.09720    0.82230    0.68630    1.000
    N24      N        0.43010    0.81561    0.64310    1.000
    C136     C        0.85630    0.80957    0.52730    1.000
    C137     C        0.77280    0.83601    0.55190    1.000
    C138     C        0.18120    0.86608    0.67990    1.000
    C139     C        0.81060    0.86826    0.55170    1.000
    H61      H        0.88750    0.87340    0.53590    1.000
    C140     C        0.88630    0.83365    0.73100    1.000
    C141     C        0.16690    0.89997    0.68950    1.000
    H62      H        0.23050    0.91440    0.68200    1.000
    C142     C        0.73490    0.89308    0.57480    1.000
    C143     C        0.04370    0.94866    0.72340    1.000
    C144     C        0.58620    0.85306    0.59970    1.000
    H63      H        0.74800    0.83410    0.77400    1.000
    H64      H        0.45200    0.80800    0.59600    1.000
    Gd9      Gd       0.98139    0.73555    0.96280    1.000
    O65      O        0.96030    0.59780    0.00060    1.000
    O66      O        0.80810    0.70923    0.97710    1.000
    C145     C        0.69280    0.66230    0.96020    1.000
    C146     C        0.45720    0.60110    0.91050    1.000
    O67      O        0.78740    0.56484    0.78160    1.000
    O68      O        0.03930    0.69835    0.86350    1.000
    N25      N        0.36340    0.61861    0.88730    1.000
    O69      O        0.93230    0.53229    0.75280    1.000
    C147     C        0.78510    0.64130    0.97310    1.000
    H65      H        0.85880    0.64980    0.98740    1.000
    O70      O        0.85190    0.55442    0.97500    1.000
    O71      O        0.88550    0.68672    0.78960    1.000
    N26      N        0.43590    0.56990    0.91530    1.000
    C148     C        0.97710    0.67849    0.82470    1.000
    O72      O        0.61710    0.71531    0.98090    1.000
    C149     C        0.76880    0.60760    0.96500    1.000
    C150     C        0.08930    0.57858    0.82480    1.000
    H66      H        0.11530    0.55650    0.82330    1.000
    C151     C        0.12720    0.63578    0.84840    1.000
    H67      H        0.17880    0.65280    0.86350    1.000
    C152     C        0.28180    0.59532    0.87560    1.000
    C153     C        0.66230    0.59527    0.94280    1.000
    H68      H        0.65280    0.57230    0.93630    1.000
    N27      N        0.31990    0.56561    0.89310    1.000
    C154     C        0.89370    0.55957    0.77730    1.000
    C155     C        0.97720    0.58601    0.80190    1.000
    C156     C        0.56880    0.61608    0.92990    1.000
    C157     C        0.93940    0.61826    0.80170    1.000
    H69      H        0.86250    0.62340    0.78590    1.000
    C158     C        0.86370    0.58365    0.98100    1.000
    C159     C        0.58310    0.64997    0.93950    1.000
    H70      H        0.51950    0.66440    0.93200    1.000
    C160     C        0.01510    0.64308    0.82480    1.000
    C161     C        0.70630    0.69866    0.97340    1.000
    C162     C        0.16380    0.60306    0.84970    1.000
    H71      H        0.00200    0.58410    0.02400    1.000
    H72      H        0.29800    0.55800    0.84600    1.000
    Gd10     Gd       0.98139    0.23555    0.46280    1.000
    O73      O        0.96030    0.09780    0.50060    1.000
    O74      O        0.80810    0.20923    0.47710    1.000
    C163     C        0.69280    0.16230    0.46020    1.000
    C164     C        0.45720    0.10110    0.41050    1.000
    O75      O        0.78740    0.06484    0.28160    1.000
    O76      O        0.03930    0.19835    0.36350    1.000
    N28      N        0.36340    0.11861    0.38730    1.000
    O77      O        0.93230    0.03229    0.25280    1.000
    C165     C        0.78510    0.14130    0.47310    1.000
    H73      H        0.85880    0.14980    0.48740    1.000
    O78      O        0.85190    0.05442    0.47500    1.000
    O79      O        0.88550    0.18672    0.28960    1.000
    N29      N        0.43590    0.06990    0.41530    1.000
    C166     C        0.97710    0.17849    0.32470    1.000
    O80      O        0.61710    0.21531    0.48090    1.000
    C167     C        0.76880    0.10760    0.46500    1.000
    C168     C        0.08930    0.07858    0.32480    1.000
    H74      H        0.11530    0.05650    0.32330    1.000
    C169     C        0.12720    0.13578    0.34840    1.000
    H75      H        0.17880    0.15280    0.36350    1.000
    C170     C        0.28180    0.09532    0.37560    1.000
    C171     C        0.66230    0.09527    0.44280    1.000
    H76      H        0.65280    0.07230    0.43630    1.000
    N30      N        0.31990    0.06561    0.39310    1.000
    C172     C        0.89370    0.05957    0.27730    1.000
    C173     C        0.97720    0.08601    0.30190    1.000
    C174     C        0.56880    0.11608    0.42990    1.000
    C175     C        0.93940    0.11826    0.30170    1.000
    H77      H        0.86250    0.12340    0.28590    1.000
    C176     C        0.86370    0.08365    0.48100    1.000
    C177     C        0.58310    0.14997    0.43950    1.000
    H78      H        0.51950    0.16440    0.43200    1.000
    C178     C        0.01510    0.14308    0.32480    1.000
    C179     C        0.70630    0.19866    0.47340    1.000
    C180     C        0.16380    0.10306    0.34970    1.000
    H79      H        0.00200    0.08410    0.52400    1.000
    H80      H        0.29800    0.05800    0.34600    1.000
    Gd11     Gd       0.48139    0.73555    0.46280    1.000
    O81      O        0.46030    0.59780    0.50060    1.000
    O82      O        0.30810    0.70923    0.47710    1.000
    C181     C        0.19280    0.66230    0.46020    1.000
    C182     C        0.95720    0.60110    0.41050    1.000
    O83      O        0.28740    0.56484    0.28160    1.000
    O84      O        0.53930    0.69835    0.36350    1.000
    N31      N        0.86340    0.61861    0.38730    1.000
    O85      O        0.43230    0.53229    0.25280    1.000
    C183     C        0.28510    0.64130    0.47310    1.000
    H81      H        0.35880    0.64980    0.48740    1.000
    O86      O        0.35190    0.55442    0.47500    1.000
    O87      O        0.38550    0.68672    0.28960    1.000
    N32      N        0.93590    0.56990    0.41530    1.000
    C184     C        0.47710    0.67849    0.32470    1.000
    O88      O        0.11710    0.71531    0.48090    1.000
    C185     C        0.26880    0.60760    0.46500    1.000
    C186     C        0.58930    0.57858    0.32480    1.000
    H82      H        0.61530    0.55650    0.32330    1.000
    C187     C        0.62720    0.63578    0.34840    1.000
    H83      H        0.67880    0.65280    0.36350    1.000
    C188     C        0.78180    0.59532    0.37560    1.000
    C189     C        0.16230    0.59527    0.44280    1.000
    H84      H        0.15280    0.57230    0.43630    1.000
    N33      N        0.81990    0.56561    0.39310    1.000
    C190     C        0.39370    0.55957    0.27730    1.000
    C191     C        0.47720    0.58601    0.30190    1.000
    C192     C        0.06880    0.61608    0.42990    1.000
    C193     C        0.43940    0.61826    0.30170    1.000
    H85      H        0.36250    0.62340    0.28590    1.000
    C194     C        0.36370    0.58365    0.48100    1.000
    C195     C        0.08310    0.64997    0.43950    1.000
    H86      H        0.01950    0.66440    0.43200    1.000
    C196     C        0.51510    0.64308    0.32480    1.000
    C197     C        0.20630    0.69866    0.47340    1.000
    C198     C        0.66380    0.60306    0.34970    1.000
    H87      H        0.50200    0.58410    0.52400    1.000
    H88      H        0.79800    0.55800    0.34600    1.000
    Gd12     Gd       0.48139    0.23555    0.96280    1.000
    O89      O        0.46030    0.09780    0.00060    1.000
    O90      O        0.30810    0.20923    0.97710    1.000
    C199     C        0.19280    0.16230    0.96020    1.000
    C200     C        0.95720    0.10110    0.91050    1.000
    O91      O        0.28740    0.06484    0.78160    1.000
    O92      O        0.53930    0.19835    0.86350    1.000
    N34      N        0.86340    0.11861    0.88730    1.000
    O93      O        0.43230    0.03229    0.75280    1.000
    C201     C        0.28510    0.14130    0.97310    1.000
    H89      H        0.35880    0.14980    0.98740    1.000
    O94      O        0.35190    0.05442    0.97500    1.000
    O95      O        0.38550    0.18672    0.78960    1.000
    N35      N        0.93590    0.06990    0.91530    1.000
    C202     C        0.47710    0.17849    0.82470    1.000
    O96      O        0.11710    0.21531    0.98090    1.000
    C203     C        0.26880    0.10760    0.96500    1.000
    C204     C        0.58930    0.07858    0.82480    1.000
    H90      H        0.61530    0.05650    0.82330    1.000
    C205     C        0.62720    0.13578    0.84840    1.000
    H91      H        0.67880    0.15280    0.86350    1.000
    C206     C        0.78180    0.09532    0.87560    1.000
    C207     C        0.16230    0.09527    0.94280    1.000
    H92      H        0.15280    0.07230    0.93630    1.000
    N36      N        0.81990    0.06561    0.89310    1.000
    C208     C        0.39370    0.05957    0.77730    1.000
    C209     C        0.47720    0.08601    0.80190    1.000
    C210     C        0.06880    0.11608    0.92990    1.000
    C211     C        0.43940    0.11826    0.80170    1.000
    H93      H        0.36250    0.12340    0.78590    1.000
    C212     C        0.36370    0.08365    0.98100    1.000
    C213     C        0.08310    0.14997    0.93950    1.000
    H94      H        0.01950    0.16440    0.93200    1.000
    C214     C        0.51510    0.14308    0.82480    1.000
    C215     C        0.20630    0.19866    0.97340    1.000
    C216     C        0.66380    0.10306    0.84970    1.000
    H95      H        0.50200    0.08410    0.02400    1.000
    H96      H        0.79800    0.05800    0.84600    1.000
    Gd13     Gd       0.51861    0.76445    0.96280    1.000
    O97      O        0.53970    0.90220    0.00060    1.000
    O98      O        0.69190    0.79077    0.97710    1.000
    C217     C        0.80720    0.83770    0.96020    1.000
    C218     C        0.04280    0.89890    0.91050    1.000
    O99      O        0.71260    0.93516    0.78160    1.000
    O100     O        0.46070    0.80165    0.86350    1.000
    N37      N        0.13660    0.88139    0.88730    1.000
    O101     O        0.56770    0.96771    0.75280    1.000
    C219     C        0.71490    0.85870    0.97310    1.000
    H97      H        0.64120    0.85020    0.98740    1.000
    O102     O        0.64810    0.94558    0.97500    1.000
    O103     O        0.61450    0.81328    0.78960    1.000
    N38      N        0.06410    0.93010    0.91530    1.000
    C220     C        0.52290    0.82151    0.82470    1.000
    O104     O        0.88290    0.78469    0.98090    1.000
    C221     C        0.73120    0.89240    0.96500    1.000
    C222     C        0.41070    0.92142    0.82480    1.000
    H98      H        0.38470    0.94350    0.82330    1.000
    C223     C        0.37280    0.86422    0.84840    1.000
    H99      H        0.32120    0.84720    0.86350    1.000
    C224     C        0.21820    0.90468    0.87560    1.000
    C225     C        0.83770    0.90473    0.94280    1.000
    H100     H        0.84720    0.92770    0.93630    1.000
    N39      N        0.18010    0.93439    0.89310    1.000
    C226     C        0.60630    0.94043    0.77730    1.000
    C227     C        0.52280    0.91399    0.80190    1.000
    C228     C        0.93120    0.88392    0.92990    1.000
    C229     C        0.56060    0.88174    0.80170    1.000
    H101     H        0.63750    0.87660    0.78590    1.000
    C230     C        0.63630    0.91635    0.98100    1.000
    C231     C        0.91690    0.85003    0.93950    1.000
    H102     H        0.98050    0.83560    0.93200    1.000
    C232     C        0.48490    0.85692    0.82480    1.000
    C233     C        0.79370    0.80134    0.97340    1.000
    C234     C        0.33620    0.89694    0.84970    1.000
    H103     H        0.49800    0.91590    0.02400    1.000
    H104     H        0.20200    0.94200    0.84600    1.000
    Gd14     Gd       0.51861    0.26445    0.46280    1.000
    O105     O        0.53970    0.40220    0.50060    1.000
    O106     O        0.69190    0.29077    0.47710    1.000
    C235     C        0.80720    0.33770    0.46020    1.000
    C236     C        0.04280    0.39890    0.41050    1.000
    O107     O        0.71260    0.43516    0.28160    1.000
    O108     O        0.46070    0.30165    0.36350    1.000
    N40      N        0.13660    0.38139    0.38730    1.000
    O109     O        0.56770    0.46771    0.25280    1.000
    C237     C        0.71490    0.35870    0.47310    1.000
    H105     H        0.64120    0.35020    0.48740    1.000
    O110     O        0.64810    0.44558    0.47500    1.000
    O111     O        0.61450    0.31328    0.28960    1.000
    N41      N        0.06410    0.43010    0.41530    1.000
    C238     C        0.52290    0.32151    0.32470    1.000
    O112     O        0.88290    0.28469    0.48090    1.000
    C239     C        0.73120    0.39240    0.46500    1.000
    C240     C        0.41070    0.42142    0.32480    1.000
    H106     H        0.38470    0.44350    0.32330    1.000
    C241     C        0.37280    0.36422    0.34840    1.000
    H107     H        0.32120    0.34720    0.36350    1.000
    C242     C        0.21820    0.40468    0.37560    1.000
    C243     C        0.83770    0.40473    0.44280    1.000
    H108     H        0.84720    0.42770    0.43630    1.000
    N42      N        0.18010    0.43439    0.39310    1.000
    C244     C        0.60630    0.44043    0.27730    1.000
    C245     C        0.52280    0.41399    0.30190    1.000
    C246     C        0.93120    0.38392    0.42990    1.000
    C247     C        0.56060    0.38174    0.30170    1.000
    H109     H        0.63750    0.37660    0.28590    1.000
    C248     C        0.63630    0.41635    0.48100    1.000
    C249     C        0.91690    0.35003    0.43950    1.000
    H110     H        0.98050    0.33560    0.43200    1.000
    C250     C        0.48490    0.35692    0.32480    1.000
    C251     C        0.79370    0.30134    0.47340    1.000
    C252     C        0.33620    0.39694    0.34970    1.000
    H111     H        0.49800    0.41590    0.52400    1.000
    H112     H        0.20200    0.44200    0.34600    1.000
    Gd15     Gd       0.01861    0.76445    0.46280    1.000
    O113     O        0.03970    0.90220    0.50060    1.000
    O114     O        0.19190    0.79077    0.47710    1.000
    C253     C        0.30720    0.83770    0.46020    1.000
    C254     C        0.54280    0.89890    0.41050    1.000
    O115     O        0.21260    0.93516    0.28160    1.000
    O116     O        0.96070    0.80165    0.36350    1.000
    N43      N        0.63660    0.88139    0.38730    1.000
    O117     O        0.06770    0.96771    0.25280    1.000
    C255     C        0.21490    0.85870    0.47310    1.000
    H113     H        0.14120    0.85020    0.48740    1.000
    O118     O        0.14810    0.94558    0.47500    1.000
    O119     O        0.11450    0.81328    0.28960    1.000
    N44      N        0.56410    0.93010    0.41530    1.000
    C256     C        0.02290    0.82151    0.32470    1.000
    O120     O        0.38290    0.78469    0.48090    1.000
    C257     C        0.23120    0.89240    0.46500    1.000
    C258     C        0.91070    0.92142    0.32480    1.000
    H114     H        0.88470    0.94350    0.32330    1.000
    C259     C        0.87280    0.86422    0.34840    1.000
    H115     H        0.82120    0.84720    0.36350    1.000
    C260     C        0.71820    0.90468    0.37560    1.000
    C261     C        0.33770    0.90473    0.44280    1.000
    H116     H        0.34720    0.92770    0.43630    1.000
    N45      N        0.68010    0.93439    0.39310    1.000
    C262     C        0.10630    0.94043    0.27730    1.000
    C263     C        0.02280    0.91399    0.30190    1.000
    C264     C        0.43120    0.88392    0.42990    1.000
    C265     C        0.06060    0.88174    0.30170    1.000
    H117     H        0.13750    0.87660    0.28590    1.000
    C266     C        0.13630    0.91635    0.48100    1.000
    C267     C        0.41690    0.85003    0.43950    1.000
    H118     H        0.48050    0.83560    0.43200    1.000
    C268     C        0.98490    0.85692    0.32480    1.000
    C269     C        0.29370    0.80134    0.47340    1.000
    C270     C        0.83620    0.89694    0.34970    1.000
    H119     H        0.99800    0.91590    0.52400    1.000
    H120     H        0.70200    0.94200    0.34600    1.000
    Gd16     Gd       0.01861    0.26445    0.96280    1.000
    O121     O        0.03970    0.40220    0.00060    1.000
    O122     O        0.19190    0.29077    0.97710    1.000
    C271     C        0.30720    0.33770    0.96020    1.000
    C272     C        0.54280    0.39890    0.91050    1.000
    O123     O        0.21260    0.43516    0.78160    1.000
    O124     O        0.96070    0.30165    0.86350    1.000
    N46      N        0.63660    0.38139    0.88730    1.000
    O125     O        0.06770    0.46771    0.75280    1.000
    C273     C        0.21490    0.35870    0.97310    1.000
    H121     H        0.14120    0.35020    0.98740    1.000
    O126     O        0.14810    0.44558    0.97500    1.000
    O127     O        0.11450    0.31328    0.78960    1.000
    N47      N        0.56410    0.43010    0.91530    1.000
    C274     C        0.02290    0.32151    0.82470    1.000
    O128     O        0.38290    0.28469    0.98090    1.000
    C275     C        0.23120    0.39240    0.96500    1.000
    C276     C        0.91070    0.42142    0.82480    1.000
    H122     H        0.88470    0.44350    0.82330    1.000
    C277     C        0.87280    0.36422    0.84840    1.000
    H123     H        0.82120    0.34720    0.86350    1.000
    C278     C        0.71820    0.40468    0.87560    1.000
    C279     C        0.33770    0.40473    0.94280    1.000
    H124     H        0.34720    0.42770    0.93630    1.000
    N48      N        0.68010    0.43439    0.89310    1.000
    C280     C        0.10630    0.44043    0.77730    1.000
    C281     C        0.02280    0.41399    0.80190    1.000
    C282     C        0.43120    0.38392    0.92990    1.000
    C283     C        0.06060    0.38174    0.80170    1.000
    H125     H        0.13750    0.37660    0.78590    1.000
    C284     C        0.13630    0.41635    0.98100    1.000
    C285     C        0.41690    0.35003    0.93950    1.000
    H126     H        0.48050    0.33560    0.93200    1.000
    C286     C        0.98490    0.35692    0.82480    1.000
    C287     C        0.29370    0.30134    0.97340    1.000
    C288     C        0.83620    0.39694    0.84970    1.000
    H127     H        0.99800    0.41590    0.02400    1.000
    H128     H        0.70200    0.44200    0.84600    1.000
