# CIF file generated by openbabel 3.1.0, see https://openbabel.org
data_I
_chemical_name_common 'image0'
_cell_length_a 17.224
_cell_length_b 6.63
_cell_length_c 23.181
_cell_angle_alpha 90
_cell_angle_beta 94.53
_cell_angle_gamma 90
_space_group_name_H-M_alt 'P 1'
_space_group_name_Hall 'P 1'
loop_
    _symmetry_equiv_pos_as_xyz
    x,y,z
loop_
    _atom_site_label
    _atom_site_type_symbol
    _atom_site_fract_x
    _atom_site_fract_y
    _atom_site_fract_z
    _atom_site_occupancy
    Zr1      Zr       0.35917    0.99850    0.29975    1.000
    Zr2      Zr       0.22013    0.49450    0.42539    1.000
    P1       P        0.30802    0.49860    0.29312    1.000
    P2       P        0.26907    0.99730    0.43044    1.000
    P3       P        0.44220    0.07250    0.16599    1.000
    F1       F        0.33030    0.48540    0.45850    1.000
    O1       O        0.36250    0.68240    0.29320    1.000
    O2       O        0.25310    0.49540    0.23730    1.000
    O3       O        0.25990    0.50980    0.34520    1.000
    O4       O        0.35910    0.30940    0.29650    1.000
    O5       O        0.31620    0.00960    0.48980    1.000
    O6       O        0.21850    0.80890    0.42800    1.000
    O7       O        0.32600    0.99140    0.38290    1.000
    O8       O        0.21560    0.18140    0.42230    1.000
    O9       O        0.40750    0.99780    0.22020    1.000
    O10      O        0.39520    0.00500    0.11070    1.000
    O11      O        0.52600    0.99880    0.16410    1.000
    O12      O        0.44010    0.30800    0.16380    1.000
    H1       H        0.45520    0.38600    0.19460    1.000
    Zr3      Zr       0.85917    0.49850    0.29975    1.000
    Zr4      Zr       0.72013    0.99450    0.42539    1.000
    P4       P        0.80802    0.99860    0.29312    1.000
    P5       P        0.76907    0.49730    0.43044    1.000
    P6       P        0.94220    0.57250    0.16599    1.000
    F2       F        0.83030    0.98540    0.45850    1.000
    O13      O        0.86250    0.18240    0.29320    1.000
    O14      O        0.75310    0.99540    0.23730    1.000
    O15      O        0.75990    0.00980    0.34520    1.000
    O16      O        0.85910    0.80940    0.29650    1.000
    O17      O        0.81620    0.50960    0.48980    1.000
    O18      O        0.71850    0.30890    0.42800    1.000
    O19      O        0.82600    0.49140    0.38290    1.000
    O20      O        0.71560    0.68140    0.42230    1.000
    O21      O        0.90750    0.49780    0.22020    1.000
    O22      O        0.89520    0.50500    0.11070    1.000
    O23      O        0.02600    0.49880    0.16410    1.000
    O24      O        0.94010    0.80800    0.16380    1.000
    H2       H        0.95520    0.88600    0.19460    1.000
    Zr5      Zr       0.64083    0.99850    0.20025    1.000
    Zr6      Zr       0.77987    0.49450    0.07461    1.000
    P7       P        0.69198    0.49860    0.20688    1.000
    P8       P        0.73093    0.99730    0.06956    1.000
    P9       P        0.55780    0.07250    0.33401    1.000
    F3       F        0.66970    0.48540    0.04150    1.000
    O25      O        0.63750    0.68240    0.20680    1.000
    O26      O        0.74690    0.49540    0.26270    1.000
    O27      O        0.74010    0.50980    0.15480    1.000
    O28      O        0.64090    0.30940    0.20350    1.000
    O29      O        0.68380    0.00960    0.01020    1.000
    O30      O        0.78150    0.80890    0.07200    1.000
    O31      O        0.67400    0.99140    0.11710    1.000
    O32      O        0.78440    0.18140    0.07770    1.000
    O33      O        0.59250    0.99780    0.27980    1.000
    O34      O        0.60480    0.00500    0.38930    1.000
    O35      O        0.47400    0.99880    0.33590    1.000
    O36      O        0.55990    0.30800    0.33620    1.000
    H3       H        0.54480    0.38600    0.30540    1.000
    Zr7      Zr       0.14083    0.49850    0.20025    1.000
    Zr8      Zr       0.27987    0.99450    0.07461    1.000
    P10      P        0.19198    0.99860    0.20688    1.000
    P11      P        0.23093    0.49730    0.06956    1.000
    P12      P        0.05780    0.57250    0.33401    1.000
    F4       F        0.16970    0.98540    0.04150    1.000
    O37      O        0.13750    0.18240    0.20680    1.000
    O38      O        0.24690    0.99540    0.26270    1.000
    O39      O        0.24010    0.00980    0.15480    1.000
    O40      O        0.14090    0.80940    0.20350    1.000
    O41      O        0.18380    0.50960    0.01020    1.000
    O42      O        0.28150    0.30890    0.07200    1.000
    O43      O        0.17400    0.49140    0.11710    1.000
    O44      O        0.28440    0.68140    0.07770    1.000
    O45      O        0.09250    0.49780    0.27980    1.000
    O46      O        0.10480    0.50500    0.38930    1.000
    O47      O        0.97400    0.49880    0.33590    1.000
    O48      O        0.05990    0.80800    0.33620    1.000
    H4       H        0.04480    0.88600    0.30540    1.000
    Zr9      Zr       0.64083    0.00150    0.70025    1.000
    Zr10     Zr       0.77987    0.50550    0.57461    1.000
    P13      P        0.69198    0.50140    0.70688    1.000
    P14      P        0.73093    0.00270    0.56956    1.000
    P15      P        0.55780    0.92750    0.83401    1.000
    F5       F        0.66970    0.51460    0.54150    1.000
    O49      O        0.63750    0.31760    0.70680    1.000
    O50      O        0.74690    0.50460    0.76270    1.000
    O51      O        0.74010    0.49020    0.65480    1.000
    O52      O        0.64090    0.69060    0.70350    1.000
    O53      O        0.68380    0.99040    0.51020    1.000
    O54      O        0.78150    0.19110    0.57200    1.000
    O55      O        0.67400    0.00860    0.61710    1.000
    O56      O        0.78440    0.81860    0.57770    1.000
    O57      O        0.59250    0.00220    0.77980    1.000
    O58      O        0.60480    0.99500    0.88930    1.000
    O59      O        0.47400    0.00120    0.83590    1.000
    O60      O        0.55990    0.69200    0.83620    1.000
    H5       H        0.54480    0.61400    0.80540    1.000
    Zr11     Zr       0.14083    0.50150    0.70025    1.000
    Zr12     Zr       0.27987    0.00550    0.57461    1.000
    P16      P        0.19198    0.00140    0.70688    1.000
    P17      P        0.23093    0.50270    0.56956    1.000
    P18      P        0.05780    0.42750    0.83401    1.000
    F6       F        0.16970    0.01460    0.54150    1.000
    O61      O        0.13750    0.81760    0.70680    1.000
    O62      O        0.24690    0.00460    0.76270    1.000
    O63      O        0.24010    0.99020    0.65480    1.000
    O64      O        0.14090    0.19060    0.70350    1.000
    O65      O        0.18380    0.49040    0.51020    1.000
    O66      O        0.28150    0.69110    0.57200    1.000
    O67      O        0.17400    0.50860    0.61710    1.000
    O68      O        0.28440    0.31860    0.57770    1.000
    O69      O        0.09250    0.50220    0.77980    1.000
    O70      O        0.10480    0.49500    0.88930    1.000
    O71      O        0.97400    0.50120    0.83590    1.000
    O72      O        0.05990    0.19200    0.83620    1.000
    H6       H        0.04480    0.11400    0.80540    1.000
    Zr13     Zr       0.35917    0.00150    0.79975    1.000
    Zr14     Zr       0.22013    0.50550    0.92539    1.000
    P19      P        0.30802    0.50140    0.79312    1.000
    P20      P        0.26907    0.00270    0.93044    1.000
    P21      P        0.44220    0.92750    0.66599    1.000
    F7       F        0.33030    0.51460    0.95850    1.000
    O73      O        0.36250    0.31760    0.79320    1.000
    O74      O        0.25310    0.50460    0.73730    1.000
    O75      O        0.25990    0.49020    0.84520    1.000
    O76      O        0.35910    0.69060    0.79650    1.000
    O77      O        0.31620    0.99040    0.98980    1.000
    O78      O        0.21850    0.19110    0.92800    1.000
    O79      O        0.32600    0.00860    0.88290    1.000
    O80      O        0.21560    0.81860    0.92230    1.000
    O81      O        0.40750    0.00220    0.72020    1.000
    O82      O        0.39520    0.99500    0.61070    1.000
    O83      O        0.52600    0.00120    0.66410    1.000
    O84      O        0.44010    0.69200    0.66380    1.000
    H7       H        0.45520    0.61400    0.69460    1.000
    Zr15     Zr       0.85917    0.50150    0.79975    1.000
    Zr16     Zr       0.72013    0.00550    0.92539    1.000
    P22      P        0.80802    0.00140    0.79312    1.000
    P23      P        0.76907    0.50270    0.93044    1.000
    P24      P        0.94220    0.42750    0.66599    1.000
    F8       F        0.83030    0.01460    0.95850    1.000
    O85      O        0.86250    0.81760    0.79320    1.000
    O86      O        0.75310    0.00460    0.73730    1.000
    O87      O        0.75990    0.99020    0.84520    1.000
    O88      O        0.85910    0.19060    0.79650    1.000
    O89      O        0.81620    0.49040    0.98980    1.000
    O90      O        0.71850    0.69110    0.92800    1.000
    O91      O        0.82600    0.50860    0.88290    1.000
    O92      O        0.71560    0.31860    0.92230    1.000
    O93      O        0.90750    0.50220    0.72020    1.000
    O94      O        0.89520    0.49500    0.61070    1.000
    O95      O        0.02600    0.50120    0.66410    1.000
    O96      O        0.94010    0.19200    0.66380    1.000
    H8       H        0.95520    0.11400    0.69460    1.000
