data_functionalizedCrystal
_audit_creation_method	'EQeq! by Chris Wilmer'
_symmetry_space_group_name_H-M	'P1'
_symmetry_Int_Tables_number	1
_symmetry_cell_setting	triclinic
loop_
_symmetry_equiv_pos_as_xyz
  x,y,z
_cell_length_a	8.6688
_cell_length_b	9.0355
_cell_length_c	16.1828
_cell_angle_alpha	82.6179
_cell_angle_beta	74.4641
_cell_angle_gamma	61.3337
loop_
_atom_site_label
_atom_site_type_symbol
_atom_site_fract_x
_atom_site_fract_y
_atom_site_fract_z
_atom_site_charge
Mof_In	In	0.44079	0.02717	0.62953	2.669
Mof_In	In	0.09749	0.97283	0.37047	2.608
Mof_In	In	0.32032	0.52717	0.87047	2.697
Mof_In	In	0.71796	0.47283	0.12953	2.722
Mof_C 	C 	0.32632	0.8766	0.50876	0.232
Mof_C 	C 	0.27642	0.8476	0.76636	0.272
Mof_C 	C 	0.23999	0.0662	0.49742	0.314
Mof_C 	C 	0.47945	0.7256	0.7485	0.293
Mof_C 	C 	0.71168	0.1234	0.49124	0.218
Mof_C 	C 	0.89038	0.1524	0.23364	0.26
Mof_C 	C 	0.80361	0.9338	0.50258	0.333
Mof_C 	C 	0.95355	0.2744	0.2515	0.341
Mof_C 	C 	0.08508	0.3766	0.99124	0.19
Mof_C 	C 	0.29278	0.3476	0.73364	0.272
Mof_C 	C 	0.98741	0.5662	0.00258	0.393
Mof_C 	C 	0.47795	0.2256	0.7515	0.293
Mof_C 	C 	0.45292	0.6234	0.00876	0.208
Mof_C 	C 	0.37402	0.6524	0.26636	0.274
Mof_C 	C 	0.55619	0.4338	0.99742	0.341
Mof_C 	C 	0.45505	0.7744	0.2485	0.29
Mof_O 	O 	0.17321	0.79782	0.81676	-0.448
Mof_O 	O 	0.14752	0.12894	0.44202	-0.538
Mof_O 	O 	0.29662	0.7968	0.46256	-0.423
Mof_O 	O 	0.52708	0.58248	0.78336	-0.538
Mof_O 	O 	0.22889	0.99032	0.7303	-0.512
Mof_O 	O 	0.58246	0.77604	0.70084	-0.438
Mof_O 	O 	0.25863	0.15304	0.5449	-0.555
Mof_O 	O 	0.42107	0.8186	0.56306	-0.452
Mof_O 	O 	0.78779	0.20218	0.18324	-0.437
Mof_O 	O 	0.71848	0.87106	0.55798	-0.528
Mof_O 	O 	0.55598	0.2032	0.53744	-0.42
Mof_O 	O 	0.89292	0.41752	0.21664	-0.546
Mof_O 	O 	0.94951	0.00968	0.2697	-0.487
Mof_O 	O 	0.05934	0.22396	0.29916	-0.48
Mof_O 	O 	0.95657	0.84696	0.4551	-0.517
Mof_O 	O 	0.80273	0.1814	0.43694	-0.436
Mof_O 	O 	0.23997	0.29782	0.68324	-0.449
Mof_O 	O 	0.83954	0.62894	0.05798	-0.551
Mof_O 	O 	0.00918	0.2968	0.03744	-0.441
Mof_O 	O 	0.56044	0.08248	0.71664	-0.539
Mof_O 	O 	0.20919	0.49032	0.7697	-0.522
Mof_O 	O 	0.5333	0.27604	0.79916	-0.445
Mof_O 	O 	0.05353	0.65304	0.9551	-0.595
Mof_O 	O 	0.23413	0.3186	0.93694	-0.45
Mof_O 	O 	0.22103	0.70218	0.31676	-0.447
Mof_O 	O 	0.52646	0.37106	0.94202	-0.541
Mof_O 	O 	0.34342	0.7032	0.96256	-0.415
Mof_O 	O 	0.35956	0.91752	0.28336	-0.53
Mof_O 	O 	0.46921	0.50968	0.2303	-0.52
Mof_O 	O 	0.6085	0.72396	0.20084	-0.445
Mof_O 	O 	0.66167	0.34696	0.0449	-0.56
Mof_O 	O 	0.48967	0.6814	0.06306	-0.455
Mof_H 	H 	0.7667	0.5104	0.4274	0.067
Mof_H 	H 	0.7653	0.6624	0.465	0.077
Mof_H 	H 	0.7045	0.4896	0.5726	0.084
Mof_H 	H 	0.8927	0.3376	0.535	0.103
Mof_C 	C 	0.8305	0.541	0.4572	0.01
Mof_C 	C 	0.8287	0.459	0.5428	-0.059
Mof_N 	N 	0.01665	0.4942	0.4023	-0.054
Mof_N 	N 	0.91315	0.5058	0.5977	-0.01
Mof_H 	H 	0.4441	0.0104	0.0726	0.083
Mof_H 	H 	0.4803	0.1624	0.035	0.092
Mof_H 	H 	0.5271	0.9896	0.9274	0.07
Mof_H 	H 	0.6777	0.8376	0.965	0.083
Mof_C 	C 	0.5377	0.041	0.0428	-0.074
Mof_C 	C 	0.6215	0.959	0.9572	0.009
Mof_N 	N 	0.66895	0.9942	0.0977	-0.014
Mof_N 	N 	0.76085	0.0058	0.9023	-0.027
_end
