# CIF file generated by openbabel 3.1.0, see https://openbabel.org
data_I
_chemical_name_common 'image0'
_cell_length_a 14.6261
_cell_length_b 23.2526
_cell_length_c 15.7357
_cell_angle_alpha 90
_cell_angle_beta 107.099
_cell_angle_gamma 90
_space_group_name_H-M_alt 'P 1'
_space_group_name_Hall 'P 1'
loop_
    _symmetry_equiv_pos_as_xyz
    x,y,z
loop_
    _atom_site_label
    _atom_site_type_symbol
    _atom_site_fract_x
    _atom_site_fract_y
    _atom_site_fract_z
    _atom_site_occupancy
    Cd1      Cd       0.25727    0.30073    0.69677    1.000
    Cd2      Cd       0.23509    0.43774    0.58374    1.000
    C1       C        0.84090    0.29310    0.66070    1.000
    C2       C        0.92950    0.29960    0.72130    1.000
    H1       H        0.94070    0.28580    0.77890    1.000
    C3       C        0.00250    0.32680    0.69670    1.000
    H2       H        0.06250    0.33100    0.73800    1.000
    C4       C        0.98670    0.34770    0.61170    1.000
    C5       C        0.89630    0.34100    0.55130    1.000
    H3       H        0.88460    0.35520    0.49390    1.000
    C6       C        0.82380    0.31370    0.57530    1.000
    H4       H        0.76390    0.30920    0.53410    1.000
    C7       C        0.06230    0.37810    0.58510    1.000
    C8       C        0.78200    0.21140    0.73020    1.000
    C9       C        0.85100    0.17360    0.71790    1.000
    H5       H        0.88820    0.18380    0.68150    1.000
    C10      C        0.86380    0.12040    0.76060    1.000
    H6       H        0.91220    0.09610    0.75500    1.000
    C11      C        0.80660    0.10360    0.81020    1.000
    C12      C        0.73830    0.14110    0.82270    1.000
    H7       H        0.69930    0.12980    0.85690    1.000
    C13      C        0.72750    0.19480    0.78520    1.000
    H8       H        0.68350    0.22030    0.79660    1.000
    C14      C        0.18490    0.54420    0.64950    1.000
    C15      C        0.67520    0.29130    0.66500    1.000
    C16      C        0.66740    0.34940    0.67720    1.000
    H9       H        0.72240    0.37160    0.69800    1.000
    C17      C        0.57930    0.37510    0.65890    1.000
    H10      H        0.57540    0.41450    0.66720    1.000
    C18      C        0.49540    0.34280    0.62780    1.000
    C19      C        0.50370    0.28530    0.61440    1.000
    H11      H        0.44870    0.26310    0.59380    1.000
    C20      C        0.59230    0.25930    0.63070    1.000
    H12      H        0.59630    0.22040    0.61870    1.000
    C21      C        0.39950    0.37140    0.61140    1.000
    C22      C        0.16790    0.48790    0.40080    1.000
    C23      C        0.16590    0.50440    0.30710    1.000
    C24      C        0.08690    0.53310    0.25260    1.000
    H13      H        0.03620    0.54270    0.27440    1.000
    C25      C        0.08280    0.54750    0.16750    1.000
    H14      H        0.02860    0.56580    0.13170    1.000
    C26      C        0.15820    0.53540    0.13330    1.000
    C27      C        0.23800    0.50810    0.18900    1.000
    H15      H        0.29080    0.50110    0.16910    1.000
    C28      C        0.23980    0.49140    0.27330    1.000
    H16      H        0.29210    0.47090    0.30810    1.000
    C29      C        0.18600    0.50680    0.99220    1.000
    C30      C        0.17220    0.44920    0.00340    1.000
    H17      H        0.14360    0.43730    0.04590    1.000
    C31      C        0.20040    0.40900    0.95220    1.000
    H18      H        0.19240    0.37020    0.96210    1.000
    C32      C        0.23980    0.42480    0.88730    1.000
    C33      C        0.25350    0.48220    0.87510    1.000
    H19      H        0.28080    0.49350    0.83130    1.000
    C34      C        0.22720    0.52420    0.92700    1.000
    H20      H        0.23710    0.56300    0.91820    1.000
    C35      C        0.26530    0.38000    0.82680    1.000
    C36      C        0.90880    0.09400    0.50020    1.000
    C37      C        0.97110    0.08610    0.58450    1.000
    H21      H        0.96800    0.05250    0.61570    1.000
    C38      C        0.03810    0.12770    0.62280    1.000
    H22      H        0.07910    0.12170    0.67970    1.000
    C39      C        0.04520    0.17780    0.57850    1.000
    C40      C        0.97810    0.18700    0.49590    1.000
    H23      H        0.97910    0.22130    0.46580    1.000
    C41      C        0.91080    0.14630    0.45860    1.000
    H24      H        0.86570    0.15380    0.40430    1.000
    C42      C        0.12220    0.22050    0.61600    1.000
    N1       N        0.76570    0.26510    0.68640    1.000
    N2       N        0.15450    0.54950    0.04480    1.000
    O1       O        0.04180    0.40498    0.51300    1.000
    O2       O        0.14740    0.37634    0.63690    1.000
    O3       O        0.25880    0.52550    0.63360    1.000
    O4       O        0.10870    0.51699    0.63640    1.000
    O5       O        0.39500    0.42410    0.61210    1.000
    O6       O        0.32620    0.34010    0.59620    1.000
    O7       O        0.22460    0.44970    0.44030    1.000
    O8       O        0.11140    0.51523    0.43370    1.000
    O9       O        0.31260    0.39620    0.77680    1.000
    O10      O        0.23600    0.32930    0.82960    1.000
    O11      O        0.16170    0.22100    0.69800    1.000
    O12      O        0.14800    0.25450    0.56560    1.000
    Cd3      Cd       0.74273    0.80073    0.80323    1.000
    Cd4      Cd       0.76491    0.93774    0.91626    1.000
    C43      C        0.15910    0.79310    0.83930    1.000
    C44      C        0.07050    0.79960    0.77870    1.000
    H25      H        0.05930    0.78580    0.72110    1.000
    C45      C        0.99750    0.82680    0.80330    1.000
    H26      H        0.93750    0.83100    0.76200    1.000
    C46      C        0.01330    0.84770    0.88830    1.000
    C47      C        0.10370    0.84100    0.94870    1.000
    H27      H        0.11540    0.85520    0.00610    1.000
    C48      C        0.17620    0.81370    0.92470    1.000
    H28      H        0.23610    0.80920    0.96590    1.000
    C49      C        0.93770    0.87810    0.91490    1.000
    C50      C        0.21800    0.71140    0.76980    1.000
    C51      C        0.14900    0.67360    0.78210    1.000
    H29      H        0.11180    0.68380    0.81850    1.000
    C52      C        0.13620    0.62040    0.73940    1.000
    H30      H        0.08780    0.59610    0.74500    1.000
    C53      C        0.19340    0.60360    0.68980    1.000
    C54      C        0.26170    0.64110    0.67730    1.000
    H31      H        0.30070    0.62980    0.64310    1.000
    C55      C        0.27250    0.69480    0.71480    1.000
    H32      H        0.31650    0.72030    0.70340    1.000
    C56      C        0.81510    0.04420    0.85050    1.000
    C57      C        0.32480    0.79130    0.83500    1.000
    C58      C        0.33260    0.84940    0.82280    1.000
    H33      H        0.27760    0.87160    0.80200    1.000
    C59      C        0.42070    0.87510    0.84110    1.000
    H34      H        0.42460    0.91450    0.83280    1.000
    C60      C        0.50460    0.84280    0.87220    1.000
    C61      C        0.49630    0.78530    0.88560    1.000
    H35      H        0.55130    0.76310    0.90620    1.000
    C62      C        0.40770    0.75930    0.86930    1.000
    H36      H        0.40370    0.72040    0.88130    1.000
    C63      C        0.60050    0.87140    0.88860    1.000
    C64      C        0.83210    0.98790    0.09920    1.000
    C65      C        0.83410    0.00440    0.19290    1.000
    C66      C        0.91310    0.03310    0.24740    1.000
    H37      H        0.96380    0.04270    0.22560    1.000
    C67      C        0.91720    0.04750    0.33250    1.000
    H38      H        0.97140    0.06580    0.36830    1.000
    C68      C        0.84180    0.03540    0.36670    1.000
    C69      C        0.76200    0.00810    0.31100    1.000
    H39      H        0.70920    0.00110    0.33090    1.000
    C70      C        0.76020    0.99140    0.22670    1.000
    H40      H        0.70790    0.97090    0.19190    1.000
    C71      C        0.81400    0.00680    0.50780    1.000
    C72      C        0.82780    0.94920    0.49660    1.000
    H41      H        0.85640    0.93730    0.45410    1.000
    C73      C        0.79960    0.90900    0.54780    1.000
    H42      H        0.80760    0.87020    0.53790    1.000
    C74      C        0.76020    0.92480    0.61270    1.000
    C75      C        0.74650    0.98220    0.62490    1.000
    H43      H        0.71920    0.99350    0.66870    1.000
    C76      C        0.77280    0.02420    0.57300    1.000
    H44      H        0.76290    0.06300    0.58180    1.000
    C77      C        0.73470    0.88000    0.67320    1.000
    C78      C        0.09120    0.59400    0.99980    1.000
    C79      C        0.02890    0.58610    0.91550    1.000
    H45      H        0.03200    0.55250    0.88430    1.000
    C80      C        0.96190    0.62770    0.87720    1.000
    H46      H        0.92090    0.62170    0.82030    1.000
    C81      C        0.95480    0.67780    0.92150    1.000
    C82      C        0.02190    0.68700    0.00410    1.000
    H47      H        0.02090    0.72130    0.03420    1.000
    C83      C        0.08920    0.64630    0.04140    1.000
    H48      H        0.13430    0.65380    0.09570    1.000
    C84      C        0.87780    0.72050    0.88400    1.000
    N3       N        0.23430    0.76510    0.81360    1.000
    N4       N        0.84550    0.04950    0.45520    1.000
    O13      O        0.95820    0.90498    0.98700    1.000
    O14      O        0.85260    0.87634    0.86310    1.000
    O15      O        0.74120    0.02550    0.86640    1.000
    O16      O        0.89130    0.01699    0.86360    1.000
    O17      O        0.60500    0.92410    0.88790    1.000
    O18      O        0.67380    0.84010    0.90380    1.000
    O19      O        0.77540    0.94970    0.05970    1.000
    O20      O        0.88860    0.01523    0.06630    1.000
    O21      O        0.68740    0.89620    0.72320    1.000
    O22      O        0.76400    0.82930    0.67040    1.000
    O23      O        0.83830    0.72100    0.80200    1.000
    O24      O        0.85200    0.75450    0.93440    1.000
    Cd5      Cd       0.74273    0.69927    0.30323    1.000
    Cd6      Cd       0.76491    0.56226    0.41626    1.000
    C85      C        0.15910    0.70690    0.33930    1.000
    C86      C        0.07050    0.70040    0.27870    1.000
    H49      H        0.05930    0.71420    0.22110    1.000
    C87      C        0.99750    0.67320    0.30330    1.000
    H50      H        0.93750    0.66900    0.26200    1.000
    C88      C        0.01330    0.65230    0.38830    1.000
    C89      C        0.10370    0.65900    0.44870    1.000
    H51      H        0.11540    0.64480    0.50610    1.000
    C90      C        0.17620    0.68630    0.42470    1.000
    H52      H        0.23610    0.69080    0.46590    1.000
    C91      C        0.93770    0.62190    0.41490    1.000
    C92      C        0.21800    0.78860    0.26980    1.000
    C93      C        0.14900    0.82640    0.28210    1.000
    H53      H        0.11180    0.81620    0.31850    1.000
    C94      C        0.13620    0.87960    0.23940    1.000
    H54      H        0.08780    0.90390    0.24500    1.000
    C95      C        0.19340    0.89640    0.18980    1.000
    C96      C        0.26170    0.85890    0.17730    1.000
    H55      H        0.30070    0.87020    0.14310    1.000
    C97      C        0.27250    0.80520    0.21480    1.000
    H56      H        0.31650    0.77970    0.20340    1.000
    C98      C        0.81510    0.45580    0.35050    1.000
    C99      C        0.32480    0.70870    0.33500    1.000
    C100     C        0.33260    0.65060    0.32280    1.000
    H57      H        0.27760    0.62840    0.30200    1.000
    C101     C        0.42070    0.62490    0.34110    1.000
    H58      H        0.42460    0.58550    0.33280    1.000
    C102     C        0.50460    0.65720    0.37220    1.000
    C103     C        0.49630    0.71470    0.38560    1.000
    H59      H        0.55130    0.73690    0.40620    1.000
    C104     C        0.40770    0.74070    0.36930    1.000
    H60      H        0.40370    0.77960    0.38130    1.000
    C105     C        0.60050    0.62860    0.38860    1.000
    C106     C        0.83210    0.51210    0.59920    1.000
    C107     C        0.83410    0.49560    0.69290    1.000
    C108     C        0.91310    0.46690    0.74740    1.000
    H61      H        0.96380    0.45730    0.72560    1.000
    C109     C        0.91720    0.45250    0.83250    1.000
    H62      H        0.97140    0.43420    0.86830    1.000
    C110     C        0.84180    0.46460    0.86670    1.000
    C111     C        0.76200    0.49190    0.81100    1.000
    H63      H        0.70920    0.49890    0.83090    1.000
    C112     C        0.76020    0.50860    0.72670    1.000
    H64      H        0.70790    0.52910    0.69190    1.000
    C113     C        0.81400    0.49320    0.00780    1.000
    C114     C        0.82780    0.55080    0.99660    1.000
    H65      H        0.85640    0.56270    0.95410    1.000
    C115     C        0.79960    0.59100    0.04780    1.000
    H66      H        0.80760    0.62980    0.03790    1.000
    C116     C        0.76020    0.57520    0.11270    1.000
    C117     C        0.74650    0.51780    0.12490    1.000
    H67      H        0.71920    0.50650    0.16870    1.000
    C118     C        0.77280    0.47580    0.07300    1.000
    H68      H        0.76290    0.43700    0.08180    1.000
    C119     C        0.73470    0.62000    0.17320    1.000
    C120     C        0.09120    0.90600    0.49980    1.000
    C121     C        0.02890    0.91390    0.41550    1.000
    H69      H        0.03200    0.94750    0.38430    1.000
    C122     C        0.96190    0.87230    0.37720    1.000
    H70      H        0.92090    0.87830    0.32030    1.000
    C123     C        0.95480    0.82220    0.42150    1.000
    C124     C        0.02190    0.81300    0.50410    1.000
    H71      H        0.02090    0.77870    0.53420    1.000
    C125     C        0.08920    0.85370    0.54140    1.000
    H72      H        0.13430    0.84620    0.59570    1.000
    C126     C        0.87780    0.77950    0.38400    1.000
    N5       N        0.23430    0.73490    0.31360    1.000
    N6       N        0.84550    0.45050    0.95520    1.000
    O25      O        0.95820    0.59502    0.48700    1.000
    O26      O        0.85260    0.62366    0.36310    1.000
    O27      O        0.74120    0.47450    0.36640    1.000
    O28      O        0.89130    0.48301    0.36360    1.000
    O29      O        0.60500    0.57590    0.38790    1.000
    O30      O        0.67380    0.65990    0.40380    1.000
    O31      O        0.77540    0.55030    0.55970    1.000
    O32      O        0.88860    0.48477    0.56630    1.000
    O33      O        0.68740    0.60380    0.22320    1.000
    O34      O        0.76400    0.67070    0.17040    1.000
    O35      O        0.83830    0.77900    0.30200    1.000
    O36      O        0.85200    0.74550    0.43440    1.000
    Cd7      Cd       0.25727    0.19927    0.19677    1.000
    Cd8      Cd       0.23509    0.06226    0.08374    1.000
    C127     C        0.84090    0.20690    0.16070    1.000
    C128     C        0.92950    0.20040    0.22130    1.000
    H73      H        0.94070    0.21420    0.27890    1.000
    C129     C        0.00250    0.17320    0.19670    1.000
    H74      H        0.06250    0.16900    0.23800    1.000
    C130     C        0.98670    0.15230    0.11170    1.000
    C131     C        0.89630    0.15900    0.05130    1.000
    H75      H        0.88460    0.14480    0.99390    1.000
    C132     C        0.82380    0.18630    0.07530    1.000
    H76      H        0.76390    0.19080    0.03410    1.000
    C133     C        0.06230    0.12190    0.08510    1.000
    C134     C        0.78200    0.28860    0.23020    1.000
    C135     C        0.85100    0.32640    0.21790    1.000
    H77      H        0.88820    0.31620    0.18150    1.000
    C136     C        0.86380    0.37960    0.26060    1.000
    H78      H        0.91220    0.40390    0.25500    1.000
    C137     C        0.80660    0.39640    0.31020    1.000
    C138     C        0.73830    0.35890    0.32270    1.000
    H79      H        0.69930    0.37020    0.35690    1.000
    C139     C        0.72750    0.30520    0.28520    1.000
    H80      H        0.68350    0.27970    0.29660    1.000
    C140     C        0.18490    0.95580    0.14950    1.000
    C141     C        0.67520    0.20870    0.16500    1.000
    C142     C        0.66740    0.15060    0.17720    1.000
    H81      H        0.72240    0.12840    0.19800    1.000
    C143     C        0.57930    0.12490    0.15890    1.000
    H82      H        0.57540    0.08550    0.16720    1.000
    C144     C        0.49540    0.15720    0.12780    1.000
    C145     C        0.50370    0.21470    0.11440    1.000
    H83      H        0.44870    0.23690    0.09380    1.000
    C146     C        0.59230    0.24070    0.13070    1.000
    H84      H        0.59630    0.27960    0.11870    1.000
    C147     C        0.39950    0.12860    0.11140    1.000
    C148     C        0.16790    0.01210    0.90080    1.000
    C149     C        0.16590    0.99560    0.80710    1.000
    C150     C        0.08690    0.96690    0.75260    1.000
    H85      H        0.03620    0.95730    0.77440    1.000
    C151     C        0.08280    0.95250    0.66750    1.000
    H86      H        0.02860    0.93420    0.63170    1.000
    C152     C        0.15820    0.96460    0.63330    1.000
    C153     C        0.23800    0.99190    0.68900    1.000
    H87      H        0.29080    0.99890    0.66910    1.000
    C154     C        0.23980    0.00860    0.77330    1.000
    H88      H        0.29210    0.02910    0.80810    1.000
    C155     C        0.18600    0.99320    0.49220    1.000
    C156     C        0.17220    0.05080    0.50340    1.000
    H89      H        0.14360    0.06270    0.54590    1.000
    C157     C        0.20040    0.09100    0.45220    1.000
    H90      H        0.19240    0.12980    0.46210    1.000
    C158     C        0.23980    0.07520    0.38730    1.000
    C159     C        0.25350    0.01780    0.37510    1.000
    H91      H        0.28080    0.00650    0.33130    1.000
    C160     C        0.22720    0.97580    0.42700    1.000
    H92      H        0.23710    0.93700    0.41820    1.000
    C161     C        0.26530    0.12000    0.32680    1.000
    C162     C        0.90880    0.40600    0.00020    1.000
    C163     C        0.97110    0.41390    0.08450    1.000
    H93      H        0.96800    0.44750    0.11570    1.000
    C164     C        0.03810    0.37230    0.12280    1.000
    H94      H        0.07910    0.37830    0.17970    1.000
    C165     C        0.04520    0.32220    0.07850    1.000
    C166     C        0.97810    0.31300    0.99590    1.000
    H95      H        0.97910    0.27870    0.96580    1.000
    C167     C        0.91080    0.35370    0.95860    1.000
    H96      H        0.86570    0.34620    0.90430    1.000
    C168     C        0.12220    0.27950    0.11600    1.000
    N7       N        0.76570    0.23490    0.18640    1.000
    N8       N        0.15450    0.95050    0.54480    1.000
    O37      O        0.04180    0.09502    0.01300    1.000
    O38      O        0.14740    0.12366    0.13690    1.000
    O39      O        0.25880    0.97450    0.13360    1.000
    O40      O        0.10870    0.98301    0.13640    1.000
    O41      O        0.39500    0.07590    0.11210    1.000
    O42      O        0.32620    0.15990    0.09620    1.000
    O43      O        0.22460    0.05030    0.94030    1.000
    O44      O        0.11140    0.98477    0.93370    1.000
    O45      O        0.31260    0.10380    0.27680    1.000
    O46      O        0.23600    0.17070    0.32960    1.000
    O47      O        0.16170    0.27900    0.19800    1.000
    O48      O        0.14800    0.24550    0.06560    1.000
    Cd9      Cd       0.00000    0.50000    0.50000    1.000
    Cd10     Cd       0.00000    0.00000    0.00000    1.000
