data_functionalizedCrystal
_audit_creation_method	'EQeq! by Chris Wilmer'
_symmetry_space_group_name_H-M	'P1'
_symmetry_Int_Tables_number	1
_symmetry_cell_setting	triclinic
loop_
_symmetry_equiv_pos_as_xyz
  x,y,z
_cell_length_a	10.1273
_cell_length_b	15.3853
_cell_length_c	27.6549
_cell_angle_alpha	90
_cell_angle_beta	92.722
_cell_angle_gamma	90
loop_
_atom_site_label
_atom_site_type_symbol
_atom_site_fract_x
_atom_site_fract_y
_atom_site_fract_z
_atom_site_charge
Mof_Mn	Mn	0.39829	0.18929	0.24694	0.902
Mof_Mn	Mn	0.96641	0.01192	0.2494	0.883
Mof_O 	O 	0.1672	0.95622	0.25281	-0.392
Mof_O 	O 	0.2636	0.083	0.24664	-0.435
Mof_O 	O 	0.0807	0.37437	0.24486	-0.395
Mof_O 	O 	0.2141	0.26024	0.2479	-0.413
Mof_O 	O 	0.5866	0.1318	0.24701	-0.587
Mof_O 	O 	0.7585	0.04328	0.24739	-0.545
Mof_N 	N 	0.4029	0.18915	0.33024	-0.202
Mof_N 	N 	0.379	0.3063	0.66387	-0.199
Mof_N 	N 	0.9757	0.0203	0.33075	-0.204
Mof_N 	N 	0.9662	0.99445	0.16827	-0.205
Mof_C 	C 	0.2646	0.0045	0.2509	0.503
Mof_H 	H 	0.3471	0.9778	0.253	-0.128
Mof_C 	C 	0.1882	0.3391	0.24748	0.51
Mof_H 	H 	0.2608	0.3762	0.2494	-0.141
Mof_C 	C 	0.6513	0.0723	0.24558	0.821
Mof_H 	H 	0.5943	0.0254	0.2409	-0.214
Mof_C 	C 	0.2919	0.194	0.35444	0.114
Mof_H 	H 	0.2116	0.1873	0.3371	-0.005
Mof_C 	C 	0.5146	0.1961	0.35678	0.118
Mof_H 	H 	0.5935	0.1906	0.3412	-0.012
Mof_C 	C 	0.2896	0.2085	0.40341	-0.19
Mof_H 	H 	0.2095	0.2118	0.4184	0.095
Mof_C 	C 	0.5219	0.211	0.40574	-0.199
Mof_H 	H 	0.6039	0.2162	0.4221	0.095
Mof_C 	C 	0.4087	0.2181	0.43041	0.135
Mof_C 	C 	0.4198	0.2383	0.48289	-0.094
Mof_H 	H 	0.505	0.2375	0.4969	0.06
Mof_C 	C 	0.3297	0.2564	0.51103	-0.083
Mof_H 	H 	0.2434	0.2573	0.4979	0.055
Mof_C 	C 	0.3497	0.2765	0.56352	0.126
Mof_C 	C 	0.2421	0.283	0.5918	-0.187
Mof_H 	H 	0.1571	0.2783	0.5778	0.09
Mof_C 	C 	0.4725	0.2892	0.58645	-0.183
Mof_H 	H 	0.5482	0.2879	0.5687	0.091
Mof_C 	C 	0.2604	0.2963	0.64072	0.11
Mof_H 	H 	0.1858	0.2986	0.659	-0.003
Mof_C 	C 	0.4825	0.304	0.63609	0.107
Mof_H 	H 	0.5661	0.3127	0.6507	-0.009
Mof_C 	C 	0.9456	0.0917	0.3548	0.117
Mof_H 	H 	0.9184	0.1403	0.337	-0.018
Mof_C 	C 	0.0155	0.9521	0.35755	0.115
Mof_H 	H 	0.0388	0.9016	0.3416	0.001
Mof_C 	C 	0.9522	0.0982	0.40439	-0.194
Mof_H 	H 	0.9297	0.15	0.4193	0.089
Mof_C 	C 	0.0241	0.9522	0.40703	-0.19
Mof_H 	H 	0.0508	0.9023	0.4238	0.093
Mof_C 	C 	0.9928	0.0266	0.43209	0.129
Mof_C 	C 	0.9971	0.0323	0.48532	-0.091
Mof_H 	H 	0.9956	0.0876	0.4988	0.056
Mof_C 	C 	0.9988	0.9685	0.01587	-0.093
Mof_H 	H 	0.0064	0.9121	0.0041	0.056
Mof_C 	C 	0.9853	0.9782	0.06803	0.142
Mof_C 	C 	0.0042	0.908	0.09906	-0.204
Mof_H 	H 	0.0232	0.8534	0.0867	0.094
Mof_C 	C 	0.9533	0.056	0.0894	-0.203
Mof_H 	H 	0.9377	0.105	0.0703	0.095
Mof_C 	C 	0.9948	0.9189	0.14759	0.128
Mof_H 	H 	0.0093	0.8708	0.1675	-0.004
Mof_C 	C 	0.9443	0.0614	0.13827	0.121
Mof_H 	H 	0.9218	0.1146	0.1515	-0.023
Mof_Mn	Mn	0.60171	0.68929	0.25306	0.901
Mof_Mn	Mn	0.03359	0.51192	0.2506	0.884
Mof_O 	O 	0.8328	0.45622	0.24719	-0.394
Mof_O 	O 	0.7364	0.583	0.25336	-0.436
Mof_O 	O 	0.9193	0.87437	0.25514	-0.395
Mof_O 	O 	0.7859	0.76024	0.2521	-0.414
Mof_O 	O 	0.4134	0.6318	0.25299	-0.588
Mof_O 	O 	0.2415	0.54328	0.25261	-0.545
Mof_N 	N 	0.5971	0.68915	0.16976	-0.203
Mof_N 	N 	0.621	0.8063	0.83613	-0.2
Mof_N 	N 	0.0243	0.5203	0.16925	-0.204
Mof_N 	N 	0.0338	0.49445	0.33173	-0.205
Mof_C 	C 	0.7354	0.5045	0.2491	0.504
Mof_H 	H 	0.6529	0.4778	0.247	-0.129
Mof_C 	C 	0.8118	0.8391	0.25252	0.509
Mof_H 	H 	0.7392	0.8762	0.2506	-0.141
Mof_C 	C 	0.3487	0.5723	0.25442	0.821
Mof_H 	H 	0.4057	0.5254	0.2591	-0.214
Mof_C 	C 	0.7081	0.694	0.14556	0.114
Mof_H 	H 	0.7884	0.6873	0.1629	-0.005
Mof_C 	C 	0.4854	0.6961	0.14322	0.118
Mof_H 	H 	0.4065	0.6906	0.1588	-0.012
Mof_C 	C 	0.7104	0.7085	0.09659	-0.189
Mof_H 	H 	0.7905	0.7118	0.0816	0.094
Mof_C 	C 	0.4781	0.711	0.09426	-0.198
Mof_H 	H 	0.3961	0.7162	0.0779	0.095
Mof_C 	C 	0.5913	0.7181	0.06959	0.133
Mof_C 	C 	0.5802	0.7383	0.01711	-0.091
Mof_H 	H 	0.495	0.7375	0.0031	0.059
Mof_C 	C 	0.6703	0.7564	0.98897	-0.087
Mof_H 	H 	0.7566	0.7573	0.0021	0.057
Mof_C 	C 	0.6503	0.7765	0.93648	0.127
Mof_C 	C 	0.7579	0.783	0.9082	-0.188
Mof_H 	H 	0.8429	0.7783	0.9222	0.091
Mof_C 	C 	0.5275	0.7892	0.91355	-0.184
Mof_H 	H 	0.4518	0.7879	0.9313	0.091
Mof_C 	C 	0.7396	0.7963	0.85928	0.111
Mof_H 	H 	0.8142	0.7986	0.841	-0.003
Mof_C 	C 	0.5175	0.804	0.86391	0.107
Mof_H 	H 	0.4339	0.8127	0.8493	-0.01
Mof_C 	C 	0.0544	0.5917	0.1452	0.117
Mof_H 	H 	0.0816	0.6403	0.163	-0.018
Mof_C 	C 	0.9845	0.4521	0.14245	0.115
Mof_H 	H 	0.9612	0.4016	0.1584	0.001
Mof_C 	C 	0.0478	0.5982	0.09561	-0.194
Mof_H 	H 	0.0703	0.65	0.0807	0.089
Mof_C 	C 	0.9759	0.4522	0.09297	-0.19
Mof_H 	H 	0.9492	0.4023	0.0762	0.093
Mof_C 	C 	0.0072	0.5266	0.06791	0.13
Mof_C 	C 	0.0029	0.5323	0.01468	-0.091
Mof_H 	H 	0.0044	0.5876	0.0012	0.056
Mof_C 	C 	0.0012	0.4685	0.48413	-0.093
Mof_H 	H 	0.9936	0.4121	0.4959	0.057
Mof_C 	C 	0.0147	0.4782	0.43197	0.138
Mof_C 	C 	0.9958	0.408	0.40094	-0.2
Mof_H 	H 	0.9768	0.3534	0.4133	0.093
Mof_C 	C 	0.0467	0.556	0.4106	-0.199
Mof_H 	H 	0.0623	0.605	0.4297	0.094
Mof_C 	C 	0.0052	0.4189	0.35241	0.124
Mof_H 	H 	0.9907	0.3708	0.3325	-0.002
Mof_C 	C 	0.0557	0.5614	0.36173	0.121
Mof_H 	H 	0.0782	0.6146	0.3485	-0.023
Mof_Mn	Mn	0.60171	0.81071	0.75306	0.901
Mof_Mn	Mn	0.03359	0.98808	0.7506	0.882
Mof_O 	O 	0.8328	0.04378	0.74719	-0.393
Mof_O 	O 	0.7364	0.917	0.75336	-0.436
Mof_O 	O 	0.9193	0.62563	0.75514	-0.396
Mof_O 	O 	0.7859	0.73976	0.7521	-0.414
Mof_O 	O 	0.4134	0.8682	0.75299	-0.588
Mof_O 	O 	0.2415	0.95672	0.75261	-0.546
Mof_N 	N 	0.5971	0.81085	0.66976	-0.203
Mof_N 	N 	0.621	0.6937	0.33613	-0.2
Mof_N 	N 	0.0243	0.9797	0.66925	-0.204
Mof_N 	N 	0.0338	0.00555	0.83173	-0.205
Mof_C 	C 	0.7354	0.9955	0.7491	0.503
Mof_H 	H 	0.6529	0.0222	0.747	-0.128
Mof_C 	C 	0.8118	0.6609	0.75252	0.51
Mof_H 	H 	0.7392	0.6238	0.7506	-0.141
Mof_C 	C 	0.3487	0.9277	0.75442	0.821
Mof_H 	H 	0.4057	0.9746	0.7591	-0.214
Mof_C 	C 	0.7081	0.806	0.64556	0.114
Mof_H 	H 	0.7884	0.8127	0.6629	-0.005
Mof_C 	C 	0.4854	0.8039	0.64322	0.118
Mof_H 	H 	0.4065	0.8094	0.6588	-0.012
Mof_C 	C 	0.7104	0.7915	0.59659	-0.19
Mof_H 	H 	0.7905	0.7882	0.5816	0.095
Mof_C 	C 	0.4781	0.789	0.59426	-0.199
Mof_H 	H 	0.3961	0.7838	0.5779	0.095
Mof_C 	C 	0.5913	0.7819	0.56959	0.135
Mof_C 	C 	0.5802	0.7617	0.51711	-0.094
Mof_H 	H 	0.495	0.7625	0.5031	0.06
Mof_C 	C 	0.6703	0.7436	0.48897	-0.083
Mof_H 	H 	0.7566	0.7427	0.5021	0.055
Mof_C 	C 	0.6503	0.7235	0.43648	0.126
Mof_C 	C 	0.7579	0.717	0.4082	-0.187
Mof_H 	H 	0.8429	0.7217	0.4222	0.09
Mof_C 	C 	0.5275	0.7108	0.41355	-0.183
Mof_H 	H 	0.4518	0.7121	0.4313	0.091
Mof_C 	C 	0.7396	0.7037	0.35928	0.11
Mof_H 	H 	0.8142	0.7014	0.341	-0.003
Mof_C 	C 	0.5175	0.696	0.36391	0.107
Mof_H 	H 	0.4339	0.6873	0.3493	-0.009
Mof_C 	C 	0.0544	0.9083	0.6452	0.117
Mof_H 	H 	0.0816	0.8597	0.663	-0.018
Mof_C 	C 	0.9845	0.0479	0.64245	0.115
Mof_H 	H 	0.9612	0.0984	0.6584	0.001
Mof_C 	C 	0.0478	0.9018	0.59561	-0.194
Mof_H 	H 	0.0703	0.85	0.5807	0.089
Mof_C 	C 	0.9759	0.0478	0.59297	-0.19
Mof_H 	H 	0.9492	0.0977	0.5762	0.093
Mof_C 	C 	0.0072	0.9734	0.56791	0.129
Mof_C 	C 	0.0029	0.9677	0.51468	-0.091
Mof_H 	H 	0.0044	0.9124	0.5012	0.056
Mof_C 	C 	0.0012	0.0315	0.98413	-0.093
Mof_H 	H 	0.9936	0.0879	0.9959	0.056
Mof_C 	C 	0.0147	0.0218	0.93197	0.142
Mof_C 	C 	0.9958	0.092	0.90094	-0.204
Mof_H 	H 	0.9768	0.1466	0.9133	0.094
Mof_C 	C 	0.0467	0.944	0.9106	-0.203
Mof_H 	H 	0.0623	0.895	0.9297	0.095
Mof_C 	C 	0.0052	0.0811	0.85241	0.128
Mof_H 	H 	0.9907	0.1292	0.8325	-0.004
Mof_C 	C 	0.0557	0.9386	0.86173	0.121
Mof_H 	H 	0.0782	0.8854	0.8485	-0.023
Mof_Mn	Mn	0.39829	0.31071	0.74694	0.901
Mof_Mn	Mn	0.96641	0.48808	0.74941	0.884
Mof_O 	O 	0.1672	0.54378	0.75281	-0.394
Mof_O 	O 	0.2636	0.417	0.74664	-0.436
Mof_O 	O 	0.0807	0.12563	0.74486	-0.395
Mof_O 	O 	0.2141	0.23976	0.7479	-0.414
Mof_O 	O 	0.5866	0.3682	0.74701	-0.588
Mof_O 	O 	0.7585	0.45672	0.74739	-0.545
Mof_N 	N 	0.4029	0.31085	0.83024	-0.203
Mof_N 	N 	0.379	0.1937	0.16387	-0.2
Mof_N 	N 	0.9757	0.4797	0.83075	-0.204
Mof_N 	N 	0.9662	0.50555	0.66827	-0.205
Mof_C 	C 	0.2646	0.4955	0.7509	0.504
Mof_H 	H 	0.3471	0.5222	0.753	-0.129
Mof_C 	C 	0.1882	0.1609	0.74748	0.509
Mof_H 	H 	0.2608	0.1238	0.7494	-0.141
Mof_C 	C 	0.6513	0.4277	0.74558	0.821
Mof_H 	H 	0.5943	0.4746	0.7409	-0.214
Mof_C 	C 	0.2919	0.306	0.85444	0.114
Mof_H 	H 	0.2116	0.3127	0.8371	-0.005
Mof_C 	C 	0.5146	0.3039	0.85678	0.118
Mof_H 	H 	0.5935	0.3094	0.8412	-0.012
Mof_C 	C 	0.2896	0.2915	0.90341	-0.189
Mof_H 	H 	0.2095	0.2882	0.9184	0.094
Mof_C 	C 	0.5219	0.289	0.90574	-0.198
Mof_H 	H 	0.6039	0.2838	0.9221	0.095
Mof_C 	C 	0.4087	0.2819	0.93041	0.133
Mof_C 	C 	0.4198	0.2617	0.98289	-0.091
Mof_H 	H 	0.505	0.2625	0.9969	0.059
Mof_C 	C 	0.3297	0.2436	0.01103	-0.087
Mof_H 	H 	0.2434	0.2427	0.9979	0.057
Mof_C 	C 	0.3497	0.2235	0.06352	0.127
Mof_C 	C 	0.2421	0.217	0.0918	-0.188
Mof_H 	H 	0.1571	0.2217	0.0778	0.091
Mof_C 	C 	0.4725	0.2108	0.08645	-0.184
Mof_H 	H 	0.5482	0.2121	0.0687	0.091
Mof_C 	C 	0.2604	0.2037	0.14072	0.111
Mof_H 	H 	0.1858	0.2014	0.159	-0.003
Mof_C 	C 	0.4825	0.196	0.13609	0.107
Mof_H 	H 	0.5661	0.1873	0.1507	-0.01
Mof_C 	C 	0.9456	0.4083	0.8548	0.117
Mof_H 	H 	0.9184	0.3597	0.837	-0.018
Mof_C 	C 	0.0155	0.5479	0.85755	0.115
Mof_H 	H 	0.0388	0.5984	0.8416	0.001
Mof_C 	C 	0.9522	0.4018	0.90439	-0.194
Mof_H 	H 	0.9297	0.35	0.9193	0.089
Mof_C 	C 	0.0241	0.5478	0.90703	-0.19
Mof_H 	H 	0.0508	0.5977	0.9238	0.093
Mof_C 	C 	0.9928	0.4734	0.93209	0.13
Mof_C 	C 	0.9971	0.4677	0.98532	-0.091
Mof_H 	H 	0.9956	0.4124	0.9988	0.056
Mof_C 	C 	0.9988	0.5315	0.51587	-0.093
Mof_H 	H 	0.0064	0.5879	0.5041	0.057
Mof_C 	C 	0.9853	0.5218	0.56803	0.138
Mof_C 	C 	0.0042	0.592	0.59906	-0.2
Mof_H 	H 	0.0232	0.6466	0.5867	0.093
Mof_C 	C 	0.9533	0.444	0.5894	-0.199
Mof_H 	H 	0.9377	0.395	0.5703	0.094
Mof_C 	C 	0.9948	0.5811	0.64759	0.124
Mof_H 	H 	0.0093	0.6292	0.6675	-0.002
Mof_C 	C 	0.9443	0.4386	0.63827	0.121
Mof_H 	H 	0.9218	0.3854	0.6515	-0.023
_end
