data_functionalizedCrystal
_audit_creation_method	'EQeq! by Chris Wilmer'
_symmetry_space_group_name_H-M	'P1'
_symmetry_Int_Tables_number	1
_symmetry_cell_setting	triclinic
loop_
_symmetry_equiv_pos_as_xyz
  x,y,z
_cell_length_a	9.9435
_cell_length_b	13.3966
_cell_length_c	16.5649
_cell_angle_alpha	97.292
_cell_angle_beta	101.943
_cell_angle_gamma	100.463
loop_
_atom_site_label
_atom_site_type_symbol
_atom_site_fract_x
_atom_site_fract_y
_atom_site_fract_z
_atom_site_charge
Mof_Co	Co	0.61666	0.73918	0.03436	1.166
Mof_Co	Co	0.63631	0.71035	0.21763	1.124
Mof_Co	Co	0.62823	0.47616	0.06355	1.18
Mof_O 	O 	0.4755	0.7053	0.11281	-0.577
Mof_O 	O 	0.2886	0.5968	0.02797	-0.436
Mof_O 	O 	0.7727	0.7172	0.13508	-0.561
Mof_O 	O 	0.8301	0.5648	0.10811	-0.439
Mof_O 	O 	0.4879	0.3242	0.405	-0.18
Mof_O 	O 	0.3141	0.2931	0.4664	-0.498
Mof_H 	H 	0.2974	0.3509	0.4671	0.287
Mof_O 	O 	0.6684	0.3656	0.13718	-0.446
Mof_O 	O 	0.5262	0.2245	0.0553	-0.457
Mof_O 	O 	0.6585	0.8895	0.09865	-0.421
Mof_O 	O 	0.6716	0.8665	0.23282	-0.431
Mof_O 	O 	0.1926	0.2813	0.6896	-0.428
Mof_O 	O 	0.2087	0.4432	0.6658	-0.297
Mof_O 	O 	0.5811	0.5863	0.9854	-1.319
Mof_C 	C 	0.1988	0.8614	0.2157	-0.057
Mof_C 	C 	0.2921	0.8132	0.1811	0.021
Mof_H 	H 	0.3864	0.846	0.1922	0.021
Mof_C 	C 	0.2461	0.7166	0.1304	-0.149
Mof_C 	C 	0.1062	0.6663	0.1153	0.064
Mof_H 	H 	0.0756	0.6015	0.0819	0.031
Mof_C 	C 	0.0111	0.7125	0.1498	-0.131
Mof_C 	C 	0.0575	0.8101	0.1996	0.022
Mof_H 	H 	0.9942	0.8413	0.2222	0.036
Mof_C 	C 	0.3433	0.6682	0.0877	0.393
Mof_C 	C 	0.86	0.6597	0.1297	0.382
Mof_C 	C 	0.2469	0.9663	0.2675	0.102
Mof_C 	C 	0.3564	0.0372	0.2526	-0.157
Mof_H 	H 	0.401	0.0181	0.2108	0.091
Mof_C 	C 	0.3994	0.135	0.2988	0.08
Mof_H 	H 	0.4747	0.1805	0.2892	0.017
Mof_C 	C 	0.3314	0.1664	0.3596	-0.152
Mof_C 	C 	0.222	0.0965	0.3754	0.083
Mof_H 	H 	0.1771	0.1161	0.4169	0.022
Mof_C 	C 	0.1803	0.9984	0.3296	-0.156
Mof_H 	H 	0.1063	0.9525	0.3401	0.09
Mof_C 	C 	0.376	0.2735	0.4074	0.411
Mof_C 	C 	0.7933	0.1824	0.3165	-0.04
Mof_C 	C 	0.7454	0.2456	0.2608	0.005
Mof_H 	H 	0.7616	0.3163	0.2789	0.05
Mof_C 	C 	0.674	0.2039	0.1788	-0.105
Mof_C 	C 	0.6522	0.0983	0.1496	0.034
Mof_H 	H 	0.6069	0.071	0.0941	0.045
Mof_C 	C 	0.699	0.0342	0.2046	-0.102
Mof_C 	C 	0.7672	0.0765	0.2869	0.007
Mof_H 	H 	0.7965	0.0332	0.3235	0.041
Mof_C 	C 	0.6197	0.272	0.119	0.389
Mof_C 	C 	0.6744	0.9205	0.1759	0.37
Mof_C 	C 	0.875	0.2253	0.4043	0.101
Mof_C 	C 	0.9095	0.3291	0.4353	-0.148
Mof_H 	H 	0.8723	0.3739	0.4029	0.098
Mof_C 	C 	0.999	0.3692	0.5141	0.071
Mof_H 	H 	0.0211	0.44	0.5326	0.018
Mof_C 	C 	0.0547	0.3061	0.5645	-0.126
Mof_C 	C 	0.0124	0.2016	0.5368	0.072
Mof_H 	H 	0.0438	0.1566	0.5711	0.02
Mof_C 	C 	0.9239	0.1622	0.4587	-0.144
Mof_H 	H 	0.8963	0.0911	0.4422	0.082
Mof_C 	C 	0.1597	0.3481	0.6465	0.348
Mof_H 	H 	0.613	0.588	0.955	0.709
Mof_O 	O 	0.4446	0.3471	0.3787	-0.126
Mof_Co	Co	0.38334	0.26082	0.96564	1.166
Mof_Co	Co	0.36369	0.28965	0.78237	1.124
Mof_Co	Co	0.37177	0.52384	0.93645	1.18
Mof_O 	O 	0.5245	0.2947	0.88719	-0.577
Mof_O 	O 	0.7114	0.4032	0.97203	-0.436
Mof_O 	O 	0.2273	0.2828	0.86492	-0.561
Mof_O 	O 	0.1699	0.4352	0.89189	-0.439
Mof_O 	O 	0.5121	0.6758	0.595	-0.18
Mof_O 	O 	0.6859	0.7069	0.5336	-0.498
Mof_H 	H 	0.7026	0.6491	0.5329	0.287
Mof_O 	O 	0.3316	0.6344	0.86282	-0.446
Mof_O 	O 	0.4738	0.7755	0.9447	-0.457
Mof_O 	O 	0.3415	0.1105	0.90135	-0.421
Mof_O 	O 	0.3284	0.1335	0.76718	-0.431
Mof_O 	O 	0.8074	0.7187	0.3104	-0.428
Mof_O 	O 	0.7913	0.5568	0.3342	-0.297
Mof_O 	O 	0.4189	0.4137	0.0146	-1.319
Mof_C 	C 	0.8012	0.1386	0.7843	-0.057
Mof_C 	C 	0.7079	0.1868	0.8189	0.021
Mof_H 	H 	0.6136	0.154	0.8078	0.021
Mof_C 	C 	0.7539	0.2834	0.8696	-0.149
Mof_C 	C 	0.8938	0.3337	0.8847	0.064
Mof_H 	H 	0.9244	0.3985	0.9181	0.031
Mof_C 	C 	0.9889	0.2875	0.8502	-0.131
Mof_C 	C 	0.9425	0.1899	0.8004	0.022
Mof_H 	H 	0.0058	0.1587	0.7778	0.036
Mof_C 	C 	0.6567	0.3318	0.9123	0.393
Mof_C 	C 	0.14	0.3403	0.8703	0.382
Mof_C 	C 	0.7531	0.0337	0.7325	0.102
Mof_C 	C 	0.6436	0.9628	0.7474	-0.157
Mof_H 	H 	0.599	0.9819	0.7892	0.091
Mof_C 	C 	0.6006	0.865	0.7012	0.08
Mof_H 	H 	0.5253	0.8195	0.7108	0.017
Mof_C 	C 	0.6686	0.8336	0.6404	-0.152
Mof_C 	C 	0.778	0.9035	0.6246	0.083
Mof_H 	H 	0.8229	0.8839	0.5831	0.022
Mof_C 	C 	0.8197	0.0016	0.6704	-0.156
Mof_H 	H 	0.8937	0.0475	0.6599	0.09
Mof_C 	C 	0.624	0.7265	0.5926	0.411
Mof_C 	C 	0.2067	0.8176	0.6835	-0.04
Mof_C 	C 	0.2546	0.7544	0.7392	0.005
Mof_H 	H 	0.2384	0.6837	0.7211	0.05
Mof_C 	C 	0.326	0.7961	0.8212	-0.105
Mof_C 	C 	0.3478	0.9017	0.8504	0.034
Mof_H 	H 	0.3931	0.929	0.9059	0.045
Mof_C 	C 	0.301	0.9658	0.7954	-0.102
Mof_C 	C 	0.2328	0.9235	0.7131	0.007
Mof_H 	H 	0.2035	0.9668	0.6765	0.041
Mof_C 	C 	0.3803	0.728	0.881	0.389
Mof_C 	C 	0.3256	0.0795	0.8241	0.37
Mof_C 	C 	0.125	0.7747	0.5957	0.101
Mof_C 	C 	0.0905	0.6709	0.5647	-0.148
Mof_H 	H 	0.1277	0.6261	0.5971	0.098
Mof_C 	C 	0.001	0.6308	0.4859	0.071
Mof_H 	H 	0.9789	0.56	0.4674	0.018
Mof_C 	C 	0.9453	0.6939	0.4355	-0.126
Mof_C 	C 	0.9876	0.7984	0.4632	0.072
Mof_H 	H 	0.9562	0.8434	0.4289	0.02
Mof_C 	C 	0.0761	0.8378	0.5413	-0.144
Mof_H 	H 	0.1037	0.9089	0.5578	0.082
Mof_C 	C 	0.8403	0.6519	0.3535	0.348
Mof_H 	H 	0.387	0.412	0.045	0.709
Mof_O 	O 	0.5554	0.6529	0.6213	-0.126
_end
