data_functionalizedCrystal
_audit_creation_method	'EQeq! by Chris Wilmer'
_symmetry_space_group_name_H-M	'P1'
_symmetry_Int_Tables_number	1
_symmetry_cell_setting	triclinic
loop_
_symmetry_equiv_pos_as_xyz
  x,y,z
_cell_length_a	18.0208
_cell_length_b	27.0111
_cell_length_c	27.0111
_cell_angle_alpha	120
_cell_angle_beta	90
_cell_angle_gamma	90
loop_
_atom_site_label
_atom_site_type_symbol
_atom_site_fract_x
_atom_site_fract_y
_atom_site_fract_z
_atom_site_charge
Mof_Zn	Zn	0.57967	0.33279	0.44353	1.177
Mof_Zn	Zn	0.57967	0.11074	0.66721	1.177
Mof_Zn	Zn	0.57967	0.55647	0.88926	1.177
Mof_Zn	Zn	0.07967	0.66721	0.55647	1.177
Mof_Zn	Zn	0.07967	0.88926	0.33279	1.177
Mof_Zn	Zn	0.07967	0.44353	0.11074	1.177
Mof_Zn	Zn	0.42033	0.88926	0.55647	1.177
Mof_Zn	Zn	0.42033	0.44353	0.33279	1.177
Mof_Zn	Zn	0.42033	0.66721	0.11074	1.177
Mof_Zn	Zn	0.92033	0.11074	0.44353	1.177
Mof_Zn	Zn	0.92033	0.55647	0.66721	1.177
Mof_Zn	Zn	0.92033	0.33279	0.88926	1.177
Mof_Zn	Zn	0.42033	0.66721	0.55647	1.177
Mof_Zn	Zn	0.42033	0.88926	0.33279	1.178
Mof_Zn	Zn	0.42033	0.44353	0.11074	1.178
Mof_Zn	Zn	0.92033	0.33279	0.44353	1.178
Mof_Zn	Zn	0.92033	0.11074	0.66721	1.178
Mof_Zn	Zn	0.92033	0.55647	0.88926	1.178
Mof_Zn	Zn	0.57967	0.11074	0.44353	1.178
Mof_Zn	Zn	0.57967	0.55647	0.66721	1.178
Mof_Zn	Zn	0.57967	0.33279	0.88926	1.178
Mof_Zn	Zn	0.07967	0.88926	0.55647	1.178
Mof_Zn	Zn	0.07967	0.44353	0.33279	1.178
Mof_Zn	Zn	0.07967	0.66721	0.11074	1.178
Mof_H 	H 	0.4454	0.2443	0.3993	0.005
Mof_H 	H 	0.6828	0.3294	0.3457	0.004
Mof_H 	H 	0.4317	0.4012	0.5111	0.003
Mof_H 	H 	0.5323	0.2625	0.3081	-0.001
Mof_H 	H 	0.4454	0.155	0.7557	0.005
Mof_H 	H 	0.6828	0.0163	0.6706	0.004
Mof_H 	H 	0.4317	0.1099	0.5988	0.003
Mof_H 	H 	0.5323	0.0456	0.7375	-0
Mof_H 	H 	0.4454	0.6007	0.845	0.005
Mof_H 	H 	0.6828	0.6543	0.9837	0.005
Mof_H 	H 	0.4317	0.4889	0.8901	0.004
Mof_H 	H 	0.5323	0.6919	0.9544	-0.002
Mof_H 	H 	0.9454	0.7557	0.6007	0.005
Mof_H 	H 	0.1828	0.6706	0.6543	0.004
Mof_H 	H 	0.9317	0.5988	0.4889	0.003
Mof_H 	H 	0.0323	0.7375	0.6919	-0
Mof_H 	H 	0.9454	0.845	0.2443	0.005
Mof_H 	H 	0.1828	0.9837	0.3294	0.005
Mof_H 	H 	0.9317	0.8901	0.4012	0.004
Mof_H 	H 	0.0323	0.9544	0.2625	-0.001
Mof_H 	H 	0.9454	0.3993	0.155	0.005
Mof_H 	H 	0.1828	0.3457	0.0163	0.004
Mof_H 	H 	0.9317	0.5111	0.1099	0.003
Mof_H 	H 	0.0323	0.3081	0.0456	0
Mof_H 	H 	0.5546	0.845	0.6007	0.005
Mof_H 	H 	0.3172	0.9837	0.6543	0.005
Mof_H 	H 	0.5683	0.8901	0.4889	0.004
Mof_H 	H 	0.4677	0.9544	0.6919	-0.002
Mof_H 	H 	0.5546	0.3993	0.2443	0.005
Mof_H 	H 	0.3172	0.3457	0.3294	0.004
Mof_H 	H 	0.5683	0.5111	0.4012	0.003
Mof_H 	H 	0.4677	0.3081	0.2625	-0.001
Mof_H 	H 	0.5546	0.7557	0.155	0.005
Mof_H 	H 	0.3172	0.6706	0.0163	0.004
Mof_H 	H 	0.5683	0.5988	0.1099	0.003
Mof_H 	H 	0.4677	0.7375	0.0456	-0
Mof_H 	H 	0.0546	0.155	0.3993	0.005
Mof_H 	H 	0.8172	0.0163	0.3457	0.004
Mof_H 	H 	0.0683	0.1099	0.5111	0.003
Mof_H 	H 	0.9677	0.0456	0.3081	-0.001
Mof_H 	H 	0.0546	0.6007	0.7557	0.005
Mof_H 	H 	0.8172	0.6543	0.6706	0.005
Mof_H 	H 	0.0683	0.4889	0.5988	0.004
Mof_H 	H 	0.9677	0.6919	0.7375	-0.002
Mof_H 	H 	0.0546	0.2443	0.845	0.005
Mof_H 	H 	0.8172	0.3294	0.9837	0.005
Mof_H 	H 	0.0683	0.4012	0.8901	0.004
Mof_H 	H 	0.9677	0.2625	0.9544	-0.003
Mof_H 	H 	0.5546	0.7557	0.6007	0.005
Mof_H 	H 	0.3172	0.6706	0.6543	0.004
Mof_H 	H 	0.5683	0.5988	0.4889	0.003
Mof_H 	H 	0.4677	0.7375	0.6919	-0.001
Mof_H 	H 	0.5546	0.845	0.2443	0.005
Mof_H 	H 	0.3172	0.9837	0.3294	0.005
Mof_H 	H 	0.5683	0.8901	0.4012	0.004
Mof_H 	H 	0.4677	0.9544	0.2625	-0.002
Mof_H 	H 	0.5546	0.3993	0.155	0.005
Mof_H 	H 	0.3172	0.3457	0.0163	0.004
Mof_H 	H 	0.5683	0.5111	0.1099	0.003
Mof_H 	H 	0.4677	0.3081	0.0456	-0.001
Mof_H 	H 	0.0546	0.2443	0.3993	0.005
Mof_H 	H 	0.8172	0.3294	0.3457	0.004
Mof_H 	H 	0.0683	0.4012	0.5111	0.003
Mof_H 	H 	0.9677	0.2625	0.3081	-0.002
Mof_H 	H 	0.0546	0.155	0.7557	0.005
Mof_H 	H 	0.8172	0.0163	0.6706	0.004
Mof_H 	H 	0.0683	0.1099	0.5988	0.003
Mof_H 	H 	0.9677	0.0456	0.7375	-0.001
Mof_H 	H 	0.0546	0.6007	0.845	0.005
Mof_H 	H 	0.8172	0.6543	0.9837	0.005
Mof_H 	H 	0.0683	0.4889	0.8901	0.004
Mof_H 	H 	0.9677	0.6919	0.9544	-0.003
Mof_H 	H 	0.4454	0.155	0.3993	0.005
Mof_H 	H 	0.6828	0.0163	0.3457	0.004
Mof_H 	H 	0.4317	0.1099	0.5111	0.003
Mof_H 	H 	0.5323	0.0456	0.3081	-0
Mof_H 	H 	0.4454	0.6007	0.7557	0.005
Mof_H 	H 	0.6828	0.6543	0.6706	0.005
Mof_H 	H 	0.4317	0.4889	0.5988	0.003
Mof_H 	H 	0.5323	0.6919	0.7375	-0.001
Mof_H 	H 	0.4454	0.2443	0.845	0.005
Mof_H 	H 	0.6828	0.3294	0.9837	0.005
Mof_H 	H 	0.4317	0.4012	0.8901	0.004
Mof_H 	H 	0.5323	0.2625	0.9544	-0.002
Mof_H 	H 	0.9454	0.845	0.6007	0.005
Mof_H 	H 	0.1828	0.9837	0.6543	0.005
Mof_H 	H 	0.9317	0.8901	0.4889	0.004
Mof_H 	H 	0.0323	0.9544	0.6919	-0.001
Mof_H 	H 	0.9454	0.3993	0.2443	0.005
Mof_H 	H 	0.1828	0.3457	0.3294	0.004
Mof_H 	H 	0.9317	0.5111	0.4012	0.003
Mof_H 	H 	0.0323	0.3081	0.2625	-0.001
Mof_H 	H 	0.9454	0.7557	0.155	0.005
Mof_H 	H 	0.1828	0.6706	0.0163	0.004
Mof_H 	H 	0.9317	0.5988	0.1099	0.003
Mof_H 	H 	0.0323	0.7375	0.0456	0
Mof_H 	H 	0.6288	0.2223	0.4446	-0.062
Mof_H 	H 	0.6288	0.2223	0.7777	-0.062
Mof_H 	H 	0.6288	0.5554	0.7777	-0.062
Mof_H 	H 	0.1288	0.7777	0.5554	-0.062
Mof_H 	H 	0.1288	0.7777	0.2223	-0.062
Mof_H 	H 	0.1288	0.4446	0.2223	-0.062
Mof_H 	H 	0.3712	0.7777	0.5554	-0.062
Mof_H 	H 	0.3712	0.4446	0.2223	-0.062
Mof_H 	H 	0.3712	0.7777	0.2223	-0.062
Mof_H 	H 	0.8712	0.2223	0.4446	-0.062
Mof_H 	H 	0.8712	0.5554	0.7777	-0.062
Mof_H 	H 	0.8712	0.2223	0.7777	-0.062
Mof_H 	H 	0.627	0.4536	0.5464	-0.063
Mof_H 	H 	0.627	0.0928	0.5464	-0.063
Mof_H 	H 	0.627	0.4536	0.9072	-0.062
Mof_H 	H 	0.127	0.5464	0.4536	-0.062
Mof_H 	H 	0.127	0.9072	0.4536	-0.062
Mof_H 	H 	0.127	0.5464	0.0928	-0.063
Mof_H 	H 	0.373	0.9072	0.4536	-0.062
Mof_H 	H 	0.373	0.5464	0.4536	-0.063
Mof_H 	H 	0.373	0.5464	0.0928	-0.063
Mof_H 	H 	0.873	0.0928	0.5464	-0.063
Mof_H 	H 	0.873	0.4536	0.5464	-0.063
Mof_H 	H 	0.873	0.4536	0.9072	-0.062
Mof_H 	H 	0.5	0.422	0.422	-0.058
Mof_H 	H 	0.5	3.99375e-17	0.578	-0.057
Mof_H 	H 	0.5	0.578	-0	-0.057
Mof_H 	H 	-1.33019e-32	0.578	0.578	-0.057
Mof_H 	H 	-2.21698e-33	3.99375e-17	0.422	-0.057
Mof_H 	H 	-0	0.422	-0	-0.057
Mof_H 	H 	0.5	0.578	0.578	-0.058
Mof_H 	H 	0.5	3.99375e-17	0.422	-0.057
Mof_H 	H 	0.5	0.422	-0	-0.057
Mof_H 	H 	-2.21698e-33	0.422	0.422	-0.057
Mof_H 	H 	-1.33019e-32	3.99375e-17	0.578	-0.057
Mof_H 	H 	-0	0.578	-0	-0.057
Mof_C 	C 	0.4823	0.2322	0.415	-0.018
Mof_C 	C 	0.7127	0.3301	0.3741	-0.014
Mof_C 	C 	0.4738	0.4196	0.5323	-0.013
Mof_C 	C 	0.5176	0.3006	0.326	-0.003
Mof_C 	C 	0.4823	0.1828	0.7678	-0.018
Mof_C 	C 	0.7127	0.044	0.6699	-0.014
Mof_C 	C 	0.4738	0.1127	0.5804	-0.013
Mof_C 	C 	0.5176	0.0254	0.6994	-0.007
Mof_C 	C 	0.4823	0.585	0.8172	-0.018
Mof_C 	C 	0.7127	0.6259	0.956	-0.013
Mof_C 	C 	0.4738	0.4677	0.8873	-0.013
Mof_C 	C 	0.5176	0.674	0.9746	-0
Mof_C 	C 	0.9823	0.7678	0.585	-0.017
Mof_C 	C 	0.2127	0.6699	0.6259	-0.014
Mof_C 	C 	0.9738	0.5804	0.4677	-0.011
Mof_C 	C 	0.0176	0.6994	0.674	-0.007
Mof_C 	C 	0.9823	0.8172	0.2322	-0.017
Mof_C 	C 	0.2127	0.956	0.3301	-0.013
Mof_C 	C 	0.9738	0.8873	0.4196	-0.011
Mof_C 	C 	0.0176	0.9746	0.3006	-0.004
Mof_C 	C 	0.9823	0.415	0.1828	-0.017
Mof_C 	C 	0.2127	0.3741	0.044	-0.014
Mof_C 	C 	0.9738	0.5323	0.1127	-0.011
Mof_C 	C 	0.0176	0.326	0.0254	-0.01
Mof_C 	C 	0.5177	0.8172	0.585	-0.018
Mof_C 	C 	0.2873	0.956	0.6259	-0.013
Mof_C 	C 	0.5262	0.8873	0.4677	-0.013
Mof_C 	C 	0.4824	0.9746	0.674	0
Mof_C 	C 	0.5177	0.415	0.2322	-0.018
Mof_C 	C 	0.2873	0.3741	0.3301	-0.014
Mof_C 	C 	0.5262	0.5323	0.4196	-0.013
Mof_C 	C 	0.4824	0.326	0.3006	-0.003
Mof_C 	C 	0.5177	0.7678	0.1828	-0.018
Mof_C 	C 	0.2873	0.6699	0.044	-0.014
Mof_C 	C 	0.5262	0.5804	0.1127	-0.013
Mof_C 	C 	0.4824	0.6994	0.0254	-0.006
Mof_C 	C 	0.0177	0.1828	0.415	-0.02
Mof_C 	C 	0.7873	0.044	0.3741	-0.014
Mof_C 	C 	0.0262	0.1127	0.5323	-0.014
Mof_C 	C 	0.9824	0.0254	0.326	-0.003
Mof_C 	C 	0.0177	0.585	0.7678	-0.02
Mof_C 	C 	0.7873	0.6259	0.6699	-0.013
Mof_C 	C 	0.0262	0.4677	0.5804	-0.014
Mof_C 	C 	0.9824	0.674	0.6994	0.001
Mof_C 	C 	0.0177	0.2322	0.8172	-0.02
Mof_C 	C 	0.7873	0.3301	0.956	-0.013
Mof_C 	C 	0.0262	0.4196	0.8873	-0.014
Mof_C 	C 	0.9824	0.3006	0.9746	0.003
Mof_C 	C 	0.5177	0.7678	0.585	-0.018
Mof_C 	C 	0.2873	0.6699	0.6259	-0.014
Mof_C 	C 	0.5262	0.5804	0.4677	-0.013
Mof_C 	C 	0.4824	0.6994	0.674	-0.003
Mof_C 	C 	0.5177	0.8172	0.2322	-0.018
Mof_C 	C 	0.2873	0.956	0.3301	-0.013
Mof_C 	C 	0.5262	0.8873	0.4196	-0.013
Mof_C 	C 	0.4824	0.9746	0.3006	0
Mof_C 	C 	0.5177	0.415	0.1828	-0.018
Mof_C 	C 	0.2873	0.3741	0.044	-0.014
Mof_C 	C 	0.5262	0.5323	0.1127	-0.013
Mof_C 	C 	0.4824	0.326	0.0254	-0.006
Mof_C 	C 	0.0177	0.2322	0.415	-0.02
Mof_C 	C 	0.7873	0.3301	0.3741	-0.014
Mof_C 	C 	0.0262	0.4196	0.5323	-0.014
Mof_C 	C 	0.9824	0.3006	0.326	0.001
Mof_C 	C 	0.0177	0.1828	0.7678	-0.02
Mof_C 	C 	0.7873	0.044	0.6699	-0.014
Mof_C 	C 	0.0262	0.1127	0.5804	-0.014
Mof_C 	C 	0.9824	0.0254	0.6994	-0.003
Mof_C 	C 	0.0177	0.585	0.8172	-0.02
Mof_C 	C 	0.7873	0.6259	0.956	-0.013
Mof_C 	C 	0.0262	0.4677	0.8873	-0.014
Mof_C 	C 	0.9824	0.674	0.9746	0.004
Mof_C 	C 	0.4823	0.1828	0.415	-0.018
Mof_C 	C 	0.7127	0.044	0.3741	-0.014
Mof_C 	C 	0.4738	0.1127	0.5323	-0.013
Mof_C 	C 	0.5176	0.0254	0.326	-0.007
Mof_C 	C 	0.4823	0.585	0.7678	-0.018
Mof_C 	C 	0.7127	0.6259	0.6699	-0.013
Mof_C 	C 	0.4738	0.4677	0.5804	-0.013
Mof_C 	C 	0.5176	0.674	0.6994	-0.003
Mof_C 	C 	0.4823	0.2322	0.8172	-0.018
Mof_C 	C 	0.7127	0.3301	0.956	-0.013
Mof_C 	C 	0.4738	0.4196	0.8873	-0.013
Mof_C 	C 	0.5176	0.3006	0.9746	-0
Mof_C 	C 	0.9823	0.8172	0.585	-0.017
Mof_C 	C 	0.2127	0.956	0.6259	-0.013
Mof_C 	C 	0.9738	0.8873	0.4677	-0.011
Mof_C 	C 	0.0176	0.9746	0.674	-0.003
Mof_C 	C 	0.9823	0.415	0.2322	-0.017
Mof_C 	C 	0.2127	0.3741	0.3301	-0.014
Mof_C 	C 	0.9738	0.5323	0.4196	-0.011
Mof_C 	C 	0.0176	0.326	0.3006	-0.007
Mof_C 	C 	0.9823	0.7678	0.1828	-0.017
Mof_C 	C 	0.2127	0.6699	0.044	-0.014
Mof_C 	C 	0.9738	0.5804	0.1127	-0.011
Mof_C 	C 	0.0176	0.6994	0.0254	-0.01
Mof_C 	C 	0.5773	0.2215	0.443	0.191
Mof_C 	C 	0.5773	0.2215	0.7785	0.191
Mof_C 	C 	0.5773	0.557	0.7785	0.191
Mof_C 	C 	0.0773	0.7785	0.557	0.19
Mof_C 	C 	0.0773	0.7785	0.2215	0.19
Mof_C 	C 	0.0773	0.443	0.2215	0.19
Mof_C 	C 	0.4227	0.7785	0.557	0.191
Mof_C 	C 	0.4227	0.443	0.2215	0.191
Mof_C 	C 	0.4227	0.7785	0.2215	0.191
Mof_C 	C 	0.9227	0.2215	0.443	0.191
Mof_C 	C 	0.9227	0.557	0.7785	0.191
Mof_C 	C 	0.9227	0.2215	0.7785	0.191
Mof_C 	C 	0.75	0.3314	0.4472	0.151
Mof_C 	C 	0.75	0.1158	0.6686	0.151
Mof_C 	C 	0.75	0.5528	0.8842	0.152
Mof_C 	C 	0.25	0.6686	0.5528	0.151
Mof_C 	C 	0.25	0.8842	0.3314	0.151
Mof_C 	C 	0.25	0.4472	0.1158	0.151
Mof_C 	C 	0.25	0.8842	0.5528	0.151
Mof_C 	C 	0.25	0.4472	0.3314	0.151
Mof_C 	C 	0.25	0.6686	0.1158	0.151
Mof_C 	C 	0.75	0.1158	0.4472	0.151
Mof_C 	C 	0.75	0.5528	0.6686	0.151
Mof_C 	C 	0.75	0.3314	0.8842	0.151
Mof_C 	C 	0.5791	0.44625	0.55375	0.159
Mof_C 	C 	0.5791	0.1075	0.55375	0.159
Mof_C 	C 	0.5791	0.44625	0.8925	0.159
Mof_C 	C 	0.0791	0.55375	0.44625	0.159
Mof_C 	C 	0.0791	0.8925	0.44625	0.159
Mof_C 	C 	0.0791	0.55375	0.1075	0.159
Mof_C 	C 	0.4209	0.8925	0.44625	0.159
Mof_C 	C 	0.4209	0.55375	0.44625	0.159
Mof_C 	C 	0.4209	0.55375	0.1075	0.159
Mof_C 	C 	0.9209	0.1075	0.55375	0.16
Mof_C 	C 	0.9209	0.44625	0.55375	0.16
Mof_C 	C 	0.9209	0.44625	0.8925	0.16
Mof_C 	C 	0.5	0.3876	0.3876	0.09
Mof_C 	C 	0.5	0	0.6124	0.088
Mof_C 	C 	0.5	0.6124	-0	0.088
Mof_C 	C 	-2.21698e-32	0.6124	0.6124	0.087
Mof_C 	C 	-6.65093e-33	3.99375e-17	0.3876	0.085
Mof_C 	C 	-0	0.3876	-0	0.086
Mof_C 	C 	0.5	0.6124	0.6124	0.09
Mof_C 	C 	0.5	3.99375e-17	0.3876	0.088
Mof_C 	C 	0.5	0.3876	-0	0.088
Mof_C 	C 	-6.65093e-33	0.3876	0.3876	0.087
Mof_C 	C 	-4.43395e-33	0	0.6124	0.085
Mof_C 	C 	-8.86791e-33	0.6124	-0	0.086
Mof_N 	N 	0.5456	0.26232	0.44194	-0.306
Mof_N 	N 	0.6879	0.3313	0.4223	-0.283
Mof_N 	N 	0.5463	0.39973	0.51737	-0.29
Mof_N 	N 	0.5279	0.33953	0.38187	-0.286
Mof_N 	N 	0.5456	0.17962	0.73768	-0.306
Mof_N 	N 	0.6879	0.091	0.6687	-0.283
Mof_N 	N 	0.5463	0.11764	0.60027	-0.29
Mof_N 	N 	0.5279	0.04234	0.66047	-0.286
Mof_N 	N 	0.5456	0.55806	0.82038	-0.306
Mof_N 	N 	0.6879	0.5777	0.909	-0.283
Mof_N 	N 	0.5463	0.48263	0.88236	-0.29
Mof_N 	N 	0.5279	0.61813	0.95766	-0.286
Mof_N 	N 	0.0456	0.73768	0.55806	-0.307
Mof_N 	N 	0.1879	0.6687	0.5777	-0.283
Mof_N 	N 	0.0463	0.60027	0.48263	-0.291
Mof_N 	N 	0.0279	0.66047	0.61813	-0.286
Mof_N 	N 	0.0456	0.82038	0.26232	-0.307
Mof_N 	N 	0.1879	0.909	0.3313	-0.283
Mof_N 	N 	0.0463	0.88236	0.39973	-0.291
Mof_N 	N 	0.0279	0.95766	0.33953	-0.285
Mof_N 	N 	0.0456	0.44194	0.17962	-0.307
Mof_N 	N 	0.1879	0.4223	0.091	-0.283
Mof_N 	N 	0.0463	0.51737	0.11764	-0.291
Mof_N 	N 	0.0279	0.38187	0.04234	-0.285
Mof_N 	N 	0.4544	0.82038	0.55806	-0.306
Mof_N 	N 	0.3121	0.909	0.5777	-0.283
Mof_N 	N 	0.4537	0.88236	0.48263	-0.29
Mof_N 	N 	0.4721	0.95766	0.61813	-0.286
Mof_N 	N 	0.4544	0.44194	0.26232	-0.306
Mof_N 	N 	0.3121	0.4223	0.3313	-0.283
Mof_N 	N 	0.4537	0.51737	0.39973	-0.29
Mof_N 	N 	0.4721	0.38187	0.33953	-0.286
Mof_N 	N 	0.4544	0.73768	0.17962	-0.306
Mof_N 	N 	0.3121	0.6687	0.091	-0.283
Mof_N 	N 	0.4537	0.60027	0.11764	-0.29
Mof_N 	N 	0.4721	0.66047	0.04234	-0.286
Mof_N 	N 	0.9544	0.17962	0.44194	-0.305
Mof_N 	N 	0.8121	0.091	0.4223	-0.283
Mof_N 	N 	0.9537	0.11764	0.51737	-0.289
Mof_N 	N 	0.9721	0.04234	0.38187	-0.285
Mof_N 	N 	0.9544	0.55806	0.73768	-0.305
Mof_N 	N 	0.8121	0.5777	0.6687	-0.283
Mof_N 	N 	0.9537	0.48263	0.60027	-0.289
Mof_N 	N 	0.9721	0.61813	0.66047	-0.286
Mof_N 	N 	0.9544	0.26232	0.82038	-0.305
Mof_N 	N 	0.8121	0.3313	0.909	-0.283
Mof_N 	N 	0.9537	0.39973	0.88236	-0.289
Mof_N 	N 	0.9721	0.33953	0.95766	-0.285
Mof_N 	N 	0.4544	0.73768	0.55806	-0.306
Mof_N 	N 	0.3121	0.6687	0.5777	-0.283
Mof_N 	N 	0.4537	0.60027	0.48263	-0.29
Mof_N 	N 	0.4721	0.66047	0.61813	-0.286
Mof_N 	N 	0.4544	0.82038	0.26232	-0.306
Mof_N 	N 	0.3121	0.909	0.3313	-0.283
Mof_N 	N 	0.4537	0.88236	0.39973	-0.29
Mof_N 	N 	0.4721	0.95766	0.33953	-0.286
Mof_N 	N 	0.4544	0.44194	0.17962	-0.306
Mof_N 	N 	0.3121	0.4223	0.091	-0.283
Mof_N 	N 	0.4537	0.51737	0.11764	-0.29
Mof_N 	N 	0.4721	0.38187	0.04234	-0.286
Mof_N 	N 	0.9544	0.26232	0.44194	-0.305
Mof_N 	N 	0.8121	0.3313	0.4223	-0.283
Mof_N 	N 	0.9537	0.39973	0.51737	-0.289
Mof_N 	N 	0.9721	0.33953	0.38187	-0.286
Mof_N 	N 	0.9544	0.17962	0.73768	-0.305
Mof_N 	N 	0.8121	0.091	0.6687	-0.283
Mof_N 	N 	0.9537	0.11764	0.60027	-0.289
Mof_N 	N 	0.9721	0.04234	0.66047	-0.285
Mof_N 	N 	0.9544	0.55806	0.82038	-0.305
Mof_N 	N 	0.8121	0.5777	0.909	-0.283
Mof_N 	N 	0.9537	0.48263	0.88236	-0.289
Mof_N 	N 	0.9721	0.61813	0.95766	-0.285
Mof_N 	N 	0.5456	0.17962	0.44194	-0.306
Mof_N 	N 	0.6879	0.091	0.4223	-0.283
Mof_N 	N 	0.5463	0.11764	0.51737	-0.29
Mof_N 	N 	0.5279	0.04234	0.38187	-0.286
Mof_N 	N 	0.5456	0.55806	0.73768	-0.306
Mof_N 	N 	0.6879	0.5777	0.6687	-0.283
Mof_N 	N 	0.5463	0.48263	0.60027	-0.29
Mof_N 	N 	0.5279	0.61813	0.66047	-0.286
Mof_N 	N 	0.5456	0.26232	0.82038	-0.306
Mof_N 	N 	0.6879	0.3313	0.909	-0.283
Mof_N 	N 	0.5463	0.39973	0.88236	-0.29
Mof_N 	N 	0.5279	0.33953	0.95766	-0.286
Mof_N 	N 	0.0456	0.82038	0.55806	-0.307
Mof_N 	N 	0.1879	0.909	0.5777	-0.283
Mof_N 	N 	0.0463	0.88236	0.48263	-0.291
Mof_N 	N 	0.0279	0.95766	0.61813	-0.285
Mof_N 	N 	0.0456	0.44194	0.26232	-0.307
Mof_N 	N 	0.1879	0.4223	0.3313	-0.283
Mof_N 	N 	0.0463	0.51737	0.39973	-0.291
Mof_N 	N 	0.0279	0.38187	0.33953	-0.286
Mof_N 	N 	0.0456	0.73768	0.17962	-0.307
Mof_N 	N 	0.1879	0.6687	0.091	-0.283
Mof_N 	N 	0.0463	0.60027	0.11764	-0.291
Mof_N 	N 	0.0279	0.66047	0.04234	-0.285
Mof_N 	N 	0.75	0.3318	0.5012	-0.026
Mof_N 	N 	0.75	0.1694	0.6682	-0.026
Mof_N 	N 	0.75	0.4988	0.8306	-0.026
Mof_N 	N 	0.25	0.6682	0.4988	-0.026
Mof_N 	N 	0.25	0.8306	0.3318	-0.026
Mof_N 	N 	0.25	0.5012	0.1694	-0.026
Mof_N 	N 	0.25	0.8306	0.4988	-0.026
Mof_N 	N 	0.25	0.5012	0.3318	-0.026
Mof_N 	N 	0.25	0.6682	0.1694	-0.026
Mof_N 	N 	0.75	0.1694	0.5012	-0.026
Mof_N 	N 	0.75	0.4988	0.6682	-0.026
Mof_N 	N 	0.75	0.3318	0.8306	-0.026
Mof_O 	O 	0.6903	0.3321	0.5225	-0.167
Mof_O 	O 	0.6903	0.1904	0.6679	-0.167
Mof_O 	O 	0.6903	0.4775	0.8096	-0.167
Mof_O 	O 	0.1903	0.6679	0.4775	-0.167
Mof_O 	O 	0.1903	0.8096	0.3321	-0.167
Mof_O 	O 	0.1903	0.5225	0.1904	-0.167
Mof_O 	O 	0.3097	0.8096	0.4775	-0.167
Mof_O 	O 	0.3097	0.5225	0.3321	-0.167
Mof_O 	O 	0.3097	0.6679	0.1904	-0.167
Mof_O 	O 	0.8097	0.1904	0.5225	-0.167
Mof_O 	O 	0.8097	0.4775	0.6679	-0.167
Mof_O 	O 	0.8097	0.3321	0.8096	-0.167
Mof_O 	O 	0.3097	0.6679	0.4775	-0.167
Mof_O 	O 	0.3097	0.8096	0.3321	-0.167
Mof_O 	O 	0.3097	0.5225	0.1904	-0.167
Mof_O 	O 	0.8097	0.3321	0.5225	-0.167
Mof_O 	O 	0.8097	0.1904	0.6679	-0.167
Mof_O 	O 	0.8097	0.4775	0.8096	-0.167
Mof_O 	O 	0.6903	0.1904	0.5225	-0.167
Mof_O 	O 	0.6903	0.4775	0.6679	-0.167
Mof_O 	O 	0.6903	0.3321	0.8096	-0.167
Mof_O 	O 	0.1903	0.8096	0.4775	-0.167
Mof_O 	O 	0.1903	0.5225	0.3321	-0.167
Mof_O 	O 	0.1903	0.6679	0.1904	-0.167
_end
