data_functionalizedCrystal
_audit_creation_method	'EQeq! by Chris Wilmer'
_symmetry_space_group_name_H-M	'P1'
_symmetry_Int_Tables_number	1
_symmetry_cell_setting	triclinic
loop_
_symmetry_equiv_pos_as_xyz
  x,y,z
_cell_length_a	39.074
_cell_length_b	9.9645
_cell_length_c	38.846
_cell_angle_alpha	90
_cell_angle_beta	136.438
_cell_angle_gamma	90
loop_
_atom_site_label
_atom_site_type_symbol
_atom_site_fract_x
_atom_site_fract_y
_atom_site_fract_z
_atom_site_charge
Mof_C 	C 	0.3651	0.2274	0.09	0.744
Mof_N 	N 	0.2221	0.346	0.0472	-0.188
Mof_H 	H 	0.1928	0.3394	0.0172	0.108
Mof_Zn	Zn	0.32502	0.31988	0.13035	1.244
Mof_O 	O 	0.3258	0.2409	0.0443	-0.608
Mof_N 	N 	0.057	0.3368	0.0472	-0.357
Mof_H 	H 	0.0592	0.3672	0.0694	0.116
Mof_H 	H 	0.0292	0.3057	0.0195	0.07
Mof_C 	C 	0.4111	0.187	0.104	-1.289
Mof_H 	H 	0.4065	0.0991	0.0911	0.411
Mof_H 	H 	0.439	0.1862	0.1397	0.42
Mof_H 	H 	0.4171	0.2501	0.0902	0.404
Mof_Zn	Zn	0.38484	0.20435	0.25416	1.216
Mof_N 	N 	0.397	0.4443	0.2232	-0.189
Mof_H 	H 	0.4178	0.4612	0.2546	0.126
Mof_O 	O 	0.3693	0.2443	0.1249	-0.57
Mof_Zn	Zn	0.4464	0.08808	0.37755	1.245
Mof_O 	O 	0.26284	0.3437	0.0555	-0.46
Mof_N 	N 	0.4419	0.0741	0.2692	-0.358
Mof_H 	H 	0.4328	0.1412	0.2502	0.085
Mof_H 	H 	0.4588	0.0872	0.3	0.109
Mof_O 	O 	0.2701	0.3741	0.1283	-0.383
Mof_N 	N 	0.3684	0.9661	0.283	-0.173
Mof_H 	H 	0.3454	0.9536	0.2512	0.131
Mof_C 	C 	0.2275	0.3579	0.0843	0.243
Mof_O 	O 	0.3805	0.3158	0.2065	-0.434
Mof_C 	C 	0.182	0.3522	0.0732	-0.198
Mof_N 	N 	0.3268	0.3341	0.2375	-0.341
Mof_H 	H 	0.3089	0.3191	0.2065	0.125
Mof_H 	H 	0.3383	0.2681	0.2577	0.076
Mof_O 	O 	0.3531	0.5176	0.1467	-0.388
Mof_N 	N 	0.5326	0.9399	0.4546	-0.176
Mof_H 	H 	0.553	0.8895	0.4805	0.126
Mof_C 	C 	0.1373	0.2981	0.0291	0.168
Mof_H 	H 	0.1352	0.2652	0.0052	-0.069
Mof_O 	O 	0.3021	0.1174	0.1263	-0.555
Mof_C 	C 	0.0989	0.3379	0.0561	0.245
Mof_N 	N 	0.6444	0.5449	0.4306	-0.339
Mof_H 	H 	0.6398	0.5335	0.4055	0.16
Mof_H 	H 	0.6652	0.495	0.4566	0.135
Mof_O 	O 	0.3227	0.0814	0.1952	-0.568
Mof_C 	C 	0.1431	0.3875	0.1003	-0.282
Mof_H 	H 	0.1455	0.4177	0.1246	0.133
Mof_O 	O 	0.4447	0.329	0.3128	-0.573
Mof_C 	C 	0.1842	0.393	0.1089	0.139
Mof_H 	H 	0.2141	0.4249	0.1394	-0.015
Mof_O 	O 	0.4694	0.2803	0.3839	-0.572
Mof_C 	C 	0.3818	0.5414	0.1923	0.253
Mof_O 	O 	0.38959	0.0905	0.3018	-0.447
Mof_C 	C 	0.4006	0.6787	0.2137	-0.168
Mof_O 	O 	0.4141	0.8864	0.3601	-0.355
Mof_C 	C 	0.4277	0.7073	0.2622	0.132
Mof_H 	H 	0.4372	0.6372	0.2836	-0.026
Mof_O 	O 	0.50175	0.0253	0.4496	-0.458
Mof_C 	C 	0.4414	0.8364	0.2807	-0.255
Mof_H 	H 	0.4588	0.8529	0.3136	0.128
Mof_O 	O 	0.5013	0.0085	0.3823	-0.417
Mof_C 	C 	0.429	0.9419	0.2498	0.231
Mof_O 	O 	0.4021	0.162	0.3847	-0.548
Mof_C 	C 	0.4024	0.9155	0.2015	-0.252
Mof_H 	H 	0.3937	0.9855	0.1805	0.127
Mof_O 	O 	0.4442	0.1496	0.4646	-0.545
Mof_C 	C 	0.3878	0.7834	0.1828	0.12
Mof_H 	H 	0.3696	0.7666	0.1496	-0.008
Mof_C 	C 	0.2952	0.0666	0.15	0.729
Mof_C 	C 	0.251	0.9784	0.1231	-1.156
Mof_H 	H 	0.2459	0.9646	0.1436	0.374
Mof_H 	H 	0.2565	0.8935	0.1161	0.367
Mof_H 	H 	0.2221	0.0203	0.0923	0.344
Mof_C 	C 	0.4705	0.3497	0.3581	0.76
Mof_C 	C 	0.5042	0.4693	0.3824	-1.311
Mof_H 	H 	0.4887	0.542	0.3832	0.425
Mof_H 	H 	0.5106	0.4958	0.3637	0.421
Mof_H 	H 	0.535	0.4466	0.4159	0.41
Mof_C 	C 	0.3827	0.8665	0.3129	0.234
Mof_C 	C 	0.3631	0.7312	0.2914	-0.152
Mof_C 	C 	0.332	0.7048	0.2417	0.11
Mof_H 	H 	0.319	0.7759	0.2196	-0.018
Mof_C 	C 	0.3193	0.5745	0.2234	-0.237
Mof_H 	H 	0.2985	0.5592	0.1896	0.118
Mof_C 	C 	0.3375	0.4679	0.2553	0.204
Mof_C 	C 	0.3663	0.4931	0.3049	-0.239
Mof_H 	H 	0.3773	0.4224	0.3265	0.109
Mof_C 	C 	0.379	0.6237	0.3225	0.103
Mof_H 	H 	0.3987	0.6395	0.3561	-0.003
Mof_C 	C 	0.5309	0.9355	0.4189	0.277
Mof_C 	C 	0.5639	0.8372	0.4255	-0.186
Mof_C 	C 	0.5602	0.8209	0.3879	0.122
Mof_H 	H 	0.5395	0.8785	0.3606	-0.011
Mof_C 	C 	0.5856	0.7231	0.3887	-0.267
Mof_H 	H 	0.5801	0.7121	0.3612	0.122
Mof_C 	C 	0.6186	0.6427	0.4291	0.22
Mof_C 	C 	0.624	0.6557	0.4694	-0.248
Mof_H 	H 	0.6458	0.6004	0.4973	0.086
Mof_C 	C 	0.5964	0.7521	0.4663	0.112
Mof_H 	H 	0.5996	0.7601	0.4924	-0.029
Mof_C 	C 	0.4086	0.1884	0.42	0.69
Mof_C 	C 	0.3707	0.2786	0.4108	-1.133
Mof_H 	H 	0.3876	0.3521	0.4339	0.361
Mof_H 	H 	0.3534	0.2273	0.4154	0.357
Mof_H 	H 	0.3472	0.3127	0.3772	0.362
Mof_C 	C 	0.0961	0.2922	0.0201	-0.363
Mof_H 	H 	0.0663	0.2579	0.99	0.173
Mof_C 	C 	0.8651	0.7274	0.09	0.755
Mof_N 	N 	0.7221	0.846	0.0472	-0.187
Mof_H 	H 	0.6928	0.8394	0.0172	0.111
Mof_Zn	Zn	0.82502	0.81988	0.13035	1.247
Mof_O 	O 	0.8258	0.7409	0.0443	-0.606
Mof_N 	N 	0.557	0.8368	0.0472	-0.358
Mof_H 	H 	0.5592	0.8672	0.0694	0.124
Mof_H 	H 	0.5292	0.8057	0.0195	0.077
Mof_C 	C 	0.9111	0.687	0.104	-1.314
Mof_H 	H 	0.9065	0.5991	0.0911	0.425
Mof_H 	H 	0.939	0.6862	0.1397	0.434
Mof_H 	H 	0.9171	0.7501	0.0902	0.416
Mof_Zn	Zn	0.88484	0.70435	0.25416	1.217
Mof_N 	N 	0.897	0.9443	0.2232	-0.182
Mof_H 	H 	0.9178	0.9612	0.2546	0.13
Mof_O 	O 	0.8693	0.7443	0.1249	-0.567
Mof_Zn	Zn	0.9464	0.58808	0.37755	1.25
Mof_O 	O 	0.76284	0.8437	0.0555	-0.457
Mof_N 	N 	0.9419	0.5741	0.2692	-0.346
Mof_H 	H 	0.9328	0.6412	0.2502	0.088
Mof_H 	H 	0.9588	0.5872	0.3	0.114
Mof_O 	O 	0.7701	0.8741	0.1283	-0.381
Mof_N 	N 	0.8684	0.4661	0.283	-0.18
Mof_H 	H 	0.8454	0.4536	0.2512	0.127
Mof_C 	C 	0.7275	0.8579	0.0843	0.244
Mof_O 	O 	0.8805	0.8158	0.2065	-0.431
Mof_C 	C 	0.682	0.8522	0.0732	-0.195
Mof_N 	N 	0.8268	0.8341	0.2375	-0.343
Mof_H 	H 	0.8089	0.8191	0.2065	0.128
Mof_H 	H 	0.8383	0.7681	0.2577	0.078
Mof_O 	O 	0.8531	0.0176	0.1467	-0.391
Mof_N 	N 	0.0326	0.4399	0.4546	-0.18
Mof_H 	H 	0.053	0.3895	0.4805	0.123
Mof_C 	C 	0.6373	0.7981	0.0291	0.166
Mof_H 	H 	0.6352	0.7652	0.0052	-0.065
Mof_O 	O 	0.8021	0.6174	0.1263	-0.567
Mof_C 	C 	0.5989	0.8379	0.0561	0.247
Mof_N 	N 	0.1444	0.0449	0.4306	-0.347
Mof_H 	H 	0.1398	0.0335	0.4055	0.158
Mof_H 	H 	0.1652	0.995	0.4566	0.144
Mof_O 	O 	0.8227	0.5814	0.1952	-0.577
Mof_C 	C 	0.6431	0.8875	0.1003	-0.28
Mof_H 	H 	0.6455	0.9177	0.1246	0.137
Mof_O 	O 	0.9447	0.829	0.3128	-0.577
Mof_C 	C 	0.6842	0.893	0.1089	0.139
Mof_H 	H 	0.7141	0.9249	0.1394	-0.012
Mof_O 	O 	0.9694	0.7803	0.3839	-0.574
Mof_C 	C 	0.8818	0.0414	0.1923	0.242
Mof_O 	O 	0.88959	0.5905	0.3018	-0.436
Mof_C 	C 	0.9006	0.1787	0.2137	-0.159
Mof_O 	O 	0.9141	0.3864	0.3601	-0.358
Mof_C 	C 	0.9277	0.2073	0.2622	0.121
Mof_H 	H 	0.9372	0.1372	0.2836	-0.024
Mof_O 	O 	0.00175	0.5253	0.4496	-0.454
Mof_C 	C 	0.9414	0.3364	0.2807	-0.241
Mof_H 	H 	0.9588	0.3529	0.3136	0.124
Mof_O 	O 	0.0013	0.5085	0.3823	-0.405
Mof_C 	C 	0.929	0.4419	0.2498	0.209
Mof_O 	O 	0.9021	0.662	0.3847	-0.544
Mof_C 	C 	0.9024	0.4155	0.2015	-0.238
Mof_H 	H 	0.8937	0.4855	0.1805	0.116
Mof_O 	O 	0.9442	0.6496	0.4646	-0.538
Mof_C 	C 	0.8878	0.2834	0.1828	0.107
Mof_H 	H 	0.8696	0.2666	0.1496	-0.006
Mof_C 	C 	0.7952	0.5666	0.15	0.788
Mof_C 	C 	0.751	0.4784	0.1231	-1.308
Mof_H 	H 	0.7459	0.4646	0.1436	0.413
Mof_H 	H 	0.7565	0.3935	0.1161	0.407
Mof_H 	H 	0.7221	0.5203	0.0923	0.401
Mof_C 	C 	0.9705	0.8497	0.3581	0.791
Mof_C 	C 	0.0042	0.9693	0.3824	-1.377
Mof_H 	H 	0.9887	0.042	0.3832	0.446
Mof_H 	H 	0.0106	0.9958	0.3637	0.44
Mof_H 	H 	0.035	0.9466	0.4159	0.429
Mof_C 	C 	0.8827	0.3665	0.3129	0.231
Mof_C 	C 	0.8631	0.2312	0.2914	-0.147
Mof_C 	C 	0.832	0.2048	0.2417	0.112
Mof_H 	H 	0.819	0.2759	0.2196	-0.022
Mof_C 	C 	0.8193	0.0745	0.2234	-0.255
Mof_H 	H 	0.7985	0.0592	0.1896	0.119
Mof_C 	C 	0.8375	0.9679	0.2553	0.214
Mof_C 	C 	0.8663	0.9931	0.3049	-0.218
Mof_H 	H 	0.8773	0.9224	0.3265	0.105
Mof_C 	C 	0.879	0.1237	0.3225	0.08
Mof_H 	H 	0.8987	0.1395	0.3561	0.003
Mof_C 	C 	0.0309	0.4355	0.4189	0.252
Mof_C 	C 	0.0639	0.3372	0.4255	-0.183
Mof_C 	C 	0.0602	0.3209	0.3879	0.114
Mof_H 	H 	0.0395	0.3785	0.3606	-0.017
Mof_C 	C 	0.0856	0.2231	0.3887	-0.267
Mof_H 	H 	0.0801	0.2121	0.3612	0.118
Mof_C 	C 	0.1186	0.1427	0.4291	0.215
Mof_C 	C 	0.124	0.1557	0.4694	-0.247
Mof_H 	H 	0.1458	0.1004	0.4973	0.081
Mof_C 	C 	0.0964	0.2521	0.4663	0.103
Mof_H 	H 	0.0996	0.2601	0.4924	-0.029
Mof_C 	C 	0.9086	0.6884	0.42	0.696
Mof_C 	C 	0.8707	0.7786	0.4108	-1.148
Mof_H 	H 	0.8876	0.8521	0.4339	0.37
Mof_H 	H 	0.8534	0.7273	0.4154	0.365
Mof_H 	H 	0.8472	0.8127	0.3772	0.37
Mof_C 	C 	0.5961	0.7922	0.0201	-0.355
Mof_H 	H 	0.5663	0.7579	0.99	0.172
Mof_C 	C 	0.6349	0.7726	0.91	0.754
Mof_N 	N 	0.7779	0.654	0.9528	-0.184
Mof_H 	H 	0.8072	0.6606	0.9828	0.133
Mof_Zn	Zn	0.67498	0.68012	0.86965	1.247
Mof_O 	O 	0.6742	0.7591	0.9557	-0.574
Mof_N 	N 	0.943	0.6632	0.9528	-0.341
Mof_H 	H 	0.9408	0.6328	0.9306	0.124
Mof_H 	H 	0.9708	0.6943	0.9805	0.105
Mof_C 	C 	0.5889	0.813	0.896	-1.318
Mof_H 	H 	0.5935	0.9009	0.9089	0.437
Mof_H 	H 	0.561	0.8138	0.8603	0.433
Mof_H 	H 	0.5829	0.7499	0.9098	0.423
Mof_Zn	Zn	0.61516	0.79565	0.74584	1.217
Mof_N 	N 	0.603	0.5557	0.7768	-0.187
Mof_H 	H 	0.5822	0.5388	0.7454	0.125
Mof_O 	O 	0.6307	0.7557	0.8751	-0.565
Mof_Zn	Zn	0.5536	0.91192	0.62245	1.248
Mof_O 	O 	0.73716	0.6563	0.9445	-0.44
Mof_N 	N 	0.5581	0.9259	0.7308	-0.338
Mof_H 	H 	0.5672	0.8588	0.7498	0.085
Mof_H 	H 	0.5412	0.9128	0.7	0.109
Mof_O 	O 	0.7299	0.6259	0.8717	-0.377
Mof_N 	N 	0.6316	0.0339	0.717	-0.186
Mof_H 	H 	0.6546	0.0464	0.7488	0.126
Mof_C 	C 	0.7725	0.6421	0.9157	0.224
Mof_O 	O 	0.6195	0.6842	0.7935	-0.433
Mof_C 	C 	0.818	0.6478	0.9268	-0.115
Mof_N 	N 	0.6732	0.6659	0.7625	-0.342
Mof_H 	H 	0.6911	0.6809	0.7935	0.126
Mof_H 	H 	0.6617	0.7319	0.7423	0.079
Mof_O 	O 	0.6469	0.4824	0.8533	-0.385
Mof_N 	N 	0.4674	0.0601	0.5454	-0.183
Mof_H 	H 	0.447	0.1105	0.5195	0.123
Mof_C 	C 	0.8627	0.7019	0.9709	0.03
Mof_H 	H 	0.8648	0.7348	0.9948	0.011
Mof_O 	O 	0.6979	0.8826	0.8737	-0.572
Mof_C 	C 	0.9011	0.6621	0.9439	0.161
Mof_N 	N 	0.3556	0.4551	0.5694	-0.337
Mof_H 	H 	0.3602	0.4665	0.5945	0.159
Mof_H 	H 	0.3348	0.505	0.5434	0.134
Mof_O 	O 	0.6773	0.9186	0.8048	-0.586
Mof_C 	C 	0.8569	0.6125	0.8997	-0.199
Mof_H 	H 	0.8545	0.5823	0.8754	0.107
Mof_O 	O 	0.5553	0.671	0.6872	-0.573
Mof_C 	C 	0.8158	0.607	0.8911	0.065
Mof_H 	H 	0.7859	0.5751	0.8606	0.011
Mof_O 	O 	0.5306	0.7197	0.6161	-0.572
Mof_C 	C 	0.6182	0.4586	0.8077	0.247
Mof_O 	O 	0.61041	0.9095	0.6982	-0.431
Mof_C 	C 	0.5994	0.3213	0.7863	-0.153
Mof_O 	O 	0.5859	0.1136	0.6399	-0.365
Mof_C 	C 	0.5723	0.2927	0.7378	0.11
Mof_H 	H 	0.5628	0.3628	0.7164	-0.019
Mof_O 	O 	0.49825	0.9747	0.5504	-0.437
Mof_C 	C 	0.5586	0.1636	0.7193	-0.229
Mof_H 	H 	0.5412	0.1471	0.6864	0.113
Mof_O 	O 	0.4987	0.9915	0.6177	-0.383
Mof_C 	C 	0.571	0.0581	0.7502	0.189
Mof_O 	O 	0.5979	0.838	0.6153	-0.542
Mof_C 	C 	0.5976	0.0845	0.7985	-0.226
Mof_H 	H 	0.6063	0.0145	0.8195	0.108
Mof_O 	O 	0.5558	0.8504	0.5354	-0.539
Mof_C 	C 	0.6122	0.2166	0.8172	0.097
Mof_H 	H 	0.6304	0.2334	0.8504	0
Mof_C 	C 	0.7048	0.9334	0.85	0.834
Mof_C 	C 	0.749	0.0216	0.8769	-1.426
Mof_H 	H 	0.7541	0.0354	0.8564	0.448
Mof_H 	H 	0.7435	0.1065	0.8839	0.45
Mof_H 	H 	0.7779	0.9797	0.9077	0.454
Mof_C 	C 	0.5295	0.6503	0.6419	0.76
Mof_C 	C 	0.4958	0.5307	0.6176	-1.311
Mof_H 	H 	0.5113	0.458	0.6168	0.425
Mof_H 	H 	0.4894	0.5042	0.6363	0.421
Mof_H 	H 	0.465	0.5534	0.5841	0.41
Mof_C 	C 	0.6173	0.1335	0.6871	0.233
Mof_C 	C 	0.6369	0.2688	0.7086	-0.154
Mof_C 	C 	0.668	0.2952	0.7583	0.112
Mof_H 	H 	0.681	0.2241	0.7804	-0.022
Mof_C 	C 	0.6807	0.4255	0.7766	-0.24
Mof_H 	H 	0.7015	0.4408	0.8104	0.119
Mof_C 	C 	0.6625	0.5321	0.7447	0.206
Mof_C 	C 	0.6337	0.5069	0.6951	-0.24
Mof_H 	H 	0.6227	0.5776	0.6735	0.11
Mof_C 	C 	0.621	0.3763	0.6775	0.104
Mof_H 	H 	0.6013	0.3605	0.6439	-0.003
Mof_C 	C 	0.4691	0.0645	0.5811	0.236
Mof_C 	C 	0.4361	0.1628	0.5745	-0.174
Mof_C 	C 	0.4398	0.1791	0.6121	0.109
Mof_H 	H 	0.4605	0.1215	0.6394	-0.014
Mof_C 	C 	0.4144	0.2769	0.6113	-0.261
Mof_H 	H 	0.4199	0.2879	0.6388	0.118
Mof_C 	C 	0.3814	0.3573	0.5709	0.213
Mof_C 	C 	0.376	0.3443	0.5306	-0.242
Mof_H 	H 	0.3542	0.3996	0.5027	0.083
Mof_C 	C 	0.4036	0.2479	0.5337	0.099
Mof_H 	H 	0.4004	0.2399	0.5076	-0.026
Mof_C 	C 	0.5914	0.8116	0.58	0.693
Mof_C 	C 	0.6293	0.7214	0.5892	-1.139
Mof_H 	H 	0.6124	0.6479	0.5661	0.363
Mof_H 	H 	0.6466	0.7727	0.5846	0.364
Mof_H 	H 	0.6528	0.6873	0.6228	0.365
Mof_C 	C 	0.9039	0.7078	0.9799	-0.118
Mof_H 	H 	0.9337	0.7421	0.01	0.044
Mof_C 	C 	0.1349	0.2726	0.91	0.747
Mof_N 	N 	0.2779	0.154	0.9528	-0.184
Mof_H 	H 	0.3072	0.1606	0.9828	0.133
Mof_Zn	Zn	0.17498	0.18012	0.86965	1.245
Mof_O 	O 	0.1742	0.2591	0.9557	-0.571
Mof_N 	N 	0.443	0.1632	0.9528	-0.337
Mof_H 	H 	0.4408	0.1328	0.9306	0.119
Mof_H 	H 	0.4708	0.1943	0.9805	0.1
Mof_C 	C 	0.0889	0.313	0.896	-1.302
Mof_H 	H 	0.0935	0.4009	0.9089	0.43
Mof_H 	H 	0.061	0.3138	0.8603	0.423
Mof_H 	H 	0.0829	0.2499	0.9098	0.415
Mof_Zn	Zn	0.11516	0.29565	0.74584	1.217
Mof_N 	N 	0.103	0.0557	0.7768	-0.196
Mof_H 	H 	0.0822	0.0388	0.7454	0.121
Mof_O 	O 	0.1307	0.2557	0.8751	-0.568
Mof_Zn	Zn	0.0536	0.41192	0.62245	1.244
Mof_O 	O 	0.23716	0.1563	0.9445	-0.442
Mof_N 	N 	0.0581	0.4259	0.7308	-0.343
Mof_H 	H 	0.0672	0.3588	0.7498	0.083
Mof_H 	H 	0.0412	0.4128	0.7	0.105
Mof_O 	O 	0.2299	0.1259	0.8717	-0.38
Mof_N 	N 	0.1316	0.5339	0.717	-0.181
Mof_H 	H 	0.1546	0.5464	0.7488	0.128
Mof_C 	C 	0.2725	0.1421	0.9157	0.22
Mof_O 	O 	0.1195	0.1842	0.7935	-0.436
Mof_C 	C 	0.318	0.1478	0.9268	-0.109
Mof_N 	N 	0.1732	0.1659	0.7625	-0.34
Mof_H 	H 	0.1911	0.1809	0.7935	0.123
Mof_H 	H 	0.1617	0.2319	0.7423	0.077
Mof_O 	O 	0.1469	0.9824	0.8533	-0.38
Mof_N 	N 	0.9674	0.5601	0.5454	-0.179
Mof_H 	H 	0.947	0.6105	0.5195	0.126
Mof_C 	C 	0.3627	0.2019	0.9709	0.015
Mof_H 	H 	0.3648	0.2348	0.9948	0.016
Mof_O 	O 	0.1979	0.3826	0.8737	-0.564
Mof_C 	C 	0.4011	0.1621	0.9439	0.148
Mof_N 	N 	0.8556	0.9551	0.5694	-0.322
Mof_H 	H 	0.8602	0.9665	0.5945	0.16
Mof_H 	H 	0.8348	0.005	0.5434	0.118
Mof_O 	O 	0.1773	0.4186	0.8048	-0.581
Mof_C 	C 	0.3569	0.1125	0.8997	-0.192
Mof_H 	H 	0.3545	0.0823	0.8754	0.101
Mof_O 	O 	0.0553	0.171	0.6872	-0.571
Mof_C 	C 	0.3158	0.107	0.8911	0.056
Mof_H 	H 	0.2859	0.0751	0.8606	0.011
Mof_O 	O 	0.0306	0.2197	0.6161	-0.573
Mof_C 	C 	0.1182	0.9586	0.8077	0.261
Mof_O 	O 	0.11041	0.4095	0.6982	-0.438
Mof_C 	C 	0.0994	0.8213	0.7863	-0.158
Mof_O 	O 	0.0859	0.6136	0.6399	-0.364
Mof_C 	C 	0.0723	0.7927	0.7378	0.116
Mof_H 	H 	0.0628	0.8628	0.7164	-0.018
Mof_O 	O 	0.99825	0.4747	0.5504	-0.439
Mof_C 	C 	0.0586	0.6636	0.7193	-0.236
Mof_H 	H 	0.0412	0.6471	0.6864	0.115
Mof_O 	O 	0.9987	0.4915	0.6177	-0.389
Mof_C 	C 	0.071	0.5581	0.7502	0.199
Mof_O 	O 	0.0979	0.338	0.6153	-0.546
Mof_C 	C 	0.0976	0.5845	0.7985	-0.233
Mof_H 	H 	0.1063	0.5145	0.8195	0.114
Mof_O 	O 	0.0558	0.3504	0.5354	-0.546
Mof_C 	C 	0.1122	0.7166	0.8172	0.103
Mof_H 	H 	0.1304	0.7334	0.8504	-0
Mof_C 	C 	0.2048	0.4334	0.85	0.803
Mof_C 	C 	0.249	0.5216	0.8769	-1.348
Mof_H 	H 	0.2541	0.5354	0.8564	0.428
Mof_H 	H 	0.2435	0.6065	0.8839	0.431
Mof_H 	H 	0.2779	0.4797	0.9077	0.426
Mof_C 	C 	0.0295	0.1503	0.6419	0.737
Mof_C 	C 	0.9958	0.0307	0.6176	-1.273
Mof_H 	H 	0.0113	0.958	0.6168	0.415
Mof_H 	H 	0.9894	0.0042	0.6363	0.408
Mof_H 	H 	0.965	0.0534	0.5841	0.397
Mof_C 	C 	0.1173	0.6335	0.6871	0.235
Mof_C 	C 	0.1369	0.7688	0.7086	-0.159
Mof_C 	C 	0.168	0.7952	0.7583	0.11
Mof_H 	H 	0.181	0.7241	0.7804	-0.019
Mof_C 	C 	0.1807	0.9255	0.7766	-0.221
Mof_H 	H 	0.2015	0.9408	0.8104	0.118
Mof_C 	C 	0.1625	0.0321	0.7447	0.194
Mof_C 	C 	0.1337	0.0069	0.6951	-0.261
Mof_H 	H 	0.1227	0.0776	0.6735	0.114
Mof_C 	C 	0.121	0.8763	0.6775	0.127
Mof_H 	H 	0.1013	0.8605	0.6439	-0.009
Mof_C 	C 	0.9691	0.5645	0.5811	0.253
Mof_C 	C 	0.9361	0.6628	0.5745	-0.176
Mof_C 	C 	0.9398	0.6791	0.6121	0.114
Mof_H 	H 	0.9605	0.6215	0.6394	-0.01
Mof_C 	C 	0.9144	0.7769	0.6113	-0.26
Mof_H 	H 	0.9199	0.7879	0.6388	0.121
Mof_C 	C 	0.8814	0.8573	0.5709	0.217
Mof_C 	C 	0.876	0.8443	0.5306	-0.242
Mof_H 	H 	0.8542	0.8996	0.5027	0.091
Mof_C 	C 	0.9036	0.7479	0.5337	0.106
Mof_H 	H 	0.9004	0.7399	0.5076	-0.026
Mof_C 	C 	0.0914	0.3116	0.58	0.688
Mof_C 	C 	0.1293	0.2214	0.5892	-1.127
Mof_H 	H 	0.1124	0.1479	0.5661	0.355
Mof_H 	H 	0.1466	0.2727	0.5846	0.357
Mof_H 	H 	0.1528	0.1873	0.6228	0.359
Mof_C 	C 	0.4039	0.2078	0.9799	-0.098
Mof_H 	H 	0.4337	0.2421	0.01	0.029
Mof_Zn	Zn	0.25	0.25	-0	1.19
Mof_Zn	Zn	0.75	0.75	-0	1.192
Mof_Zn	Zn	4.36288e-17	0.5	0.5	1.214
Mof_Zn	Zn	0.5	0	0.5	1.214
Mof_C 	C 	0.6349	0.2274	0.41	0.746
Mof_N 	N 	0.7779	0.346	0.4528	-0.185
Mof_H 	H 	0.8072	0.3394	0.4828	0.121
Mof_Zn	Zn	0.67498	0.31988	0.36965	1.245
Mof_O 	O 	0.6742	0.2409	0.4557	-0.592
Mof_N 	N 	0.943	0.3368	0.4528	-0.349
Mof_H 	H 	0.9408	0.3672	0.4306	0.123
Mof_H 	H 	0.9708	0.3057	0.4805	0.091
Mof_C 	C 	0.5889	0.187	0.396	-1.295
Mof_H 	H 	0.5935	0.0991	0.4089	0.418
Mof_H 	H 	0.561	0.1862	0.3603	0.422
Mof_H 	H 	0.5829	0.2501	0.4098	0.41
Mof_Zn	Zn	0.61516	0.20435	0.24584	1.216
Mof_N 	N 	0.603	0.4443	0.2768	-0.188
Mof_H 	H 	0.5822	0.4612	0.2454	0.126
Mof_O 	O 	0.6307	0.2443	0.3751	-0.569
Mof_Zn	Zn	0.5536	0.08808	0.12245	1.245
Mof_O 	O 	0.73716	0.3437	0.4445	-0.452
Mof_N 	N 	0.5581	0.0741	0.2308	-0.358
Mof_H 	H 	0.5672	0.1412	0.2498	0.085
Mof_H 	H 	0.5412	0.0872	0.2	0.109
Mof_O 	O 	0.7299	0.3741	0.3717	-0.38
Mof_N 	N 	0.6316	0.9661	0.217	-0.173
Mof_H 	H 	0.6546	0.9536	0.2488	0.131
Mof_C 	C 	0.7725	0.3579	0.4157	0.233
Mof_O 	O 	0.6195	0.3158	0.2935	-0.434
Mof_C 	C 	0.818	0.3522	0.4268	-0.153
Mof_N 	N 	0.6732	0.3341	0.2625	-0.341
Mof_H 	H 	0.6911	0.3191	0.2935	0.125
Mof_H 	H 	0.6617	0.2681	0.2423	0.076
Mof_O 	O 	0.6469	0.5176	0.3533	-0.387
Mof_N 	N 	0.4674	0.9399	0.0454	-0.175
Mof_H 	H 	0.447	0.8895	0.0195	0.113
Mof_C 	C 	0.8627	0.2981	0.4709	0.094
Mof_H 	H 	0.8648	0.2652	0.4948	-0.026
Mof_O 	O 	0.6979	0.1174	0.3737	-0.553
Mof_C 	C 	0.9011	0.3379	0.4439	0.199
Mof_N 	N 	0.3556	0.5449	0.0694	-0.336
Mof_H 	H 	0.3602	0.5335	0.0945	0.157
Mof_H 	H 	0.3348	0.495	0.0434	0.127
Mof_O 	O 	0.6773	0.0814	0.3048	-0.569
Mof_C 	C 	0.8569	0.3875	0.3997	-0.238
Mof_H 	H 	0.8545	0.4177	0.3754	0.119
Mof_O 	O 	0.5553	0.329	0.1872	-0.572
Mof_C 	C 	0.8158	0.393	0.3911	0.099
Mof_H 	H 	0.7859	0.4249	0.3606	-0.001
Mof_O 	O 	0.5306	0.2803	0.1161	-0.573
Mof_C 	C 	0.6182	0.5414	0.3077	0.253
Mof_O 	O 	0.61041	0.0905	0.1982	-0.448
Mof_C 	C 	0.5994	0.6787	0.2863	-0.167
Mof_O 	O 	0.5859	0.8864	0.1399	-0.356
Mof_C 	C 	0.5723	0.7073	0.2378	0.131
Mof_H 	H 	0.5628	0.6372	0.2164	-0.026
Mof_O 	O 	0.49825	0.0253	0.0504	-0.467
Mof_C 	C 	0.5586	0.8364	0.2193	-0.255
Mof_H 	H 	0.5412	0.8529	0.1864	0.128
Mof_O 	O 	0.4987	0.0085	0.1177	-0.418
Mof_C 	C 	0.571	0.9419	0.2502	0.231
Mof_O 	O 	0.5979	0.162	0.1153	-0.549
Mof_C 	C 	0.5976	0.9155	0.2985	-0.251
Mof_H 	H 	0.6063	0.9855	0.3195	0.128
Mof_O 	O 	0.5558	0.1496	0.0354	-0.563
Mof_C 	C 	0.6122	0.7834	0.3172	0.119
Mof_H 	H 	0.6304	0.7666	0.3504	-0.006
Mof_C 	C 	0.7048	0.0666	0.35	0.734
Mof_C 	C 	0.749	0.9784	0.3769	-1.172
Mof_H 	H 	0.7541	0.9646	0.3564	0.38
Mof_H 	H 	0.7435	0.8935	0.3839	0.377
Mof_H 	H 	0.7779	0.0203	0.4077	0.355
Mof_C 	C 	0.5295	0.3497	0.1419	0.756
Mof_C 	C 	0.4958	0.4693	0.1176	-1.301
Mof_H 	H 	0.5113	0.542	0.1168	0.42
Mof_H 	H 	0.4894	0.4958	0.1363	0.418
Mof_H 	H 	0.465	0.4466	0.0841	0.403
Mof_C 	C 	0.6173	0.8665	0.1871	0.234
Mof_C 	C 	0.6369	0.7312	0.2086	-0.153
Mof_C 	C 	0.668	0.7048	0.2583	0.111
Mof_H 	H 	0.681	0.7759	0.2804	-0.018
Mof_C 	C 	0.6807	0.5745	0.2766	-0.238
Mof_H 	H 	0.7015	0.5592	0.3104	0.119
Mof_C 	C 	0.6625	0.4679	0.2447	0.205
Mof_C 	C 	0.6337	0.4931	0.1951	-0.24
Mof_H 	H 	0.6227	0.4224	0.1735	0.109
Mof_C 	C 	0.621	0.6237	0.1775	0.104
Mof_H 	H 	0.6013	0.6395	0.1439	-0.005
Mof_C 	C 	0.4691	0.9355	0.0811	0.273
Mof_C 	C 	0.4361	0.8372	0.0745	-0.188
Mof_C 	C 	0.4398	0.8209	0.1121	0.119
Mof_H 	H 	0.4605	0.8785	0.1394	-0.01
Mof_C 	C 	0.4144	0.7231	0.1113	-0.265
Mof_H 	H 	0.4199	0.7121	0.1388	0.12
Mof_C 	C 	0.3814	0.6427	0.0709	0.213
Mof_C 	C 	0.376	0.6557	0.0306	-0.248
Mof_H 	H 	0.3542	0.6004	0.0027	0.073
Mof_C 	C 	0.4036	0.7521	0.0337	0.107
Mof_H 	H 	0.4004	0.7601	0.0076	-0.039
Mof_C 	C 	0.5914	0.1884	0.08	0.686
Mof_C 	C 	0.6293	0.2786	0.0892	-1.121
Mof_H 	H 	0.6124	0.3521	0.0661	0.349
Mof_H 	H 	0.6466	0.2273	0.0846	0.347
Mof_H 	H 	0.6528	0.3127	0.1228	0.357
Mof_C 	C 	0.9039	0.2922	0.4799	-0.232
Mof_H 	H 	0.9337	0.2579	0.51	0.104
Mof_C 	C 	0.1349	0.7274	0.41	0.75
Mof_N 	N 	0.2779	0.846	0.4528	-0.185
Mof_H 	H 	0.3072	0.8394	0.4828	0.122
Mof_Zn	Zn	0.17498	0.81988	0.36965	1.247
Mof_O 	O 	0.1742	0.7409	0.4557	-0.591
Mof_N 	N 	0.443	0.8368	0.4528	-0.348
Mof_H 	H 	0.4408	0.8672	0.4306	0.123
Mof_H 	H 	0.4708	0.8057	0.4805	0.088
Mof_C 	C 	0.0889	0.687	0.396	-1.3
Mof_H 	H 	0.0935	0.5991	0.4089	0.424
Mof_H 	H 	0.061	0.6862	0.3603	0.424
Mof_H 	H 	0.0829	0.7501	0.4098	0.412
Mof_Zn	Zn	0.11516	0.70435	0.24584	1.216
Mof_N 	N 	0.103	0.9443	0.2768	-0.181
Mof_H 	H 	0.0822	0.9612	0.2454	0.126
Mof_O 	O 	0.1307	0.7443	0.3751	-0.566
Mof_Zn	Zn	0.0536	0.58808	0.12245	1.243
Mof_O 	O 	0.23716	0.8437	0.4445	-0.449
Mof_N 	N 	0.0581	0.5741	0.2308	-0.343
Mof_H 	H 	0.0672	0.6412	0.2498	0.083
Mof_H 	H 	0.0412	0.5872	0.2	0.104
Mof_O 	O 	0.2299	0.8741	0.3717	-0.377
Mof_N 	N 	0.1316	0.4661	0.217	-0.181
Mof_H 	H 	0.1546	0.4536	0.2488	0.127
Mof_C 	C 	0.2725	0.8579	0.4157	0.233
Mof_O 	O 	0.1195	0.8158	0.2935	-0.433
Mof_C 	C 	0.318	0.8522	0.4268	-0.152
Mof_N 	N 	0.1732	0.8341	0.2625	-0.343
Mof_H 	H 	0.1911	0.8191	0.2935	0.127
Mof_H 	H 	0.1617	0.7681	0.2423	0.078
Mof_O 	O 	0.1469	0.0176	0.3533	-0.39
Mof_N 	N 	0.9674	0.4399	0.0454	-0.178
Mof_H 	H 	0.947	0.3895	0.0195	0.114
Mof_C 	C 	0.3627	0.7981	0.4709	0.094
Mof_H 	H 	0.3648	0.7652	0.4948	-0.026
Mof_O 	O 	0.1979	0.6174	0.3737	-0.566
Mof_C 	C 	0.4011	0.8379	0.4439	0.201
Mof_N 	N 	0.8556	0.0449	0.0694	-0.345
Mof_H 	H 	0.8602	0.0335	0.0945	0.157
Mof_H 	H 	0.8348	0.995	0.0434	0.137
Mof_O 	O 	0.1773	0.5814	0.3048	-0.579
Mof_C 	C 	0.3569	0.8875	0.3997	-0.235
Mof_H 	H 	0.3545	0.9177	0.3754	0.122
Mof_O 	O 	0.0553	0.829	0.1872	-0.554
Mof_C 	C 	0.3158	0.893	0.3911	0.1
Mof_H 	H 	0.2859	0.9249	0.3606	0.002
Mof_O 	O 	0.0306	0.7803	0.1161	-0.558
Mof_C 	C 	0.1182	0.0414	0.3077	0.238
Mof_O 	O 	0.11041	0.5905	0.1982	-0.438
Mof_C 	C 	0.0994	0.1787	0.2863	-0.156
Mof_O 	O 	0.0859	0.3864	0.1399	-0.365
Mof_C 	C 	0.0723	0.2073	0.2378	0.113
Mof_H 	H 	0.0628	0.1372	0.2164	-0.023
Mof_O 	O 	0.99825	0.5253	0.0504	-0.446
Mof_C 	C 	0.0586	0.3364	0.2193	-0.235
Mof_H 	H 	0.0412	0.3529	0.1864	0.113
Mof_O 	O 	0.9987	0.5085	0.1177	-0.386
Mof_C 	C 	0.071	0.4419	0.2502	0.198
Mof_O 	O 	0.0979	0.662	0.1153	-0.548
Mof_C 	C 	0.0976	0.4155	0.2985	-0.232
Mof_H 	H 	0.1063	0.4855	0.3195	0.113
Mof_O 	O 	0.0558	0.6496	0.0354	-0.564
Mof_C 	C 	0.1122	0.2834	0.3172	0.101
Mof_H 	H 	0.1304	0.2666	0.3504	-0.003
Mof_C 	C 	0.2048	0.5666	0.35	0.795
Mof_C 	C 	0.249	0.4784	0.3769	-1.325
Mof_H 	H 	0.2541	0.4646	0.3564	0.42
Mof_H 	H 	0.2435	0.3935	0.3839	0.417
Mof_H 	H 	0.2779	0.5203	0.4077	0.412
Mof_C 	C 	0.0295	0.8497	0.1419	0.689
Mof_C 	C 	0.9958	0.9693	0.1176	-1.112
Mof_H 	H 	0.0113	0.042	0.1168	0.346
Mof_H 	H 	0.9894	0.9958	0.1363	0.371
Mof_H 	H 	0.965	0.9466	0.0841	0.354
Mof_C 	C 	0.1173	0.3665	0.1871	0.232
Mof_C 	C 	0.1369	0.2312	0.2086	-0.15
Mof_C 	C 	0.168	0.2048	0.2583	0.114
Mof_H 	H 	0.181	0.2759	0.2804	-0.022
Mof_C 	C 	0.1807	0.0745	0.2766	-0.256
Mof_H 	H 	0.2015	0.0592	0.3104	0.12
Mof_C 	C 	0.1625	0.9679	0.2447	0.215
Mof_C 	C 	0.1337	0.9931	0.1951	-0.221
Mof_H 	H 	0.1227	0.9224	0.1735	0.105
Mof_C 	C 	0.121	0.1237	0.1775	0.084
Mof_H 	H 	0.1013	0.1395	0.1439	-0.001
Mof_C 	C 	0.9691	0.4355	0.0811	0.248
Mof_C 	C 	0.9361	0.3372	0.0745	-0.176
Mof_C 	C 	0.9398	0.3209	0.1121	0.11
Mof_H 	H 	0.9605	0.3785	0.1394	-0.008
Mof_C 	C 	0.9144	0.2231	0.1113	-0.259
Mof_H 	H 	0.9199	0.2121	0.1388	0.119
Mof_C 	C 	0.8814	0.1427	0.0709	0.209
Mof_C 	C 	0.876	0.1557	0.0306	-0.243
Mof_H 	H 	0.8542	0.1004	0.0027	0.069
Mof_C 	C 	0.9036	0.2521	0.0337	0.099
Mof_H 	H 	0.9004	0.2601	0.0076	-0.036
Mof_C 	C 	0.0914	0.6884	0.08	0.692
Mof_C 	C 	0.1293	0.7786	0.0892	-1.133
Mof_H 	H 	0.1124	0.8521	0.0661	0.355
Mof_H 	H 	0.1466	0.7273	0.0846	0.354
Mof_H 	H 	0.1528	0.8127	0.1228	0.364
Mof_C 	C 	0.4039	0.7922	0.4799	-0.229
Mof_H 	H 	0.4337	0.7579	0.51	0.103
Mof_C 	C 	0.3651	0.7726	0.59	0.755
Mof_N 	N 	0.2221	0.654	0.5472	-0.185
Mof_H 	H 	0.1928	0.6606	0.5172	0.121
Mof_Zn	Zn	0.32502	0.68012	0.63035	1.246
Mof_O 	O 	0.3258	0.7591	0.5443	-0.592
Mof_N 	N 	0.057	0.6632	0.5472	-0.346
Mof_H 	H 	0.0592	0.6328	0.5694	0.118
Mof_H 	H 	0.0292	0.6943	0.5195	0.083
Mof_C 	C 	0.4111	0.813	0.604	-1.314
Mof_H 	H 	0.4065	0.9009	0.5911	0.432
Mof_H 	H 	0.439	0.8138	0.6397	0.432
Mof_H 	H 	0.4171	0.7499	0.5902	0.417
Mof_Zn	Zn	0.38484	0.79565	0.75416	1.218
Mof_N 	N 	0.397	0.5557	0.7232	-0.187
Mof_H 	H 	0.4178	0.5388	0.7546	0.125
Mof_O 	O 	0.3693	0.7557	0.6249	-0.566
Mof_Zn	Zn	0.4464	0.91192	0.87755	1.249
Mof_O 	O 	0.26284	0.6563	0.5555	-0.451
Mof_N 	N 	0.4419	0.9259	0.7692	-0.338
Mof_H 	H 	0.4328	0.8588	0.7502	0.085
Mof_H 	H 	0.4588	0.9128	0.8	0.109
Mof_O 	O 	0.2701	0.6259	0.6283	-0.38
Mof_N 	N 	0.3684	0.0339	0.783	-0.186
Mof_H 	H 	0.3454	0.0464	0.7512	0.126
Mof_C 	C 	0.2275	0.6421	0.5843	0.232
Mof_O 	O 	0.3805	0.6842	0.7065	-0.432
Mof_C 	C 	0.182	0.6478	0.5732	-0.152
Mof_N 	N 	0.3268	0.6659	0.7375	-0.342
Mof_H 	H 	0.3089	0.6809	0.7065	0.126
Mof_H 	H 	0.3383	0.7319	0.7577	0.079
Mof_O 	O 	0.3531	0.4824	0.6467	-0.387
Mof_N 	N 	0.5326	0.0601	0.9546	-0.185
Mof_H 	H 	0.553	0.1105	0.9805	0.137
Mof_C 	C 	0.1373	0.7019	0.5291	0.091
Mof_H 	H 	0.1352	0.7348	0.5052	-0.025
Mof_O 	O 	0.3021	0.8826	0.6263	-0.574
Mof_C 	C 	0.0989	0.6621	0.5561	0.197
Mof_N 	N 	0.6444	0.4551	0.9306	-0.34
Mof_H 	H 	0.6398	0.4665	0.9055	0.161
Mof_H 	H 	0.6652	0.505	0.9566	0.142
Mof_O 	O 	0.3227	0.9186	0.6952	-0.585
Mof_C 	C 	0.1431	0.6125	0.6003	-0.234
Mof_H 	H 	0.1455	0.5823	0.6246	0.119
Mof_O 	O 	0.4447	0.671	0.8128	-0.573
Mof_C 	C 	0.1842	0.607	0.6089	0.098
Mof_H 	H 	0.2141	0.5751	0.6394	-0
Mof_O 	O 	0.4694	0.7197	0.8839	-0.571
Mof_C 	C 	0.3818	0.4586	0.6923	0.248
Mof_O 	O 	0.38959	0.9095	0.8018	-0.43
Mof_C 	C 	0.4006	0.3213	0.7137	-0.154
Mof_O 	O 	0.4141	0.1136	0.8601	-0.364
Mof_C 	C 	0.4277	0.2927	0.7622	0.111
Mof_H 	H 	0.4372	0.3628	0.7836	-0.019
Mof_O 	O 	0.50175	0.9747	0.9496	-0.424
Mof_C 	C 	0.4414	0.1636	0.7807	-0.229
Mof_H 	H 	0.4588	0.1471	0.8136	0.113
Mof_O 	O 	0.5013	0.9915	0.8823	-0.383
Mof_C 	C 	0.429	0.0581	0.7498	0.189
Mof_O 	O 	0.4021	0.838	0.8847	-0.541
Mof_C 	C 	0.4024	0.0845	0.7015	-0.227
Mof_H 	H 	0.3937	0.0145	0.6805	0.108
Mof_O 	O 	0.4442	0.8504	0.9646	-0.517
Mof_C 	C 	0.3878	0.2166	0.6828	0.098
Mof_H 	H 	0.3696	0.2334	0.6496	-0.002
Mof_C 	C 	0.2952	0.9334	0.65	0.831
Mof_C 	C 	0.251	0.0216	0.6231	-1.417
Mof_H 	H 	0.2459	0.0354	0.6436	0.444
Mof_H 	H 	0.2565	0.1065	0.6161	0.443
Mof_H 	H 	0.2221	0.9797	0.5923	0.446
Mof_C 	C 	0.4705	0.6503	0.8581	0.763
Mof_C 	C 	0.5042	0.5307	0.8824	-1.32
Mof_H 	H 	0.4887	0.458	0.8832	0.429
Mof_H 	H 	0.5106	0.5042	0.8637	0.424
Mof_H 	H 	0.535	0.5534	0.9159	0.417
Mof_C 	C 	0.3827	0.1335	0.8129	0.232
Mof_C 	C 	0.3631	0.2688	0.7914	-0.153
Mof_C 	C 	0.332	0.2952	0.7417	0.111
Mof_H 	H 	0.319	0.2241	0.7196	-0.022
Mof_C 	C 	0.3193	0.4255	0.7234	-0.239
Mof_H 	H 	0.2985	0.4408	0.6896	0.118
Mof_C 	C 	0.3375	0.5321	0.7553	0.205
Mof_C 	C 	0.3663	0.5069	0.8049	-0.239
Mof_H 	H 	0.3773	0.5776	0.8265	0.11
Mof_C 	C 	0.379	0.3763	0.8225	0.103
Mof_H 	H 	0.3987	0.3605	0.8561	-0.001
Mof_C 	C 	0.5309	0.0645	0.9189	0.242
Mof_C 	C 	0.5639	0.1628	0.9255	-0.174
Mof_C 	C 	0.5602	0.1791	0.8879	0.112
Mof_H 	H 	0.5395	0.1215	0.8606	-0.014
Mof_C 	C 	0.5856	0.2769	0.8887	-0.264
Mof_H 	H 	0.5801	0.2879	0.8612	0.12
Mof_C 	C 	0.6186	0.3573	0.9291	0.22
Mof_C 	C 	0.624	0.3443	0.9694	-0.242
Mof_H 	H 	0.6458	0.3996	0.9973	0.096
Mof_C 	C 	0.5964	0.2479	0.9663	0.104
Mof_H 	H 	0.5996	0.2399	0.9924	-0.016
Mof_C 	C 	0.4086	0.8116	0.92	0.695
Mof_C 	C 	0.3707	0.7214	0.9108	-1.151
Mof_H 	H 	0.3876	0.6479	0.9339	0.375
Mof_H 	H 	0.3534	0.7727	0.9154	0.373
Mof_H 	H 	0.3472	0.6873	0.8772	0.37
Mof_C 	C 	0.0961	0.7078	0.5201	-0.227
Mof_H 	H 	0.0663	0.7421	0.49	0.1
Mof_C 	C 	0.8651	0.2726	0.59	0.752
Mof_N 	N 	0.7221	0.154	0.5472	-0.186
Mof_H 	H 	0.6928	0.1606	0.5172	0.12
Mof_Zn	Zn	0.82502	0.18012	0.63035	1.244
Mof_O 	O 	0.8258	0.2591	0.5443	-0.593
Mof_N 	N 	0.557	0.1632	0.5472	-0.347
Mof_H 	H 	0.5592	0.1328	0.5694	0.117
Mof_H 	H 	0.5292	0.1943	0.5195	0.086
Mof_C 	C 	0.9111	0.313	0.604	-1.312
Mof_H 	H 	0.9065	0.4009	0.5911	0.429
Mof_H 	H 	0.939	0.3138	0.6397	0.431
Mof_H 	H 	0.9171	0.2499	0.5902	0.416
Mof_Zn	Zn	0.88484	0.29565	0.75416	1.217
Mof_N 	N 	0.897	0.0557	0.7232	-0.197
Mof_H 	H 	0.9178	0.0388	0.7546	0.124
Mof_O 	O 	0.8693	0.2557	0.6249	-0.569
Mof_Zn	Zn	0.9464	0.41192	0.87755	1.25
Mof_O 	O 	0.76284	0.1563	0.5555	-0.455
Mof_N 	N 	0.9419	0.4259	0.7692	-0.346
Mof_H 	H 	0.9328	0.3588	0.7502	0.087
Mof_H 	H 	0.9588	0.4128	0.8	0.112
Mof_O 	O 	0.7701	0.1259	0.6283	-0.384
Mof_N 	N 	0.8684	0.5339	0.783	-0.181
Mof_H 	H 	0.8454	0.5464	0.7512	0.128
Mof_C 	C 	0.7275	0.1421	0.5843	0.231
Mof_O 	O 	0.8805	0.1842	0.7065	-0.434
Mof_C 	C 	0.682	0.1478	0.5732	-0.154
Mof_N 	N 	0.8268	0.1659	0.7375	-0.34
Mof_H 	H 	0.8089	0.1809	0.7065	0.124
Mof_H 	H 	0.8383	0.2319	0.7577	0.077
Mof_O 	O 	0.8531	0.9824	0.6467	-0.382
Mof_N 	N 	0.0326	0.5601	0.9546	-0.182
Mof_H 	H 	0.053	0.6105	0.9805	0.139
Mof_C 	C 	0.6373	0.2019	0.5291	0.091
Mof_H 	H 	0.6352	0.2348	0.5052	-0.026
Mof_O 	O 	0.8021	0.3826	0.6263	-0.566
Mof_C 	C 	0.5989	0.1621	0.5561	0.196
Mof_N 	N 	0.1444	0.9551	0.9306	-0.326
Mof_H 	H 	0.1398	0.9665	0.9055	0.162
Mof_H 	H 	0.1652	0.005	0.9566	0.128
Mof_O 	O 	0.8227	0.4186	0.6952	-0.58
Mof_C 	C 	0.6431	0.1125	0.6003	-0.237
Mof_H 	H 	0.6455	0.0823	0.6246	0.116
Mof_O 	O 	0.9447	0.171	0.8128	-0.588
Mof_C 	C 	0.6842	0.107	0.6089	0.097
Mof_H 	H 	0.7141	0.0751	0.6394	-0.003
Mof_O 	O 	0.9694	0.2197	0.8839	-0.584
Mof_C 	C 	0.8818	0.9586	0.6923	0.264
Mof_O 	O 	0.88959	0.4095	0.8018	-0.437
Mof_C 	C 	0.9006	0.8213	0.7137	-0.161
Mof_O 	O 	0.9141	0.6136	0.8601	-0.358
Mof_C 	C 	0.9277	0.7927	0.7622	0.122
Mof_H 	H 	0.9372	0.8628	0.7836	-0.018
Mof_O 	O 	0.00175	0.4747	0.9496	-0.439
Mof_C 	C 	0.9414	0.6636	0.7807	-0.24
Mof_H 	H 	0.9588	0.6471	0.8136	0.122
Mof_O 	O 	0.0013	0.4915	0.8823	-0.404
Mof_C 	C 	0.929	0.5581	0.7498	0.208
Mof_O 	O 	0.9021	0.338	0.8847	-0.542
Mof_C 	C 	0.9024	0.5845	0.7015	-0.237
Mof_H 	H 	0.8937	0.5145	0.6805	0.116
Mof_O 	O 	0.9442	0.3504	0.9646	-0.519
Mof_C 	C 	0.8878	0.7166	0.6828	0.109
Mof_H 	H 	0.8696	0.7334	0.6496	-0.004
Mof_C 	C 	0.7952	0.4334	0.65	0.797
Mof_C 	C 	0.751	0.5216	0.6231	-1.33
Mof_H 	H 	0.7459	0.5354	0.6436	0.422
Mof_H 	H 	0.7565	0.6065	0.6161	0.42
Mof_H 	H 	0.7221	0.4797	0.5923	0.414
Mof_C 	C 	0.9705	0.1503	0.8581	0.816
Mof_C 	C 	0.0042	0.0307	0.8824	-1.475
Mof_H 	H 	0.9887	0.958	0.8832	0.491
Mof_H 	H 	0.0106	0.0042	0.8637	0.461
Mof_H 	H 	0.035	0.0534	0.9159	0.457
Mof_C 	C 	0.8827	0.6335	0.8129	0.234
Mof_C 	C 	0.8631	0.7688	0.7914	-0.156
Mof_C 	C 	0.832	0.7952	0.7417	0.108
Mof_H 	H 	0.819	0.7241	0.7196	-0.018
Mof_C 	C 	0.8193	0.9255	0.7234	-0.22
Mof_H 	H 	0.7985	0.9408	0.6896	0.117
Mof_C 	C 	0.8375	0.0321	0.7553	0.193
Mof_C 	C 	0.8663	0.0069	0.8049	-0.258
Mof_H 	H 	0.8773	0.0776	0.8265	0.114
Mof_C 	C 	0.879	0.8763	0.8225	0.123
Mof_H 	H 	0.8987	0.8605	0.8561	-0.006
Mof_C 	C 	0.0309	0.5645	0.9189	0.258
Mof_C 	C 	0.0639	0.6628	0.9255	-0.181
Mof_C 	C 	0.0602	0.6791	0.8879	0.119
Mof_H 	H 	0.0395	0.6215	0.8606	-0.017
Mof_C 	C 	0.0856	0.7769	0.8887	-0.268
Mof_H 	H 	0.0801	0.7879	0.8612	0.121
Mof_C 	C 	0.1186	0.8573	0.9291	0.225
Mof_C 	C 	0.124	0.8443	0.9694	-0.245
Mof_H 	H 	0.1458	0.8996	0.9973	0.104
Mof_C 	C 	0.0964	0.7479	0.9663	0.111
Mof_H 	H 	0.0996	0.7399	0.9924	-0.017
Mof_C 	C 	0.9086	0.3116	0.92	0.69
Mof_C 	C 	0.8707	0.2214	0.9108	-1.14
Mof_H 	H 	0.8876	0.1479	0.9339	0.369
Mof_H 	H 	0.8534	0.2727	0.9154	0.366
Mof_H 	H 	0.8472	0.1873	0.8772	0.364
Mof_C 	C 	0.5961	0.2078	0.5201	-0.23
Mof_H 	H 	0.5663	0.2421	0.49	0.102
Mof_Zn	Zn	0.75	0.25	0.5	1.203
Mof_Zn	Zn	0.25	0.75	0.5	1.204
Mof_Zn	Zn	-1.21094e-33	0.5	-0	1.202
Mof_Zn	Zn	0.5	0	-0	1.201
_end
