data_functionalizedCrystal
_audit_creation_method	'EQeq! by Chris Wilmer'
_symmetry_space_group_name_H-M	'P1'
_symmetry_Int_Tables_number	1
_symmetry_cell_setting	triclinic
loop_
_symmetry_equiv_pos_as_xyz
  x,y,z
_cell_length_a	7.4022
_cell_length_b	11.0853
_cell_length_c	19.2932
_cell_angle_alpha	90
_cell_angle_beta	90
_cell_angle_gamma	90
loop_
_atom_site_label
_atom_site_type_symbol
_atom_site_fract_x
_atom_site_fract_y
_atom_site_fract_z
_atom_site_charge
Mof_N 	N 	0.1598	0.067	0.8401	-0.232
Mof_N 	N 	0.845	0.9311	0.9877	-0.196
Mof_C 	C 	0.104	0.1248	0.7843	-0.045
Mof_H 	H 	0.9837	0.1368	0.7721	-0.026
Mof_C 	C 	0.8906	0.8692	0.044	0.147
Mof_H 	H 	0.01	0.8538	0.0562	-0.113
Mof_N 	N 	0.6598	0.567	0.3401	-0.222
Mof_N 	N 	0.345	0.4311	0.4877	-0.239
Mof_C 	C 	0.604	0.6248	0.2843	0.059
Mof_H 	H 	0.4837	0.6368	0.2721	-0.067
Mof_C 	C 	0.3906	0.3692	0.544	0.07
Mof_H 	H 	0.51	0.3538	0.5562	-0.083
Mof_N 	N 	0.8402	0.933	0.8401	-0.196
Mof_N 	N 	0.155	0.0689	0.9877	-0.239
Mof_C 	C 	0.896	0.8752	0.7843	0.151
Mof_H 	H 	0.0163	0.8632	0.7721	-0.107
Mof_C 	C 	0.1094	0.1308	0.044	-0.034
Mof_H 	H 	0.99	0.1462	0.0562	-0.033
Mof_N 	N 	0.3402	0.433	0.3401	-0.226
Mof_N 	N 	0.655	0.5689	0.4877	-0.235
Mof_C 	C 	0.396	0.3752	0.2843	0.049
Mof_H 	H 	0.5163	0.3632	0.2721	-0.075
Mof_C 	C 	0.6094	0.6308	0.544	0.078
Mof_H 	H 	0.49	0.6462	0.5562	-0.074
Mof_N 	N 	0.6598	0.933	0.8401	-0.192
Mof_N 	N 	0.345	0.0689	0.9877	-0.246
Mof_C 	C 	0.604	0.8752	0.7843	0.071
Mof_H 	H 	0.4837	0.8632	0.7721	-0.053
Mof_C 	C 	0.3906	0.1308	0.044	0.048
Mof_H 	H 	0.51	0.1462	0.0562	-0.09
Mof_N 	N 	0.1598	0.433	0.3401	-0.218
Mof_N 	N 	0.845	0.5689	0.4877	-0.238
Mof_C 	C 	0.104	0.3752	0.2843	-0.033
Mof_H 	H 	0.9837	0.3632	0.2721	-0.019
Mof_C 	C 	0.8906	0.6308	0.544	0.16
Mof_H 	H 	0.01	0.6462	0.5562	-0.13
Mof_N 	N 	0.3402	0.067	0.8401	-0.24
Mof_N 	N 	0.655	0.9311	0.9877	-0.194
Mof_C 	C 	0.396	0.1248	0.7843	0.039
Mof_H 	H 	0.5163	0.1368	0.7721	-0.084
Mof_C 	C 	0.6094	0.8692	0.044	0.069
Mof_H 	H 	0.49	0.8538	0.0562	-0.06
Mof_N 	N 	0.8402	0.567	0.3401	-0.226
Mof_N 	N 	0.155	0.4311	0.4877	-0.231
Mof_C 	C 	0.896	0.6248	0.2843	0.14
Mof_H 	H 	0.0163	0.6368	0.2721	-0.121
Mof_C 	C 	0.1094	0.3692	0.544	-0.015
Mof_H 	H 	0.99	0.3538	0.5562	-0.026
Mof_Cu	Cu	-2.29518e-32	0	0.91473	0.761
Mof_Cu	Cu	0.5	0.5	0.41473	0.822
Mof_Cu	Cu	0.5	0	0.91473	0.78
Mof_Cu	Cu	-3.9198e-33	0.5	0.41473	0.803
Mof_Cu	Cu	0.25	0.2445	0.66273	0.758
Mof_N 	N 	0.25	0.1646	0.747	-0.302
Mof_N 	N 	0.25	0.3307	0.5817	-0.314
Mof_Cu	Cu	0.75	0.7445	0.16273	0.79
Mof_N 	N 	0.75	0.6646	0.247	-0.31
Mof_N 	N 	0.75	0.8307	0.0817	-0.317
Mof_Cu	Cu	0.75	0.7555	0.66273	0.792
Mof_N 	N 	0.75	0.8354	0.747	-0.308
Mof_N 	N 	0.75	0.6693	0.5817	-0.322
Mof_Cu	Cu	0.25	0.2555	0.16273	0.758
Mof_N 	N 	0.25	0.3354	0.247	-0.302
Mof_N 	N 	0.25	0.1693	0.0817	-0.312
_end
