data_functionalizedCrystal
_audit_creation_method	'EQeq! by Chris Wilmer'
_symmetry_space_group_name_H-M	'P1'
_symmetry_Int_Tables_number	1
_symmetry_cell_setting	triclinic
loop_
_symmetry_equiv_pos_as_xyz
  x,y,z
_cell_length_a	23.0299
_cell_length_b	23.0299
_cell_length_c	24.3973
_cell_angle_alpha	90
_cell_angle_beta	90
_cell_angle_gamma	90
loop_
_atom_site_label
_atom_site_type_symbol
_atom_site_fract_x
_atom_site_fract_y
_atom_site_fract_z
_atom_site_charge
Mof_O 	O 	0.7289	0.5155	0.5395	-0.869
Mof_O 	O 	0.7084	0.4372	0.6344	-0.477
Mof_O 	O 	0.7483	0.3838	0.5677	-0.476
Mof_O 	O 	0.6361	0.5464	0.6199	-0.656
Mof_N 	N 	0.6771	0.0918	0.7572	-0.215
Mof_N 	N 	0.679	0.183	0.7346	-0.166
Mof_C 	C 	0.7246	0.3911	0.6133	0.441
Mof_C 	C 	0.6441	0.1796	0.7765	0.022
Mof_H 	H 	0.6241	0.2096	0.7937	-0.028
Mof_C 	C 	0.6894	0.2366	0.7049	0.221
Mof_C 	C 	0.7124	0.3355	0.6458	-0.246
Mof_C 	C 	0.6825	0.3389	0.6938	0.181
Mof_H 	H 	0.6697	0.3746	0.707	-0.08
Mof_H 	H 	0.7323	0.6237	0.5331	0.699
Mof_H 	H 	0.7284	0.6237	0.469	0.693
Mof_H 	H 	0.7892	0.6237	0.4979	0.679
Mof_C 	C 	0.7	0.1295	0.7234	0.095
Mof_H 	H 	0.7266	0.1208	0.6959	0.007
Mof_C 	C 	0.6714	0.288	0.7226	-0.275
Mof_H 	H 	0.6508	0.2901	0.7554	0.08
Mof_C 	C 	0.6436	0.1248	0.7888	-0.008
Mof_H 	H 	0.6216	0.1098	0.8174	0.02
Mof_C 	C 	0.722	0.2333	0.6576	-0.292
Mof_H 	H 	0.7368	0.1978	0.6459	0.12
Mof_C 	C 	0.7324	0.2827	0.628	0.176
Mof_H 	H 	0.7533	0.2804	0.5954	-0.058
Mof_H 	H 	0.6223	0.6829	0.6291	0.461
Mof_H 	H 	0.5782	0.6388	0.6549	0.426
Mof_H 	H 	0.5836	0.6442	0.591	0.447
Mof_O 	O 	0.2289	0.0155	0.0395	-0.809
Mof_O 	O 	0.2084	0.9372	0.1344	-0.485
Mof_O 	O 	0.2483	0.8838	0.0677	-0.472
Mof_O 	O 	0.1361	0.0464	0.1199	-0.638
Mof_N 	N 	0.1771	0.5918	0.2572	-0.216
Mof_N 	N 	0.179	0.683	0.2346	-0.164
Mof_C 	C 	0.2246	0.8911	0.1133	0.441
Mof_C 	C 	0.1441	0.6796	0.2765	0.023
Mof_H 	H 	0.1241	0.7096	0.2937	-0.027
Mof_C 	C 	0.1894	0.7366	0.2049	0.22
Mof_C 	C 	0.2124	0.8355	0.1458	-0.239
Mof_C 	C 	0.1825	0.8389	0.1938	0.176
Mof_H 	H 	0.1697	0.8746	0.207	-0.073
Mof_H 	H 	0.2323	0.1237	0.0331	0.589
Mof_H 	H 	0.2284	0.1237	0.969	0.571
Mof_H 	H 	0.2892	0.1237	0.9979	0.553
Mof_C 	C 	0.2	0.6295	0.2234	0.095
Mof_H 	H 	0.2266	0.6208	0.1959	0.008
Mof_C 	C 	0.1714	0.788	0.2226	-0.269
Mof_H 	H 	0.1508	0.7901	0.2554	0.079
Mof_C 	C 	0.1436	0.6248	0.2888	-0.009
Mof_H 	H 	0.1216	0.6098	0.3174	0.016
Mof_C 	C 	0.222	0.7333	0.1576	-0.286
Mof_H 	H 	0.2368	0.6978	0.1459	0.123
Mof_C 	C 	0.2324	0.7827	0.128	0.173
Mof_H 	H 	0.2533	0.7804	0.0954	-0.051
Mof_H 	H 	0.1223	0.1829	0.1291	0.471
Mof_H 	H 	0.0782	0.1388	0.1549	0.438
Mof_H 	H 	0.0836	0.1442	0.091	0.458
Mof_O 	O 	0.7711	0.4845	0.0395	-0.823
Mof_O 	O 	0.7916	0.5628	0.1344	-0.476
Mof_O 	O 	0.7517	0.6162	0.0677	-0.469
Mof_O 	O 	0.8639	0.4536	0.1199	-0.656
Mof_N 	N 	0.8229	0.9082	0.2572	-0.222
Mof_N 	N 	0.821	0.817	0.2346	-0.165
Mof_C 	C 	0.7754	0.6089	0.1133	0.441
Mof_C 	C 	0.8559	0.8204	0.2765	0.022
Mof_H 	H 	0.8759	0.7904	0.2937	-0.027
Mof_C 	C 	0.8106	0.7634	0.2049	0.221
Mof_C 	C 	0.7876	0.6645	0.1458	-0.241
Mof_C 	C 	0.8175	0.6611	0.1938	0.179
Mof_H 	H 	0.8303	0.6254	0.207	-0.079
Mof_H 	H 	0.7677	0.3763	0.0331	0.591
Mof_H 	H 	0.7716	0.3763	0.969	0.572
Mof_H 	H 	0.7108	0.3763	0.9979	0.554
Mof_C 	C 	0.8	0.8705	0.2234	0.095
Mof_H 	H 	0.7734	0.8792	0.1959	0.007
Mof_C 	C 	0.8286	0.712	0.2226	-0.273
Mof_H 	H 	0.8492	0.7099	0.2554	0.08
Mof_C 	C 	0.8564	0.8752	0.2888	-0.009
Mof_H 	H 	0.8784	0.8902	0.3174	0.012
Mof_C 	C 	0.778	0.7667	0.1576	-0.289
Mof_H 	H 	0.7632	0.8022	0.1459	0.124
Mof_C 	C 	0.7676	0.7173	0.128	0.175
Mof_H 	H 	0.7467	0.7196	0.0954	-0.052
Mof_H 	H 	0.8777	0.3171	0.1291	0.468
Mof_H 	H 	0.9218	0.3612	0.1549	0.432
Mof_H 	H 	0.9164	0.3558	0.091	0.455
Mof_O 	O 	0.2711	0.9845	0.5395	-0.883
Mof_O 	O 	0.2916	0.0628	0.6344	-0.461
Mof_O 	O 	0.2517	0.1162	0.5677	-0.47
Mof_O 	O 	0.3639	0.9536	0.6199	-0.662
Mof_N 	N 	0.3229	0.4082	0.7572	-0.216
Mof_N 	N 	0.321	0.317	0.7346	-0.164
Mof_C 	C 	0.2754	0.1089	0.6133	0.438
Mof_C 	C 	0.3559	0.3204	0.7765	0.022
Mof_H 	H 	0.3759	0.2904	0.7937	-0.027
Mof_C 	C 	0.3106	0.2634	0.7049	0.218
Mof_C 	C 	0.2876	0.1645	0.6458	-0.238
Mof_C 	C 	0.3175	0.1611	0.6938	0.173
Mof_H 	H 	0.3303	0.1254	0.707	-0.07
Mof_H 	H 	0.2677	0.8763	0.5331	0.7
Mof_H 	H 	0.2716	0.8763	0.469	0.694
Mof_H 	H 	0.2108	0.8763	0.4979	0.679
Mof_C 	C 	0.3	0.3705	0.7234	0.094
Mof_H 	H 	0.2734	0.3792	0.6959	0.008
Mof_C 	C 	0.3286	0.212	0.7226	-0.268
Mof_H 	H 	0.3492	0.2099	0.7554	0.079
Mof_C 	C 	0.3564	0.3752	0.7888	-0.009
Mof_H 	H 	0.3784	0.3902	0.8174	0.016
Mof_C 	C 	0.278	0.2667	0.6576	-0.287
Mof_H 	H 	0.2632	0.3022	0.6459	0.118
Mof_C 	C 	0.2676	0.2173	0.628	0.171
Mof_H 	H 	0.2467	0.2196	0.5954	-0.057
Mof_H 	H 	0.3777	0.8171	0.6291	0.465
Mof_H 	H 	0.4218	0.8612	0.6549	0.432
Mof_H 	H 	0.4164	0.8558	0.591	0.45
Mof_O 	O 	0.7345	0.4789	0.7895	-0.868
Mof_O 	O 	0.8128	0.4584	0.8844	-0.478
Mof_O 	O 	0.8662	0.4983	0.8177	-0.477
Mof_O 	O 	0.7036	0.3861	0.8699	-0.648
Mof_N 	N 	0.1582	0.4271	0.0072	-0.194
Mof_N 	N 	0.067	0.429	0.9846	-0.188
Mof_C 	C 	0.8589	0.4746	0.8633	0.452
Mof_C 	C 	0.0704	0.3941	0.0265	0.066
Mof_H 	H 	0.0404	0.3741	0.0437	-0.04
Mof_C 	C 	0.0134	0.4394	0.9549	0.262
Mof_C 	C 	0.9145	0.4624	0.8958	-0.278
Mof_C 	C 	0.9111	0.4325	0.9438	0.236
Mof_H 	H 	0.8754	0.4197	0.957	-0.102
Mof_H 	H 	0.6263	0.4823	0.7831	0.699
Mof_H 	H 	0.6263	0.4784	0.719	0.693
Mof_H 	H 	0.6263	0.5392	0.7479	0.678
Mof_C 	C 	0.1205	0.45	0.9734	0.064
Mof_H 	H 	0.1292	0.4766	0.9459	0.013
Mof_C 	C 	0.962	0.4214	0.9726	-0.371
Mof_H 	H 	0.9599	0.4008	0.0054	0.131
Mof_C 	C 	0.1252	0.3936	0.0388	-0.026
Mof_H 	H 	0.1402	0.3716	0.0674	0.024
Mof_C 	C 	0.0167	0.472	0.9076	-0.329
Mof_H 	H 	0.0522	0.4868	0.8959	0.132
Mof_C 	C 	0.9673	0.4824	0.878	0.21
Mof_H 	H 	0.9696	0.5033	0.8454	-0.07
Mof_H 	H 	0.5671	0.3723	0.8791	0.461
Mof_H 	H 	0.6112	0.3282	0.9049	0.427
Mof_H 	H 	0.6058	0.3336	0.841	0.447
Mof_O 	O 	0.2345	0.9789	0.2895	-0.848
Mof_O 	O 	0.3128	0.9584	0.3844	-0.477
Mof_O 	O 	0.3662	0.9983	0.3177	-0.487
Mof_O 	O 	0.2036	0.8861	0.3699	-0.658
Mof_N 	N 	0.6582	0.9271	0.5072	-0.22
Mof_N 	N 	0.567	0.929	0.4846	-0.16
Mof_C 	C 	0.3589	0.9746	0.3633	0.422
Mof_C 	C 	0.5704	0.8941	0.5265	0.017
Mof_H 	H 	0.5404	0.8741	0.5437	-0.026
Mof_C 	C 	0.5134	0.9394	0.4549	0.18
Mof_C 	C 	0.4145	0.9624	0.3958	-0.197
Mof_C 	C 	0.4111	0.9325	0.4438	0.134
Mof_H 	H 	0.3754	0.9197	0.457	-0.066
Mof_H 	H 	0.1263	0.9823	0.2831	0.575
Mof_H 	H 	0.1263	0.9784	0.219	0.571
Mof_H 	H 	0.1263	0.0392	0.2479	0.571
Mof_C 	C 	0.6205	0.95	0.4734	0.089
Mof_H 	H 	0.6292	0.9766	0.4459	0.001
Mof_C 	C 	0.462	0.9214	0.4726	-0.235
Mof_H 	H 	0.4599	0.9008	0.5054	0.064
Mof_C 	C 	0.6252	0.8936	0.5388	-0.01
Mof_H 	H 	0.6402	0.8716	0.5674	0.014
Mof_C 	C 	0.5167	0.972	0.4076	-0.226
Mof_H 	H 	0.5522	0.9868	0.3959	0.091
Mof_C 	C 	0.4673	0.9824	0.378	0.07
Mof_H 	H 	0.4696	0.0033	0.3454	0.003
Mof_H 	H 	0.0671	0.8723	0.3791	0.464
Mof_H 	H 	0.1112	0.8282	0.4049	0.429
Mof_H 	H 	0.1058	0.8336	0.341	0.452
Mof_O 	O 	0.7655	0.5211	0.2895	-0.868
Mof_O 	O 	0.6872	0.5416	0.3844	-0.476
Mof_O 	O 	0.6338	0.5017	0.3177	-0.475
Mof_O 	O 	0.7964	0.6139	0.3699	-0.655
Mof_N 	N 	0.3418	0.5729	0.5072	-0.216
Mof_N 	N 	0.433	0.571	0.4846	-0.165
Mof_C 	C 	0.6411	0.5254	0.3633	0.442
Mof_C 	C 	0.4296	0.6059	0.5265	0.022
Mof_H 	H 	0.4596	0.6259	0.5437	-0.028
Mof_C 	C 	0.4866	0.5606	0.4549	0.221
Mof_C 	C 	0.5855	0.5376	0.3958	-0.245
Mof_C 	C 	0.5889	0.5675	0.4438	0.181
Mof_H 	H 	0.6246	0.5803	0.457	-0.08
Mof_H 	H 	0.8737	0.5177	0.2831	0.699
Mof_H 	H 	0.8737	0.5216	0.219	0.693
Mof_H 	H 	0.8737	0.4608	0.2479	0.678
Mof_C 	C 	0.3795	0.55	0.4734	0.094
Mof_H 	H 	0.3708	0.5234	0.4459	0.007
Mof_C 	C 	0.538	0.5786	0.4726	-0.274
Mof_H 	H 	0.5401	0.5992	0.5054	0.08
Mof_C 	C 	0.3748	0.6064	0.5388	-0.01
Mof_H 	H 	0.3598	0.6284	0.5674	0.016
Mof_C 	C 	0.4833	0.528	0.4076	-0.292
Mof_H 	H 	0.4478	0.5132	0.3959	0.12
Mof_C 	C 	0.5327	0.5176	0.378	0.176
Mof_H 	H 	0.5304	0.4967	0.3454	-0.058
Mof_H 	H 	0.9329	0.6277	0.3791	0.461
Mof_H 	H 	0.8888	0.6718	0.4049	0.426
Mof_H 	H 	0.8942	0.6664	0.341	0.448
Mof_O 	O 	0.2655	0.0211	0.7895	-0.821
Mof_O 	O 	0.1872	0.0416	0.8844	-0.48
Mof_O 	O 	0.1338	0.0017	0.8177	-0.469
Mof_O 	O 	0.2964	0.1139	0.8699	-0.649
Mof_N 	N 	0.8418	0.0729	0.0072	-0.191
Mof_N 	N 	0.933	0.071	0.9846	-0.193
Mof_C 	C 	0.1411	0.0254	0.8633	0.472
Mof_C 	C 	0.9296	0.1059	0.0265	0.071
Mof_H 	H 	0.9596	0.1259	0.0437	-0.041
Mof_C 	C 	0.9866	0.0606	0.9549	0.304
Mof_C 	C 	0.0855	0.0376	0.8958	-0.325
Mof_C 	C 	0.0889	0.0675	0.9438	0.283
Mof_H 	H 	0.1246	0.0803	0.957	-0.115
Mof_H 	H 	0.3737	0.0177	0.7831	0.623
Mof_H 	H 	0.3737	0.0216	0.719	0.619
Mof_H 	H 	0.3737	0.9608	0.7479	0.589
Mof_C 	C 	0.8795	0.05	0.9734	0.07
Mof_H 	H 	0.8708	0.0234	0.9459	0.021
Mof_C 	C 	0.038	0.0786	0.9726	-0.41
Mof_H 	H 	0.0401	0.0992	0.0054	0.146
Mof_C 	C 	0.8748	0.1064	0.0388	-0.025
Mof_H 	H 	0.8598	0.1284	0.0674	0.025
Mof_C 	C 	0.9833	0.028	0.9076	-0.393
Mof_H 	H 	0.9478	0.0132	0.8959	0.167
Mof_C 	C 	0.0327	0.0176	0.878	0.315
Mof_H 	H 	0.0304	0.9967	0.8454	-0.124
Mof_H 	H 	0.4329	0.1277	0.8791	0.466
Mof_H 	H 	0.3888	0.1718	0.9049	0.43
Mof_H 	H 	0.3942	0.1664	0.841	0.451
Mof_O 	O 	0.7711	0.5155	0.4605	-0.868
Mof_O 	O 	0.7916	0.4372	0.3656	-0.476
Mof_O 	O 	0.7517	0.3838	0.4323	-0.475
Mof_O 	O 	0.8639	0.5464	0.3801	-0.655
Mof_N 	N 	0.8229	0.0918	0.2428	-0.214
Mof_N 	N 	0.821	0.183	0.2654	-0.165
Mof_C 	C 	0.7754	0.3911	0.3867	0.442
Mof_C 	C 	0.8559	0.1796	0.2235	0.023
Mof_H 	H 	0.8759	0.2096	0.2063	-0.027
Mof_C 	C 	0.8106	0.2366	0.2951	0.221
Mof_C 	C 	0.7876	0.3355	0.3542	-0.245
Mof_C 	C 	0.8175	0.3389	0.3062	0.18
Mof_H 	H 	0.8303	0.3746	0.293	-0.08
Mof_H 	H 	0.7677	0.6237	0.4669	0.699
Mof_H 	H 	0.7716	0.6237	0.531	0.693
Mof_H 	H 	0.7108	0.6237	0.5021	0.679
Mof_C 	C 	0.8	0.1295	0.2766	0.094
Mof_H 	H 	0.7734	0.1208	0.3041	0.007
Mof_C 	C 	0.8286	0.288	0.2774	-0.274
Mof_H 	H 	0.8492	0.2901	0.2446	0.08
Mof_C 	C 	0.8564	0.1248	0.2112	-0.009
Mof_H 	H 	0.8784	0.1098	0.1826	0.02
Mof_C 	C 	0.778	0.2333	0.3424	-0.292
Mof_H 	H 	0.7632	0.1978	0.3541	0.12
Mof_C 	C 	0.7676	0.2827	0.372	0.176
Mof_H 	H 	0.7467	0.2804	0.4046	-0.058
Mof_H 	H 	0.8777	0.6829	0.3709	0.461
Mof_H 	H 	0.9218	0.6388	0.3451	0.426
Mof_H 	H 	0.9164	0.6442	0.409	0.447
Mof_O 	O 	0.2711	0.0155	0.9605	-0.832
Mof_O 	O 	0.2916	0.9372	0.8656	-0.488
Mof_O 	O 	0.2517	0.8838	0.9323	-0.487
Mof_O 	O 	0.3639	0.0464	0.8801	-0.639
Mof_N 	N 	0.3229	0.5918	0.7428	-0.216
Mof_N 	N 	0.321	0.683	0.7654	-0.165
Mof_C 	C 	0.2754	0.8911	0.8867	0.444
Mof_C 	C 	0.3559	0.6796	0.7235	0.022
Mof_H 	H 	0.3759	0.7096	0.7063	-0.028
Mof_C 	C 	0.3106	0.7366	0.7951	0.221
Mof_C 	C 	0.2876	0.8355	0.8542	-0.246
Mof_C 	C 	0.3175	0.8389	0.8062	0.179
Mof_H 	H 	0.3303	0.8746	0.793	-0.075
Mof_H 	H 	0.2677	0.1237	0.9669	0.608
Mof_H 	H 	0.2716	0.1237	0.031	0.618
Mof_H 	H 	0.2108	0.1237	0.0021	0.607
Mof_C 	C 	0.3	0.6295	0.7766	0.094
Mof_H 	H 	0.2734	0.6208	0.8041	0.008
Mof_C 	C 	0.3286	0.788	0.7774	-0.273
Mof_H 	H 	0.3492	0.7901	0.7446	0.08
Mof_C 	C 	0.3564	0.6248	0.7112	-0.009
Mof_H 	H 	0.3784	0.6098	0.6826	0.016
Mof_C 	C 	0.278	0.7333	0.8424	-0.293
Mof_H 	H 	0.2632	0.6978	0.8541	0.123
Mof_C 	C 	0.2676	0.7827	0.872	0.177
Mof_H 	H 	0.2467	0.7804	0.9046	-0.059
Mof_H 	H 	0.3777	0.1829	0.8709	0.464
Mof_H 	H 	0.4218	0.1388	0.8451	0.432
Mof_H 	H 	0.4164	0.1442	0.909	0.45
Mof_O 	O 	0.7289	0.4845	0.9605	-0.847
Mof_O 	O 	0.7084	0.5628	0.8656	-0.479
Mof_O 	O 	0.7483	0.6162	0.9323	-0.484
Mof_O 	O 	0.6361	0.4536	0.8801	-0.657
Mof_N 	N 	0.6771	0.9082	0.7428	-0.222
Mof_N 	N 	0.679	0.817	0.7654	-0.165
Mof_C 	C 	0.7246	0.6089	0.8867	0.444
Mof_C 	C 	0.6441	0.8204	0.7235	0.022
Mof_H 	H 	0.6241	0.7904	0.7063	-0.028
Mof_C 	C 	0.6894	0.7634	0.7951	0.223
Mof_C 	C 	0.7124	0.6645	0.8542	-0.249
Mof_C 	C 	0.6825	0.6611	0.8062	0.183
Mof_H 	H 	0.6697	0.6254	0.793	-0.081
Mof_H 	H 	0.7323	0.3763	0.9669	0.61
Mof_H 	H 	0.7284	0.3763	0.031	0.619
Mof_H 	H 	0.7892	0.3763	0.0021	0.608
Mof_C 	C 	0.7	0.8705	0.7766	0.095
Mof_H 	H 	0.7266	0.8792	0.8041	0.007
Mof_C 	C 	0.6714	0.712	0.7774	-0.277
Mof_H 	H 	0.6508	0.7099	0.7446	0.081
Mof_C 	C 	0.6436	0.8752	0.7112	-0.009
Mof_H 	H 	0.6216	0.8902	0.6826	0.012
Mof_C 	C 	0.722	0.7667	0.8424	-0.295
Mof_H 	H 	0.7368	0.8022	0.8541	0.124
Mof_C 	C 	0.7324	0.7173	0.872	0.179
Mof_H 	H 	0.7533	0.7196	0.9046	-0.06
Mof_H 	H 	0.6223	0.3171	0.8709	0.462
Mof_H 	H 	0.5782	0.3612	0.8451	0.426
Mof_H 	H 	0.5836	0.3558	0.909	0.448
Mof_O 	O 	0.2289	0.9845	0.4605	-0.883
Mof_O 	O 	0.2084	0.0628	0.3656	-0.461
Mof_O 	O 	0.2483	0.1162	0.4323	-0.47
Mof_O 	O 	0.1361	0.9536	0.3801	-0.662
Mof_N 	N 	0.1771	0.4082	0.2428	-0.216
Mof_N 	N 	0.179	0.317	0.2654	-0.164
Mof_C 	C 	0.2246	0.1089	0.3867	0.438
Mof_C 	C 	0.1441	0.3204	0.2235	0.022
Mof_H 	H 	0.1241	0.2904	0.2063	-0.027
Mof_C 	C 	0.1894	0.2634	0.2951	0.217
Mof_C 	C 	0.2124	0.1645	0.3542	-0.238
Mof_C 	C 	0.1825	0.1611	0.3062	0.173
Mof_H 	H 	0.1697	0.1254	0.293	-0.071
Mof_H 	H 	0.2323	0.8763	0.4669	0.7
Mof_H 	H 	0.2284	0.8763	0.531	0.694
Mof_H 	H 	0.2892	0.8763	0.5021	0.679
Mof_C 	C 	0.2	0.3705	0.2766	0.094
Mof_H 	H 	0.2266	0.3792	0.3041	0.008
Mof_C 	C 	0.1714	0.212	0.2774	-0.268
Mof_H 	H 	0.1508	0.2099	0.2446	0.079
Mof_C 	C 	0.1436	0.3752	0.2112	-0.009
Mof_H 	H 	0.1216	0.3902	0.1826	0.015
Mof_C 	C 	0.222	0.2667	0.3424	-0.287
Mof_H 	H 	0.2368	0.3022	0.3541	0.118
Mof_C 	C 	0.2324	0.2173	0.372	0.17
Mof_H 	H 	0.2533	0.2196	0.4046	-0.057
Mof_H 	H 	0.1223	0.8171	0.3709	0.465
Mof_H 	H 	0.0782	0.8612	0.3451	0.432
Mof_H 	H 	0.0836	0.8558	0.409	0.451
Mof_O 	O 	0.7655	0.4789	0.2105	-0.869
Mof_O 	O 	0.6872	0.4584	0.1156	-0.468
Mof_O 	O 	0.6338	0.4983	0.1823	-0.471
Mof_O 	O 	0.7964	0.3861	0.1301	-0.65
Mof_N 	N 	0.3418	0.4271	0.9928	-0.241
Mof_N 	N 	0.433	0.429	0.0154	-0.141
Mof_C 	C 	0.6411	0.4746	0.1367	0.427
Mof_C 	C 	0.4296	0.3941	0.9735	-0.022
Mof_H 	H 	0.4596	0.3741	0.9563	-0.014
Mof_C 	C 	0.4866	0.4394	0.0451	0.176
Mof_C 	C 	0.5855	0.4624	0.1042	-0.202
Mof_C 	C 	0.5889	0.4325	0.0562	0.114
Mof_H 	H 	0.6246	0.4197	0.043	-0.042
Mof_H 	H 	0.8737	0.4823	0.2169	0.699
Mof_H 	H 	0.8737	0.4784	0.281	0.693
Mof_H 	H 	0.8737	0.5392	0.2521	0.679
Mof_C 	C 	0.3795	0.45	0.0266	0.125
Mof_H 	H 	0.3708	0.4766	0.0541	0
Mof_C 	C 	0.538	0.4214	0.0274	-0.166
Mof_H 	H 	0.5401	0.4008	0.9946	0.027
Mof_C 	C 	0.3748	0.3936	0.9612	0.008
Mof_H 	H 	0.3598	0.3716	0.9326	0.008
Mof_C 	C 	0.4833	0.472	0.0924	-0.247
Mof_H 	H 	0.4478	0.4868	0.1041	0.105
Mof_C 	C 	0.5327	0.4824	0.122	0.134
Mof_H 	H 	0.5304	0.5033	0.1546	-0.044
Mof_H 	H 	0.9329	0.3723	0.1209	0.468
Mof_H 	H 	0.8888	0.3282	0.0951	0.437
Mof_H 	H 	0.8942	0.3336	0.159	0.453
Mof_O 	O 	0.2655	0.9789	0.7105	-0.848
Mof_O 	O 	0.1872	0.9584	0.6156	-0.477
Mof_O 	O 	0.1338	0.9983	0.6823	-0.486
Mof_O 	O 	0.2964	0.8861	0.6301	-0.658
Mof_N 	N 	0.8418	0.9271	0.4928	-0.22
Mof_N 	N 	0.933	0.929	0.5154	-0.16
Mof_C 	C 	0.1411	0.9746	0.6367	0.422
Mof_C 	C 	0.9296	0.8941	0.4735	0.017
Mof_H 	H 	0.9596	0.8741	0.4563	-0.026
Mof_C 	C 	0.9866	0.9394	0.5451	0.181
Mof_C 	C 	0.0855	0.9624	0.6042	-0.198
Mof_C 	C 	0.0889	0.9325	0.5562	0.134
Mof_H 	H 	0.1246	0.9197	0.543	-0.066
Mof_H 	H 	0.3737	0.9823	0.7169	0.574
Mof_H 	H 	0.3737	0.9784	0.781	0.569
Mof_H 	H 	0.3737	0.0392	0.7521	0.57
Mof_C 	C 	0.8795	0.95	0.5266	0.089
Mof_H 	H 	0.8708	0.9766	0.5541	0.001
Mof_C 	C 	0.038	0.9214	0.5274	-0.235
Mof_H 	H 	0.0401	0.9008	0.4946	0.064
Mof_C 	C 	0.8748	0.8936	0.4612	-0.01
Mof_H 	H 	0.8598	0.8716	0.4326	0.014
Mof_C 	C 	0.9833	0.972	0.5924	-0.226
Mof_H 	H 	0.9478	0.9868	0.6041	0.092
Mof_C 	C 	0.0327	0.9824	0.622	0.072
Mof_H 	H 	0.0304	0.0033	0.6546	0.002
Mof_H 	H 	0.4329	0.8723	0.6209	0.463
Mof_H 	H 	0.3888	0.8282	0.5951	0.429
Mof_H 	H 	0.3942	0.8336	0.659	0.451
Mof_O 	O 	0.7345	0.5211	0.7105	-0.868
Mof_O 	O 	0.8128	0.5416	0.6156	-0.476
Mof_O 	O 	0.8662	0.5017	0.6823	-0.474
Mof_O 	O 	0.7036	0.6139	0.6301	-0.655
Mof_N 	N 	0.1582	0.5729	0.4928	-0.216
Mof_N 	N 	0.067	0.571	0.5154	-0.165
Mof_C 	C 	0.8589	0.5254	0.6367	0.442
Mof_C 	C 	0.0704	0.6059	0.4735	0.022
Mof_H 	H 	0.0404	0.6259	0.4563	-0.028
Mof_C 	C 	0.0134	0.5606	0.5451	0.221
Mof_C 	C 	0.9145	0.5376	0.6042	-0.245
Mof_C 	C 	0.9111	0.5675	0.5562	0.18
Mof_H 	H 	0.8754	0.5803	0.543	-0.08
Mof_H 	H 	0.6263	0.5177	0.7169	0.699
Mof_H 	H 	0.6263	0.5216	0.781	0.693
Mof_H 	H 	0.6263	0.4608	0.7521	0.678
Mof_C 	C 	0.1205	0.55	0.5266	0.094
Mof_H 	H 	0.1292	0.5234	0.5541	0.007
Mof_C 	C 	0.962	0.5786	0.5274	-0.274
Mof_H 	H 	0.9599	0.5992	0.4946	0.08
Mof_C 	C 	0.1252	0.6064	0.4612	-0.01
Mof_H 	H 	0.1402	0.6284	0.4326	0.016
Mof_C 	C 	0.0167	0.528	0.5924	-0.291
Mof_H 	H 	0.0522	0.5132	0.6041	0.12
Mof_C 	C 	0.9673	0.5176	0.622	0.176
Mof_H 	H 	0.9696	0.4967	0.6546	-0.058
Mof_H 	H 	0.5671	0.6277	0.6209	0.461
Mof_H 	H 	0.6112	0.6718	0.5951	0.426
Mof_H 	H 	0.6058	0.6664	0.659	0.447
Mof_O 	O 	0.2345	0.0211	0.2105	-0.822
Mof_O 	O 	0.3128	0.0416	0.1156	-0.47
Mof_O 	O 	0.3662	0.0017	0.1823	-0.463
Mof_O 	O 	0.2036	0.1139	0.1301	-0.65
Mof_N 	N 	0.6582	0.0729	0.9928	-0.237
Mof_N 	N 	0.567	0.071	0.0154	-0.146
Mof_C 	C 	0.3589	0.0254	0.1367	0.448
Mof_C 	C 	0.5704	0.1059	0.9735	-0.015
Mof_H 	H 	0.5404	0.1259	0.9563	-0.015
Mof_C 	C 	0.5134	0.0606	0.0451	0.219
Mof_C 	C 	0.4145	0.0376	0.1042	-0.251
Mof_C 	C 	0.4111	0.0675	0.0562	0.162
Mof_H 	H 	0.3754	0.0803	0.043	-0.057
Mof_H 	H 	0.1263	0.0177	0.2169	0.624
Mof_H 	H 	0.1263	0.0216	0.281	0.62
Mof_H 	H 	0.1263	0.9608	0.2521	0.59
Mof_C 	C 	0.6205	0.05	0.0266	0.13
Mof_H 	H 	0.6292	0.0234	0.0541	0.008
Mof_C 	C 	0.462	0.0786	0.0274	-0.207
Mof_H 	H 	0.4599	0.0992	0.9946	0.043
Mof_C 	C 	0.6252	0.1064	0.9612	0.009
Mof_H 	H 	0.6402	0.1284	0.9326	0.01
Mof_C 	C 	0.5167	0.028	0.0924	-0.313
Mof_H 	H 	0.5522	0.0132	0.1041	0.141
Mof_C 	C 	0.4673	0.0176	0.122	0.242
Mof_H 	H 	0.4696	0.9967	0.1546	-0.1
Mof_H 	H 	0.0671	0.1277	0.1209	0.472
Mof_H 	H 	0.1112	0.1718	0.0951	0.439
Mof_H 	H 	0.1058	0.1664	0.159	0.457
Mof_O 	O 	0.2711	0.4845	0.4605	-0.868
Mof_O 	O 	0.2916	0.5628	0.3656	-0.476
Mof_O 	O 	0.2517	0.6162	0.4323	-0.475
Mof_O 	O 	0.3639	0.4536	0.3801	-0.655
Mof_N 	N 	0.3229	0.9082	0.2428	-0.222
Mof_N 	N 	0.321	0.817	0.2654	-0.165
Mof_C 	C 	0.2754	0.6089	0.3867	0.442
Mof_C 	C 	0.3559	0.8204	0.2235	0.022
Mof_H 	H 	0.3759	0.7904	0.2063	-0.027
Mof_C 	C 	0.3106	0.7634	0.2951	0.221
Mof_C 	C 	0.2876	0.6645	0.3542	-0.245
Mof_C 	C 	0.3175	0.6611	0.3062	0.18
Mof_H 	H 	0.3303	0.6254	0.293	-0.08
Mof_H 	H 	0.2677	0.3763	0.4669	0.699
Mof_H 	H 	0.2716	0.3763	0.531	0.693
Mof_H 	H 	0.2108	0.3763	0.5021	0.678
Mof_C 	C 	0.3	0.8705	0.2766	0.094
Mof_H 	H 	0.2734	0.8792	0.3041	0.006
Mof_C 	C 	0.3286	0.712	0.2774	-0.274
Mof_H 	H 	0.3492	0.7099	0.2446	0.08
Mof_C 	C 	0.3564	0.8752	0.2112	-0.01
Mof_H 	H 	0.3784	0.8902	0.1826	0.011
Mof_C 	C 	0.278	0.7667	0.3424	-0.292
Mof_H 	H 	0.2632	0.8022	0.3541	0.12
Mof_C 	C 	0.2676	0.7173	0.372	0.176
Mof_H 	H 	0.2467	0.7196	0.4046	-0.059
Mof_H 	H 	0.3777	0.3171	0.3709	0.462
Mof_H 	H 	0.4218	0.3612	0.3451	0.426
Mof_H 	H 	0.4164	0.3558	0.409	0.448
Mof_O 	O 	0.7711	0.9845	0.9605	-0.861
Mof_O 	O 	0.7916	0.0628	0.8656	-0.463
Mof_O 	O 	0.7517	0.1162	0.9323	-0.48
Mof_O 	O 	0.8639	0.9536	0.8801	-0.664
Mof_N 	N 	0.8229	0.4082	0.7428	-0.216
Mof_N 	N 	0.821	0.317	0.7654	-0.165
Mof_C 	C 	0.7754	0.1089	0.8867	0.44
Mof_C 	C 	0.8559	0.3204	0.7235	0.022
Mof_H 	H 	0.8759	0.2904	0.7063	-0.027
Mof_C 	C 	0.8106	0.2634	0.7951	0.22
Mof_C 	C 	0.7876	0.1645	0.8542	-0.242
Mof_C 	C 	0.8175	0.1611	0.8062	0.176
Mof_H 	H 	0.8303	0.1254	0.793	-0.071
Mof_H 	H 	0.7677	0.8763	0.9669	0.612
Mof_H 	H 	0.7716	0.8763	0.031	0.621
Mof_H 	H 	0.7108	0.8763	0.0021	0.609
Mof_C 	C 	0.8	0.3705	0.7766	0.094
Mof_H 	H 	0.7734	0.3792	0.8041	0.008
Mof_C 	C 	0.8286	0.212	0.7774	-0.27
Mof_H 	H 	0.8492	0.2099	0.7446	0.08
Mof_C 	C 	0.8564	0.3752	0.7112	-0.009
Mof_H 	H 	0.8784	0.3902	0.6826	0.016
Mof_C 	C 	0.778	0.2667	0.8424	-0.29
Mof_H 	H 	0.7632	0.3022	0.8541	0.122
Mof_C 	C 	0.7676	0.2173	0.872	0.174
Mof_H 	H 	0.7467	0.2196	0.9046	-0.058
Mof_H 	H 	0.8777	0.8171	0.8709	0.465
Mof_H 	H 	0.9218	0.8612	0.8451	0.432
Mof_H 	H 	0.9164	0.8558	0.909	0.451
Mof_O 	O 	0.2289	0.5155	0.9605	-0.847
Mof_O 	O 	0.2084	0.4372	0.8656	-0.479
Mof_O 	O 	0.2483	0.3838	0.9323	-0.484
Mof_O 	O 	0.1361	0.5464	0.8801	-0.657
Mof_N 	N 	0.1771	0.0918	0.7428	-0.214
Mof_N 	N 	0.179	0.183	0.7654	-0.165
Mof_C 	C 	0.2246	0.3911	0.8867	0.444
Mof_C 	C 	0.1441	0.1796	0.7235	0.023
Mof_H 	H 	0.1241	0.2096	0.7063	-0.027
Mof_C 	C 	0.1894	0.2366	0.7951	0.224
Mof_C 	C 	0.2124	0.3355	0.8542	-0.249
Mof_C 	C 	0.1825	0.3389	0.8062	0.183
Mof_H 	H 	0.1697	0.3746	0.793	-0.081
Mof_H 	H 	0.2323	0.6237	0.9669	0.61
Mof_H 	H 	0.2284	0.6237	0.031	0.62
Mof_H 	H 	0.2892	0.6237	0.0021	0.608
Mof_C 	C 	0.2	0.1295	0.7766	0.095
Mof_H 	H 	0.2266	0.1208	0.8041	0.007
Mof_C 	C 	0.1714	0.288	0.7774	-0.277
Mof_H 	H 	0.1508	0.2901	0.7446	0.081
Mof_C 	C 	0.1436	0.1248	0.7112	-0.008
Mof_H 	H 	0.1216	0.1098	0.6826	0.02
Mof_C 	C 	0.222	0.2333	0.8424	-0.295
Mof_H 	H 	0.2368	0.1978	0.8541	0.124
Mof_C 	C 	0.2324	0.2827	0.872	0.179
Mof_H 	H 	0.2533	0.2804	0.9046	-0.06
Mof_H 	H 	0.1223	0.6829	0.8709	0.462
Mof_H 	H 	0.0782	0.6388	0.8451	0.426
Mof_H 	H 	0.0836	0.6442	0.909	0.448
Mof_O 	O 	0.7289	0.0155	0.4605	-0.854
Mof_O 	O 	0.7084	0.9372	0.3656	-0.486
Mof_O 	O 	0.7483	0.8838	0.4323	-0.478
Mof_O 	O 	0.6361	0.0464	0.3801	-0.636
Mof_N 	N 	0.6771	0.5918	0.2428	-0.216
Mof_N 	N 	0.679	0.683	0.2654	-0.165
Mof_C 	C 	0.7246	0.8911	0.3867	0.442
Mof_C 	C 	0.6441	0.6796	0.2235	0.022
Mof_H 	H 	0.6241	0.7096	0.2063	-0.027
Mof_C 	C 	0.6894	0.7366	0.2951	0.219
Mof_C 	C 	0.7124	0.8355	0.3542	-0.243
Mof_C 	C 	0.6825	0.8389	0.3062	0.176
Mof_H 	H 	0.6697	0.8746	0.293	-0.074
Mof_H 	H 	0.7323	0.1237	0.4669	0.696
Mof_H 	H 	0.7284	0.1237	0.531	0.691
Mof_H 	H 	0.7892	0.1237	0.5021	0.677
Mof_C 	C 	0.7	0.6295	0.2766	0.094
Mof_H 	H 	0.7266	0.6208	0.3041	0.007
Mof_C 	C 	0.6714	0.788	0.2774	-0.27
Mof_H 	H 	0.6508	0.7901	0.2446	0.079
Mof_C 	C 	0.6436	0.6248	0.2112	-0.01
Mof_H 	H 	0.6216	0.6098	0.1826	0.015
Mof_C 	C 	0.722	0.7333	0.3424	-0.289
Mof_H 	H 	0.7368	0.6978	0.3541	0.119
Mof_C 	C 	0.7324	0.7827	0.372	0.174
Mof_H 	H 	0.7533	0.7804	0.4046	-0.058
Mof_H 	H 	0.6223	0.1829	0.3709	0.464
Mof_H 	H 	0.5782	0.1388	0.3451	0.433
Mof_H 	H 	0.5836	0.1442	0.409	0.45
Mof_O 	O 	0.2655	0.5211	0.2105	-0.869
Mof_O 	O 	0.1872	0.5416	0.1156	-0.468
Mof_O 	O 	0.1338	0.5017	0.1823	-0.471
Mof_O 	O 	0.2964	0.6139	0.1301	-0.65
Mof_N 	N 	0.8418	0.5729	0.9928	-0.241
Mof_N 	N 	0.933	0.571	0.0154	-0.141
Mof_C 	C 	0.1411	0.5254	0.1367	0.428
Mof_C 	C 	0.9296	0.6059	0.9735	-0.021
Mof_H 	H 	0.9596	0.6259	0.9563	-0.014
Mof_C 	C 	0.9866	0.5606	0.0451	0.176
Mof_C 	C 	0.0855	0.5376	0.1042	-0.203
Mof_C 	C 	0.0889	0.5675	0.0562	0.115
Mof_H 	H 	0.1246	0.5803	0.043	-0.043
Mof_H 	H 	0.3737	0.5177	0.2169	0.699
Mof_H 	H 	0.3737	0.5216	0.281	0.693
Mof_H 	H 	0.3737	0.4608	0.2521	0.679
Mof_C 	C 	0.8795	0.55	0.0266	0.125
Mof_H 	H 	0.8708	0.5234	0.0541	0
Mof_C 	C 	0.038	0.5786	0.0274	-0.168
Mof_H 	H 	0.0401	0.5992	0.9946	0.028
Mof_C 	C 	0.8748	0.6064	0.9612	0.008
Mof_H 	H 	0.8598	0.6284	0.9326	0.008
Mof_C 	C 	0.9833	0.528	0.0924	-0.247
Mof_H 	H 	0.9478	0.5132	0.1041	0.105
Mof_C 	C 	0.0327	0.5176	0.122	0.135
Mof_H 	H 	0.0304	0.4967	0.1546	-0.044
Mof_H 	H 	0.4329	0.6277	0.1209	0.467
Mof_H 	H 	0.3888	0.6718	0.0951	0.437
Mof_H 	H 	0.3942	0.6664	0.159	0.453
Mof_O 	O 	0.7655	0.0211	0.7105	-0.821
Mof_O 	O 	0.6872	0.0416	0.6156	-0.478
Mof_O 	O 	0.6338	0.0017	0.6823	-0.466
Mof_O 	O 	0.7964	0.1139	0.6301	-0.655
Mof_N 	N 	0.3418	0.0729	0.4928	-0.212
Mof_N 	N 	0.433	0.071	0.5154	-0.17
Mof_C 	C 	0.6411	0.0254	0.6367	0.462
Mof_C 	C 	0.4296	0.1059	0.4735	0.028
Mof_H 	H 	0.4596	0.1259	0.4563	-0.029
Mof_C 	C 	0.4866	0.0606	0.5451	0.264
Mof_C 	C 	0.5855	0.0376	0.6042	-0.293
Mof_C 	C 	0.5889	0.0675	0.5562	0.228
Mof_H 	H 	0.6246	0.0803	0.543	-0.094
Mof_H 	H 	0.8737	0.0177	0.7169	0.624
Mof_H 	H 	0.8737	0.0216	0.781	0.62
Mof_H 	H 	0.8737	0.9608	0.7521	0.59
Mof_C 	C 	0.3795	0.05	0.5266	0.1
Mof_H 	H 	0.3708	0.0234	0.5541	0.015
Mof_C 	C 	0.538	0.0786	0.5274	-0.315
Mof_H 	H 	0.5401	0.0992	0.4946	0.096
Mof_C 	C 	0.3748	0.1064	0.4612	-0.009
Mof_H 	H 	0.3598	0.1284	0.4326	0.017
Mof_C 	C 	0.4833	0.028	0.5924	-0.357
Mof_H 	H 	0.4478	0.0132	0.6041	0.156
Mof_C 	C 	0.5327	0.0176	0.622	0.283
Mof_H 	H 	0.5304	0.9967	0.6546	-0.114
Mof_H 	H 	0.9329	0.1277	0.6209	0.466
Mof_H 	H 	0.8888	0.1718	0.5951	0.428
Mof_H 	H 	0.8942	0.1664	0.659	0.451
Mof_O 	O 	0.2345	0.4789	0.7105	-0.868
Mof_O 	O 	0.3128	0.4584	0.6156	-0.476
Mof_O 	O 	0.3662	0.4983	0.6823	-0.474
Mof_O 	O 	0.2036	0.3861	0.6301	-0.655
Mof_N 	N 	0.6582	0.4271	0.4928	-0.216
Mof_N 	N 	0.567	0.429	0.5154	-0.165
Mof_C 	C 	0.3589	0.4746	0.6367	0.442
Mof_C 	C 	0.5704	0.3941	0.4735	0.022
Mof_H 	H 	0.5404	0.3741	0.4563	-0.028
Mof_C 	C 	0.5134	0.4394	0.5451	0.221
Mof_C 	C 	0.4145	0.4624	0.6042	-0.245
Mof_C 	C 	0.4111	0.4325	0.5562	0.18
Mof_H 	H 	0.3754	0.4197	0.543	-0.08
Mof_H 	H 	0.1263	0.4823	0.7169	0.699
Mof_H 	H 	0.1263	0.4784	0.781	0.693
Mof_H 	H 	0.1263	0.5392	0.7521	0.678
Mof_C 	C 	0.6205	0.45	0.5266	0.094
Mof_H 	H 	0.6292	0.4766	0.5541	0.007
Mof_C 	C 	0.462	0.4214	0.5274	-0.274
Mof_H 	H 	0.4599	0.4008	0.4946	0.08
Mof_C 	C 	0.6252	0.3936	0.4612	-0.01
Mof_H 	H 	0.6402	0.3716	0.4326	0.016
Mof_C 	C 	0.5167	0.472	0.5924	-0.291
Mof_H 	H 	0.5522	0.4868	0.6041	0.12
Mof_C 	C 	0.4673	0.4824	0.622	0.176
Mof_H 	H 	0.4696	0.5033	0.6546	-0.058
Mof_H 	H 	0.0671	0.3723	0.6209	0.461
Mof_H 	H 	0.1112	0.3282	0.5951	0.426
Mof_H 	H 	0.1058	0.3336	0.659	0.447
Mof_O 	O 	0.7345	0.9789	0.2105	-0.848
Mof_O 	O 	0.8128	0.9584	0.1156	-0.469
Mof_O 	O 	0.8662	0.9983	0.1823	-0.483
Mof_O 	O 	0.7036	0.8861	0.1301	-0.653
Mof_N 	N 	0.1582	0.9271	0.9928	-0.244
Mof_N 	N 	0.067	0.929	0.0154	-0.136
Mof_C 	C 	0.8589	0.9746	0.1367	0.409
Mof_C 	C 	0.0704	0.8941	0.9735	-0.026
Mof_H 	H 	0.0404	0.8741	0.9563	-0.013
Mof_C 	C 	0.0134	0.9394	0.0451	0.136
Mof_C 	C 	0.9145	0.9624	0.1042	-0.156
Mof_C 	C 	0.9111	0.9325	0.0562	0.069
Mof_H 	H 	0.8754	0.9197	0.043	-0.029
Mof_H 	H 	0.6263	0.9823	0.2169	0.574
Mof_H 	H 	0.6263	0.9784	0.281	0.569
Mof_H 	H 	0.6263	0.0392	0.2521	0.57
Mof_C 	C 	0.1205	0.95	0.0266	0.119
Mof_H 	H 	0.1292	0.9766	0.0541	-0.006
Mof_C 	C 	0.962	0.9214	0.0274	-0.13
Mof_H 	H 	0.9599	0.9008	0.9946	0.013
Mof_C 	C 	0.1252	0.8936	0.9612	0.008
Mof_H 	H 	0.1402	0.8716	0.9326	0.006
Mof_C 	C 	0.0167	0.972	0.0924	-0.183
Mof_H 	H 	0.0522	0.9868	0.1041	0.078
Mof_C 	C 	0.9673	0.9824	0.122	0.032
Mof_H 	H 	0.9696	0.0033	0.1546	0.015
Mof_H 	H 	0.5671	0.8723	0.1209	0.47
Mof_H 	H 	0.6112	0.8282	0.0951	0.44
Mof_H 	H 	0.6058	0.8336	0.159	0.457
Mof_O 	O 	0.2289	0.4845	0.5395	-0.868
Mof_O 	O 	0.2084	0.5628	0.6344	-0.476
Mof_O 	O 	0.2483	0.6162	0.5677	-0.475
Mof_O 	O 	0.1361	0.4536	0.6199	-0.655
Mof_N 	N 	0.1771	0.9082	0.7572	-0.222
Mof_N 	N 	0.179	0.817	0.7346	-0.165
Mof_C 	C 	0.2246	0.6089	0.6133	0.442
Mof_C 	C 	0.1441	0.8204	0.7765	0.022
Mof_H 	H 	0.1241	0.7904	0.7937	-0.027
Mof_C 	C 	0.1894	0.7634	0.7049	0.221
Mof_C 	C 	0.2124	0.6645	0.6458	-0.245
Mof_C 	C 	0.1825	0.6611	0.6938	0.181
Mof_H 	H 	0.1697	0.6254	0.707	-0.08
Mof_H 	H 	0.2323	0.3763	0.5331	0.699
Mof_H 	H 	0.2284	0.3763	0.469	0.693
Mof_H 	H 	0.2892	0.3763	0.4979	0.678
Mof_C 	C 	0.2	0.8705	0.7234	0.095
Mof_H 	H 	0.2266	0.8792	0.6959	0.006
Mof_C 	C 	0.1714	0.712	0.7226	-0.274
Mof_H 	H 	0.1508	0.7099	0.7554	0.08
Mof_C 	C 	0.1436	0.8752	0.7888	-0.009
Mof_H 	H 	0.1216	0.8902	0.8174	0.012
Mof_C 	C 	0.222	0.7667	0.6576	-0.292
Mof_H 	H 	0.2368	0.8022	0.6459	0.12
Mof_C 	C 	0.2324	0.7173	0.628	0.176
Mof_H 	H 	0.2533	0.7196	0.5954	-0.059
Mof_H 	H 	0.1223	0.3171	0.6291	0.461
Mof_H 	H 	0.0782	0.3612	0.6549	0.426
Mof_H 	H 	0.0836	0.3558	0.591	0.447
Mof_O 	O 	0.7289	0.9845	0.0395	-0.838
Mof_O 	O 	0.7084	0.0628	0.1344	-0.46
Mof_O 	O 	0.7483	0.1162	0.0677	-0.465
Mof_O 	O 	0.6361	0.9536	0.1199	-0.663
Mof_N 	N 	0.6771	0.4082	0.2572	-0.216
Mof_N 	N 	0.679	0.317	0.2346	-0.164
Mof_C 	C 	0.7246	0.1089	0.1133	0.437
Mof_C 	C 	0.6441	0.3204	0.2765	0.023
Mof_H 	H 	0.6241	0.2904	0.2937	-0.027
Mof_C 	C 	0.6894	0.2634	0.2049	0.218
Mof_C 	C 	0.7124	0.1645	0.1458	-0.235
Mof_C 	C 	0.6825	0.1611	0.1938	0.172
Mof_H 	H 	0.6697	0.1254	0.207	-0.07
Mof_H 	H 	0.7323	0.8763	0.0331	0.593
Mof_H 	H 	0.7284	0.8763	0.969	0.574
Mof_H 	H 	0.7892	0.8763	0.9979	0.555
Mof_C 	C 	0.7	0.3705	0.2234	0.095
Mof_H 	H 	0.7266	0.3792	0.1959	0.008
Mof_C 	C 	0.6714	0.212	0.2226	-0.266
Mof_H 	H 	0.6508	0.2099	0.2554	0.079
Mof_C 	C 	0.6436	0.3752	0.2888	-0.009
Mof_H 	H 	0.6216	0.3902	0.3174	0.016
Mof_C 	C 	0.722	0.2667	0.1576	-0.284
Mof_H 	H 	0.7368	0.3022	0.1459	0.122
Mof_C 	C 	0.7324	0.2173	0.128	0.17
Mof_H 	H 	0.7533	0.2196	0.0954	-0.05
Mof_H 	H 	0.6223	0.8171	0.1291	0.472
Mof_H 	H 	0.5782	0.8612	0.1549	0.438
Mof_H 	H 	0.5836	0.8558	0.091	0.458
Mof_O 	O 	0.2711	0.5155	0.0395	-0.823
Mof_O 	O 	0.2916	0.4372	0.1344	-0.476
Mof_O 	O 	0.2517	0.3838	0.0677	-0.469
Mof_O 	O 	0.3639	0.5464	0.1199	-0.656
Mof_N 	N 	0.3229	0.0918	0.2572	-0.214
Mof_N 	N 	0.321	0.183	0.2346	-0.165
Mof_C 	C 	0.2754	0.3911	0.1133	0.441
Mof_C 	C 	0.3559	0.1796	0.2765	0.024
Mof_H 	H 	0.3759	0.2096	0.2937	-0.027
Mof_C 	C 	0.3106	0.2366	0.2049	0.222
Mof_C 	C 	0.2876	0.3355	0.1458	-0.242
Mof_C 	C 	0.3175	0.3389	0.1938	0.18
Mof_H 	H 	0.3303	0.3746	0.207	-0.079
Mof_H 	H 	0.2677	0.6237	0.0331	0.591
Mof_H 	H 	0.2716	0.6237	0.969	0.572
Mof_H 	H 	0.2108	0.6237	0.9979	0.554
Mof_C 	C 	0.3	0.1295	0.2234	0.095
Mof_H 	H 	0.2734	0.1208	0.1959	0.008
Mof_C 	C 	0.3286	0.288	0.2226	-0.273
Mof_H 	H 	0.3492	0.2901	0.2554	0.08
Mof_C 	C 	0.3564	0.1248	0.2888	-0.008
Mof_H 	H 	0.3784	0.1098	0.3174	0.02
Mof_C 	C 	0.278	0.2333	0.1576	-0.289
Mof_H 	H 	0.2632	0.1978	0.1459	0.124
Mof_C 	C 	0.2676	0.2827	0.128	0.175
Mof_H 	H 	0.2467	0.2804	0.0954	-0.052
Mof_H 	H 	0.3777	0.6829	0.1291	0.468
Mof_H 	H 	0.4218	0.6388	0.1549	0.432
Mof_H 	H 	0.4164	0.6442	0.091	0.455
Mof_O 	O 	0.7711	0.0155	0.5395	-0.854
Mof_O 	O 	0.7916	0.9372	0.6344	-0.486
Mof_O 	O 	0.7517	0.8838	0.5677	-0.478
Mof_O 	O 	0.8639	0.0464	0.6199	-0.636
Mof_N 	N 	0.8229	0.5918	0.7572	-0.216
Mof_N 	N 	0.821	0.683	0.7346	-0.165
Mof_C 	C 	0.7754	0.8911	0.6133	0.442
Mof_C 	C 	0.8559	0.6796	0.7765	0.023
Mof_H 	H 	0.8759	0.7096	0.7937	-0.028
Mof_C 	C 	0.8106	0.7366	0.7049	0.22
Mof_C 	C 	0.7876	0.8355	0.6458	-0.243
Mof_C 	C 	0.8175	0.8389	0.6938	0.177
Mof_H 	H 	0.8303	0.8746	0.707	-0.074
Mof_H 	H 	0.7677	0.1237	0.5331	0.696
Mof_H 	H 	0.7716	0.1237	0.469	0.691
Mof_H 	H 	0.7108	0.1237	0.4979	0.677
Mof_C 	C 	0.8	0.6295	0.7234	0.094
Mof_H 	H 	0.7734	0.6208	0.6959	0.007
Mof_C 	C 	0.8286	0.788	0.7226	-0.271
Mof_H 	H 	0.8492	0.7901	0.7554	0.08
Mof_C 	C 	0.8564	0.6248	0.7888	-0.009
Mof_H 	H 	0.8784	0.6098	0.8174	0.016
Mof_C 	C 	0.778	0.7333	0.6576	-0.29
Mof_H 	H 	0.7632	0.6978	0.6459	0.119
Mof_C 	C 	0.7676	0.7827	0.628	0.174
Mof_H 	H 	0.7467	0.7804	0.5954	-0.058
Mof_H 	H 	0.8777	0.1829	0.6291	0.464
Mof_H 	H 	0.9218	0.1388	0.6549	0.432
Mof_H 	H 	0.9164	0.1442	0.591	0.45
Mof_O 	O 	0.2345	0.5211	0.7895	-0.868
Mof_O 	O 	0.3128	0.5416	0.8844	-0.478
Mof_O 	O 	0.3662	0.5017	0.8177	-0.477
Mof_O 	O 	0.2036	0.6139	0.8699	-0.648
Mof_N 	N 	0.6582	0.5729	0.0072	-0.194
Mof_N 	N 	0.567	0.571	0.9846	-0.188
Mof_C 	C 	0.3589	0.5254	0.8633	0.452
Mof_C 	C 	0.5704	0.6059	0.0265	0.067
Mof_H 	H 	0.5404	0.6259	0.0437	-0.04
Mof_C 	C 	0.5134	0.5606	0.9549	0.262
Mof_C 	C 	0.4145	0.5376	0.8958	-0.279
Mof_C 	C 	0.4111	0.5675	0.9438	0.237
Mof_H 	H 	0.3754	0.5803	0.957	-0.102
Mof_H 	H 	0.1263	0.5177	0.7831	0.699
Mof_H 	H 	0.1263	0.5216	0.719	0.693
Mof_H 	H 	0.1263	0.4608	0.7479	0.678
Mof_C 	C 	0.6205	0.55	0.9734	0.064
Mof_H 	H 	0.6292	0.5234	0.9459	0.013
Mof_C 	C 	0.462	0.5786	0.9726	-0.372
Mof_H 	H 	0.4599	0.5992	0.0054	0.132
Mof_C 	C 	0.6252	0.6064	0.0388	-0.026
Mof_H 	H 	0.6402	0.6284	0.0674	0.024
Mof_C 	C 	0.5167	0.528	0.9076	-0.33
Mof_H 	H 	0.5522	0.5132	0.8959	0.132
Mof_C 	C 	0.4673	0.5176	0.878	0.211
Mof_H 	H 	0.4696	0.4967	0.8454	-0.07
Mof_H 	H 	0.0671	0.6277	0.8791	0.461
Mof_H 	H 	0.1112	0.6718	0.9049	0.427
Mof_H 	H 	0.1058	0.6664	0.841	0.447
Mof_O 	O 	0.7345	0.0211	0.2895	-0.821
Mof_O 	O 	0.8128	0.0416	0.3844	-0.478
Mof_O 	O 	0.8662	0.0017	0.3177	-0.467
Mof_O 	O 	0.7036	0.1139	0.3699	-0.655
Mof_N 	N 	0.1582	0.0729	0.5072	-0.212
Mof_N 	N 	0.067	0.071	0.4846	-0.17
Mof_C 	C 	0.8589	0.0254	0.3633	0.462
Mof_C 	C 	0.0704	0.1059	0.5265	0.028
Mof_H 	H 	0.0404	0.1259	0.5437	-0.029
Mof_C 	C 	0.0134	0.0606	0.4549	0.264
Mof_C 	C 	0.9145	0.0376	0.3958	-0.292
Mof_C 	C 	0.9111	0.0675	0.4438	0.228
Mof_H 	H 	0.8754	0.0803	0.457	-0.094
Mof_H 	H 	0.6263	0.0177	0.2831	0.623
Mof_H 	H 	0.6263	0.0216	0.219	0.62
Mof_H 	H 	0.6263	0.9608	0.2479	0.589
Mof_C 	C 	0.1205	0.05	0.4734	0.1
Mof_H 	H 	0.1292	0.0234	0.4459	0.015
Mof_C 	C 	0.962	0.0786	0.4726	-0.314
Mof_H 	H 	0.9599	0.0992	0.5054	0.096
Mof_C 	C 	0.1252	0.1064	0.5388	-0.009
Mof_H 	H 	0.1402	0.1284	0.5674	0.017
Mof_C 	C 	0.0167	0.028	0.4076	-0.356
Mof_H 	H 	0.0522	0.0132	0.3959	0.155
Mof_C 	C 	0.9673	0.0176	0.378	0.282
Mof_H 	H 	0.9696	0.9967	0.3454	-0.113
Mof_H 	H 	0.5671	0.1277	0.3791	0.466
Mof_H 	H 	0.6112	0.1718	0.4049	0.429
Mof_H 	H 	0.6058	0.1664	0.341	0.451
Mof_O 	O 	0.2655	0.4789	0.2895	-0.868
Mof_O 	O 	0.1872	0.4584	0.3844	-0.476
Mof_O 	O 	0.1338	0.4983	0.3177	-0.475
Mof_O 	O 	0.2964	0.3861	0.3699	-0.655
Mof_N 	N 	0.8418	0.4271	0.5072	-0.216
Mof_N 	N 	0.933	0.429	0.4846	-0.165
Mof_C 	C 	0.1411	0.4746	0.3633	0.442
Mof_C 	C 	0.9296	0.3941	0.5265	0.022
Mof_H 	H 	0.9596	0.3741	0.5437	-0.028
Mof_C 	C 	0.9866	0.4394	0.4549	0.221
Mof_C 	C 	0.0855	0.4624	0.3958	-0.245
Mof_C 	C 	0.0889	0.4325	0.4438	0.18
Mof_H 	H 	0.1246	0.4197	0.457	-0.08
Mof_H 	H 	0.3737	0.4823	0.2831	0.699
Mof_H 	H 	0.3737	0.4784	0.219	0.693
Mof_H 	H 	0.3737	0.5392	0.2479	0.678
Mof_C 	C 	0.8795	0.45	0.4734	0.094
Mof_H 	H 	0.8708	0.4766	0.4459	0.007
Mof_C 	C 	0.038	0.4214	0.4726	-0.274
Mof_H 	H 	0.0401	0.4008	0.5054	0.08
Mof_C 	C 	0.8748	0.3936	0.5388	-0.01
Mof_H 	H 	0.8598	0.3716	0.5674	0.016
Mof_C 	C 	0.9833	0.472	0.4076	-0.292
Mof_H 	H 	0.9478	0.4868	0.3959	0.12
Mof_C 	C 	0.0327	0.4824	0.378	0.176
Mof_H 	H 	0.0304	0.5033	0.3454	-0.058
Mof_H 	H 	0.4329	0.3723	0.3791	0.462
Mof_H 	H 	0.3888	0.3282	0.4049	0.426
Mof_H 	H 	0.3942	0.3336	0.341	0.448
Mof_O 	O 	0.7655	0.9789	0.7895	-0.848
Mof_O 	O 	0.6872	0.9584	0.8844	-0.479
Mof_O 	O 	0.6338	0.9983	0.8177	-0.489
Mof_O 	O 	0.7964	0.8861	0.8699	-0.652
Mof_N 	N 	0.3418	0.9271	0.0072	-0.198
Mof_N 	N 	0.433	0.929	0.9846	-0.183
Mof_C 	C 	0.6411	0.9746	0.8633	0.433
Mof_C 	C 	0.4296	0.8941	0.0265	0.061
Mof_H 	H 	0.4596	0.8741	0.0437	-0.039
Mof_C 	C 	0.4866	0.9394	0.9549	0.221
Mof_C 	C 	0.5855	0.9624	0.8958	-0.231
Mof_C 	C 	0.5889	0.9325	0.9438	0.19
Mof_H 	H 	0.6246	0.9197	0.957	-0.088
Mof_H 	H 	0.8737	0.9823	0.7831	0.575
Mof_H 	H 	0.8737	0.9784	0.719	0.57
Mof_H 	H 	0.8737	0.0392	0.7479	0.571
Mof_C 	C 	0.3795	0.95	0.9734	0.059
Mof_H 	H 	0.3708	0.9766	0.9459	0.007
Mof_C 	C 	0.538	0.9214	0.9726	-0.332
Mof_H 	H 	0.5401	0.9008	0.0054	0.116
Mof_C 	C 	0.3748	0.8936	0.0388	-0.026
Mof_H 	H 	0.3598	0.8716	0.0674	0.022
Mof_C 	C 	0.4833	0.972	0.9076	-0.264
Mof_H 	H 	0.4478	0.9868	0.8959	0.104
Mof_C 	C 	0.5327	0.9824	0.878	0.106
Mof_H 	H 	0.5304	0.0033	0.8454	-0.009
Mof_H 	H 	0.9329	0.8723	0.8791	0.464
Mof_H 	H 	0.8888	0.8282	0.9049	0.431
Mof_H 	H 	0.8942	0.8336	0.841	0.452
Mof_Co	Co	0.72621	0.52379	0.625	1.219
Mof_C 	C 	0.6517	0.5983	0.625	0.982
Mof_C 	C 	0.6045	0.6455	0.625	-2.68
Mof_Co	Co	0.22621	0.02379	0.125	1.222
Mof_C 	C 	0.1517	0.0983	0.125	0.999
Mof_C 	C 	0.1045	0.1455	0.125	-2.731
Mof_Co	Co	0.77379	0.47621	0.125	1.218
Mof_C 	C 	0.8483	0.4017	0.125	0.995
Mof_C 	C 	0.8955	0.3545	0.125	-2.717
Mof_Co	Co	0.27379	0.97621	0.625	1.212
Mof_C 	C 	0.3483	0.9017	0.625	0.992
Mof_C 	C 	0.3955	0.8545	0.625	-2.701
Mof_Co	Co	0.72621	0.47621	0.875	1.218
Mof_C 	C 	0.6517	0.4017	0.875	0.984
Mof_C 	C 	0.6045	0.3545	0.875	-2.684
Mof_Co	Co	0.22621	0.97621	0.375	1.212
Mof_C 	C 	0.1517	0.9017	0.375	0.993
Mof_C 	C 	0.1045	0.8545	0.375	-2.704
Mof_Co	Co	0.77379	0.52379	0.375	1.219
Mof_C 	C 	0.8483	0.5983	0.375	0.983
Mof_C 	C 	0.8955	0.6455	0.375	-2.683
Mof_Co	Co	0.27379	0.02379	0.875	1.223
Mof_C 	C 	0.3483	0.0983	0.875	0.988
Mof_C 	C 	0.3955	0.1455	0.875	-2.697
Mof_Co	Co	0.27379	0.47621	0.375	1.219
Mof_C 	C 	0.3483	0.4017	0.375	0.983
Mof_C 	C 	0.3955	0.3545	0.375	-2.684
Mof_Co	Co	0.77379	0.97621	0.875	1.211
Mof_C 	C 	0.8483	0.9017	0.875	0.995
Mof_C 	C 	0.8955	0.8545	0.875	-2.705
Mof_Co	Co	0.22621	0.52379	0.875	1.218
Mof_C 	C 	0.1517	0.5983	0.875	0.984
Mof_C 	C 	0.1045	0.6455	0.875	-2.684
Mof_Co	Co	0.72621	0.02379	0.375	1.224
Mof_C 	C 	0.6517	0.0983	0.375	0.987
Mof_C 	C 	0.6045	0.1455	0.375	-2.698
Mof_Co	Co	0.27379	0.52379	0.125	1.218
Mof_C 	C 	0.3483	0.5983	0.125	0.995
Mof_C 	C 	0.3955	0.6455	0.125	-2.716
Mof_Co	Co	0.77379	0.02379	0.625	1.224
Mof_C 	C 	0.8483	0.0983	0.625	0.986
Mof_C 	C 	0.8955	0.1455	0.625	-2.695
Mof_Co	Co	0.22621	0.47621	0.625	1.219
Mof_C 	C 	0.1517	0.4017	0.625	0.982
Mof_C 	C 	0.1045	0.3545	0.625	-2.682
Mof_Co	Co	0.72621	0.97621	0.125	1.211
Mof_C 	C 	0.6517	0.9017	0.125	1.006
Mof_C 	C 	0.6045	0.8545	0.125	-2.738
Mof_Co	Co	0.75	0.43353	0.5	1.182
Mof_C 	C 	0.75	0.5439	0.5	1.524
Mof_C 	C 	0.75	0.6098	0.5	-4.068
Mof_Co	Co	0.25	0.93353	-0	1.186
Mof_C 	C 	0.25	0.0439	-0	1.389
Mof_C 	C 	0.25	0.1098	-0	-3.487
Mof_Co	Co	0.75	0.56647	-0	1.193
Mof_C 	C 	0.75	0.4561	-0	1.394
Mof_C 	C 	0.75	0.3902	-0	-3.497
Mof_Co	Co	0.25	0.06647	0.5	1.189
Mof_C 	C 	0.25	0.9561	0.5	1.528
Mof_C 	C 	0.25	0.8902	0.5	-4.077
Mof_Co	Co	0.81647	0.5	0.75	1.182
Mof_C 	C 	0.7061	0.5	0.75	1.523
Mof_C 	C 	0.6402	0.5	0.75	-4.066
Mof_Co	Co	0.31647	0	0.25	1.193
Mof_C 	C 	0.2061	0	0.25	1.394
Mof_C 	C 	0.1402	0	0.25	-3.495
Mof_Co	Co	0.68353	0.5	0.25	1.182
Mof_C 	C 	0.7939	0.5	0.25	1.524
Mof_C 	C 	0.8598	0.5	0.25	-4.068
Mof_Co	Co	0.18353	0	0.75	1.193
Mof_C 	C 	0.2939	0	0.75	1.392
Mof_C 	C 	0.3598	0	0.75	-3.488
Mof_Co	Co	0.25	0.56647	0.5	1.182
Mof_C 	C 	0.25	0.4561	0.5	1.524
Mof_C 	C 	0.25	0.3902	0.5	-4.067
Mof_Co	Co	0.75	0.06647	-0	1.2
Mof_C 	C 	0.75	0.9561	-0	1.4
Mof_C 	C 	0.75	0.8902	-0	-3.511
Mof_Co	Co	0.25	0.43353	-0	1.193
Mof_C 	C 	0.25	0.5439	-0	1.395
Mof_C 	C 	0.25	0.6098	-0	-3.498
Mof_Co	Co	0.75	0.93353	0.5	1.174
Mof_C 	C 	0.75	0.0439	0.5	1.518
Mof_C 	C 	0.75	0.1098	0.5	-4.053
Mof_Co	Co	0.18353	0.5	0.25	1.182
Mof_C 	C 	0.2939	0.5	0.25	1.524
Mof_C 	C 	0.3598	0.5	0.25	-4.068
Mof_Co	Co	0.68353	0	0.75	1.193
Mof_C 	C 	0.7939	0	0.75	1.393
Mof_C 	C 	0.8598	0	0.75	-3.492
Mof_Co	Co	0.31647	0.5	0.75	1.182
Mof_C 	C 	0.2061	0.5	0.75	1.524
Mof_C 	C 	0.1402	0.5	0.75	-4.066
Mof_Co	Co	0.81647	0	0.25	1.193
Mof_C 	C 	0.7061	0	0.25	1.392
Mof_C 	C 	0.6402	0	0.25	-3.49
_end
