# CIF file generated by openbabel 3.1.0, see https://openbabel.org
data_I
_chemical_name_common 'image0'
_cell_length_a 16.7318
_cell_length_b 18.1105
_cell_length_c 16.4721
_cell_angle_alpha 90
_cell_angle_beta 110.618
_cell_angle_gamma 90
_space_group_name_H-M_alt 'P 1'
_space_group_name_Hall 'P 1'
loop_
    _symmetry_equiv_pos_as_xyz
    x,y,z
loop_
    _atom_site_label
    _atom_site_type_symbol
    _atom_site_fract_x
    _atom_site_fract_y
    _atom_site_fract_z
    _atom_site_occupancy
    Zn1      Zn       0.18556    0.61050    0.12745    1.000
    Zn2      Zn       0.30781    0.61736    0.36201    1.000
    C1       C        0.07420    0.73973    0.27300    1.000
    C2       C        0.10190    0.77346    0.35350    1.000
    H1       H        0.15700    0.76500    0.39210    1.000
    C3       C        0.04800    0.81968    0.37690    1.000
    C4       C        0.96540    0.83114    0.31950    1.000
    H2       H        0.92910    0.86210    0.33540    1.000
    C5       C        0.93610    0.79706    0.23870    1.000
    C6       C        0.99140    0.75168    0.21530    1.000
    H3       H        0.97310    0.72920    0.16110    1.000
    C7       C        0.84630    0.81024    0.18120    1.000
    C8       C        0.81250    0.88030    0.17600    1.000
    H4       H        0.84710    0.91870    0.20610    1.000
    C9       C        0.72710    0.89450    0.12620    1.000
    C10      C        0.67630    0.83760    0.08130    1.000
    H5       H        0.61970    0.84650    0.04740    1.000
    C11      C        0.70950    0.76690    0.08640    1.000
    C12      C        0.79440    0.75380    0.13580    1.000
    H6       H        0.81660    0.70640    0.13820    1.000
    C13      C        0.13500    0.69131    0.25050    1.000
    C14      C        0.07690    0.85737    0.46250    1.000
    C15      C        0.69480    0.97070    0.12660    1.000
    C16      C        0.65360    0.70390    0.04360    1.000
    C17      C        0.23290    0.38530    0.11000    1.000
    C18      C        0.18630    0.32421    0.07080    1.000
    H7       H        0.13100    0.32970    0.03150    1.000
    C19      C        0.22210    0.25437    0.09000    1.000
    C20      C        0.30590    0.24728    0.14610    1.000
    H8       H        0.33010    0.20050    0.15770    1.000
    C21      C        0.35400    0.30763    0.18500    1.000
    C22      C        0.31660    0.37693    0.16850    1.000
    H9       H        0.34720    0.41810    0.19630    1.000
    C23      C        0.44320    0.29600    0.24640    1.000
    C24      C        0.49630    0.24554    0.22730    1.000
    H10      H        0.47830    0.22190    0.17370    1.000
    C25      C        0.57670    0.23008    0.28810    1.000
    C26      C        0.60290    0.26429    0.36770    1.000
    H11      H        0.65550    0.25230    0.40910    1.000
    C27      C        0.55190    0.31627    0.38663    1.000
    C28      C        0.47190    0.33244    0.32550    1.000
    H12      H        0.43760    0.36790    0.33780    1.000
    C29      C        0.19330    0.46050    0.09100    1.000
    C30      C        0.17250    0.18620    0.05450    1.000
    C31      C        0.63630    0.17820    0.26790    1.000
    C32      C        0.58090    0.35326    0.47330    1.000
    O1       O        0.11540    0.67073    0.17315    1.000
    O2       O        0.20151    0.67451    0.31014    1.000
    O3       O        0.15415    0.85034    0.50945    1.000
    O4       O        0.02303    0.89189    0.48405    1.000
    O5       O        0.74780    0.02259    0.14414    1.000
    O6       O        0.61687    0.98172    0.11421    1.000
    O7       O        0.57920    0.71780    0.99350    1.000
    O8       O        0.68340    0.64009    0.06060    1.000
    H13      H        0.65930    0.60460    0.02710    1.000
    O9       O        0.12981    0.46903    0.02258    1.000
    O10      O        0.22763    0.51054    0.14498    1.000
    O11      O        0.09652    0.19874    0.99961    1.000
    H14      H        0.07160    0.15830    0.97970    1.000
    O12      O        0.20104    0.12474    0.07490    1.000
    O13      O        0.61577    0.15616    0.19146    1.000
    O14      O        0.70190    0.16067    0.32837    1.000
    O15      O        0.65689    0.33995    0.52235    1.000
    O16      O        0.53132    0.39331    0.49372    1.000
    Zn3      Zn       0.81444    0.11050    0.37255    1.000
    Zn4      Zn       0.69219    0.11736    0.13799    1.000
    C33      C        0.92580    0.23973    0.22700    1.000
    C34      C        0.89810    0.27346    0.14650    1.000
    H15      H        0.84300    0.26500    0.10790    1.000
    C35      C        0.95200    0.31968    0.12310    1.000
    C36      C        0.03460    0.33114    0.18050    1.000
    H16      H        0.07090    0.36210    0.16460    1.000
    C37      C        0.06390    0.29706    0.26130    1.000
    C38      C        0.00860    0.25168    0.28470    1.000
    H17      H        0.02690    0.22920    0.33890    1.000
    C39      C        0.15370    0.31024    0.31880    1.000
    C40      C        0.18750    0.38030    0.32400    1.000
    H18      H        0.15290    0.41870    0.29390    1.000
    C41      C        0.27290    0.39450    0.37380    1.000
    C42      C        0.32370    0.33760    0.41870    1.000
    H19      H        0.38030    0.34650    0.45260    1.000
    C43      C        0.29050    0.26690    0.41360    1.000
    C44      C        0.20560    0.25380    0.36420    1.000
    H20      H        0.18340    0.20640    0.36180    1.000
    C45      C        0.86500    0.19131    0.24950    1.000
    C46      C        0.92310    0.35737    0.03750    1.000
    C47      C        0.30520    0.47070    0.37340    1.000
    C48      C        0.34640    0.20390    0.45640    1.000
    C49      C        0.76710    0.88530    0.39000    1.000
    C50      C        0.81370    0.82421    0.42920    1.000
    H21      H        0.86900    0.82970    0.46850    1.000
    C51      C        0.77790    0.75437    0.41000    1.000
    C52      C        0.69410    0.74728    0.35390    1.000
    H22      H        0.66990    0.70050    0.34230    1.000
    C53      C        0.64600    0.80763    0.31500    1.000
    C54      C        0.68340    0.87693    0.33150    1.000
    H23      H        0.65280    0.91810    0.30370    1.000
    C55      C        0.55680    0.79600    0.25360    1.000
    C56      C        0.50370    0.74554    0.27270    1.000
    H24      H        0.52170    0.72190    0.32630    1.000
    C57      C        0.42330    0.73008    0.21190    1.000
    C58      C        0.39710    0.76429    0.13230    1.000
    H25      H        0.34450    0.75230    0.09090    1.000
    C59      C        0.44810    0.81627    0.11337    1.000
    C60      C        0.52810    0.83244    0.17450    1.000
    H26      H        0.56240    0.86790    0.16220    1.000
    C61      C        0.80670    0.96050    0.40900    1.000
    C62      C        0.82750    0.68620    0.44550    1.000
    C63      C        0.36370    0.67820    0.23210    1.000
    C64      C        0.41910    0.85326    0.02670    1.000
    O17      O        0.88460    0.17073    0.32685    1.000
    O18      O        0.79849    0.17451    0.18986    1.000
    O19      O        0.84585    0.35034    0.99055    1.000
    O20      O        0.97697    0.39189    0.01595    1.000
    O21      O        0.25220    0.52259    0.35586    1.000
    O22      O        0.38313    0.48172    0.38579    1.000
    O23      O        0.42080    0.21780    0.50650    1.000
    O24      O        0.31660    0.14009    0.43940    1.000
    H27      H        0.34070    0.10460    0.47290    1.000
    O25      O        0.87019    0.96903    0.47742    1.000
    O26      O        0.77237    0.01054    0.35502    1.000
    O27      O        0.90348    0.69874    0.50039    1.000
    H28      H        0.92840    0.65830    0.52030    1.000
    O28      O        0.79896    0.62474    0.42510    1.000
    O29      O        0.38423    0.65616    0.30854    1.000
    O30      O        0.29810    0.66067    0.17163    1.000
    O31      O        0.34311    0.83995    0.97765    1.000
    O32      O        0.46868    0.89331    0.00628    1.000
    Zn5      Zn       0.81444    0.38950    0.87255    1.000
    Zn6      Zn       0.69219    0.38264    0.63799    1.000
    C65      C        0.92580    0.26027    0.72700    1.000
    C66      C        0.89810    0.22654    0.64650    1.000
    H29      H        0.84300    0.23500    0.60790    1.000
    C67      C        0.95200    0.18032    0.62310    1.000
    C68      C        0.03460    0.16886    0.68050    1.000
    H30      H        0.07090    0.13790    0.66460    1.000
    C69      C        0.06390    0.20294    0.76130    1.000
    C70      C        0.00860    0.24832    0.78470    1.000
    H31      H        0.02690    0.27080    0.83890    1.000
    C71      C        0.15370    0.18976    0.81880    1.000
    C72      C        0.18750    0.11970    0.82400    1.000
    H32      H        0.15290    0.08130    0.79390    1.000
    C73      C        0.27290    0.10550    0.87380    1.000
    C74      C        0.32370    0.16240    0.91870    1.000
    H33      H        0.38030    0.15350    0.95260    1.000
    C75      C        0.29050    0.23310    0.91360    1.000
    C76      C        0.20560    0.24620    0.86420    1.000
    H34      H        0.18340    0.29360    0.86180    1.000
    C77      C        0.86500    0.30869    0.74950    1.000
    C78      C        0.92310    0.14263    0.53750    1.000
    C79      C        0.30520    0.02930    0.87340    1.000
    C80      C        0.34640    0.29610    0.95640    1.000
    C81      C        0.76710    0.61470    0.89000    1.000
    C82      C        0.81370    0.67579    0.92920    1.000
    H35      H        0.86900    0.67030    0.96850    1.000
    C83      C        0.77790    0.74563    0.91000    1.000
    C84      C        0.69410    0.75272    0.85390    1.000
    H36      H        0.66990    0.79950    0.84230    1.000
    C85      C        0.64600    0.69237    0.81500    1.000
    C86      C        0.68340    0.62307    0.83150    1.000
    H37      H        0.65280    0.58190    0.80370    1.000
    C87      C        0.55680    0.70400    0.75360    1.000
    C88      C        0.50370    0.75446    0.77270    1.000
    H38      H        0.52170    0.77810    0.82630    1.000
    C89      C        0.42330    0.76992    0.71190    1.000
    C90      C        0.39710    0.73571    0.63230    1.000
    H39      H        0.34450    0.74770    0.59090    1.000
    C91      C        0.44810    0.68373    0.61337    1.000
    C92      C        0.52810    0.66756    0.67450    1.000
    H40      H        0.56240    0.63210    0.66220    1.000
    C93      C        0.80670    0.53950    0.90900    1.000
    C94      C        0.82750    0.81380    0.94550    1.000
    C95      C        0.36370    0.82180    0.73210    1.000
    C96      C        0.41910    0.64674    0.52670    1.000
    O33      O        0.88460    0.32927    0.82685    1.000
    O34      O        0.79849    0.32549    0.68986    1.000
    O35      O        0.84585    0.14966    0.49055    1.000
    O36      O        0.97697    0.10811    0.51595    1.000
    O37      O        0.25220    0.97741    0.85586    1.000
    O38      O        0.38313    0.01828    0.88579    1.000
    O39      O        0.42080    0.28220    0.00650    1.000
    O40      O        0.31660    0.35991    0.93940    1.000
    H41      H        0.34070    0.39540    0.97290    1.000
    O41      O        0.87019    0.53097    0.97742    1.000
    O42      O        0.77237    0.48946    0.85502    1.000
    O43      O        0.90348    0.80126    0.00039    1.000
    H42      H        0.92840    0.84170    0.02030    1.000
    O44      O        0.79896    0.87526    0.92510    1.000
    O45      O        0.38423    0.84384    0.80854    1.000
    O46      O        0.29810    0.83933    0.67163    1.000
    O47      O        0.34311    0.66005    0.47765    1.000
    O48      O        0.46868    0.60669    0.50628    1.000
    Zn7      Zn       0.18556    0.88950    0.62745    1.000
    Zn8      Zn       0.30781    0.88264    0.86201    1.000
    C97      C        0.07420    0.76027    0.77300    1.000
    C98      C        0.10190    0.72654    0.85350    1.000
    H43      H        0.15700    0.73500    0.89210    1.000
    C99      C        0.04800    0.68032    0.87690    1.000
    C100     C        0.96540    0.66886    0.81950    1.000
    H44      H        0.92910    0.63790    0.83540    1.000
    C101     C        0.93610    0.70294    0.73870    1.000
    C102     C        0.99140    0.74832    0.71530    1.000
    H45      H        0.97310    0.77080    0.66110    1.000
    C103     C        0.84630    0.68976    0.68120    1.000
    C104     C        0.81250    0.61970    0.67600    1.000
    H46      H        0.84710    0.58130    0.70610    1.000
    C105     C        0.72710    0.60550    0.62620    1.000
    C106     C        0.67630    0.66240    0.58130    1.000
    H47      H        0.61970    0.65350    0.54740    1.000
    C107     C        0.70950    0.73310    0.58640    1.000
    C108     C        0.79440    0.74620    0.63580    1.000
    H48      H        0.81660    0.79360    0.63820    1.000
    C109     C        0.13500    0.80869    0.75050    1.000
    C110     C        0.07690    0.64263    0.96250    1.000
    C111     C        0.69480    0.52930    0.62660    1.000
    C112     C        0.65360    0.79610    0.54360    1.000
    C113     C        0.23290    0.11470    0.61000    1.000
    C114     C        0.18630    0.17579    0.57080    1.000
    H49      H        0.13100    0.17030    0.53150    1.000
    C115     C        0.22210    0.24563    0.59000    1.000
    C116     C        0.30590    0.25272    0.64610    1.000
    H50      H        0.33010    0.29950    0.65770    1.000
    C117     C        0.35400    0.19237    0.68500    1.000
    C118     C        0.31660    0.12307    0.66850    1.000
    H51      H        0.34720    0.08190    0.69630    1.000
    C119     C        0.44320    0.20400    0.74640    1.000
    C120     C        0.49630    0.25446    0.72730    1.000
    H52      H        0.47830    0.27810    0.67370    1.000
    C121     C        0.57670    0.26992    0.78810    1.000
    C122     C        0.60290    0.23571    0.86770    1.000
    H53      H        0.65550    0.24770    0.90910    1.000
    C123     C        0.55190    0.18373    0.88663    1.000
    C124     C        0.47190    0.16756    0.82550    1.000
    H54      H        0.43760    0.13210    0.83780    1.000
    C125     C        0.19330    0.03950    0.59100    1.000
    C126     C        0.17250    0.31380    0.55450    1.000
    C127     C        0.63630    0.32180    0.76790    1.000
    C128     C        0.58090    0.14674    0.97330    1.000
    O49      O        0.11540    0.82927    0.67315    1.000
    O50      O        0.20151    0.82549    0.81014    1.000
    O51      O        0.15415    0.64966    0.00945    1.000
    O52      O        0.02303    0.60811    0.98405    1.000
    O53      O        0.74780    0.47741    0.64414    1.000
    O54      O        0.61687    0.51828    0.61421    1.000
    O55      O        0.57920    0.78220    0.49350    1.000
    O56      O        0.68340    0.85991    0.56060    1.000
    H55      H        0.65930    0.89540    0.52710    1.000
    O57      O        0.12981    0.03097    0.52258    1.000
    O58      O        0.22763    0.98946    0.64498    1.000
    O59      O        0.09652    0.30126    0.49961    1.000
    H56      H        0.07160    0.34170    0.47970    1.000
    O60      O        0.20104    0.37526    0.57490    1.000
    O61      O        0.61577    0.34384    0.69146    1.000
    O62      O        0.70190    0.33933    0.82837    1.000
    O63      O        0.65689    0.16005    0.02235    1.000
    O64      O        0.53132    0.10669    0.99372    1.000
    Zn9      Zn       0.00000    0.50000    0.00000    1.000
    Zn10     Zn       0.00000    0.00000    0.50000    1.000
    Zn11     Zn       0.50000    0.50000    0.50000    1.000
    Zn12     Zn       0.50000    0.00000    0.00000    1.000
