# CIF file generated by openbabel 3.1.0, see https://openbabel.org
data_I
_chemical_name_common 'image0'
_cell_length_a 11.164
_cell_length_b 11.164
_cell_length_c 10.638
_cell_angle_alpha 90
_cell_angle_beta 90
_cell_angle_gamma 90
_space_group_name_H-M_alt 'P 1'
_space_group_name_Hall 'P 1'
loop_
    _symmetry_equiv_pos_as_xyz
    x,y,z
loop_
    _atom_site_label
    _atom_site_type_symbol
    _atom_site_fract_x
    _atom_site_fract_y
    _atom_site_fract_z
    _atom_site_occupancy
    Cu1      Cu       0.91399    0.08601    0.21482    1.000
    Cu2      Cu       0.58511    0.41489    0.05521    1.000
    S1       S        0.69474    0.30526    0.91107    1.000
    N1       N        0.82340    0.17660    0.09020    1.000
    C1       C        0.77150    0.22850    0.01650    1.000
    Cu3      Cu       0.08601    0.91399    0.21482    1.000
    Cu4      Cu       0.41489    0.58511    0.05521    1.000
    S2       S        0.30526    0.69474    0.91107    1.000
    N2       N        0.17660    0.82340    0.09020    1.000
    C2       C        0.22850    0.77150    0.01650    1.000
    Cu5      Cu       0.91399    0.91399    0.71482    1.000
    Cu6      Cu       0.58511    0.58511    0.55521    1.000
    S3       S        0.69474    0.69474    0.41107    1.000
    N3       N        0.82340    0.82340    0.59020    1.000
    C3       C        0.77150    0.77150    0.51650    1.000
    Cu7      Cu       0.08601    0.08601    0.71482    1.000
    Cu8      Cu       0.41489    0.41489    0.55521    1.000
    S4       S        0.30526    0.30526    0.41107    1.000
    N4       N        0.17660    0.17660    0.59020    1.000
    C4       C        0.22850    0.22850    0.51650    1.000
    S5       S        0.12252    0.12252    0.15749    1.000
    N5       N        0.10930    0.10930    0.89340    1.000
    C5       C        0.11330    0.11330    0.00150    1.000
    S6       S        0.87748    0.87748    0.15749    1.000
    N6       N        0.89070    0.89070    0.89340    1.000
    C6       C        0.88670    0.88670    0.00150    1.000
    S7       S        0.87748    0.12252    0.65749    1.000
    N7       N        0.89070    0.10930    0.39340    1.000
    C7       C        0.88670    0.11330    0.50150    1.000
    S8       S        0.12252    0.87748    0.65749    1.000
    N8       N        0.10930    0.89070    0.39340    1.000
    C8       C        0.11330    0.88670    0.50150    1.000
    S9       S        0.62448    0.62448    0.99766    1.000
    N9       N        0.60880    0.60880    0.73470    1.000
    C9       C        0.61420    0.61420    0.84170    1.000
    S10      S        0.37552    0.37552    0.99766    1.000
    N10      N        0.39120    0.39120    0.73470    1.000
    C10      C        0.38580    0.38580    0.84170    1.000
    S11      S        0.37552    0.62448    0.49766    1.000
    N11      N        0.39120    0.60880    0.23470    1.000
    C11      C        0.38580    0.61420    0.34170    1.000
    S12      S        0.62448    0.37552    0.49766    1.000
    N12      N        0.60880    0.39120    0.23470    1.000
    C12      C        0.61420    0.38580    0.34170    1.000
