data_functionalizedCrystal
_audit_creation_method	'EQeq! by Chris Wilmer'
_symmetry_space_group_name_H-M	'P1'
_symmetry_Int_Tables_number	1
_symmetry_cell_setting	triclinic
loop_
_symmetry_equiv_pos_as_xyz
  x,y,z
_cell_length_a	9.4092
_cell_length_b	15.6563
_cell_length_c	15.6563
_cell_angle_alpha	84.8194
_cell_angle_beta	72.5127
_cell_angle_gamma	72.5129
loop_
_atom_site_label
_atom_site_type_symbol
_atom_site_fract_x
_atom_site_fract_y
_atom_site_fract_z
_atom_site_charge
Mof_Ca	Ca	0.625	0.8581	0.6419	1.291
Mof_Ca	Ca	0.125	0.1419	0.3581	1.261
Mof_Ca	Ca	0.7331	0.6419	0.1419	1.294
Mof_Ca	Ca	0.5169	0.3581	0.8581	1.29
Mof_H 	H 	0.3165	0.725	0.447	0.188
Mof_H 	H 	0.8361	0.6985	0.3021	0.002
Mof_H 	H 	0.2884	0.591	0.286	0.083
Mof_H 	H 	0.0223	0.7922	0.4596	0.084
Mof_H 	H 	0.4885	0.275	0.553	0.186
Mof_H 	H 	0.8367	0.3015	0.6979	-0.009
Mof_H 	H 	0.1654	0.409	0.714	0.084
Mof_H 	H 	0.2741	0.2078	0.5404	0.069
Mof_H 	H 	0.2365	0.447	0.275	0.185
Mof_H 	H 	0.8618	0.3021	0.3015	0.013
Mof_H 	H 	0.4256	0.286	0.409	0.084
Mof_H 	H 	0.5181	0.4596	0.2078	0.081
Mof_H 	H 	0.9585	0.553	0.725	0.205
Mof_H 	H 	0.4654	0.6979	0.6985	0.008
Mof_H 	H 	0.1206	0.714	0.591	0.081
Mof_H 	H 	0.1855	0.5404	0.7922	0.079
Mof_H 	H 	0.7615	0.947	0.225	0.185
Mof_H 	H 	0.4133	0.8021	0.1985	0.009
Mof_H 	H 	0.0846	0.786	0.091	0.077
Mof_H 	H 	0.9759	0.9596	0.2922	0.109
Mof_H 	H 	0.9335	0.053	0.775	0.187
Mof_H 	H 	0.4139	0.1979	0.8015	0.009
Mof_H 	H 	0.9616	0.214	0.909	0.109
Mof_H 	H 	0.2277	0.0404	0.7078	0.076
Mof_H 	H 	0.2915	0.775	0.947	0.189
Mof_H 	H 	0.7846	0.8015	0.8021	0.02
Mof_H 	H 	0.1294	0.909	0.786	0.097
Mof_H 	H 	0.0645	0.7078	0.9596	0.094
Mof_H 	H 	0.0135	0.225	0.053	0.164
Mof_H 	H 	0.3882	0.1985	0.1979	0.004
Mof_H 	H 	0.8244	0.091	0.214	0.084
Mof_H 	H 	0.7319	0.2922	0.0404	0.08
Mof_Pb	Pb	0.429	0.946	0.446	0.764
Mof_Pb	Pb	0.821	0.054	0.554	0.776
Mof_Pb	Pb	0.125	0.446	0.054	0.738
Mof_Pb	Pb	0.625	0.554	0.946	0.766
Mof_C 	C 	0.75197	0.8205	0.42596	0.325
Mof_C 	C 	0.07936	0.57735	0.20645	0.331
Mof_C 	C 	0.2025	0.8873	0.25442	-0.046
Mof_C 	C 	0.92177	0.69658	0.32096	0.032
Mof_C 	C 	0.06409	0.63606	0.28258	-0.087
Mof_C 	C 	0.19288	0.63262	0.31062	-0.126
Mof_C 	C 	0.17648	0.69261	0.37623	0.222
Mof_C 	C 	0.03287	0.75308	0.41528	-0.168
Mof_C 	C 	0.99843	0.1795	0.57404	0.39
Mof_C 	C 	0.86316	0.42265	0.79355	0.357
Mof_C 	C 	0.34422	0.1127	0.74558	-0.059
Mof_C 	C 	0.93931	0.30342	0.67904	0.061
Mof_C 	C 	0.98273	0.36394	0.71742	-0.064
Mof_C 	C 	0.13612	0.36738	0.68938	-0.139
Mof_C 	C 	0.24532	0.30739	0.62377	0.206
Mof_C 	C 	0.20123	0.24692	0.58472	-0.107
Mof_C 	C 	0.82207	0.42596	0.1795	0.326
Mof_C 	C 	0.71419	0.20645	0.42265	0.351
Mof_C 	C 	0.54308	0.25442	0.1127	-0.064
Mof_C 	C 	0.75727	0.32096	0.30342	0.005
Mof_C 	C 	0.65333	0.28258	0.36394	-0.064
Mof_C 	C 	0.4965	0.31062	0.36738	-0.129
Mof_C 	C 	0.44729	0.37623	0.30739	0.218
Mof_C 	C 	0.55185	0.41528	0.24692	-0.14
Mof_C 	C 	0.42753	0.57404	0.8205	0.328
Mof_C 	C 	0.34329	0.79355	0.57735	0.353
Mof_C 	C 	0.9102	0.74558	0.8873	-0.012
Mof_C 	C 	0.38165	0.67904	0.69658	0.008
Mof_C 	C 	0.29985	0.71742	0.63606	-0.068
Mof_C 	C 	0.1745	0.68938	0.63262	-0.131
Mof_C 	C 	0.13091	0.62377	0.69261	0.22
Mof_C 	C 	0.21405	0.58472	0.75308	-0.142
Mof_C 	C 	0.25157	0.92596	0.3205	0.322
Mof_C 	C 	0.38684	0.70645	0.07735	0.354
Mof_C 	C 	0.90578	0.75442	0.3873	-0.038
Mof_C 	C 	0.31069	0.82096	0.19658	0.002
Mof_C 	C 	0.26727	0.78258	0.13606	-0.067
Mof_C 	C 	0.11388	0.81062	0.13262	-0.125
Mof_C 	C 	0.00468	0.87623	0.19261	0.205
Mof_C 	C 	0.04877	0.91528	0.25308	-0.179
Mof_C 	C 	0.49803	0.07404	0.6795	0.328
Mof_C 	C 	0.17064	0.29355	0.92265	0.349
Mof_C 	C 	0.0475	0.24558	0.6127	-0.128
Mof_C 	C 	0.32823	0.17904	0.80342	0.003
Mof_C 	C 	0.18591	0.21742	0.86394	-0.057
Mof_C 	C 	0.05712	0.18938	0.86738	-0.163
Mof_C 	C 	0.07352	0.12377	0.80739	0.207
Mof_C 	C 	0.21713	0.08472	0.74692	-0.136
Mof_C 	C 	0.82247	0.6795	0.92596	0.315
Mof_C 	C 	0.90671	0.92265	0.70645	0.342
Mof_C 	C 	0.3398	0.6127	0.75442	-0.058
Mof_C 	C 	0.86835	0.80342	0.82096	-0.027
Mof_C 	C 	0.95015	0.86394	0.78258	-0.021
Mof_C 	C 	0.0755	0.86738	0.81062	-0.181
Mof_C 	C 	0.11909	0.80739	0.87623	0.249
Mof_C 	C 	0.03595	0.74692	0.91528	-0.192
Mof_C 	C 	0.42793	0.3205	0.07404	0.331
Mof_C 	C 	0.53581	0.07735	0.29355	0.354
Mof_C 	C 	0.70692	0.3873	0.24558	-0.056
Mof_C 	C 	0.49273	0.19658	0.17904	0.013
Mof_C 	C 	0.59667	0.13606	0.21742	-0.071
Mof_C 	C 	0.7535	0.13262	0.18938	-0.119
Mof_C 	C 	0.80271	0.19261	0.12377	0.209
Mof_C 	C 	0.69815	0.25308	0.08472	-0.13
Mof_O 	O 	0.7359	0.87102	0.48906	-0.439
Mof_O 	O 	0.64365	0.82328	0.39278	-0.326
Mof_O 	O 	0.97195	0.59838	0.16928	-0.442
Mof_O 	O 	0.19566	0.51049	0.18301	-0.326
Mof_O 	O 	0.30599	0.69127	0.39887	-0.334
Mof_O 	O 	0.09598	0.12898	0.51094	-0.472
Mof_O 	O 	0.85971	0.17672	0.60722	-0.34
Mof_O 	O 	0.73961	0.40162	0.83072	-0.465
Mof_O 	O 	0.88916	0.48951	0.81699	-0.325
Mof_O 	O 	0.39613	0.30873	0.60113	-0.329
Mof_O 	O 	0.77504	0.48906	0.12898	-0.439
Mof_O 	O 	0.96357	0.39278	0.17672	-0.312
Mof_O 	O 	0.85877	0.16928	0.40162	-0.455
Mof_O 	O 	0.62133	0.18301	0.48951	-0.328
Mof_O 	O 	0.29514	0.39887	0.30873	-0.335
Mof_O 	O 	0.39308	0.51094	0.87102	-0.444
Mof_O 	O 	0.53307	0.60722	0.82328	-0.328
Mof_O 	O 	0.42967	0.83072	0.59838	-0.466
Mof_O 	O 	0.29385	0.81699	0.51049	-0.332
Mof_O 	O 	0.00274	0.60113	0.69127	-0.356
Mof_O 	O 	0.15402	0.98906	0.37102	-0.446
Mof_O 	O 	0.39029	0.89278	0.32328	-0.326
Mof_O 	O 	0.51039	0.66928	0.09838	-0.466
Mof_O 	O 	0.36084	0.68301	0.01049	-0.331
Mof_O 	O 	0.85387	0.89887	0.19127	-0.316
Mof_O 	O 	0.5141	0.01094	0.62898	-0.445
Mof_O 	O 	0.60635	0.10722	0.67672	-0.328
Mof_O 	O 	0.27805	0.33072	0.90162	-0.464
Mof_O 	O 	0.05434	0.31699	0.98951	-0.333
Mof_O 	O 	0.94401	0.10113	0.80873	-0.319
Mof_O 	O 	0.85692	0.62898	0.98906	-0.435
Mof_O 	O 	0.71693	0.67672	0.89278	-0.324
Mof_O 	O 	0.82033	0.90162	0.66928	-0.46
Mof_O 	O 	0.95615	0.98951	0.68301	-0.319
Mof_O 	O 	0.24726	0.80873	0.89887	-0.343
Mof_O 	O 	0.47496	0.37102	0.01094	-0.443
Mof_O 	O 	0.28643	0.32328	0.10722	-0.331
Mof_O 	O 	0.39123	0.09838	0.33072	-0.463
Mof_O 	O 	0.62867	0.01049	0.31699	-0.328
Mof_O 	O 	0.95486	0.19127	0.10113	-0.305
_end
