data_functionalizedCrystal
_audit_creation_method	'EQeq! by Chris Wilmer'
_symmetry_space_group_name_H-M	'P1'
_symmetry_Int_Tables_number	1
_symmetry_cell_setting	triclinic
loop_
_symmetry_equiv_pos_as_xyz
  x,y,z
_cell_length_a	24.434
_cell_length_b	18.364
_cell_length_c	8.259
_cell_angle_alpha	90
_cell_angle_beta	101.72
_cell_angle_gamma	90
loop_
_atom_site_label
_atom_site_type_symbol
_atom_site_fract_x
_atom_site_fract_y
_atom_site_fract_z
_atom_site_charge
Mof_C 	C 	0.3506	0.5452	0.9392	0.183
Mof_C 	C 	0.3896	0.4418	0.8753	0.195
Mof_C 	C 	0.4263	0.5506	0.8213	0.19
Mof_C 	C 	0.2961	0.6491	0.0283	0.426
Mof_C 	C 	0.3704	0.3137	0.9336	0.148
Mof_C 	C 	0.329	0.3241	0.0216	-0.136
Mof_H 	H 	0.3193	0.371	0.0476	0.103
Mof_C 	C 	0.3848	0.2424	0.9037	-0.192
Mof_H 	H 	0.4139	0.2342	0.8487	0.082
Mof_C 	C 	0.5062	0.5795	0.6859	0.228
Mof_C 	C 	0.5267	0.511	0.6702	-0.246
Mof_H 	H 	0.5098	0.4712	0.7095	0.127
Mof_C 	C 	0.5727	0.4996	0.596	0.137
Mof_H 	H 	0.5858	0.4526	0.5866	-0.009
Mof_C 	C 	0.5988	0.5572	0.5371	-0.197
Mof_C 	C 	0.5789	0.6265	0.5521	0.142
Mof_H 	H 	0.5969	0.6664	0.5174	-0.008
Mof_C 	C 	0.532	0.6365	0.6189	-0.247
Mof_H 	H 	0.517	0.6831	0.6192	0.108
Mof_C 	C 	0.6483	0.5445	0.464	0.354
Mof_C 	C 	0.284	0.1316	0.0884	0.369
Mof_C 	C 	0.3156	0.1928	0.0403	-0.127
Mof_C 	C 	0.3007	0.262	0.0735	0.062
Mof_H 	H 	0.272	0.2693	0.1302	0.028
Mof_C 	C 	0.3574	0.1838	0.9527	0.054
Mof_H 	H 	0.3672	0.137	0.9262	-0.021
Mof_C 	C 	0.2504	0.8652	0.1463	0.446
Mof_C 	C 	0.2635	0.7903	0.0985	-0.376
Mof_C 	C 	0.3083	0.7774	0.0202	0.503
Mof_H 	H 	0.3285	0.8167	0.9926	-0.186
Mof_C 	C 	0.3229	0.709	0.9835	-0.59
Mof_H 	H 	0.3517	0.7027	0.9267	0.235
Mof_C 	C 	0.2372	0.7302	0.1479	0.332
Mof_H 	H 	0.2089	0.7364	0.2067	-0.071
Mof_C 	C 	0.2524	0.6621	0.1108	-0.42
Mof_H 	H 	0.233	0.6225	0.1414	0.173
Mof_N 	N 	0.4289	0.4792	0.8074	-0.176
Mof_N 	N 	0.3884	0.5876	0.8906	-0.185
Mof_N 	N 	0.35	0.4724	0.9368	-0.191
Mof_N 	N 	0.3965	0.3682	0.8706	-0.25
Mof_H 	H 	0.4218	0.3543	0.8187	0.135
Mof_N 	N 	0.3096	0.5764	0.0048	-0.277
Mof_H 	H 	0.2878	0.5456	0.0383	0.149
Mof_N 	N 	0.4632	0.5965	0.7617	-0.257
Mof_H 	H 	0.4582	0.6423	0.7748	0.132
Mof_O 	O 	0.6793	0.4876	0.5133	-0.519
Mof_O 	O 	0.2938	0.0671	0.0408	-0.544
Mof_O 	O 	0.2514	0.1408	0.1899	-0.435
Mof_O 	O 	0.217	0.8779	0.2399	-0.434
Mof_O 	O 	0.2774	0.919	0.0936	-0.552
Mof_O 	O 	0.6618	0.5878	0.3586	-0.403
Mof_La	La	0.74737	0.48604	0.80396	1.951
Mof_C 	C 	0.8506	0.0452	0.9392	0.184
Mof_C 	C 	0.8896	0.9418	0.8753	0.195
Mof_C 	C 	0.9263	0.0506	0.8213	0.191
Mof_C 	C 	0.7961	0.1491	0.0283	0.419
Mof_C 	C 	0.8704	0.8137	0.9336	0.146
Mof_C 	C 	0.829	0.8241	0.0216	-0.132
Mof_H 	H 	0.8193	0.871	0.0476	0.102
Mof_C 	C 	0.8848	0.7424	0.9037	-0.189
Mof_H 	H 	0.9139	0.7342	0.8487	0.082
Mof_C 	C 	0.0062	0.0795	0.6859	0.216
Mof_C 	C 	0.0267	0.011	0.6702	-0.242
Mof_H 	H 	0.0098	0.9712	0.7095	0.123
Mof_C 	C 	0.0727	0.9996	0.596	0.135
Mof_H 	H 	0.0858	0.9526	0.5866	-0.009
Mof_C 	C 	0.0988	0.0572	0.5371	-0.196
Mof_C 	C 	0.0789	0.1265	0.5521	0.138
Mof_H 	H 	0.0969	0.1664	0.5174	-0.008
Mof_C 	C 	0.032	0.1365	0.6189	-0.242
Mof_H 	H 	0.017	0.1831	0.6192	0.102
Mof_C 	C 	0.1483	0.0445	0.464	0.352
Mof_C 	C 	0.784	0.6316	0.0884	0.368
Mof_C 	C 	0.8156	0.6928	0.0403	-0.123
Mof_C 	C 	0.8007	0.762	0.0735	0.059
Mof_H 	H 	0.772	0.7693	0.1302	0.029
Mof_C 	C 	0.8574	0.6838	0.9527	0.049
Mof_H 	H 	0.8672	0.637	0.9262	-0.019
Mof_C 	C 	0.7504	0.3652	0.1463	0.444
Mof_C 	C 	0.7635	0.2903	0.0985	-0.37
Mof_C 	C 	0.8083	0.2774	0.0202	0.491
Mof_H 	H 	0.8285	0.3167	0.9926	-0.18
Mof_C 	C 	0.8229	0.209	0.9835	-0.578
Mof_H 	H 	0.8517	0.2027	0.9267	0.231
Mof_C 	C 	0.7372	0.2302	0.1479	0.326
Mof_H 	H 	0.7089	0.2364	0.2067	-0.068
Mof_C 	C 	0.7524	0.1621	0.1108	-0.414
Mof_H 	H 	0.733	0.1225	0.1414	0.172
Mof_N 	N 	0.9289	0.9792	0.8074	-0.174
Mof_N 	N 	0.8884	0.0876	0.8906	-0.184
Mof_N 	N 	0.85	0.9724	0.9368	-0.191
Mof_N 	N 	0.8965	0.8682	0.8706	-0.25
Mof_H 	H 	0.9218	0.8543	0.8187	0.137
Mof_N 	N 	0.8096	0.0764	0.0048	-0.276
Mof_H 	H 	0.7878	0.0456	0.0383	0.149
Mof_N 	N 	0.9632	0.0965	0.7617	-0.251
Mof_H 	H 	0.9582	0.1423	0.7748	0.133
Mof_O 	O 	0.1793	0.9876	0.5133	-0.517
Mof_O 	O 	0.7938	0.5671	0.0408	-0.542
Mof_O 	O 	0.7514	0.6408	0.1899	-0.434
Mof_O 	O 	0.717	0.3779	0.2399	-0.434
Mof_O 	O 	0.7774	0.419	0.0936	-0.553
Mof_O 	O 	0.1618	0.0878	0.3586	-0.403
Mof_La	La	0.24737	0.98604	0.80396	1.953
Mof_C 	C 	0.3506	0.4548	0.4392	0.208
Mof_C 	C 	0.3896	0.5582	0.3753	0.211
Mof_C 	C 	0.4263	0.4494	0.3213	0.201
Mof_C 	C 	0.2961	0.3509	0.5283	0.252
Mof_C 	C 	0.3704	0.6863	0.4336	0.261
Mof_C 	C 	0.329	0.6759	0.5216	-0.268
Mof_H 	H 	0.3193	0.629	0.5476	0.136
Mof_C 	C 	0.3848	0.7576	0.4037	-0.298
Mof_H 	H 	0.4139	0.7658	0.3487	0.127
Mof_C 	C 	0.5062	0.4205	0.1859	0.217
Mof_C 	C 	0.5267	0.489	0.1702	-0.209
Mof_H 	H 	0.5098	0.5288	0.2095	0.125
Mof_C 	C 	0.5727	0.5004	0.096	0.094
Mof_H 	H 	0.5858	0.5474	0.0866	0.016
Mof_C 	C 	0.5988	0.4428	0.0371	-0.119
Mof_C 	C 	0.5789	0.3735	0.0521	0.1
Mof_H 	H 	0.5969	0.3336	0.0174	0.018
Mof_C 	C 	0.532	0.3635	0.1189	-0.212
Mof_H 	H 	0.517	0.3169	0.1192	0.105
Mof_C 	C 	0.6483	0.4555	0.964	0.264
Mof_C 	C 	0.284	0.8684	0.5884	0.409
Mof_C 	C 	0.3156	0.8072	0.5403	-0.249
Mof_C 	C 	0.3007	0.738	0.5735	0.158
Mof_H 	H 	0.272	0.7307	0.6302	-0.013
Mof_C 	C 	0.3574	0.8162	0.4527	0.197
Mof_H 	H 	0.3672	0.863	0.4262	-0.059
Mof_C 	C 	0.2504	0.1348	0.6463	0.387
Mof_C 	C 	0.2635	0.2097	0.5985	-0.23
Mof_C 	C 	0.3083	0.2226	0.5202	0.201
Mof_H 	H 	0.3285	0.1833	0.4926	-0.056
Mof_C 	C 	0.3229	0.291	0.4835	-0.296
Mof_H 	H 	0.3517	0.2973	0.4267	0.142
Mof_C 	C 	0.2372	0.2698	0.6479	0.179
Mof_H 	H 	0.2089	0.2636	0.7067	-0.027
Mof_C 	C 	0.2524	0.3379	0.6108	-0.275
Mof_H 	H 	0.233	0.3775	0.6414	0.117
Mof_N 	N 	0.4289	0.5208	0.3074	-0.172
Mof_N 	N 	0.3884	0.4124	0.3906	-0.18
Mof_N 	N 	0.35	0.5276	0.4368	-0.188
Mof_N 	N 	0.3965	0.6318	0.3706	-0.272
Mof_H 	H 	0.4218	0.6457	0.3187	0.149
Mof_N 	N 	0.3096	0.4236	0.5048	-0.263
Mof_H 	H 	0.2878	0.4544	0.5383	0.137
Mof_N 	N 	0.4632	0.4035	0.2617	-0.253
Mof_H 	H 	0.4582	0.3577	0.2748	0.14
Mof_O 	O 	0.6793	0.5124	0.0133	-0.474
Mof_O 	O 	0.2938	0.9329	0.5408	-0.571
Mof_O 	O 	0.2514	0.8592	0.6899	-0.45
Mof_O 	O 	0.217	0.1221	0.7399	-0.43
Mof_O 	O 	0.2774	0.081	0.5936	-0.557
Mof_O 	O 	0.6618	0.4122	0.8586	-0.392
Mof_La	La	0.74737	0.51396	0.30396	2.016
Mof_C 	C 	0.8506	0.9548	0.4392	0.21
Mof_C 	C 	0.8896	0.0582	0.3753	0.212
Mof_C 	C 	0.9263	0.9494	0.3213	0.204
Mof_C 	C 	0.7961	0.8509	0.5283	0.253
Mof_C 	C 	0.8704	0.1863	0.4336	0.262
Mof_C 	C 	0.829	0.1759	0.5216	-0.269
Mof_H 	H 	0.8193	0.129	0.5476	0.136
Mof_C 	C 	0.8848	0.2576	0.4037	-0.299
Mof_H 	H 	0.9139	0.2658	0.3487	0.128
Mof_C 	C 	0.0062	0.9205	0.1859	0.195
Mof_C 	C 	0.0267	0.989	0.1702	-0.185
Mof_H 	H 	0.0098	0.0288	0.2095	0.112
Mof_C 	C 	0.0727	0.0004	0.096	0.072
Mof_H 	H 	0.0858	0.0474	0.0866	0.022
Mof_C 	C 	0.0988	0.9428	0.0371	-0.103
Mof_C 	C 	0.0789	0.8735	0.0521	0.084
Mof_H 	H 	0.0969	0.8336	0.0174	0.023
Mof_C 	C 	0.032	0.8635	0.1189	-0.196
Mof_H 	H 	0.017	0.8169	0.1192	0.097
Mof_C 	C 	0.1483	0.9555	0.964	0.259
Mof_C 	C 	0.784	0.3684	0.5884	0.41
Mof_C 	C 	0.8156	0.3072	0.5403	-0.249
Mof_C 	C 	0.8007	0.238	0.5735	0.158
Mof_H 	H 	0.772	0.2307	0.6302	-0.013
Mof_C 	C 	0.8574	0.3162	0.4527	0.198
Mof_H 	H 	0.8672	0.363	0.4262	-0.059
Mof_C 	C 	0.7504	0.6348	0.6463	0.387
Mof_C 	C 	0.7635	0.7097	0.5985	-0.231
Mof_C 	C 	0.8083	0.7226	0.5202	0.202
Mof_H 	H 	0.8285	0.6833	0.4926	-0.056
Mof_C 	C 	0.8229	0.791	0.4835	-0.296
Mof_H 	H 	0.8517	0.7973	0.4267	0.143
Mof_C 	C 	0.7372	0.7698	0.6479	0.18
Mof_H 	H 	0.7089	0.7636	0.7067	-0.026
Mof_C 	C 	0.7524	0.8379	0.6108	-0.275
Mof_H 	H 	0.733	0.8775	0.6414	0.118
Mof_N 	N 	0.9289	0.0208	0.3074	-0.171
Mof_N 	N 	0.8884	0.9124	0.3906	-0.18
Mof_N 	N 	0.85	0.0276	0.4368	-0.189
Mof_N 	N 	0.8965	0.1318	0.3706	-0.272
Mof_H 	H 	0.9218	0.1457	0.3187	0.151
Mof_N 	N 	0.8096	0.9236	0.5048	-0.264
Mof_H 	H 	0.7878	0.9544	0.5383	0.138
Mof_N 	N 	0.9632	0.9035	0.2617	-0.245
Mof_H 	H 	0.9582	0.8577	0.2748	0.141
Mof_O 	O 	0.1793	0.0124	0.0133	-0.474
Mof_O 	O 	0.7938	0.4329	0.5408	-0.572
Mof_O 	O 	0.7514	0.3592	0.6899	-0.449
Mof_O 	O 	0.717	0.6221	0.7399	-0.43
Mof_O 	O 	0.7774	0.581	0.5936	-0.557
Mof_O 	O 	0.1618	0.9122	0.8586	-0.392
Mof_La	La	0.24737	0.01396	0.30396	2.013
_end
