data_functionalizedCrystal
_audit_creation_method	'EQeq! by Chris Wilmer'
_symmetry_space_group_name_H-M	'P1'
_symmetry_Int_Tables_number	1
_symmetry_cell_setting	triclinic
loop_
_symmetry_equiv_pos_as_xyz
  x,y,z
_cell_length_a	31.895
_cell_length_b	15.133
_cell_length_c	31.168
_cell_angle_alpha	90
_cell_angle_beta	98.082
_cell_angle_gamma	90
loop_
_atom_site_label
_atom_site_type_symbol
_atom_site_fract_x
_atom_site_fract_y
_atom_site_fract_z
_atom_site_charge
Mof_Zn	Zn	0.80835	0.3497	0.21446	1.168
Mof_I 	I 	0.7417	0.28594	0.18134	-0.4
Mof_I 	I 	0.84533	0.30444	0.28802	-0.389
Mof_N 	N 	0.8494	0.3267	0.1703	-0.275
Mof_C 	C 	0.8374	0.2814	0.1337	0.07
Mof_H 	H 	0.8095	0.2579	0.1285	-0.006
Mof_C 	C 	0.8641	0.2677	0.1033	-0.116
Mof_H 	H 	0.8545	0.2368	0.0772	0.081
Mof_C 	C 	0.9051	0.2994	0.1111	0.062
Mof_C 	C 	0.9177	0.345	0.149	-0.12
Mof_H 	H 	0.9455	0.3686	0.1551	0.082
Mof_C 	C 	0.8887	0.3556	0.1782	0.077
Mof_H 	H 	0.8976	0.3849	0.2048	-0.02
Mof_C 	C 	0.9339	0.2882	0.0781	0.095
Mof_N 	N 	0.928	0.2183	0.0526	-0.139
Mof_C 	C 	0.9567	0.2089	0.0255	0.082
Mof_N 	N 	0.9877	0.2666	0.0212	-0.147
Mof_C 	C 	0.9896	0.3346	0.0482	0.093
Mof_N 	N 	0.9648	0.3485	0.0778	-0.141
Mof_N 	N 	0.9449	0.9837	0.9432	-0.274
Mof_C 	C 	0.9762	0.0413	0.9423	0.076
Mof_H 	H 	0.9953	0.0321	0.922	-0.012
Mof_C 	C 	0.9822	0.1137	0.9694	-0.121
Mof_H 	H 	0.0052	0.1529	0.9679	0.077
Mof_C 	C 	0.9544	0.1283	0.9986	0.052
Mof_C 	C 	0.9222	0.0668	0.0012	-0.112
Mof_H 	H 	0.9032	0.0736	0.0219	0.08
Mof_C 	C 	0.9186	0.9958	0.973	0.063
Mof_H 	H 	0.8967	0.9538	0.9748	-0.009
Mof_Zn	Zn	0.93004	0.89095	0.89542	1.165
Mof_I 	I 	0.88765	0.76836	0.92363	-0.372
Mof_I 	I 	0.99502	0.86681	0.85715	-0.354
Mof_N 	N 	0.0882	0.5221	0.0437	-0.275
Mof_C 	C 	0.0656	0.5219	0.075	0.088
Mof_H 	H 	0.0723	0.564	0.0976	-0.025
Mof_C 	C 	0.0325	0.465	0.0779	-0.124
Mof_H 	H 	0.0164	0.469	0.1013	0.081
Mof_C 	C 	0.0231	0.4011	0.0456	0.052
Mof_C 	C 	0.0463	0.4029	0.0111	-0.107
Mof_H 	H 	0.04	0.3622	0.9878	0.077
Mof_C 	C 	0.0785	0.4642	0.0105	0.063
Mof_H 	H 	0.0939	0.4657	0.9865	-0.003
Mof_Zn	Zn	0.14187	0.59933	0.05017	1.165
Mof_I 	I 	0.12312	0.74705	0.08122	-0.368
Mof_I 	I 	0.17739	0.5834	0.98238	-0.373
Mof_N 	N 	0.1798	0.531	0.0977	-0.269
Mof_C 	C 	0.1862	0.4437	0.0936	0.069
Mof_H 	H 	0.1713	0.4134	0.0694	-0.001
Mof_C 	C 	0.2134	0.397	0.1231	-0.109
Mof_H 	H 	0.2167	0.3351	0.1197	0.089
Mof_C 	C 	0.2362	0.4407	0.1581	0.048
Mof_C 	C 	0.2304	0.5311	0.1616	-0.11
Mof_H 	H 	0.2465	0.5636	0.1843	0.079
Mof_C 	C 	0.2012	0.5731	0.1321	0.055
Mof_H 	H 	0.1958	0.6341	0.136	0.008
Mof_C 	C 	0.2673	0.3922	0.1902	0.091
Mof_N 	N 	0.2714	0.3054	0.1847	-0.141
Mof_C 	C 	0.3001	0.2678	0.2134	0.097
Mof_N 	N 	0.325	0.3096	0.2449	-0.135
Mof_C 	C 	0.3173	0.3946	0.2478	0.101
Mof_N 	N 	0.288	0.4397	0.2222	-0.148
Mof_N 	N 	0.3059	0.9866	0.215	-0.278
Mof_C 	C 	0.3292	0.0325	0.243	0.099
Mof_H 	H 	0.3478	0.0022	0.2646	-0.022
Mof_C 	C 	0.3292	0.1236	0.244	-0.14
Mof_H 	H 	0.3472	0.1546	0.2658	0.091
Mof_C 	C 	0.3028	0.1687	0.2129	0.065
Mof_C 	C 	0.2772	0.1201	0.1817	-0.125
Mof_H 	H 	0.2582	0.1487	0.1599	0.084
Mof_C 	C 	0.28	0.0294	0.1835	0.066
Mof_H 	H 	0.2633	0.9955	0.1618	-0.008
Mof_N 	N 	0.3894	0.5333	0.3522	-0.268
Mof_C 	C 	0.3584	0.5732	0.3265	0.063
Mof_H 	H 	0.3531	0.634	0.3312	-0
Mof_C 	C 	0.3335	0.5303	0.2932	-0.116
Mof_H 	H 	0.3109	0.5605	0.2762	0.076
Mof_C 	C 	0.3417	0.4432	0.285	0.058
Mof_C 	C 	0.3734	0.4009	0.3123	-0.115
Mof_H 	H 	0.3793	0.3402	0.3083	0.09
Mof_C 	C 	0.3963	0.4474	0.345	0.078
Mof_H 	H 	0.418	0.4177	0.3636	-0.003
Mof_Zn	Zn	0.30835	0.8497	0.21446	1.169
Mof_I 	I 	0.2417	0.78594	0.18134	-0.399
Mof_I 	I 	0.34533	0.80444	0.28802	-0.388
Mof_N 	N 	0.3494	0.8267	0.1703	-0.274
Mof_C 	C 	0.3374	0.7814	0.1337	0.071
Mof_H 	H 	0.3095	0.7579	0.1285	-0.005
Mof_C 	C 	0.3641	0.7677	0.1033	-0.115
Mof_H 	H 	0.3545	0.7368	0.0772	0.082
Mof_C 	C 	0.4051	0.7994	0.1111	0.063
Mof_C 	C 	0.4177	0.845	0.149	-0.119
Mof_H 	H 	0.4455	0.8686	0.1551	0.083
Mof_C 	C 	0.3887	0.8556	0.1782	0.078
Mof_H 	H 	0.3976	0.8849	0.2048	-0.019
Mof_C 	C 	0.4339	0.7882	0.0781	0.096
Mof_N 	N 	0.428	0.7183	0.0526	-0.139
Mof_C 	C 	0.4567	0.7089	0.0255	0.084
Mof_N 	N 	0.4877	0.7666	0.0212	-0.147
Mof_C 	C 	0.4896	0.8346	0.0482	0.093
Mof_N 	N 	0.4648	0.8485	0.0778	-0.141
Mof_N 	N 	0.4449	0.4837	0.9432	-0.274
Mof_C 	C 	0.4762	0.5413	0.9423	0.075
Mof_H 	H 	0.4953	0.5321	0.922	-0.012
Mof_C 	C 	0.4822	0.6137	0.9694	-0.12
Mof_H 	H 	0.5052	0.6529	0.9679	0.077
Mof_C 	C 	0.4544	0.6283	0.9986	0.051
Mof_C 	C 	0.4222	0.5668	0.0012	-0.111
Mof_H 	H 	0.4032	0.5736	0.0219	0.08
Mof_C 	C 	0.4186	0.4958	0.973	0.063
Mof_H 	H 	0.3967	0.4538	0.9748	-0.009
Mof_Zn	Zn	0.43004	0.39095	0.89542	1.165
Mof_I 	I 	0.38765	0.26836	0.92363	-0.372
Mof_I 	I 	0.49502	0.36681	0.85715	-0.353
Mof_N 	N 	0.5882	0.0221	0.0437	-0.275
Mof_C 	C 	0.5656	0.0219	0.075	0.087
Mof_H 	H 	0.5723	0.064	0.0976	-0.025
Mof_C 	C 	0.5325	0.965	0.0779	-0.124
Mof_H 	H 	0.5164	0.969	0.1013	0.081
Mof_C 	C 	0.5231	0.9011	0.0456	0.052
Mof_C 	C 	0.5463	0.9029	0.0111	-0.107
Mof_H 	H 	0.54	0.8622	0.9878	0.077
Mof_C 	C 	0.5785	0.9642	0.0105	0.064
Mof_H 	H 	0.5939	0.9657	0.9865	-0.003
Mof_Zn	Zn	0.64187	0.09933	0.05017	1.165
Mof_I 	I 	0.62312	0.24705	0.08122	-0.368
Mof_I 	I 	0.67739	0.0834	0.98238	-0.373
Mof_N 	N 	0.6798	0.031	0.0977	-0.27
Mof_C 	C 	0.6862	0.9437	0.0936	0.07
Mof_H 	H 	0.6713	0.9134	0.0694	-0.001
Mof_C 	C 	0.7134	0.897	0.1231	-0.11
Mof_H 	H 	0.7167	0.8351	0.1197	0.089
Mof_C 	C 	0.7362	0.9407	0.1581	0.048
Mof_C 	C 	0.7304	0.0311	0.1616	-0.111
Mof_H 	H 	0.7465	0.0636	0.1843	0.079
Mof_C 	C 	0.7012	0.0731	0.1321	0.056
Mof_H 	H 	0.6958	0.1341	0.136	0.008
Mof_C 	C 	0.7673	0.8922	0.1902	0.091
Mof_N 	N 	0.7714	0.8054	0.1847	-0.141
Mof_C 	C 	0.8001	0.7678	0.2134	0.097
Mof_N 	N 	0.825	0.8096	0.2449	-0.135
Mof_C 	C 	0.8173	0.8946	0.2478	0.101
Mof_N 	N 	0.788	0.9397	0.2222	-0.148
Mof_N 	N 	0.8059	0.4866	0.215	-0.279
Mof_C 	C 	0.8292	0.5325	0.243	0.099
Mof_H 	H 	0.8478	0.5022	0.2646	-0.022
Mof_C 	C 	0.8292	0.6236	0.244	-0.141
Mof_H 	H 	0.8472	0.6546	0.2658	0.091
Mof_C 	C 	0.8028	0.6687	0.2129	0.065
Mof_C 	C 	0.7772	0.6201	0.1817	-0.126
Mof_H 	H 	0.7582	0.6487	0.1599	0.085
Mof_C 	C 	0.78	0.5294	0.1835	0.067
Mof_H 	H 	0.7633	0.4955	0.1618	-0.008
Mof_N 	N 	0.8894	0.0333	0.3522	-0.268
Mof_C 	C 	0.8584	0.0732	0.3265	0.063
Mof_H 	H 	0.8531	0.134	0.3312	-0
Mof_C 	C 	0.8335	0.0303	0.2932	-0.116
Mof_H 	H 	0.8109	0.0605	0.2762	0.076
Mof_C 	C 	0.8417	0.9432	0.285	0.058
Mof_C 	C 	0.8734	0.9009	0.3123	-0.115
Mof_H 	H 	0.8793	0.8402	0.3083	0.09
Mof_C 	C 	0.8963	0.9474	0.345	0.078
Mof_H 	H 	0.918	0.9177	0.3636	-0.003
Mof_Zn	Zn	0.80835	0.6503	0.71446	1.169
Mof_I 	I 	0.7417	0.71406	0.68134	-0.399
Mof_I 	I 	0.84533	0.69556	0.78802	-0.388
Mof_N 	N 	0.8494	0.6733	0.6703	-0.274
Mof_C 	C 	0.8374	0.7186	0.6337	0.071
Mof_H 	H 	0.8095	0.7421	0.6285	-0.005
Mof_C 	C 	0.8641	0.7323	0.6033	-0.115
Mof_H 	H 	0.8545	0.7632	0.5772	0.082
Mof_C 	C 	0.9051	0.7006	0.6111	0.063
Mof_C 	C 	0.9177	0.655	0.649	-0.119
Mof_H 	H 	0.9455	0.6314	0.6551	0.083
Mof_C 	C 	0.8887	0.6444	0.6782	0.078
Mof_H 	H 	0.8976	0.6151	0.7048	-0.019
Mof_C 	C 	0.9339	0.7118	0.5781	0.096
Mof_N 	N 	0.928	0.7817	0.5526	-0.139
Mof_C 	C 	0.9567	0.7911	0.5255	0.084
Mof_N 	N 	0.9877	0.7334	0.5212	-0.147
Mof_C 	C 	0.9896	0.6654	0.5482	0.093
Mof_N 	N 	0.9648	0.6515	0.5778	-0.141
Mof_N 	N 	0.9449	0.0163	0.4432	-0.274
Mof_C 	C 	0.9762	0.9587	0.4423	0.076
Mof_H 	H 	0.9953	0.9679	0.422	-0.012
Mof_C 	C 	0.9822	0.8863	0.4694	-0.121
Mof_H 	H 	0.0052	0.8471	0.4679	0.077
Mof_C 	C 	0.9544	0.8717	0.4986	0.052
Mof_C 	C 	0.9222	0.9332	0.5012	-0.111
Mof_H 	H 	0.9032	0.9264	0.5219	0.08
Mof_C 	C 	0.9186	0.0042	0.473	0.063
Mof_H 	H 	0.8967	0.0462	0.4748	-0.009
Mof_Zn	Zn	0.93004	0.10905	0.39542	1.165
Mof_I 	I 	0.88765	0.23164	0.42363	-0.372
Mof_I 	I 	0.99502	0.13319	0.35715	-0.354
Mof_N 	N 	0.0882	0.4779	0.5437	-0.275
Mof_C 	C 	0.0656	0.4781	0.575	0.088
Mof_H 	H 	0.0723	0.436	0.5976	-0.025
Mof_C 	C 	0.0325	0.535	0.5779	-0.124
Mof_H 	H 	0.0164	0.531	0.6013	0.081
Mof_C 	C 	0.0231	0.5989	0.5456	0.052
Mof_C 	C 	0.0463	0.5971	0.5111	-0.107
Mof_H 	H 	0.04	0.6378	0.4878	0.077
Mof_C 	C 	0.0785	0.5358	0.5105	0.063
Mof_H 	H 	0.0939	0.5343	0.4865	-0.003
Mof_Zn	Zn	0.14187	0.40067	0.55017	1.165
Mof_I 	I 	0.12312	0.25295	0.58122	-0.368
Mof_I 	I 	0.17739	0.4166	0.48238	-0.373
Mof_N 	N 	0.1798	0.469	0.5977	-0.269
Mof_C 	C 	0.1862	0.5563	0.5936	0.069
Mof_H 	H 	0.1713	0.5866	0.5694	-0.001
Mof_C 	C 	0.2134	0.603	0.6231	-0.109
Mof_H 	H 	0.2167	0.6649	0.6197	0.089
Mof_C 	C 	0.2362	0.5593	0.6581	0.048
Mof_C 	C 	0.2304	0.4689	0.6616	-0.11
Mof_H 	H 	0.2465	0.4364	0.6843	0.079
Mof_C 	C 	0.2012	0.4269	0.6321	0.055
Mof_H 	H 	0.1958	0.3659	0.636	0.008
Mof_C 	C 	0.2673	0.6078	0.6902	0.091
Mof_N 	N 	0.2714	0.6946	0.6847	-0.141
Mof_C 	C 	0.3001	0.7322	0.7134	0.097
Mof_N 	N 	0.325	0.6904	0.7449	-0.135
Mof_C 	C 	0.3173	0.6054	0.7478	0.101
Mof_N 	N 	0.288	0.5603	0.7222	-0.148
Mof_N 	N 	0.3059	0.0134	0.715	-0.278
Mof_C 	C 	0.3292	0.9675	0.743	0.099
Mof_H 	H 	0.3478	0.9978	0.7646	-0.022
Mof_C 	C 	0.3292	0.8764	0.744	-0.14
Mof_H 	H 	0.3472	0.8454	0.7658	0.091
Mof_C 	C 	0.3028	0.8313	0.7129	0.065
Mof_C 	C 	0.2772	0.8799	0.6817	-0.125
Mof_H 	H 	0.2582	0.8513	0.6599	0.085
Mof_C 	C 	0.28	0.9706	0.6835	0.066
Mof_H 	H 	0.2633	0.0045	0.6618	-0.008
Mof_N 	N 	0.3894	0.4667	0.8522	-0.268
Mof_C 	C 	0.3584	0.4268	0.8265	0.063
Mof_H 	H 	0.3531	0.366	0.8312	-0
Mof_C 	C 	0.3335	0.4697	0.7932	-0.116
Mof_H 	H 	0.3109	0.4395	0.7762	0.076
Mof_C 	C 	0.3417	0.5568	0.785	0.058
Mof_C 	C 	0.3734	0.5991	0.8123	-0.115
Mof_H 	H 	0.3793	0.6598	0.8083	0.09
Mof_C 	C 	0.3963	0.5526	0.845	0.078
Mof_H 	H 	0.418	0.5823	0.8636	-0.003
Mof_Zn	Zn	0.30835	0.1503	0.71446	1.169
Mof_I 	I 	0.2417	0.21406	0.68134	-0.399
Mof_I 	I 	0.34533	0.19556	0.78802	-0.388
Mof_N 	N 	0.3494	0.1733	0.6703	-0.274
Mof_C 	C 	0.3374	0.2186	0.6337	0.071
Mof_H 	H 	0.3095	0.2421	0.6285	-0.005
Mof_C 	C 	0.3641	0.2323	0.6033	-0.115
Mof_H 	H 	0.3545	0.2632	0.5772	0.082
Mof_C 	C 	0.4051	0.2006	0.6111	0.063
Mof_C 	C 	0.4177	0.155	0.649	-0.119
Mof_H 	H 	0.4455	0.1314	0.6551	0.083
Mof_C 	C 	0.3887	0.1444	0.6782	0.078
Mof_H 	H 	0.3976	0.1151	0.7048	-0.019
Mof_C 	C 	0.4339	0.2118	0.5781	0.096
Mof_N 	N 	0.428	0.2817	0.5526	-0.139
Mof_C 	C 	0.4567	0.2911	0.5255	0.084
Mof_N 	N 	0.4877	0.2334	0.5212	-0.147
Mof_C 	C 	0.4896	0.1654	0.5482	0.093
Mof_N 	N 	0.4648	0.1515	0.5778	-0.141
Mof_N 	N 	0.4449	0.5163	0.4432	-0.274
Mof_C 	C 	0.4762	0.4587	0.4423	0.076
Mof_H 	H 	0.4953	0.4679	0.422	-0.012
Mof_C 	C 	0.4822	0.3863	0.4694	-0.121
Mof_H 	H 	0.5052	0.3471	0.4679	0.077
Mof_C 	C 	0.4544	0.3717	0.4986	0.052
Mof_C 	C 	0.4222	0.4332	0.5012	-0.111
Mof_H 	H 	0.4032	0.4264	0.5219	0.08
Mof_C 	C 	0.4186	0.5042	0.473	0.063
Mof_H 	H 	0.3967	0.5462	0.4748	-0.009
Mof_Zn	Zn	0.43004	0.60905	0.39542	1.165
Mof_I 	I 	0.38765	0.73164	0.42363	-0.372
Mof_I 	I 	0.49502	0.63319	0.35715	-0.353
Mof_N 	N 	0.5882	0.9779	0.5437	-0.275
Mof_C 	C 	0.5656	0.9781	0.575	0.088
Mof_H 	H 	0.5723	0.936	0.5976	-0.025
Mof_C 	C 	0.5325	0.035	0.5779	-0.124
Mof_H 	H 	0.5164	0.031	0.6013	0.081
Mof_C 	C 	0.5231	0.0989	0.5456	0.052
Mof_C 	C 	0.5463	0.0971	0.5111	-0.107
Mof_H 	H 	0.54	0.1378	0.4878	0.077
Mof_C 	C 	0.5785	0.0358	0.5105	0.063
Mof_H 	H 	0.5939	0.0343	0.4865	-0.003
Mof_Zn	Zn	0.64187	0.90067	0.55017	1.165
Mof_I 	I 	0.62312	0.75295	0.58122	-0.368
Mof_I 	I 	0.67739	0.9166	0.48238	-0.373
Mof_N 	N 	0.6798	0.969	0.5977	-0.27
Mof_C 	C 	0.6862	0.0563	0.5936	0.069
Mof_H 	H 	0.6713	0.0866	0.5694	-0.001
Mof_C 	C 	0.7134	0.103	0.6231	-0.109
Mof_H 	H 	0.7167	0.1649	0.6197	0.089
Mof_C 	C 	0.7362	0.0593	0.6581	0.048
Mof_C 	C 	0.7304	0.9689	0.6616	-0.111
Mof_H 	H 	0.7465	0.9364	0.6843	0.079
Mof_C 	C 	0.7012	0.9269	0.6321	0.056
Mof_H 	H 	0.6958	0.8659	0.636	0.008
Mof_C 	C 	0.7673	0.1078	0.6902	0.091
Mof_N 	N 	0.7714	0.1946	0.6847	-0.141
Mof_C 	C 	0.8001	0.2322	0.7134	0.097
Mof_N 	N 	0.825	0.1904	0.7449	-0.135
Mof_C 	C 	0.8173	0.1054	0.7478	0.101
Mof_N 	N 	0.788	0.0603	0.7222	-0.148
Mof_N 	N 	0.8059	0.5134	0.715	-0.279
Mof_C 	C 	0.8292	0.4675	0.743	0.099
Mof_H 	H 	0.8478	0.4978	0.7646	-0.022
Mof_C 	C 	0.8292	0.3764	0.744	-0.141
Mof_H 	H 	0.8472	0.3454	0.7658	0.091
Mof_C 	C 	0.8028	0.3313	0.7129	0.065
Mof_C 	C 	0.7772	0.3799	0.6817	-0.126
Mof_H 	H 	0.7582	0.3513	0.6599	0.085
Mof_C 	C 	0.78	0.4706	0.6835	0.067
Mof_H 	H 	0.7633	0.5045	0.6618	-0.008
Mof_N 	N 	0.8894	0.9667	0.8522	-0.268
Mof_C 	C 	0.8584	0.9268	0.8265	0.063
Mof_H 	H 	0.8531	0.866	0.8312	-0
Mof_C 	C 	0.8335	0.9697	0.7932	-0.116
Mof_H 	H 	0.8109	0.9395	0.7762	0.076
Mof_C 	C 	0.8417	0.0568	0.785	0.058
Mof_C 	C 	0.8734	0.0991	0.8123	-0.116
Mof_H 	H 	0.8793	0.1598	0.8083	0.09
Mof_C 	C 	0.8963	0.0526	0.845	0.078
Mof_H 	H 	0.918	0.0823	0.8636	-0.003
Mof_Zn	Zn	0.19165	0.3497	0.28554	1.169
Mof_I 	I 	0.2583	0.28594	0.31866	-0.399
Mof_I 	I 	0.15467	0.30444	0.21198	-0.388
Mof_N 	N 	0.1506	0.3267	0.3297	-0.274
Mof_C 	C 	0.1626	0.2814	0.3663	0.071
Mof_H 	H 	0.1905	0.2579	0.3715	-0.005
Mof_C 	C 	0.1359	0.2677	0.3967	-0.115
Mof_H 	H 	0.1455	0.2368	0.4228	0.082
Mof_C 	C 	0.0949	0.2994	0.3889	0.063
Mof_C 	C 	0.0823	0.345	0.351	-0.119
Mof_H 	H 	0.0545	0.3686	0.3449	0.083
Mof_C 	C 	0.1113	0.3556	0.3218	0.078
Mof_H 	H 	0.1024	0.3849	0.2952	-0.019
Mof_C 	C 	0.0661	0.2882	0.4219	0.096
Mof_N 	N 	0.072	0.2183	0.4474	-0.139
Mof_C 	C 	0.0433	0.2089	0.4745	0.084
Mof_N 	N 	0.0123	0.2666	0.4788	-0.147
Mof_C 	C 	0.0104	0.3346	0.4518	0.093
Mof_N 	N 	0.0352	0.3485	0.4222	-0.141
Mof_N 	N 	0.0551	0.9837	0.5568	-0.274
Mof_C 	C 	0.0238	0.0413	0.5577	0.076
Mof_H 	H 	0.0047	0.0321	0.578	-0.012
Mof_C 	C 	0.0178	0.1137	0.5306	-0.121
Mof_H 	H 	0.9948	0.1529	0.5321	0.077
Mof_C 	C 	0.0456	0.1283	0.5014	0.052
Mof_C 	C 	0.0778	0.0668	0.4988	-0.111
Mof_H 	H 	0.0968	0.0736	0.4781	0.08
Mof_C 	C 	0.0814	0.9958	0.527	0.063
Mof_H 	H 	0.1033	0.9538	0.5252	-0.009
Mof_Zn	Zn	0.06996	0.89095	0.60458	1.165
Mof_I 	I 	0.11235	0.76836	0.57637	-0.372
Mof_I 	I 	0.00498	0.86681	0.64285	-0.354
Mof_N 	N 	0.9118	0.5221	0.4563	-0.275
Mof_C 	C 	0.9344	0.5219	0.425	0.088
Mof_H 	H 	0.9277	0.564	0.4024	-0.025
Mof_C 	C 	0.9675	0.465	0.4221	-0.124
Mof_H 	H 	0.9836	0.469	0.3987	0.081
Mof_C 	C 	0.9769	0.4011	0.4544	0.052
Mof_C 	C 	0.9537	0.4029	0.4889	-0.107
Mof_H 	H 	0.96	0.3622	0.5122	0.077
Mof_C 	C 	0.9215	0.4642	0.4895	0.063
Mof_H 	H 	0.9061	0.4657	0.5135	-0.003
Mof_Zn	Zn	0.85813	0.59933	0.44983	1.165
Mof_I 	I 	0.87688	0.74705	0.41878	-0.368
Mof_I 	I 	0.82261	0.5834	0.51762	-0.373
Mof_N 	N 	0.8202	0.531	0.4023	-0.269
Mof_C 	C 	0.8138	0.4437	0.4064	0.069
Mof_H 	H 	0.8287	0.4134	0.4306	-0.001
Mof_C 	C 	0.7866	0.397	0.3769	-0.109
Mof_H 	H 	0.7833	0.3351	0.3803	0.089
Mof_C 	C 	0.7638	0.4407	0.3419	0.048
Mof_C 	C 	0.7696	0.5311	0.3384	-0.11
Mof_H 	H 	0.7535	0.5636	0.3157	0.079
Mof_C 	C 	0.7988	0.5731	0.3679	0.055
Mof_H 	H 	0.8042	0.6341	0.364	0.008
Mof_C 	C 	0.7327	0.3922	0.3098	0.091
Mof_N 	N 	0.7286	0.3054	0.3153	-0.141
Mof_C 	C 	0.6999	0.2678	0.2866	0.097
Mof_N 	N 	0.675	0.3096	0.2551	-0.135
Mof_C 	C 	0.6827	0.3946	0.2522	0.101
Mof_N 	N 	0.712	0.4397	0.2778	-0.148
Mof_N 	N 	0.6941	0.9866	0.285	-0.278
Mof_C 	C 	0.6708	0.0325	0.257	0.099
Mof_H 	H 	0.6522	0.0022	0.2354	-0.022
Mof_C 	C 	0.6708	0.1236	0.256	-0.14
Mof_H 	H 	0.6528	0.1546	0.2342	0.091
Mof_C 	C 	0.6972	0.1687	0.2871	0.065
Mof_C 	C 	0.7228	0.1201	0.3183	-0.125
Mof_H 	H 	0.7418	0.1487	0.3401	0.085
Mof_C 	C 	0.72	0.0294	0.3165	0.066
Mof_H 	H 	0.7367	0.9955	0.3382	-0.008
Mof_N 	N 	0.6106	0.5333	0.1478	-0.268
Mof_C 	C 	0.6416	0.5732	0.1735	0.063
Mof_H 	H 	0.6469	0.634	0.1688	-0
Mof_C 	C 	0.6665	0.5303	0.2068	-0.116
Mof_H 	H 	0.6891	0.5605	0.2238	0.076
Mof_C 	C 	0.6583	0.4432	0.215	0.058
Mof_C 	C 	0.6266	0.4009	0.1877	-0.115
Mof_H 	H 	0.6207	0.3402	0.1917	0.09
Mof_C 	C 	0.6037	0.4474	0.155	0.078
Mof_H 	H 	0.582	0.4177	0.1364	-0.003
Mof_Zn	Zn	0.69165	0.8497	0.28554	1.169
Mof_I 	I 	0.7583	0.78594	0.31866	-0.399
Mof_I 	I 	0.65467	0.80444	0.21198	-0.388
Mof_N 	N 	0.6506	0.8267	0.3297	-0.274
Mof_C 	C 	0.6626	0.7814	0.3663	0.071
Mof_H 	H 	0.6905	0.7579	0.3715	-0.005
Mof_C 	C 	0.6359	0.7677	0.3967	-0.115
Mof_H 	H 	0.6455	0.7368	0.4228	0.082
Mof_C 	C 	0.5949	0.7994	0.3889	0.063
Mof_C 	C 	0.5823	0.845	0.351	-0.119
Mof_H 	H 	0.5545	0.8686	0.3449	0.083
Mof_C 	C 	0.6113	0.8556	0.3218	0.078
Mof_H 	H 	0.6024	0.8849	0.2952	-0.019
Mof_C 	C 	0.5661	0.7882	0.4219	0.096
Mof_N 	N 	0.572	0.7183	0.4474	-0.139
Mof_C 	C 	0.5433	0.7089	0.4745	0.084
Mof_N 	N 	0.5123	0.7666	0.4788	-0.147
Mof_C 	C 	0.5104	0.8346	0.4518	0.093
Mof_N 	N 	0.5352	0.8485	0.4222	-0.141
Mof_N 	N 	0.5551	0.4837	0.5568	-0.274
Mof_C 	C 	0.5238	0.5413	0.5577	0.076
Mof_H 	H 	0.5047	0.5321	0.578	-0.012
Mof_C 	C 	0.5178	0.6137	0.5306	-0.121
Mof_H 	H 	0.4948	0.6529	0.5321	0.077
Mof_C 	C 	0.5456	0.6283	0.5014	0.052
Mof_C 	C 	0.5778	0.5668	0.4988	-0.111
Mof_H 	H 	0.5968	0.5736	0.4781	0.08
Mof_C 	C 	0.5814	0.4958	0.527	0.063
Mof_H 	H 	0.6033	0.4538	0.5252	-0.009
Mof_Zn	Zn	0.56996	0.39095	0.60458	1.165
Mof_I 	I 	0.61235	0.26836	0.57637	-0.372
Mof_I 	I 	0.50498	0.36681	0.64285	-0.353
Mof_N 	N 	0.4118	0.0221	0.4563	-0.275
Mof_C 	C 	0.4344	0.0219	0.425	0.088
Mof_H 	H 	0.4277	0.064	0.4024	-0.025
Mof_C 	C 	0.4675	0.965	0.4221	-0.124
Mof_H 	H 	0.4836	0.969	0.3987	0.081
Mof_C 	C 	0.4769	0.9011	0.4544	0.052
Mof_C 	C 	0.4537	0.9029	0.4889	-0.107
Mof_H 	H 	0.46	0.8622	0.5122	0.077
Mof_C 	C 	0.4215	0.9642	0.4895	0.063
Mof_H 	H 	0.4061	0.9657	0.5135	-0.003
Mof_Zn	Zn	0.35813	0.09933	0.44983	1.165
Mof_I 	I 	0.37688	0.24705	0.41878	-0.368
Mof_I 	I 	0.32261	0.0834	0.51762	-0.373
Mof_N 	N 	0.3202	0.031	0.4023	-0.27
Mof_C 	C 	0.3138	0.9437	0.4064	0.069
Mof_H 	H 	0.3287	0.9134	0.4306	-0.001
Mof_C 	C 	0.2866	0.897	0.3769	-0.109
Mof_H 	H 	0.2833	0.8351	0.3803	0.089
Mof_C 	C 	0.2638	0.9407	0.3419	0.048
Mof_C 	C 	0.2696	0.0311	0.3384	-0.111
Mof_H 	H 	0.2535	0.0636	0.3157	0.079
Mof_C 	C 	0.2988	0.0731	0.3679	0.056
Mof_H 	H 	0.3042	0.1341	0.364	0.008
Mof_C 	C 	0.2327	0.8922	0.3098	0.091
Mof_N 	N 	0.2286	0.8054	0.3153	-0.141
Mof_C 	C 	0.1999	0.7678	0.2866	0.097
Mof_N 	N 	0.175	0.8096	0.2551	-0.135
Mof_C 	C 	0.1827	0.8946	0.2522	0.101
Mof_N 	N 	0.212	0.9397	0.2778	-0.148
Mof_N 	N 	0.1941	0.4866	0.285	-0.279
Mof_C 	C 	0.1708	0.5325	0.257	0.099
Mof_H 	H 	0.1522	0.5022	0.2354	-0.022
Mof_C 	C 	0.1708	0.6236	0.256	-0.141
Mof_H 	H 	0.1528	0.6546	0.2342	0.091
Mof_C 	C 	0.1972	0.6687	0.2871	0.065
Mof_C 	C 	0.2228	0.6201	0.3183	-0.126
Mof_H 	H 	0.2418	0.6487	0.3401	0.085
Mof_C 	C 	0.22	0.5294	0.3165	0.067
Mof_H 	H 	0.2367	0.4955	0.3382	-0.008
Mof_N 	N 	0.1106	0.0333	0.1478	-0.268
Mof_C 	C 	0.1416	0.0732	0.1735	0.063
Mof_H 	H 	0.1469	0.134	0.1688	-0
Mof_C 	C 	0.1665	0.0303	0.2068	-0.116
Mof_H 	H 	0.1891	0.0605	0.2238	0.076
Mof_C 	C 	0.1583	0.9432	0.215	0.058
Mof_C 	C 	0.1266	0.9009	0.1877	-0.116
Mof_H 	H 	0.1207	0.8402	0.1917	0.09
Mof_C 	C 	0.1037	0.9474	0.155	0.078
Mof_H 	H 	0.082	0.9177	0.1364	-0.003
Mof_Zn	Zn	0.19165	0.6503	0.78554	1.169
Mof_I 	I 	0.2583	0.71406	0.81866	-0.399
Mof_I 	I 	0.15467	0.69556	0.71198	-0.388
Mof_N 	N 	0.1506	0.6733	0.8297	-0.274
Mof_C 	C 	0.1626	0.7186	0.8663	0.071
Mof_H 	H 	0.1905	0.7421	0.8715	-0.005
Mof_C 	C 	0.1359	0.7323	0.8967	-0.115
Mof_H 	H 	0.1455	0.7632	0.9228	0.082
Mof_C 	C 	0.0949	0.7006	0.8889	0.063
Mof_C 	C 	0.0823	0.655	0.851	-0.119
Mof_H 	H 	0.0545	0.6314	0.8449	0.083
Mof_C 	C 	0.1113	0.6444	0.8218	0.078
Mof_H 	H 	0.1024	0.6151	0.7952	-0.019
Mof_C 	C 	0.0661	0.7118	0.9219	0.096
Mof_N 	N 	0.072	0.7817	0.9474	-0.138
Mof_C 	C 	0.0433	0.7911	0.9745	0.083
Mof_N 	N 	0.0123	0.7334	0.9788	-0.147
Mof_C 	C 	0.0104	0.6654	0.9518	0.093
Mof_N 	N 	0.0352	0.6515	0.9222	-0.141
Mof_N 	N 	0.0551	0.0163	0.0568	-0.274
Mof_C 	C 	0.0238	0.9587	0.0577	0.076
Mof_H 	H 	0.0047	0.9679	0.078	-0.012
Mof_C 	C 	0.0178	0.8863	0.0306	-0.121
Mof_H 	H 	0.9948	0.8471	0.0321	0.077
Mof_C 	C 	0.0456	0.8717	0.0014	0.052
Mof_C 	C 	0.0778	0.9332	0.9988	-0.112
Mof_H 	H 	0.0968	0.9264	0.9781	0.08
Mof_C 	C 	0.0814	0.0042	0.027	0.063
Mof_H 	H 	0.1033	0.0462	0.0252	-0.009
Mof_Zn	Zn	0.06996	0.10905	0.10458	1.165
Mof_I 	I 	0.11235	0.23164	0.07637	-0.372
Mof_I 	I 	0.00498	0.13319	0.14285	-0.354
Mof_N 	N 	0.9118	0.4779	0.9563	-0.275
Mof_C 	C 	0.9344	0.4781	0.925	0.088
Mof_H 	H 	0.9277	0.436	0.9024	-0.025
Mof_C 	C 	0.9675	0.535	0.9221	-0.124
Mof_H 	H 	0.9836	0.531	0.8987	0.081
Mof_C 	C 	0.9769	0.5989	0.9544	0.052
Mof_C 	C 	0.9537	0.5971	0.9889	-0.107
Mof_H 	H 	0.96	0.6378	0.0122	0.077
Mof_C 	C 	0.9215	0.5358	0.9895	0.063
Mof_H 	H 	0.9061	0.5343	0.0135	-0.003
Mof_Zn	Zn	0.85813	0.40067	0.94983	1.165
Mof_I 	I 	0.87688	0.25295	0.91878	-0.368
Mof_I 	I 	0.82261	0.4166	0.01762	-0.373
Mof_N 	N 	0.8202	0.469	0.9023	-0.269
Mof_C 	C 	0.8138	0.5563	0.9064	0.069
Mof_H 	H 	0.8287	0.5866	0.9306	-0.001
Mof_C 	C 	0.7866	0.603	0.8769	-0.109
Mof_H 	H 	0.7833	0.6649	0.8803	0.089
Mof_C 	C 	0.7638	0.5593	0.8419	0.048
Mof_C 	C 	0.7696	0.4689	0.8384	-0.11
Mof_H 	H 	0.7535	0.4364	0.8157	0.079
Mof_C 	C 	0.7988	0.4269	0.8679	0.055
Mof_H 	H 	0.8042	0.3659	0.864	0.008
Mof_C 	C 	0.7327	0.6078	0.8098	0.091
Mof_N 	N 	0.7286	0.6946	0.8153	-0.141
Mof_C 	C 	0.6999	0.7322	0.7866	0.097
Mof_N 	N 	0.675	0.6904	0.7551	-0.135
Mof_C 	C 	0.6827	0.6054	0.7522	0.101
Mof_N 	N 	0.712	0.5603	0.7778	-0.148
Mof_N 	N 	0.6941	0.0134	0.785	-0.278
Mof_C 	C 	0.6708	0.9675	0.757	0.099
Mof_H 	H 	0.6522	0.9978	0.7354	-0.022
Mof_C 	C 	0.6708	0.8764	0.756	-0.14
Mof_H 	H 	0.6528	0.8454	0.7342	0.091
Mof_C 	C 	0.6972	0.8313	0.7871	0.065
Mof_C 	C 	0.7228	0.8799	0.8183	-0.125
Mof_H 	H 	0.7418	0.8513	0.8401	0.084
Mof_C 	C 	0.72	0.9706	0.8165	0.066
Mof_H 	H 	0.7367	0.0045	0.8382	-0.008
Mof_N 	N 	0.6106	0.4667	0.6478	-0.268
Mof_C 	C 	0.6416	0.4268	0.6735	0.063
Mof_H 	H 	0.6469	0.366	0.6688	-0
Mof_C 	C 	0.6665	0.4697	0.7068	-0.116
Mof_H 	H 	0.6891	0.4395	0.7238	0.076
Mof_C 	C 	0.6583	0.5568	0.715	0.058
Mof_C 	C 	0.6266	0.5991	0.6877	-0.115
Mof_H 	H 	0.6207	0.6598	0.6917	0.09
Mof_C 	C 	0.6037	0.5526	0.655	0.078
Mof_H 	H 	0.582	0.5823	0.6364	-0.003
Mof_Zn	Zn	0.69165	0.1503	0.78554	1.169
Mof_I 	I 	0.7583	0.21406	0.81866	-0.399
Mof_I 	I 	0.65467	0.19556	0.71198	-0.388
Mof_N 	N 	0.6506	0.1733	0.8297	-0.274
Mof_C 	C 	0.6626	0.2186	0.8663	0.071
Mof_H 	H 	0.6905	0.2421	0.8715	-0.005
Mof_C 	C 	0.6359	0.2323	0.8967	-0.115
Mof_H 	H 	0.6455	0.2632	0.9228	0.082
Mof_C 	C 	0.5949	0.2006	0.8889	0.063
Mof_C 	C 	0.5823	0.155	0.851	-0.119
Mof_H 	H 	0.5545	0.1314	0.8449	0.083
Mof_C 	C 	0.6113	0.1444	0.8218	0.078
Mof_H 	H 	0.6024	0.1151	0.7952	-0.019
Mof_C 	C 	0.5661	0.2118	0.9219	0.096
Mof_N 	N 	0.572	0.2817	0.9474	-0.139
Mof_C 	C 	0.5433	0.2911	0.9745	0.084
Mof_N 	N 	0.5123	0.2334	0.9788	-0.147
Mof_C 	C 	0.5104	0.1654	0.9518	0.093
Mof_N 	N 	0.5352	0.1515	0.9222	-0.141
Mof_N 	N 	0.5551	0.5163	0.0568	-0.274
Mof_C 	C 	0.5238	0.4587	0.0577	0.075
Mof_H 	H 	0.5047	0.4679	0.078	-0.012
Mof_C 	C 	0.5178	0.3863	0.0306	-0.12
Mof_H 	H 	0.4948	0.3471	0.0321	0.077
Mof_C 	C 	0.5456	0.3717	0.0014	0.051
Mof_C 	C 	0.5778	0.4332	0.9988	-0.111
Mof_H 	H 	0.5968	0.4264	0.9781	0.08
Mof_C 	C 	0.5814	0.5042	0.027	0.063
Mof_H 	H 	0.6033	0.5462	0.0252	-0.009
Mof_Zn	Zn	0.56996	0.60905	0.10458	1.165
Mof_I 	I 	0.61235	0.73164	0.07637	-0.372
Mof_I 	I 	0.50498	0.63319	0.14285	-0.353
Mof_N 	N 	0.4118	0.9779	0.9563	-0.275
Mof_C 	C 	0.4344	0.9781	0.925	0.087
Mof_H 	H 	0.4277	0.936	0.9024	-0.025
Mof_C 	C 	0.4675	0.035	0.9221	-0.124
Mof_H 	H 	0.4836	0.031	0.8987	0.081
Mof_C 	C 	0.4769	0.0989	0.9544	0.052
Mof_C 	C 	0.4537	0.0971	0.9889	-0.107
Mof_H 	H 	0.46	0.1378	0.0122	0.077
Mof_C 	C 	0.4215	0.0358	0.9895	0.064
Mof_H 	H 	0.4061	0.0343	0.0135	-0.003
Mof_Zn	Zn	0.35813	0.90067	0.94983	1.165
Mof_I 	I 	0.37688	0.75295	0.91878	-0.368
Mof_I 	I 	0.32261	0.9166	0.01762	-0.373
Mof_N 	N 	0.3202	0.969	0.9023	-0.27
Mof_C 	C 	0.3138	0.0563	0.9064	0.07
Mof_H 	H 	0.3287	0.0866	0.9306	-0.001
Mof_C 	C 	0.2866	0.103	0.8769	-0.11
Mof_H 	H 	0.2833	0.1649	0.8803	0.089
Mof_C 	C 	0.2638	0.0593	0.8419	0.048
Mof_C 	C 	0.2696	0.9689	0.8384	-0.111
Mof_H 	H 	0.2535	0.9364	0.8157	0.079
Mof_C 	C 	0.2988	0.9269	0.8679	0.056
Mof_H 	H 	0.3042	0.8659	0.864	0.008
Mof_C 	C 	0.2327	0.1078	0.8098	0.091
Mof_N 	N 	0.2286	0.1946	0.8153	-0.141
Mof_C 	C 	0.1999	0.2322	0.7866	0.097
Mof_N 	N 	0.175	0.1904	0.7551	-0.135
Mof_C 	C 	0.1827	0.1054	0.7522	0.101
Mof_N 	N 	0.212	0.0603	0.7778	-0.148
Mof_N 	N 	0.1941	0.5134	0.785	-0.279
Mof_C 	C 	0.1708	0.4675	0.757	0.099
Mof_H 	H 	0.1522	0.4978	0.7354	-0.022
Mof_C 	C 	0.1708	0.3764	0.756	-0.141
Mof_H 	H 	0.1528	0.3454	0.7342	0.091
Mof_C 	C 	0.1972	0.3313	0.7871	0.065
Mof_C 	C 	0.2228	0.3799	0.8183	-0.126
Mof_H 	H 	0.2418	0.3513	0.8401	0.085
Mof_C 	C 	0.22	0.4706	0.8165	0.067
Mof_H 	H 	0.2367	0.5045	0.8382	-0.008
Mof_N 	N 	0.1106	0.9667	0.6478	-0.268
Mof_C 	C 	0.1416	0.9268	0.6735	0.063
Mof_H 	H 	0.1469	0.866	0.6688	-0
Mof_C 	C 	0.1665	0.9697	0.7068	-0.116
Mof_H 	H 	0.1891	0.9395	0.7238	0.076
Mof_C 	C 	0.1583	0.0568	0.715	0.058
Mof_C 	C 	0.1266	0.0991	0.6877	-0.115
Mof_H 	H 	0.1207	0.1598	0.6917	0.09
Mof_C 	C 	0.1037	0.0526	0.655	0.078
Mof_H 	H 	0.082	0.0823	0.6364	-0.003
_end
