# CIF file generated by openbabel 3.1.0, see https://openbabel.org
data_I
_chemical_name_common 'image0'
_cell_length_a 7.7158
_cell_length_b 16.218
_cell_length_c 11.266
_cell_angle_alpha 90
_cell_angle_beta 90.72
_cell_angle_gamma 90
_space_group_name_H-M_alt 'P 1'
_space_group_name_Hall 'P 1'
loop_
    _symmetry_equiv_pos_as_xyz
    x,y,z
loop_
    _atom_site_label
    _atom_site_type_symbol
    _atom_site_fract_x
    _atom_site_fract_y
    _atom_site_fract_z
    _atom_site_occupancy
    C1       C        0.60170    0.55080    0.29150    1.000
    C2       C        0.55190    0.07290    0.20780    1.000
    C3       C        0.74660    0.13740    0.03360    1.000
    C4       C        0.94110    0.21610    0.20270    1.000
    C5       C        0.75200    0.14980    0.37030    1.000
    C6       C        0.59700    0.23630    0.19930    1.000
    Co1      Co       0.74800    0.14366    0.20326    1.000
    N1       N        0.51020    0.49520    0.28870    1.000
    N2       N        0.43340    0.03010    0.21020    1.000
    N3       N        0.74730    0.13250    0.93410    1.000
    N4       N        0.05680    0.26010    0.20580    1.000
    N5       N        0.75320    0.15460    0.47250    1.000
    N6       N        0.50490    0.29160    0.20030    1.000
    Sr1      Sr       0.24772    0.40085    0.19784    1.000
    C7       C        0.89830    0.05080    0.20850    1.000
    C8       C        0.94810    0.57290    0.29220    1.000
    C9       C        0.75340    0.63740    0.46640    1.000
    C10      C        0.55890    0.71610    0.29730    1.000
    C11      C        0.74800    0.64980    0.12970    1.000
    C12      C        0.90300    0.73630    0.30070    1.000
    Co2      Co       0.75200    0.64366    0.29674    1.000
    N7       N        0.98980    0.99520    0.21130    1.000
    N8       N        0.06660    0.53010    0.28980    1.000
    N9       N        0.75270    0.63250    0.56590    1.000
    N10      N        0.44320    0.76010    0.29420    1.000
    N11      N        0.74680    0.65460    0.02750    1.000
    N12      N        0.99510    0.79160    0.29970    1.000
    Sr2      Sr       0.25228    0.90085    0.30216    1.000
    C13      C        0.39830    0.44920    0.70850    1.000
    C14      C        0.44810    0.92710    0.79220    1.000
    C15      C        0.25340    0.86260    0.96640    1.000
    C16      C        0.05890    0.78390    0.79730    1.000
    C17      C        0.24800    0.85020    0.62970    1.000
    C18      C        0.40300    0.76370    0.80070    1.000
    Co3      Co       0.25200    0.85634    0.79674    1.000
    N13      N        0.48980    0.50480    0.71130    1.000
    N14      N        0.56660    0.96990    0.78980    1.000
    N15      N        0.25270    0.86750    0.06590    1.000
    N16      N        0.94320    0.73990    0.79420    1.000
    N17      N        0.24680    0.84540    0.52750    1.000
    N18      N        0.49510    0.70840    0.79970    1.000
    Sr3      Sr       0.75228    0.59915    0.80216    1.000
    C19      C        0.10170    0.94920    0.79150    1.000
    C20      C        0.05190    0.42710    0.70780    1.000
    C21      C        0.24660    0.36260    0.53360    1.000
    C22      C        0.44110    0.28390    0.70270    1.000
    C23      C        0.25200    0.35020    0.87030    1.000
    C24      C        0.09700    0.26370    0.69930    1.000
    Co4      Co       0.24800    0.35634    0.70326    1.000
    N19      N        0.01020    0.00480    0.78870    1.000
    N20      N        0.93340    0.46990    0.71020    1.000
    N21      N        0.24730    0.36750    0.43410    1.000
    N22      N        0.55680    0.23990    0.70580    1.000
    N23      N        0.25320    0.34540    0.97250    1.000
    N24      N        0.00490    0.20840    0.70030    1.000
    Sr4      Sr       0.74772    0.09915    0.69784    1.000
