# CIF file generated by openbabel 3.1.0, see https://openbabel.org
data_I
_chemical_name_common 'POHMAC_clean'
_cell_length_a 8.783
_cell_length_b 9.285
_cell_length_c 18.952
_cell_angle_alpha 90
_cell_angle_beta 90
_cell_angle_gamma 109.398
_space_group_name_H-M_alt 'P 1'
_space_group_name_Hall 'P 1'
loop_
    _symmetry_equiv_pos_as_xyz
    x,y,z
loop_
    _atom_site_label
    _atom_site_type_symbol
    _atom_site_fract_x
    _atom_site_fract_y
    _atom_site_fract_z
    _atom_site_occupancy
    Gd1      Gd       0.21026    0.48489    0.55312    1.000
    Gd2      Gd       0.78974    0.01511    0.05312    1.000
    Gd3      Gd       0.21026    0.98489    0.94688    1.000
    Gd4      Gd       0.78974    0.51511    0.44688    1.000
    H1       H        0.20140    0.44090    0.05890    1.000
    H2       H        0.20140    0.94090    0.44110    1.000
    H3       H        0.58970    0.57410    0.70950    1.000
    H4       H        0.58970    0.07410    0.79050    1.000
    H5       H        0.74510    0.16900    0.69180    1.000
    H6       H        0.79860    0.55910    0.94110    1.000
    H7       H        0.41030    0.42590    0.29050    1.000
    H8       H        0.25490    0.33100    0.19180    1.000
    H9       H        0.93850    0.01630    0.31290    1.000
    H10      H        0.06150    0.98370    0.68710    1.000
    H11      H        0.74510    0.66900    0.80820    1.000
    H12      H        0.93850    0.51630    0.18710    1.000
    H13      H        0.25490    0.83100    0.30820    1.000
    H14      H        0.41030    0.92590    0.20950    1.000
    H15      H        0.06150    0.48370    0.81290    1.000
    H16      H        0.79860    0.05910    0.55890    1.000
    C1       C        0.27220    0.27520    0.36100    1.000
    C2       C        0.01780    0.90060    0.82180    1.000
    C3       C        0.22350    0.28590    0.23570    1.000
    C4       C        0.38360    0.84000    0.07740    1.000
    C5       C        0.68350    0.15790    0.79490    1.000
    C6       C        0.01780    0.40060    0.67820    1.000
    C7       C        0.72780    0.72480    0.63900    1.000
    C8       C        0.94390    0.61300    0.02590    1.000
    C9       C        0.12030    0.46530    0.03540    1.000
    C10      C        0.22350    0.78590    0.26430    1.000
    C11      C        0.68350    0.65790    0.70510    1.000
    C12      C        0.27220    0.77520    0.13900    1.000
    C13      C        0.06730    0.07850    0.43740    1.000
    C14      C        0.91730    0.33860    0.74240    1.000
    C15      C        0.91730    0.83860    0.75760    1.000
    C16      C        0.89630    0.74490    0.04860    1.000
    C17      C        0.96580    0.90220    0.69150    1.000
    C18      C        0.31650    0.34210    0.29490    1.000
    C19      C        0.12780    0.65510    0.13160    1.000
    C20      C        0.87220    0.84490    0.63160    1.000
    C21      C        0.87970    0.03470    0.53540    1.000
    C22      C        0.05610    0.38700    0.97410    1.000
    C23      C        0.08270    0.16140    0.24240    1.000
    C24      C        0.96580    0.40220    0.80850    1.000
    C25      C        0.94390    0.11300    0.47410    1.000
    C26      C        0.77650    0.71410    0.76430    1.000
    C27      C        0.87220    0.34490    0.86840    1.000
    C28      C        0.06730    0.57850    0.06260    1.000
    C29      C        0.87970    0.53470    0.96460    1.000
    C30      C        0.61640    0.16000    0.92260    1.000
    C31      C        0.98220    0.09940    0.17820    1.000
    C32      C        0.08270    0.66140    0.25760    1.000
    C33      C        0.98220    0.59940    0.32180    1.000
    C34      C        0.12030    0.96530    0.46460    1.000
    C35      C        0.93270    0.42150    0.93740    1.000
    C36      C        0.77650    0.21410    0.73570    1.000
    C37      C        0.12780    0.15510    0.36840    1.000
    C38      C        0.72780    0.22480    0.86100    1.000
    C39      C        0.03420    0.09780    0.30850    1.000
    C40      C        0.10370    0.25510    0.95140    1.000
    C41      C        0.05610    0.88700    0.52590    1.000
    C42      C        0.61640    0.66000    0.57740    1.000
    C43      C        0.89630    0.24490    0.45140    1.000
    C44      C        0.31650    0.84210    0.20510    1.000
    C45      C        0.03420    0.59780    0.19150    1.000
    C46      C        0.93270    0.92150    0.56260    1.000
    C47      C        0.38360    0.34000    0.42260    1.000
    C48      C        0.10370    0.75510    0.54860    1.000
    O1       O        0.23910    0.27120    0.92500    1.000
    O2       O        0.67450    0.66000    0.51670    1.000
    O3       O        0.23910    0.77120    0.57500    1.000
    O4       O        0.46800    0.61170    0.59200    1.000
    O5       O        0.32550    0.84000    0.01670    1.000
    O6       O        0.00520    0.62160    0.53540    1.000
    O7       O        0.15180    0.50270    0.68260    1.000
    O8       O        0.00520    0.12160    0.96460    1.000
    O9       O        0.76090    0.22880    0.42500    1.000
    O10      O        0.53200    0.88830    0.09200    1.000
    O11      O        0.84820    0.99730    0.18260    1.000
    O12      O        0.84820    0.49730    0.31740    1.000
    O13      O        0.53200    0.38830    0.40800    1.000
    O14      O        0.99480    0.87840    0.03540    1.000
    O15      O        0.03690    0.15510    0.11820    1.000
    O16      O        0.46800    0.11170    0.90800    1.000
    O17      O        0.32550    0.34000    0.48330    1.000
    O18      O        0.96310    0.84490    0.88180    1.000
    O19      O        0.99480    0.37840    0.46460    1.000
    O20      O        0.67450    0.16000    0.98330    1.000
    O21      O        0.15180    0.00270    0.81740    1.000
    O22      O        0.76090    0.72880    0.07500    1.000
    O23      O        0.03690    0.65510    0.38180    1.000
    O24      O        0.96310    0.34490    0.61820    1.000
