data_functionalizedCrystal
_audit_creation_method	'EQeq! by Chris Wilmer'
_symmetry_space_group_name_H-M	'P1'
_symmetry_Int_Tables_number	1
_symmetry_cell_setting	triclinic
loop_
_symmetry_equiv_pos_as_xyz
  x,y,z
_cell_length_a	11.877
_cell_length_b	13.855
_cell_length_c	13.921
_cell_angle_alpha	90
_cell_angle_beta	114.403
_cell_angle_gamma	90
loop_
_atom_site_label
_atom_site_type_symbol
_atom_site_fract_x
_atom_site_fract_y
_atom_site_fract_z
_atom_site_charge
Mof_C 	C 	0.4282	0.89565	0.11732	0.391
Mof_C 	C 	0.3597	0.83893	0.16884	-0.109
Mof_C 	C 	0.4164	0.76581	0.24037	0.056
Mof_H 	H 	0.5001	0.7532	0.2609	0.04
Mof_C 	C 	0.3489	0.71144	0.28141	-0.11
Mof_C 	C 	0.224	0.7312	0.2524	0.021
Mof_H 	H 	0.1783	0.6931	0.2782	0.036
Mof_C 	C 	0.1676	0.80781	0.18492	-0.056
Mof_C 	C 	0.2363	0.86013	0.14282	0.019
Mof_H 	H 	0.1989	0.9104	0.0962	0.038
Mof_C 	C 	0.41	0.63242	0.35957	0.393
Mof_C 	C 	0.0369	0.83539	0.15771	0.118
Mof_C 	C 	0.9455	0.76882	0.1458	-0.181
Mof_H 	H 	0.965	0.7036	0.1566	0.098
Mof_C 	C 	0.8259	0.79872	0.11797	0.112
Mof_H 	H 	0.766	0.7524	0.1099	-0.012
Mof_C 	C 	0.8808	0.95654	0.1155	0.08
Mof_H 	H 	0.8592	0.0215	0.1059	0.004
Mof_C 	C 	0.0014	0.93176	0.1427	-0.161
Mof_H 	H 	0.0599	0.9794	0.1513	0.091
Mof_N 	N 	0.79181	0.89106	0.10203	-0.258
Mof_O 	O 	0.37033	0.96393	0.05868	-0.47
Mof_O 	O 	0.53649	0.87016	0.13481	-0.448
Mof_O 	O 	0.51896	0.64698	0.42483	-0.455
Mof_O 	O 	0.34662	0.55809	0.35318	-0.458
Mof_Zn	Zn	0.61518	0.94025	0.04962	1.216
Mof_C 	C 	0.5718	0.39565	0.38268	0.39
Mof_C 	C 	0.6403	0.33893	0.33116	-0.11
Mof_C 	C 	0.5836	0.26581	0.25963	0.056
Mof_H 	H 	0.4999	0.2532	0.2391	0.041
Mof_C 	C 	0.6511	0.21144	0.21859	-0.11
Mof_C 	C 	0.776	0.2312	0.2476	0.022
Mof_H 	H 	0.8217	0.1931	0.2218	0.036
Mof_C 	C 	0.8324	0.30781	0.31508	-0.058
Mof_C 	C 	0.7637	0.36013	0.35718	0.02
Mof_H 	H 	0.8011	0.4104	0.4038	0.038
Mof_C 	C 	0.59	0.13242	0.14043	0.393
Mof_C 	C 	0.9631	0.33539	0.34229	0.123
Mof_C 	C 	0.0545	0.26882	0.3542	-0.182
Mof_H 	H 	0.035	0.2036	0.3434	0.099
Mof_C 	C 	0.1741	0.29872	0.38203	0.114
Mof_H 	H 	0.234	0.2524	0.3901	-0.013
Mof_C 	C 	0.1192	0.45654	0.3845	0.102
Mof_H 	H 	0.1408	0.5215	0.3941	-0.008
Mof_C 	C 	0.9986	0.43176	0.3573	-0.177
Mof_H 	H 	0.9401	0.4794	0.3487	0.096
Mof_N 	N 	0.20819	0.39106	0.39797	-0.261
Mof_O 	O 	0.62967	0.46393	0.44132	-0.469
Mof_O 	O 	0.46351	0.37016	0.36519	-0.446
Mof_O 	O 	0.48104	0.14698	0.07517	-0.452
Mof_O 	O 	0.65338	0.05809	0.14682	-0.455
Mof_Zn	Zn	0.38482	0.44025	0.45038	1.217
Mof_C 	C 	0.5718	0.10435	0.88268	0.39
Mof_C 	C 	0.6403	0.16107	0.83116	-0.11
Mof_C 	C 	0.5836	0.23419	0.75963	0.056
Mof_H 	H 	0.4999	0.2468	0.7391	0.04
Mof_C 	C 	0.6511	0.28856	0.71859	-0.11
Mof_C 	C 	0.776	0.2688	0.7476	0.021
Mof_H 	H 	0.8217	0.3069	0.7218	0.036
Mof_C 	C 	0.8324	0.19219	0.81508	-0.056
Mof_C 	C 	0.7637	0.13987	0.85718	0.019
Mof_H 	H 	0.8011	0.0896	0.9038	0.038
Mof_C 	C 	0.59	0.36758	0.64043	0.393
Mof_C 	C 	0.9631	0.16461	0.84229	0.118
Mof_C 	C 	0.0545	0.23118	0.8542	-0.181
Mof_H 	H 	0.035	0.2964	0.8434	0.098
Mof_C 	C 	0.1741	0.20128	0.88203	0.112
Mof_H 	H 	0.234	0.2476	0.8901	-0.012
Mof_C 	C 	0.1192	0.04346	0.8845	0.08
Mof_H 	H 	0.1408	0.9785	0.8941	0.004
Mof_C 	C 	0.9986	0.06824	0.8573	-0.161
Mof_H 	H 	0.9401	0.0206	0.8487	0.091
Mof_N 	N 	0.20819	0.10894	0.89797	-0.258
Mof_O 	O 	0.62967	0.03607	0.94132	-0.47
Mof_O 	O 	0.46351	0.12984	0.86519	-0.448
Mof_O 	O 	0.48104	0.35302	0.57517	-0.455
Mof_O 	O 	0.65338	0.44191	0.64682	-0.458
Mof_Zn	Zn	0.38482	0.05975	0.95038	1.216
Mof_C 	C 	0.4282	0.60435	0.61732	0.39
Mof_C 	C 	0.3597	0.66107	0.66884	-0.11
Mof_C 	C 	0.4164	0.73419	0.74037	0.056
Mof_H 	H 	0.5001	0.7468	0.7609	0.041
Mof_C 	C 	0.3489	0.78856	0.78141	-0.11
Mof_C 	C 	0.224	0.7688	0.7524	0.022
Mof_H 	H 	0.1783	0.8069	0.7782	0.036
Mof_C 	C 	0.1676	0.69219	0.68492	-0.058
Mof_C 	C 	0.2363	0.63987	0.64282	0.02
Mof_H 	H 	0.1989	0.5896	0.5962	0.038
Mof_C 	C 	0.41	0.86758	0.85957	0.393
Mof_C 	C 	0.0369	0.66461	0.65771	0.123
Mof_C 	C 	0.9455	0.73118	0.6458	-0.182
Mof_H 	H 	0.965	0.7964	0.6566	0.099
Mof_C 	C 	0.8259	0.70128	0.61797	0.114
Mof_H 	H 	0.766	0.7476	0.6099	-0.013
Mof_C 	C 	0.8808	0.54346	0.6155	0.102
Mof_H 	H 	0.8592	0.4785	0.6059	-0.008
Mof_C 	C 	0.0014	0.56824	0.6427	-0.177
Mof_H 	H 	0.0599	0.5206	0.6513	0.096
Mof_N 	N 	0.79181	0.60894	0.60203	-0.261
Mof_O 	O 	0.37033	0.53607	0.55868	-0.469
Mof_O 	O 	0.53649	0.62984	0.63481	-0.446
Mof_O 	O 	0.51896	0.85302	0.92483	-0.452
Mof_O 	O 	0.34662	0.94191	0.85318	-0.455
Mof_Zn	Zn	0.61518	0.55975	0.54962	1.217
_end
