data_functionalizedCrystal
_audit_creation_method	'EQeq! by Chris Wilmer'
_symmetry_space_group_name_H-M	'P1'
_symmetry_Int_Tables_number	1
_symmetry_cell_setting	triclinic
loop_
_symmetry_equiv_pos_as_xyz
  x,y,z
_cell_length_a	17.78
_cell_length_b	24.58
_cell_length_c	39.386
_cell_angle_alpha	90
_cell_angle_beta	90
_cell_angle_gamma	111.203
loop_
_atom_site_label
_atom_site_type_symbol
_atom_site_fract_x
_atom_site_fract_y
_atom_site_fract_z
_atom_site_charge
Mof_Co	Co	0.47817	0.74096	0.93846	1.185
Mof_Co	Co	0.34428	0.89918	0.62991	1.197
Mof_Co	Co	0.53145	0.92162	0.65627	1.193
Mof_Co	Co	0.27673	0.66088	0.92785	1.193
Mof_Co	Co	0.02183	0.25904	0.93846	1.185
Mof_Co	Co	0.15572	0.10082	0.62991	1.197
Mof_Co	Co	0.96855	0.07838	0.65627	1.192
Mof_Co	Co	0.22327	0.33912	0.92785	1.192
Mof_Co	Co	0.73721	0.25904	0.56154	1.184
Mof_Co	Co	0.4451	0.10082	0.87009	1.196
Mof_Co	Co	0.60983	0.07838	0.84373	1.192
Mof_Co	Co	0.61585	0.33912	0.57215	1.192
Mof_Co	Co	0.76279	0.74096	0.56154	1.184
Mof_Co	Co	0.0549	0.89918	0.87009	1.195
Mof_Co	Co	0.89017	0.92162	0.84373	1.192
Mof_Co	Co	0.88415	0.66088	0.57215	1.192
Mof_Co	Co	0.52183	0.25904	0.06154	1.184
Mof_Co	Co	0.65572	0.10082	0.37009	1.196
Mof_Co	Co	0.46855	0.07838	0.34373	1.192
Mof_Co	Co	0.72327	0.33912	0.07215	1.192
Mof_Co	Co	0.97817	0.74096	0.06154	1.184
Mof_Co	Co	0.84428	0.89918	0.37009	1.196
Mof_Co	Co	0.03145	0.92162	0.34373	1.192
Mof_Co	Co	0.77673	0.66088	0.07215	1.192
Mof_Co	Co	0.26279	0.74096	0.43846	1.184
Mof_Co	Co	0.5549	0.89918	0.12991	1.196
Mof_Co	Co	0.39017	0.92162	0.15627	1.192
Mof_Co	Co	0.38415	0.66088	0.42785	1.192
Mof_Co	Co	0.23721	0.25904	0.43846	1.184
Mof_Co	Co	0.9451	0.10082	0.12991	1.195
Mof_Co	Co	0.10983	0.07838	0.15627	1.192
Mof_Co	Co	0.11585	0.33912	0.42785	1.192
Mof_Co	Co	0.55976	0.61952	0.75	1.187
Mof_Co	Co	0.47148	0.44296	0.75	1.195
Mof_Co	Co	0.94024	0.38048	0.75	1.188
Mof_Co	Co	0.02852	0.55704	0.75	1.195
Mof_Co	Co	0.44024	0.38048	0.25	1.187
Mof_Co	Co	0.52852	0.55704	0.25	1.195
Mof_Co	Co	0.05976	0.61952	0.25	1.188
Mof_Co	Co	0.97148	0.44296	0.25	1.195
Mof_H 	H 	0.4922	0.6236	0.8426	0.031
Mof_H 	H 	0.3717	0.4498	0.8411	0.05
Mof_H 	H 	0.347	0.5454	0.9204	0.05
Mof_H 	H 	0.4702	0.7596	0.7062	0.037
Mof_H 	H 	0.2406	0.7454	0.6905	0.038
Mof_H 	H 	0.2881	0.6208	0.7419	0.052
Mof_H 	H 	0.7405	0.8358	0.9196	0.045
Mof_H 	H 	0.704	0.7194	0.9951	0.044
Mof_H 	H 	0.929	0.806	0.9594	0.025
Mof_H 	H 	0.4759	0.8858	0.879	0.033
Mof_H 	H 	0.33	0.9696	0.8501	0.038
Mof_H 	H 	0.2357	0.8052	0.8842	0.042
Mof_H 	H 	0.3147	0.9682	0.5888	0.367
Mof_H 	H 	0.3433	0.9334	0.5698	0.358
Mof_H 	H 	0.6082	0.8576	0.6992	-0.036
Mof_H 	H 	0.6615	0.7496	0.6905	0.171
Mof_H 	H 	0.7327	0.7912	0.7126	0.162
Mof_H 	H 	0.6434	0.7844	0.7208	0.166
Mof_H 	H 	0.7972	0.8736	0.6615	0.181
Mof_H 	H 	0.7546	0.81	0.6475	0.183
Mof_H 	H 	0.7286	0.8608	0.6343	0.195
Mof_H 	H 	0.1459	0.6784	0.8907	-0.021
Mof_H 	H 	0.0691	0.705	0.9646	0.2
Mof_H 	H 	0.9832	0.6692	0.9503	0.187
Mof_H 	H 	0.0173	0.7374	0.9477	0.182
Mof_H 	H 	0.0097	0.743	0.8879	0.18
Mof_H 	H 	0.9834	0.6772	0.8773	0.177
Mof_H 	H 	0.0673	0.722	0.8657	0.185
Mof_H 	H 	0.4997	0.955	0.7886	0.321
Mof_H 	H 	0.4717	0.987	0.7596	0.257
Mof_H 	H 	0.4338	0.9188	0.7626	0.305
Mof_H 	H 	0.5539	0.9112	0.7494	-0.11
Mof_H 	H 	0.5968	0.9782	0.7498	-0.085
Mof_H 	H 	0.6021	0.943	0.7006	0.205
Mof_H 	H 	0.0078	0.3764	0.8426	0.031
Mof_H 	H 	0.1283	0.5502	0.8411	0.05
Mof_H 	H 	0.153	0.4546	0.9204	0.05
Mof_H 	H 	0.0298	0.2404	0.7062	0.037
Mof_H 	H 	0.2594	0.2546	0.6905	0.038
Mof_H 	H 	0.2119	0.3792	0.7419	0.053
Mof_H 	H 	0.7595	0.1642	0.9196	0.045
Mof_H 	H 	0.796	0.2806	0.9951	0.044
Mof_H 	H 	0.571	0.194	0.9594	0.025
Mof_H 	H 	0.0241	0.1142	0.879	0.033
Mof_H 	H 	0.17	0.0304	0.8501	0.038
Mof_H 	H 	0.2643	0.1948	0.8842	0.042
Mof_H 	H 	0.1853	0.0318	0.5888	0.367
Mof_H 	H 	0.1567	0.0666	0.5698	0.358
Mof_H 	H 	0.8918	0.1424	0.6992	-0.036
Mof_H 	H 	0.8385	0.2504	0.6905	0.171
Mof_H 	H 	0.7673	0.2088	0.7126	0.162
Mof_H 	H 	0.8566	0.2156	0.7208	0.166
Mof_H 	H 	0.7028	0.1264	0.6615	0.181
Mof_H 	H 	0.7454	0.19	0.6475	0.183
Mof_H 	H 	0.7714	0.1392	0.6343	0.195
Mof_H 	H 	0.3541	0.3216	0.8907	-0.021
Mof_H 	H 	0.4309	0.295	0.9646	0.2
Mof_H 	H 	0.5168	0.3308	0.9503	0.186
Mof_H 	H 	0.4827	0.2626	0.9477	0.181
Mof_H 	H 	0.4903	0.257	0.8879	0.179
Mof_H 	H 	0.5166	0.3228	0.8773	0.176
Mof_H 	H 	0.4327	0.278	0.8657	0.184
Mof_H 	H 	0.0003	0.045	0.7886	0.323
Mof_H 	H 	0.0283	0.013	0.7596	0.261
Mof_H 	H 	0.0662	0.0812	0.7626	0.308
Mof_H 	H 	0.9461	0.0888	0.7494	-0.111
Mof_H 	H 	0.9032	0.0218	0.7498	-0.087
Mof_H 	H 	0.8979	0.057	0.7006	0.206
Mof_H 	H 	0.8686	0.3764	0.6574	0.031
Mof_H 	H 	0.9219	0.5502	0.6589	0.05
Mof_H 	H 	0.8016	0.4546	0.5796	0.05
Mof_H 	H 	0.7106	0.2404	0.7938	0.037
Mof_H 	H 	0.4952	0.2546	0.8095	0.038
Mof_H 	H 	0.6673	0.3792	0.7581	0.052
Mof_H 	H 	0.9047	0.1642	0.5804	0.044
Mof_H 	H 	0.9846	0.2806	0.5049	0.044
Mof_H 	H 	0.123	0.194	0.5406	0.025
Mof_H 	H 	0.5901	0.1142	0.621	0.033
Mof_H 	H 	0.3604	0.0304	0.6499	0.038
Mof_H 	H 	0.4305	0.1948	0.6158	0.042
Mof_H 	H 	0.3465	0.0318	0.9112	0.367
Mof_H 	H 	0.4099	0.0666	0.9302	0.358
Mof_H 	H 	0.7506	0.1424	0.8008	-0.036
Mof_H 	H 	0.9119	0.2504	0.8095	0.171
Mof_H 	H 	0.9415	0.2088	0.7874	0.163
Mof_H 	H 	0.859	0.2156	0.7792	0.166
Mof_H 	H 	0.9236	0.1264	0.8385	0.181
Mof_H 	H 	0.9446	0.19	0.8525	0.183
Mof_H 	H 	0.8678	0.1392	0.8657	0.195
Mof_H 	H 	0.4675	0.3216	0.6093	-0.021
Mof_H 	H 	0.3641	0.295	0.5354	0.2
Mof_H 	H 	0.314	0.3308	0.5497	0.186
Mof_H 	H 	0.2799	0.2626	0.5523	0.181
Mof_H 	H 	0.2667	0.257	0.6121	0.179
Mof_H 	H 	0.3062	0.3228	0.6227	0.176
Mof_H 	H 	0.3453	0.278	0.6343	0.184
Mof_H 	H 	0.5447	0.045	0.7114	0.321
Mof_H 	H 	0.4847	0.013	0.7404	0.257
Mof_H 	H 	0.515	0.0812	0.7374	0.305
Mof_H 	H 	0.6427	0.0888	0.7506	-0.11
Mof_H 	H 	0.6186	0.0218	0.7502	-0.085
Mof_H 	H 	0.6591	0.057	0.7994	0.205
Mof_H 	H 	0.6314	0.6236	0.6574	0.031
Mof_H 	H 	0.5781	0.4498	0.6589	0.05
Mof_H 	H 	0.6984	0.5454	0.5796	0.05
Mof_H 	H 	0.7894	0.7596	0.7938	0.037
Mof_H 	H 	0.0048	0.7454	0.8095	0.037
Mof_H 	H 	0.8327	0.6208	0.7581	0.052
Mof_H 	H 	0.5953	0.8358	0.5804	0.045
Mof_H 	H 	0.5154	0.7194	0.5049	0.044
Mof_H 	H 	0.377	0.806	0.5406	0.025
Mof_H 	H 	0.9099	0.8858	0.621	0.033
Mof_H 	H 	0.1396	0.9696	0.6499	0.038
Mof_H 	H 	0.0695	0.8052	0.6158	0.042
Mof_H 	H 	0.1535	0.9682	0.9112	0.367
Mof_H 	H 	0.0901	0.9334	0.9302	0.358
Mof_H 	H 	0.7494	0.8576	0.8008	-0.036
Mof_H 	H 	0.5881	0.7496	0.8095	0.17
Mof_H 	H 	0.5585	0.7912	0.7874	0.162
Mof_H 	H 	0.641	0.7844	0.7792	0.166
Mof_H 	H 	0.5764	0.8736	0.8385	0.181
Mof_H 	H 	0.5554	0.81	0.8525	0.183
Mof_H 	H 	0.6322	0.8608	0.8657	0.195
Mof_H 	H 	0.0325	0.6784	0.6093	-0.021
Mof_H 	H 	0.1359	0.705	0.5354	0.2
Mof_H 	H 	0.186	0.6692	0.5497	0.186
Mof_H 	H 	0.2201	0.7374	0.5523	0.181
Mof_H 	H 	0.2333	0.743	0.6121	0.179
Mof_H 	H 	0.1938	0.6772	0.6227	0.176
Mof_H 	H 	0.1547	0.722	0.6343	0.184
Mof_H 	H 	0.9553	0.955	0.7114	0.317
Mof_H 	H 	0.0153	0.987	0.7404	0.252
Mof_H 	H 	0.985	0.9188	0.7374	0.302
Mof_H 	H 	0.8573	0.9112	0.7506	-0.108
Mof_H 	H 	0.8814	0.9782	0.7502	-0.082
Mof_H 	H 	0.8409	0.943	0.7994	0.205
Mof_H 	H 	0.5078	0.3764	0.1574	0.031
Mof_H 	H 	0.6283	0.5502	0.1589	0.05
Mof_H 	H 	0.653	0.4546	0.0796	0.05
Mof_H 	H 	0.5298	0.2404	0.2938	0.037
Mof_H 	H 	0.7594	0.2546	0.3095	0.038
Mof_H 	H 	0.7119	0.3792	0.2581	0.052
Mof_H 	H 	0.2595	0.1642	0.0804	0.045
Mof_H 	H 	0.296	0.2806	0.0049	0.044
Mof_H 	H 	0.071	0.194	0.0406	0.025
Mof_H 	H 	0.5241	0.1142	0.121	0.033
Mof_H 	H 	0.67	0.0304	0.1499	0.038
Mof_H 	H 	0.7643	0.1948	0.1158	0.042
Mof_H 	H 	0.6853	0.0318	0.4112	0.367
Mof_H 	H 	0.6567	0.0666	0.4302	0.358
Mof_H 	H 	0.3918	0.1424	0.3008	-0.036
Mof_H 	H 	0.3385	0.2504	0.3095	0.171
Mof_H 	H 	0.2673	0.2088	0.2874	0.162
Mof_H 	H 	0.3566	0.2156	0.2792	0.166
Mof_H 	H 	0.2028	0.1264	0.3385	0.181
Mof_H 	H 	0.2454	0.19	0.3525	0.183
Mof_H 	H 	0.2714	0.1392	0.3657	0.195
Mof_H 	H 	0.8541	0.3216	0.1093	-0.021
Mof_H 	H 	0.9309	0.295	0.0354	0.2
Mof_H 	H 	0.0168	0.3308	0.0497	0.187
Mof_H 	H 	0.9827	0.2626	0.0523	0.182
Mof_H 	H 	0.9903	0.257	0.1121	0.18
Mof_H 	H 	0.0166	0.3228	0.1227	0.177
Mof_H 	H 	0.9327	0.278	0.1343	0.185
Mof_H 	H 	0.5003	0.045	0.2114	0.321
Mof_H 	H 	0.5283	0.013	0.2404	0.257
Mof_H 	H 	0.5662	0.0812	0.2374	0.305
Mof_H 	H 	0.4461	0.0888	0.2506	-0.11
Mof_H 	H 	0.4032	0.0218	0.2502	-0.085
Mof_H 	H 	0.3979	0.057	0.2994	0.205
Mof_H 	H 	0.9922	0.6236	0.1574	0.031
Mof_H 	H 	0.8717	0.4498	0.1589	0.05
Mof_H 	H 	0.847	0.5454	0.0796	0.05
Mof_H 	H 	0.9702	0.7596	0.2938	0.037
Mof_H 	H 	0.7406	0.7454	0.3095	0.038
Mof_H 	H 	0.7881	0.6208	0.2581	0.053
Mof_H 	H 	0.2405	0.8358	0.0804	0.045
Mof_H 	H 	0.204	0.7194	0.0049	0.044
Mof_H 	H 	0.429	0.806	0.0406	0.025
Mof_H 	H 	0.9759	0.8858	0.121	0.033
Mof_H 	H 	0.83	0.9696	0.1499	0.038
Mof_H 	H 	0.7357	0.8052	0.1158	0.042
Mof_H 	H 	0.8147	0.9682	0.4112	0.367
Mof_H 	H 	0.8433	0.9334	0.4302	0.358
Mof_H 	H 	0.1082	0.8576	0.3008	-0.036
Mof_H 	H 	0.1615	0.7496	0.3095	0.171
Mof_H 	H 	0.2327	0.7912	0.2874	0.162
Mof_H 	H 	0.1434	0.7844	0.2792	0.166
Mof_H 	H 	0.2972	0.8736	0.3385	0.181
Mof_H 	H 	0.2546	0.81	0.3525	0.183
Mof_H 	H 	0.2286	0.8608	0.3657	0.195
Mof_H 	H 	0.6459	0.6784	0.1093	-0.021
Mof_H 	H 	0.5691	0.705	0.0354	0.2
Mof_H 	H 	0.4832	0.6692	0.0497	0.186
Mof_H 	H 	0.5173	0.7374	0.0523	0.181
Mof_H 	H 	0.5097	0.743	0.1121	0.179
Mof_H 	H 	0.4834	0.6772	0.1227	0.176
Mof_H 	H 	0.5673	0.722	0.1343	0.184
Mof_H 	H 	0.9997	0.955	0.2114	0.323
Mof_H 	H 	0.9717	0.987	0.2404	0.261
Mof_H 	H 	0.9338	0.9188	0.2374	0.308
Mof_H 	H 	0.0539	0.9112	0.2506	-0.111
Mof_H 	H 	0.0968	0.9782	0.2502	-0.087
Mof_H 	H 	0.1021	0.943	0.2994	0.206
Mof_H 	H 	0.1314	0.6236	0.3426	0.031
Mof_H 	H 	0.0781	0.4498	0.3411	0.05
Mof_H 	H 	0.1984	0.5454	0.4204	0.05
Mof_H 	H 	0.2894	0.7596	0.2062	0.037
Mof_H 	H 	0.5048	0.7454	0.1905	0.038
Mof_H 	H 	0.3327	0.6208	0.2419	0.052
Mof_H 	H 	0.0953	0.8358	0.4196	0.044
Mof_H 	H 	0.0154	0.7194	0.4951	0.044
Mof_H 	H 	0.877	0.806	0.4594	0.025
Mof_H 	H 	0.4099	0.8858	0.379	0.033
Mof_H 	H 	0.6396	0.9696	0.3501	0.038
Mof_H 	H 	0.5695	0.8052	0.3842	0.042
Mof_H 	H 	0.6535	0.9682	0.0888	0.367
Mof_H 	H 	0.5901	0.9334	0.0698	0.358
Mof_H 	H 	0.2494	0.8576	0.1992	-0.036
Mof_H 	H 	0.0881	0.7496	0.1905	0.171
Mof_H 	H 	0.0585	0.7912	0.2126	0.163
Mof_H 	H 	0.141	0.7844	0.2208	0.166
Mof_H 	H 	0.0764	0.8736	0.1615	0.181
Mof_H 	H 	0.0554	0.81	0.1475	0.183
Mof_H 	H 	0.1322	0.8608	0.1343	0.195
Mof_H 	H 	0.5325	0.6784	0.3907	-0.021
Mof_H 	H 	0.6359	0.705	0.4646	0.2
Mof_H 	H 	0.686	0.6692	0.4503	0.186
Mof_H 	H 	0.7201	0.7374	0.4477	0.181
Mof_H 	H 	0.7333	0.743	0.3879	0.179
Mof_H 	H 	0.6938	0.6772	0.3773	0.176
Mof_H 	H 	0.6547	0.722	0.3657	0.184
Mof_H 	H 	0.4553	0.955	0.2886	0.321
Mof_H 	H 	0.5153	0.987	0.2596	0.257
Mof_H 	H 	0.485	0.9188	0.2626	0.305
Mof_H 	H 	0.3573	0.9112	0.2494	-0.11
Mof_H 	H 	0.3814	0.9782	0.2498	-0.085
Mof_H 	H 	0.3409	0.943	0.2006	0.205
Mof_H 	H 	0.3686	0.3764	0.3426	0.031
Mof_H 	H 	0.4219	0.5502	0.3411	0.05
Mof_H 	H 	0.3016	0.4546	0.4204	0.05
Mof_H 	H 	0.2106	0.2404	0.2062	0.037
Mof_H 	H 	0.9952	0.2546	0.1905	0.037
Mof_H 	H 	0.1673	0.3792	0.2419	0.052
Mof_H 	H 	0.4047	0.1642	0.4196	0.045
Mof_H 	H 	0.4846	0.2806	0.4951	0.044
Mof_H 	H 	0.623	0.194	0.4594	0.025
Mof_H 	H 	0.0901	0.1142	0.379	0.033
Mof_H 	H 	0.8604	0.0304	0.3501	0.038
Mof_H 	H 	0.9305	0.1948	0.3842	0.042
Mof_H 	H 	0.8465	0.0318	0.0888	0.367
Mof_H 	H 	0.9099	0.0666	0.0698	0.358
Mof_H 	H 	0.2506	0.1424	0.1992	-0.036
Mof_H 	H 	0.4119	0.2504	0.1905	0.17
Mof_H 	H 	0.4415	0.2088	0.2126	0.162
Mof_H 	H 	0.359	0.2156	0.2208	0.166
Mof_H 	H 	0.4236	0.1264	0.1615	0.181
Mof_H 	H 	0.4446	0.19	0.1475	0.183
Mof_H 	H 	0.3678	0.1392	0.1343	0.195
Mof_H 	H 	0.9675	0.3216	0.3907	-0.021
Mof_H 	H 	0.8641	0.295	0.4646	0.2
Mof_H 	H 	0.814	0.3308	0.4503	0.186
Mof_H 	H 	0.7799	0.2626	0.4477	0.181
Mof_H 	H 	0.7667	0.257	0.3879	0.179
Mof_H 	H 	0.8062	0.3228	0.3773	0.176
Mof_H 	H 	0.8453	0.278	0.3657	0.184
Mof_H 	H 	0.0447	0.045	0.2886	0.317
Mof_H 	H 	0.9847	0.013	0.2596	0.252
Mof_H 	H 	0.015	0.0812	0.2626	0.302
Mof_H 	H 	0.1427	0.0888	0.2494	-0.108
Mof_H 	H 	0.1186	0.0218	0.2498	-0.082
Mof_H 	H 	0.1591	0.057	0.2006	0.205
Mof_C 	C 	0.42028	0.59396	0.88355	-0.114
Mof_C 	C 	0.45577	0.59014	0.85262	0.066
Mof_C 	C 	0.43689	0.53658	0.83665	-0.119
Mof_C 	C 	0.38437	0.48574	0.8519	0.048
Mof_C 	C 	0.35129	0.48938	0.88339	-0.084
Mof_C 	C 	0.36912	0.54324	0.89931	0.04
Mof_C 	C 	0.4414	0.6512	0.90134	0.339
Mof_C 	C 	0.4746	0.5316	0.8027	0.406
Mof_C 	C 	0.29902	0.43424	0.90069	0.292
Mof_C 	C 	0.38846	0.68472	0.725	-0.116
Mof_C 	C 	0.41519	0.73878	0.7085	0.056
Mof_C 	C 	0.35972	0.76144	0.6955	-0.123
Mof_C 	C 	0.27763	0.73046	0.6993	0.049
Mof_C 	C 	0.2502	0.677	0.7163	-0.105
Mof_C 	C 	0.30607	0.65554	0.7296	0.05
Mof_C 	C 	0.4476	0.6578	0.7368	0.357
Mof_C 	C 	0.38974	0.81908	0.6771	0.378
Mof_C 	C 	0.1599	0.6438	0.7202	0.35
Mof_C 	C 	0.84157	0.82454	0.9349	-0.121
Mof_C 	C 	0.76053	0.81526	0.93468	0.052
Mof_C 	C 	0.70797	0.77494	0.95704	-0.097
Mof_C 	C 	0.73886	0.74672	0.9805	0.051
Mof_C 	C 	0.82309	0.75898	0.98263	-0.129
Mof_C 	C 	0.87378	0.79796	0.95892	0.067
Mof_C 	C 	0.89566	0.86392	0.9083	0.372
Mof_C 	C 	0.6196	0.7624	0.9546	0.299
Mof_C 	C 	0.8539	0.732	0.01002	0.381
Mof_C 	C 	0.35787	0.83674	0.88388	-0.13
Mof_C 	C 	0.42425	0.8861	0.87593	0.061
Mof_C 	C 	0.41455	0.9357	0.86355	-0.121
Mof_C 	C 	0.33674	0.93628	0.8586	0.04
Mof_C 	C 	0.26994	0.88728	0.8664	-0.102
Mof_C 	C 	0.28057	0.83794	0.87894	0.052
Mof_C 	C 	0.36786	0.78432	0.89959	0.395
Mof_C 	C 	0.48806	0.98832	0.8566	0.331
Mof_C 	C 	0.18727	0.88874	0.86471	0.287
Mof_C 	C 	0.64553	0.86726	0.68156	0.204
Mof_C 	C 	0.68073	0.78566	0.70296	-0.415
Mof_C 	C 	0.74695	0.8455	0.65369	-0.444
Mof_C 	C 	0.12731	0.68182	0.91235	0.197
Mof_C 	C 	0.03091	0.70302	0.94697	-0.454
Mof_C 	C 	0.02833	0.71146	0.88372	-0.442
Mof_C 	C 	0.48225	0.9525	0.76544	-0.904
Mof_C 	C 	0.54788	0.94716	0.74232	0.484
Mof_C 	C 	0.07972	0.40604	0.88355	-0.113
Mof_C 	C 	0.04423	0.40986	0.85262	0.066
Mof_C 	C 	0.06311	0.46342	0.83665	-0.119
Mof_C 	C 	0.11563	0.51426	0.8519	0.047
Mof_C 	C 	0.14871	0.51062	0.88339	-0.083
Mof_C 	C 	0.13088	0.45676	0.89931	0.039
Mof_C 	C 	0.0586	0.3488	0.90134	0.338
Mof_C 	C 	0.0254	0.4684	0.8027	0.406
Mof_C 	C 	0.20098	0.56576	0.90069	0.292
Mof_C 	C 	0.11154	0.31528	0.725	-0.115
Mof_C 	C 	0.08481	0.26122	0.7085	0.056
Mof_C 	C 	0.14028	0.23856	0.6955	-0.123
Mof_C 	C 	0.22237	0.26954	0.6993	0.049
Mof_C 	C 	0.2498	0.323	0.7163	-0.105
Mof_C 	C 	0.19393	0.34446	0.7296	0.05
Mof_C 	C 	0.0524	0.3422	0.7368	0.356
Mof_C 	C 	0.11026	0.18092	0.6771	0.378
Mof_C 	C 	0.3401	0.3562	0.7202	0.35
Mof_C 	C 	0.65843	0.17546	0.9349	-0.121
Mof_C 	C 	0.73947	0.18474	0.93468	0.052
Mof_C 	C 	0.79203	0.22506	0.95704	-0.097
Mof_C 	C 	0.76114	0.25328	0.9805	0.051
Mof_C 	C 	0.67691	0.24102	0.98263	-0.129
Mof_C 	C 	0.62622	0.20204	0.95892	0.067
Mof_C 	C 	0.60434	0.13608	0.9083	0.373
Mof_C 	C 	0.8804	0.2376	0.9546	0.299
Mof_C 	C 	0.6461	0.268	0.01002	0.381
Mof_C 	C 	0.14213	0.16326	0.88388	-0.13
Mof_C 	C 	0.07575	0.1139	0.87593	0.061
Mof_C 	C 	0.08545	0.0643	0.86355	-0.121
Mof_C 	C 	0.16326	0.06372	0.8586	0.04
Mof_C 	C 	0.23006	0.11272	0.8664	-0.102
Mof_C 	C 	0.21943	0.16206	0.87894	0.052
Mof_C 	C 	0.13214	0.21568	0.89959	0.395
Mof_C 	C 	0.01194	0.01168	0.8566	0.331
Mof_C 	C 	0.31273	0.11126	0.86471	0.287
Mof_C 	C 	0.85447	0.13274	0.68156	0.204
Mof_C 	C 	0.81927	0.21434	0.70296	-0.415
Mof_C 	C 	0.75305	0.1545	0.65369	-0.444
Mof_C 	C 	0.37269	0.31818	0.91235	0.198
Mof_C 	C 	0.46909	0.29698	0.94697	-0.452
Mof_C 	C 	0.47167	0.28854	0.88372	-0.439
Mof_C 	C 	0.01775	0.0475	0.76544	-0.914
Mof_C 	C 	0.95212	0.05284	0.74232	0.49
Mof_C 	C 	0.82632	0.40604	0.61645	-0.114
Mof_C 	C 	0.86563	0.40986	0.64738	0.066
Mof_C 	C 	0.90031	0.46342	0.66335	-0.119
Mof_C 	C 	0.89863	0.51426	0.6481	0.048
Mof_C 	C 	0.86191	0.51062	0.61661	-0.083
Mof_C 	C 	0.82588	0.45676	0.60069	0.04
Mof_C 	C 	0.7902	0.3488	0.59866	0.339
Mof_C 	C 	0.943	0.4684	0.6973	0.406
Mof_C 	C 	0.86478	0.56576	0.59931	0.292
Mof_C 	C 	0.70374	0.31528	0.775	-0.115
Mof_C 	C 	0.67641	0.26122	0.7915	0.056
Mof_C 	C 	0.59828	0.23856	0.8045	-0.123
Mof_C 	C 	0.54717	0.26954	0.8007	0.049
Mof_C 	C 	0.5732	0.323	0.7837	-0.105
Mof_C 	C 	0.65053	0.34446	0.7704	0.05
Mof_C 	C 	0.7898	0.3422	0.7632	0.357
Mof_C 	C 	0.57066	0.18092	0.8229	0.378
Mof_C 	C 	0.5161	0.3562	0.7798	0.35
Mof_C 	C 	0.01703	0.17546	0.5651	-0.121
Mof_C 	C 	0.94527	0.18474	0.56532	0.053
Mof_C 	C 	0.93303	0.22506	0.54296	-0.097
Mof_C 	C 	0.99214	0.25328	0.5195	0.051
Mof_C 	C 	0.06411	0.24102	0.51737	-0.13
Mof_C 	C 	0.07582	0.20204	0.54108	0.068
Mof_C 	C 	0.03174	0.13608	0.5917	0.372
Mof_C 	C 	0.8572	0.2376	0.5454	0.299
Mof_C 	C 	0.1219	0.268	0.48998	0.381
Mof_C 	C 	0.52113	0.16326	0.61612	-0.13
Mof_C 	C 	0.53815	0.1139	0.62407	0.061
Mof_C 	C 	0.47885	0.0643	0.63645	-0.121
Mof_C 	C 	0.40046	0.06372	0.6414	0.04
Mof_C 	C 	0.38266	0.11272	0.6336	-0.102
Mof_C 	C 	0.44263	0.16206	0.62106	0.052
Mof_C 	C 	0.58354	0.21568	0.60041	0.395
Mof_C 	C 	0.49974	0.01168	0.6434	0.331
Mof_C 	C 	0.29853	0.11126	0.63529	0.287
Mof_C 	C 	0.77827	0.13274	0.81844	0.204
Mof_C 	C 	0.89507	0.21434	0.79704	-0.415
Mof_C 	C 	0.90145	0.1545	0.84631	-0.444
Mof_C 	C 	0.44549	0.31818	0.58765	0.198
Mof_C 	C 	0.32789	0.29698	0.55303	-0.452
Mof_C 	C 	0.31687	0.28854	0.61628	-0.439
Mof_C 	C 	0.52975	0.0475	0.73456	-0.904
Mof_C 	C 	0.60072	0.05284	0.75768	0.484
Mof_C 	C 	0.67368	0.59396	0.61645	-0.114
Mof_C 	C 	0.63437	0.59014	0.64738	0.066
Mof_C 	C 	0.59969	0.53658	0.66335	-0.119
Mof_C 	C 	0.60137	0.48574	0.6481	0.048
Mof_C 	C 	0.63809	0.48938	0.61661	-0.084
Mof_C 	C 	0.67412	0.54324	0.60069	0.04
Mof_C 	C 	0.7098	0.6512	0.59866	0.339
Mof_C 	C 	0.557	0.5316	0.6973	0.406
Mof_C 	C 	0.63522	0.43424	0.59931	0.292
Mof_C 	C 	0.79626	0.68472	0.775	-0.116
Mof_C 	C 	0.82359	0.73878	0.7915	0.057
Mof_C 	C 	0.90172	0.76144	0.8045	-0.124
Mof_C 	C 	0.95283	0.73046	0.8007	0.052
Mof_C 	C 	0.9268	0.677	0.7837	-0.106
Mof_C 	C 	0.84947	0.65554	0.7704	0.051
Mof_C 	C 	0.7102	0.6578	0.7632	0.357
Mof_C 	C 	0.92934	0.81908	0.8229	0.379
Mof_C 	C 	0.9839	0.6438	0.7798	0.351
Mof_C 	C 	0.48297	0.82454	0.5651	-0.121
Mof_C 	C 	0.55473	0.81526	0.56532	0.053
Mof_C 	C 	0.56697	0.77494	0.54296	-0.097
Mof_C 	C 	0.50786	0.74672	0.5195	0.051
Mof_C 	C 	0.43589	0.75898	0.51737	-0.13
Mof_C 	C 	0.42418	0.79796	0.54108	0.068
Mof_C 	C 	0.46826	0.86392	0.5917	0.373
Mof_C 	C 	0.6428	0.7624	0.5454	0.299
Mof_C 	C 	0.3781	0.732	0.48998	0.381
Mof_C 	C 	0.97887	0.83674	0.61612	-0.129
Mof_C 	C 	0.96185	0.8861	0.62407	0.062
Mof_C 	C 	0.02115	0.9357	0.63645	-0.121
Mof_C 	C 	0.09954	0.93628	0.6414	0.04
Mof_C 	C 	0.11734	0.88728	0.6336	-0.101
Mof_C 	C 	0.05737	0.83794	0.62106	0.052
Mof_C 	C 	0.91646	0.78432	0.60041	0.395
Mof_C 	C 	0.00026	0.98832	0.6434	0.331
Mof_C 	C 	0.20147	0.88874	0.63529	0.287
Mof_C 	C 	0.72173	0.86726	0.81844	0.204
Mof_C 	C 	0.60493	0.78566	0.79704	-0.415
Mof_C 	C 	0.59855	0.8455	0.84631	-0.444
Mof_C 	C 	0.05451	0.68182	0.58765	0.198
Mof_C 	C 	0.17211	0.70302	0.55303	-0.452
Mof_C 	C 	0.18313	0.71146	0.61628	-0.439
Mof_C 	C 	0.97025	0.9525	0.73456	-0.893
Mof_C 	C 	0.89928	0.94716	0.75768	0.478
Mof_C 	C 	0.57972	0.40604	0.11645	-0.114
Mof_C 	C 	0.54423	0.40986	0.14738	0.066
Mof_C 	C 	0.56311	0.46342	0.16335	-0.119
Mof_C 	C 	0.61563	0.51426	0.1481	0.048
Mof_C 	C 	0.64871	0.51062	0.11661	-0.084
Mof_C 	C 	0.63088	0.45676	0.10069	0.04
Mof_C 	C 	0.5586	0.3488	0.09866	0.339
Mof_C 	C 	0.5254	0.4684	0.1973	0.406
Mof_C 	C 	0.70098	0.56576	0.09931	0.292
Mof_C 	C 	0.61154	0.31528	0.275	-0.116
Mof_C 	C 	0.58481	0.26122	0.2915	0.056
Mof_C 	C 	0.64028	0.23856	0.3045	-0.123
Mof_C 	C 	0.72237	0.26954	0.3007	0.049
Mof_C 	C 	0.7498	0.323	0.2837	-0.105
Mof_C 	C 	0.69393	0.34446	0.2704	0.05
Mof_C 	C 	0.5524	0.3422	0.2632	0.357
Mof_C 	C 	0.61026	0.18092	0.3229	0.378
Mof_C 	C 	0.8401	0.3562	0.2798	0.35
Mof_C 	C 	0.15843	0.17546	0.0651	-0.121
Mof_C 	C 	0.23947	0.18474	0.06532	0.052
Mof_C 	C 	0.29203	0.22506	0.04296	-0.097
Mof_C 	C 	0.26114	0.25328	0.0195	0.051
Mof_C 	C 	0.17691	0.24102	0.01737	-0.129
Mof_C 	C 	0.12622	0.20204	0.04108	0.067
Mof_C 	C 	0.10434	0.13608	0.0917	0.372
Mof_C 	C 	0.3804	0.2376	0.0454	0.299
Mof_C 	C 	0.1461	0.268	0.98998	0.381
Mof_C 	C 	0.64213	0.16326	0.11612	-0.13
Mof_C 	C 	0.57575	0.1139	0.12407	0.061
Mof_C 	C 	0.58545	0.0643	0.13645	-0.121
Mof_C 	C 	0.66326	0.06372	0.1414	0.04
Mof_C 	C 	0.73006	0.11272	0.1336	-0.102
Mof_C 	C 	0.71943	0.16206	0.12106	0.052
Mof_C 	C 	0.63214	0.21568	0.10041	0.395
Mof_C 	C 	0.51194	0.01168	0.1434	0.331
Mof_C 	C 	0.81273	0.11126	0.13529	0.287
Mof_C 	C 	0.35447	0.13274	0.31844	0.204
Mof_C 	C 	0.31927	0.21434	0.29704	-0.415
Mof_C 	C 	0.25305	0.1545	0.34631	-0.444
Mof_C 	C 	0.87269	0.31818	0.08765	0.197
Mof_C 	C 	0.96909	0.29698	0.05303	-0.454
Mof_C 	C 	0.97167	0.28854	0.11628	-0.442
Mof_C 	C 	0.51775	0.0475	0.23456	-0.904
Mof_C 	C 	0.45212	0.05284	0.25768	0.484
Mof_C 	C 	0.92028	0.59396	0.11645	-0.113
Mof_C 	C 	0.95577	0.59014	0.14738	0.066
Mof_C 	C 	0.93689	0.53658	0.16335	-0.119
Mof_C 	C 	0.88437	0.48574	0.1481	0.047
Mof_C 	C 	0.85129	0.48938	0.11661	-0.083
Mof_C 	C 	0.86912	0.54324	0.10069	0.039
Mof_C 	C 	0.9414	0.6512	0.09866	0.338
Mof_C 	C 	0.9746	0.5316	0.1973	0.406
Mof_C 	C 	0.79902	0.43424	0.09931	0.292
Mof_C 	C 	0.88846	0.68472	0.275	-0.115
Mof_C 	C 	0.91519	0.73878	0.2915	0.056
Mof_C 	C 	0.85972	0.76144	0.3045	-0.123
Mof_C 	C 	0.77763	0.73046	0.3007	0.049
Mof_C 	C 	0.7502	0.677	0.2837	-0.105
Mof_C 	C 	0.80607	0.65554	0.2704	0.05
Mof_C 	C 	0.9476	0.6578	0.2632	0.356
Mof_C 	C 	0.88974	0.81908	0.3229	0.378
Mof_C 	C 	0.6599	0.6438	0.2798	0.35
Mof_C 	C 	0.34157	0.82454	0.0651	-0.121
Mof_C 	C 	0.26053	0.81526	0.06532	0.052
Mof_C 	C 	0.20797	0.77494	0.04296	-0.097
Mof_C 	C 	0.23886	0.74672	0.0195	0.051
Mof_C 	C 	0.32309	0.75898	0.01737	-0.129
Mof_C 	C 	0.37378	0.79796	0.04108	0.067
Mof_C 	C 	0.39566	0.86392	0.0917	0.373
Mof_C 	C 	0.1196	0.7624	0.0454	0.299
Mof_C 	C 	0.3539	0.732	0.98998	0.381
Mof_C 	C 	0.85787	0.83674	0.11612	-0.13
Mof_C 	C 	0.92425	0.8861	0.12407	0.061
Mof_C 	C 	0.91455	0.9357	0.13645	-0.121
Mof_C 	C 	0.83674	0.93628	0.1414	0.04
Mof_C 	C 	0.76994	0.88728	0.1336	-0.102
Mof_C 	C 	0.78057	0.83794	0.12106	0.052
Mof_C 	C 	0.86786	0.78432	0.10041	0.395
Mof_C 	C 	0.98806	0.98832	0.1434	0.331
Mof_C 	C 	0.68727	0.88874	0.13529	0.287
Mof_C 	C 	0.14553	0.86726	0.31844	0.204
Mof_C 	C 	0.18073	0.78566	0.29704	-0.415
Mof_C 	C 	0.24695	0.8455	0.34631	-0.444
Mof_C 	C 	0.62731	0.68182	0.08765	0.198
Mof_C 	C 	0.53091	0.70302	0.05303	-0.452
Mof_C 	C 	0.52833	0.71146	0.11628	-0.439
Mof_C 	C 	0.98225	0.9525	0.23456	-0.914
Mof_C 	C 	0.04788	0.94716	0.25768	0.49
Mof_C 	C 	0.17368	0.59396	0.38355	-0.114
Mof_C 	C 	0.13437	0.59014	0.35262	0.066
Mof_C 	C 	0.09969	0.53658	0.33665	-0.119
Mof_C 	C 	0.10137	0.48574	0.3519	0.048
Mof_C 	C 	0.13809	0.48938	0.38339	-0.083
Mof_C 	C 	0.17412	0.54324	0.39931	0.04
Mof_C 	C 	0.2098	0.6512	0.40134	0.339
Mof_C 	C 	0.057	0.5316	0.3027	0.406
Mof_C 	C 	0.13522	0.43424	0.40069	0.292
Mof_C 	C 	0.29626	0.68472	0.225	-0.115
Mof_C 	C 	0.32359	0.73878	0.2085	0.056
Mof_C 	C 	0.40172	0.76144	0.1955	-0.123
Mof_C 	C 	0.45283	0.73046	0.1993	0.049
Mof_C 	C 	0.4268	0.677	0.2163	-0.105
Mof_C 	C 	0.34947	0.65554	0.2296	0.05
Mof_C 	C 	0.2102	0.6578	0.2368	0.357
Mof_C 	C 	0.42934	0.81908	0.1771	0.378
Mof_C 	C 	0.4839	0.6438	0.2202	0.35
Mof_C 	C 	0.98297	0.82454	0.4349	-0.121
Mof_C 	C 	0.05473	0.81526	0.43468	0.053
Mof_C 	C 	0.06697	0.77494	0.45704	-0.097
Mof_C 	C 	0.00786	0.74672	0.4805	0.051
Mof_C 	C 	0.93589	0.75898	0.48263	-0.13
Mof_C 	C 	0.92418	0.79796	0.45892	0.068
Mof_C 	C 	0.96826	0.86392	0.4083	0.372
Mof_C 	C 	0.1428	0.7624	0.4546	0.299
Mof_C 	C 	0.8781	0.732	0.51002	0.381
Mof_C 	C 	0.47887	0.83674	0.38388	-0.13
Mof_C 	C 	0.46185	0.8861	0.37593	0.061
Mof_C 	C 	0.52115	0.9357	0.36355	-0.121
Mof_C 	C 	0.59954	0.93628	0.3586	0.04
Mof_C 	C 	0.61734	0.88728	0.3664	-0.102
Mof_C 	C 	0.55737	0.83794	0.37894	0.052
Mof_C 	C 	0.41646	0.78432	0.39959	0.395
Mof_C 	C 	0.50026	0.98832	0.3566	0.331
Mof_C 	C 	0.70147	0.88874	0.36471	0.287
Mof_C 	C 	0.22173	0.86726	0.18156	0.204
Mof_C 	C 	0.10493	0.78566	0.20296	-0.415
Mof_C 	C 	0.09855	0.8455	0.15369	-0.444
Mof_C 	C 	0.55451	0.68182	0.41235	0.198
Mof_C 	C 	0.67211	0.70302	0.44697	-0.452
Mof_C 	C 	0.68313	0.71146	0.38372	-0.439
Mof_C 	C 	0.47025	0.9525	0.26544	-0.904
Mof_C 	C 	0.39928	0.94716	0.24232	0.484
Mof_C 	C 	0.32632	0.40604	0.38355	-0.114
Mof_C 	C 	0.36563	0.40986	0.35262	0.066
Mof_C 	C 	0.40031	0.46342	0.33665	-0.119
Mof_C 	C 	0.39863	0.51426	0.3519	0.048
Mof_C 	C 	0.36191	0.51062	0.38339	-0.084
Mof_C 	C 	0.32588	0.45676	0.39931	0.04
Mof_C 	C 	0.2902	0.3488	0.40134	0.339
Mof_C 	C 	0.443	0.4684	0.3027	0.406
Mof_C 	C 	0.36478	0.56576	0.40069	0.292
Mof_C 	C 	0.20374	0.31528	0.225	-0.116
Mof_C 	C 	0.17641	0.26122	0.2085	0.057
Mof_C 	C 	0.09828	0.23856	0.1955	-0.124
Mof_C 	C 	0.04717	0.26954	0.1993	0.052
Mof_C 	C 	0.0732	0.323	0.2163	-0.106
Mof_C 	C 	0.15053	0.34446	0.2296	0.051
Mof_C 	C 	0.2898	0.3422	0.2368	0.357
Mof_C 	C 	0.07066	0.18092	0.1771	0.379
Mof_C 	C 	0.0161	0.3562	0.2202	0.351
Mof_C 	C 	0.51703	0.17546	0.4349	-0.121
Mof_C 	C 	0.44527	0.18474	0.43468	0.053
Mof_C 	C 	0.43303	0.22506	0.45704	-0.097
Mof_C 	C 	0.49214	0.25328	0.4805	0.051
Mof_C 	C 	0.56411	0.24102	0.48263	-0.13
Mof_C 	C 	0.57582	0.20204	0.45892	0.068
Mof_C 	C 	0.53174	0.13608	0.4083	0.373
Mof_C 	C 	0.3572	0.2376	0.4546	0.299
Mof_C 	C 	0.6219	0.268	0.51002	0.381
Mof_C 	C 	0.02113	0.16326	0.38388	-0.129
Mof_C 	C 	0.03815	0.1139	0.37593	0.062
Mof_C 	C 	0.97885	0.0643	0.36355	-0.121
Mof_C 	C 	0.90046	0.06372	0.3586	0.04
Mof_C 	C 	0.88266	0.11272	0.3664	-0.101
Mof_C 	C 	0.94263	0.16206	0.37894	0.052
Mof_C 	C 	0.08354	0.21568	0.39959	0.395
Mof_C 	C 	0.99974	0.01168	0.3566	0.331
Mof_C 	C 	0.79853	0.11126	0.36471	0.287
Mof_C 	C 	0.27827	0.13274	0.18156	0.204
Mof_C 	C 	0.39507	0.21434	0.20296	-0.415
Mof_C 	C 	0.40145	0.1545	0.15369	-0.444
Mof_C 	C 	0.94549	0.31818	0.41235	0.198
Mof_C 	C 	0.82789	0.29698	0.44697	-0.452
Mof_C 	C 	0.81687	0.28854	0.38372	-0.439
Mof_C 	C 	0.02975	0.0475	0.26544	-0.893
Mof_C 	C 	0.10072	0.05284	0.24232	0.478
Mof_N 	N 	0.68777	0.83354	0.68028	-0.037
Mof_N 	N 	0.06557	0.69934	0.91468	-0.026
Mof_N 	N 	0.81223	0.16646	0.68028	-0.037
Mof_N 	N 	0.43443	0.30066	0.91468	-0.027
Mof_N 	N 	0.85423	0.16646	0.81972	-0.037
Mof_N 	N 	0.36623	0.30066	0.58532	-0.027
Mof_N 	N 	0.64577	0.83354	0.81972	-0.037
Mof_N 	N 	0.13377	0.69934	0.58532	-0.027
Mof_N 	N 	0.31223	0.16646	0.31972	-0.037
Mof_N 	N 	0.93443	0.30066	0.08532	-0.026
Mof_N 	N 	0.18777	0.83354	0.31972	-0.037
Mof_N 	N 	0.56557	0.69934	0.08532	-0.027
Mof_N 	N 	0.14577	0.83354	0.18028	-0.037
Mof_N 	N 	0.63377	0.69934	0.41468	-0.027
Mof_N 	N 	0.35423	0.16646	0.18028	-0.037
Mof_N 	N 	0.86623	0.30066	0.41468	-0.027
Mof_O 	O 	0.3951	0.6562	0.92535	-0.502
Mof_O 	O 	0.50371	0.69242	0.89394	-0.362
Mof_O 	O 	0.53591	0.57502	0.79359	-0.443
Mof_O 	O 	0.44307	0.48574	0.7867	-0.457
Mof_O 	O 	0.2711	0.3878	0.88352	-0.361
Mof_O 	O 	0.28381	0.43382	0.93222	-0.338
Mof_O 	O 	0.42338	0.60996	0.7512	-0.35
Mof_O 	O 	0.5196	0.6834	0.7319	-0.417
Mof_O 	O 	0.46421	0.84002	0.67061	-0.436
Mof_O 	O 	0.33899	0.84118	0.66882	-0.426
Mof_O 	O 	0.1125	0.663	0.7085	-0.3
Mof_O 	O 	0.14089	0.59438	0.73527	-0.411
Mof_O 	O 	0.9617	0.858	0.90217	-0.438
Mof_O 	O 	0.86838	0.89876	0.89316	-0.415
Mof_O 	O 	0.596	0.7982	0.93933	-0.378
Mof_O 	O 	0.57017	0.71494	0.96669	-0.343
Mof_O 	O 	0.80476	0.68632	0.02377	-0.43
Mof_O 	O 	0.92706	0.75572	0.01802	-0.434
Mof_O 	O 	0.43953	0.79026	0.90733	-0.44
Mof_O 	O 	0.30703	0.73986	0.90475	-0.444
Mof_O 	O 	0.55743	0.98586	0.8582	-0.368
Mof_O 	O 	0.48114	0.03708	0.84826	-0.503
Mof_O 	O 	0.174	0.928	0.84694	-0.352
Mof_O 	O 	0.13216	0.85292	0.88201	-0.374
Mof_O 	O 	0.35011	0.95442	0.58718	-0.849
Mof_O 	O 	0.64427	0.90934	0.66444	-0.351
Mof_O 	O 	0.16273	0.66946	0.93667	-0.329
Mof_O 	O 	0.5552	0.9472	0.70523	-0.545
Mof_O 	O 	0.1049	0.3438	0.92535	-0.502
Mof_O 	O 	0.99629	0.30758	0.89394	-0.361
Mof_O 	O 	0.96409	0.42498	0.79359	-0.442
Mof_O 	O 	0.05693	0.51426	0.7867	-0.457
Mof_O 	O 	0.2289	0.6122	0.88352	-0.361
Mof_O 	O 	0.21619	0.56618	0.93222	-0.338
Mof_O 	O 	0.07662	0.39004	0.7512	-0.35
Mof_O 	O 	0.9804	0.3166	0.7319	-0.416
Mof_O 	O 	0.03579	0.15998	0.67061	-0.436
Mof_O 	O 	0.16101	0.15882	0.66882	-0.426
Mof_O 	O 	0.3875	0.337	0.7085	-0.3
Mof_O 	O 	0.35911	0.40562	0.73527	-0.411
Mof_O 	O 	0.5383	0.142	0.90217	-0.438
Mof_O 	O 	0.63162	0.10124	0.89316	-0.415
Mof_O 	O 	0.904	0.2018	0.93933	-0.378
Mof_O 	O 	0.92983	0.28506	0.96669	-0.343
Mof_O 	O 	0.69524	0.31368	0.02377	-0.43
Mof_O 	O 	0.57294	0.24428	0.01802	-0.434
Mof_O 	O 	0.06047	0.20974	0.90733	-0.441
Mof_O 	O 	0.19297	0.26014	0.90475	-0.444
Mof_O 	O 	0.94257	0.01414	0.8582	-0.367
Mof_O 	O 	0.01886	0.96292	0.84826	-0.503
Mof_O 	O 	0.326	0.072	0.84694	-0.352
Mof_O 	O 	0.36784	0.14708	0.88201	-0.374
Mof_O 	O 	0.14989	0.04558	0.58718	-0.849
Mof_O 	O 	0.85573	0.09066	0.66444	-0.351
Mof_O 	O 	0.33727	0.33054	0.93667	-0.329
Mof_O 	O 	0.9448	0.0528	0.70523	-0.546
Mof_O 	O 	0.7389	0.3438	0.57465	-0.502
Mof_O 	O 	0.81129	0.30758	0.60606	-0.362
Mof_O 	O 	0.96089	0.42498	0.70641	-0.443
Mof_O 	O 	0.95733	0.51426	0.7133	-0.457
Mof_O 	O 	0.8833	0.6122	0.61648	-0.361
Mof_O 	O 	0.84999	0.56618	0.56778	-0.338
Mof_O 	O 	0.81342	0.39004	0.7488	-0.35
Mof_O 	O 	0.8362	0.3166	0.7681	-0.417
Mof_O 	O 	0.62419	0.15998	0.82939	-0.436
Mof_O 	O 	0.49781	0.15882	0.83118	-0.426
Mof_O 	O 	0.4495	0.337	0.7915	-0.3
Mof_O 	O 	0.54651	0.40562	0.76473	-0.411
Mof_O 	O 	0.1037	0.142	0.59783	-0.438
Mof_O 	O 	0.96962	0.10124	0.60684	-0.415
Mof_O 	O 	0.7978	0.2018	0.56067	-0.378
Mof_O 	O 	0.85523	0.28506	0.53331	-0.343
Mof_O 	O 	0.11844	0.31368	0.47623	-0.429
Mof_O 	O 	0.17134	0.24428	0.48198	-0.434
Mof_O 	O 	0.64927	0.20974	0.59267	-0.44
Mof_O 	O 	0.56717	0.26014	0.59525	-0.444
Mof_O 	O 	0.57157	0.01414	0.6418	-0.368
Mof_O 	O 	0.44406	0.96292	0.65174	-0.503
Mof_O 	O 	0.246	0.072	0.65306	-0.352
Mof_O 	O 	0.27924	0.14708	0.61799	-0.374
Mof_O 	O 	0.39569	0.04558	0.91282	-0.849
Mof_O 	O 	0.73493	0.09066	0.83556	-0.351
Mof_O 	O 	0.49327	0.33054	0.56333	-0.329
Mof_O 	O 	0.608	0.0528	0.79477	-0.545
Mof_O 	O 	0.7611	0.6562	0.57465	-0.502
Mof_O 	O 	0.68871	0.69242	0.60606	-0.362
Mof_O 	O 	0.53911	0.57502	0.70641	-0.443
Mof_O 	O 	0.54267	0.48574	0.7133	-0.457
Mof_O 	O 	0.6167	0.3878	0.61648	-0.361
Mof_O 	O 	0.65001	0.43382	0.56778	-0.338
Mof_O 	O 	0.68658	0.60996	0.7488	-0.35
Mof_O 	O 	0.6638	0.6834	0.7681	-0.417
Mof_O 	O 	0.87581	0.84002	0.82939	-0.436
Mof_O 	O 	0.00219	0.84118	0.83118	-0.427
Mof_O 	O 	0.0505	0.663	0.7915	-0.301
Mof_O 	O 	0.95349	0.59438	0.76473	-0.411
Mof_O 	O 	0.3963	0.858	0.59783	-0.438
Mof_O 	O 	0.53038	0.89876	0.60684	-0.415
Mof_O 	O 	0.7022	0.7982	0.56067	-0.378
Mof_O 	O 	0.64477	0.71494	0.53331	-0.343
Mof_O 	O 	0.38156	0.68632	0.47623	-0.43
Mof_O 	O 	0.32866	0.75572	0.48198	-0.434
Mof_O 	O 	0.85073	0.79026	0.59267	-0.44
Mof_O 	O 	0.93283	0.73986	0.59525	-0.444
Mof_O 	O 	0.92843	0.98586	0.6418	-0.367
Mof_O 	O 	0.05594	0.03708	0.65174	-0.503
Mof_O 	O 	0.254	0.928	0.65306	-0.352
Mof_O 	O 	0.22076	0.85292	0.61799	-0.374
Mof_O 	O 	0.10431	0.95442	0.91282	-0.849
Mof_O 	O 	0.76507	0.90934	0.83556	-0.351
Mof_O 	O 	0.00673	0.66946	0.56333	-0.329
Mof_O 	O 	0.892	0.9472	0.79477	-0.543
Mof_O 	O 	0.6049	0.3438	0.07465	-0.502
Mof_O 	O 	0.49629	0.30758	0.10606	-0.362
Mof_O 	O 	0.46409	0.42498	0.20641	-0.443
Mof_O 	O 	0.55693	0.51426	0.2133	-0.457
Mof_O 	O 	0.7289	0.6122	0.11648	-0.361
Mof_O 	O 	0.71619	0.56618	0.06778	-0.338
Mof_O 	O 	0.57662	0.39004	0.2488	-0.35
Mof_O 	O 	0.4804	0.3166	0.2681	-0.417
Mof_O 	O 	0.53579	0.15998	0.32939	-0.436
Mof_O 	O 	0.66101	0.15882	0.33118	-0.426
Mof_O 	O 	0.8875	0.337	0.2915	-0.3
Mof_O 	O 	0.85911	0.40562	0.26473	-0.411
Mof_O 	O 	0.0383	0.142	0.09783	-0.438
Mof_O 	O 	0.13162	0.10124	0.10684	-0.415
Mof_O 	O 	0.404	0.2018	0.06067	-0.378
Mof_O 	O 	0.42983	0.28506	0.03331	-0.343
Mof_O 	O 	0.19524	0.31368	0.97623	-0.43
Mof_O 	O 	0.07294	0.24428	0.98198	-0.434
Mof_O 	O 	0.56047	0.20974	0.09267	-0.44
Mof_O 	O 	0.69297	0.26014	0.09525	-0.444
Mof_O 	O 	0.44257	0.01414	0.1418	-0.368
Mof_O 	O 	0.51886	0.96292	0.15174	-0.503
Mof_O 	O 	0.826	0.072	0.15306	-0.352
Mof_O 	O 	0.86784	0.14708	0.11799	-0.374
Mof_O 	O 	0.64989	0.04558	0.41282	-0.849
Mof_O 	O 	0.35573	0.09066	0.33556	-0.351
Mof_O 	O 	0.83727	0.33054	0.06333	-0.329
Mof_O 	O 	0.4448	0.0528	0.29477	-0.545
Mof_O 	O 	0.8951	0.6562	0.07465	-0.502
Mof_O 	O 	0.00371	0.69242	0.10606	-0.361
Mof_O 	O 	0.03591	0.57502	0.20641	-0.442
Mof_O 	O 	0.94307	0.48574	0.2133	-0.457
Mof_O 	O 	0.7711	0.3878	0.11648	-0.361
Mof_O 	O 	0.78381	0.43382	0.06778	-0.338
Mof_O 	O 	0.92338	0.60996	0.2488	-0.35
Mof_O 	O 	0.0196	0.6834	0.2681	-0.416
Mof_O 	O 	0.96421	0.84002	0.32939	-0.436
Mof_O 	O 	0.83899	0.84118	0.33118	-0.426
Mof_O 	O 	0.6125	0.663	0.2915	-0.3
Mof_O 	O 	0.64089	0.59438	0.26473	-0.411
Mof_O 	O 	0.4617	0.858	0.09783	-0.438
Mof_O 	O 	0.36838	0.89876	0.10684	-0.415
Mof_O 	O 	0.096	0.7982	0.06067	-0.378
Mof_O 	O 	0.07017	0.71494	0.03331	-0.343
Mof_O 	O 	0.30476	0.68632	0.97623	-0.43
Mof_O 	O 	0.42706	0.75572	0.98198	-0.434
Mof_O 	O 	0.93953	0.79026	0.09267	-0.441
Mof_O 	O 	0.80703	0.73986	0.09525	-0.444
Mof_O 	O 	0.05743	0.98586	0.1418	-0.367
Mof_O 	O 	0.98114	0.03708	0.15174	-0.503
Mof_O 	O 	0.674	0.928	0.15306	-0.352
Mof_O 	O 	0.63216	0.85292	0.11799	-0.374
Mof_O 	O 	0.85011	0.95442	0.41282	-0.849
Mof_O 	O 	0.14427	0.90934	0.33556	-0.351
Mof_O 	O 	0.66273	0.66946	0.06333	-0.329
Mof_O 	O 	0.0552	0.9472	0.29477	-0.546
Mof_O 	O 	0.2611	0.6562	0.42535	-0.502
Mof_O 	O 	0.18871	0.69242	0.39394	-0.362
Mof_O 	O 	0.03911	0.57502	0.29359	-0.443
Mof_O 	O 	0.04267	0.48574	0.2867	-0.457
Mof_O 	O 	0.1167	0.3878	0.38352	-0.361
Mof_O 	O 	0.15001	0.43382	0.43222	-0.338
Mof_O 	O 	0.18658	0.60996	0.2512	-0.35
Mof_O 	O 	0.1638	0.6834	0.2319	-0.417
Mof_O 	O 	0.37581	0.84002	0.17061	-0.436
Mof_O 	O 	0.50219	0.84118	0.16882	-0.426
Mof_O 	O 	0.5505	0.663	0.2085	-0.3
Mof_O 	O 	0.45349	0.59438	0.23527	-0.411
Mof_O 	O 	0.8963	0.858	0.40217	-0.438
Mof_O 	O 	0.03038	0.89876	0.39316	-0.415
Mof_O 	O 	0.2022	0.7982	0.43933	-0.378
Mof_O 	O 	0.14477	0.71494	0.46669	-0.343
Mof_O 	O 	0.88156	0.68632	0.52377	-0.429
Mof_O 	O 	0.82866	0.75572	0.51802	-0.434
Mof_O 	O 	0.35073	0.79026	0.40733	-0.44
Mof_O 	O 	0.43283	0.73986	0.40475	-0.444
Mof_O 	O 	0.42843	0.98586	0.3582	-0.368
Mof_O 	O 	0.55594	0.03708	0.34826	-0.503
Mof_O 	O 	0.754	0.928	0.34694	-0.352
Mof_O 	O 	0.72076	0.85292	0.38201	-0.374
Mof_O 	O 	0.60431	0.95442	0.08718	-0.849
Mof_O 	O 	0.26507	0.90934	0.16444	-0.351
Mof_O 	O 	0.50673	0.66946	0.43667	-0.329
Mof_O 	O 	0.392	0.9472	0.20523	-0.545
Mof_O 	O 	0.2389	0.3438	0.42535	-0.502
Mof_O 	O 	0.31129	0.30758	0.39394	-0.362
Mof_O 	O 	0.46089	0.42498	0.29359	-0.443
Mof_O 	O 	0.45733	0.51426	0.2867	-0.457
Mof_O 	O 	0.3833	0.6122	0.38352	-0.361
Mof_O 	O 	0.34999	0.56618	0.43222	-0.338
Mof_O 	O 	0.31342	0.39004	0.2512	-0.35
Mof_O 	O 	0.3362	0.3166	0.2319	-0.417
Mof_O 	O 	0.12419	0.15998	0.17061	-0.436
Mof_O 	O 	0.99781	0.15882	0.16882	-0.427
Mof_O 	O 	0.9495	0.337	0.2085	-0.301
Mof_O 	O 	0.04651	0.40562	0.23527	-0.411
Mof_O 	O 	0.6037	0.142	0.40217	-0.438
Mof_O 	O 	0.46962	0.10124	0.39316	-0.415
Mof_O 	O 	0.2978	0.2018	0.43933	-0.378
Mof_O 	O 	0.35523	0.28506	0.46669	-0.343
Mof_O 	O 	0.61844	0.31368	0.52377	-0.43
Mof_O 	O 	0.67134	0.24428	0.51802	-0.434
Mof_O 	O 	0.14927	0.20974	0.40733	-0.44
Mof_O 	O 	0.06717	0.26014	0.40475	-0.444
Mof_O 	O 	0.07157	0.01414	0.3582	-0.367
Mof_O 	O 	0.94406	0.96292	0.34826	-0.503
Mof_O 	O 	0.746	0.072	0.34694	-0.352
Mof_O 	O 	0.77924	0.14708	0.38201	-0.374
Mof_O 	O 	0.89569	0.04558	0.08718	-0.849
Mof_O 	O 	0.23493	0.09066	0.16444	-0.351
Mof_O 	O 	0.99327	0.33054	0.43667	-0.329
Mof_O 	O 	0.108	0.0528	0.20523	-0.543
_end
