# CIF file generated by openbabel 3.1.0, see https://openbabel.org
data_I
_chemical_name_common 'image0'
_cell_length_a 9.6689
_cell_length_b 16.716
_cell_length_c 21.277
_cell_angle_alpha 104.23
_cell_angle_beta 100.42
_cell_angle_gamma 96.86
_space_group_name_H-M_alt 'P 1'
_space_group_name_Hall 'P 1'
loop_
    _symmetry_equiv_pos_as_xyz
    x,y,z
loop_
    _atom_site_label
    _atom_site_type_symbol
    _atom_site_fract_x
    _atom_site_fract_y
    _atom_site_fract_z
    _atom_site_occupancy
    Eu1      Eu       0.27613    0.51536    0.99816    1.000
    I1       I        0.76300    0.99030    0.50023    1.000
    I2       I        0.98948    0.77964    0.47165    1.000
    I3       I        0.08940    0.97873    0.67434    1.000
    I4       I        0.69772    0.79038    0.61407    1.000
    Cu1      Cu       0.01404    0.94278    0.54053    1.000
    Cu2      Cu       0.75541    0.82741    0.50277    1.000
    Cu3      Cu       0.82078    0.94673    0.62266    1.000
    Cu4      Cu       0.96271    0.81831    0.59992    1.000
    O1       O        0.17040    0.54440    0.09180    1.000
    O2       O        0.94000    0.48530    0.07200    1.000
    O3       O        0.54520    0.37540    0.92830    1.000
    O4       O        0.32640    0.40800    0.91280    1.000
    O5       O        0.35920    0.58300    0.92170    1.000
    O6       O        0.57670    0.55010    0.93880    1.000
    N1       N        0.57780    0.76170    0.43470    1.000
    N2       N        0.70790    0.02820    0.66810    1.000
    N3       N        0.09810    0.75470    0.64220    1.000
    C1       C        0.45260    0.78370    0.43710    1.000
    H1       H        0.44860    0.83110    0.47000    1.000
    C2       C        0.32760    0.74160    0.39420    1.000
    H2       H        0.24270    0.76100    0.39850    1.000
    C3       C        0.32630    0.67150    0.34530    1.000
    C4       C        0.45750    0.64810    0.33980    1.000
    H3       H        0.46370    0.60190    0.30630    1.000
    C5       C        0.57910    0.69470    0.38520    1.000
    H4       H        0.66640    0.67840    0.38110    1.000
    C6       C        0.19360    0.62210    0.29710    1.000
    C7       C        0.18750    0.59660    0.22810    1.000
    H5       H        0.26750    0.61030    0.21180    1.000
    C8       C        0.06240    0.55110    0.18460    1.000
    C9       C        0.94120    0.53060    0.20840    1.000
    H6       H        0.85810    0.49940    0.17900    1.000
    C10      C        0.94520    0.55660    0.27500    1.000
    H7       H        0.86440    0.54380    0.29100    1.000
    C11      C        0.07090    0.60230    0.31890    1.000
    H8       H        0.07210    0.61990    0.36400    1.000
    C12      C        0.05790    0.52550    0.11060    1.000
    C13      C        0.76440    0.10350    0.71090    1.000
    H9       H        0.86320    0.11860    0.72360    1.000
    C14      C        0.68100    0.15960    0.73690    1.000
    H10      H        0.72400    0.21050    0.76740    1.000
    C15      C        0.53140    0.13960    0.71710    1.000
    C16      C        0.47630    0.05990    0.67130    1.000
    H11      H        0.37810    0.04330    0.65580    1.000
    C17      C        0.56470    0.00800    0.65010    1.000
    H12      H        0.52470    0.95530    0.62150    1.000
    C18      C        0.43480    0.19760    0.74230    1.000
    C19      C        0.47560    0.25640    0.80250    1.000
    H13      H        0.56840    0.26440    0.82720    1.000
    C20      C        0.37820    0.30480    0.82730    1.000
    C21      C        0.24360    0.29630    0.78760    1.000
    H14      H        0.17940    0.32920    0.80320    1.000
    C22      C        0.20390    0.24060    0.72630    1.000
    H15      H        0.11380    0.23630    0.70000    1.000
    C23      C        0.29740    0.19070    0.70340    1.000
    H16      H        0.26960    0.15200    0.66180    1.000
    C24      C        0.41960    0.36750    0.89490    1.000
    C25      C        0.23880    0.77130    0.64350    1.000
    H17      H        0.26840    0.80990    0.62160    1.000
    C26      C        0.34100    0.73560    0.67450    1.000
    H18      H        0.43580    0.74790    0.67180    1.000
    C27      C        0.30110    0.68010    0.71060    1.000
    C28      C        0.15820    0.66190    0.70840    1.000
    H19      H        0.12430    0.62330    0.72930    1.000
    C29      C        0.06550    0.70140    0.67490    1.000
    H20      H        0.96970    0.68890    0.67580    1.000
    C30      C        0.41210    0.64340    0.74550    1.000
    C31      C        0.39490    0.62600    0.80650    1.000
    H21      H        0.31470    0.63760    0.82310    1.000
    C32      C        0.49630    0.59210    0.84080    1.000
    C33      C        0.62180    0.57710    0.81760    1.000
    H22      H        0.69280    0.55710    0.84210    1.000
    C34      C        0.63730    0.59210    0.75930    1.000
    H23      H        0.71830    0.58100    0.74330    1.000
    C35      C        0.53230    0.62410    0.72300    1.000
    H24      H        0.54420    0.63260    0.68260    1.000
    C36      C        0.47790    0.57440    0.90670    1.000
    Eu2      Eu       0.72387    0.48464    0.00184    1.000
    I5       I        0.23700    0.00970    0.49977    1.000
    I6       I        0.01052    0.22036    0.52835    1.000
    I7       I        0.91060    0.02127    0.32566    1.000
    I8       I        0.30228    0.20962    0.38593    1.000
    Cu5      Cu       0.98596    0.05722    0.45947    1.000
    Cu6      Cu       0.24459    0.17259    0.49723    1.000
    Cu7      Cu       0.17922    0.05327    0.37734    1.000
    Cu8      Cu       0.03729    0.18169    0.40008    1.000
    O7       O        0.82960    0.45560    0.90820    1.000
    O8       O        0.06000    0.51470    0.92800    1.000
    O9       O        0.45480    0.62460    0.07170    1.000
    O10      O        0.67360    0.59200    0.08720    1.000
    O11      O        0.64080    0.41700    0.07830    1.000
    O12      O        0.42330    0.44990    0.06120    1.000
    N4       N        0.42220    0.23830    0.56530    1.000
    N5       N        0.29210    0.97180    0.33190    1.000
    N6       N        0.90190    0.24530    0.35780    1.000
    C37      C        0.54740    0.21630    0.56290    1.000
    H25      H        0.55140    0.16890    0.53000    1.000
    C38      C        0.67240    0.25840    0.60580    1.000
    H26      H        0.75730    0.23900    0.60150    1.000
    C39      C        0.67370    0.32850    0.65470    1.000
    C40      C        0.54250    0.35190    0.66020    1.000
    H27      H        0.53630    0.39810    0.69370    1.000
    C41      C        0.42090    0.30530    0.61480    1.000
    H28      H        0.33360    0.32160    0.61890    1.000
    C42      C        0.80640    0.37790    0.70290    1.000
    C43      C        0.81250    0.40340    0.77190    1.000
    H29      H        0.73250    0.38970    0.78820    1.000
    C44      C        0.93760    0.44890    0.81540    1.000
    C45      C        0.05880    0.46940    0.79160    1.000
    H30      H        0.14190    0.50060    0.82100    1.000
    C46      C        0.05480    0.44340    0.72500    1.000
    H31      H        0.13560    0.45620    0.70900    1.000
    C47      C        0.92910    0.39770    0.68110    1.000
    H32      H        0.92790    0.38010    0.63600    1.000
    C48      C        0.94210    0.47450    0.88940    1.000
    C49      C        0.23560    0.89650    0.28910    1.000
    H33      H        0.13680    0.88140    0.27640    1.000
    C50      C        0.31900    0.84040    0.26310    1.000
    H34      H        0.27600    0.78950    0.23260    1.000
    C51      C        0.46860    0.86040    0.28290    1.000
    C52      C        0.52370    0.94010    0.32870    1.000
    H35      H        0.62190    0.95670    0.34420    1.000
    C53      C        0.43530    0.99200    0.34990    1.000
    H36      H        0.47530    0.04470    0.37850    1.000
    C54      C        0.56520    0.80240    0.25770    1.000
    C55      C        0.52440    0.74360    0.19750    1.000
    H37      H        0.43160    0.73560    0.17280    1.000
    C56      C        0.62180    0.69520    0.17270    1.000
    C57      C        0.75640    0.70370    0.21240    1.000
    H38      H        0.82060    0.67080    0.19680    1.000
    C58      C        0.79610    0.75940    0.27370    1.000
    H39      H        0.88620    0.76370    0.30000    1.000
    C59      C        0.70260    0.80930    0.29660    1.000
    H40      H        0.73040    0.84800    0.33820    1.000
    C60      C        0.58040    0.63250    0.10510    1.000
    C61      C        0.76120    0.22870    0.35650    1.000
    H41      H        0.73160    0.19010    0.37840    1.000
    C62      C        0.65900    0.26440    0.32550    1.000
    H42      H        0.56420    0.25210    0.32820    1.000
    C63      C        0.69890    0.31990    0.28940    1.000
    C64      C        0.84180    0.33810    0.29160    1.000
    H43      H        0.87570    0.37670    0.27070    1.000
    C65      C        0.93450    0.29860    0.32510    1.000
    H44      H        0.03030    0.31110    0.32420    1.000
    C66      C        0.58790    0.35660    0.25450    1.000
    C67      C        0.60510    0.37400    0.19350    1.000
    H45      H        0.68530    0.36240    0.17690    1.000
    C68      C        0.50370    0.40790    0.15920    1.000
    C69      C        0.37820    0.42290    0.18240    1.000
    H46      H        0.30720    0.44290    0.15790    1.000
    C70      C        0.36270    0.40790    0.24070    1.000
    H47      H        0.28170    0.41900    0.25670    1.000
    C71      C        0.46770    0.37590    0.27700    1.000
    H48      H        0.45580    0.36740    0.31740    1.000
    C72      C        0.52210    0.42560    0.09330    1.000
