data_functionalizedCrystal
_audit_creation_method	'EQeq! by Chris Wilmer'
_symmetry_space_group_name_H-M	'P1'
_symmetry_Int_Tables_number	1
_symmetry_cell_setting	triclinic
loop_
_symmetry_equiv_pos_as_xyz
  x,y,z
_cell_length_a	10.41
_cell_length_b	13.126
_cell_length_c	19.282
_cell_angle_alpha	86.692
_cell_angle_beta	78.256
_cell_angle_gamma	76.867
loop_
_atom_site_label
_atom_site_type_symbol
_atom_site_fract_x
_atom_site_fract_y
_atom_site_fract_z
_atom_site_charge
Mof_Ag	Ag	0.08914	0.18552	0.61685	0.689
Mof_Ag	Ag	0.28039	0.37187	0.14838	0.768
Mof_Ag	Ag	0.91086	0.81448	0.38315	0.674
Mof_Ag	Ag	0.71961	0.62813	0.85162	0.765
Mof_H 	H 	0.9945	0.2052	0.7817	0.128
Mof_H 	H 	0.3648	0.0786	0.6642	0.143
Mof_H 	H 	0.0792	0.61	0.7346	0.102
Mof_H 	H 	0.0107	0.6441	0.8643	0.116
Mof_H 	H 	0.9317	0.5008	0.924	0.082
Mof_H 	H 	0.7134	0.3999	0.9138	0.073
Mof_H 	H 	0.7016	0.168	0.0593	0.112
Mof_H 	H 	0.9049	0.0779	0.9993	0.043
Mof_H 	H 	0.0137	0.1474	0.8983	0.111
Mof_H 	H 	0.319	0.3297	0.6312	0.098
Mof_H 	H 	0.4277	0.3877	0.5252	0.046
Mof_H 	H 	0.3138	0.5258	0.4652	0.108
Mof_H 	H 	0.987	0.5437	0.6165	0.069
Mof_H 	H 	0.5766	0.2045	0.3892	0.122
Mof_H 	H 	0.7801	0.2318	0.4262	0.076
Mof_H 	H 	0.7629	0.2012	0.5557	0.061
Mof_H 	H 	0.5473	0.9588	0.7034	0.1
Mof_H 	H 	0.753	0.0434	0.8357	0.097
Mof_H 	H 	0.7509	0.2013	0.7763	0.036
Mof_H 	H 	0.6393	0.2402	0.6819	0.109
Mof_H 	H 	0.3378	0.2873	0.4061	0.116
Mof_H 	H 	0.2008	0.3039	0.3252	0.019
Mof_H 	H 	0.071	0.1829	0.3244	0.139
Mof_H 	H 	0.2211	0.0272	0.4865	0.082
Mof_H 	H 	0.0055	0.7948	0.2183	0.136
Mof_H 	H 	0.6352	0.9214	0.3358	0.143
Mof_H 	H 	0.9208	0.39	0.2654	0.111
Mof_H 	H 	0.9893	0.3559	0.1357	0.096
Mof_H 	H 	0.0683	0.4992	0.076	0.091
Mof_H 	H 	0.2866	0.6001	0.0862	0.07
Mof_H 	H 	0.2984	0.832	0.9407	0.108
Mof_H 	H 	0.0951	0.9221	0.0007	0.054
Mof_H 	H 	0.9863	0.8526	0.1017	0.09
Mof_H 	H 	0.681	0.6703	0.3688	0.103
Mof_H 	H 	0.5723	0.6123	0.4748	0.04
Mof_H 	H 	0.6862	0.4742	0.5348	0.114
Mof_H 	H 	0.013	0.4563	0.3835	0.09
Mof_H 	H 	0.4234	0.7955	0.6108	0.122
Mof_H 	H 	0.2199	0.7682	0.5738	0.077
Mof_H 	H 	0.2371	0.7988	0.4443	0.062
Mof_H 	H 	0.4527	0.0412	0.2966	0.101
Mof_H 	H 	0.247	0.9566	0.1643	0.099
Mof_H 	H 	0.2491	0.7987	0.2237	0.036
Mof_H 	H 	0.3607	0.7598	0.3181	0.11
Mof_H 	H 	0.6622	0.7127	0.5939	0.116
Mof_H 	H 	0.7992	0.6961	0.6748	0.019
Mof_H 	H 	0.929	0.8171	0.6756	0.135
Mof_H 	H 	0.7789	0.9728	0.5135	0.08
Mof_C 	C 	0.0271	0.4673	0.7608	0.011
Mof_C 	C 	0.0374	0.569	0.769	-0.012
Mof_C 	C 	0.9733	0.5992	0.8386	-0.082
Mof_C 	C 	0.922	0.5159	0.8748	-0.168
Mof_C 	C 	0.9573	0.4326	0.8265	0.033
Mof_C 	C 	0.9444	0.3306	0.8335	0.027
Mof_C 	C 	0.8764	0.2823	0.8974	0.069
Mof_C 	C 	0.7532	0.3359	0.9319	-0.1
Mof_C 	C 	0.6873	0.295	0.9939	0.04
Mof_C 	C 	0.5602	0.3495	0.0318	0.114
Mof_C 	C 	0.7453	0.1968	0.0186	-0.089
Mof_C 	C 	0.8661	0.1433	0.9828	0.062
Mof_C 	C 	0.9315	0.1851	0.9224	-0.127
Mof_C 	C 	0.0745	0.3975	0.7047	0.052
Mof_C 	C 	0.1421	0.4301	0.6344	0.052
Mof_C 	C 	0.2733	0.3847	0.6068	-0.089
Mof_C 	C 	0.3386	0.4192	0.5436	0.051
Mof_C 	C 	0.27	0.5013	0.5076	-0.097
Mof_C 	C 	0.1371	0.5471	0.5342	0.038
Mof_C 	C 	0.0677	0.631	0.4955	0.087
Mof_C 	C 	0.0756	0.5118	0.5977	-0.088
Mof_C 	C 	0.3783	0.1467	0.5093	0.011
Mof_C 	C 	0.5083	0.1687	0.4959	0.027
Mof_C 	C 	0.5934	0.1972	0.435	-0.069
Mof_C 	C 	0.7077	0.2122	0.4565	0.015
Mof_C 	C 	0.6998	0.1943	0.5294	-0.071
Mof_C 	C 	0.5772	0.1636	0.555	0.008
Mof_C 	C 	0.5195	0.1259	0.6199	0.042
Mof_C 	C 	0.5829	0.1032	0.682	0.069
Mof_C 	C 	0.588	0.0082	0.7175	-0.111
Mof_C 	C 	0.6533	0.9867	0.7737	0.05
Mof_C 	C 	0.6604	0.887	0.8078	0.103
Mof_C 	C 	0.7117	0.0586	0.7967	-0.099
Mof_C 	C 	0.7091	0.1528	0.762	0.052
Mof_C 	C 	0.643	0.1756	0.7049	-0.114
Mof_C 	C 	0.2938	0.1561	0.4556	0.072
Mof_C 	C 	0.286	0.2382	0.4061	-0.148
Mof_C 	C 	0.2043	0.2484	0.3575	0.085
Mof_C 	C 	0.1275	0.1761	0.3569	-0.151
Mof_C 	C 	0.1346	0.093	0.4047	0.063
Mof_C 	C 	0.0604	0.0128	0.4	0.09
Mof_C 	C 	0.2173	0.0829	0.4543	-0.141
Mof_C 	C 	0.522	0.4805	0.2745	0.934
Mof_C 	C 	0.9729	0.5327	0.2392	0.011
Mof_C 	C 	0.9626	0.431	0.231	-0.043
Mof_C 	C 	0.0267	0.4008	0.1614	-0.039
Mof_C 	C 	0.078	0.4841	0.1252	-0.186
Mof_C 	C 	0.0427	0.5674	0.1735	0.045
Mof_C 	C 	0.0556	0.6694	0.1665	0.035
Mof_C 	C 	0.1236	0.7177	0.1026	0.053
Mof_C 	C 	0.2468	0.6641	0.0681	-0.09
Mof_C 	C 	0.3127	0.705	0.0061	0.035
Mof_C 	C 	0.4398	0.6505	0.9682	0.115
Mof_C 	C 	0.2547	0.8032	0.9814	-0.078
Mof_C 	C 	0.1339	0.8567	0.0172	0.041
Mof_C 	C 	0.0685	0.8149	0.0776	-0.091
Mof_C 	C 	0.9255	0.6025	0.2953	0.042
Mof_C 	C 	0.8579	0.5699	0.3656	0.071
Mof_C 	C 	0.7267	0.6153	0.3932	-0.106
Mof_C 	C 	0.6614	0.5808	0.4564	0.067
Mof_C 	C 	0.73	0.4987	0.4924	-0.114
Mof_C 	C 	0.8629	0.4529	0.4658	0.056
Mof_C 	C 	0.9323	0.369	0.5045	0.076
Mof_C 	C 	0.9244	0.4882	0.4023	-0.126
Mof_C 	C 	0.6217	0.8533	0.4907	0.011
Mof_C 	C 	0.4917	0.8313	0.5041	0.026
Mof_C 	C 	0.4066	0.8028	0.565	-0.069
Mof_C 	C 	0.2923	0.7878	0.5435	0.015
Mof_C 	C 	0.3002	0.8057	0.4706	-0.071
Mof_C 	C 	0.4228	0.8364	0.445	0.008
Mof_C 	C 	0.4805	0.8741	0.3801	0.042
Mof_C 	C 	0.4171	0.8968	0.318	0.07
Mof_C 	C 	0.412	0.9918	0.2825	-0.113
Mof_C 	C 	0.3467	0.0133	0.2263	0.052
Mof_C 	C 	0.3396	0.113	0.1922	0.104
Mof_C 	C 	0.2883	0.9414	0.2033	-0.1
Mof_C 	C 	0.2909	0.8472	0.238	0.054
Mof_C 	C 	0.357	0.8244	0.2951	-0.115
Mof_C 	C 	0.7062	0.8439	0.5444	0.071
Mof_C 	C 	0.714	0.7618	0.5939	-0.148
Mof_C 	C 	0.7957	0.7516	0.6425	0.083
Mof_C 	C 	0.8725	0.8239	0.6431	-0.15
Mof_C 	C 	0.8654	0.907	0.5953	0.061
Mof_C 	C 	0.9396	0.9872	0.6	0.088
Mof_C 	C 	0.7827	0.9171	0.5457	-0.141
Mof_C 	C 	0.478	0.5195	0.7255	0.934
Mof_S 	S 	0.3416	0.5211	0.27144	0.384
Mof_S 	S 	0.6584	0.4789	0.72856	0.384
Mof_N 	N 	-2.40438e-17	0.2696	0.7766	-0.151
Mof_N 	N 	0.0642	0.2978	0.7116	-0.131
Mof_N 	N 	0.0118	0.696	0.4643	-0.178
Mof_N 	N 	0.4598	0.3908	0.0632	-0.183
Mof_N 	N 	0.3991	0.1036	0.6242	-0.167
Mof_N 	N 	0.3243	0.1158	0.5729	-0.123
Mof_N 	N 	0.0072	0.9497	0.3959	-0.178
Mof_N 	N 	0.667	0.8042	0.8321	-0.178
Mof_N 	N 	-1.99776e-17	0.7304	0.2234	-0.156
Mof_N 	N 	0.9358	0.7022	0.2884	-0.132
Mof_N 	N 	0.9882	0.304	0.5357	-0.181
Mof_N 	N 	0.5402	0.6092	0.9368	-0.184
Mof_N 	N 	0.6009	0.8964	0.3758	-0.167
Mof_N 	N 	0.6757	0.8842	0.4271	-0.123
Mof_N 	N 	0.9928	0.0503	0.6041	-0.183
Mof_N 	N 	0.333	0.1958	0.1679	-0.178
Mof_O 	O 	0.3434	0.5901	0.2132	-0.228
Mof_O 	O 	0.2799	0.5687	0.336	-0.223
Mof_O 	O 	0.3071	0.4279	0.2585	-0.292
Mof_O 	O 	0.6566	0.4099	0.7868	-0.228
Mof_O 	O 	0.7201	0.4313	0.664	-0.225
Mof_O 	O 	0.6929	0.5721	0.7415	-0.292
Mof_F 	F 	0.563	0.5603	0.2862	-0.536
Mof_F 	F 	0.5268	0.4184	0.3322	-0.491
Mof_F 	F 	0.5863	0.4318	0.2221	-0.53
Mof_F 	F 	0.437	0.4397	0.7138	-0.536
Mof_F 	F 	0.4732	0.5816	0.6678	-0.491
Mof_F 	F 	0.4137	0.5682	0.7779	-0.529
Mof_C 	C 	0.1471	0.8582	0.7822	0.853
Mof_S 	S 	0.1698	0.98461	0.78766	0.283
Mof_O 	O 	0.1827	0.9852	0.8629	-0.173
Mof_O 	O 	0.0499	0.0493	0.7696	-0.209
Mof_O 	O 	0.285	0.9899	0.737	-0.201
Mof_F 	F 	0.1397	0.842	0.7137	-0.478
Mof_F 	F 	0.0339	0.8473	0.8196	-0.511
Mof_F 	F 	0.2379	0.7873	0.8014	-0.481
Mof_C 	C 	0.8529	0.1418	0.2178	0.852
Mof_S 	S 	0.8302	0.01539	0.21234	0.284
Mof_O 	O 	0.8173	0.0148	0.1371	-0.174
Mof_O 	O 	0.9501	0.9507	0.2304	-0.215
Mof_O 	O 	0.715	0.0101	0.263	-0.201
Mof_F 	F 	0.8603	0.158	0.2863	-0.481
Mof_F 	F 	0.9661	0.1527	0.1804	-0.515
Mof_F 	F 	0.7621	0.2127	0.1986	-0.481
_end
