# CIF file generated by openbabel 3.1.0, see https://openbabel.org
data_I
_chemical_name_common 'image0'
_cell_length_a 26.939
_cell_length_b 12.335
_cell_length_c 33.458
_cell_angle_alpha 90
_cell_angle_beta 90
_cell_angle_gamma 90
_space_group_name_H-M_alt 'P 1'
_space_group_name_Hall 'P 1'
loop_
    _symmetry_equiv_pos_as_xyz
    x,y,z
loop_
    _atom_site_label
    _atom_site_type_symbol
    _atom_site_fract_x
    _atom_site_fract_y
    _atom_site_fract_z
    _atom_site_occupancy
    Ag1      Ag       0.77889    0.26124    0.63987    1.000
    Fe1      Fe       0.43123    0.47744    0.61377    1.000
    C1       C        0.48830    0.66490    0.64419    1.000
    H1       H        0.46000    0.71070    0.64400    1.000
    C2       C        0.53540    0.69760    0.65820    1.000
    H2       H        0.54410    0.76610    0.66910    1.000
    C3       C        0.56520    0.61190    0.65300    1.000
    H3       H        0.59960    0.60910    0.65920    1.000
    C4       C        0.53670    0.52600    0.63676    1.000
    C5       C        0.55250    0.42100    0.62579    1.000
    C6       C        0.52390    0.34300    0.60873    1.000
    C7       C        0.53910    0.23690    0.59610    1.000
    H4       H        0.57150    0.20690    0.59790    1.000
    C8       C        0.49700    0.18670    0.58080    1.000
    H5       H        0.49480    0.11530    0.57030    1.000
    C9       C        0.45910    0.26130    0.58390    1.000
    H6       H        0.42620    0.24710    0.57510    1.000
    C10      C        0.60580    0.39480    0.63340    1.000
    C11      C        0.61920    0.31760    0.66072    1.000
    H7       H        0.59470    0.28220    0.67640    1.000
    C12      C        0.66780    0.29190    0.66528    1.000
    H8       H        0.67620    0.23840    0.68460    1.000
    C13      C        0.69130    0.41580    0.61900    1.000
    H9       H        0.71690    0.45250    0.60500    1.000
    C14      C        0.64410    0.44690    0.61190    1.000
    H10      H        0.63680    0.50220    0.59300    1.000
    C15      C        0.97080    0.89810    0.45432    1.000
    H11      H        0.99330    0.85900    0.43790    1.000
    C16      C        0.96610    0.88520    0.49590    1.000
    H12      H        0.98420    0.83580    0.51210    1.000
    C17      C        0.93180    0.95470    0.50850    1.000
    H13      H        0.92130    0.96550    0.53530    1.000
    C18      C        0.91390    0.00910    0.47450    1.000
    C19      C        0.87330    0.08630    0.47210    1.000
    C20      C        0.85380    0.12550    0.43770    1.000
    C21      C        0.81150    0.19670    0.43370    1.000
    H14      H        0.79240    0.22740    0.45480    1.000
    C22      C        0.80440    0.21110    0.39380    1.000
    H15      H        0.77870    0.25150    0.38140    1.000
    C23      C        0.84310    0.15370    0.37430    1.000
    H16      H        0.84780    0.15180    0.34620    1.000
    C24      C        0.85150    0.12030    0.51064    1.000
    C25      C        0.88070    0.18760    0.53750    1.000
    H17      H        0.91420    0.20540    0.53140    1.000
    C26      C        0.85880    0.22500    0.57220    1.000
    H18      H        0.87830    0.26690    0.59010    1.000
    C27      C        0.78570    0.13760    0.55750    1.000
    H19      H        0.75300    0.11790    0.56510    1.000
    C28      C        0.80412    0.09600    0.52260    1.000
    H20      H        0.78400    0.05000    0.50660    1.000
    C29      C        0.86830    0.16750    0.90100    1.000
    H21      H        0.87540    0.16590    0.92880    1.000
    C30      C        0.83700    0.24310    0.88280    1.000
    H22      H        0.81870    0.29950    0.89530    1.000
    C31      C        0.83850    0.21800    0.84260    1.000
    H23      H        0.82080    0.25390    0.82190    1.000
    C32      C        0.87110    0.12940    0.83780    1.000
    C33      C        0.88130    0.07390    0.80230    1.000
    C34      C        0.90800    0.98010    0.79920    1.000
    C35      C        0.91610    0.91840    0.76360    1.000
    H24      H        0.90530    0.93590    0.73730    1.000
    C36      C        0.94270    0.82840    0.77510    1.000
    H25      H        0.95520    0.77290    0.75820    1.000
    C37      C        0.94790    0.83470    0.81670    1.000
    H26      H        0.96410    0.78130    0.83250    1.000
    C38      C        0.85850    0.12090    0.76450    1.000
    C39      C        0.82150    0.05960    0.74360    1.000
    H27      H        0.81140    0.99020    0.75280    1.000
    C40      C        0.80110    0.10450    0.70960    1.000
    H28      H        0.77560    0.06610    0.69600    1.000
    C41      C        0.85010    0.25830    0.71480    1.000
    H29      H        0.85930    0.32690    0.70420    1.000
    C42      C        0.87250    0.22110    0.75020    1.000
    H30      H        0.89660    0.26360    0.76380    1.000
    N1       N        0.48802    0.56300    0.63123    1.000
    N2       N        0.47287    0.35570    0.60028    1.000
    N3       N        0.70480    0.33720    0.64432    1.000
    N4       N        0.93912    0.97350    0.44143    1.000
    N5       N        0.87147    0.10370    0.40012    1.000
    N6       N        0.81114    0.20500    0.58192    1.000
    N7       N        0.88714    0.09720    0.87432    1.000
    N8       N        0.92802    0.92140    0.83121    1.000
    N9       N        0.81540    0.19740    0.69556    1.000
    Co1      Co       0.93123    0.02256    0.38623    1.000
    Ag2      Ag       0.27889    0.23876    0.36013    1.000
    C43      C        0.98830    0.83510    0.35581    1.000
    H31      H        0.96000    0.78930    0.35600    1.000
    C44      C        0.03540    0.80240    0.34180    1.000
    H32      H        0.04410    0.73390    0.33090    1.000
    C45      C        0.06520    0.88810    0.34700    1.000
    H33      H        0.09960    0.89090    0.34080    1.000
    C46      C        0.03670    0.97400    0.36324    1.000
    C47      C        0.05250    0.07900    0.37421    1.000
    C48      C        0.02390    0.15700    0.39127    1.000
    C49      C        0.03910    0.26310    0.40390    1.000
    H34      H        0.07150    0.29310    0.40210    1.000
    C50      C        0.99700    0.31330    0.41920    1.000
    H35      H        0.99480    0.38470    0.42970    1.000
    C51      C        0.95910    0.23870    0.41610    1.000
    H36      H        0.92620    0.25290    0.42490    1.000
    C52      C        0.10580    0.10520    0.36660    1.000
    C53      C        0.11920    0.18240    0.33928    1.000
    H37      H        0.09470    0.21780    0.32360    1.000
    C54      C        0.16780    0.20810    0.33472    1.000
    H38      H        0.17620    0.26160    0.31540    1.000
    C55      C        0.19130    0.08420    0.38100    1.000
    H39      H        0.21690    0.04750    0.39500    1.000
    C56      C        0.14410    0.05310    0.38810    1.000
    H40      H        0.13680    0.99780    0.40700    1.000
    C57      C        0.47080    0.60190    0.54568    1.000
    H41      H        0.49330    0.64100    0.56210    1.000
    C58      C        0.46610    0.61480    0.50410    1.000
    H42      H        0.48420    0.66420    0.48790    1.000
    C59      C        0.43180    0.54530    0.49150    1.000
    H43      H        0.42130    0.53450    0.46470    1.000
    C60      C        0.41390    0.49090    0.52550    1.000
    C61      C        0.37330    0.41370    0.52790    1.000
    C62      C        0.35380    0.37450    0.56230    1.000
    C63      C        0.31150    0.30330    0.56630    1.000
    H44      H        0.29240    0.27260    0.54520    1.000
    C64      C        0.30440    0.28890    0.60620    1.000
    H45      H        0.27870    0.24850    0.61860    1.000
    C65      C        0.34310    0.34630    0.62570    1.000
    H46      H        0.34780    0.34820    0.65380    1.000
    C66      C        0.35150    0.37970    0.48936    1.000
    C67      C        0.38070    0.31240    0.46250    1.000
    H47      H        0.41420    0.29460    0.46860    1.000
    C68      C        0.35880    0.27500    0.42780    1.000
    H48      H        0.37830    0.23310    0.40990    1.000
    C69      C        0.28570    0.36240    0.44250    1.000
    H49      H        0.25300    0.38210    0.43490    1.000
    C70      C        0.30412    0.40400    0.47740    1.000
    H50      H        0.28400    0.45000    0.49340    1.000
    C71      C        0.36830    0.33250    0.09900    1.000
    H51      H        0.37540    0.33410    0.07120    1.000
    C72      C        0.33700    0.25690    0.11720    1.000
    H52      H        0.31870    0.20050    0.10470    1.000
    C73      C        0.33850    0.28200    0.15740    1.000
    H53      H        0.32080    0.24610    0.17810    1.000
    C74      C        0.37110    0.37060    0.16220    1.000
    C75      C        0.38130    0.42610    0.19770    1.000
    C76      C        0.40800    0.51990    0.20080    1.000
    C77      C        0.41610    0.58160    0.23640    1.000
    H54      H        0.40530    0.56410    0.26270    1.000
    C78      C        0.44270    0.67160    0.22490    1.000
    H55      H        0.45520    0.72710    0.24180    1.000
    C79      C        0.44790    0.66530    0.18330    1.000
    H56      H        0.46410    0.71870    0.16750    1.000
    C80      C        0.35850    0.37910    0.23550    1.000
    C81      C        0.32150    0.44040    0.25640    1.000
    H57      H        0.31140    0.50980    0.24720    1.000
    C82      C        0.30110    0.39550    0.29040    1.000
    H58      H        0.27560    0.43390    0.30400    1.000
    C83      C        0.35010    0.24170    0.28520    1.000
    H59      H        0.35930    0.17310    0.29580    1.000
    C84      C        0.37250    0.27890    0.24980    1.000
    H60      H        0.39660    0.23640    0.23620    1.000
    N10      N        0.98802    0.93700    0.36877    1.000
    N11      N        0.97287    0.14430    0.39972    1.000
    N12      N        0.20480    0.16280    0.35568    1.000
    N13      N        0.43912    0.52650    0.55857    1.000
    N14      N        0.37147    0.39630    0.59988    1.000
    N15      N        0.31114    0.29500    0.41808    1.000
    N16      N        0.38714    0.40280    0.12568    1.000
    N17      N        0.42802    0.57860    0.16879    1.000
    N18      N        0.31540    0.30260    0.30444    1.000
    Ag3      Ag       0.27889    0.76124    0.86013    1.000
    Fe2      Fe       0.93123    0.97744    0.88623    1.000
    C85      C        0.98830    0.16490    0.85581    1.000
    H61      H        0.96000    0.21070    0.85600    1.000
    C86      C        0.03540    0.19760    0.84180    1.000
    H62      H        0.04410    0.26610    0.83090    1.000
    C87      C        0.06520    0.11190    0.84700    1.000
    H63      H        0.09960    0.10910    0.84080    1.000
    C88      C        0.03670    0.02600    0.86324    1.000
    C89      C        0.05250    0.92100    0.87421    1.000
    C90      C        0.02390    0.84300    0.89127    1.000
    C91      C        0.03910    0.73690    0.90390    1.000
    H64      H        0.07150    0.70690    0.90210    1.000
    C92      C        0.99700    0.68670    0.91920    1.000
    H65      H        0.99480    0.61530    0.92970    1.000
    C93      C        0.95910    0.76130    0.91610    1.000
    H66      H        0.92620    0.74710    0.92490    1.000
    C94      C        0.10580    0.89480    0.86660    1.000
    C95      C        0.11920    0.81760    0.83928    1.000
    H67      H        0.09470    0.78220    0.82360    1.000
    C96      C        0.16780    0.79190    0.83472    1.000
    H68      H        0.17620    0.73840    0.81540    1.000
    C97      C        0.19130    0.91580    0.88100    1.000
    H69      H        0.21690    0.95250    0.89500    1.000
    C98      C        0.14410    0.94690    0.88810    1.000
    H70      H        0.13680    0.00220    0.90700    1.000
    C99      C        0.47080    0.39810    0.04568    1.000
    H71      H        0.49330    0.35900    0.06210    1.000
    C100     C        0.46610    0.38520    0.00410    1.000
    H72      H        0.48420    0.33580    0.98790    1.000
    C101     C        0.43180    0.45470    0.99150    1.000
    H73      H        0.42130    0.46550    0.96470    1.000
    C102     C        0.41390    0.50910    0.02550    1.000
    C103     C        0.37330    0.58630    0.02790    1.000
    C104     C        0.35380    0.62550    0.06230    1.000
    C105     C        0.31150    0.69670    0.06630    1.000
    H74      H        0.29240    0.72740    0.04520    1.000
    C106     C        0.30440    0.71110    0.10620    1.000
    H75      H        0.27870    0.75150    0.11860    1.000
    C107     C        0.34310    0.65370    0.12570    1.000
    H76      H        0.34780    0.65180    0.15380    1.000
    C108     C        0.35150    0.62030    0.98936    1.000
    C109     C        0.38070    0.68760    0.96250    1.000
    H77      H        0.41420    0.70540    0.96860    1.000
    C110     C        0.35880    0.72500    0.92780    1.000
    H78      H        0.37830    0.76690    0.90990    1.000
    C111     C        0.28570    0.63760    0.94250    1.000
    H79      H        0.25300    0.61790    0.93490    1.000
    C112     C        0.30412    0.59600    0.97740    1.000
    H80      H        0.28400    0.55000    0.99340    1.000
    C113     C        0.36830    0.66750    0.59900    1.000
    H81      H        0.37540    0.66590    0.57120    1.000
    C114     C        0.33700    0.74310    0.61720    1.000
    H82      H        0.31870    0.79950    0.60470    1.000
    C115     C        0.33850    0.71800    0.65740    1.000
    H83      H        0.32080    0.75390    0.67810    1.000
    C116     C        0.37110    0.62940    0.66220    1.000
    C117     C        0.38130    0.57390    0.69770    1.000
    C118     C        0.40800    0.48010    0.70080    1.000
    C119     C        0.41610    0.41840    0.73640    1.000
    H84      H        0.40530    0.43590    0.76270    1.000
    C120     C        0.44270    0.32840    0.72490    1.000
    H85      H        0.45520    0.27290    0.74180    1.000
    C121     C        0.44790    0.33470    0.68330    1.000
    H86      H        0.46410    0.28130    0.66750    1.000
    C122     C        0.35850    0.62090    0.73550    1.000
    C123     C        0.32150    0.55960    0.75640    1.000
    H87      H        0.31140    0.49020    0.74720    1.000
    C124     C        0.30110    0.60450    0.79040    1.000
    H88      H        0.27560    0.56610    0.80400    1.000
    C125     C        0.35010    0.75830    0.78520    1.000
    H89      H        0.35930    0.82690    0.79580    1.000
    C126     C        0.37250    0.72110    0.74980    1.000
    H90      H        0.39660    0.76360    0.73620    1.000
    N19      N        0.98802    0.06300    0.86877    1.000
    N20      N        0.97287    0.85570    0.89972    1.000
    N21      N        0.20480    0.83720    0.85568    1.000
    N22      N        0.43912    0.47350    0.05857    1.000
    N23      N        0.37147    0.60370    0.09988    1.000
    N24      N        0.31114    0.70500    0.91808    1.000
    N25      N        0.38714    0.59720    0.62568    1.000
    N26      N        0.42802    0.42140    0.66879    1.000
    N27      N        0.31540    0.69740    0.80444    1.000
    Co2      Co       0.43123    0.52256    0.11377    1.000
    Ag4      Ag       0.77889    0.73876    0.13987    1.000
    C127     C        0.48830    0.33510    0.14419    1.000
    H91      H        0.46000    0.28930    0.14400    1.000
    C128     C        0.53540    0.30240    0.15820    1.000
    H92      H        0.54410    0.23390    0.16910    1.000
    C129     C        0.56520    0.38810    0.15300    1.000
    H93      H        0.59960    0.39090    0.15920    1.000
    C130     C        0.53670    0.47400    0.13676    1.000
    C131     C        0.55250    0.57900    0.12579    1.000
    C132     C        0.52390    0.65700    0.10873    1.000
    C133     C        0.53910    0.76310    0.09610    1.000
    H94      H        0.57150    0.79310    0.09790    1.000
    C134     C        0.49700    0.81330    0.08080    1.000
    H95      H        0.49480    0.88470    0.07030    1.000
    C135     C        0.45910    0.73870    0.08390    1.000
    H96      H        0.42620    0.75290    0.07510    1.000
    C136     C        0.60580    0.60520    0.13340    1.000
    C137     C        0.61920    0.68240    0.16072    1.000
    H97      H        0.59470    0.71780    0.17640    1.000
    C138     C        0.66780    0.70810    0.16528    1.000
    H98      H        0.67620    0.76160    0.18460    1.000
    C139     C        0.69130    0.58420    0.11900    1.000
    H99      H        0.71690    0.54750    0.10500    1.000
    C140     C        0.64410    0.55310    0.11190    1.000
    H100     H        0.63680    0.49780    0.09300    1.000
    C141     C        0.97080    0.10190    0.95432    1.000
    H101     H        0.99330    0.14100    0.93790    1.000
    C142     C        0.96610    0.11480    0.99590    1.000
    H102     H        0.98420    0.16420    0.01210    1.000
    C143     C        0.93180    0.04530    0.00850    1.000
    H103     H        0.92130    0.03450    0.03530    1.000
    C144     C        0.91390    0.99090    0.97450    1.000
    C145     C        0.87330    0.91370    0.97210    1.000
    C146     C        0.85380    0.87450    0.93770    1.000
    C147     C        0.81150    0.80330    0.93370    1.000
    H104     H        0.79240    0.77260    0.95480    1.000
    C148     C        0.80440    0.78890    0.89380    1.000
    H105     H        0.77870    0.74850    0.88140    1.000
    C149     C        0.84310    0.84630    0.87430    1.000
    H106     H        0.84780    0.84820    0.84620    1.000
    C150     C        0.85150    0.87970    0.01064    1.000
    C151     C        0.88070    0.81240    0.03750    1.000
    H107     H        0.91420    0.79460    0.03140    1.000
    C152     C        0.85880    0.77500    0.07220    1.000
    H108     H        0.87830    0.73310    0.09010    1.000
    C153     C        0.78570    0.86240    0.05750    1.000
    H109     H        0.75300    0.88210    0.06510    1.000
    C154     C        0.80412    0.90400    0.02260    1.000
    H110     H        0.78400    0.95000    0.00660    1.000
    C155     C        0.86830    0.83250    0.40100    1.000
    H111     H        0.87540    0.83410    0.42880    1.000
    C156     C        0.83700    0.75690    0.38280    1.000
    H112     H        0.81870    0.70050    0.39530    1.000
    C157     C        0.83850    0.78200    0.34260    1.000
    H113     H        0.82080    0.74610    0.32190    1.000
    C158     C        0.87110    0.87060    0.33780    1.000
    C159     C        0.88130    0.92610    0.30230    1.000
    C160     C        0.90800    0.01990    0.29920    1.000
    C161     C        0.91610    0.08160    0.26360    1.000
    H114     H        0.90530    0.06410    0.23730    1.000
    C162     C        0.94270    0.17160    0.27510    1.000
    H115     H        0.95520    0.22710    0.25820    1.000
    C163     C        0.94790    0.16530    0.31670    1.000
    H116     H        0.96410    0.21870    0.33250    1.000
    C164     C        0.85850    0.87910    0.26450    1.000
    C165     C        0.82150    0.94040    0.24360    1.000
    H117     H        0.81140    0.00980    0.25280    1.000
    C166     C        0.80110    0.89550    0.20960    1.000
    H118     H        0.77560    0.93390    0.19600    1.000
    C167     C        0.85010    0.74170    0.21480    1.000
    H119     H        0.85930    0.67310    0.20420    1.000
    C168     C        0.87250    0.77890    0.25020    1.000
    H120     H        0.89660    0.73640    0.26380    1.000
    N28      N        0.48802    0.43700    0.13123    1.000
    N29      N        0.47287    0.64430    0.10028    1.000
    N30      N        0.70480    0.66280    0.14432    1.000
    N31      N        0.93912    0.02650    0.94143    1.000
    N32      N        0.87147    0.89630    0.90012    1.000
    N33      N        0.81114    0.79500    0.08192    1.000
    N34      N        0.88714    0.90280    0.37432    1.000
    N35      N        0.92802    0.07860    0.33121    1.000
    N36      N        0.81540    0.80260    0.19556    1.000
    Ag5      Ag       0.72111    0.23876    0.13987    1.000
    Fe3      Fe       0.06877    0.02256    0.11377    1.000
    C169     C        0.01170    0.83510    0.14419    1.000
    H121     H        0.04000    0.78930    0.14400    1.000
    C170     C        0.96460    0.80240    0.15820    1.000
    H122     H        0.95590    0.73390    0.16910    1.000
    C171     C        0.93480    0.88810    0.15300    1.000
    H123     H        0.90040    0.89090    0.15920    1.000
    C172     C        0.96330    0.97400    0.13676    1.000
    C173     C        0.94750    0.07900    0.12579    1.000
    C174     C        0.97610    0.15700    0.10873    1.000
    C175     C        0.96090    0.26310    0.09610    1.000
    H124     H        0.92850    0.29310    0.09790    1.000
    C176     C        0.00300    0.31330    0.08080    1.000
    H125     H        0.00520    0.38470    0.07030    1.000
    C177     C        0.04090    0.23870    0.08390    1.000
    H126     H        0.07380    0.25290    0.07510    1.000
    C178     C        0.89420    0.10520    0.13340    1.000
    C179     C        0.88080    0.18240    0.16072    1.000
    H127     H        0.90530    0.21780    0.17640    1.000
    C180     C        0.83220    0.20810    0.16528    1.000
    H128     H        0.82380    0.26160    0.18460    1.000
    C181     C        0.80870    0.08420    0.11900    1.000
    H129     H        0.78310    0.04750    0.10500    1.000
    C182     C        0.85590    0.05310    0.11190    1.000
    H130     H        0.86320    0.99780    0.09300    1.000
    C183     C        0.52920    0.60190    0.95432    1.000
    H131     H        0.50670    0.64100    0.93790    1.000
    C184     C        0.53390    0.61480    0.99590    1.000
    H132     H        0.51580    0.66420    0.01210    1.000
    C185     C        0.56820    0.54530    0.00850    1.000
    H133     H        0.57870    0.53450    0.03530    1.000
    C186     C        0.58610    0.49090    0.97450    1.000
    C187     C        0.62670    0.41370    0.97210    1.000
    C188     C        0.64620    0.37450    0.93770    1.000
    C189     C        0.68850    0.30330    0.93370    1.000
    H134     H        0.70760    0.27260    0.95480    1.000
    C190     C        0.69560    0.28890    0.89380    1.000
    H135     H        0.72130    0.24850    0.88140    1.000
    C191     C        0.65690    0.34630    0.87430    1.000
    H136     H        0.65220    0.34820    0.84620    1.000
    C192     C        0.64850    0.37970    0.01064    1.000
    C193     C        0.61930    0.31240    0.03750    1.000
    H137     H        0.58580    0.29460    0.03140    1.000
    C194     C        0.64120    0.27500    0.07220    1.000
    H138     H        0.62170    0.23310    0.09010    1.000
    C195     C        0.71430    0.36240    0.05750    1.000
    H139     H        0.74700    0.38210    0.06510    1.000
    C196     C        0.69588    0.40400    0.02260    1.000
    H140     H        0.71600    0.45000    0.00660    1.000
    C197     C        0.63170    0.33250    0.40100    1.000
    H141     H        0.62460    0.33410    0.42880    1.000
    C198     C        0.66300    0.25690    0.38280    1.000
    H142     H        0.68130    0.20050    0.39530    1.000
    C199     C        0.66150    0.28200    0.34260    1.000
    H143     H        0.67920    0.24610    0.32190    1.000
    C200     C        0.62890    0.37060    0.33780    1.000
    C201     C        0.61870    0.42610    0.30230    1.000
    C202     C        0.59200    0.51990    0.29920    1.000
    C203     C        0.58390    0.58160    0.26360    1.000
    H144     H        0.59470    0.56410    0.23730    1.000
    C204     C        0.55730    0.67160    0.27510    1.000
    H145     H        0.54480    0.72710    0.25820    1.000
    C205     C        0.55210    0.66530    0.31670    1.000
    H146     H        0.53590    0.71870    0.33250    1.000
    C206     C        0.64150    0.37910    0.26450    1.000
    C207     C        0.67850    0.44040    0.24360    1.000
    H147     H        0.68860    0.50980    0.25280    1.000
    C208     C        0.69890    0.39550    0.20960    1.000
    H148     H        0.72440    0.43390    0.19600    1.000
    C209     C        0.64990    0.24170    0.21480    1.000
    H149     H        0.64070    0.17310    0.20420    1.000
    C210     C        0.62750    0.27890    0.25020    1.000
    H150     H        0.60340    0.23640    0.26380    1.000
    N37      N        0.01198    0.93700    0.13123    1.000
    N38      N        0.02713    0.14430    0.10028    1.000
    N39      N        0.79520    0.16280    0.14432    1.000
    N40      N        0.56088    0.52650    0.94143    1.000
    N41      N        0.62853    0.39630    0.90012    1.000
    N42      N        0.68886    0.29500    0.08192    1.000
    N43      N        0.61286    0.40280    0.37432    1.000
    N44      N        0.57198    0.57860    0.33121    1.000
    N45      N        0.68460    0.30260    0.19556    1.000
    Co3      Co       0.56877    0.47744    0.88623    1.000
    Ag6      Ag       0.22111    0.26124    0.86013    1.000
    C211     C        0.51170    0.66490    0.85581    1.000
    H151     H        0.54000    0.71070    0.85600    1.000
    C212     C        0.46460    0.69760    0.84180    1.000
    H152     H        0.45590    0.76610    0.83090    1.000
    C213     C        0.43480    0.61190    0.84700    1.000
    H153     H        0.40040    0.60910    0.84080    1.000
    C214     C        0.46330    0.52600    0.86324    1.000
    C215     C        0.44750    0.42100    0.87421    1.000
    C216     C        0.47610    0.34300    0.89127    1.000
    C217     C        0.46090    0.23690    0.90390    1.000
    H154     H        0.42850    0.20690    0.90210    1.000
    C218     C        0.50300    0.18670    0.91920    1.000
    H155     H        0.50520    0.11530    0.92970    1.000
    C219     C        0.54090    0.26130    0.91610    1.000
    H156     H        0.57380    0.24710    0.92490    1.000
    C220     C        0.39420    0.39480    0.86660    1.000
    C221     C        0.38080    0.31760    0.83928    1.000
    H157     H        0.40530    0.28220    0.82360    1.000
    C222     C        0.33220    0.29190    0.83472    1.000
    H158     H        0.32380    0.23840    0.81540    1.000
    C223     C        0.30870    0.41580    0.88100    1.000
    H159     H        0.28310    0.45250    0.89500    1.000
    C224     C        0.35590    0.44690    0.88810    1.000
    H160     H        0.36320    0.50220    0.90700    1.000
    C225     C        0.02920    0.89810    0.04568    1.000
    H161     H        0.00670    0.85900    0.06210    1.000
    C226     C        0.03390    0.88520    0.00410    1.000
    H162     H        0.01580    0.83580    0.98790    1.000
    C227     C        0.06820    0.95470    0.99150    1.000
    H163     H        0.07870    0.96550    0.96470    1.000
    C228     C        0.08610    0.00910    0.02550    1.000
    C229     C        0.12670    0.08630    0.02790    1.000
    C230     C        0.14620    0.12550    0.06230    1.000
    C231     C        0.18850    0.19670    0.06630    1.000
    H164     H        0.20760    0.22740    0.04520    1.000
    C232     C        0.19560    0.21110    0.10620    1.000
    H165     H        0.22130    0.25150    0.11860    1.000
    C233     C        0.15690    0.15370    0.12570    1.000
    H166     H        0.15220    0.15180    0.15380    1.000
    C234     C        0.14850    0.12030    0.98936    1.000
    C235     C        0.11930    0.18760    0.96250    1.000
    H167     H        0.08580    0.20540    0.96860    1.000
    C236     C        0.14120    0.22500    0.92780    1.000
    H168     H        0.12170    0.26690    0.90990    1.000
    C237     C        0.21430    0.13760    0.94250    1.000
    H169     H        0.24700    0.11790    0.93490    1.000
    C238     C        0.19588    0.09600    0.97740    1.000
    H170     H        0.21600    0.05000    0.99340    1.000
    C239     C        0.13170    0.16750    0.59900    1.000
    H171     H        0.12460    0.16590    0.57120    1.000
    C240     C        0.16300    0.24310    0.61720    1.000
    H172     H        0.18130    0.29950    0.60470    1.000
    C241     C        0.16150    0.21800    0.65740    1.000
    H173     H        0.17920    0.25390    0.67810    1.000
    C242     C        0.12890    0.12940    0.66220    1.000
    C243     C        0.11870    0.07390    0.69770    1.000
    C244     C        0.09200    0.98010    0.70080    1.000
    C245     C        0.08390    0.91840    0.73640    1.000
    H174     H        0.09470    0.93590    0.76270    1.000
    C246     C        0.05730    0.82840    0.72490    1.000
    H175     H        0.04480    0.77290    0.74180    1.000
    C247     C        0.05210    0.83470    0.68330    1.000
    H176     H        0.03590    0.78130    0.66750    1.000
    C248     C        0.14150    0.12090    0.73550    1.000
    C249     C        0.17850    0.05960    0.75640    1.000
    H177     H        0.18860    0.99020    0.74720    1.000
    C250     C        0.19890    0.10450    0.79040    1.000
    H178     H        0.22440    0.06610    0.80400    1.000
    C251     C        0.14990    0.25830    0.78520    1.000
    H179     H        0.14070    0.32690    0.79580    1.000
    C252     C        0.12750    0.22110    0.74980    1.000
    H180     H        0.10340    0.26360    0.73620    1.000
    N46      N        0.51198    0.56300    0.86877    1.000
    N47      N        0.52713    0.35570    0.89972    1.000
    N48      N        0.29520    0.33720    0.85568    1.000
    N49      N        0.06088    0.97350    0.05857    1.000
    N50      N        0.12853    0.10370    0.09988    1.000
    N51      N        0.18886    0.20500    0.91808    1.000
    N52      N        0.11286    0.09720    0.62568    1.000
    N53      N        0.07198    0.92140    0.66879    1.000
    N54      N        0.18460    0.19740    0.80444    1.000
    Ag7      Ag       0.22111    0.73876    0.36013    1.000
    Fe4      Fe       0.56877    0.52256    0.38623    1.000
    C253     C        0.51170    0.33510    0.35581    1.000
    H181     H        0.54000    0.28930    0.35600    1.000
    C254     C        0.46460    0.30240    0.34180    1.000
    H182     H        0.45590    0.23390    0.33090    1.000
    C255     C        0.43480    0.38810    0.34700    1.000
    H183     H        0.40040    0.39090    0.34080    1.000
    C256     C        0.46330    0.47400    0.36324    1.000
    C257     C        0.44750    0.57900    0.37421    1.000
    C258     C        0.47610    0.65700    0.39127    1.000
    C259     C        0.46090    0.76310    0.40390    1.000
    H184     H        0.42850    0.79310    0.40210    1.000
    C260     C        0.50300    0.81330    0.41920    1.000
    H185     H        0.50520    0.88470    0.42970    1.000
    C261     C        0.54090    0.73870    0.41610    1.000
    H186     H        0.57380    0.75290    0.42490    1.000
    C262     C        0.39420    0.60520    0.36660    1.000
    C263     C        0.38080    0.68240    0.33928    1.000
    H187     H        0.40530    0.71780    0.32360    1.000
    C264     C        0.33220    0.70810    0.33472    1.000
    H188     H        0.32380    0.76160    0.31540    1.000
    C265     C        0.30870    0.58420    0.38100    1.000
    H189     H        0.28310    0.54750    0.39500    1.000
    C266     C        0.35590    0.55310    0.38810    1.000
    H190     H        0.36320    0.49780    0.40700    1.000
    C267     C        0.02920    0.10190    0.54568    1.000
    H191     H        0.00670    0.14100    0.56210    1.000
    C268     C        0.03390    0.11480    0.50410    1.000
    H192     H        0.01580    0.16420    0.48790    1.000
    C269     C        0.06820    0.04530    0.49150    1.000
    H193     H        0.07870    0.03450    0.46470    1.000
    C270     C        0.08610    0.99090    0.52550    1.000
    C271     C        0.12670    0.91370    0.52790    1.000
    C272     C        0.14620    0.87450    0.56230    1.000
    C273     C        0.18850    0.80330    0.56630    1.000
    H194     H        0.20760    0.77260    0.54520    1.000
    C274     C        0.19560    0.78890    0.60620    1.000
    H195     H        0.22130    0.74850    0.61860    1.000
    C275     C        0.15690    0.84630    0.62570    1.000
    H196     H        0.15220    0.84820    0.65380    1.000
    C276     C        0.14850    0.87970    0.48936    1.000
    C277     C        0.11930    0.81240    0.46250    1.000
    H197     H        0.08580    0.79460    0.46860    1.000
    C278     C        0.14120    0.77500    0.42780    1.000
    H198     H        0.12170    0.73310    0.40990    1.000
    C279     C        0.21430    0.86240    0.44250    1.000
    H199     H        0.24700    0.88210    0.43490    1.000
    C280     C        0.19588    0.90400    0.47740    1.000
    H200     H        0.21600    0.95000    0.49340    1.000
    C281     C        0.13170    0.83250    0.09900    1.000
    H201     H        0.12460    0.83410    0.07120    1.000
    C282     C        0.16300    0.75690    0.11720    1.000
    H202     H        0.18130    0.70050    0.10470    1.000
    C283     C        0.16150    0.78200    0.15740    1.000
    H203     H        0.17920    0.74610    0.17810    1.000
    C284     C        0.12890    0.87060    0.16220    1.000
    C285     C        0.11870    0.92610    0.19770    1.000
    C286     C        0.09200    0.01990    0.20080    1.000
    C287     C        0.08390    0.08160    0.23640    1.000
    H204     H        0.09470    0.06410    0.26270    1.000
    C288     C        0.05730    0.17160    0.22490    1.000
    H205     H        0.04480    0.22710    0.24180    1.000
    C289     C        0.05210    0.16530    0.18330    1.000
    H206     H        0.03590    0.21870    0.16750    1.000
    C290     C        0.14150    0.87910    0.23550    1.000
    C291     C        0.17850    0.94040    0.25640    1.000
    H207     H        0.18860    0.00980    0.24720    1.000
    C292     C        0.19890    0.89550    0.29040    1.000
    H208     H        0.22440    0.93390    0.30400    1.000
    C293     C        0.14990    0.74170    0.28520    1.000
    H209     H        0.14070    0.67310    0.29580    1.000
    C294     C        0.12750    0.77890    0.24980    1.000
    H210     H        0.10340    0.73640    0.23620    1.000
    N55      N        0.51198    0.43700    0.36877    1.000
    N56      N        0.52713    0.64430    0.39972    1.000
    N57      N        0.29520    0.66280    0.35568    1.000
    N58      N        0.06088    0.02650    0.55857    1.000
    N59      N        0.12853    0.89630    0.59988    1.000
    N60      N        0.18886    0.79500    0.41808    1.000
    N61      N        0.11286    0.90280    0.12568    1.000
    N62      N        0.07198    0.07860    0.16879    1.000
    N63      N        0.18460    0.80260    0.30444    1.000
    Co4      Co       0.06877    0.97744    0.61377    1.000
    Ag8      Ag       0.72111    0.76124    0.63987    1.000
    C295     C        0.01170    0.16490    0.64419    1.000
    H211     H        0.04000    0.21070    0.64400    1.000
    C296     C        0.96460    0.19760    0.65820    1.000
    H212     H        0.95590    0.26610    0.66910    1.000
    C297     C        0.93480    0.11190    0.65300    1.000
    H213     H        0.90040    0.10910    0.65920    1.000
    C298     C        0.96330    0.02600    0.63676    1.000
    C299     C        0.94750    0.92100    0.62579    1.000
    C300     C        0.97610    0.84300    0.60873    1.000
    C301     C        0.96090    0.73690    0.59610    1.000
    H214     H        0.92850    0.70690    0.59790    1.000
    C302     C        0.00300    0.68670    0.58080    1.000
    H215     H        0.00520    0.61530    0.57030    1.000
    C303     C        0.04090    0.76130    0.58390    1.000
    H216     H        0.07380    0.74710    0.57510    1.000
    C304     C        0.89420    0.89480    0.63340    1.000
    C305     C        0.88080    0.81760    0.66072    1.000
    H217     H        0.90530    0.78220    0.67640    1.000
    C306     C        0.83220    0.79190    0.66528    1.000
    H218     H        0.82380    0.73840    0.68460    1.000
    C307     C        0.80870    0.91580    0.61900    1.000
    H219     H        0.78310    0.95250    0.60500    1.000
    C308     C        0.85590    0.94690    0.61190    1.000
    H220     H        0.86320    0.00220    0.59300    1.000
    C309     C        0.52920    0.39810    0.45432    1.000
    H221     H        0.50670    0.35900    0.43790    1.000
    C310     C        0.53390    0.38520    0.49590    1.000
    H222     H        0.51580    0.33580    0.51210    1.000
    C311     C        0.56820    0.45470    0.50850    1.000
    H223     H        0.57870    0.46550    0.53530    1.000
    C312     C        0.58610    0.50910    0.47450    1.000
    C313     C        0.62670    0.58630    0.47210    1.000
    C314     C        0.64620    0.62550    0.43770    1.000
    C315     C        0.68850    0.69670    0.43370    1.000
    H224     H        0.70760    0.72740    0.45480    1.000
    C316     C        0.69560    0.71110    0.39380    1.000
    H225     H        0.72130    0.75150    0.38140    1.000
    C317     C        0.65690    0.65370    0.37430    1.000
    H226     H        0.65220    0.65180    0.34620    1.000
    C318     C        0.64850    0.62030    0.51064    1.000
    C319     C        0.61930    0.68760    0.53750    1.000
    H227     H        0.58580    0.70540    0.53140    1.000
    C320     C        0.64120    0.72500    0.57220    1.000
    H228     H        0.62170    0.76690    0.59010    1.000
    C321     C        0.71430    0.63760    0.55750    1.000
    H229     H        0.74700    0.61790    0.56510    1.000
    C322     C        0.69588    0.59600    0.52260    1.000
    H230     H        0.71600    0.55000    0.50660    1.000
    C323     C        0.63170    0.66750    0.90100    1.000
    H231     H        0.62460    0.66590    0.92880    1.000
    C324     C        0.66300    0.74310    0.88280    1.000
    H232     H        0.68130    0.79950    0.89530    1.000
    C325     C        0.66150    0.71800    0.84260    1.000
    H233     H        0.67920    0.75390    0.82190    1.000
    C326     C        0.62890    0.62940    0.83780    1.000
    C327     C        0.61870    0.57390    0.80230    1.000
    C328     C        0.59200    0.48010    0.79920    1.000
    C329     C        0.58390    0.41840    0.76360    1.000
    H234     H        0.59470    0.43590    0.73730    1.000
    C330     C        0.55730    0.32840    0.77510    1.000
    H235     H        0.54480    0.27290    0.75820    1.000
    C331     C        0.55210    0.33470    0.81670    1.000
    H236     H        0.53590    0.28130    0.83250    1.000
    C332     C        0.64150    0.62090    0.76450    1.000
    C333     C        0.67850    0.55960    0.74360    1.000
    H237     H        0.68860    0.49020    0.75280    1.000
    C334     C        0.69890    0.60450    0.70960    1.000
    H238     H        0.72440    0.56610    0.69600    1.000
    C335     C        0.64990    0.75830    0.71480    1.000
    H239     H        0.64070    0.82690    0.70420    1.000
    C336     C        0.62750    0.72110    0.75020    1.000
    H240     H        0.60340    0.76360    0.76380    1.000
    N64      N        0.01198    0.06300    0.63123    1.000
    N65      N        0.02713    0.85570    0.60028    1.000
    N66      N        0.79520    0.83720    0.64432    1.000
    N67      N        0.56088    0.47350    0.44143    1.000
    N68      N        0.62853    0.60370    0.40012    1.000
    N69      N        0.68886    0.70500    0.58192    1.000
    N70      N        0.61286    0.59720    0.87432    1.000
    N71      N        0.57198    0.42140    0.83121    1.000
    N72      N        0.68460    0.69740    0.69556    1.000
