# CIF file generated by openbabel 3.1.0, see https://openbabel.org
data_I
_chemical_name_common 'image0'
_cell_length_a 18.4369
_cell_length_b 11.4119
_cell_length_c 18.9643
_cell_angle_alpha 90
_cell_angle_beta 108.265
_cell_angle_gamma 90
_space_group_name_H-M_alt 'P 1'
_space_group_name_Hall 'P 1'
loop_
    _symmetry_equiv_pos_as_xyz
    x,y,z
loop_
    _atom_site_label
    _atom_site_type_symbol
    _atom_site_fract_x
    _atom_site_fract_y
    _atom_site_fract_z
    _atom_site_occupancy
    C1       C        0.89749    0.82840    0.92741    1.000
    C2       C        0.83017    0.75350    0.88980    1.000
    C3       C        0.79267    0.69800    0.93355    1.000
    H1       H        0.81360    0.70180    0.98490    1.000
    C4       C        0.72581    0.63800    0.90322    1.000
    H2       H        0.70120    0.60290    0.93380    1.000
    C5       C        0.69487    0.62970    0.82627    1.000
    C6       C        0.73290    0.67970    0.78174    1.000
    H3       H        0.71330    0.67090    0.73050    1.000
    C7       C        0.80020    0.74310    0.81210    1.000
    C8       C        0.61950    0.56980    0.79200    1.000
    C9       C        0.88328    0.15520    0.97056    1.000
    C10      C        0.81481    0.20620    0.98583    1.000
    C11      C        0.79081    0.15990    0.04206    1.000
    H4       H        0.81800    0.09900    0.06800    1.000
    C12      C        0.76920    0.29900    0.94630    1.000
    N1       N        0.79420    0.35660    0.88790    1.000
    H5       H        0.83000    0.33500    0.87200    1.000
    H6       H        0.78200    0.42700    0.87600    1.000
    N2       N        0.83340    0.79040    0.76300    1.000
    H7       H        0.81000    0.80300    0.71580    1.000
    H8       H        0.86800    0.84400    0.77700    1.000
    O1       O        0.92405    0.89380    0.88821    1.000
    O2       O        0.92353    0.82360    0.99705    1.000
    O3       O        0.58899    0.52150    0.83579    1.000
    O4       O        0.59146    0.56920    0.72353    1.000
    O5       O        0.92004    0.07290    0.00972    1.000
    O6       O        0.90151    0.19460    0.91676    1.000
    Pr1      Pr       0.00061    0.06544    0.89836    1.000
    C13      C        0.77840    0.30100    0.94030    1.000
    H9       H        0.79570    0.33400    0.90380    1.000
    C14      C        0.39749    0.32840    0.92741    1.000
    C15      C        0.33017    0.25350    0.88980    1.000
    C16      C        0.29267    0.19800    0.93355    1.000
    H10      H        0.31360    0.20180    0.98490    1.000
    C17      C        0.22581    0.13800    0.90322    1.000
    H11      H        0.20120    0.10290    0.93380    1.000
    C18      C        0.19487    0.12970    0.82627    1.000
    C19      C        0.23290    0.17970    0.78174    1.000
    H12      H        0.21330    0.17090    0.73050    1.000
    C20      C        0.30020    0.24310    0.81210    1.000
    C21      C        0.11950    0.06980    0.79200    1.000
    C22      C        0.38328    0.65520    0.97056    1.000
    C23      C        0.31481    0.70620    0.98583    1.000
    C24      C        0.29081    0.65990    0.04206    1.000
    H13      H        0.31800    0.59900    0.06800    1.000
    C25      C        0.26920    0.79900    0.94630    1.000
    N3       N        0.29420    0.85660    0.88790    1.000
    H14      H        0.33000    0.83500    0.87200    1.000
    H15      H        0.28200    0.92700    0.87600    1.000
    N4       N        0.33340    0.29040    0.76300    1.000
    H16      H        0.31000    0.30300    0.71580    1.000
    H17      H        0.36800    0.34400    0.77700    1.000
    O7       O        0.42405    0.39380    0.88821    1.000
    O8       O        0.42353    0.32360    0.99705    1.000
    O9       O        0.08899    0.02150    0.83579    1.000
    O10      O        0.09146    0.06920    0.72353    1.000
    O11      O        0.42004    0.57290    0.00972    1.000
    O12      O        0.40151    0.69460    0.91676    1.000
    Pr2      Pr       0.50061    0.56544    0.89836    1.000
    C26      C        0.27840    0.80100    0.94030    1.000
    H18      H        0.29570    0.83400    0.90380    1.000
    C27      C        0.10251    0.82840    0.57259    1.000
    C28      C        0.16983    0.75350    0.61020    1.000
    C29      C        0.20733    0.69800    0.56645    1.000
    H19      H        0.18640    0.70180    0.51510    1.000
    C30      C        0.27419    0.63800    0.59678    1.000
    H20      H        0.29880    0.60290    0.56620    1.000
    C31      C        0.30513    0.62970    0.67373    1.000
    C32      C        0.26710    0.67970    0.71826    1.000
    H21      H        0.28670    0.67090    0.76950    1.000
    C33      C        0.19980    0.74310    0.68790    1.000
    C34      C        0.38050    0.56980    0.70800    1.000
    C35      C        0.11672    0.15520    0.52944    1.000
    C36      C        0.18519    0.20620    0.51417    1.000
    C37      C        0.20919    0.15990    0.45794    1.000
    H22      H        0.18200    0.09900    0.43200    1.000
    C38      C        0.23080    0.29900    0.55370    1.000
    N5       N        0.20580    0.35660    0.61210    1.000
    H23      H        0.17000    0.33500    0.62800    1.000
    H24      H        0.21800    0.42700    0.62400    1.000
    N6       N        0.16660    0.79040    0.73700    1.000
    H25      H        0.19000    0.80300    0.78420    1.000
    H26      H        0.13200    0.84400    0.72300    1.000
    O13      O        0.07595    0.89380    0.61179    1.000
    O14      O        0.07647    0.82360    0.50295    1.000
    O15      O        0.41101    0.52150    0.66421    1.000
    O16      O        0.40854    0.56920    0.77647    1.000
    O17      O        0.07996    0.07290    0.49028    1.000
    O18      O        0.09849    0.19460    0.58324    1.000
    Pr3      Pr       0.99939    0.06544    0.60164    1.000
    C39      C        0.22160    0.30100    0.55970    1.000
    H27      H        0.20430    0.33400    0.59620    1.000
    C40      C        0.60251    0.32840    0.57259    1.000
    C41      C        0.66983    0.25350    0.61020    1.000
    C42      C        0.70733    0.19800    0.56645    1.000
    H28      H        0.68640    0.20180    0.51510    1.000
    C43      C        0.77419    0.13800    0.59678    1.000
    H29      H        0.79880    0.10290    0.56620    1.000
    C44      C        0.80513    0.12970    0.67373    1.000
    C45      C        0.76710    0.17970    0.71826    1.000
    H30      H        0.78670    0.17090    0.76950    1.000
    C46      C        0.69980    0.24310    0.68790    1.000
    C47      C        0.88050    0.06980    0.70800    1.000
    C48      C        0.61672    0.65520    0.52944    1.000
    C49      C        0.68519    0.70620    0.51417    1.000
    C50      C        0.70919    0.65990    0.45794    1.000
    H31      H        0.68200    0.59900    0.43200    1.000
    C51      C        0.73080    0.79900    0.55370    1.000
    N7       N        0.70580    0.85660    0.61210    1.000
    H32      H        0.67000    0.83500    0.62800    1.000
    H33      H        0.71800    0.92700    0.62400    1.000
    N8       N        0.66660    0.29040    0.73700    1.000
    H34      H        0.69000    0.30300    0.78420    1.000
    H35      H        0.63200    0.34400    0.72300    1.000
    O19      O        0.57595    0.39380    0.61179    1.000
    O20      O        0.57647    0.32360    0.50295    1.000
    O21      O        0.91101    0.02150    0.66421    1.000
    O22      O        0.90854    0.06920    0.77647    1.000
    O23      O        0.57996    0.57290    0.49028    1.000
    O24      O        0.59849    0.69460    0.58324    1.000
    Pr4      Pr       0.49939    0.56544    0.60164    1.000
    C52      C        0.72160    0.80100    0.55970    1.000
    H36      H        0.70430    0.83400    0.59620    1.000
    C53      C        0.10251    0.17160    0.07259    1.000
    C54      C        0.16983    0.24650    0.11020    1.000
    C55      C        0.20733    0.30200    0.06645    1.000
    H37      H        0.18640    0.29820    0.01510    1.000
    C56      C        0.27419    0.36200    0.09678    1.000
    H38      H        0.29880    0.39710    0.06620    1.000
    C57      C        0.30513    0.37030    0.17373    1.000
    C58      C        0.26710    0.32030    0.21826    1.000
    H39      H        0.28670    0.32910    0.26950    1.000
    C59      C        0.19980    0.25690    0.18790    1.000
    C60      C        0.38050    0.43020    0.20800    1.000
    C61      C        0.11672    0.84480    0.02944    1.000
    C62      C        0.18519    0.79380    0.01417    1.000
    C63      C        0.20919    0.84010    0.95794    1.000
    H40      H        0.18200    0.90100    0.93200    1.000
    C64      C        0.23080    0.70100    0.05370    1.000
    N9       N        0.20580    0.64340    0.11210    1.000
    H41      H        0.17000    0.66500    0.12800    1.000
    H42      H        0.21800    0.57300    0.12400    1.000
    N10      N        0.16660    0.20960    0.23700    1.000
    H43      H        0.19000    0.19700    0.28420    1.000
    H44      H        0.13200    0.15600    0.22300    1.000
    O25      O        0.07595    0.10620    0.11179    1.000
    O26      O        0.07647    0.17640    0.00295    1.000
    O27      O        0.41101    0.47850    0.16421    1.000
    O28      O        0.40854    0.43080    0.27647    1.000
    O29      O        0.07996    0.92710    0.99028    1.000
    O30      O        0.09849    0.80540    0.08324    1.000
    Pr5      Pr       0.99939    0.93456    0.10164    1.000
    C65      C        0.22160    0.69900    0.05970    1.000
    H45      H        0.20430    0.66600    0.09620    1.000
    C66      C        0.60251    0.67160    0.07259    1.000
    C67      C        0.66983    0.74650    0.11020    1.000
    C68      C        0.70733    0.80200    0.06645    1.000
    H46      H        0.68640    0.79820    0.01510    1.000
    C69      C        0.77419    0.86200    0.09678    1.000
    H47      H        0.79880    0.89710    0.06620    1.000
    C70      C        0.80513    0.87030    0.17373    1.000
    C71      C        0.76710    0.82030    0.21826    1.000
    H48      H        0.78670    0.82910    0.26950    1.000
    C72      C        0.69980    0.75690    0.18790    1.000
    C73      C        0.88050    0.93020    0.20800    1.000
    C74      C        0.61672    0.34480    0.02944    1.000
    C75      C        0.68519    0.29380    0.01417    1.000
    C76      C        0.70919    0.34010    0.95794    1.000
    H49      H        0.68200    0.40100    0.93200    1.000
    C77      C        0.73080    0.20100    0.05370    1.000
    N11      N        0.70580    0.14340    0.11210    1.000
    H50      H        0.67000    0.16500    0.12800    1.000
    H51      H        0.71800    0.07300    0.12400    1.000
    N12      N        0.66660    0.70960    0.23700    1.000
    H52      H        0.69000    0.69700    0.28420    1.000
    H53      H        0.63200    0.65600    0.22300    1.000
    O31      O        0.57595    0.60620    0.11179    1.000
    O32      O        0.57647    0.67640    0.00295    1.000
    O33      O        0.91101    0.97850    0.16421    1.000
    O34      O        0.90854    0.93080    0.27647    1.000
    O35      O        0.57996    0.42710    0.99028    1.000
    O36      O        0.59849    0.30540    0.08324    1.000
    Pr6      Pr       0.49939    0.43456    0.10164    1.000
    C78      C        0.72160    0.19900    0.05970    1.000
    H54      H        0.70430    0.16600    0.09620    1.000
    C79      C        0.89749    0.17160    0.42741    1.000
    C80      C        0.83017    0.24650    0.38980    1.000
    C81      C        0.79267    0.30200    0.43355    1.000
    H55      H        0.81360    0.29820    0.48490    1.000
    C82      C        0.72581    0.36200    0.40322    1.000
    H56      H        0.70120    0.39710    0.43380    1.000
    C83      C        0.69487    0.37030    0.32627    1.000
    C84      C        0.73290    0.32030    0.28174    1.000
    H57      H        0.71330    0.32910    0.23050    1.000
    C85      C        0.80020    0.25690    0.31210    1.000
    C86      C        0.61950    0.43020    0.29200    1.000
    C87      C        0.88328    0.84480    0.47056    1.000
    C88      C        0.81481    0.79380    0.48583    1.000
    C89      C        0.79081    0.84010    0.54206    1.000
    H58      H        0.81800    0.90100    0.56800    1.000
    C90      C        0.76920    0.70100    0.44630    1.000
    N13      N        0.79420    0.64340    0.38790    1.000
    H59      H        0.83000    0.66500    0.37200    1.000
    H60      H        0.78200    0.57300    0.37600    1.000
    N14      N        0.83340    0.20960    0.26300    1.000
    H61      H        0.81000    0.19700    0.21580    1.000
    H62      H        0.86800    0.15600    0.27700    1.000
    O37      O        0.92405    0.10620    0.38821    1.000
    O38      O        0.92353    0.17640    0.49705    1.000
    O39      O        0.58899    0.47850    0.33579    1.000
    O40      O        0.59146    0.43080    0.22353    1.000
    O41      O        0.92004    0.92710    0.50972    1.000
    O42      O        0.90151    0.80540    0.41676    1.000
    Pr7      Pr       0.00061    0.93456    0.39836    1.000
    C91      C        0.77840    0.69900    0.44030    1.000
    H63      H        0.79570    0.66600    0.40380    1.000
    C92      C        0.39749    0.67160    0.42741    1.000
    C93      C        0.33017    0.74650    0.38980    1.000
    C94      C        0.29267    0.80200    0.43355    1.000
    H64      H        0.31360    0.79820    0.48490    1.000
    C95      C        0.22581    0.86200    0.40322    1.000
    H65      H        0.20120    0.89710    0.43380    1.000
    C96      C        0.19487    0.87030    0.32627    1.000
    C97      C        0.23290    0.82030    0.28174    1.000
    H66      H        0.21330    0.82910    0.23050    1.000
    C98      C        0.30020    0.75690    0.31210    1.000
    C99      C        0.11950    0.93020    0.29200    1.000
    C100     C        0.38328    0.34480    0.47056    1.000
    C101     C        0.31481    0.29380    0.48583    1.000
    C102     C        0.29081    0.34010    0.54206    1.000
    H67      H        0.31800    0.40100    0.56800    1.000
    C103     C        0.26920    0.20100    0.44630    1.000
    N15      N        0.29420    0.14340    0.38790    1.000
    H68      H        0.33000    0.16500    0.37200    1.000
    H69      H        0.28200    0.07300    0.37600    1.000
    N16      N        0.33340    0.70960    0.26300    1.000
    H70      H        0.31000    0.69700    0.21580    1.000
    H71      H        0.36800    0.65600    0.27700    1.000
    O43      O        0.42405    0.60620    0.38821    1.000
    O44      O        0.42353    0.67640    0.49705    1.000
    O45      O        0.08899    0.97850    0.33579    1.000
    O46      O        0.09146    0.93080    0.22353    1.000
    O47      O        0.42004    0.42710    0.50972    1.000
    O48      O        0.40151    0.30540    0.41676    1.000
    Pr8      Pr       0.50061    0.43456    0.39836    1.000
    C104     C        0.27840    0.19900    0.44030    1.000
    H72      H        0.29570    0.16600    0.40380    1.000
