data_functionalizedCrystal
_audit_creation_method	'EQeq! by Chris Wilmer'
_symmetry_space_group_name_H-M	'P1'
_symmetry_Int_Tables_number	1
_symmetry_cell_setting	triclinic
loop_
_symmetry_equiv_pos_as_xyz
  x,y,z
_cell_length_a	9.8119
_cell_length_b	11.247
_cell_length_c	14.4139
_cell_angle_alpha	91.1553
_cell_angle_beta	90
_cell_angle_gamma	90
loop_
_atom_site_label
_atom_site_type_symbol
_atom_site_fract_x
_atom_site_fract_y
_atom_site_fract_z
_atom_site_charge
Mof_Co	Co	0.92027	0.75511	0.13304	1.233
Mof_Co	Co	0.89038	0.25978	0.68886	1.222
Mof_Co	Co	0.42027	0.74489	0.36696	1.196
Mof_Co	Co	0.39038	0.24022	0.81114	1.202
Mof_Co	Co	0.07973	0.24489	0.86696	1.155
Mof_Co	Co	0.10962	0.74022	0.31114	1.187
Mof_Co	Co	0.57973	0.25511	0.63304	1.19
Mof_Co	Co	0.60962	0.75978	0.18886	1.205
Mof_Co	Co	3.96833e-33	0.5	-0	1.124
Mof_Co	Co	0.5	0	0.5	1.181
Mof_Co	Co	-0	0	-0	1.094
Mof_Co	Co	0.5	0.5	0.5	1.212
Mof_H 	H 	0.756	0.865	0.368	-0.074
Mof_H 	H 	0.035	0.477	0.266	-0.089
Mof_H 	H 	0.617	0.555	0.038	-0.063
Mof_H 	H 	0.705	0.989	0.007	-0.096
Mof_H 	H 	0.161	0.695	0.929	-0.118
Mof_H 	H 	0.193	0.988	0.238	-0.1
Mof_H 	H 	0.256	0.635	0.132	-0.108
Mof_H 	H 	0.535	0.023	0.234	-0.272
Mof_H 	H 	0.117	0.945	0.462	-0.095
Mof_H 	H 	0.205	0.511	0.493	-0.114
Mof_H 	H 	0.661	0.805	0.571	-0.073
Mof_H 	H 	0.693	0.512	0.262	-0.069
Mof_H 	H 	0.244	0.135	0.632	-0.119
Mof_H 	H 	0.965	0.523	0.734	-0.139
Mof_H 	H 	0.383	0.445	0.962	-0.112
Mof_H 	H 	0.295	0.011	0.993	-0.086
Mof_H 	H 	0.839	0.305	0.071	-0.058
Mof_H 	H 	0.807	0.012	0.762	-0.05
Mof_H 	H 	0.744	0.365	0.868	-0.082
Mof_H 	H 	0.465	0.977	0.766	0.044
Mof_H 	H 	0.883	0.055	0.538	-0.079
Mof_H 	H 	0.795	0.489	0.507	-0.076
Mof_H 	H 	0.339	0.195	0.429	-0.114
Mof_H 	H 	0.307	0.488	0.738	-0.082
Mof_C 	C 	0.8269	0.8316	0.3301	0.456
Mof_C 	C 	0.0121	0.5162	0.2124	0.344
Mof_C 	C 	0.7107	0.5761	0.0465	0.302
Mof_C 	C 	0.1289	0.9551	0.1877	0.552
Mof_C 	C 	0.1079	0.743	0.9699	0.635
Mof_C 	C 	0.7212	0.9278	0.0489	0.47
Mof_C 	C 	0.3269	0.6684	0.1699	0.465
Mof_C 	C 	0.5121	0.9838	0.2876	0.81
Mof_C 	C 	0.2107	0.9239	0.4535	0.471
Mof_C 	C 	0.6289	0.5449	0.3123	0.436
Mof_C 	C 	0.6079	0.757	0.5301	0.474
Mof_C 	C 	0.2212	0.5722	0.4511	0.492
Mof_C 	C 	0.1731	0.1684	0.6699	0.472
Mof_C 	C 	0.9879	0.4838	0.7876	0.674
Mof_C 	C 	0.2893	0.4239	0.9535	0.644
Mof_C 	C 	0.8711	0.0449	0.8123	0.32
Mof_C 	C 	0.8921	0.257	0.0301	0.311
Mof_C 	C 	0.2788	0.0722	0.9511	0.481
Mof_C 	C 	0.6731	0.3316	0.8301	0.462
Mof_C 	C 	0.4879	0.0162	0.7124	0.215
Mof_C 	C 	0.7893	0.0761	0.5465	0.48
Mof_C 	C 	0.3711	0.4551	0.6877	0.439
Mof_C 	C 	0.3921	0.243	0.4699	0.492
Mof_C 	C 	0.7788	0.4278	0.5489	0.472
Mof_O 	O 	0.79902	0.80929	0.24499	-0.527
Mof_O 	O 	0.9393	0.8169	0.3681	-0.356
Mof_O 	O 	0.00394	0.62861	0.21981	-0.57
Mof_O 	O 	0.9947	0.4568	0.1406	-0.318
Mof_O 	O 	0.7422	0.6529	0.1084	-0.503
Mof_O 	O 	0.7907	0.51789	0.99709	-0.257
Mof_O 	O 	0.0837	0.85011	0.19531	-0.606
Mof_O 	O 	0.1042	0.02397	0.12417	-0.557
Mof_O 	O 	0.0277	0.68444	0.02344	-0.687
Mof_O 	O 	0.1164	0.8514	0.9667	-0.424
Mof_O 	O 	0.845	0.89708	0.05988	-0.519
Mof_O 	O 	0.6209	0.88671	0.08991	-0.427
Mof_O 	O 	0.29902	0.69071	0.25501	-0.555
Mof_O 	O 	0.4393	0.6831	0.1319	-0.442
Mof_O 	O 	0.50394	0.87139	0.28019	-0.634
Mof_O 	O 	0.4947	0.0432	0.3594	-0.57
Mof_O 	O 	0.2422	0.8471	0.3916	-0.553
Mof_O 	O 	0.2907	0.98211	0.50291	-0.39
Mof_O 	O 	0.5837	0.64989	0.30469	-0.539
Mof_O 	O 	0.6042	0.47603	0.37583	-0.415
Mof_O 	O 	0.5277	0.81556	0.47656	-0.532
Mof_O 	O 	0.6164	0.6486	0.5333	-0.428
Mof_O 	O 	0.345	0.60292	0.44012	-0.562
Mof_O 	O 	0.1209	0.61329	0.41009	-0.464
Mof_O 	O 	0.20098	0.19071	0.75501	-0.581
Mof_O 	O 	0.0607	0.1831	0.6319	-0.5
Mof_O 	O 	0.99606	0.37139	0.78019	-0.559
Mof_O 	O 	0.0053	0.5432	0.8594	-0.526
Mof_O 	O 	0.2578	0.3471	0.8916	-0.597
Mof_O 	O 	0.2093	0.48211	0.00291	-0.569
Mof_O 	O 	0.9163	0.14989	0.80469	-0.472
Mof_O 	O 	0.8958	0.97603	0.87583	-0.244
Mof_O 	O 	0.9723	0.31556	0.97656	-0.38
Mof_O 	O 	0.8836	0.1486	0.0333	-0.408
Mof_O 	O 	0.155	0.10292	0.94012	-0.559
Mof_O 	O 	0.3791	0.11329	0.91009	-0.434
Mof_O 	O 	0.70098	0.30929	0.74499	-0.552
Mof_O 	O 	0.5607	0.3169	0.8681	-0.411
Mof_O 	O 	0.49606	0.12861	0.71981	-0.499
Mof_O 	O 	0.5053	0.9568	0.6406	-0.293
Mof_O 	O 	0.7578	0.1529	0.6084	-0.549
Mof_O 	O 	0.7093	0.01789	0.49709	-0.452
Mof_O 	O 	0.4163	0.35011	0.69531	-0.547
Mof_O 	O 	0.3958	0.52397	0.62417	-0.419
Mof_O 	O 	0.4723	0.18444	0.52344	-0.559
Mof_O 	O 	0.3836	0.3514	0.4667	-0.451
Mof_O 	O 	0.655	0.39708	0.55988	-0.55
Mof_O 	O 	0.8791	0.38671	0.58991	-0.4
_end
