# CIF file generated by openbabel 3.1.0, see https://openbabel.org
data_I
_chemical_name_common 'image0'
_cell_length_a 9.7412
_cell_length_b 13.0955
_cell_length_c 15.6922
_cell_angle_alpha 90
_cell_angle_beta 95.092
_cell_angle_gamma 90
_space_group_name_H-M_alt 'P 1'
_space_group_name_Hall 'P 1'
loop_
    _symmetry_equiv_pos_as_xyz
    x,y,z
loop_
    _atom_site_label
    _atom_site_type_symbol
    _atom_site_fract_x
    _atom_site_fract_y
    _atom_site_fract_z
    _atom_site_occupancy
    Zn1      Zn       0.28845    0.13752    0.25016    1.000
    Zn2      Zn       0.81071    0.02908    0.43410    1.000
    Zn3      Zn       0.59700    0.86856    0.09005    1.000
    P1       P        0.35934    0.03917    0.08559    1.000
    H1       H        0.46020    0.11300    0.11380    1.000
    P2       P        0.10195    0.11297    0.40618    1.000
    H2       H        0.17070    0.19630    0.45550    1.000
    P3       P        0.49734    0.12727    0.40727    1.000
    H3       H        0.43670    0.06050    0.44530    1.000
    P4       P        0.69707    0.87913    0.28634    1.000
    H4       H        0.56230    0.90720    0.31150    1.000
    O1       O        0.25350    0.05070    0.15029    1.000
    O2       O        0.46070    0.10670    0.31400    1.000
    O3       O        0.69410    0.76720    0.30460    1.000
    O4       O        0.13040    0.11830    0.31320    1.000
    O5       O        0.95030    0.13240    0.41590    1.000
    O6       O        0.64870    0.11310    0.43073    1.000
    O7       O        0.15370    0.01420    0.44791    1.000
    O8       O        0.80900    0.93420    0.34168    1.000
    O9       O        0.70720    0.90250    0.19354    1.000
    O10      O        0.29980    0.07040    0.99708    1.000
    O11      O        0.44670    0.22850    0.43570    1.000
    O12      O        0.41780    0.93290    0.08640    1.000
    Zn4      Zn       0.71155    0.63752    0.24984    1.000
    Zn5      Zn       0.18929    0.52908    0.06590    1.000
    Zn6      Zn       0.40300    0.36856    0.40995    1.000
    P5       P        0.64066    0.53917    0.41441    1.000
    H5       H        0.53980    0.61300    0.38620    1.000
    P6       P        0.89805    0.61297    0.09382    1.000
    H6       H        0.82930    0.69630    0.04450    1.000
    P7       P        0.50266    0.62727    0.09273    1.000
    H7       H        0.56330    0.56050    0.05470    1.000
    P8       P        0.30293    0.37913    0.21366    1.000
    H8       H        0.43770    0.40720    0.18850    1.000
    O13      O        0.74650    0.55070    0.34971    1.000
    O14      O        0.53930    0.60670    0.18600    1.000
    O15      O        0.30590    0.26720    0.19540    1.000
    O16      O        0.86960    0.61830    0.18680    1.000
    O17      O        0.04970    0.63240    0.08410    1.000
    O18      O        0.35130    0.61310    0.06927    1.000
    O19      O        0.84630    0.51420    0.05209    1.000
    O20      O        0.19100    0.43420    0.15832    1.000
    O21      O        0.29280    0.40250    0.30646    1.000
    O22      O        0.70020    0.57040    0.50292    1.000
    O23      O        0.55330    0.72850    0.06430    1.000
    O24      O        0.58220    0.43290    0.41360    1.000
    Zn7      Zn       0.71155    0.86248    0.74984    1.000
    Zn8      Zn       0.18929    0.97092    0.56590    1.000
    Zn9      Zn       0.40300    0.13144    0.90995    1.000
    P9       P        0.64066    0.96083    0.91441    1.000
    H9       H        0.53980    0.88700    0.88620    1.000
    P10      P        0.89805    0.88703    0.59382    1.000
    H10      H        0.82930    0.80370    0.54450    1.000
    P11      P        0.50266    0.87273    0.59273    1.000
    H11      H        0.56330    0.93950    0.55470    1.000
    P12      P        0.30293    0.12087    0.71366    1.000
    H12      H        0.43770    0.09280    0.68850    1.000
    O25      O        0.74650    0.94930    0.84971    1.000
    O26      O        0.53930    0.89330    0.68600    1.000
    O27      O        0.30590    0.23280    0.69540    1.000
    O28      O        0.86960    0.88170    0.68680    1.000
    O29      O        0.04970    0.86760    0.58410    1.000
    O30      O        0.35130    0.88690    0.56927    1.000
    O31      O        0.84630    0.98580    0.55209    1.000
    O32      O        0.19100    0.06580    0.65832    1.000
    O33      O        0.29280    0.09750    0.80646    1.000
    O34      O        0.70020    0.92960    0.00292    1.000
    O35      O        0.55330    0.77150    0.56430    1.000
    O36      O        0.58220    0.06710    0.91360    1.000
    Zn10     Zn       0.28845    0.36248    0.75016    1.000
    Zn11     Zn       0.81071    0.47092    0.93410    1.000
    Zn12     Zn       0.59700    0.63144    0.59005    1.000
    P13      P        0.35934    0.46083    0.58559    1.000
    H13      H        0.46020    0.38700    0.61380    1.000
    P14      P        0.10195    0.38703    0.90618    1.000
    H14      H        0.17070    0.30370    0.95550    1.000
    P15      P        0.49734    0.37273    0.90727    1.000
    H15      H        0.43670    0.43950    0.94530    1.000
    P16      P        0.69707    0.62087    0.78634    1.000
    H16      H        0.56230    0.59280    0.81150    1.000
    O37      O        0.25350    0.44930    0.65029    1.000
    O38      O        0.46070    0.39330    0.81400    1.000
    O39      O        0.69410    0.73280    0.80460    1.000
    O40      O        0.13040    0.38170    0.81320    1.000
    O41      O        0.95030    0.36760    0.91590    1.000
    O42      O        0.64870    0.38690    0.93073    1.000
    O43      O        0.15370    0.48580    0.94791    1.000
    O44      O        0.80900    0.56580    0.84168    1.000
    O45      O        0.70720    0.59750    0.69354    1.000
    O46      O        0.29980    0.42960    0.49708    1.000
    O47      O        0.44670    0.27150    0.93570    1.000
    O48      O        0.41780    0.56710    0.58640    1.000
