data_functionalizedCrystal
_audit_creation_method	'EQeq! by Chris Wilmer'
_symmetry_space_group_name_H-M	'P1'
_symmetry_Int_Tables_number	1
_symmetry_cell_setting	triclinic
loop_
_symmetry_equiv_pos_as_xyz
  x,y,z
_cell_length_a	48.3931
_cell_length_b	48.3931
_cell_length_c	9.9998
_cell_angle_alpha	90
_cell_angle_beta	90
_cell_angle_gamma	90
loop_
_atom_site_label
_atom_site_type_symbol
_atom_site_fract_x
_atom_site_fract_y
_atom_site_fract_z
_atom_site_charge
Mof_Zn	Zn	0.37492	0.48207	0.32752	1.229
Mof_Zn	Zn	0.43871	0.52211	0.1702	1.224
Mof_P 	P 	0.31085	0.48434	0.28186	0.651
Mof_P 	P 	0.40041	0.53911	0.39897	0.43
Mof_P 	P 	0.41596	0.46241	0.10963	0.368
Mof_O 	O 	0.28835	0.46269	0.2981	-0.968
Mof_O 	O 	0.31534	0.49324	0.1365	-0.894
Mof_O 	O 	0.33696	0.47335	0.3435	-0.481
Mof_O 	O 	0.42973	0.53439	0.3493	-0.471
Mof_O 	O 	0.3794	0.52243	0.3214	-0.479
Mof_O 	O 	0.39935	0.53564	0.5481	-0.465
Mof_O 	O 	0.47522	0.53546	0.1267	-0.466
Mof_O 	O 	0.38692	0.46847	0.155	-0.446
Mof_O 	O 	0.41586	0.46042	0.96	-0.369
Mof_O 	O 	0.4379	0.48178	0.167	-0.488
Mof_H 	H 	0.2999	0.5096	0.3732	-0.053
Mof_H 	H 	0.3919	0.5679	0.3747	-0.015
Mof_H 	H 	0.4213	0.4389	0.1787	-0.032
Mof_Zn	Zn	0.87492	0.98207	0.82752	1.238
Mof_Zn	Zn	0.93871	0.02211	0.6702	1.23
Mof_P 	P 	0.81085	0.98434	0.78186	0.671
Mof_P 	P 	0.90041	0.03911	0.89897	0.503
Mof_P 	P 	0.91596	0.96241	0.60963	0.447
Mof_O 	O 	0.78835	0.96269	0.7981	-0.95
Mof_O 	O 	0.81534	0.99324	0.6365	-0.922
Mof_O 	O 	0.83696	0.97335	0.8435	-0.449
Mof_O 	O 	0.92973	0.03439	0.8493	-0.455
Mof_O 	O 	0.8794	0.02243	0.8214	-0.469
Mof_O 	O 	0.89935	0.03564	0.0481	-0.544
Mof_O 	O 	0.97522	0.03546	0.6267	-0.436
Mof_O 	O 	0.88692	0.96847	0.655	-0.427
Mof_O 	O 	0.91586	0.96042	0.46	-0.444
Mof_O 	O 	0.9379	0.98178	0.667	-0.465
Mof_H 	H 	0.7999	0.0096	0.8732	-0.035
Mof_H 	H 	0.8919	0.0679	0.8747	0.004
Mof_H 	H 	0.9213	0.9389	0.6787	-0.015
Mof_Zn	Zn	0.12508	0.51793	0.82752	1.237
Mof_Zn	Zn	0.06129	0.47789	0.6702	1.231
Mof_P 	P 	0.18915	0.51566	0.78186	0.668
Mof_P 	P 	0.09959	0.46089	0.89897	0.503
Mof_P 	P 	0.08404	0.53759	0.60963	0.447
Mof_O 	O 	0.21165	0.53731	0.7981	-0.951
Mof_O 	O 	0.18466	0.50676	0.6365	-0.93
Mof_O 	O 	0.16304	0.52665	0.8435	-0.45
Mof_O 	O 	0.07027	0.46561	0.8493	-0.454
Mof_O 	O 	0.1206	0.47757	0.8214	-0.466
Mof_O 	O 	0.10065	0.46436	0.0481	-0.543
Mof_O 	O 	0.02478	0.46454	0.6267	-0.435
Mof_O 	O 	0.11308	0.53153	0.655	-0.428
Mof_O 	O 	0.08414	0.53958	0.46	-0.445
Mof_O 	O 	0.0621	0.51822	0.667	-0.469
Mof_H 	H 	0.2001	0.4904	0.8732	-0.032
Mof_H 	H 	0.1081	0.4321	0.8747	0.004
Mof_H 	H 	0.0787	0.5611	0.6787	-0.015
Mof_Zn	Zn	0.62508	0.01793	0.32752	1.229
Mof_Zn	Zn	0.56129	0.97789	0.1702	1.226
Mof_P 	P 	0.68915	0.01566	0.28186	0.648
Mof_P 	P 	0.59959	0.96089	0.39897	0.431
Mof_P 	P 	0.58404	0.03759	0.10963	0.369
Mof_O 	O 	0.71165	0.03731	0.2981	-0.967
Mof_O 	O 	0.68466	0.00676	0.1365	-0.89
Mof_O 	O 	0.66304	0.02665	0.3435	-0.481
Mof_O 	O 	0.57027	0.96561	0.3493	-0.468
Mof_O 	O 	0.6206	0.97757	0.3214	-0.476
Mof_O 	O 	0.60065	0.96436	0.5481	-0.464
Mof_O 	O 	0.52478	0.96454	0.1267	-0.464
Mof_O 	O 	0.61308	0.03153	0.155	-0.448
Mof_O 	O 	0.58414	0.03958	0.96	-0.37
Mof_O 	O 	0.5621	0.01822	0.167	-0.492
Mof_H 	H 	0.7001	0.9904	0.3732	-0.049
Mof_H 	H 	0.6081	0.9321	0.3747	-0.015
Mof_H 	H 	0.5787	0.0611	0.1787	-0.032
Mof_Zn	Zn	0.76793	0.12492	0.57752	1.232
Mof_Zn	Zn	0.72789	0.18871	0.4202	1.23
Mof_P 	P 	0.76566	0.06085	0.53186	0.662
Mof_P 	P 	0.71089	0.15041	0.64897	0.431
Mof_P 	P 	0.78759	0.16596	0.35963	0.448
Mof_O 	O 	0.78731	0.03835	0.5481	-0.962
Mof_O 	O 	0.75676	0.06534	0.3865	-0.932
Mof_O 	O 	0.77665	0.08696	0.5935	-0.474
Mof_O 	O 	0.71561	0.17973	0.5993	-0.46
Mof_O 	O 	0.72757	0.1294	0.5714	-0.472
Mof_O 	O 	0.71436	0.14935	0.7981	-0.44
Mof_O 	O 	0.71454	0.22522	0.3767	-0.442
Mof_O 	O 	0.78153	0.13692	0.405	-0.438
Mof_O 	O 	0.78958	0.16586	0.21	-0.472
Mof_O 	O 	0.76822	0.1879	0.417	-0.478
Mof_H 	H 	0.7404	0.0499	0.6232	-0.055
Mof_H 	H 	0.6821	0.1419	0.6247	-0.004
Mof_H 	H 	0.8111	0.1713	0.4287	-0.029
Mof_Zn	Zn	0.26793	0.62492	0.07752	1.214
Mof_Zn	Zn	0.22789	0.68871	0.9202	1.249
Mof_P 	P 	0.26566	0.56085	0.03186	0.578
Mof_P 	P 	0.21089	0.65041	0.14897	0.429
Mof_P 	P 	0.28759	0.66596	0.85963	0.447
Mof_O 	O 	0.28731	0.53835	0.0481	-0.918
Mof_O 	O 	0.25676	0.56534	0.8865	-0.858
Mof_O 	O 	0.27665	0.58696	0.0935	-0.488
Mof_O 	O 	0.21561	0.67973	0.0993	-0.506
Mof_O 	O 	0.22757	0.6294	0.0714	-0.505
Mof_O 	O 	0.21436	0.64935	0.2981	-0.469
Mof_O 	O 	0.21454	0.72522	0.8767	-0.432
Mof_O 	O 	0.28153	0.63692	0.905	-0.389
Mof_O 	O 	0.28958	0.66586	0.71	-0.441
Mof_O 	O 	0.26822	0.6879	0.917	-0.445
Mof_H 	H 	0.2404	0.5499	0.1232	-0.06
Mof_H 	H 	0.1821	0.6419	0.1247	-0.027
Mof_H 	H 	0.3111	0.6713	0.9287	-0
Mof_Zn	Zn	0.73207	0.87508	0.07752	1.214
Mof_Zn	Zn	0.77211	0.81129	0.9202	1.249
Mof_P 	P 	0.73434	0.93915	0.03186	0.577
Mof_P 	P 	0.78911	0.84959	0.14897	0.429
Mof_P 	P 	0.71241	0.83404	0.85963	0.447
Mof_O 	O 	0.71269	0.96165	0.0481	-0.911
Mof_O 	O 	0.74324	0.93466	0.8865	-0.858
Mof_O 	O 	0.72335	0.91304	0.0935	-0.488
Mof_O 	O 	0.78439	0.82027	0.0993	-0.506
Mof_O 	O 	0.77243	0.8706	0.0714	-0.505
Mof_O 	O 	0.78564	0.85065	0.2981	-0.469
Mof_O 	O 	0.78546	0.77478	0.8767	-0.432
Mof_O 	O 	0.71847	0.86308	0.905	-0.389
Mof_O 	O 	0.71042	0.83414	0.71	-0.441
Mof_O 	O 	0.73178	0.8121	0.917	-0.445
Mof_H 	H 	0.7596	0.9501	0.1232	-0.059
Mof_H 	H 	0.8179	0.8581	0.1247	-0.027
Mof_H 	H 	0.6889	0.8287	0.9287	-0
Mof_Zn	Zn	0.23207	0.37508	0.57752	1.232
Mof_Zn	Zn	0.27211	0.31129	0.4202	1.23
Mof_P 	P 	0.23434	0.43915	0.53186	0.663
Mof_P 	P 	0.28911	0.34959	0.64897	0.431
Mof_P 	P 	0.21241	0.33404	0.35963	0.448
Mof_O 	O 	0.21269	0.46165	0.5481	-0.966
Mof_O 	O 	0.24324	0.43466	0.3865	-0.933
Mof_O 	O 	0.22335	0.41304	0.5935	-0.474
Mof_O 	O 	0.28439	0.32027	0.5993	-0.46
Mof_O 	O 	0.27243	0.3706	0.5714	-0.472
Mof_O 	O 	0.28564	0.35065	0.7981	-0.44
Mof_O 	O 	0.28546	0.27478	0.3767	-0.442
Mof_O 	O 	0.21847	0.36308	0.405	-0.438
Mof_O 	O 	0.21042	0.33414	0.21	-0.472
Mof_O 	O 	0.23178	0.3121	0.417	-0.478
Mof_H 	H 	0.2596	0.4501	0.6232	-0.054
Mof_H 	H 	0.3179	0.3581	0.6247	-0.004
Mof_H 	H 	0.1889	0.3287	0.4287	-0.029
Mof_Zn	Zn	0.12508	0.48207	0.17248	1.226
Mof_Zn	Zn	0.06129	0.52211	0.3298	1.229
Mof_P 	P 	0.18915	0.48434	0.21814	0.659
Mof_P 	P 	0.09959	0.53911	0.10103	0.361
Mof_P 	P 	0.08404	0.46241	0.39037	0.447
Mof_O 	O 	0.21165	0.46269	0.2019	-0.983
Mof_O 	O 	0.18466	0.49324	0.3635	-0.931
Mof_O 	O 	0.16304	0.47335	0.1565	-0.502
Mof_O 	O 	0.07027	0.53439	0.1507	-0.479
Mof_O 	O 	0.1206	0.52243	0.1786	-0.477
Mof_O 	O 	0.10065	0.53564	0.9519	-0.391
Mof_O 	O 	0.02478	0.53546	0.3733	-0.438
Mof_O 	O 	0.11308	0.46847	0.345	-0.436
Mof_O 	O 	0.08414	0.46042	0.54	-0.446
Mof_O 	O 	0.0621	0.48178	0.333	-0.485
Mof_H 	H 	0.2001	0.5096	0.1268	-0.077
Mof_H 	H 	0.1081	0.5679	0.1253	-0.023
Mof_H 	H 	0.0787	0.4389	0.3213	-0.035
Mof_Zn	Zn	0.62508	0.98207	0.67248	1.234
Mof_Zn	Zn	0.56129	0.02211	0.8298	1.233
Mof_P 	P 	0.68915	0.98434	0.71814	0.655
Mof_P 	P 	0.59959	0.03911	0.60103	0.432
Mof_P 	P 	0.58404	0.96241	0.89037	0.524
Mof_O 	O 	0.71165	0.96269	0.7019	-0.954
Mof_O 	O 	0.68466	0.99324	0.8635	-0.814
Mof_O 	O 	0.66304	0.97335	0.6565	-0.467
Mof_O 	O 	0.57027	0.03439	0.6507	-0.467
Mof_O 	O 	0.6206	0.02243	0.6786	-0.467
Mof_O 	O 	0.60065	0.03564	0.4519	-0.469
Mof_O 	O 	0.52478	0.03546	0.8733	-0.409
Mof_O 	O 	0.61308	0.96847	0.845	-0.416
Mof_O 	O 	0.58414	0.96042	0.04	-0.52
Mof_O 	O 	0.5621	0.98178	0.833	-0.463
Mof_H 	H 	0.7001	0.0096	0.6268	-0.055
Mof_H 	H 	0.6081	0.0679	0.6253	-0.005
Mof_H 	H 	0.5787	0.9389	0.8213	-0.018
Mof_Zn	Zn	0.37492	0.51793	0.67248	1.233
Mof_Zn	Zn	0.43871	0.47789	0.8298	1.234
Mof_P 	P 	0.31085	0.51566	0.71814	0.652
Mof_P 	P 	0.40041	0.46089	0.60103	0.432
Mof_P 	P 	0.41596	0.53759	0.89037	0.524
Mof_O 	O 	0.28835	0.53731	0.7019	-0.954
Mof_O 	O 	0.31534	0.50676	0.8635	-0.821
Mof_O 	O 	0.33696	0.52665	0.6565	-0.468
Mof_O 	O 	0.42973	0.46561	0.6507	-0.465
Mof_O 	O 	0.3794	0.47757	0.6786	-0.465
Mof_O 	O 	0.39935	0.46436	0.4519	-0.468
Mof_O 	O 	0.47522	0.46454	0.8733	-0.408
Mof_O 	O 	0.38692	0.53153	0.845	-0.417
Mof_O 	O 	0.41586	0.53958	0.04	-0.521
Mof_O 	O 	0.4379	0.51822	0.833	-0.466
Mof_H 	H 	0.2999	0.4904	0.6268	-0.051
Mof_H 	H 	0.3919	0.4321	0.6253	-0.004
Mof_H 	H 	0.4213	0.5611	0.8213	-0.018
Mof_Zn	Zn	0.87492	0.01793	0.17248	1.225
Mof_Zn	Zn	0.93871	0.97789	0.3298	1.23
Mof_P 	P 	0.81085	0.01566	0.21814	0.655
Mof_P 	P 	0.90041	0.96089	0.10103	0.361
Mof_P 	P 	0.91596	0.03759	0.39037	0.447
Mof_O 	O 	0.78835	0.03731	0.2019	-0.982
Mof_O 	O 	0.81534	0.00676	0.3635	-0.929
Mof_O 	O 	0.83696	0.02665	0.1565	-0.502
Mof_O 	O 	0.92973	0.96561	0.1507	-0.477
Mof_O 	O 	0.8794	0.97757	0.1786	-0.474
Mof_O 	O 	0.89935	0.96436	0.9519	-0.39
Mof_O 	O 	0.97522	0.96454	0.3733	-0.436
Mof_O 	O 	0.88692	0.03153	0.345	-0.437
Mof_O 	O 	0.91586	0.03958	0.54	-0.447
Mof_O 	O 	0.9379	0.01822	0.333	-0.488
Mof_H 	H 	0.7999	0.9904	0.1268	-0.073
Mof_H 	H 	0.8919	0.9321	0.1253	-0.023
Mof_H 	H 	0.9213	0.0611	0.3213	-0.035
Mof_Zn	Zn	0.73207	0.12492	0.92248	1.25
Mof_Zn	Zn	0.77211	0.18871	0.0798	1.21
Mof_P 	P 	0.73434	0.06085	0.96814	0.723
Mof_P 	P 	0.78911	0.15041	0.85103	0.434
Mof_P 	P 	0.71241	0.16596	0.14037	0.447
Mof_O 	O 	0.71269	0.03835	0.9519	-0.855
Mof_O 	O 	0.74324	0.06534	0.1135	-0.992
Mof_O 	O 	0.72335	0.08696	0.9065	-0.459
Mof_O 	O 	0.78439	0.17973	0.9007	-0.427
Mof_O 	O 	0.77243	0.1294	0.9286	-0.437
Mof_O 	O 	0.78564	0.14935	0.7019	-0.464
Mof_O 	O 	0.78546	0.22522	0.1233	-0.442
Mof_O 	O 	0.71847	0.13692	0.095	-0.476
Mof_O 	O 	0.71042	0.16586	0.29	-0.451
Mof_O 	O 	0.73178	0.1879	0.083	-0.511
Mof_H 	H 	0.7596	0.0499	0.8768	-0.042
Mof_H 	H 	0.8179	0.1419	0.8753	0.008
Mof_H 	H 	0.6889	0.1713	0.0713	-0.051
Mof_Zn	Zn	0.23207	0.62492	0.42248	1.232
Mof_Zn	Zn	0.27211	0.68871	0.5798	1.23
Mof_P 	P 	0.23434	0.56085	0.46814	0.664
Mof_P 	P 	0.28911	0.65041	0.35103	0.432
Mof_P 	P 	0.21241	0.66596	0.64037	0.446
Mof_O 	O 	0.21269	0.53835	0.4519	-0.968
Mof_O 	O 	0.24324	0.56534	0.6135	-0.928
Mof_O 	O 	0.22335	0.58696	0.4065	-0.477
Mof_O 	O 	0.28439	0.67973	0.4007	-0.474
Mof_O 	O 	0.27243	0.6294	0.4286	-0.471
Mof_O 	O 	0.28564	0.64935	0.2019	-0.492
Mof_O 	O 	0.28546	0.72522	0.6233	-0.432
Mof_O 	O 	0.21847	0.63692	0.595	-0.426
Mof_O 	O 	0.21042	0.66586	0.79	-0.42
Mof_O 	O 	0.23178	0.6879	0.583	-0.476
Mof_H 	H 	0.2596	0.5499	0.3768	-0.055
Mof_H 	H 	0.3179	0.6419	0.3753	-0.016
Mof_H 	H 	0.1889	0.6713	0.5713	-0.021
Mof_Zn	Zn	0.76793	0.87508	0.42248	1.232
Mof_Zn	Zn	0.72789	0.81129	0.5798	1.23
Mof_P 	P 	0.76566	0.93915	0.46814	0.663
Mof_P 	P 	0.71089	0.84959	0.35103	0.432
Mof_P 	P 	0.78759	0.83404	0.64037	0.446
Mof_O 	O 	0.78731	0.96165	0.4519	-0.961
Mof_O 	O 	0.75676	0.93466	0.6135	-0.928
Mof_O 	O 	0.77665	0.91304	0.4065	-0.477
Mof_O 	O 	0.71561	0.82027	0.4007	-0.474
Mof_O 	O 	0.72757	0.8706	0.4286	-0.471
Mof_O 	O 	0.71436	0.85065	0.2019	-0.492
Mof_O 	O 	0.71454	0.77478	0.6233	-0.432
Mof_O 	O 	0.78153	0.86308	0.595	-0.426
Mof_O 	O 	0.78958	0.83414	0.79	-0.42
Mof_O 	O 	0.76822	0.8121	0.583	-0.476
Mof_H 	H 	0.7404	0.9501	0.3768	-0.054
Mof_H 	H 	0.6821	0.8581	0.3753	-0.016
Mof_H 	H 	0.8111	0.8287	0.5713	-0.021
Mof_Zn	Zn	0.26793	0.37508	0.92248	1.25
Mof_Zn	Zn	0.22789	0.31129	0.0798	1.21
Mof_P 	P 	0.26566	0.43915	0.96814	0.724
Mof_P 	P 	0.21089	0.34959	0.85103	0.434
Mof_P 	P 	0.28759	0.33404	0.14037	0.447
Mof_O 	O 	0.28731	0.46165	0.9519	-0.858
Mof_O 	O 	0.25676	0.43466	0.1135	-0.993
Mof_O 	O 	0.27665	0.41304	0.9065	-0.459
Mof_O 	O 	0.21561	0.32027	0.9007	-0.427
Mof_O 	O 	0.22757	0.3706	0.9286	-0.437
Mof_O 	O 	0.21436	0.35065	0.7019	-0.464
Mof_O 	O 	0.21454	0.27478	0.1233	-0.442
Mof_O 	O 	0.28153	0.36308	0.095	-0.476
Mof_O 	O 	0.28958	0.33414	0.29	-0.451
Mof_O 	O 	0.26822	0.3121	0.083	-0.511
Mof_H 	H 	0.2404	0.4501	0.8768	-0.042
Mof_H 	H 	0.1821	0.3581	0.8753	0.008
Mof_H 	H 	0.3111	0.3287	0.0713	-0.051
Mof_Zn	Zn	0.62508	0.51793	0.67248	1.233
Mof_Zn	Zn	0.56129	0.47789	0.8298	1.234
Mof_P 	P 	0.68915	0.51566	0.71814	0.652
Mof_P 	P 	0.59959	0.46089	0.60103	0.432
Mof_P 	P 	0.58404	0.53759	0.89037	0.524
Mof_O 	O 	0.71165	0.53731	0.7019	-0.954
Mof_O 	O 	0.68466	0.50676	0.8635	-0.821
Mof_O 	O 	0.66304	0.52665	0.6565	-0.468
Mof_O 	O 	0.57027	0.46561	0.6507	-0.465
Mof_O 	O 	0.6206	0.47757	0.6786	-0.465
Mof_O 	O 	0.60065	0.46436	0.4519	-0.468
Mof_O 	O 	0.52478	0.46454	0.8733	-0.408
Mof_O 	O 	0.61308	0.53153	0.845	-0.417
Mof_O 	O 	0.58414	0.53958	0.04	-0.521
Mof_O 	O 	0.5621	0.51822	0.833	-0.466
Mof_H 	H 	0.7001	0.4904	0.6268	-0.051
Mof_H 	H 	0.6081	0.4321	0.6253	-0.004
Mof_H 	H 	0.5787	0.5611	0.8213	-0.018
Mof_Zn	Zn	0.12508	0.01793	0.17248	1.225
Mof_Zn	Zn	0.06129	0.97789	0.3298	1.23
Mof_P 	P 	0.18915	0.01566	0.21814	0.655
Mof_P 	P 	0.09959	0.96089	0.10103	0.361
Mof_P 	P 	0.08404	0.03759	0.39037	0.447
Mof_O 	O 	0.21165	0.03731	0.2019	-0.982
Mof_O 	O 	0.18466	0.00676	0.3635	-0.929
Mof_O 	O 	0.16304	0.02665	0.1565	-0.502
Mof_O 	O 	0.07027	0.96561	0.1507	-0.477
Mof_O 	O 	0.1206	0.97757	0.1786	-0.474
Mof_O 	O 	0.10065	0.96436	0.9519	-0.39
Mof_O 	O 	0.02478	0.96454	0.3733	-0.436
Mof_O 	O 	0.11308	0.03153	0.345	-0.437
Mof_O 	O 	0.08414	0.03958	0.54	-0.447
Mof_O 	O 	0.0621	0.01822	0.333	-0.488
Mof_H 	H 	0.2001	0.9904	0.1268	-0.073
Mof_H 	H 	0.1081	0.9321	0.1253	-0.023
Mof_H 	H 	0.0787	0.0611	0.3213	-0.035
Mof_Zn	Zn	0.87492	0.48207	0.17248	1.226
Mof_Zn	Zn	0.93871	0.52211	0.3298	1.229
Mof_P 	P 	0.81085	0.48434	0.21814	0.659
Mof_P 	P 	0.90041	0.53911	0.10103	0.361
Mof_P 	P 	0.91596	0.46241	0.39037	0.447
Mof_O 	O 	0.78835	0.46269	0.2019	-0.983
Mof_O 	O 	0.81534	0.49324	0.3635	-0.931
Mof_O 	O 	0.83696	0.47335	0.1565	-0.502
Mof_O 	O 	0.92973	0.53439	0.1507	-0.479
Mof_O 	O 	0.8794	0.52243	0.1786	-0.477
Mof_O 	O 	0.89935	0.53564	0.9519	-0.391
Mof_O 	O 	0.97522	0.53546	0.3733	-0.437
Mof_O 	O 	0.88692	0.46847	0.345	-0.436
Mof_O 	O 	0.91586	0.46042	0.54	-0.446
Mof_O 	O 	0.9379	0.48178	0.333	-0.484
Mof_H 	H 	0.7999	0.5096	0.1268	-0.077
Mof_H 	H 	0.8919	0.5679	0.1253	-0.023
Mof_H 	H 	0.9213	0.4389	0.3213	-0.035
Mof_Zn	Zn	0.37492	0.98207	0.67248	1.234
Mof_Zn	Zn	0.43871	0.02211	0.8298	1.233
Mof_P 	P 	0.31085	0.98434	0.71814	0.655
Mof_P 	P 	0.40041	0.03911	0.60103	0.432
Mof_P 	P 	0.41596	0.96241	0.89037	0.524
Mof_O 	O 	0.28835	0.96269	0.7019	-0.954
Mof_O 	O 	0.31534	0.99324	0.8635	-0.814
Mof_O 	O 	0.33696	0.97335	0.6565	-0.467
Mof_O 	O 	0.42973	0.03439	0.6507	-0.467
Mof_O 	O 	0.3794	0.02243	0.6786	-0.467
Mof_O 	O 	0.39935	0.03564	0.4519	-0.469
Mof_O 	O 	0.47522	0.03546	0.8733	-0.409
Mof_O 	O 	0.38692	0.96847	0.845	-0.416
Mof_O 	O 	0.41586	0.96042	0.04	-0.52
Mof_O 	O 	0.4379	0.98178	0.833	-0.463
Mof_H 	H 	0.2999	0.0096	0.6268	-0.055
Mof_H 	H 	0.3919	0.0679	0.6253	-0.005
Mof_H 	H 	0.4213	0.9389	0.8213	-0.018
Mof_Zn	Zn	0.23207	0.87508	0.42248	1.232
Mof_Zn	Zn	0.27211	0.81129	0.5798	1.23
Mof_P 	P 	0.23434	0.93915	0.46814	0.663
Mof_P 	P 	0.28911	0.84959	0.35103	0.432
Mof_P 	P 	0.21241	0.83404	0.64037	0.446
Mof_O 	O 	0.21269	0.96165	0.4519	-0.961
Mof_O 	O 	0.24324	0.93466	0.6135	-0.928
Mof_O 	O 	0.22335	0.91304	0.4065	-0.477
Mof_O 	O 	0.28439	0.82027	0.4007	-0.474
Mof_O 	O 	0.27243	0.8706	0.4286	-0.471
Mof_O 	O 	0.28564	0.85065	0.2019	-0.492
Mof_O 	O 	0.28546	0.77478	0.6233	-0.432
Mof_O 	O 	0.21847	0.86308	0.595	-0.426
Mof_O 	O 	0.21042	0.83414	0.79	-0.42
Mof_O 	O 	0.23178	0.8121	0.583	-0.476
Mof_H 	H 	0.2596	0.9501	0.3768	-0.054
Mof_H 	H 	0.3179	0.8581	0.3753	-0.016
Mof_H 	H 	0.1889	0.8287	0.5713	-0.021
Mof_Zn	Zn	0.73207	0.37508	0.92248	1.25
Mof_Zn	Zn	0.77211	0.31129	0.0798	1.21
Mof_P 	P 	0.73434	0.43915	0.96814	0.724
Mof_P 	P 	0.78911	0.34959	0.85103	0.434
Mof_P 	P 	0.71241	0.33404	0.14037	0.447
Mof_O 	O 	0.71269	0.46165	0.9519	-0.858
Mof_O 	O 	0.74324	0.43466	0.1135	-0.993
Mof_O 	O 	0.72335	0.41304	0.9065	-0.459
Mof_O 	O 	0.78439	0.32027	0.9007	-0.427
Mof_O 	O 	0.77243	0.3706	0.9286	-0.437
Mof_O 	O 	0.78564	0.35065	0.7019	-0.464
Mof_O 	O 	0.78546	0.27478	0.1233	-0.442
Mof_O 	O 	0.71847	0.36308	0.095	-0.476
Mof_O 	O 	0.71042	0.33414	0.29	-0.451
Mof_O 	O 	0.73178	0.3121	0.083	-0.511
Mof_H 	H 	0.7596	0.4501	0.8768	-0.042
Mof_H 	H 	0.8179	0.3581	0.8753	0.008
Mof_H 	H 	0.6889	0.3287	0.0713	-0.051
Mof_Zn	Zn	0.26793	0.12492	0.92248	1.25
Mof_Zn	Zn	0.22789	0.18871	0.0798	1.21
Mof_P 	P 	0.26566	0.06085	0.96814	0.723
Mof_P 	P 	0.21089	0.15041	0.85103	0.434
Mof_P 	P 	0.28759	0.16596	0.14037	0.447
Mof_O 	O 	0.28731	0.03835	0.9519	-0.855
Mof_O 	O 	0.25676	0.06534	0.1135	-0.992
Mof_O 	O 	0.27665	0.08696	0.9065	-0.459
Mof_O 	O 	0.21561	0.17973	0.9007	-0.427
Mof_O 	O 	0.22757	0.1294	0.9286	-0.437
Mof_O 	O 	0.21436	0.14935	0.7019	-0.464
Mof_O 	O 	0.21454	0.22522	0.1233	-0.442
Mof_O 	O 	0.28153	0.13692	0.095	-0.476
Mof_O 	O 	0.28958	0.16586	0.29	-0.451
Mof_O 	O 	0.26822	0.1879	0.083	-0.511
Mof_H 	H 	0.2404	0.0499	0.8768	-0.042
Mof_H 	H 	0.1821	0.1419	0.8753	0.008
Mof_H 	H 	0.3111	0.1713	0.0713	-0.051
Mof_Zn	Zn	0.76793	0.62492	0.42248	1.232
Mof_Zn	Zn	0.72789	0.68871	0.5798	1.23
Mof_P 	P 	0.76566	0.56085	0.46814	0.664
Mof_P 	P 	0.71089	0.65041	0.35103	0.432
Mof_P 	P 	0.78759	0.66596	0.64037	0.446
Mof_O 	O 	0.78731	0.53835	0.4519	-0.968
Mof_O 	O 	0.75676	0.56534	0.6135	-0.928
Mof_O 	O 	0.77665	0.58696	0.4065	-0.477
Mof_O 	O 	0.71561	0.67973	0.4007	-0.474
Mof_O 	O 	0.72757	0.6294	0.4286	-0.471
Mof_O 	O 	0.71436	0.64935	0.2019	-0.492
Mof_O 	O 	0.71454	0.72522	0.6233	-0.432
Mof_O 	O 	0.78153	0.63692	0.595	-0.426
Mof_O 	O 	0.78958	0.66586	0.79	-0.42
Mof_O 	O 	0.76822	0.6879	0.583	-0.476
Mof_H 	H 	0.7404	0.5499	0.3768	-0.055
Mof_H 	H 	0.6821	0.6419	0.3753	-0.016
Mof_H 	H 	0.8111	0.6713	0.5713	-0.021
Mof_Zn	Zn	0.87492	0.51793	0.82752	1.237
Mof_Zn	Zn	0.93871	0.47789	0.6702	1.231
Mof_P 	P 	0.81085	0.51566	0.78186	0.668
Mof_P 	P 	0.90041	0.46089	0.89897	0.503
Mof_P 	P 	0.91596	0.53759	0.60963	0.447
Mof_O 	O 	0.78835	0.53731	0.7981	-0.951
Mof_O 	O 	0.81534	0.50676	0.6365	-0.93
Mof_O 	O 	0.83696	0.52665	0.8435	-0.45
Mof_O 	O 	0.92973	0.46561	0.8493	-0.454
Mof_O 	O 	0.8794	0.47757	0.8214	-0.466
Mof_O 	O 	0.89935	0.46436	0.0481	-0.543
Mof_O 	O 	0.97522	0.46454	0.6267	-0.435
Mof_O 	O 	0.88692	0.53153	0.655	-0.428
Mof_O 	O 	0.91586	0.53958	0.46	-0.445
Mof_O 	O 	0.9379	0.51822	0.667	-0.469
Mof_H 	H 	0.7999	0.4904	0.8732	-0.032
Mof_H 	H 	0.8919	0.4321	0.8747	0.004
Mof_H 	H 	0.9213	0.5611	0.6787	-0.015
Mof_Zn	Zn	0.37492	0.01793	0.32752	1.229
Mof_Zn	Zn	0.43871	0.97789	0.1702	1.226
Mof_P 	P 	0.31085	0.01566	0.28186	0.648
Mof_P 	P 	0.40041	0.96089	0.39897	0.431
Mof_P 	P 	0.41596	0.03759	0.10963	0.369
Mof_O 	O 	0.28835	0.03731	0.2981	-0.967
Mof_O 	O 	0.31534	0.00676	0.1365	-0.89
Mof_O 	O 	0.33696	0.02665	0.3435	-0.481
Mof_O 	O 	0.42973	0.96561	0.3493	-0.468
Mof_O 	O 	0.3794	0.97757	0.3214	-0.476
Mof_O 	O 	0.39935	0.96436	0.5481	-0.464
Mof_O 	O 	0.47522	0.96454	0.1267	-0.464
Mof_O 	O 	0.38692	0.03153	0.155	-0.448
Mof_O 	O 	0.41586	0.03958	0.96	-0.37
Mof_O 	O 	0.4379	0.01822	0.167	-0.492
Mof_H 	H 	0.2999	0.9904	0.3732	-0.049
Mof_H 	H 	0.3919	0.9321	0.3747	-0.015
Mof_H 	H 	0.4213	0.0611	0.1787	-0.032
Mof_Zn	Zn	0.62508	0.48207	0.32752	1.23
Mof_Zn	Zn	0.56129	0.52211	0.1702	1.225
Mof_P 	P 	0.68915	0.48434	0.28186	0.652
Mof_P 	P 	0.59959	0.53911	0.39897	0.431
Mof_P 	P 	0.58404	0.46241	0.10963	0.369
Mof_O 	O 	0.71165	0.46269	0.2981	-0.967
Mof_O 	O 	0.68466	0.49324	0.1365	-0.893
Mof_O 	O 	0.66304	0.47335	0.3435	-0.48
Mof_O 	O 	0.57027	0.53439	0.3493	-0.47
Mof_O 	O 	0.6206	0.52243	0.3214	-0.479
Mof_O 	O 	0.60065	0.53564	0.5481	-0.465
Mof_O 	O 	0.52478	0.53546	0.1267	-0.466
Mof_O 	O 	0.61308	0.46847	0.155	-0.446
Mof_O 	O 	0.58414	0.46042	0.96	-0.369
Mof_O 	O 	0.5621	0.48178	0.167	-0.488
Mof_H 	H 	0.7001	0.5096	0.3732	-0.053
Mof_H 	H 	0.6081	0.5679	0.3747	-0.015
Mof_H 	H 	0.5787	0.4389	0.1787	-0.032
Mof_Zn	Zn	0.12508	0.98207	0.82752	1.238
Mof_Zn	Zn	0.06129	0.02211	0.6702	1.23
Mof_P 	P 	0.18915	0.98434	0.78186	0.671
Mof_P 	P 	0.09959	0.03911	0.89897	0.503
Mof_P 	P 	0.08404	0.96241	0.60963	0.447
Mof_O 	O 	0.21165	0.96269	0.7981	-0.95
Mof_O 	O 	0.18466	0.99324	0.6365	-0.922
Mof_O 	O 	0.16304	0.97335	0.8435	-0.449
Mof_O 	O 	0.07027	0.03439	0.8493	-0.455
Mof_O 	O 	0.1206	0.02243	0.8214	-0.469
Mof_O 	O 	0.10065	0.03564	0.0481	-0.544
Mof_O 	O 	0.02478	0.03546	0.6267	-0.436
Mof_O 	O 	0.11308	0.96847	0.655	-0.427
Mof_O 	O 	0.08414	0.96042	0.46	-0.444
Mof_O 	O 	0.0621	0.98178	0.667	-0.466
Mof_H 	H 	0.2001	0.0096	0.8732	-0.035
Mof_H 	H 	0.1081	0.0679	0.8747	0.004
Mof_H 	H 	0.0787	0.9389	0.6787	-0.015
Mof_Zn	Zn	0.26793	0.87508	0.07752	1.214
Mof_Zn	Zn	0.22789	0.81129	0.9202	1.249
Mof_P 	P 	0.26566	0.93915	0.03186	0.577
Mof_P 	P 	0.21089	0.84959	0.14897	0.429
Mof_P 	P 	0.28759	0.83404	0.85963	0.447
Mof_O 	O 	0.28731	0.96165	0.0481	-0.911
Mof_O 	O 	0.25676	0.93466	0.8865	-0.858
Mof_O 	O 	0.27665	0.91304	0.0935	-0.488
Mof_O 	O 	0.21561	0.82027	0.0993	-0.506
Mof_O 	O 	0.22757	0.8706	0.0714	-0.505
Mof_O 	O 	0.21436	0.85065	0.2981	-0.469
Mof_O 	O 	0.21454	0.77478	0.8767	-0.432
Mof_O 	O 	0.28153	0.86308	0.905	-0.389
Mof_O 	O 	0.28958	0.83414	0.71	-0.441
Mof_O 	O 	0.26822	0.8121	0.917	-0.445
Mof_H 	H 	0.2404	0.9501	0.1232	-0.059
Mof_H 	H 	0.1821	0.8581	0.1247	-0.027
Mof_H 	H 	0.3111	0.8287	0.9287	-0
Mof_Zn	Zn	0.76793	0.37508	0.57752	1.232
Mof_Zn	Zn	0.72789	0.31129	0.4202	1.23
Mof_P 	P 	0.76566	0.43915	0.53186	0.663
Mof_P 	P 	0.71089	0.34959	0.64897	0.431
Mof_P 	P 	0.78759	0.33404	0.35963	0.448
Mof_O 	O 	0.78731	0.46165	0.5481	-0.966
Mof_O 	O 	0.75676	0.43466	0.3865	-0.933
Mof_O 	O 	0.77665	0.41304	0.5935	-0.474
Mof_O 	O 	0.71561	0.32027	0.5993	-0.46
Mof_O 	O 	0.72757	0.3706	0.5714	-0.472
Mof_O 	O 	0.71436	0.35065	0.7981	-0.44
Mof_O 	O 	0.71454	0.27478	0.3767	-0.442
Mof_O 	O 	0.78153	0.36308	0.405	-0.438
Mof_O 	O 	0.78958	0.33414	0.21	-0.472
Mof_O 	O 	0.76822	0.3121	0.417	-0.478
Mof_H 	H 	0.7404	0.4501	0.6232	-0.054
Mof_H 	H 	0.6821	0.3581	0.6247	-0.004
Mof_H 	H 	0.8111	0.3287	0.4287	-0.029
Mof_Zn	Zn	0.23207	0.12492	0.57752	1.232
Mof_Zn	Zn	0.27211	0.18871	0.4202	1.23
Mof_P 	P 	0.23434	0.06085	0.53186	0.662
Mof_P 	P 	0.28911	0.15041	0.64897	0.431
Mof_P 	P 	0.21241	0.16596	0.35963	0.448
Mof_O 	O 	0.21269	0.03835	0.5481	-0.962
Mof_O 	O 	0.24324	0.06534	0.3865	-0.932
Mof_O 	O 	0.22335	0.08696	0.5935	-0.474
Mof_O 	O 	0.28439	0.17973	0.5993	-0.46
Mof_O 	O 	0.27243	0.1294	0.5714	-0.472
Mof_O 	O 	0.28564	0.14935	0.7981	-0.44
Mof_O 	O 	0.28546	0.22522	0.3767	-0.442
Mof_O 	O 	0.21847	0.13692	0.405	-0.438
Mof_O 	O 	0.21042	0.16586	0.21	-0.472
Mof_O 	O 	0.23178	0.1879	0.417	-0.478
Mof_H 	H 	0.2596	0.0499	0.6232	-0.055
Mof_H 	H 	0.3179	0.1419	0.6247	-0.004
Mof_H 	H 	0.1889	0.1713	0.4287	-0.029
Mof_Zn	Zn	0.73207	0.62492	0.07752	1.214
Mof_Zn	Zn	0.77211	0.68871	0.9202	1.249
Mof_P 	P 	0.73434	0.56085	0.03186	0.578
Mof_P 	P 	0.78911	0.65041	0.14897	0.429
Mof_P 	P 	0.71241	0.66596	0.85963	0.447
Mof_O 	O 	0.71269	0.53835	0.0481	-0.918
Mof_O 	O 	0.74324	0.56534	0.8865	-0.858
Mof_O 	O 	0.72335	0.58696	0.0935	-0.488
Mof_O 	O 	0.78439	0.67973	0.0993	-0.506
Mof_O 	O 	0.77243	0.6294	0.0714	-0.505
Mof_O 	O 	0.78564	0.64935	0.2981	-0.469
Mof_O 	O 	0.78546	0.72522	0.8767	-0.432
Mof_O 	O 	0.71847	0.63692	0.905	-0.389
Mof_O 	O 	0.71042	0.66586	0.71	-0.441
Mof_O 	O 	0.73178	0.6879	0.917	-0.445
Mof_H 	H 	0.7596	0.5499	0.1232	-0.06
Mof_H 	H 	0.8179	0.6419	0.1247	-0.027
Mof_H 	H 	0.6889	0.6713	0.9287	-0
Mof_Ga	Ga	0.25	0.4629	0.25	4.297
Mof_Ga	Ga	0.75	0.9629	0.75	4.314
Mof_Ga	Ga	0.25	0.5371	0.75	4.312
Mof_Ga	Ga	0.75	0.0371	0.25	4.294
Mof_Ga	Ga	0.7871	0	0.5	4.276
Mof_Ga	Ga	0.2871	0.5	-0	3.873
Mof_Ga	Ga	0.7129	0	-0	3.845
Mof_Ga	Ga	0.2129	0.5	0.5	4.306
Mof_Ga	Ga	0.75	0.5371	0.75	4.312
Mof_Ga	Ga	0.25	0.0371	0.25	4.294
Mof_Ga	Ga	0.75	0.4629	0.25	4.297
Mof_Ga	Ga	0.25	0.9629	0.75	4.314
Mof_Ga	Ga	0.2129	0	0.5	4.276
Mof_Ga	Ga	0.7129	0.5	-0	3.873
Mof_Ga	Ga	0.2871	0	-0	3.845
Mof_Ga	Ga	0.7871	0.5	0.5	4.306
Mof_Zn	Zn	0.5	0.5	0.5	1.152
Mof_Zn	Zn	-0	0	-0	1.122
Mof_Zn	Zn	-4.31174e-33	0.5	-0	1.124
Mof_Zn	Zn	0.5	0	0.5	1.15
Mof_Zn	Zn	0.75	0.25	0.75	1.158
Mof_Zn	Zn	0.75	0.75	0.25	1.147
Mof_Zn	Zn	0.25	0.75	0.25	1.147
Mof_Zn	Zn	0.25	0.25	0.75	1.158
Mof_P 	P 	0.5	0.5348	0.21509	0.476
Mof_O 	O 	0.5	0.51043	0.3089	-0.536
Mof_H 	H 	0.5	0.5577	0.2881	-0.074
Mof_P 	P 	-5.23908e-34	0.0348	0.71509	0.474
Mof_O 	O 	6.26707e-34	0.01043	0.8089	-0.499
Mof_H 	H 	-1.54528e-33	0.0577	0.7881	-0.055
Mof_P 	P 	-4.83564e-33	0.4652	0.71509	0.474
Mof_O 	O 	-5.8409e-33	0.48957	0.8089	-0.497
Mof_H 	H 	6.10592e-34	0.4423	0.7881	-0.054
Mof_P 	P 	0.5	0.9652	0.21509	0.476
Mof_O 	O 	0.5	0.98957	0.3089	-0.532
Mof_H 	H 	0.5	0.9423	0.2881	-0.073
Mof_P 	P 	0.7152	0.25	0.46509	0.475
Mof_O 	O 	0.73957	0.25	0.5589	-0.524
Mof_H 	H 	0.6923	0.25	0.5381	-0.064
Mof_P 	P 	0.7848	0.75	0.96509	0.611
Mof_O 	O 	0.76043	0.75	0.0589	-0.615
Mof_H 	H 	0.8077	0.75	0.0381	-0.136
Mof_P 	P 	-3.18229e-34	0.5348	0.28491	0.473
Mof_O 	O 	-2.81626e-33	0.51043	0.1911	-0.547
Mof_H 	H 	-6.30343e-33	0.5577	0.2119	-0.081
Mof_P 	P 	0.5	0.0348	0.78491	0.474
Mof_O 	O 	0.5	0.01043	0.6911	-0.524
Mof_H 	H 	0.5	0.0577	0.7119	-0.064
Mof_P 	P 	0.5	0.4652	0.78491	0.474
Mof_O 	O 	0.5	0.48957	0.6911	-0.522
Mof_H 	H 	0.5	0.4423	0.7119	-0.064
Mof_P 	P 	1.2617e-32	0.9652	0.28491	0.473
Mof_O 	O 	-7.128e-33	0.98957	0.1911	-0.543
Mof_H 	H 	-1.06152e-32	0.9423	0.2119	-0.081
Mof_P 	P 	0.7848	0.25	0.03491	0.33
Mof_O 	O 	0.76043	0.25	0.9411	-0.437
Mof_H 	H 	0.8077	0.25	0.9619	0.003
Mof_P 	P 	0.7152	0.75	0.53491	0.474
Mof_O 	O 	0.73957	0.75	0.4411	-0.533
Mof_H 	H 	0.6923	0.75	0.4619	-0.074
Mof_P 	P 	0.2848	0.75	0.53491	0.474
Mof_O 	O 	0.26043	0.75	0.4411	-0.533
Mof_H 	H 	0.3077	0.75	0.4619	-0.074
Mof_P 	P 	0.2152	0.25	0.03491	0.33
Mof_O 	O 	0.23957	0.25	0.9411	-0.437
Mof_H 	H 	0.1923	0.25	0.9619	0.003
Mof_P 	P 	0.2152	0.75	0.96509	0.611
Mof_O 	O 	0.23957	0.75	0.0589	-0.615
Mof_H 	H 	0.1923	0.75	0.0381	-0.136
Mof_P 	P 	0.2848	0.25	0.46509	0.475
Mof_O 	O 	0.26043	0.25	0.5589	-0.524
Mof_H 	H 	0.3077	0.25	0.5381	-0.064
Mof_F 	F 	0.24265	0.49265	0.375	-1.44
Mof_F 	F 	0.25735	0.50735	0.875	-1.357
Mof_F 	F 	0.75735	0.99265	0.625	-1.435
Mof_F 	F 	0.74265	0.00735	0.125	-1.408
Mof_F 	F 	0.25735	0.49265	0.125	-1.41
Mof_F 	F 	0.24265	0.50735	0.625	-1.442
Mof_F 	F 	0.74265	0.99265	0.875	-1.35
Mof_F 	F 	0.75735	0.00735	0.375	-1.438
Mof_F 	F 	0.75735	0.50735	0.625	-1.442
Mof_F 	F 	0.74265	0.49265	0.125	-1.41
Mof_F 	F 	0.24265	0.99265	0.625	-1.435
Mof_F 	F 	0.24265	0.00735	0.375	-1.438
Mof_F 	F 	0.25735	0.99265	0.875	-1.35
Mof_F 	F 	0.74265	0.50735	0.875	-1.357
Mof_F 	F 	0.75735	0.49265	0.375	-1.44
Mof_F 	F 	0.25735	0.00735	0.125	-1.408
_end
