data_functionalizedCrystal
_audit_creation_method	'EQeq! by Chris Wilmer'
_symmetry_space_group_name_H-M	'P1'
_symmetry_Int_Tables_number	1
_symmetry_cell_setting	triclinic
loop_
_symmetry_equiv_pos_as_xyz
  x,y,z
_cell_length_a	18.618
_cell_length_b	8.7601
_cell_length_c	17.484
_cell_angle_alpha	90
_cell_angle_beta	93.43
_cell_angle_gamma	90
loop_
_atom_site_label
_atom_site_type_symbol
_atom_site_fract_x
_atom_site_fract_y
_atom_site_fract_z
_atom_site_charge
Mof_Zn	Zn	0.32058	0.9745	0.09684	1.233
Mof_Zn	Zn	0.01556	0.99122	0.1155	1.235
Mof_Zn	Zn	0.40725	0.48156	0.26241	1.238
Mof_Zn	Zn	0.15988	0.48774	0.08921	1.239
Mof_P 	P 	0.16524	0.84547	0.08224	0.442
Mof_H 	H 	0.165	0.94	0.025	-0.058
Mof_P 	P 	0.3107	0.33396	0.13306	0.454
Mof_H 	H 	0.372	0.339	0.1	-0.056
Mof_P 	P 	0.95364	0.7402	0.99768	0.459
Mof_H 	H 	0.004	0.653	0.023	-0.064
Mof_P 	P 	0.96333	0.01967	0.29259	0.502
Mof_H 	H 	0.984	0.159	0.319	-0.042
Mof_P 	P 	0.38641	0.01758	0.93814	0.409
Mof_H 	H 	0.451	0.988	0.968	-0.048
Mof_P 	P 	0.45105	0.80003	0.17605	0.468
Mof_H 	H 	0.471	0.78	0.103	-0.048
Mof_O 	O 	0.2391	0.848	0.1239	-0.419
Mof_O 	O 	0.2834	0.1723	0.1236	-0.435
Mof_O 	O 	0.3392	0.9306	0.9923	-0.416
Mof_O 	O 	0.3949	0.9264	0.1758	-0.443
Mof_O 	O 	0.1082	0.8961	0.1358	-0.438
Mof_O 	O 	0.9478	0.8709	0.0536	-0.455
Mof_O 	O 	0.9686	0.0247	0.2081	-0.423
Mof_O 	O 	0.9773	0.7962	0.9198	-0.467
Mof_O 	O 	0.323	0.3733	0.2171	-0.419
Mof_O 	O 	0.38	0.9374	0.8606	-0.401
Mof_O 	O 	0.5158	0.8355	0.2292	-0.454
Mof_O 	O 	0.4187	0.6477	0.1925	-0.445
Mof_O 	O 	0.8858	0.6454	0.9902	-0.415
Mof_O 	O 	0.1483	0.6926	0.0451	-0.426
Mof_O 	O 	0.2611	0.4467	0.0889	-0.424
Mof_O 	O 	0.8897	0.9785	0.3176	-0.449
Mof_O 	O 	0.0223	0.9123	0.3296	-0.464
Mof_H 	H 	0.0036	0.8505	0.3575	0.292
Mof_O 	O 	0.3738	0.1849	0.9353	-0.264
Mof_Zn	Zn	0.67942	0.4745	0.40316	1.234
Mof_Zn	Zn	0.98444	0.49122	0.3845	1.237
Mof_Zn	Zn	0.59275	0.98156	0.23759	1.236
Mof_Zn	Zn	0.84012	0.98774	0.41079	1.24
Mof_P 	P 	0.83476	0.34547	0.41776	0.442
Mof_H 	H 	0.835	0.44	0.475	-0.055
Mof_P 	P 	0.6893	0.83396	0.36694	0.454
Mof_H 	H 	0.628	0.839	0.4	-0.056
Mof_P 	P 	0.04636	0.2402	0.50232	0.458
Mof_H 	H 	0.996	0.153	0.477	-0.061
Mof_P 	P 	0.03667	0.51967	0.20741	0.496
Mof_H 	H 	0.016	0.659	0.181	-0.044
Mof_P 	P 	0.61359	0.51758	0.56186	0.423
Mof_H 	H 	0.549	0.488	0.532	-0.054
Mof_P 	P 	0.54895	0.30003	0.32395	0.468
Mof_H 	H 	0.529	0.28	0.397	-0.046
Mof_O 	O 	0.7609	0.348	0.3761	-0.416
Mof_O 	O 	0.7166	0.6723	0.3764	-0.438
Mof_O 	O 	0.6608	0.4306	0.5077	-0.425
Mof_O 	O 	0.6051	0.4264	0.3242	-0.441
Mof_O 	O 	0.8918	0.3961	0.3642	-0.435
Mof_O 	O 	0.0522	0.3709	0.4464	-0.457
Mof_O 	O 	0.0314	0.5247	0.2919	-0.428
Mof_O 	O 	0.0227	0.2962	0.5802	-0.468
Mof_O 	O 	0.677	0.8733	0.2829	-0.421
Mof_O 	O 	0.62	0.4374	0.6394	-0.407
Mof_O 	O 	0.4842	0.3355	0.2708	-0.452
Mof_O 	O 	0.5813	0.1477	0.3075	-0.443
Mof_O 	O 	0.1142	0.1454	0.5098	-0.414
Mof_O 	O 	0.8517	0.1926	0.4549	-0.425
Mof_O 	O 	0.7389	0.9467	0.4111	-0.423
Mof_O 	O 	0.1103	0.4785	0.1824	-0.448
Mof_O 	O 	0.9777	0.4123	0.1704	-0.457
Mof_H 	H 	0.9964	0.3505	0.1425	0.293
Mof_O 	O 	0.6262	0.6849	0.5647	-0.264
Mof_Zn	Zn	0.67942	0.0255	0.90316	1.232
Mof_Zn	Zn	0.98444	0.00878	0.8845	1.234
Mof_Zn	Zn	0.59275	0.51844	0.73759	1.238
Mof_Zn	Zn	0.84012	0.51226	0.91079	1.239
Mof_P 	P 	0.83476	0.15453	0.91776	0.442
Mof_H 	H 	0.835	0.06	0.975	-0.058
Mof_P 	P 	0.6893	0.66604	0.86694	0.454
Mof_H 	H 	0.628	0.661	0.9	-0.056
Mof_P 	P 	0.04636	0.2598	0.00232	0.459
Mof_H 	H 	0.996	0.347	0.977	-0.064
Mof_P 	P 	0.03667	0.98033	0.70741	0.502
Mof_H 	H 	0.016	0.841	0.681	-0.042
Mof_P 	P 	0.61359	0.98242	0.06186	0.409
Mof_H 	H 	0.549	0.012	0.032	-0.048
Mof_P 	P 	0.54895	0.19997	0.82395	0.468
Mof_H 	H 	0.529	0.22	0.897	-0.048
Mof_O 	O 	0.7609	0.152	0.8761	-0.419
Mof_O 	O 	0.7166	0.8277	0.8764	-0.435
Mof_O 	O 	0.6608	0.0694	0.0077	-0.416
Mof_O 	O 	0.6051	0.0736	0.8242	-0.443
Mof_O 	O 	0.8918	0.1039	0.8642	-0.438
Mof_O 	O 	0.0522	0.1291	0.9464	-0.455
Mof_O 	O 	0.0314	0.9753	0.7919	-0.423
Mof_O 	O 	0.0227	0.2038	0.0802	-0.467
Mof_O 	O 	0.677	0.6267	0.7829	-0.419
Mof_O 	O 	0.62	0.0626	0.1394	-0.401
Mof_O 	O 	0.4842	0.1645	0.7708	-0.454
Mof_O 	O 	0.5813	0.3523	0.8075	-0.445
Mof_O 	O 	0.1142	0.3546	0.0098	-0.415
Mof_O 	O 	0.8517	0.3074	0.9549	-0.426
Mof_O 	O 	0.7389	0.5533	0.9111	-0.424
Mof_O 	O 	0.1103	0.0215	0.6824	-0.449
Mof_O 	O 	0.9777	0.0877	0.6704	-0.464
Mof_H 	H 	0.9964	0.1495	0.6425	0.292
Mof_O 	O 	0.6262	0.8151	0.0647	-0.264
Mof_Zn	Zn	0.32058	0.5255	0.59684	1.234
Mof_Zn	Zn	0.01556	0.50878	0.6155	1.237
Mof_Zn	Zn	0.40725	0.01844	0.76241	1.236
Mof_Zn	Zn	0.15988	0.01226	0.58921	1.24
Mof_P 	P 	0.16524	0.65453	0.58224	0.442
Mof_H 	H 	0.165	0.56	0.525	-0.055
Mof_P 	P 	0.3107	0.16604	0.63306	0.454
Mof_H 	H 	0.372	0.161	0.6	-0.056
Mof_P 	P 	0.95364	0.7598	0.49768	0.458
Mof_H 	H 	0.004	0.847	0.523	-0.061
Mof_P 	P 	0.96333	0.48033	0.79259	0.496
Mof_H 	H 	0.984	0.341	0.819	-0.044
Mof_P 	P 	0.38641	0.48242	0.43814	0.423
Mof_H 	H 	0.451	0.512	0.468	-0.054
Mof_P 	P 	0.45105	0.69997	0.67605	0.468
Mof_H 	H 	0.471	0.72	0.603	-0.046
Mof_O 	O 	0.2391	0.652	0.6239	-0.416
Mof_O 	O 	0.2834	0.3277	0.6236	-0.438
Mof_O 	O 	0.3392	0.5694	0.4923	-0.425
Mof_O 	O 	0.3949	0.5736	0.6758	-0.441
Mof_O 	O 	0.1082	0.6039	0.6358	-0.435
Mof_O 	O 	0.9478	0.6291	0.5536	-0.457
Mof_O 	O 	0.9686	0.4753	0.7081	-0.428
Mof_O 	O 	0.9773	0.7038	0.4198	-0.468
Mof_O 	O 	0.323	0.1267	0.7171	-0.421
Mof_O 	O 	0.38	0.5626	0.3606	-0.407
Mof_O 	O 	0.5158	0.6645	0.7292	-0.452
Mof_O 	O 	0.4187	0.8523	0.6925	-0.443
Mof_O 	O 	0.8858	0.8546	0.4902	-0.414
Mof_O 	O 	0.1483	0.8074	0.5451	-0.425
Mof_O 	O 	0.2611	0.0533	0.5889	-0.423
Mof_O 	O 	0.8897	0.5215	0.8176	-0.448
Mof_O 	O 	0.0223	0.5877	0.8296	-0.457
Mof_H 	H 	0.0036	0.6495	0.8575	0.293
Mof_O 	O 	0.3738	0.3151	0.4353	-0.264
_end
