data_functionalizedCrystal
_audit_creation_method	'EQeq! by Chris Wilmer'
_symmetry_space_group_name_H-M	'P1'
_symmetry_Int_Tables_number	1
_symmetry_cell_setting	triclinic
loop_
_symmetry_equiv_pos_as_xyz
  x,y,z
_cell_length_a	15.005
_cell_length_b	8.341
_cell_length_c	29.272
_cell_angle_alpha	90
_cell_angle_beta	101.167
_cell_angle_gamma	90
loop_
_atom_site_label
_atom_site_type_symbol
_atom_site_fract_x
_atom_site_fract_y
_atom_site_fract_z
_atom_site_charge
Mof_Tb	Tb	0.55869	0.77495	0.51458	2.17
Mof_Cu	Cu	0.6388	0.1793	0.22028	0.734
Mof_Cu	Cu	0.5785	0.88864	0.25173	0.721
Mof_Cu	Cu	0.63676	0.8935	0.17395	0.722
Mof_Cu	Cu	0.48204	0.0505	0.18221	0.718
Mof_I 	I 	0.76113	0.94298	0.25564	-0.746
Mof_I 	I 	0.60034	0.17308	0.12677	-0.559
Mof_I 	I 	0.47761	0.73974	0.17403	-0.595
Mof_I 	I 	0.5054	0.1723	0.2687	-0.579
Mof_O 	O 	0.4453	0.7984	0.44708	-0.545
Mof_O 	O 	0.3724	0.0329	0.43399	-0.565
Mof_O 	O 	0.5736	0.5513	0.46964	-0.57
Mof_O 	O 	0.4681	0.3942	0.42673	-0.545
Mof_O 	O 	0.3379	0.1056	0.52805	-0.517
Mof_O 	O 	0.436	0.904	0.53662	-0.576
Mof_N 	N 	0.13901	0.6551	0.349	-0.203
Mof_C 	C 	0.20992	0.564	0.37362	-0.015
Mof_H 	H 	0.2055	0.4504	0.3738	0.014
Mof_C 	C 	0.28738	0.6391	0.39802	0.002
Mof_H 	H 	0.3359	0.5769	0.4149	0.016
Mof_C 	C 	0.29393	0.8054	0.39781	-0.118
Mof_C 	C 	0.22301	0.8965	0.37319	0.003
Mof_H 	H 	0.2275	0.0101	0.373	0.044
Mof_C 	C 	0.14555	0.8214	0.34878	-0.011
Mof_H 	H 	0.0971	0.8836	0.332	0.029
Mof_C 	C 	0.3782	0.8847	0.42887	0.484
Mof_N 	N 	0.56758	0.7415	0.30562	-0.209
Mof_C 	C 	0.6323	0.7547	0.34641	-0.018
Mof_H 	H 	0.685	0.8183	0.347	0.022
Mof_C 	C 	0.61988	0.6749	0.38639	-0.005
Mof_H 	H 	0.6641	0.684	0.4143	0.04
Mof_C 	C 	0.54273	0.5819	0.38559	-0.106
Mof_C 	C 	0.47801	0.5686	0.34479	-0
Mof_H 	H 	0.4253	0.505	0.3442	0.047
Mof_C 	C 	0.49043	0.6484	0.30481	-0.006
Mof_H 	H 	0.4462	0.6394	0.2769	0.025
Mof_C 	C 	0.5271	0.5041	0.431	0.45
Mof_N 	N 	0.20979	0.7412	0.6357	-0.207
Mof_C 	C 	0.16975	0.8615	0.60575	-0.003
Mof_H 	H 	0.1083	0.8909	0.605	0.029
Mof_C 	C 	0.21958	0.9387	0.57689	-0.015
Mof_H 	H 	0.1922	0.0209	0.5564	0.056
Mof_C 	C 	0.30945	0.8956	0.57798	-0.104
Mof_C 	C 	0.3495	0.7753	0.60792	-0.007
Mof_H 	H 	0.4109	0.7458	0.6087	0.046
Mof_C 	C 	0.29966	0.6981	0.63678	-0.018
Mof_H 	H 	0.327	0.6158	0.6572	0.024
Mof_C 	C 	0.3651	0.9729	0.54494	0.445
Mof_Tb	Tb	0.94131	0.27495	0.98542	2.161
Mof_Cu	Cu	0.8612	0.6793	0.27972	0.733
Mof_Cu	Cu	0.9215	0.38864	0.24827	0.719
Mof_Cu	Cu	0.86324	0.3935	0.32605	0.72
Mof_Cu	Cu	0.01796	0.5505	0.31779	0.718
Mof_I 	I 	0.73887	0.44298	0.24436	-0.749
Mof_I 	I 	0.89966	0.67308	0.37323	-0.557
Mof_I 	I 	0.02239	0.23974	0.32597	-0.594
Mof_I 	I 	0.9946	0.6723	0.2313	-0.576
Mof_O 	O 	0.0547	0.2984	0.05292	-0.544
Mof_O 	O 	0.1276	0.5329	0.06601	-0.565
Mof_O 	O 	0.9264	0.0513	0.03036	-0.569
Mof_O 	O 	0.0319	0.8942	0.07327	-0.547
Mof_O 	O 	0.1621	0.6056	0.97195	-0.516
Mof_O 	O 	0.064	0.404	0.96338	-0.573
Mof_N 	N 	0.36099	0.1551	0.151	-0.203
Mof_C 	C 	0.29008	0.064	0.12638	-0.013
Mof_H 	H 	0.2945	0.9504	0.1262	0.013
Mof_C 	C 	0.21262	0.1391	0.10198	0.002
Mof_H 	H 	0.1641	0.0769	0.0851	0.018
Mof_C 	C 	0.20607	0.3054	0.10219	-0.119
Mof_C 	C 	0.27699	0.3965	0.12681	0.006
Mof_H 	H 	0.2725	0.5101	0.127	0.042
Mof_C 	C 	0.35445	0.3214	0.15122	-0.012
Mof_H 	H 	0.4029	0.3836	0.168	0.03
Mof_C 	C 	0.1218	0.3847	0.07113	0.484
Mof_N 	N 	0.93242	0.2415	0.19438	-0.209
Mof_C 	C 	0.8677	0.2547	0.15359	-0.019
Mof_H 	H 	0.815	0.3183	0.153	0.022
Mof_C 	C 	0.88012	0.1749	0.11361	-0.004
Mof_H 	H 	0.8359	0.184	0.0857	0.039
Mof_C 	C 	0.95727	0.0819	0.11441	-0.108
Mof_C 	C 	0.02199	0.0686	0.15521	0.002
Mof_H 	H 	0.0747	0.005	0.1558	0.047
Mof_C 	C 	0.00957	0.1484	0.19519	-0.006
Mof_H 	H 	0.0538	0.1394	0.2231	0.025
Mof_C 	C 	0.9729	0.0041	0.069	0.452
Mof_N 	N 	0.29021	0.2412	0.8643	-0.206
Mof_C 	C 	0.33025	0.3615	0.89425	-0.005
Mof_H 	H 	0.3917	0.3909	0.895	0.031
Mof_C 	C 	0.28042	0.4387	0.92311	-0.009
Mof_H 	H 	0.3078	0.5209	0.9436	0.053
Mof_C 	C 	0.19055	0.3956	0.92202	-0.105
Mof_C 	C 	0.1505	0.2753	0.89208	-0.006
Mof_H 	H 	0.0891	0.2458	0.8913	0.046
Mof_C 	C 	0.20034	0.1981	0.86322	-0.018
Mof_H 	H 	0.173	0.1158	0.8428	0.025
Mof_C 	C 	0.1349	0.4729	0.95506	0.447
Mof_Tb	Tb	0.44131	0.22505	0.48542	2.169
Mof_Cu	Cu	0.3612	0.8207	0.77972	0.733
Mof_Cu	Cu	0.4215	0.11136	0.74827	0.72
Mof_Cu	Cu	0.36324	0.1065	0.82605	0.721
Mof_Cu	Cu	0.51796	0.9495	0.81779	0.718
Mof_I 	I 	0.23887	0.05702	0.74436	-0.746
Mof_I 	I 	0.39966	0.82692	0.87323	-0.559
Mof_I 	I 	0.52239	0.26026	0.82597	-0.595
Mof_I 	I 	0.4946	0.8277	0.7313	-0.579
Mof_O 	O 	0.5547	0.2016	0.55292	-0.545
Mof_O 	O 	0.6276	0.9671	0.56601	-0.565
Mof_O 	O 	0.4264	0.4487	0.53036	-0.57
Mof_O 	O 	0.5319	0.6058	0.57327	-0.545
Mof_O 	O 	0.6621	0.8944	0.47195	-0.517
Mof_O 	O 	0.564	0.096	0.46338	-0.576
Mof_N 	N 	0.86099	0.3449	0.651	-0.203
Mof_C 	C 	0.79008	0.436	0.62638	-0.015
Mof_H 	H 	0.7945	0.5496	0.6262	0.014
Mof_C 	C 	0.71262	0.3609	0.60198	0.002
Mof_H 	H 	0.6641	0.4231	0.5851	0.016
Mof_C 	C 	0.70607	0.1946	0.60219	-0.118
Mof_C 	C 	0.77699	0.1035	0.62681	0.003
Mof_H 	H 	0.7725	0.9899	0.627	0.044
Mof_C 	C 	0.85445	0.1786	0.65122	-0.011
Mof_H 	H 	0.9029	0.1164	0.668	0.029
Mof_C 	C 	0.6218	0.1153	0.57113	0.484
Mof_N 	N 	0.43242	0.2585	0.69438	-0.209
Mof_C 	C 	0.3677	0.2453	0.65359	-0.018
Mof_H 	H 	0.315	0.1817	0.653	0.022
Mof_C 	C 	0.38012	0.3251	0.61361	-0.005
Mof_H 	H 	0.3359	0.316	0.5857	0.04
Mof_C 	C 	0.45727	0.4181	0.61441	-0.106
Mof_C 	C 	0.52199	0.4314	0.65521	-0
Mof_H 	H 	0.5747	0.495	0.6558	0.047
Mof_C 	C 	0.50957	0.3516	0.69519	-0.006
Mof_H 	H 	0.5538	0.3606	0.7231	0.025
Mof_C 	C 	0.4729	0.4959	0.569	0.45
Mof_N 	N 	0.79021	0.2588	0.3643	-0.207
Mof_C 	C 	0.83025	0.1385	0.39425	-0.003
Mof_H 	H 	0.8917	0.1091	0.395	0.029
Mof_C 	C 	0.78042	0.0613	0.42311	-0.015
Mof_H 	H 	0.8078	0.9791	0.4436	0.056
Mof_C 	C 	0.69055	0.1044	0.42202	-0.104
Mof_C 	C 	0.6505	0.2247	0.39208	-0.007
Mof_H 	H 	0.5891	0.2542	0.3913	0.046
Mof_C 	C 	0.70034	0.3019	0.36322	-0.018
Mof_H 	H 	0.673	0.3842	0.3428	0.024
Mof_C 	C 	0.6349	0.0271	0.45506	0.445
Mof_Tb	Tb	0.05869	0.72505	0.01458	2.161
Mof_Cu	Cu	0.1388	0.3207	0.72028	0.733
Mof_Cu	Cu	0.0785	0.61136	0.75173	0.719
Mof_Cu	Cu	0.13676	0.6065	0.67395	0.72
Mof_Cu	Cu	0.98204	0.4495	0.68221	0.718
Mof_I 	I 	0.26113	0.55702	0.75564	-0.749
Mof_I 	I 	0.10034	0.32692	0.62677	-0.557
Mof_I 	I 	0.97761	0.76026	0.67403	-0.594
Mof_I 	I 	0.0054	0.3277	0.7687	-0.576
Mof_O 	O 	0.9453	0.7016	0.94708	-0.544
Mof_O 	O 	0.8724	0.4671	0.93399	-0.565
Mof_O 	O 	0.0736	0.9487	0.96964	-0.569
Mof_O 	O 	0.9681	0.1058	0.92673	-0.547
Mof_O 	O 	0.8379	0.3944	0.02805	-0.516
Mof_O 	O 	0.936	0.596	0.03662	-0.573
Mof_N 	N 	0.63901	0.8449	0.849	-0.203
Mof_C 	C 	0.70992	0.936	0.87362	-0.013
Mof_H 	H 	0.7055	0.0496	0.8738	0.013
Mof_C 	C 	0.78738	0.8609	0.89802	0.002
Mof_H 	H 	0.8359	0.9231	0.9149	0.018
Mof_C 	C 	0.79393	0.6946	0.89781	-0.119
Mof_C 	C 	0.72301	0.6035	0.87319	0.006
Mof_H 	H 	0.7275	0.4899	0.873	0.042
Mof_C 	C 	0.64555	0.6786	0.84878	-0.012
Mof_H 	H 	0.5971	0.6164	0.832	0.03
Mof_C 	C 	0.8782	0.6153	0.92887	0.484
Mof_N 	N 	0.06758	0.7585	0.80562	-0.209
Mof_C 	C 	0.1323	0.7453	0.84641	-0.019
Mof_H 	H 	0.185	0.6817	0.847	0.022
Mof_C 	C 	0.11988	0.8251	0.88639	-0.004
Mof_H 	H 	0.1641	0.816	0.9143	0.039
Mof_C 	C 	0.04273	0.9181	0.88559	-0.108
Mof_C 	C 	0.97801	0.9314	0.84479	0.002
Mof_H 	H 	0.9253	0.995	0.8442	0.047
Mof_C 	C 	0.99043	0.8516	0.80481	-0.006
Mof_H 	H 	0.9462	0.8606	0.7769	0.025
Mof_C 	C 	0.0271	0.9959	0.931	0.452
Mof_N 	N 	0.70979	0.7588	0.1357	-0.206
Mof_C 	C 	0.66975	0.6385	0.10575	-0.005
Mof_H 	H 	0.6083	0.6091	0.105	0.031
Mof_C 	C 	0.71958	0.5613	0.07689	-0.009
Mof_H 	H 	0.6922	0.4791	0.0564	0.053
Mof_C 	C 	0.80945	0.6044	0.07798	-0.105
Mof_C 	C 	0.8495	0.7247	0.10792	-0.006
Mof_H 	H 	0.9109	0.7542	0.1087	0.046
Mof_C 	C 	0.79966	0.8019	0.13678	-0.018
Mof_H 	H 	0.827	0.8842	0.1572	0.025
Mof_C 	C 	0.8651	0.5271	0.04494	0.447
_end
