# CIF file generated by openbabel 3.1.0, see https://openbabel.org
data_I
_chemical_name_common 'image0'
_cell_length_a 17.98
_cell_length_b 11.711
_cell_length_c 19.921
_cell_angle_alpha 90
_cell_angle_beta 110.97
_cell_angle_gamma 90
_space_group_name_H-M_alt 'P 1'
_space_group_name_Hall 'P 1'
loop_
    _symmetry_equiv_pos_as_xyz
    x,y,z
loop_
    _atom_site_label
    _atom_site_type_symbol
    _atom_site_fract_x
    _atom_site_fract_y
    _atom_site_fract_z
    _atom_site_occupancy
    C1       C        0.02740    0.21930    0.24870    1.000
    C2       C        0.03230    0.28800    0.19210    1.000
    H1       H        0.98900    0.33370    0.16680    1.000
    C3       C        0.95490    0.38440    0.43660    1.000
    C4       C        0.94260    0.29940    0.48010    1.000
    H2       H        0.98290    0.24650    0.50060    1.000
    O1       O        0.48360    0.21920    0.45720    1.000
    O2       O        0.50840    0.33330    0.20590    1.000
    C5       C        0.49060    0.13030    0.09990    1.000
    H3       H        0.49330    0.20890    0.09430    1.000
    C6       C        0.48360    0.18720    0.40030    1.000
    H4       H        0.48020    0.10900    0.39140    1.000
    C7       C        0.50400    0.42290    0.23060    1.000
    H5       H        0.47920    0.42610    0.26420    1.000
    C8       C        0.32060    0.38880    0.42440    1.000
    H6       H        0.33160    0.36010    0.47050    1.000
    C9       C        0.33540    0.45030    0.32850    1.000
    H7       H        0.35890    0.47140    0.29560    1.000
    C10      C        0.25540    0.45600    0.31690    1.000
    H8       H        0.21520    0.48210    0.27570    1.000
    C11      C        0.17350    0.40870    0.39370    1.000
    C12      C        0.16380    0.32340    0.43730    1.000
    H9       H        0.20390    0.26990    0.45700    1.000
    C13      C        0.09280    0.31720    0.45220    1.000
    H10      H        0.08750    0.26110    0.48320    1.000
    C14      C        0.03030    0.39380    0.42100    1.000
    C15      C        0.04160    0.47670    0.37640    1.000
    H11      H        0.00110    0.52920    0.35530    1.000
    C16      C        0.11280    0.48450    0.36170    1.000
    H12      H        0.11840    0.54030    0.33060    1.000
    C17      C        0.89160    0.46200    0.40830    1.000
    H13      H        0.89640    0.52020    0.37840    1.000
    C18      C        0.66790    0.39520    0.44920    1.000
    H14      H        0.65430    0.43560    0.40630    1.000
    C19      C        0.66050    0.30770    0.54120    1.000
    H15      H        0.64040    0.27570    0.57390    1.000
    C20      C        0.73700    0.30220    0.54550    1.000
    H16      H        0.77890    0.26750    0.58180    1.000
    C21      C        0.81330    0.36760    0.46710    1.000
    C22      C        0.87320    0.28980    0.49440    1.000
    H17      H        0.86710    0.23010    0.52270    1.000
    C23      C        0.82210    0.45470    0.42330    1.000
    H18      H        0.78170    0.50790    0.40410    1.000
    C24      C        0.31030    0.18730    0.23330    1.000
    H19      H        0.32120    0.14650    0.27580    1.000
    C25      C        0.32430    0.27340    0.14230    1.000
    H20      H        0.34700    0.30240    0.11070    1.000
    C26      C        0.24650    0.28470    0.13500    1.000
    H21      H        0.20720    0.32250    0.09800    1.000
    C27      C        0.16640    0.22420    0.21090    1.000
    C28      C        0.09930    0.28980    0.17290    1.000
    H22      H        0.09960    0.33480    0.13450    1.000
    C29      C        0.16310    0.15640    0.26700    1.000
    H23      H        0.20690    0.11230    0.29330    1.000
    C30      C        0.66510    0.20580    0.27050    1.000
    H24      H        0.65400    0.25040    0.22950    1.000
    C31      C        0.65270    0.10720    0.35750    1.000
    H25      H        0.63020    0.07210    0.38750    1.000
    C32      C        0.73100    0.10780    0.36860    1.000
    H26      H        0.77120    0.07220    0.40580    1.000
    C33      C        0.81250    0.18960    0.29890    1.000
    C34      C        0.81810    0.27450    0.25130    1.000
    H27      H        0.77550    0.32340    0.22950    1.000
    C35      C        0.88820    0.28490    0.23690    1.000
    H28      H        0.89140    0.34150    0.20530    1.000
    C36      C        0.95390    0.21380    0.26810    1.000
    C37      C        0.94670    0.13150    0.31630    1.000
    H29      H        0.98950    0.08320    0.33860    1.000
    C38      C        0.87770    0.11930    0.33210    1.000
    H30      H        0.87520    0.06410    0.36480    1.000
    C39      C        0.09490    0.15440    0.28370    1.000
    H31      H        0.09410    0.10670    0.32070    1.000
    N1       N        0.37510    0.40830    0.39630    1.000
    N2       N        0.24650    0.41530    0.37870    1.000
    N3       N        0.61670    0.36890    0.48020    1.000
    N4       N        0.74160    0.35780    0.48570    1.000
    N5       N        0.36430    0.21220    0.20390    1.000
    N6       N        0.23650    0.22950    0.19290    1.000
    N7       N        0.60980    0.16630    0.29480    1.000
    N8       N        0.73980    0.17280    0.31300    1.000
    Ni1      Ni       0.48692    0.18400    0.24903    1.000
    Ni2      Ni       0.49615    0.39063    0.44726    1.000
    O3       O        0.49220    0.06890    0.04880    1.000
    O4       O        0.48590    0.09620    0.15690    1.000
    O5       O        0.53190    0.52080    0.21430    1.000
    O6       O        0.48840    0.25700    0.34810    1.000
    C40      C        0.97260    0.71930    0.25130    1.000
    C41      C        0.96770    0.78800    0.30790    1.000
    H32      H        0.01100    0.83370    0.33320    1.000
    C42      C        0.04510    0.88440    0.06340    1.000
    C43      C        0.05740    0.79940    0.01990    1.000
    H33      H        0.01710    0.74650    0.99940    1.000
    O7       O        0.51640    0.71920    0.04280    1.000
    O8       O        0.49160    0.83330    0.29410    1.000
    C44      C        0.50940    0.63030    0.40010    1.000
    H34      H        0.50670    0.70890    0.40570    1.000
    C45      C        0.51640    0.68720    0.09970    1.000
    H35      H        0.51980    0.60900    0.10860    1.000
    C46      C        0.49600    0.92290    0.26940    1.000
    H36      H        0.52080    0.92610    0.23580    1.000
    C47      C        0.67940    0.88880    0.07560    1.000
    H37      H        0.66840    0.86010    0.02950    1.000
    C48      C        0.66460    0.95030    0.17150    1.000
    H38      H        0.64110    0.97140    0.20440    1.000
    C49      C        0.74460    0.95600    0.18310    1.000
    H39      H        0.78480    0.98210    0.22430    1.000
    C50      C        0.82650    0.90870    0.10630    1.000
    C51      C        0.83620    0.82340    0.06270    1.000
    H40      H        0.79610    0.76990    0.04300    1.000
    C52      C        0.90720    0.81720    0.04780    1.000
    H41      H        0.91250    0.76110    0.01680    1.000
    C53      C        0.96970    0.89380    0.07900    1.000
    C54      C        0.95840    0.97670    0.12360    1.000
    H42      H        0.99890    0.02920    0.14470    1.000
    C55      C        0.88720    0.98450    0.13830    1.000
    H43      H        0.88160    0.04030    0.16940    1.000
    C56      C        0.10840    0.96200    0.09170    1.000
    H44      H        0.10360    0.02020    0.12160    1.000
    C57      C        0.33210    0.89520    0.05080    1.000
    H45      H        0.34570    0.93560    0.09370    1.000
    C58      C        0.33950    0.80770    0.95880    1.000
    H46      H        0.35960    0.77570    0.92610    1.000
    C59      C        0.26300    0.80220    0.95450    1.000
    H47      H        0.22110    0.76750    0.91820    1.000
    C60      C        0.18670    0.86760    0.03290    1.000
    C61      C        0.12680    0.78980    0.00560    1.000
    H48      H        0.13290    0.73010    0.97730    1.000
    C62      C        0.17790    0.95470    0.07670    1.000
    H49      H        0.21830    0.00790    0.09590    1.000
    C63      C        0.68970    0.68730    0.26670    1.000
    H50      H        0.67880    0.64650    0.22420    1.000
    C64      C        0.67570    0.77340    0.35770    1.000
    H51      H        0.65300    0.80240    0.38930    1.000
    C65      C        0.75350    0.78470    0.36500    1.000
    H52      H        0.79280    0.82250    0.40200    1.000
    C66      C        0.83360    0.72420    0.28910    1.000
    C67      C        0.90070    0.78980    0.32710    1.000
    H53      H        0.90040    0.83480    0.36550    1.000
    C68      C        0.83690    0.65640    0.23300    1.000
    H54      H        0.79310    0.61230    0.20670    1.000
    C69      C        0.33490    0.70580    0.22950    1.000
    H55      H        0.34600    0.75040    0.27050    1.000
    C70      C        0.34730    0.60720    0.14250    1.000
    H56      H        0.36980    0.57210    0.11250    1.000
    C71      C        0.26900    0.60780    0.13140    1.000
    H57      H        0.22880    0.57220    0.09420    1.000
    C72      C        0.18750    0.68960    0.20110    1.000
    C73      C        0.18190    0.77450    0.24870    1.000
    H58      H        0.22450    0.82340    0.27050    1.000
    C74      C        0.11180    0.78490    0.26310    1.000
    H59      H        0.10860    0.84150    0.29470    1.000
    C75      C        0.04610    0.71380    0.23190    1.000
    C76      C        0.05330    0.63150    0.18370    1.000
    H60      H        0.01050    0.58320    0.16140    1.000
    C77      C        0.12230    0.61930    0.16790    1.000
    H61      H        0.12480    0.56410    0.13520    1.000
    C78      C        0.90510    0.65440    0.21630    1.000
    H62      H        0.90590    0.60670    0.17930    1.000
    N9       N        0.62490    0.90830    0.10370    1.000
    N10      N        0.75350    0.91530    0.12130    1.000
    N11      N        0.38330    0.86890    0.01980    1.000
    N12      N        0.25840    0.85780    0.01430    1.000
    N13      N        0.63570    0.71220    0.29610    1.000
    N14      N        0.76350    0.72950    0.30710    1.000
    N15      N        0.39020    0.66630    0.20520    1.000
    N16      N        0.26020    0.67280    0.18700    1.000
    Ni3      Ni       0.51308    0.68400    0.25097    1.000
    Ni4      Ni       0.50385    0.89063    0.05274    1.000
    O9       O        0.50780    0.56890    0.45120    1.000
    O10      O        0.51410    0.59620    0.34310    1.000
    O11      O        0.46810    0.02080    0.28570    1.000
    O12      O        0.51160    0.75700    0.15190    1.000
    C79      C        0.97260    0.78070    0.75130    1.000
    C80      C        0.96770    0.71200    0.80790    1.000
    H63      H        0.01100    0.66630    0.83320    1.000
    C81      C        0.04510    0.61560    0.56340    1.000
    C82      C        0.05740    0.70060    0.51990    1.000
    H64      H        0.01710    0.75350    0.49940    1.000
    O13      O        0.51640    0.78080    0.54280    1.000
    O14      O        0.49160    0.66670    0.79410    1.000
    C83      C        0.50940    0.86970    0.90010    1.000
    H65      H        0.50670    0.79110    0.90570    1.000
    C84      C        0.51640    0.81280    0.59970    1.000
    H66      H        0.51980    0.89100    0.60860    1.000
    C85      C        0.49600    0.57710    0.76940    1.000
    H67      H        0.52080    0.57390    0.73580    1.000
    C86      C        0.67940    0.61120    0.57560    1.000
    H68      H        0.66840    0.63990    0.52950    1.000
    C87      C        0.66460    0.54970    0.67150    1.000
    H69      H        0.64110    0.52860    0.70440    1.000
    C88      C        0.74460    0.54400    0.68310    1.000
    H70      H        0.78480    0.51790    0.72430    1.000
    C89      C        0.82650    0.59130    0.60630    1.000
    C90      C        0.83620    0.67660    0.56270    1.000
    H71      H        0.79610    0.73010    0.54300    1.000
    C91      C        0.90720    0.68280    0.54780    1.000
    H72      H        0.91250    0.73890    0.51680    1.000
    C92      C        0.96970    0.60620    0.57900    1.000
    C93      C        0.95840    0.52330    0.62360    1.000
    H73      H        0.99890    0.47080    0.64470    1.000
    C94      C        0.88720    0.51550    0.63830    1.000
    H74      H        0.88160    0.45970    0.66940    1.000
    C95      C        0.10840    0.53800    0.59170    1.000
    H75      H        0.10360    0.47980    0.62160    1.000
    C96      C        0.33210    0.60480    0.55080    1.000
    H76      H        0.34570    0.56440    0.59370    1.000
    C97      C        0.33950    0.69230    0.45880    1.000
    H77      H        0.35960    0.72430    0.42610    1.000
    C98      C        0.26300    0.69780    0.45450    1.000
    H78      H        0.22110    0.73250    0.41820    1.000
    C99      C        0.18670    0.63240    0.53290    1.000
    C100     C        0.12680    0.71020    0.50560    1.000
    H79      H        0.13290    0.76990    0.47730    1.000
    C101     C        0.17790    0.54530    0.57670    1.000
    H80      H        0.21830    0.49210    0.59590    1.000
    C102     C        0.68970    0.81270    0.76670    1.000
    H81      H        0.67880    0.85350    0.72420    1.000
    C103     C        0.67570    0.72660    0.85770    1.000
    H82      H        0.65300    0.69760    0.88930    1.000
    C104     C        0.75350    0.71530    0.86500    1.000
    H83      H        0.79280    0.67750    0.90200    1.000
    C105     C        0.83360    0.77580    0.78910    1.000
    C106     C        0.90070    0.71020    0.82710    1.000
    H84      H        0.90040    0.66520    0.86550    1.000
    C107     C        0.83690    0.84360    0.73300    1.000
    H85      H        0.79310    0.88770    0.70670    1.000
    C108     C        0.33490    0.79420    0.72950    1.000
    H86      H        0.34600    0.74960    0.77050    1.000
    C109     C        0.34730    0.89280    0.64250    1.000
    H87      H        0.36980    0.92790    0.61250    1.000
    C110     C        0.26900    0.89220    0.63140    1.000
    H88      H        0.22880    0.92780    0.59420    1.000
    C111     C        0.18750    0.81040    0.70110    1.000
    C112     C        0.18190    0.72550    0.74870    1.000
    H89      H        0.22450    0.67660    0.77050    1.000
    C113     C        0.11180    0.71510    0.76310    1.000
    H90      H        0.10860    0.65850    0.79470    1.000
    C114     C        0.04610    0.78620    0.73190    1.000
    C115     C        0.05330    0.86850    0.68370    1.000
    H91      H        0.01050    0.91680    0.66140    1.000
    C116     C        0.12230    0.88070    0.66790    1.000
    H92      H        0.12480    0.93590    0.63520    1.000
    C117     C        0.90510    0.84560    0.71630    1.000
    H93      H        0.90590    0.89330    0.67930    1.000
    N17      N        0.62490    0.59170    0.60370    1.000
    N18      N        0.75350    0.58470    0.62130    1.000
    N19      N        0.38330    0.63110    0.51980    1.000
    N20      N        0.25840    0.64220    0.51430    1.000
    N21      N        0.63570    0.78780    0.79610    1.000
    N22      N        0.76350    0.77050    0.80710    1.000
    N23      N        0.39020    0.83370    0.70520    1.000
    N24      N        0.26020    0.82720    0.68700    1.000
    Ni5      Ni       0.51308    0.81600    0.75097    1.000
    Ni6      Ni       0.50385    0.60937    0.55274    1.000
    O15      O        0.50780    0.93110    0.95120    1.000
    O16      O        0.51410    0.90380    0.84310    1.000
    O17      O        0.46810    0.47920    0.78570    1.000
    O18      O        0.51160    0.74300    0.65190    1.000
    C118     C        0.02740    0.28070    0.74870    1.000
    C119     C        0.03230    0.21200    0.69210    1.000
    H94      H        0.98900    0.16630    0.66680    1.000
    C120     C        0.95490    0.11560    0.93660    1.000
    C121     C        0.94260    0.20060    0.98010    1.000
    H95      H        0.98290    0.25350    0.00060    1.000
    O19      O        0.48360    0.28080    0.95720    1.000
    O20      O        0.50840    0.16670    0.70590    1.000
    C122     C        0.49060    0.36970    0.59990    1.000
    H96      H        0.49330    0.29110    0.59430    1.000
    C123     C        0.48360    0.31280    0.90030    1.000
    H97      H        0.48020    0.39100    0.89140    1.000
    C124     C        0.50400    0.07710    0.73060    1.000
    H98      H        0.47920    0.07390    0.76420    1.000
    C125     C        0.32060    0.11120    0.92440    1.000
    H99      H        0.33160    0.13990    0.97050    1.000
    C126     C        0.33540    0.04970    0.82850    1.000
    H100     H        0.35890    0.02860    0.79560    1.000
    C127     C        0.25540    0.04400    0.81690    1.000
    H101     H        0.21520    0.01790    0.77570    1.000
    C128     C        0.17350    0.09130    0.89370    1.000
    C129     C        0.16380    0.17660    0.93730    1.000
    H102     H        0.20390    0.23010    0.95700    1.000
    C130     C        0.09280    0.18280    0.95220    1.000
    H103     H        0.08750    0.23890    0.98320    1.000
    C131     C        0.03030    0.10620    0.92100    1.000
    C132     C        0.04160    0.02330    0.87640    1.000
    H104     H        0.00110    0.97080    0.85530    1.000
    C133     C        0.11280    0.01550    0.86170    1.000
    H105     H        0.11840    0.95970    0.83060    1.000
    C134     C        0.89160    0.03800    0.90830    1.000
    H106     H        0.89640    0.97980    0.87840    1.000
    C135     C        0.66790    0.10480    0.94920    1.000
    H107     H        0.65430    0.06440    0.90630    1.000
    C136     C        0.66050    0.19230    0.04120    1.000
    H108     H        0.64040    0.22430    0.07390    1.000
    C137     C        0.73700    0.19780    0.04550    1.000
    H109     H        0.77890    0.23250    0.08180    1.000
    C138     C        0.81330    0.13240    0.96710    1.000
    C139     C        0.87320    0.21020    0.99440    1.000
    H110     H        0.86710    0.26990    0.02270    1.000
    C140     C        0.82210    0.04530    0.92330    1.000
    H111     H        0.78170    0.99210    0.90410    1.000
    C141     C        0.31030    0.31270    0.73330    1.000
    H112     H        0.32120    0.35350    0.77580    1.000
    C142     C        0.32430    0.22660    0.64230    1.000
    H113     H        0.34700    0.19760    0.61070    1.000
    C143     C        0.24650    0.21530    0.63500    1.000
    H114     H        0.20720    0.17750    0.59800    1.000
    C144     C        0.16640    0.27580    0.71090    1.000
    C145     C        0.09930    0.21020    0.67290    1.000
    H115     H        0.09960    0.16520    0.63450    1.000
    C146     C        0.16310    0.34360    0.76700    1.000
    H116     H        0.20690    0.38770    0.79330    1.000
    C147     C        0.66510    0.29420    0.77050    1.000
    H117     H        0.65400    0.24960    0.72950    1.000
    C148     C        0.65270    0.39280    0.85750    1.000
    H118     H        0.63020    0.42790    0.88750    1.000
    C149     C        0.73100    0.39220    0.86860    1.000
    H119     H        0.77120    0.42780    0.90580    1.000
    C150     C        0.81250    0.31040    0.79890    1.000
    C151     C        0.81810    0.22550    0.75130    1.000
    H120     H        0.77550    0.17660    0.72950    1.000
    C152     C        0.88820    0.21510    0.73690    1.000
    H121     H        0.89140    0.15850    0.70530    1.000
    C153     C        0.95390    0.28620    0.76810    1.000
    C154     C        0.94670    0.36850    0.81630    1.000
    H122     H        0.98950    0.41680    0.83860    1.000
    C155     C        0.87770    0.38070    0.83210    1.000
    H123     H        0.87520    0.43590    0.86480    1.000
    C156     C        0.09490    0.34560    0.78370    1.000
    H124     H        0.09410    0.39330    0.82070    1.000
    N25      N        0.37510    0.09170    0.89630    1.000
    N26      N        0.24650    0.08470    0.87870    1.000
    N27      N        0.61670    0.13110    0.98020    1.000
    N28      N        0.74160    0.14220    0.98570    1.000
    N29      N        0.36430    0.28780    0.70390    1.000
    N30      N        0.23650    0.27050    0.69290    1.000
    N31      N        0.60980    0.33370    0.79480    1.000
    N32      N        0.73980    0.32720    0.81300    1.000
    Ni7      Ni       0.48692    0.31600    0.74903    1.000
    Ni8      Ni       0.49615    0.10937    0.94726    1.000
    O21      O        0.49220    0.43110    0.54880    1.000
    O22      O        0.48590    0.40380    0.65690    1.000
    O23      O        0.53190    0.97920    0.71430    1.000
    O24      O        0.48840    0.24300    0.84810    1.000
