# CIF file generated by openbabel 3.1.0, see https://openbabel.org
data_I
_chemical_name_common 'image0'
_cell_length_a 19.111
_cell_length_b 19.111
_cell_length_c 19.915
_cell_angle_alpha 90
_cell_angle_beta 90
_cell_angle_gamma 90
_space_group_name_H-M_alt 'P 1'
_space_group_name_Hall 'P 1'
loop_
    _symmetry_equiv_pos_as_xyz
    x,y,z
loop_
    _atom_site_label
    _atom_site_type_symbol
    _atom_site_fract_x
    _atom_site_fract_y
    _atom_site_fract_z
    _atom_site_occupancy
    N1       N        0.45800    0.86390    0.94051    1.000
    N2       N        0.49200    0.92530    0.92965    1.000
    C1       C        0.52560    0.91760    0.87190    1.000
    H1       H        0.55490    0.95200    0.85200    1.000
    C2       C        0.51180    0.85180    0.84440    1.000
    C3       C        0.46910    0.81910    0.88980    1.000
    H2       H        0.45070    0.77310    0.88600    1.000
    C4       C        0.53730    0.82470    0.77910    1.000
    C5       C        0.49980    0.77400    0.74400    1.000
    H3       H        0.45690    0.75700    0.76160    1.000
    C6       C        0.52470    0.74830    0.68370    1.000
    H4       H        0.49850    0.71400    0.66000    1.000
    C7       C        0.58740    0.77220    0.65760    1.000
    C8       C        0.62450    0.82320    0.69160    1.000
    H5       H        0.66710    0.84050    0.67360    1.000
    C9       C        0.59930    0.84900    0.75210    1.000
    H6       H        0.62510    0.88400    0.77530    1.000
    C10      C        0.61750    0.74250    0.59420    1.000
    O1       O        0.58776    0.68798    0.57055    1.000
    O2       O        0.67092    0.77154    0.57040    1.000
    C11      C        0.55220    0.49730    0.45720    1.000
    H7       H        0.58940    0.49410    0.42570    1.000
    N3       N        0.54200    0.13610    0.94051    1.000
    N4       N        0.50800    0.07470    0.92965    1.000
    C12      C        0.47440    0.08240    0.87190    1.000
    H8       H        0.44510    0.04800    0.85200    1.000
    C13      C        0.48820    0.14820    0.84440    1.000
    C14      C        0.53090    0.18090    0.88980    1.000
    H9       H        0.54930    0.22690    0.88600    1.000
    C15      C        0.46270    0.17530    0.77910    1.000
    C16      C        0.50020    0.22600    0.74400    1.000
    H10      H        0.54310    0.24300    0.76160    1.000
    C17      C        0.47530    0.25170    0.68370    1.000
    H11      H        0.50150    0.28600    0.66000    1.000
    C18      C        0.41260    0.22780    0.65760    1.000
    C19      C        0.37550    0.17680    0.69160    1.000
    H12      H        0.33290    0.15950    0.67360    1.000
    C20      C        0.40070    0.15100    0.75210    1.000
    H13      H        0.37490    0.11600    0.77530    1.000
    C21      C        0.38250    0.25750    0.59420    1.000
    O3       O        0.41224    0.31202    0.57055    1.000
    O4       O        0.32908    0.22846    0.57040    1.000
    C22      C        0.44780    0.50270    0.45720    1.000
    H14      H        0.41060    0.50590    0.42570    1.000
    N5       N        0.86390    0.45800    0.05949    1.000
    N6       N        0.92530    0.49200    0.07035    1.000
    C23      C        0.91760    0.52560    0.12810    1.000
    H15      H        0.95200    0.55490    0.14800    1.000
    C24      C        0.85180    0.51180    0.15560    1.000
    C25      C        0.81910    0.46910    0.11020    1.000
    H16      H        0.77310    0.45070    0.11400    1.000
    C26      C        0.82470    0.53730    0.22090    1.000
    C27      C        0.77400    0.49980    0.25600    1.000
    H17      H        0.75700    0.45690    0.23840    1.000
    C28      C        0.74830    0.52470    0.31630    1.000
    H18      H        0.71400    0.49850    0.34000    1.000
    C29      C        0.77220    0.58740    0.34240    1.000
    C30      C        0.82320    0.62450    0.30840    1.000
    H19      H        0.84050    0.66710    0.32640    1.000
    C31      C        0.84900    0.59930    0.24790    1.000
    H20      H        0.88400    0.62510    0.22470    1.000
    C32      C        0.74250    0.61750    0.40580    1.000
    O5       O        0.68798    0.58776    0.42945    1.000
    O6       O        0.77154    0.67092    0.42960    1.000
    C33      C        0.49730    0.55220    0.54280    1.000
    H21      H        0.49410    0.58940    0.57430    1.000
    N7       N        0.13610    0.54200    0.05949    1.000
    N8       N        0.07470    0.50800    0.07035    1.000
    C34      C        0.08240    0.47440    0.12810    1.000
    H22      H        0.04800    0.44510    0.14800    1.000
    C35      C        0.14820    0.48820    0.15560    1.000
    C36      C        0.18090    0.53090    0.11020    1.000
    H23      H        0.22690    0.54930    0.11400    1.000
    C37      C        0.17530    0.46270    0.22090    1.000
    C38      C        0.22600    0.50020    0.25600    1.000
    H24      H        0.24300    0.54310    0.23840    1.000
    C39      C        0.25170    0.47530    0.31630    1.000
    H25      H        0.28600    0.50150    0.34000    1.000
    C40      C        0.22780    0.41260    0.34240    1.000
    C41      C        0.17680    0.37550    0.30840    1.000
    H26      H        0.15950    0.33290    0.32640    1.000
    C42      C        0.15100    0.40070    0.24790    1.000
    H27      H        0.11600    0.37490    0.22470    1.000
    C43      C        0.25750    0.38250    0.40580    1.000
    O7       O        0.31202    0.41224    0.42945    1.000
    O8       O        0.22846    0.32908    0.42960    1.000
    C44      C        0.50270    0.44780    0.54280    1.000
    H28      H        0.50590    0.41060    0.57430    1.000
    N9       N        0.54200    0.13610    0.05949    1.000
    N10      N        0.50800    0.07470    0.07035    1.000
    C45      C        0.47440    0.08240    0.12810    1.000
    H29      H        0.44510    0.04800    0.14800    1.000
    C46      C        0.48820    0.14820    0.15560    1.000
    C47      C        0.53090    0.18090    0.11020    1.000
    H30      H        0.54930    0.22690    0.11400    1.000
    C48      C        0.46270    0.17530    0.22090    1.000
    C49      C        0.50020    0.22600    0.25600    1.000
    H31      H        0.54310    0.24300    0.23840    1.000
    C50      C        0.47530    0.25170    0.31630    1.000
    H32      H        0.50150    0.28600    0.34000    1.000
    C51      C        0.41260    0.22780    0.34240    1.000
    C52      C        0.37550    0.17680    0.30840    1.000
    H33      H        0.33290    0.15950    0.32640    1.000
    C53      C        0.40070    0.15100    0.24790    1.000
    H34      H        0.37490    0.11600    0.22470    1.000
    C54      C        0.38250    0.25750    0.40580    1.000
    O9       O        0.41224    0.31202    0.42945    1.000
    O10      O        0.32908    0.22846    0.42960    1.000
    C55      C        0.44780    0.50270    0.54280    1.000
    H35      H        0.41060    0.50590    0.57430    1.000
    N11      N        0.45800    0.86390    0.05949    1.000
    N12      N        0.49200    0.92530    0.07035    1.000
    C56      C        0.52560    0.91760    0.12810    1.000
    H36      H        0.55490    0.95200    0.14800    1.000
    C57      C        0.51180    0.85180    0.15560    1.000
    C58      C        0.46910    0.81910    0.11020    1.000
    H37      H        0.45070    0.77310    0.11400    1.000
    C59      C        0.53730    0.82470    0.22090    1.000
    C60      C        0.49980    0.77400    0.25600    1.000
    H38      H        0.45690    0.75700    0.23840    1.000
    C61      C        0.52470    0.74830    0.31630    1.000
    H39      H        0.49850    0.71400    0.34000    1.000
    C62      C        0.58740    0.77220    0.34240    1.000
    C63      C        0.62450    0.82320    0.30840    1.000
    H40      H        0.66710    0.84050    0.32640    1.000
    C64      C        0.59930    0.84900    0.24790    1.000
    H41      H        0.62510    0.88400    0.22470    1.000
    C65      C        0.61750    0.74250    0.40580    1.000
    O11      O        0.58776    0.68798    0.42945    1.000
    O12      O        0.67092    0.77154    0.42960    1.000
    C66      C        0.55220    0.49730    0.54280    1.000
    H42      H        0.58940    0.49410    0.57430    1.000
    N13      N        0.13610    0.54200    0.94051    1.000
    N14      N        0.07470    0.50800    0.92965    1.000
    C67      C        0.08240    0.47440    0.87190    1.000
    H43      H        0.04800    0.44510    0.85200    1.000
    C68      C        0.14820    0.48820    0.84440    1.000
    C69      C        0.18090    0.53090    0.88980    1.000
    H44      H        0.22690    0.54930    0.88600    1.000
    C70      C        0.17530    0.46270    0.77910    1.000
    C71      C        0.22600    0.50020    0.74400    1.000
    H45      H        0.24300    0.54310    0.76160    1.000
    C72      C        0.25170    0.47530    0.68370    1.000
    H46      H        0.28600    0.50150    0.66000    1.000
    C73      C        0.22780    0.41260    0.65760    1.000
    C74      C        0.17680    0.37550    0.69160    1.000
    H47      H        0.15950    0.33290    0.67360    1.000
    C75      C        0.15100    0.40070    0.75210    1.000
    H48      H        0.11600    0.37490    0.77530    1.000
    C76      C        0.25750    0.38250    0.59420    1.000
    O13      O        0.31202    0.41224    0.57055    1.000
    O14      O        0.22846    0.32908    0.57040    1.000
    C77      C        0.50270    0.44780    0.45720    1.000
    H49      H        0.50590    0.41060    0.42570    1.000
    N15      N        0.86390    0.45800    0.94051    1.000
    N16      N        0.92530    0.49200    0.92965    1.000
    C78      C        0.91760    0.52560    0.87190    1.000
    H50      H        0.95200    0.55490    0.85200    1.000
    C79      C        0.85180    0.51180    0.84440    1.000
    C80      C        0.81910    0.46910    0.88980    1.000
    H51      H        0.77310    0.45070    0.88600    1.000
    C81      C        0.82470    0.53730    0.77910    1.000
    C82      C        0.77400    0.49980    0.74400    1.000
    H52      H        0.75700    0.45690    0.76160    1.000
    C83      C        0.74830    0.52470    0.68370    1.000
    H53      H        0.71400    0.49850    0.66000    1.000
    C84      C        0.77220    0.58740    0.65760    1.000
    C85      C        0.82320    0.62450    0.69160    1.000
    H54      H        0.84050    0.66710    0.67360    1.000
    C86      C        0.84900    0.59930    0.75210    1.000
    H55      H        0.88400    0.62510    0.77530    1.000
    C87      C        0.74250    0.61750    0.59420    1.000
    O15      O        0.68798    0.58776    0.57055    1.000
    O16      O        0.77154    0.67092    0.57040    1.000
    C88      C        0.49730    0.55220    0.45720    1.000
    H56      H        0.49410    0.58940    0.42570    1.000
    Cu1      Cu       0.63126    0.63126    0.50000    1.000
    Cu2      Cu       0.72847    0.72847    0.50000    1.000
    N17      N        0.55110    0.55110    0.50000    1.000
    Cu3      Cu       0.36874    0.36874    0.50000    1.000
    Cu4      Cu       0.27153    0.27153    0.50000    1.000
    N18      N        0.44890    0.44890    0.50000    1.000
    C89      C        0.41540    0.85420    0.00000    1.000
    H57      H        0.37650    0.88840    0.00000    1.000
    H58      H        0.39510    0.80650    0.00000    1.000
    C90      C        0.58460    0.14580    0.00000    1.000
    H59      H        0.62350    0.11160    0.00000    1.000
    H60      H        0.60490    0.19350    0.00000    1.000
    C91      C        0.85420    0.41540    0.00000    1.000
    H61      H        0.88840    0.37650    0.00000    1.000
    H62      H        0.80650    0.39510    0.00000    1.000
    C92      C        0.14580    0.58460    0.00000    1.000
    H63      H        0.11160    0.62350    0.00000    1.000
    H64      H        0.19350    0.60490    0.00000    1.000
    Cu5      Cu       0.50000    0.00000    0.00000    1.000
    Cu6      Cu       0.00000    0.50000    0.00000    1.000
    N19      N        0.63610    0.95800    0.44051    1.000
    N20      N        0.57470    0.99200    0.42965    1.000
    C93      C        0.58240    0.02560    0.37190    1.000
    H65      H        0.54800    0.05490    0.35200    1.000
    C94      C        0.64820    0.01180    0.34440    1.000
    C95      C        0.68090    0.96910    0.38980    1.000
    H66      H        0.72690    0.95070    0.38600    1.000
    C96      C        0.67530    0.03730    0.27910    1.000
    C97      C        0.72600    0.99980    0.24400    1.000
    H67      H        0.74300    0.95690    0.26160    1.000
    C98      C        0.75170    0.02470    0.18370    1.000
    H68      H        0.78600    0.99850    0.16000    1.000
    C99      C        0.72780    0.08740    0.15760    1.000
    C100     C        0.67680    0.12450    0.19160    1.000
    H69      H        0.65950    0.16710    0.17360    1.000
    C101     C        0.65100    0.09930    0.25210    1.000
    H70      H        0.61600    0.12510    0.27530    1.000
    C102     C        0.75750    0.11750    0.09420    1.000
    O17      O        0.81202    0.08776    0.07055    1.000
    O18      O        0.72846    0.17092    0.07040    1.000
    C103     C        0.00270    0.05220    0.95720    1.000
    H71      H        0.00590    0.08940    0.92570    1.000
    N21      N        0.36390    0.04200    0.44051    1.000
    N22      N        0.42530    0.00800    0.42965    1.000
    C104     C        0.41760    0.97440    0.37190    1.000
    H72      H        0.45200    0.94510    0.35200    1.000
    C105     C        0.35180    0.98820    0.34440    1.000
    C106     C        0.31910    0.03090    0.38980    1.000
    H73      H        0.27310    0.04930    0.38600    1.000
    C107     C        0.32470    0.96270    0.27910    1.000
    C108     C        0.27400    0.00020    0.24400    1.000
    H74      H        0.25700    0.04310    0.26160    1.000
    C109     C        0.24830    0.97530    0.18370    1.000
    H75      H        0.21400    0.00150    0.16000    1.000
    C110     C        0.27220    0.91260    0.15760    1.000
    C111     C        0.32320    0.87550    0.19160    1.000
    H76      H        0.34050    0.83290    0.17360    1.000
    C112     C        0.34900    0.90070    0.25210    1.000
    H77      H        0.38400    0.87490    0.27530    1.000
    C113     C        0.24250    0.88250    0.09420    1.000
    O19      O        0.18798    0.91224    0.07055    1.000
    O20      O        0.27154    0.82908    0.07040    1.000
    C114     C        0.99730    0.94780    0.95720    1.000
    H78      H        0.99410    0.91060    0.92570    1.000
    N23      N        0.04200    0.36390    0.55949    1.000
    N24      N        0.00800    0.42530    0.57035    1.000
    C115     C        0.97440    0.41760    0.62810    1.000
    H79      H        0.94510    0.45200    0.64800    1.000
    C116     C        0.98820    0.35180    0.65560    1.000
    C117     C        0.03090    0.31910    0.61020    1.000
    H80      H        0.04930    0.27310    0.61400    1.000
    C118     C        0.96270    0.32470    0.72090    1.000
    C119     C        0.00020    0.27400    0.75600    1.000
    H81      H        0.04310    0.25700    0.73840    1.000
    C120     C        0.97530    0.24830    0.81630    1.000
    H82      H        0.00150    0.21400    0.84000    1.000
    C121     C        0.91260    0.27220    0.84240    1.000
    C122     C        0.87550    0.32320    0.80840    1.000
    H83      H        0.83290    0.34050    0.82640    1.000
    C123     C        0.90070    0.34900    0.74790    1.000
    H84      H        0.87490    0.38400    0.72470    1.000
    C124     C        0.88250    0.24250    0.90580    1.000
    O21      O        0.91224    0.18798    0.92945    1.000
    O22      O        0.82908    0.27154    0.92960    1.000
    C125     C        0.94780    0.99730    0.04280    1.000
    H85      H        0.91060    0.99410    0.07430    1.000
    N25      N        0.95800    0.63610    0.55949    1.000
    N26      N        0.99200    0.57470    0.57035    1.000
    C126     C        0.02560    0.58240    0.62810    1.000
    H86      H        0.05490    0.54800    0.64800    1.000
    C127     C        0.01180    0.64820    0.65560    1.000
    C128     C        0.96910    0.68090    0.61020    1.000
    H87      H        0.95070    0.72690    0.61400    1.000
    C129     C        0.03730    0.67530    0.72090    1.000
    C130     C        0.99980    0.72600    0.75600    1.000
    H88      H        0.95690    0.74300    0.73840    1.000
    C131     C        0.02470    0.75170    0.81630    1.000
    H89      H        0.99850    0.78600    0.84000    1.000
    C132     C        0.08740    0.72780    0.84240    1.000
    C133     C        0.12450    0.67680    0.80840    1.000
    H90      H        0.16710    0.65950    0.82640    1.000
    C134     C        0.09930    0.65100    0.74790    1.000
    H91      H        0.12510    0.61600    0.72470    1.000
    C135     C        0.11750    0.75750    0.90580    1.000
    O23      O        0.08776    0.81202    0.92945    1.000
    O24      O        0.17092    0.72846    0.92960    1.000
    C136     C        0.05220    0.00270    0.04280    1.000
    H92      H        0.08940    0.00590    0.07430    1.000
    N27      N        0.36390    0.04200    0.55949    1.000
    N28      N        0.42530    0.00800    0.57035    1.000
    C137     C        0.41760    0.97440    0.62810    1.000
    H93      H        0.45200    0.94510    0.64800    1.000
    C138     C        0.35180    0.98820    0.65560    1.000
    C139     C        0.31910    0.03090    0.61020    1.000
    H94      H        0.27310    0.04930    0.61400    1.000
    C140     C        0.32470    0.96270    0.72090    1.000
    C141     C        0.27400    0.00020    0.75600    1.000
    H95      H        0.25700    0.04310    0.73840    1.000
    C142     C        0.24830    0.97530    0.81630    1.000
    H96      H        0.21400    0.00150    0.84000    1.000
    C143     C        0.27220    0.91260    0.84240    1.000
    C144     C        0.32320    0.87550    0.80840    1.000
    H97      H        0.34050    0.83290    0.82640    1.000
    C145     C        0.34900    0.90070    0.74790    1.000
    H98      H        0.38400    0.87490    0.72470    1.000
    C146     C        0.24250    0.88250    0.90580    1.000
    O25      O        0.18798    0.91224    0.92945    1.000
    O26      O        0.27154    0.82908    0.92960    1.000
    C147     C        0.99730    0.94780    0.04280    1.000
    H99      H        0.99410    0.91060    0.07430    1.000
    N29      N        0.63610    0.95800    0.55949    1.000
    N30      N        0.57470    0.99200    0.57035    1.000
    C148     C        0.58240    0.02560    0.62810    1.000
    H100     H        0.54800    0.05490    0.64800    1.000
    C149     C        0.64820    0.01180    0.65560    1.000
    C150     C        0.68090    0.96910    0.61020    1.000
    H101     H        0.72690    0.95070    0.61400    1.000
    C151     C        0.67530    0.03730    0.72090    1.000
    C152     C        0.72600    0.99980    0.75600    1.000
    H102     H        0.74300    0.95690    0.73840    1.000
    C153     C        0.75170    0.02470    0.81630    1.000
    H103     H        0.78600    0.99850    0.84000    1.000
    C154     C        0.72780    0.08740    0.84240    1.000
    C155     C        0.67680    0.12450    0.80840    1.000
    H104     H        0.65950    0.16710    0.82640    1.000
    C156     C        0.65100    0.09930    0.74790    1.000
    H105     H        0.61600    0.12510    0.72470    1.000
    C157     C        0.75750    0.11750    0.90580    1.000
    O27      O        0.81202    0.08776    0.92945    1.000
    O28      O        0.72846    0.17092    0.92960    1.000
    C158     C        0.00270    0.05220    0.04280    1.000
    H106     H        0.00590    0.08940    0.07430    1.000
    N31      N        0.95800    0.63610    0.44051    1.000
    N32      N        0.99200    0.57470    0.42965    1.000
    C159     C        0.02560    0.58240    0.37190    1.000
    H107     H        0.05490    0.54800    0.35200    1.000
    C160     C        0.01180    0.64820    0.34440    1.000
    C161     C        0.96910    0.68090    0.38980    1.000
    H108     H        0.95070    0.72690    0.38600    1.000
    C162     C        0.03730    0.67530    0.27910    1.000
    C163     C        0.99980    0.72600    0.24400    1.000
    H109     H        0.95690    0.74300    0.26160    1.000
    C164     C        0.02470    0.75170    0.18370    1.000
    H110     H        0.99850    0.78600    0.16000    1.000
    C165     C        0.08740    0.72780    0.15760    1.000
    C166     C        0.12450    0.67680    0.19160    1.000
    H111     H        0.16710    0.65950    0.17360    1.000
    C167     C        0.09930    0.65100    0.25210    1.000
    H112     H        0.12510    0.61600    0.27530    1.000
    C168     C        0.11750    0.75750    0.09420    1.000
    O29      O        0.08776    0.81202    0.07055    1.000
    O30      O        0.17092    0.72846    0.07040    1.000
    C169     C        0.05220    0.00270    0.95720    1.000
    H113     H        0.08940    0.00590    0.92570    1.000
    N33      N        0.04200    0.36390    0.44051    1.000
    N34      N        0.00800    0.42530    0.42965    1.000
    C170     C        0.97440    0.41760    0.37190    1.000
    H114     H        0.94510    0.45200    0.35200    1.000
    C171     C        0.98820    0.35180    0.34440    1.000
    C172     C        0.03090    0.31910    0.38980    1.000
    H115     H        0.04930    0.27310    0.38600    1.000
    C173     C        0.96270    0.32470    0.27910    1.000
    C174     C        0.00020    0.27400    0.24400    1.000
    H116     H        0.04310    0.25700    0.26160    1.000
    C175     C        0.97530    0.24830    0.18370    1.000
    H117     H        0.00150    0.21400    0.16000    1.000
    C176     C        0.91260    0.27220    0.15760    1.000
    C177     C        0.87550    0.32320    0.19160    1.000
    H118     H        0.83290    0.34050    0.17360    1.000
    C178     C        0.90070    0.34900    0.25210    1.000
    H119     H        0.87490    0.38400    0.27530    1.000
    C179     C        0.88250    0.24250    0.09420    1.000
    O31      O        0.91224    0.18798    0.07055    1.000
    O32      O        0.82908    0.27154    0.07040    1.000
    C180     C        0.94780    0.99730    0.95720    1.000
    H120     H        0.91060    0.99410    0.92570    1.000
    Cu7      Cu       0.86874    0.13126    0.00000    1.000
    Cu8      Cu       0.77153    0.22847    0.00000    1.000
    N35      N        0.94890    0.05110    0.00000    1.000
    Cu9      Cu       0.13126    0.86874    0.00000    1.000
    Cu10     Cu       0.22847    0.77153    0.00000    1.000
    N36      N        0.05110    0.94890    0.00000    1.000
    C181     C        0.64580    0.91540    0.50000    1.000
    H121     H        0.61160    0.87650    0.50000    1.000
    H122     H        0.69350    0.89510    0.50000    1.000
    C182     C        0.35420    0.08460    0.50000    1.000
    H123     H        0.38840    0.12350    0.50000    1.000
    H124     H        0.30650    0.10490    0.50000    1.000
    C183     C        0.08460    0.35420    0.50000    1.000
    H125     H        0.12350    0.38840    0.50000    1.000
    H126     H        0.10490    0.30650    0.50000    1.000
    C184     C        0.91540    0.64580    0.50000    1.000
    H127     H        0.87650    0.61160    0.50000    1.000
    H128     H        0.89510    0.69350    0.50000    1.000
    Cu11     Cu       0.50000    0.00000    0.50000    1.000
    Cu12     Cu       0.00000    0.50000    0.50000    1.000
