data_functionalizedCrystal
_audit_creation_method	'EQeq! by Chris Wilmer'
_symmetry_space_group_name_H-M	'P1'
_symmetry_Int_Tables_number	1
_symmetry_cell_setting	triclinic
loop_
_symmetry_equiv_pos_as_xyz
  x,y,z
_cell_length_a	7.731
_cell_length_b	7.8455
_cell_length_c	7.8455
_cell_angle_alpha	116.473
_cell_angle_beta	103.025
_cell_angle_gamma	103.025
loop_
_atom_site_label
_atom_site_type_symbol
_atom_site_fract_x
_atom_site_fract_y
_atom_site_fract_z
_atom_site_charge
Mof_Mn	Mn	0.75	0.14331	0.85669	0.705
Mof_Mn	Mn	0.25	0.85669	0.14331	0.715
Mof_H 	H 	0.947	0.313	0.501	0.066
Mof_H 	H 	0.025	0.613	0.523	0.029
Mof_H 	H 	0.447	0.501	0.313	0.062
Mof_H 	H 	0.525	0.523	0.613	0.036
Mof_C 	C 	0.9812	0.1186	0.2268	0.313
Mof_C 	C 	0.983	0.3158	0.388	-0.163
Mof_C 	C 	0.0276	0.4958	0.3992	-0.066
Mof_C 	C 	0.0803	0.5399	0.2463	0.337
Mof_C 	C 	0.4812	0.2268	0.1186	0.344
Mof_C 	C 	0.483	0.388	0.3158	-0.116
Mof_C 	C 	0.5276	0.3992	0.4958	-0.122
Mof_C 	C 	0.5803	0.2463	0.5399	0.352
Mof_O 	O 	0.0914	0.0451	0.2919	-0.252
Mof_O 	O 	0.8681	0.0289	0.0447	-0.288
Mof_O 	O 	0.009	0.4109	0.0597	-0.301
Mof_O 	O 	0.2008	0.7192	0.3224	-0.376
Mof_O 	O 	0.5914	0.2919	0.0451	-0.289
Mof_O 	O 	0.3681	0.0447	0.0289	-0.28
Mof_O 	O 	0.509	0.0597	0.4109	-0.319
Mof_O 	O 	0.7008	0.3224	0.7192	-0.387
_end
