# CIF file generated by openbabel 3.1.0, see https://openbabel.org
data_I
_chemical_name_common 'GAWBEM_clean'
_cell_length_a 9.6189
_cell_length_b 10.639
_cell_length_c 10.986
_cell_angle_alpha 79.523
_cell_angle_beta 64.995
_cell_angle_gamma 70.574
_space_group_name_H-M_alt 'P 1'
_space_group_name_Hall 'P 1'
loop_
    _symmetry_equiv_pos_as_xyz
    x,y,z
loop_
    _atom_site_label
    _atom_site_type_symbol
    _atom_site_fract_x
    _atom_site_fract_y
    _atom_site_fract_z
    _atom_site_occupancy
    Cu1      Cu       0.65174    0.15708    0.54579    1.000
    Cu2      Cu       0.34826    0.84292    0.45421    1.000
    Cu3      Cu       0.00000    0.50000    0.50000    1.000
    Mo1      Mo       0.35329    0.20841    0.40615    1.000
    Mo2      Mo       0.64671    0.79159    0.59385    1.000
    H1       H        0.56110    0.20980    0.83380    1.000
    H2       H        0.36370    0.20320    0.04100    1.000
    H3       H        0.21410    0.11350    0.22830    1.000
    H4       H        0.00340    0.12170    0.42850    1.000
    H5       H        0.70830    0.20110    0.25190    1.000
    H6       H        0.91040    0.19250    0.04690    1.000
    H7       H        0.13930    0.08080    0.87390    1.000
    H8       H        0.34910    0.07930    0.67360    1.000
    H9       H        0.23510    0.47980    0.82500    1.000
    H10      H        0.22970    0.48100    0.61910    1.000
    H11      H        0.76700    0.52150    0.98820    1.000
    H12      H        0.77200    0.52930    0.77860    1.000
    H13      H        0.43890    0.79020    0.16620    1.000
    H14      H        0.63630    0.79680    0.95900    1.000
    H15      H        0.78590    0.88650    0.77170    1.000
    H16      H        0.99660    0.87830    0.57150    1.000
    H17      H        0.29170    0.79890    0.74810    1.000
    H18      H        0.08960    0.80750    0.95310    1.000
    H19      H        0.86070    0.91920    0.12610    1.000
    H20      H        0.65090    0.92070    0.32640    1.000
    H21      H        0.76490    0.52020    0.17500    1.000
    H22      H        0.77030    0.51900    0.38090    1.000
    H23      H        0.23300    0.47850    0.01180    1.000
    H24      H        0.22800    0.47070    0.22140    1.000
    C1       C        0.47450    0.18330    0.84210    1.000
    C2       C        0.35550    0.18120    0.96660    1.000
    C3       C        0.22390    0.14660    0.98130    1.000
    C4       C        0.08830    0.15180    0.11260    1.000
    C5       C        0.11180    0.13130    0.23030    1.000
    C6       C        0.98420    0.13700    0.35010    1.000
    C7       C        0.81200    0.18300    0.24700    1.000
    C8       C        0.93240    0.17820    0.12380    1.000
    C9       C        0.22450    0.10770    0.86830    1.000
    C10      C        0.34990    0.10870    0.74800    1.000
    C11      C        0.13900    0.48900    0.81830    1.000
    C12      C        0.13460    0.49100    0.69490    1.000
    C13      C        0.00040    0.50050    0.93260    1.000
    C14      C        0.86330    0.51450    0.91410    1.000
    C15      C        0.86700    0.51820    0.78820    1.000
    C16      C        0.52550    0.81670    0.15790    1.000
    C17      C        0.64450    0.81880    0.03340    1.000
    C18      C        0.77610    0.85340    0.01870    1.000
    C19      C        0.91170    0.84820    0.88740    1.000
    C20      C        0.88820    0.86870    0.76970    1.000
    C21      C        0.01580    0.86300    0.64990    1.000
    C22      C        0.18800    0.81700    0.75300    1.000
    C23      C        0.06760    0.82180    0.87620    1.000
    C24      C        0.77550    0.89230    0.13170    1.000
    C25      C        0.65010    0.89130    0.25200    1.000
    C26      C        0.86100    0.51100    0.18170    1.000
    C27      C        0.86540    0.50900    0.30510    1.000
    C28      C        0.99960    0.49950    0.06740    1.000
    C29      C        0.13670    0.48550    0.08590    1.000
    C30      C        0.13300    0.48180    0.21180    1.000
    N1       N        0.47310    0.14930    0.73190    1.000
    N2       N        0.83460    0.16300    0.36190    1.000
    N3       N        0.00070    0.50650    0.67900    1.000
    N4       N        0.52690    0.85070    0.26810    1.000
    N5       N        0.16540    0.83700    0.63810    1.000
    N6       N        0.99930    0.49350    0.32100    1.000
    O1       O        0.49790    0.20850    0.46480    1.000
    O2       O        0.29340    0.06580    0.46580    1.000
    O3       O        0.18860    0.34920    0.46020    1.000
    O4       O        0.50210    0.79150    0.53520    1.000
    O5       O        0.70660    0.93420    0.53420    1.000
    O6       O        0.81140    0.65080    0.53980    1.000
