# CIF file generated by openbabel 3.1.0, see https://openbabel.org
data_I
_chemical_name_common 'image0'
_cell_length_a 39.0207
_cell_length_b 26.9906
_cell_length_c 27.3897
_cell_angle_alpha 90
_cell_angle_beta 134.565
_cell_angle_gamma 90
_space_group_name_H-M_alt 'P 1'
_space_group_name_Hall 'P 1'
loop_
    _symmetry_equiv_pos_as_xyz
    x,y,z
loop_
    _atom_site_label
    _atom_site_type_symbol
    _atom_site_fract_x
    _atom_site_fract_y
    _atom_site_fract_z
    _atom_site_occupancy
    C1       C        0.60680    0.83410    0.41280    1.000
    C2       C        0.60720    0.87800    0.38260    1.000
    C3       C        0.65010    0.89690    0.40610    1.000
    H1       H        0.67970    0.88310    0.44640    1.000
    C4       C        0.65130    0.93440    0.37340    1.000
    H2       H        0.68110    0.94430    0.38940    1.000
    C5       C        0.61020    0.95730    0.31880    1.000
    C6       C        0.56650    0.94270    0.29520    1.000
    H3       H        0.53740    0.95880    0.25710    1.000
    C7       C        0.56620    0.90380    0.32890    1.000
    H4       H        0.53660    0.89490    0.31420    1.000
    C8       C        0.61130    0.99820    0.28430    1.000
    C9       C        0.63670    0.99210    0.26540    1.000
    C10      C        0.58220    0.04140    0.26160    1.000
    H5       H        0.56380    0.04790    0.27160    1.000
    C11      C        0.58390    0.07270    0.22350    1.000
    C12      C        0.60480    0.07090    0.20250    1.000
    C13      C        0.63660    0.02780    0.22640    1.000
    H6       H        0.65560    0.02400    0.21680    1.000
    C14      C        0.60550    0.10800    0.16420    1.000
    C15      C        0.56600    0.12530    0.10810    1.000
    H7       H        0.53650    0.11450    0.09260    1.000
    C16      C        0.56480    0.16160    0.06680    1.000
    H8       H        0.53560    0.17740    0.02860    1.000
    C17      C        0.60550    0.17180    0.08410    1.000
    C18      C        0.64720    0.15320    0.14380    1.000
    H9       H        0.67630    0.16100    0.15670    1.000
    C19      C        0.64930    0.12380    0.18660    1.000
    H10      H        0.67930    0.11420    0.23020    1.000
    C20      C        0.60390    0.20410    0.03650    1.000
    C21      C        0.68660    0.94630    0.25980    1.000
    H11      H        0.71430    0.96920    0.28900    1.000
    H12      H        0.66660    0.95430    0.21100    1.000
    C22      C        0.70410    0.88720    0.27710    1.000
    H13      H        0.67630    0.86490    0.25480    1.000
    H14      H        0.72830    0.88120    0.32720    1.000
    C23      C        0.59590    0.66680    0.49350    1.000
    C24      C        0.59420    0.62200    0.52220    1.000
    C25      C        0.55050    0.59910    0.49190    1.000
    H15      H        0.52110    0.61280    0.45100    1.000
    C26      C        0.54920    0.55660    0.52050    1.000
    H16      H        0.52030    0.53900    0.49820    1.000
    C27      C        0.59640    0.54160    0.58820    1.000
    C28      C        0.63820    0.56510    0.61820    1.000
    H17      H        0.66770    0.55470    0.66190    1.000
    C29      C        0.63710    0.60460    0.58430    1.000
    H18      H        0.66650    0.61990    0.60420    1.000
    C30      C        0.60100    0.49400    0.62920    1.000
    C31      C        0.63140    0.50800    0.70810    1.000
    H19      H        0.64790    0.53850    0.72920    1.000
    C32      C        0.59320    0.45240    0.61700    1.000
    C33      C        0.58070    0.41790    0.64100    1.000
    H20      H        0.55990    0.39060    0.61460    1.000
    C34      C        0.59960    0.42680    0.70000    1.000
    C35      C        0.63040    0.47130    0.73990    1.000
    C36      C        0.59840    0.39300    0.74450    1.000
    C37      C        0.55390    0.37280    0.71850    1.000
    H21      H        0.52420    0.38130    0.67390    1.000
    C38      C        0.55500    0.34200    0.75750    1.000
    H22      H        0.52590    0.32830    0.74030    1.000
    C39      C        0.59990    0.32910    0.82540    1.000
    C40      C        0.64110    0.34770    0.84810    1.000
    H23      H        0.67090    0.33890    0.89250    1.000
    C41      C        0.64130    0.37890    0.80900    1.000
    H24      H        0.67090    0.39090    0.82610    1.000
    C42      C        0.60080    0.29720    0.87060    1.000
    C43      C        0.54870    0.38820    0.51710    1.000
    H25      H        0.51860    0.39010    0.46780    1.000
    H26      H        0.57340    0.37470    0.51940    1.000
    C44      C        0.54190    0.35680    0.53900    1.000
    H27      H        0.50700    0.35010    0.50710    1.000
    H28      H        0.55430    0.36700    0.58370    1.000
    C45      C        0.56790    0.31090    0.54750    1.000
    H29      H        0.59870    0.31990    0.56240    1.000
    H30      H        0.57480    0.28850    0.58210    1.000
    C46      C        0.53620    0.28730    0.48130    1.000
    H31      H        0.54830    0.29590    0.46040    1.000
    H32      H        0.54080    0.25110    0.48980    1.000
    C47      C        0.48680    0.29560    0.43130    1.000
    H33      H        0.48070    0.31610    0.39590    1.000
    H34      H        0.48020    0.31730    0.45320    1.000
    C48      C        0.44920    0.25890    0.39430    1.000
    H35      H        0.46470    0.22590    0.41140    1.000
    H36      H        0.43060    0.26330    0.40620    1.000
    C49      C        0.41570    0.25820    0.32090    1.000
    H37      H        0.40410    0.22350    0.30730    1.000
    H38      H        0.43530    0.26370    0.31080    1.000
    C50      C        0.37360    0.28860    0.27270    1.000
    H39      H        0.35760    0.27990    0.22590    1.000
    H40      H        0.38310    0.32360    0.28130    1.000
    H41      H        0.35150    0.28300    0.27790    1.000
    C51      C        0.68460    0.52870    0.83720    1.000
    H42      H        0.70850    0.52690    0.83440    1.000
    H43      H        0.66520    0.55930    0.81420    1.000
    C52      C        0.70860    0.52610    0.91110    1.000
    H44      H        0.68320    0.51800    0.90970    1.000
    H45      H        0.73100    0.49760    0.93280    1.000
    C53      C        0.73740    0.57150    0.96080    1.000
    H46      H        0.71520    0.60020    0.93930    1.000
    H47      H        0.76310    0.57950    0.96280    1.000
    C54      C        0.76000    0.56800    0.03200    1.000
    H48      H        0.78600    0.54300    0.05620    1.000
    H49      H        0.73560    0.55550    0.03090    1.000
    C55      C        0.77950    0.61170    0.07090    1.000
    H50      H        0.81510    0.61000    0.10500    1.000
    H51      H        0.76900    0.64030    0.04040    1.000
    C56      C        0.76220    0.61980    0.11120    1.000
    H52      H        0.74250    0.65030    0.09230    1.000
    H53      H        0.79160    0.62680    0.15980    1.000
    C57      C        0.73330    0.57910    0.11130    1.000
    H54      H        0.69840    0.58300    0.07040    1.000
    H55      H        0.73910    0.58280    0.15260    1.000
    C58      C        0.74980    0.52800    0.11090    1.000
    H56      H        0.73200    0.50240    0.11100    1.000
    H57      H        0.74370    0.52450    0.06970    1.000
    H58      H        0.78430    0.52430    0.15180    1.000
    C59      C        0.74870    0.75280    0.63920    1.000
    H59      H        0.73090    0.76030    0.65010    1.000
    C60      C        0.79950    0.75290    0.69160    1.000
    H60      H        0.81560    0.76580    0.73550    1.000
    C61      C        0.82450    0.73540    0.68050    1.000
    C62      C        0.79910    0.71690    0.61760    1.000
    H61      H        0.81430    0.70510    0.60400    1.000
    C63      C        0.75000    0.71610    0.57380    1.000
    H62      H        0.73180    0.69380    0.53610    1.000
    C64      C        0.95410    0.71440    0.77470    1.000
    H63      H        0.97150    0.69880    0.76640    1.000
    C65      C        0.90340    0.71120    0.72360    1.000
    H64      H        0.88690    0.69370    0.68210    1.000
    C66      C        0.87840    0.73430    0.73600    1.000
    C67      C        0.90350    0.75850    0.79620    1.000
    H65      H        0.88700    0.77440    0.80570    1.000
    C68      C        0.95210    0.76000    0.84270    1.000
    H66      H        0.96890    0.77730    0.88440    1.000
    O1       O        0.56496    0.81800    0.38440    1.000
    O2       O        0.64392    0.81240    0.45930    1.000
    O3       O        0.56652    0.21710    0.98480    1.000
    O4       O        0.64575    0.21550    0.05970    1.000
    O5       O        0.65690    0.94760    0.27770    1.000
    O6       O        0.55450    0.11630    0.19730    1.000
    O7       O        0.55491    0.68511    0.43910    1.000
    O8       O        0.63448    0.68550    0.52300    1.000
    O9       O        0.56093    0.28234    0.84740    1.000
    O10      O        0.64117    0.28740    0.92900    1.000
    O11      O        0.56320    0.44100    0.54000    1.000
    O12      O        0.65460    0.48520    0.80850    1.000
    Zn1      Zn       0.65280    0.74784    0.50455    1.000
    Zn2      Zn       0.54927    0.75237    0.40091    1.000
    N1       N        0.72790    0.74340    0.58150    1.000
    N2       N        0.97841    0.73790    0.83290    1.000
    C69      C        0.10680    0.33410    0.41280    1.000
    C70      C        0.10720    0.37800    0.38260    1.000
    C71      C        0.15010    0.39690    0.40610    1.000
    H67      H        0.17970    0.38310    0.44640    1.000
    C72      C        0.15130    0.43440    0.37340    1.000
    H68      H        0.18110    0.44430    0.38940    1.000
    C73      C        0.11020    0.45730    0.31880    1.000
    C74      C        0.06650    0.44270    0.29520    1.000
    H69      H        0.03740    0.45880    0.25710    1.000
    C75      C        0.06620    0.40380    0.32890    1.000
    H70      H        0.03660    0.39490    0.31420    1.000
    C76      C        0.11130    0.49820    0.28430    1.000
    C77      C        0.13670    0.49210    0.26540    1.000
    C78      C        0.08220    0.54140    0.26160    1.000
    H71      H        0.06380    0.54790    0.27160    1.000
    C79      C        0.08390    0.57270    0.22350    1.000
    C80      C        0.10480    0.57090    0.20250    1.000
    C81      C        0.13660    0.52780    0.22640    1.000
    H72      H        0.15560    0.52400    0.21680    1.000
    C82      C        0.10550    0.60800    0.16420    1.000
    C83      C        0.06600    0.62530    0.10810    1.000
    H73      H        0.03650    0.61450    0.09260    1.000
    C84      C        0.06480    0.66160    0.06680    1.000
    H74      H        0.03560    0.67740    0.02860    1.000
    C85      C        0.10550    0.67180    0.08410    1.000
    C86      C        0.14720    0.65320    0.14380    1.000
    H75      H        0.17630    0.66100    0.15670    1.000
    C87      C        0.14930    0.62380    0.18660    1.000
    H76      H        0.17930    0.61420    0.23020    1.000
    C88      C        0.10390    0.70410    0.03650    1.000
    C89      C        0.18660    0.44630    0.25980    1.000
    H77      H        0.21430    0.46920    0.28900    1.000
    H78      H        0.16660    0.45430    0.21100    1.000
    C90      C        0.20410    0.38720    0.27710    1.000
    H79      H        0.17630    0.36490    0.25480    1.000
    H80      H        0.22830    0.38120    0.32720    1.000
    C91      C        0.09590    0.16680    0.49350    1.000
    C92      C        0.09420    0.12200    0.52220    1.000
    C93      C        0.05050    0.09910    0.49190    1.000
    H81      H        0.02110    0.11280    0.45100    1.000
    C94      C        0.04920    0.05660    0.52050    1.000
    H82      H        0.02030    0.03900    0.49820    1.000
    C95      C        0.09640    0.04160    0.58820    1.000
    C96      C        0.13820    0.06510    0.61820    1.000
    H83      H        0.16770    0.05470    0.66190    1.000
    C97      C        0.13710    0.10460    0.58430    1.000
    H84      H        0.16650    0.11990    0.60420    1.000
    C98      C        0.10100    0.99400    0.62920    1.000
    C99      C        0.13140    0.00800    0.70810    1.000
    H85      H        0.14790    0.03850    0.72920    1.000
    C100     C        0.09320    0.95240    0.61700    1.000
    C101     C        0.08070    0.91790    0.64100    1.000
    H86      H        0.05990    0.89060    0.61460    1.000
    C102     C        0.09960    0.92680    0.70000    1.000
    C103     C        0.13040    0.97130    0.73990    1.000
    C104     C        0.09840    0.89300    0.74450    1.000
    C105     C        0.05390    0.87280    0.71850    1.000
    H87      H        0.02420    0.88130    0.67390    1.000
    C106     C        0.05500    0.84200    0.75750    1.000
    H88      H        0.02590    0.82830    0.74030    1.000
    C107     C        0.09990    0.82910    0.82540    1.000
    C108     C        0.14110    0.84770    0.84810    1.000
    H89      H        0.17090    0.83890    0.89250    1.000
    C109     C        0.14130    0.87890    0.80900    1.000
    H90      H        0.17090    0.89090    0.82610    1.000
    C110     C        0.10080    0.79720    0.87060    1.000
    C111     C        0.04870    0.88820    0.51710    1.000
    H91      H        0.01860    0.89010    0.46780    1.000
    H92      H        0.07340    0.87470    0.51940    1.000
    C112     C        0.04190    0.85680    0.53900    1.000
    H93      H        0.00700    0.85010    0.50710    1.000
    H94      H        0.05430    0.86700    0.58370    1.000
    C113     C        0.06790    0.81090    0.54750    1.000
    H95      H        0.09870    0.81990    0.56240    1.000
    H96      H        0.07480    0.78850    0.58210    1.000
    C114     C        0.03620    0.78730    0.48130    1.000
    H97      H        0.04830    0.79590    0.46040    1.000
    H98      H        0.04080    0.75110    0.48980    1.000
    C115     C        0.98680    0.79560    0.43130    1.000
    H99      H        0.98070    0.81610    0.39590    1.000
    H100     H        0.98020    0.81730    0.45320    1.000
    C116     C        0.94920    0.75890    0.39430    1.000
    H101     H        0.96470    0.72590    0.41140    1.000
    H102     H        0.93060    0.76330    0.40620    1.000
    C117     C        0.91570    0.75820    0.32090    1.000
    H103     H        0.90410    0.72350    0.30730    1.000
    H104     H        0.93530    0.76370    0.31080    1.000
    C118     C        0.87360    0.78860    0.27270    1.000
    H105     H        0.85760    0.77990    0.22590    1.000
    H106     H        0.88310    0.82360    0.28130    1.000
    H107     H        0.85150    0.78300    0.27790    1.000
    C119     C        0.18460    0.02870    0.83720    1.000
    H108     H        0.20850    0.02690    0.83440    1.000
    H109     H        0.16520    0.05930    0.81420    1.000
    C120     C        0.20860    0.02610    0.91110    1.000
    H110     H        0.18320    0.01800    0.90970    1.000
    H111     H        0.23100    0.99760    0.93280    1.000
    C121     C        0.23740    0.07150    0.96080    1.000
    H112     H        0.21520    0.10020    0.93930    1.000
    H113     H        0.26310    0.07950    0.96280    1.000
    C122     C        0.26000    0.06800    0.03200    1.000
    H114     H        0.28600    0.04300    0.05620    1.000
    H115     H        0.23560    0.05550    0.03090    1.000
    C123     C        0.27950    0.11170    0.07090    1.000
    H116     H        0.31510    0.11000    0.10500    1.000
    H117     H        0.26900    0.14030    0.04040    1.000
    C124     C        0.26220    0.11980    0.11120    1.000
    H118     H        0.24250    0.15030    0.09230    1.000
    H119     H        0.29160    0.12680    0.15980    1.000
    C125     C        0.23330    0.07910    0.11130    1.000
    H120     H        0.19840    0.08300    0.07040    1.000
    H121     H        0.23910    0.08280    0.15260    1.000
    C126     C        0.24980    0.02800    0.11090    1.000
    H122     H        0.23200    0.00240    0.11100    1.000
    H123     H        0.24370    0.02450    0.06970    1.000
    H124     H        0.28430    0.02430    0.15180    1.000
    C127     C        0.24870    0.25280    0.63920    1.000
    H125     H        0.23090    0.26030    0.65010    1.000
    C128     C        0.29950    0.25290    0.69160    1.000
    H126     H        0.31560    0.26580    0.73550    1.000
    C129     C        0.32450    0.23540    0.68050    1.000
    C130     C        0.29910    0.21690    0.61760    1.000
    H127     H        0.31430    0.20510    0.60400    1.000
    C131     C        0.25000    0.21610    0.57380    1.000
    H128     H        0.23180    0.19380    0.53610    1.000
    C132     C        0.45410    0.21440    0.77470    1.000
    H129     H        0.47150    0.19880    0.76640    1.000
    C133     C        0.40340    0.21120    0.72360    1.000
    H130     H        0.38690    0.19370    0.68210    1.000
    C134     C        0.37840    0.23430    0.73600    1.000
    C135     C        0.40350    0.25850    0.79620    1.000
    H131     H        0.38700    0.27440    0.80570    1.000
    C136     C        0.45210    0.26000    0.84270    1.000
    H132     H        0.46890    0.27730    0.88440    1.000
    O13      O        0.06496    0.31800    0.38440    1.000
    O14      O        0.14392    0.31240    0.45930    1.000
    O15      O        0.06652    0.71710    0.98480    1.000
    O16      O        0.14575    0.71550    0.05970    1.000
    O17      O        0.15690    0.44760    0.27770    1.000
    O18      O        0.05450    0.61630    0.19730    1.000
    O19      O        0.05491    0.18511    0.43910    1.000
    O20      O        0.13448    0.18550    0.52300    1.000
    O21      O        0.06093    0.78234    0.84740    1.000
    O22      O        0.14117    0.78740    0.92900    1.000
    O23      O        0.06320    0.94100    0.54000    1.000
    O24      O        0.15460    0.98520    0.80850    1.000
    Zn3      Zn       0.15280    0.24784    0.50455    1.000
    Zn4      Zn       0.04927    0.25237    0.40091    1.000
    N3       N        0.22790    0.24340    0.58150    1.000
    N4       N        0.47841    0.23790    0.83290    1.000
    C137     C        0.60680    0.16590    0.91280    1.000
    C138     C        0.60720    0.12200    0.88260    1.000
    C139     C        0.65010    0.10310    0.90610    1.000
    H133     H        0.67970    0.11690    0.94640    1.000
    C140     C        0.65130    0.06560    0.87340    1.000
    H134     H        0.68110    0.05570    0.88940    1.000
    C141     C        0.61020    0.04270    0.81880    1.000
    C142     C        0.56650    0.05730    0.79520    1.000
    H135     H        0.53740    0.04120    0.75710    1.000
    C143     C        0.56620    0.09620    0.82890    1.000
    H136     H        0.53660    0.10510    0.81420    1.000
    C144     C        0.61130    0.00180    0.78430    1.000
    C145     C        0.63670    0.00790    0.76540    1.000
    C146     C        0.58220    0.95860    0.76160    1.000
    H137     H        0.56380    0.95210    0.77160    1.000
    C147     C        0.58390    0.92730    0.72350    1.000
    C148     C        0.60480    0.92910    0.70250    1.000
    C149     C        0.63660    0.97220    0.72640    1.000
    H138     H        0.65560    0.97600    0.71680    1.000
    C150     C        0.60550    0.89200    0.66420    1.000
    C151     C        0.56600    0.87470    0.60810    1.000
    H139     H        0.53650    0.88550    0.59260    1.000
    C152     C        0.56480    0.83840    0.56680    1.000
    H140     H        0.53560    0.82260    0.52860    1.000
    C153     C        0.60550    0.82820    0.58410    1.000
    C154     C        0.64720    0.84680    0.64380    1.000
    H141     H        0.67630    0.83900    0.65670    1.000
    C155     C        0.64930    0.87620    0.68660    1.000
    H142     H        0.67930    0.88580    0.73020    1.000
    C156     C        0.60390    0.79590    0.53650    1.000
    C157     C        0.68660    0.05370    0.75980    1.000
    H143     H        0.71430    0.03080    0.78900    1.000
    H144     H        0.66660    0.04570    0.71100    1.000
    C158     C        0.70410    0.11280    0.77710    1.000
    H145     H        0.67630    0.13510    0.75480    1.000
    H146     H        0.72830    0.11880    0.82720    1.000
    C159     C        0.59590    0.33320    0.99350    1.000
    C160     C        0.59420    0.37800    0.02220    1.000
    C161     C        0.55050    0.40090    0.99190    1.000
    H147     H        0.52110    0.38720    0.95100    1.000
    C162     C        0.54920    0.44340    0.02050    1.000
    H148     H        0.52030    0.46100    0.99820    1.000
    C163     C        0.59640    0.45840    0.08820    1.000
    C164     C        0.63820    0.43490    0.11820    1.000
    H149     H        0.66770    0.44530    0.16190    1.000
    C165     C        0.63710    0.39540    0.08430    1.000
    H150     H        0.66650    0.38010    0.10420    1.000
    C166     C        0.60100    0.50600    0.12920    1.000
    C167     C        0.63140    0.49200    0.20810    1.000
    H151     H        0.64790    0.46150    0.22920    1.000
    C168     C        0.59320    0.54760    0.11700    1.000
    C169     C        0.58070    0.58210    0.14100    1.000
    H152     H        0.55990    0.60940    0.11460    1.000
    C170     C        0.59960    0.57320    0.20000    1.000
    C171     C        0.63040    0.52870    0.23990    1.000
    C172     C        0.59840    0.60700    0.24450    1.000
    C173     C        0.55390    0.62720    0.21850    1.000
    H153     H        0.52420    0.61870    0.17390    1.000
    C174     C        0.55500    0.65800    0.25750    1.000
    H154     H        0.52590    0.67170    0.24030    1.000
    C175     C        0.59990    0.67090    0.32540    1.000
    C176     C        0.64110    0.65230    0.34810    1.000
    H155     H        0.67090    0.66110    0.39250    1.000
    C177     C        0.64130    0.62110    0.30900    1.000
    H156     H        0.67090    0.60910    0.32610    1.000
    C178     C        0.60080    0.70280    0.37060    1.000
    C179     C        0.54870    0.61180    0.01710    1.000
    H157     H        0.51860    0.60990    0.96780    1.000
    H158     H        0.57340    0.62530    0.01940    1.000
    C180     C        0.54190    0.64320    0.03900    1.000
    H159     H        0.50700    0.64990    0.00710    1.000
    H160     H        0.55430    0.63300    0.08370    1.000
    C181     C        0.56790    0.68910    0.04750    1.000
    H161     H        0.59870    0.68010    0.06240    1.000
    H162     H        0.57480    0.71150    0.08210    1.000
    C182     C        0.53620    0.71270    0.98130    1.000
    H163     H        0.54830    0.70410    0.96040    1.000
    H164     H        0.54080    0.74890    0.98980    1.000
    C183     C        0.48680    0.70440    0.93130    1.000
    H165     H        0.48070    0.68390    0.89590    1.000
    H166     H        0.48020    0.68270    0.95320    1.000
    C184     C        0.44920    0.74110    0.89430    1.000
    H167     H        0.46470    0.77410    0.91140    1.000
    H168     H        0.43060    0.73670    0.90620    1.000
    C185     C        0.41570    0.74180    0.82090    1.000
    H169     H        0.40410    0.77650    0.80730    1.000
    H170     H        0.43530    0.73630    0.81080    1.000
    C186     C        0.37360    0.71140    0.77270    1.000
    H171     H        0.35760    0.72010    0.72590    1.000
    H172     H        0.38310    0.67640    0.78130    1.000
    H173     H        0.35150    0.71700    0.77790    1.000
    C187     C        0.68460    0.47130    0.33720    1.000
    H174     H        0.70850    0.47310    0.33440    1.000
    H175     H        0.66520    0.44070    0.31420    1.000
    C188     C        0.70860    0.47390    0.41110    1.000
    H176     H        0.68320    0.48200    0.40970    1.000
    H177     H        0.73100    0.50240    0.43280    1.000
    C189     C        0.73740    0.42850    0.46080    1.000
    H178     H        0.71520    0.39980    0.43930    1.000
    H179     H        0.76310    0.42050    0.46280    1.000
    C190     C        0.76000    0.43200    0.53200    1.000
    H180     H        0.78600    0.45700    0.55620    1.000
    H181     H        0.73560    0.44450    0.53090    1.000
    C191     C        0.77950    0.38830    0.57090    1.000
    H182     H        0.81510    0.39000    0.60500    1.000
    H183     H        0.76900    0.35970    0.54040    1.000
    C192     C        0.76220    0.38020    0.61120    1.000
    H184     H        0.74250    0.34970    0.59230    1.000
    H185     H        0.79160    0.37320    0.65980    1.000
    C193     C        0.73330    0.42090    0.61130    1.000
    H186     H        0.69840    0.41700    0.57040    1.000
    H187     H        0.73910    0.41720    0.65260    1.000
    C194     C        0.74980    0.47200    0.61090    1.000
    H188     H        0.73200    0.49760    0.61100    1.000
    H189     H        0.74370    0.47550    0.56970    1.000
    H190     H        0.78430    0.47570    0.65180    1.000
    C195     C        0.74870    0.24720    0.13920    1.000
    H191     H        0.73090    0.23970    0.15010    1.000
    C196     C        0.79950    0.24710    0.19160    1.000
    H192     H        0.81560    0.23420    0.23550    1.000
    C197     C        0.82450    0.26460    0.18050    1.000
    C198     C        0.79910    0.28310    0.11760    1.000
    H193     H        0.81430    0.29490    0.10400    1.000
    C199     C        0.75000    0.28390    0.07380    1.000
    H194     H        0.73180    0.30620    0.03610    1.000
    C200     C        0.95410    0.28560    0.27470    1.000
    H195     H        0.97150    0.30120    0.26640    1.000
    C201     C        0.90340    0.28880    0.22360    1.000
    H196     H        0.88690    0.30630    0.18210    1.000
    C202     C        0.87840    0.26570    0.23600    1.000
    C203     C        0.90350    0.24150    0.29620    1.000
    H197     H        0.88700    0.22560    0.30570    1.000
    C204     C        0.95210    0.24000    0.34270    1.000
    H198     H        0.96890    0.22270    0.38440    1.000
    O25      O        0.56496    0.18200    0.88440    1.000
    O26      O        0.64392    0.18760    0.95930    1.000
    O27      O        0.56652    0.78290    0.48480    1.000
    O28      O        0.64575    0.78450    0.55970    1.000
    O29      O        0.65690    0.05240    0.77770    1.000
    O30      O        0.55450    0.88370    0.69730    1.000
    O31      O        0.55491    0.31489    0.93910    1.000
    O32      O        0.63448    0.31450    0.02300    1.000
    O33      O        0.56093    0.71766    0.34740    1.000
    O34      O        0.64117    0.71260    0.42900    1.000
    O35      O        0.56320    0.55900    0.04000    1.000
    O36      O        0.65460    0.51480    0.30850    1.000
    Zn5      Zn       0.65280    0.25216    0.00455    1.000
    Zn6      Zn       0.54927    0.24763    0.90091    1.000
    N5       N        0.72790    0.25660    0.08150    1.000
    N6       N        0.97841    0.26210    0.33290    1.000
    C205     C        0.10680    0.66590    0.91280    1.000
    C206     C        0.10720    0.62200    0.88260    1.000
    C207     C        0.15010    0.60310    0.90610    1.000
    H199     H        0.17970    0.61690    0.94640    1.000
    C208     C        0.15130    0.56560    0.87340    1.000
    H200     H        0.18110    0.55570    0.88940    1.000
    C209     C        0.11020    0.54270    0.81880    1.000
    C210     C        0.06650    0.55730    0.79520    1.000
    H201     H        0.03740    0.54120    0.75710    1.000
    C211     C        0.06620    0.59620    0.82890    1.000
    H202     H        0.03660    0.60510    0.81420    1.000
    C212     C        0.11130    0.50180    0.78430    1.000
    C213     C        0.13670    0.50790    0.76540    1.000
    C214     C        0.08220    0.45860    0.76160    1.000
    H203     H        0.06380    0.45210    0.77160    1.000
    C215     C        0.08390    0.42730    0.72350    1.000
    C216     C        0.10480    0.42910    0.70250    1.000
    C217     C        0.13660    0.47220    0.72640    1.000
    H204     H        0.15560    0.47600    0.71680    1.000
    C218     C        0.10550    0.39200    0.66420    1.000
    C219     C        0.06600    0.37470    0.60810    1.000
    H205     H        0.03650    0.38550    0.59260    1.000
    C220     C        0.06480    0.33840    0.56680    1.000
    H206     H        0.03560    0.32260    0.52860    1.000
    C221     C        0.10550    0.32820    0.58410    1.000
    C222     C        0.14720    0.34680    0.64380    1.000
    H207     H        0.17630    0.33900    0.65670    1.000
    C223     C        0.14930    0.37620    0.68660    1.000
    H208     H        0.17930    0.38580    0.73020    1.000
    C224     C        0.10390    0.29590    0.53650    1.000
    C225     C        0.18660    0.55370    0.75980    1.000
    H209     H        0.21430    0.53080    0.78900    1.000
    H210     H        0.16660    0.54570    0.71100    1.000
    C226     C        0.20410    0.61280    0.77710    1.000
    H211     H        0.17630    0.63510    0.75480    1.000
    H212     H        0.22830    0.61880    0.82720    1.000
    C227     C        0.09590    0.83320    0.99350    1.000
    C228     C        0.09420    0.87800    0.02220    1.000
    C229     C        0.05050    0.90090    0.99190    1.000
    H213     H        0.02110    0.88720    0.95100    1.000
    C230     C        0.04920    0.94340    0.02050    1.000
    H214     H        0.02030    0.96100    0.99820    1.000
    C231     C        0.09640    0.95840    0.08820    1.000
    C232     C        0.13820    0.93490    0.11820    1.000
    H215     H        0.16770    0.94530    0.16190    1.000
    C233     C        0.13710    0.89540    0.08430    1.000
    H216     H        0.16650    0.88010    0.10420    1.000
    C234     C        0.10100    0.00600    0.12920    1.000
    C235     C        0.13140    0.99200    0.20810    1.000
    H217     H        0.14790    0.96150    0.22920    1.000
    C236     C        0.09320    0.04760    0.11700    1.000
    C237     C        0.08070    0.08210    0.14100    1.000
    H218     H        0.05990    0.10940    0.11460    1.000
    C238     C        0.09960    0.07320    0.20000    1.000
    C239     C        0.13040    0.02870    0.23990    1.000
    C240     C        0.09840    0.10700    0.24450    1.000
    C241     C        0.05390    0.12720    0.21850    1.000
    H219     H        0.02420    0.11870    0.17390    1.000
    C242     C        0.05500    0.15800    0.25750    1.000
    H220     H        0.02590    0.17170    0.24030    1.000
    C243     C        0.09990    0.17090    0.32540    1.000
    C244     C        0.14110    0.15230    0.34810    1.000
    H221     H        0.17090    0.16110    0.39250    1.000
    C245     C        0.14130    0.12110    0.30900    1.000
    H222     H        0.17090    0.10910    0.32610    1.000
    C246     C        0.10080    0.20280    0.37060    1.000
    C247     C        0.04870    0.11180    0.01710    1.000
    H223     H        0.01860    0.10990    0.96780    1.000
    H224     H        0.07340    0.12530    0.01940    1.000
    C248     C        0.04190    0.14320    0.03900    1.000
    H225     H        0.00700    0.14990    0.00710    1.000
    H226     H        0.05430    0.13300    0.08370    1.000
    C249     C        0.06790    0.18910    0.04750    1.000
    H227     H        0.09870    0.18010    0.06240    1.000
    H228     H        0.07480    0.21150    0.08210    1.000
    C250     C        0.03620    0.21270    0.98130    1.000
    H229     H        0.04830    0.20410    0.96040    1.000
    H230     H        0.04080    0.24890    0.98980    1.000
    C251     C        0.98680    0.20440    0.93130    1.000
    H231     H        0.98070    0.18390    0.89590    1.000
    H232     H        0.98020    0.18270    0.95320    1.000
    C252     C        0.94920    0.24110    0.89430    1.000
    H233     H        0.96470    0.27410    0.91140    1.000
    H234     H        0.93060    0.23670    0.90620    1.000
    C253     C        0.91570    0.24180    0.82090    1.000
    H235     H        0.90410    0.27650    0.80730    1.000
    H236     H        0.93530    0.23630    0.81080    1.000
    C254     C        0.87360    0.21140    0.77270    1.000
    H237     H        0.85760    0.22010    0.72590    1.000
    H238     H        0.88310    0.17640    0.78130    1.000
    H239     H        0.85150    0.21700    0.77790    1.000
    C255     C        0.18460    0.97130    0.33720    1.000
    H240     H        0.20850    0.97310    0.33440    1.000
    H241     H        0.16520    0.94070    0.31420    1.000
    C256     C        0.20860    0.97390    0.41110    1.000
    H242     H        0.18320    0.98200    0.40970    1.000
    H243     H        0.23100    0.00240    0.43280    1.000
    C257     C        0.23740    0.92850    0.46080    1.000
    H244     H        0.21520    0.89980    0.43930    1.000
    H245     H        0.26310    0.92050    0.46280    1.000
    C258     C        0.26000    0.93200    0.53200    1.000
    H246     H        0.28600    0.95700    0.55620    1.000
    H247     H        0.23560    0.94450    0.53090    1.000
    C259     C        0.27950    0.88830    0.57090    1.000
    H248     H        0.31510    0.89000    0.60500    1.000
    H249     H        0.26900    0.85970    0.54040    1.000
    C260     C        0.26220    0.88020    0.61120    1.000
    H250     H        0.24250    0.84970    0.59230    1.000
    H251     H        0.29160    0.87320    0.65980    1.000
    C261     C        0.23330    0.92090    0.61130    1.000
    H252     H        0.19840    0.91700    0.57040    1.000
    H253     H        0.23910    0.91720    0.65260    1.000
    C262     C        0.24980    0.97200    0.61090    1.000
    H254     H        0.23200    0.99760    0.61100    1.000
    H255     H        0.24370    0.97550    0.56970    1.000
    H256     H        0.28430    0.97570    0.65180    1.000
    C263     C        0.24870    0.74720    0.13920    1.000
    H257     H        0.23090    0.73970    0.15010    1.000
    C264     C        0.29950    0.74710    0.19160    1.000
    H258     H        0.31560    0.73420    0.23550    1.000
    C265     C        0.32450    0.76460    0.18050    1.000
    C266     C        0.29910    0.78310    0.11760    1.000
    H259     H        0.31430    0.79490    0.10400    1.000
    C267     C        0.25000    0.78390    0.07380    1.000
    H260     H        0.23180    0.80620    0.03610    1.000
    C268     C        0.45410    0.78560    0.27470    1.000
    H261     H        0.47150    0.80120    0.26640    1.000
    C269     C        0.40340    0.78880    0.22360    1.000
    H262     H        0.38690    0.80630    0.18210    1.000
    C270     C        0.37840    0.76570    0.23600    1.000
    C271     C        0.40350    0.74150    0.29620    1.000
    H263     H        0.38700    0.72560    0.30570    1.000
    C272     C        0.45210    0.74000    0.34270    1.000
    H264     H        0.46890    0.72270    0.38440    1.000
    O37      O        0.06496    0.68200    0.88440    1.000
    O38      O        0.14392    0.68760    0.95930    1.000
    O39      O        0.06652    0.28290    0.48480    1.000
    O40      O        0.14575    0.28450    0.55970    1.000
    O41      O        0.15690    0.55240    0.77770    1.000
    O42      O        0.05450    0.38370    0.69730    1.000
    O43      O        0.05491    0.81489    0.93910    1.000
    O44      O        0.13448    0.81450    0.02300    1.000
    O45      O        0.06093    0.21766    0.34740    1.000
    O46      O        0.14117    0.21260    0.42900    1.000
    O47      O        0.06320    0.05900    0.04000    1.000
    O48      O        0.15460    0.01480    0.30850    1.000
    Zn7      Zn       0.15280    0.75216    0.00455    1.000
    Zn8      Zn       0.04927    0.74763    0.90091    1.000
    N7       N        0.22790    0.75660    0.08150    1.000
    N8       N        0.47841    0.76210    0.33290    1.000
    C273     C        0.39320    0.83410    0.08720    1.000
    C274     C        0.39280    0.87800    0.11740    1.000
    C275     C        0.34990    0.89690    0.09390    1.000
    H265     H        0.32030    0.88310    0.05360    1.000
    C276     C        0.34870    0.93440    0.12660    1.000
    H266     H        0.31890    0.94430    0.11060    1.000
    C277     C        0.38980    0.95730    0.18120    1.000
    C278     C        0.43350    0.94270    0.20480    1.000
    H267     H        0.46260    0.95880    0.24290    1.000
    C279     C        0.43380    0.90380    0.17110    1.000
    H268     H        0.46340    0.89490    0.18580    1.000
    C280     C        0.38870    0.99820    0.21570    1.000
    C281     C        0.36330    0.99210    0.23460    1.000
    C282     C        0.41780    0.04140    0.23840    1.000
    H269     H        0.43620    0.04790    0.22840    1.000
    C283     C        0.41610    0.07270    0.27650    1.000
    C284     C        0.39520    0.07090    0.29750    1.000
    C285     C        0.36340    0.02780    0.27360    1.000
    H270     H        0.34440    0.02400    0.28320    1.000
    C286     C        0.39450    0.10800    0.33580    1.000
    C287     C        0.43400    0.12530    0.39190    1.000
    H271     H        0.46350    0.11450    0.40740    1.000
    C288     C        0.43520    0.16160    0.43320    1.000
    H272     H        0.46440    0.17740    0.47140    1.000
    C289     C        0.39450    0.17180    0.41590    1.000
    C290     C        0.35280    0.15320    0.35620    1.000
    H273     H        0.32370    0.16100    0.34330    1.000
    C291     C        0.35070    0.12380    0.31340    1.000
    H274     H        0.32070    0.11420    0.26980    1.000
    C292     C        0.39610    0.20410    0.46350    1.000
    C293     C        0.31340    0.94630    0.24020    1.000
    H275     H        0.28570    0.96920    0.21100    1.000
    H276     H        0.33340    0.95430    0.28900    1.000
    C294     C        0.29590    0.88720    0.22290    1.000
    H277     H        0.32370    0.86490    0.24520    1.000
    H278     H        0.27170    0.88120    0.17280    1.000
    C295     C        0.40410    0.66680    0.00650    1.000
    C296     C        0.40580    0.62200    0.97780    1.000
    C297     C        0.44950    0.59910    0.00810    1.000
    H279     H        0.47890    0.61280    0.04900    1.000
    C298     C        0.45080    0.55660    0.97950    1.000
    H280     H        0.47970    0.53900    0.00180    1.000
    C299     C        0.40360    0.54160    0.91180    1.000
    C300     C        0.36180    0.56510    0.88180    1.000
    H281     H        0.33230    0.55470    0.83810    1.000
    C301     C        0.36290    0.60460    0.91570    1.000
    H282     H        0.33350    0.61990    0.89580    1.000
    C302     C        0.39900    0.49400    0.87080    1.000
    C303     C        0.36860    0.50800    0.79190    1.000
    H283     H        0.35210    0.53850    0.77080    1.000
    C304     C        0.40680    0.45240    0.88300    1.000
    C305     C        0.41930    0.41790    0.85900    1.000
    H284     H        0.44010    0.39060    0.88540    1.000
    C306     C        0.40040    0.42680    0.80000    1.000
    C307     C        0.36960    0.47130    0.76010    1.000
    C308     C        0.40160    0.39300    0.75550    1.000
    C309     C        0.44610    0.37280    0.78150    1.000
    H285     H        0.47580    0.38130    0.82610    1.000
    C310     C        0.44500    0.34200    0.74250    1.000
    H286     H        0.47410    0.32830    0.75970    1.000
    C311     C        0.40010    0.32910    0.67460    1.000
    C312     C        0.35890    0.34770    0.65190    1.000
    H287     H        0.32910    0.33890    0.60750    1.000
    C313     C        0.35870    0.37890    0.69100    1.000
    H288     H        0.32910    0.39090    0.67390    1.000
    C314     C        0.39920    0.29720    0.62940    1.000
    C315     C        0.45130    0.38820    0.98290    1.000
    H289     H        0.48140    0.39010    0.03220    1.000
    H290     H        0.42660    0.37470    0.98060    1.000
    C316     C        0.45810    0.35680    0.96100    1.000
    H291     H        0.49300    0.35010    0.99290    1.000
    H292     H        0.44570    0.36700    0.91630    1.000
    C317     C        0.43210    0.31090    0.95250    1.000
    H293     H        0.40130    0.31990    0.93760    1.000
    H294     H        0.42520    0.28850    0.91790    1.000
    C318     C        0.46380    0.28730    0.01870    1.000
    H295     H        0.45170    0.29590    0.03960    1.000
    H296     H        0.45920    0.25110    0.01020    1.000
    C319     C        0.51320    0.29560    0.06870    1.000
    H297     H        0.51930    0.31610    0.10410    1.000
    H298     H        0.51980    0.31730    0.04680    1.000
    C320     C        0.55080    0.25890    0.10570    1.000
    H299     H        0.53530    0.22590    0.08860    1.000
    H300     H        0.56940    0.26330    0.09380    1.000
    C321     C        0.58430    0.25820    0.17910    1.000
    H301     H        0.59590    0.22350    0.19270    1.000
    H302     H        0.56470    0.26370    0.18920    1.000
    C322     C        0.62640    0.28860    0.22730    1.000
    H303     H        0.64240    0.27990    0.27410    1.000
    H304     H        0.61690    0.32360    0.21870    1.000
    H305     H        0.64850    0.28300    0.22210    1.000
    C323     C        0.31540    0.52870    0.66280    1.000
    H306     H        0.29150    0.52690    0.66560    1.000
    H307     H        0.33480    0.55930    0.68580    1.000
    C324     C        0.29140    0.52610    0.58890    1.000
    H308     H        0.31680    0.51800    0.59030    1.000
    H309     H        0.26900    0.49760    0.56720    1.000
    C325     C        0.26260    0.57150    0.53920    1.000
    H310     H        0.28480    0.60020    0.56070    1.000
    H311     H        0.23690    0.57950    0.53720    1.000
    C326     C        0.24000    0.56800    0.46800    1.000
    H312     H        0.21400    0.54300    0.44380    1.000
    H313     H        0.26440    0.55550    0.46910    1.000
    C327     C        0.22050    0.61170    0.42910    1.000
    H314     H        0.18490    0.61000    0.39500    1.000
    H315     H        0.23100    0.64030    0.45960    1.000
    C328     C        0.23780    0.61980    0.38880    1.000
    H316     H        0.25750    0.65030    0.40770    1.000
    H317     H        0.20840    0.62680    0.34020    1.000
    C329     C        0.26670    0.57910    0.38870    1.000
    H318     H        0.30160    0.58300    0.42960    1.000
    H319     H        0.26090    0.58280    0.34740    1.000
    C330     C        0.25020    0.52800    0.38910    1.000
    H320     H        0.26800    0.50240    0.38900    1.000
    H321     H        0.25630    0.52450    0.43030    1.000
    H322     H        0.21570    0.52430    0.34820    1.000
    C331     C        0.25130    0.75280    0.86080    1.000
    H323     H        0.26910    0.76030    0.84990    1.000
    C332     C        0.20050    0.75290    0.80840    1.000
    H324     H        0.18440    0.76580    0.76450    1.000
    C333     C        0.17550    0.73540    0.81950    1.000
    C334     C        0.20090    0.71690    0.88240    1.000
    H325     H        0.18570    0.70510    0.89600    1.000
    C335     C        0.25000    0.71610    0.92620    1.000
    H326     H        0.26820    0.69380    0.96390    1.000
    C336     C        0.04590    0.71440    0.72530    1.000
    H327     H        0.02850    0.69880    0.73360    1.000
    C337     C        0.09660    0.71120    0.77640    1.000
    H328     H        0.11310    0.69370    0.81790    1.000
    C338     C        0.12160    0.73430    0.76400    1.000
    C339     C        0.09650    0.75850    0.70380    1.000
    H329     H        0.11300    0.77440    0.69430    1.000
    C340     C        0.04790    0.76000    0.65730    1.000
    H330     H        0.03110    0.77730    0.61560    1.000
    O49      O        0.43504    0.81800    0.11560    1.000
    O50      O        0.35608    0.81240    0.04070    1.000
    O51      O        0.43348    0.21710    0.51520    1.000
    O52      O        0.35425    0.21550    0.44030    1.000
    O53      O        0.34310    0.94760    0.22230    1.000
    O54      O        0.44550    0.11630    0.30270    1.000
    O55      O        0.44509    0.68511    0.06090    1.000
    O56      O        0.36552    0.68550    0.97700    1.000
    O57      O        0.43907    0.28234    0.65260    1.000
    O58      O        0.35883    0.28740    0.57100    1.000
    O59      O        0.43680    0.44100    0.96000    1.000
    O60      O        0.34540    0.48520    0.69150    1.000
    Zn9      Zn       0.34720    0.74784    0.99545    1.000
    Zn10     Zn       0.45073    0.75237    0.09909    1.000
    N9       N        0.27210    0.74340    0.91850    1.000
    N10      N        0.02159    0.73790    0.66710    1.000
    C341     C        0.89320    0.33410    0.08720    1.000
    C342     C        0.89280    0.37800    0.11740    1.000
    C343     C        0.84990    0.39690    0.09390    1.000
    H331     H        0.82030    0.38310    0.05360    1.000
    C344     C        0.84870    0.43440    0.12660    1.000
    H332     H        0.81890    0.44430    0.11060    1.000
    C345     C        0.88980    0.45730    0.18120    1.000
    C346     C        0.93350    0.44270    0.20480    1.000
    H333     H        0.96260    0.45880    0.24290    1.000
    C347     C        0.93380    0.40380    0.17110    1.000
    H334     H        0.96340    0.39490    0.18580    1.000
    C348     C        0.88870    0.49820    0.21570    1.000
    C349     C        0.86330    0.49210    0.23460    1.000
    C350     C        0.91780    0.54140    0.23840    1.000
    H335     H        0.93620    0.54790    0.22840    1.000
    C351     C        0.91610    0.57270    0.27650    1.000
    C352     C        0.89520    0.57090    0.29750    1.000
    C353     C        0.86340    0.52780    0.27360    1.000
    H336     H        0.84440    0.52400    0.28320    1.000
    C354     C        0.89450    0.60800    0.33580    1.000
    C355     C        0.93400    0.62530    0.39190    1.000
    H337     H        0.96350    0.61450    0.40740    1.000
    C356     C        0.93520    0.66160    0.43320    1.000
    H338     H        0.96440    0.67740    0.47140    1.000
    C357     C        0.89450    0.67180    0.41590    1.000
    C358     C        0.85280    0.65320    0.35620    1.000
    H339     H        0.82370    0.66100    0.34330    1.000
    C359     C        0.85070    0.62380    0.31340    1.000
    H340     H        0.82070    0.61420    0.26980    1.000
    C360     C        0.89610    0.70410    0.46350    1.000
    C361     C        0.81340    0.44630    0.24020    1.000
    H341     H        0.78570    0.46920    0.21100    1.000
    H342     H        0.83340    0.45430    0.28900    1.000
    C362     C        0.79590    0.38720    0.22290    1.000
    H343     H        0.82370    0.36490    0.24520    1.000
    H344     H        0.77170    0.38120    0.17280    1.000
    C363     C        0.90410    0.16680    0.00650    1.000
    C364     C        0.90580    0.12200    0.97780    1.000
    C365     C        0.94950    0.09910    0.00810    1.000
    H345     H        0.97890    0.11280    0.04900    1.000
    C366     C        0.95080    0.05660    0.97950    1.000
    H346     H        0.97970    0.03900    0.00180    1.000
    C367     C        0.90360    0.04160    0.91180    1.000
    C368     C        0.86180    0.06510    0.88180    1.000
    H347     H        0.83230    0.05470    0.83810    1.000
    C369     C        0.86290    0.10460    0.91570    1.000
    H348     H        0.83350    0.11990    0.89580    1.000
    C370     C        0.89900    0.99400    0.87080    1.000
    C371     C        0.86860    0.00800    0.79190    1.000
    H349     H        0.85210    0.03850    0.77080    1.000
    C372     C        0.90680    0.95240    0.88300    1.000
    C373     C        0.91930    0.91790    0.85900    1.000
    H350     H        0.94010    0.89060    0.88540    1.000
    C374     C        0.90040    0.92680    0.80000    1.000
    C375     C        0.86960    0.97130    0.76010    1.000
    C376     C        0.90160    0.89300    0.75550    1.000
    C377     C        0.94610    0.87280    0.78150    1.000
    H351     H        0.97580    0.88130    0.82610    1.000
    C378     C        0.94500    0.84200    0.74250    1.000
    H352     H        0.97410    0.82830    0.75970    1.000
    C379     C        0.90010    0.82910    0.67460    1.000
    C380     C        0.85890    0.84770    0.65190    1.000
    H353     H        0.82910    0.83890    0.60750    1.000
    C381     C        0.85870    0.87890    0.69100    1.000
    H354     H        0.82910    0.89090    0.67390    1.000
    C382     C        0.89920    0.79720    0.62940    1.000
    C383     C        0.95130    0.88820    0.98290    1.000
    H355     H        0.98140    0.89010    0.03220    1.000
    H356     H        0.92660    0.87470    0.98060    1.000
    C384     C        0.95810    0.85680    0.96100    1.000
    H357     H        0.99300    0.85010    0.99290    1.000
    H358     H        0.94570    0.86700    0.91630    1.000
    C385     C        0.93210    0.81090    0.95250    1.000
    H359     H        0.90130    0.81990    0.93760    1.000
    H360     H        0.92520    0.78850    0.91790    1.000
    C386     C        0.96380    0.78730    0.01870    1.000
    H361     H        0.95170    0.79590    0.03960    1.000
    H362     H        0.95920    0.75110    0.01020    1.000
    C387     C        0.01320    0.79560    0.06870    1.000
    H363     H        0.01930    0.81610    0.10410    1.000
    H364     H        0.01980    0.81730    0.04680    1.000
    C388     C        0.05080    0.75890    0.10570    1.000
    H365     H        0.03530    0.72590    0.08860    1.000
    H366     H        0.06940    0.76330    0.09380    1.000
    C389     C        0.08430    0.75820    0.17910    1.000
    H367     H        0.09590    0.72350    0.19270    1.000
    H368     H        0.06470    0.76370    0.18920    1.000
    C390     C        0.12640    0.78860    0.22730    1.000
    H369     H        0.14240    0.77990    0.27410    1.000
    H370     H        0.11690    0.82360    0.21870    1.000
    H371     H        0.14850    0.78300    0.22210    1.000
    C391     C        0.81540    0.02870    0.66280    1.000
    H372     H        0.79150    0.02690    0.66560    1.000
    H373     H        0.83480    0.05930    0.68580    1.000
    C392     C        0.79140    0.02610    0.58890    1.000
    H374     H        0.81680    0.01800    0.59030    1.000
    H375     H        0.76900    0.99760    0.56720    1.000
    C393     C        0.76260    0.07150    0.53920    1.000
    H376     H        0.78480    0.10020    0.56070    1.000
    H377     H        0.73690    0.07950    0.53720    1.000
    C394     C        0.74000    0.06800    0.46800    1.000
    H378     H        0.71400    0.04300    0.44380    1.000
    H379     H        0.76440    0.05550    0.46910    1.000
    C395     C        0.72050    0.11170    0.42910    1.000
    H380     H        0.68490    0.11000    0.39500    1.000
    H381     H        0.73100    0.14030    0.45960    1.000
    C396     C        0.73780    0.11980    0.38880    1.000
    H382     H        0.75750    0.15030    0.40770    1.000
    H383     H        0.70840    0.12680    0.34020    1.000
    C397     C        0.76670    0.07910    0.38870    1.000
    H384     H        0.80160    0.08300    0.42960    1.000
    H385     H        0.76090    0.08280    0.34740    1.000
    C398     C        0.75020    0.02800    0.38910    1.000
    H386     H        0.76800    0.00240    0.38900    1.000
    H387     H        0.75630    0.02450    0.43030    1.000
    H388     H        0.71570    0.02430    0.34820    1.000
    C399     C        0.75130    0.25280    0.86080    1.000
    H389     H        0.76910    0.26030    0.84990    1.000
    C400     C        0.70050    0.25290    0.80840    1.000
    H390     H        0.68440    0.26580    0.76450    1.000
    C401     C        0.67550    0.23540    0.81950    1.000
    C402     C        0.70090    0.21690    0.88240    1.000
    H391     H        0.68570    0.20510    0.89600    1.000
    C403     C        0.75000    0.21610    0.92620    1.000
    H392     H        0.76820    0.19380    0.96390    1.000
    C404     C        0.54590    0.21440    0.72530    1.000
    H393     H        0.52850    0.19880    0.73360    1.000
    C405     C        0.59660    0.21120    0.77640    1.000
    H394     H        0.61310    0.19370    0.81790    1.000
    C406     C        0.62160    0.23430    0.76400    1.000
    C407     C        0.59650    0.25850    0.70380    1.000
    H395     H        0.61300    0.27440    0.69430    1.000
    C408     C        0.54790    0.26000    0.65730    1.000
    H396     H        0.53110    0.27730    0.61560    1.000
    O61      O        0.93504    0.31800    0.11560    1.000
    O62      O        0.85608    0.31240    0.04070    1.000
    O63      O        0.93348    0.71710    0.51520    1.000
    O64      O        0.85425    0.71550    0.44030    1.000
    O65      O        0.84310    0.44760    0.22230    1.000
    O66      O        0.94550    0.61630    0.30270    1.000
    O67      O        0.94509    0.18511    0.06090    1.000
    O68      O        0.86552    0.18550    0.97700    1.000
    O69      O        0.93907    0.78234    0.65260    1.000
    O70      O        0.85883    0.78740    0.57100    1.000
    O71      O        0.93680    0.94100    0.96000    1.000
    O72      O        0.84540    0.98520    0.69150    1.000
    Zn11     Zn       0.84720    0.24784    0.99545    1.000
    Zn12     Zn       0.95073    0.25237    0.09909    1.000
    N11      N        0.77210    0.24340    0.91850    1.000
    N12      N        0.52159    0.23790    0.66710    1.000
    C409     C        0.39320    0.16590    0.58720    1.000
    C410     C        0.39280    0.12200    0.61740    1.000
    C411     C        0.34990    0.10310    0.59390    1.000
    H397     H        0.32030    0.11690    0.55360    1.000
    C412     C        0.34870    0.06560    0.62660    1.000
    H398     H        0.31890    0.05570    0.61060    1.000
    C413     C        0.38980    0.04270    0.68120    1.000
    C414     C        0.43350    0.05730    0.70480    1.000
    H399     H        0.46260    0.04120    0.74290    1.000
    C415     C        0.43380    0.09620    0.67110    1.000
    H400     H        0.46340    0.10510    0.68580    1.000
    C416     C        0.38870    0.00180    0.71570    1.000
    C417     C        0.36330    0.00790    0.73460    1.000
    C418     C        0.41780    0.95860    0.73840    1.000
    H401     H        0.43620    0.95210    0.72840    1.000
    C419     C        0.41610    0.92730    0.77650    1.000
    C420     C        0.39520    0.92910    0.79750    1.000
    C421     C        0.36340    0.97220    0.77360    1.000
    H402     H        0.34440    0.97600    0.78320    1.000
    C422     C        0.39450    0.89200    0.83580    1.000
    C423     C        0.43400    0.87470    0.89190    1.000
    H403     H        0.46350    0.88550    0.90740    1.000
    C424     C        0.43520    0.83840    0.93320    1.000
    H404     H        0.46440    0.82260    0.97140    1.000
    C425     C        0.39450    0.82820    0.91590    1.000
    C426     C        0.35280    0.84680    0.85620    1.000
    H405     H        0.32370    0.83900    0.84330    1.000
    C427     C        0.35070    0.87620    0.81340    1.000
    H406     H        0.32070    0.88580    0.76980    1.000
    C428     C        0.39610    0.79590    0.96350    1.000
    C429     C        0.31340    0.05370    0.74020    1.000
    H407     H        0.28570    0.03080    0.71100    1.000
    H408     H        0.33340    0.04570    0.78900    1.000
    C430     C        0.29590    0.11280    0.72290    1.000
    H409     H        0.32370    0.13510    0.74520    1.000
    H410     H        0.27170    0.11880    0.67280    1.000
    C431     C        0.40410    0.33320    0.50650    1.000
    C432     C        0.40580    0.37800    0.47780    1.000
    C433     C        0.44950    0.40090    0.50810    1.000
    H411     H        0.47890    0.38720    0.54900    1.000
    C434     C        0.45080    0.44340    0.47950    1.000
    H412     H        0.47970    0.46100    0.50180    1.000
    C435     C        0.40360    0.45840    0.41180    1.000
    C436     C        0.36180    0.43490    0.38180    1.000
    H413     H        0.33230    0.44530    0.33810    1.000
    C437     C        0.36290    0.39540    0.41570    1.000
    H414     H        0.33350    0.38010    0.39580    1.000
    C438     C        0.39900    0.50600    0.37080    1.000
    C439     C        0.36860    0.49200    0.29190    1.000
    H415     H        0.35210    0.46150    0.27080    1.000
    C440     C        0.40680    0.54760    0.38300    1.000
    C441     C        0.41930    0.58210    0.35900    1.000
    H416     H        0.44010    0.60940    0.38540    1.000
    C442     C        0.40040    0.57320    0.30000    1.000
    C443     C        0.36960    0.52870    0.26010    1.000
    C444     C        0.40160    0.60700    0.25550    1.000
    C445     C        0.44610    0.62720    0.28150    1.000
    H417     H        0.47580    0.61870    0.32610    1.000
    C446     C        0.44500    0.65800    0.24250    1.000
    H418     H        0.47410    0.67170    0.25970    1.000
    C447     C        0.40010    0.67090    0.17460    1.000
    C448     C        0.35890    0.65230    0.15190    1.000
    H419     H        0.32910    0.66110    0.10750    1.000
    C449     C        0.35870    0.62110    0.19100    1.000
    H420     H        0.32910    0.60910    0.17390    1.000
    C450     C        0.39920    0.70280    0.12940    1.000
    C451     C        0.45130    0.61180    0.48290    1.000
    H421     H        0.48140    0.60990    0.53220    1.000
    H422     H        0.42660    0.62530    0.48060    1.000
    C452     C        0.45810    0.64320    0.46100    1.000
    H423     H        0.49300    0.64990    0.49290    1.000
    H424     H        0.44570    0.63300    0.41630    1.000
    C453     C        0.43210    0.68910    0.45250    1.000
    H425     H        0.40130    0.68010    0.43760    1.000
    H426     H        0.42520    0.71150    0.41790    1.000
    C454     C        0.46380    0.71270    0.51870    1.000
    H427     H        0.45170    0.70410    0.53960    1.000
    H428     H        0.45920    0.74890    0.51020    1.000
    C455     C        0.51320    0.70440    0.56870    1.000
    H429     H        0.51930    0.68390    0.60410    1.000
    H430     H        0.51980    0.68270    0.54680    1.000
    C456     C        0.55080    0.74110    0.60570    1.000
    H431     H        0.53530    0.77410    0.58860    1.000
    H432     H        0.56940    0.73670    0.59380    1.000
    C457     C        0.58430    0.74180    0.67910    1.000
    H433     H        0.59590    0.77650    0.69270    1.000
    H434     H        0.56470    0.73630    0.68920    1.000
    C458     C        0.62640    0.71140    0.72730    1.000
    H435     H        0.64240    0.72010    0.77410    1.000
    H436     H        0.61690    0.67640    0.71870    1.000
    H437     H        0.64850    0.71700    0.72210    1.000
    C459     C        0.31540    0.47130    0.16280    1.000
    H438     H        0.29150    0.47310    0.16560    1.000
    H439     H        0.33480    0.44070    0.18580    1.000
    C460     C        0.29140    0.47390    0.08890    1.000
    H440     H        0.31680    0.48200    0.09030    1.000
    H441     H        0.26900    0.50240    0.06720    1.000
    C461     C        0.26260    0.42850    0.03920    1.000
    H442     H        0.28480    0.39980    0.06070    1.000
    H443     H        0.23690    0.42050    0.03720    1.000
    C462     C        0.24000    0.43200    0.96800    1.000
    H444     H        0.21400    0.45700    0.94380    1.000
    H445     H        0.26440    0.44450    0.96910    1.000
    C463     C        0.22050    0.38830    0.92910    1.000
    H446     H        0.18490    0.39000    0.89500    1.000
    H447     H        0.23100    0.35970    0.95960    1.000
    C464     C        0.23780    0.38020    0.88880    1.000
    H448     H        0.25750    0.34970    0.90770    1.000
    H449     H        0.20840    0.37320    0.84020    1.000
    C465     C        0.26670    0.42090    0.88870    1.000
    H450     H        0.30160    0.41700    0.92960    1.000
    H451     H        0.26090    0.41720    0.84740    1.000
    C466     C        0.25020    0.47200    0.88910    1.000
    H452     H        0.26800    0.49760    0.88900    1.000
    H453     H        0.25630    0.47550    0.93030    1.000
    H454     H        0.21570    0.47570    0.84820    1.000
    C467     C        0.25130    0.24720    0.36080    1.000
    H455     H        0.26910    0.23970    0.34990    1.000
    C468     C        0.20050    0.24710    0.30840    1.000
    H456     H        0.18440    0.23420    0.26450    1.000
    C469     C        0.17550    0.26460    0.31950    1.000
    C470     C        0.20090    0.28310    0.38240    1.000
    H457     H        0.18570    0.29490    0.39600    1.000
    C471     C        0.25000    0.28390    0.42620    1.000
    H458     H        0.26820    0.30620    0.46390    1.000
    C472     C        0.04590    0.28560    0.22530    1.000
    H459     H        0.02850    0.30120    0.23360    1.000
    C473     C        0.09660    0.28880    0.27640    1.000
    H460     H        0.11310    0.30630    0.31790    1.000
    C474     C        0.12160    0.26570    0.26400    1.000
    C475     C        0.09650    0.24150    0.20380    1.000
    H461     H        0.11300    0.22560    0.19430    1.000
    C476     C        0.04790    0.24000    0.15730    1.000
    H462     H        0.03110    0.22270    0.11560    1.000
    O73      O        0.43504    0.18200    0.61560    1.000
    O74      O        0.35608    0.18760    0.54070    1.000
    O75      O        0.43348    0.78290    0.01520    1.000
    O76      O        0.35425    0.78450    0.94030    1.000
    O77      O        0.34310    0.05240    0.72230    1.000
    O78      O        0.44550    0.88370    0.80270    1.000
    O79      O        0.44509    0.31489    0.56090    1.000
    O80      O        0.36552    0.31450    0.47700    1.000
    O81      O        0.43907    0.71766    0.15260    1.000
    O82      O        0.35883    0.71260    0.07100    1.000
    O83      O        0.43680    0.55900    0.46000    1.000
    O84      O        0.34540    0.51480    0.19150    1.000
    Zn13     Zn       0.34720    0.25216    0.49545    1.000
    Zn14     Zn       0.45073    0.24763    0.59909    1.000
    N13      N        0.27210    0.25660    0.41850    1.000
    N14      N        0.02159    0.26210    0.16710    1.000
    C477     C        0.89320    0.66590    0.58720    1.000
    C478     C        0.89280    0.62200    0.61740    1.000
    C479     C        0.84990    0.60310    0.59390    1.000
    H463     H        0.82030    0.61690    0.55360    1.000
    C480     C        0.84870    0.56560    0.62660    1.000
    H464     H        0.81890    0.55570    0.61060    1.000
    C481     C        0.88980    0.54270    0.68120    1.000
    C482     C        0.93350    0.55730    0.70480    1.000
    H465     H        0.96260    0.54120    0.74290    1.000
    C483     C        0.93380    0.59620    0.67110    1.000
    H466     H        0.96340    0.60510    0.68580    1.000
    C484     C        0.88870    0.50180    0.71570    1.000
    C485     C        0.86330    0.50790    0.73460    1.000
    C486     C        0.91780    0.45860    0.73840    1.000
    H467     H        0.93620    0.45210    0.72840    1.000
    C487     C        0.91610    0.42730    0.77650    1.000
    C488     C        0.89520    0.42910    0.79750    1.000
    C489     C        0.86340    0.47220    0.77360    1.000
    H468     H        0.84440    0.47600    0.78320    1.000
    C490     C        0.89450    0.39200    0.83580    1.000
    C491     C        0.93400    0.37470    0.89190    1.000
    H469     H        0.96350    0.38550    0.90740    1.000
    C492     C        0.93520    0.33840    0.93320    1.000
    H470     H        0.96440    0.32260    0.97140    1.000
    C493     C        0.89450    0.32820    0.91590    1.000
    C494     C        0.85280    0.34680    0.85620    1.000
    H471     H        0.82370    0.33900    0.84330    1.000
    C495     C        0.85070    0.37620    0.81340    1.000
    H472     H        0.82070    0.38580    0.76980    1.000
    C496     C        0.89610    0.29590    0.96350    1.000
    C497     C        0.81340    0.55370    0.74020    1.000
    H473     H        0.78570    0.53080    0.71100    1.000
    H474     H        0.83340    0.54570    0.78900    1.000
    C498     C        0.79590    0.61280    0.72290    1.000
    H475     H        0.82370    0.63510    0.74520    1.000
    H476     H        0.77170    0.61880    0.67280    1.000
    C499     C        0.90410    0.83320    0.50650    1.000
    C500     C        0.90580    0.87800    0.47780    1.000
    C501     C        0.94950    0.90090    0.50810    1.000
    H477     H        0.97890    0.88720    0.54900    1.000
    C502     C        0.95080    0.94340    0.47950    1.000
    H478     H        0.97970    0.96100    0.50180    1.000
    C503     C        0.90360    0.95840    0.41180    1.000
    C504     C        0.86180    0.93490    0.38180    1.000
    H479     H        0.83230    0.94530    0.33810    1.000
    C505     C        0.86290    0.89540    0.41570    1.000
    H480     H        0.83350    0.88010    0.39580    1.000
    C506     C        0.89900    0.00600    0.37080    1.000
    C507     C        0.86860    0.99200    0.29190    1.000
    H481     H        0.85210    0.96150    0.27080    1.000
    C508     C        0.90680    0.04760    0.38300    1.000
    C509     C        0.91930    0.08210    0.35900    1.000
    H482     H        0.94010    0.10940    0.38540    1.000
    C510     C        0.90040    0.07320    0.30000    1.000
    C511     C        0.86960    0.02870    0.26010    1.000
    C512     C        0.90160    0.10700    0.25550    1.000
    C513     C        0.94610    0.12720    0.28150    1.000
    H483     H        0.97580    0.11870    0.32610    1.000
    C514     C        0.94500    0.15800    0.24250    1.000
    H484     H        0.97410    0.17170    0.25970    1.000
    C515     C        0.90010    0.17090    0.17460    1.000
    C516     C        0.85890    0.15230    0.15190    1.000
    H485     H        0.82910    0.16110    0.10750    1.000
    C517     C        0.85870    0.12110    0.19100    1.000
    H486     H        0.82910    0.10910    0.17390    1.000
    C518     C        0.89920    0.20280    0.12940    1.000
    C519     C        0.95130    0.11180    0.48290    1.000
    H487     H        0.98140    0.10990    0.53220    1.000
    H488     H        0.92660    0.12530    0.48060    1.000
    C520     C        0.95810    0.14320    0.46100    1.000
    H489     H        0.99300    0.14990    0.49290    1.000
    H490     H        0.94570    0.13300    0.41630    1.000
    C521     C        0.93210    0.18910    0.45250    1.000
    H491     H        0.90130    0.18010    0.43760    1.000
    H492     H        0.92520    0.21150    0.41790    1.000
    C522     C        0.96380    0.21270    0.51870    1.000
    H493     H        0.95170    0.20410    0.53960    1.000
    H494     H        0.95920    0.24890    0.51020    1.000
    C523     C        0.01320    0.20440    0.56870    1.000
    H495     H        0.01930    0.18390    0.60410    1.000
    H496     H        0.01980    0.18270    0.54680    1.000
    C524     C        0.05080    0.24110    0.60570    1.000
    H497     H        0.03530    0.27410    0.58860    1.000
    H498     H        0.06940    0.23670    0.59380    1.000
    C525     C        0.08430    0.24180    0.67910    1.000
    H499     H        0.09590    0.27650    0.69270    1.000
    H500     H        0.06470    0.23630    0.68920    1.000
    C526     C        0.12640    0.21140    0.72730    1.000
    H501     H        0.14240    0.22010    0.77410    1.000
    H502     H        0.11690    0.17640    0.71870    1.000
    H503     H        0.14850    0.21700    0.72210    1.000
    C527     C        0.81540    0.97130    0.16280    1.000
    H504     H        0.79150    0.97310    0.16560    1.000
    H505     H        0.83480    0.94070    0.18580    1.000
    C528     C        0.79140    0.97390    0.08890    1.000
    H506     H        0.81680    0.98200    0.09030    1.000
    H507     H        0.76900    0.00240    0.06720    1.000
    C529     C        0.76260    0.92850    0.03920    1.000
    H508     H        0.78480    0.89980    0.06070    1.000
    H509     H        0.73690    0.92050    0.03720    1.000
    C530     C        0.74000    0.93200    0.96800    1.000
    H510     H        0.71400    0.95700    0.94380    1.000
    H511     H        0.76440    0.94450    0.96910    1.000
    C531     C        0.72050    0.88830    0.92910    1.000
    H512     H        0.68490    0.89000    0.89500    1.000
    H513     H        0.73100    0.85970    0.95960    1.000
    C532     C        0.73780    0.88020    0.88880    1.000
    H514     H        0.75750    0.84970    0.90770    1.000
    H515     H        0.70840    0.87320    0.84020    1.000
    C533     C        0.76670    0.92090    0.88870    1.000
    H516     H        0.80160    0.91700    0.92960    1.000
    H517     H        0.76090    0.91720    0.84740    1.000
    C534     C        0.75020    0.97200    0.88910    1.000
    H518     H        0.76800    0.99760    0.88900    1.000
    H519     H        0.75630    0.97550    0.93030    1.000
    H520     H        0.71570    0.97570    0.84820    1.000
    C535     C        0.75130    0.74720    0.36080    1.000
    H521     H        0.76910    0.73970    0.34990    1.000
    C536     C        0.70050    0.74710    0.30840    1.000
    H522     H        0.68440    0.73420    0.26450    1.000
    C537     C        0.67550    0.76460    0.31950    1.000
    C538     C        0.70090    0.78310    0.38240    1.000
    H523     H        0.68570    0.79490    0.39600    1.000
    C539     C        0.75000    0.78390    0.42620    1.000
    H524     H        0.76820    0.80620    0.46390    1.000
    C540     C        0.54590    0.78560    0.22530    1.000
    H525     H        0.52850    0.80120    0.23360    1.000
    C541     C        0.59660    0.78880    0.27640    1.000
    H526     H        0.61310    0.80630    0.31790    1.000
    C542     C        0.62160    0.76570    0.26400    1.000
    C543     C        0.59650    0.74150    0.20380    1.000
    H527     H        0.61300    0.72560    0.19430    1.000
    C544     C        0.54790    0.74000    0.15730    1.000
    H528     H        0.53110    0.72270    0.11560    1.000
    O85      O        0.93504    0.68200    0.61560    1.000
    O86      O        0.85608    0.68760    0.54070    1.000
    O87      O        0.93348    0.28290    0.01520    1.000
    O88      O        0.85425    0.28450    0.94030    1.000
    O89      O        0.84310    0.55240    0.72230    1.000
    O90      O        0.94550    0.38370    0.80270    1.000
    O91      O        0.94509    0.81489    0.56090    1.000
    O92      O        0.86552    0.81450    0.47700    1.000
    O93      O        0.93907    0.21766    0.15260    1.000
    O94      O        0.85883    0.21260    0.07100    1.000
    O95      O        0.93680    0.05900    0.46000    1.000
    O96      O        0.84540    0.01480    0.19150    1.000
    Zn15     Zn       0.84720    0.75216    0.49545    1.000
    Zn16     Zn       0.95073    0.74763    0.59909    1.000
    N15      N        0.77210    0.75660    0.41850    1.000
    N16      N        0.52159    0.76210    0.16710    1.000
