data_functionalizedCrystal
_audit_creation_method	'EQeq! by Chris Wilmer'
_symmetry_space_group_name_H-M	'P1'
_symmetry_Int_Tables_number	1
_symmetry_cell_setting	triclinic
loop_
_symmetry_equiv_pos_as_xyz
  x,y,z
_cell_length_a	14.8775
_cell_length_b	25.9261
_cell_length_c	36.3777
_cell_angle_alpha	90
_cell_angle_beta	90
_cell_angle_gamma	90
loop_
_atom_site_label
_atom_site_type_symbol
_atom_site_fract_x
_atom_site_fract_y
_atom_site_fract_z
_atom_site_charge
Mof_Ag	Ag	0.68234	0.90864	0.40835	0.551
Mof_O 	O 	0.8954	0.01058	0.4356	-0.301
Mof_O 	O 	0.8404	0.93118	0.43114	-0.412
Mof_C 	C 	0.8508	0.9663	0.49083	-0.108
Mof_C 	C 	0.8032	0.9251	0.50537	0.049
Mof_H 	H 	0.7812	0.8995	0.4899	0.044
Mof_C 	C 	0.8637	0.97	0.44976	0.345
Mof_C 	C 	0.7881	0.9219	0.54324	-0.102
Mof_C 	C 	0.736	0.878	0.55925	0.353
Mof_C 	C 	0.8206	0.9599	0.56679	0.042
Mof_H 	H 	0.8103	0.9578	0.592	0.044
Mof_C 	C 	0.8693	0.0013	0.55184	-0.101
Mof_O 	O 	0.7126	0.87654	0.59164	-0.245
Mof_O 	O 	0.7192	0.8415	0.53595	-0.395
Mof_C 	C 	0.9039	0.0438	0.57645	0.335
Mof_C 	C 	0.8837	0.004	0.51486	0.044
Mof_H 	H 	0.916	0.0317	0.5054	0.052
Mof_O 	O 	0.8973	0.03793	0.61129	-0.367
Mof_O 	O 	0.9334	0.08387	0.56156	-0.357
Mof_H 	H 	0.692	0.814	0.548	0.249
Mof_Ag	Ag	0.68234	0.40864	0.90835	0.55
Mof_O 	O 	0.8954	0.51058	0.9356	-0.302
Mof_O 	O 	0.8404	0.43118	0.93114	-0.413
Mof_C 	C 	0.8508	0.4663	0.99083	-0.108
Mof_C 	C 	0.8032	0.4251	0.00537	0.049
Mof_H 	H 	0.7812	0.3995	0.9899	0.044
Mof_C 	C 	0.8637	0.47	0.94976	0.345
Mof_C 	C 	0.7881	0.4219	0.04324	-0.102
Mof_C 	C 	0.736	0.378	0.05925	0.353
Mof_C 	C 	0.8206	0.4599	0.06679	0.042
Mof_H 	H 	0.8103	0.4578	0.092	0.044
Mof_C 	C 	0.8693	0.5013	0.05184	-0.101
Mof_O 	O 	0.7126	0.37654	0.09164	-0.245
Mof_O 	O 	0.7192	0.3415	0.03595	-0.395
Mof_C 	C 	0.9039	0.5438	0.07645	0.335
Mof_C 	C 	0.8837	0.504	0.01486	0.043
Mof_H 	H 	0.916	0.5317	0.0054	0.052
Mof_O 	O 	0.8973	0.53793	0.11129	-0.367
Mof_O 	O 	0.9334	0.58387	0.06156	-0.357
Mof_H 	H 	0.692	0.314	0.048	0.249
Mof_Ag	Ag	0.18234	0.90864	0.90835	0.55
Mof_O 	O 	0.3954	0.01058	0.9356	-0.302
Mof_O 	O 	0.3404	0.93118	0.93114	-0.413
Mof_C 	C 	0.3508	0.9663	0.99083	-0.109
Mof_C 	C 	0.3032	0.9251	0.00537	0.051
Mof_H 	H 	0.2812	0.8995	0.9899	0.043
Mof_C 	C 	0.3637	0.97	0.94976	0.345
Mof_C 	C 	0.2881	0.9219	0.04324	-0.102
Mof_C 	C 	0.236	0.878	0.05925	0.353
Mof_C 	C 	0.3206	0.9599	0.06679	0.043
Mof_H 	H 	0.3103	0.9578	0.092	0.044
Mof_C 	C 	0.3693	0.0013	0.05184	-0.102
Mof_O 	O 	0.2126	0.87654	0.09164	-0.245
Mof_O 	O 	0.2192	0.8415	0.03595	-0.395
Mof_C 	C 	0.4039	0.0438	0.07645	0.335
Mof_C 	C 	0.3837	0.004	0.01486	0.044
Mof_H 	H 	0.416	0.0317	0.0054	0.052
Mof_O 	O 	0.3973	0.03793	0.11129	-0.367
Mof_O 	O 	0.4334	0.08387	0.06156	-0.357
Mof_H 	H 	0.192	0.814	0.048	0.249
Mof_Ag	Ag	0.18234	0.40864	0.40835	0.55
Mof_O 	O 	0.3954	0.51058	0.4356	-0.302
Mof_O 	O 	0.3404	0.43118	0.43114	-0.413
Mof_C 	C 	0.3508	0.4663	0.49083	-0.108
Mof_C 	C 	0.3032	0.4251	0.50537	0.049
Mof_H 	H 	0.2812	0.3995	0.4899	0.044
Mof_C 	C 	0.3637	0.47	0.44976	0.345
Mof_C 	C 	0.2881	0.4219	0.54324	-0.102
Mof_C 	C 	0.236	0.378	0.55925	0.353
Mof_C 	C 	0.3206	0.4599	0.56679	0.043
Mof_H 	H 	0.3103	0.4578	0.592	0.044
Mof_C 	C 	0.3693	0.5013	0.55184	-0.101
Mof_O 	O 	0.2126	0.37654	0.59164	-0.245
Mof_O 	O 	0.2192	0.3415	0.53595	-0.395
Mof_C 	C 	0.4039	0.5438	0.57645	0.335
Mof_C 	C 	0.3837	0.504	0.51486	0.044
Mof_H 	H 	0.416	0.5317	0.5054	0.052
Mof_O 	O 	0.3973	0.53793	0.61129	-0.367
Mof_O 	O 	0.4334	0.58387	0.56156	-0.357
Mof_H 	H 	0.192	0.314	0.548	0.249
Mof_Ag	Ag	0.06766	0.84136	0.40835	0.55
Mof_O 	O 	0.8546	0.73942	0.4356	-0.302
Mof_O 	O 	0.9096	0.81882	0.43114	-0.413
Mof_C 	C 	0.8992	0.7837	0.49083	-0.108
Mof_C 	C 	0.9468	0.8249	0.50537	0.05
Mof_H 	H 	0.9688	0.8505	0.4899	0.044
Mof_C 	C 	0.8863	0.78	0.44976	0.345
Mof_C 	C 	0.9619	0.8281	0.54324	-0.102
Mof_C 	C 	0.014	0.872	0.55925	0.353
Mof_C 	C 	0.9294	0.7901	0.56679	0.043
Mof_H 	H 	0.9397	0.7922	0.592	0.044
Mof_C 	C 	0.8807	0.7487	0.55184	-0.101
Mof_O 	O 	0.0374	0.87346	0.59164	-0.245
Mof_O 	O 	0.0308	0.9085	0.53595	-0.395
Mof_C 	C 	0.8461	0.7062	0.57645	0.335
Mof_C 	C 	0.8663	0.746	0.51486	0.044
Mof_H 	H 	0.834	0.7183	0.5054	0.052
Mof_O 	O 	0.8527	0.71207	0.61129	-0.367
Mof_O 	O 	0.8166	0.66613	0.56156	-0.357
Mof_H 	H 	0.058	0.936	0.548	0.249
Mof_Ag	Ag	0.06766	0.34136	0.90835	0.55
Mof_O 	O 	0.8546	0.23942	0.9356	-0.302
Mof_O 	O 	0.9096	0.31882	0.93114	-0.412
Mof_C 	C 	0.8992	0.2837	0.99083	-0.107
Mof_C 	C 	0.9468	0.3249	0.00537	0.049
Mof_H 	H 	0.9688	0.3505	0.9899	0.044
Mof_C 	C 	0.8863	0.28	0.94976	0.345
Mof_C 	C 	0.9619	0.3281	0.04324	-0.101
Mof_C 	C 	0.014	0.372	0.05925	0.353
Mof_C 	C 	0.9294	0.2901	0.06679	0.042
Mof_H 	H 	0.9397	0.2922	0.092	0.044
Mof_C 	C 	0.8807	0.2487	0.05184	-0.1
Mof_O 	O 	0.0374	0.37346	0.09164	-0.245
Mof_O 	O 	0.0308	0.4085	0.03595	-0.395
Mof_C 	C 	0.8461	0.2062	0.07645	0.335
Mof_C 	C 	0.8663	0.246	0.01486	0.043
Mof_H 	H 	0.834	0.2183	0.0054	0.052
Mof_O 	O 	0.8527	0.21207	0.11129	-0.367
Mof_O 	O 	0.8166	0.16613	0.06156	-0.357
Mof_H 	H 	0.058	0.436	0.048	0.249
Mof_Ag	Ag	0.56766	0.84136	0.90835	0.55
Mof_O 	O 	0.3546	0.73942	0.9356	-0.302
Mof_O 	O 	0.4096	0.81882	0.93114	-0.413
Mof_C 	C 	0.3992	0.7837	0.99083	-0.109
Mof_C 	C 	0.4468	0.8249	0.00537	0.05
Mof_H 	H 	0.4688	0.8505	0.9899	0.043
Mof_C 	C 	0.3863	0.78	0.94976	0.345
Mof_C 	C 	0.4619	0.8281	0.04324	-0.102
Mof_C 	C 	0.514	0.872	0.05925	0.353
Mof_C 	C 	0.4294	0.7901	0.06679	0.043
Mof_H 	H 	0.4397	0.7922	0.092	0.044
Mof_C 	C 	0.3807	0.7487	0.05184	-0.101
Mof_O 	O 	0.5374	0.87346	0.09164	-0.245
Mof_O 	O 	0.5308	0.9085	0.03595	-0.395
Mof_C 	C 	0.3461	0.7062	0.07645	0.335
Mof_C 	C 	0.3663	0.746	0.01486	0.044
Mof_H 	H 	0.334	0.7183	0.0054	0.052
Mof_O 	O 	0.3527	0.71207	0.11129	-0.367
Mof_O 	O 	0.3166	0.66613	0.06156	-0.357
Mof_H 	H 	0.558	0.936	0.048	0.249
Mof_Ag	Ag	0.56766	0.34136	0.40835	0.55
Mof_O 	O 	0.3546	0.23942	0.4356	-0.302
Mof_O 	O 	0.4096	0.31882	0.43114	-0.413
Mof_C 	C 	0.3992	0.2837	0.49083	-0.108
Mof_C 	C 	0.4468	0.3249	0.50537	0.049
Mof_H 	H 	0.4688	0.3505	0.4899	0.044
Mof_C 	C 	0.3863	0.28	0.44976	0.345
Mof_C 	C 	0.4619	0.3281	0.54324	-0.102
Mof_C 	C 	0.514	0.372	0.55925	0.353
Mof_C 	C 	0.4294	0.2901	0.56679	0.043
Mof_H 	H 	0.4397	0.2922	0.592	0.044
Mof_C 	C 	0.3807	0.2487	0.55184	-0.101
Mof_O 	O 	0.5374	0.37346	0.59164	-0.245
Mof_O 	O 	0.5308	0.4085	0.53595	-0.395
Mof_C 	C 	0.3461	0.2062	0.57645	0.335
Mof_C 	C 	0.3663	0.246	0.51486	0.044
Mof_H 	H 	0.334	0.2183	0.5054	0.052
Mof_O 	O 	0.3527	0.21207	0.61129	-0.367
Mof_O 	O 	0.3166	0.16613	0.56156	-0.357
Mof_H 	H 	0.558	0.436	0.548	0.249
Mof_Ag	Ag	0.06766	0.90864	0.34165	0.55
Mof_O 	O 	0.8546	0.01058	0.3144	-0.302
Mof_O 	O 	0.9096	0.93118	0.31886	-0.413
Mof_C 	C 	0.8992	0.9663	0.25917	-0.109
Mof_C 	C 	0.9468	0.9251	0.24463	0.05
Mof_H 	H 	0.9688	0.8995	0.2601	0.044
Mof_C 	C 	0.8863	0.97	0.30024	0.345
Mof_C 	C 	0.9619	0.9219	0.20676	-0.102
Mof_C 	C 	0.014	0.878	0.19075	0.353
Mof_C 	C 	0.9294	0.9599	0.18321	0.043
Mof_H 	H 	0.9397	0.9578	0.158	0.044
Mof_C 	C 	0.8807	0.0013	0.19816	-0.101
Mof_O 	O 	0.0374	0.87654	0.15836	-0.245
Mof_O 	O 	0.0308	0.8415	0.21405	-0.395
Mof_C 	C 	0.8461	0.0438	0.17355	0.335
Mof_C 	C 	0.8663	0.004	0.23514	0.044
Mof_H 	H 	0.834	0.0317	0.2446	0.052
Mof_O 	O 	0.8527	0.03793	0.13871	-0.367
Mof_O 	O 	0.8166	0.08387	0.18844	-0.357
Mof_H 	H 	0.058	0.814	0.202	0.249
Mof_Ag	Ag	0.06766	0.40864	0.84165	0.55
Mof_O 	O 	0.8546	0.51058	0.8144	-0.302
Mof_O 	O 	0.9096	0.43118	0.81886	-0.413
Mof_C 	C 	0.8992	0.4663	0.75917	-0.108
Mof_C 	C 	0.9468	0.4251	0.74463	0.049
Mof_H 	H 	0.9688	0.3995	0.7601	0.044
Mof_C 	C 	0.8863	0.47	0.80024	0.345
Mof_C 	C 	0.9619	0.4219	0.70676	-0.102
Mof_C 	C 	0.014	0.378	0.69075	0.353
Mof_C 	C 	0.9294	0.4599	0.68321	0.043
Mof_H 	H 	0.9397	0.4578	0.658	0.044
Mof_C 	C 	0.8807	0.5013	0.69816	-0.101
Mof_O 	O 	0.0374	0.37654	0.65836	-0.245
Mof_O 	O 	0.0308	0.3415	0.71405	-0.395
Mof_C 	C 	0.8461	0.5438	0.67355	0.335
Mof_C 	C 	0.8663	0.504	0.73514	0.044
Mof_H 	H 	0.834	0.5317	0.7446	0.052
Mof_O 	O 	0.8527	0.53793	0.63871	-0.367
Mof_O 	O 	0.8166	0.58387	0.68844	-0.357
Mof_H 	H 	0.058	0.314	0.702	0.249
Mof_Ag	Ag	0.56766	0.90864	0.84165	0.55
Mof_O 	O 	0.3546	0.01058	0.8144	-0.302
Mof_O 	O 	0.4096	0.93118	0.81886	-0.413
Mof_C 	C 	0.3992	0.9663	0.75917	-0.108
Mof_C 	C 	0.4468	0.9251	0.74463	0.049
Mof_H 	H 	0.4688	0.8995	0.7601	0.044
Mof_C 	C 	0.3863	0.97	0.80024	0.345
Mof_C 	C 	0.4619	0.9219	0.70676	-0.102
Mof_C 	C 	0.514	0.878	0.69075	0.353
Mof_C 	C 	0.4294	0.9599	0.68321	0.043
Mof_H 	H 	0.4397	0.9578	0.658	0.044
Mof_C 	C 	0.3807	0.0013	0.69816	-0.101
Mof_O 	O 	0.5374	0.87654	0.65836	-0.245
Mof_O 	O 	0.5308	0.8415	0.71405	-0.395
Mof_C 	C 	0.3461	0.0438	0.67355	0.335
Mof_C 	C 	0.3663	0.004	0.73514	0.044
Mof_H 	H 	0.334	0.0317	0.7446	0.052
Mof_O 	O 	0.3527	0.03793	0.63871	-0.367
Mof_O 	O 	0.3166	0.08387	0.68844	-0.357
Mof_H 	H 	0.558	0.814	0.702	0.249
Mof_Ag	Ag	0.56766	0.40864	0.34165	0.55
Mof_O 	O 	0.3546	0.51058	0.3144	-0.302
Mof_O 	O 	0.4096	0.43118	0.31886	-0.413
Mof_C 	C 	0.3992	0.4663	0.25917	-0.108
Mof_C 	C 	0.4468	0.4251	0.24463	0.049
Mof_H 	H 	0.4688	0.3995	0.2601	0.044
Mof_C 	C 	0.3863	0.47	0.30024	0.345
Mof_C 	C 	0.4619	0.4219	0.20676	-0.102
Mof_C 	C 	0.514	0.378	0.19075	0.353
Mof_C 	C 	0.4294	0.4599	0.18321	0.043
Mof_H 	H 	0.4397	0.4578	0.158	0.044
Mof_C 	C 	0.3807	0.5013	0.19816	-0.101
Mof_O 	O 	0.5374	0.37654	0.15836	-0.245
Mof_O 	O 	0.5308	0.3415	0.21405	-0.395
Mof_C 	C 	0.3461	0.5438	0.17355	0.335
Mof_C 	C 	0.3663	0.504	0.23514	0.044
Mof_H 	H 	0.334	0.5317	0.2446	0.052
Mof_O 	O 	0.3527	0.53793	0.13871	-0.367
Mof_O 	O 	0.3166	0.58387	0.18844	-0.357
Mof_H 	H 	0.558	0.314	0.202	0.249
Mof_Ag	Ag	0.68234	0.84136	0.34165	0.55
Mof_O 	O 	0.8954	0.73942	0.3144	-0.302
Mof_O 	O 	0.8404	0.81882	0.31886	-0.413
Mof_C 	C 	0.8508	0.7837	0.25917	-0.108
Mof_C 	C 	0.8032	0.8249	0.24463	0.049
Mof_H 	H 	0.7812	0.8505	0.2601	0.044
Mof_C 	C 	0.8637	0.78	0.30024	0.345
Mof_C 	C 	0.7881	0.8281	0.20676	-0.102
Mof_C 	C 	0.736	0.872	0.19075	0.353
Mof_C 	C 	0.8206	0.7901	0.18321	0.043
Mof_H 	H 	0.8103	0.7922	0.158	0.044
Mof_C 	C 	0.8693	0.7487	0.19816	-0.101
Mof_O 	O 	0.7126	0.87346	0.15836	-0.245
Mof_O 	O 	0.7192	0.9085	0.21405	-0.395
Mof_C 	C 	0.9039	0.7062	0.17355	0.335
Mof_C 	C 	0.8837	0.746	0.23514	0.044
Mof_H 	H 	0.916	0.7183	0.2446	0.052
Mof_O 	O 	0.8973	0.71207	0.13871	-0.367
Mof_O 	O 	0.9334	0.66613	0.18844	-0.357
Mof_H 	H 	0.692	0.936	0.202	0.249
Mof_Ag	Ag	0.68234	0.34136	0.84165	0.55
Mof_O 	O 	0.8954	0.23942	0.8144	-0.302
Mof_O 	O 	0.8404	0.31882	0.81886	-0.413
Mof_C 	C 	0.8508	0.2837	0.75917	-0.108
Mof_C 	C 	0.8032	0.3249	0.74463	0.049
Mof_H 	H 	0.7812	0.3505	0.7601	0.044
Mof_C 	C 	0.8637	0.28	0.80024	0.345
Mof_C 	C 	0.7881	0.3281	0.70676	-0.102
Mof_C 	C 	0.736	0.372	0.69075	0.353
Mof_C 	C 	0.8206	0.2901	0.68321	0.043
Mof_H 	H 	0.8103	0.2922	0.658	0.044
Mof_C 	C 	0.8693	0.2487	0.69816	-0.101
Mof_O 	O 	0.7126	0.37346	0.65836	-0.245
Mof_O 	O 	0.7192	0.4085	0.71405	-0.395
Mof_C 	C 	0.9039	0.2062	0.67355	0.335
Mof_C 	C 	0.8837	0.246	0.73514	0.044
Mof_H 	H 	0.916	0.2183	0.7446	0.052
Mof_O 	O 	0.8973	0.21207	0.63871	-0.367
Mof_O 	O 	0.9334	0.16613	0.68844	-0.357
Mof_H 	H 	0.692	0.436	0.702	0.249
Mof_Ag	Ag	0.18234	0.84136	0.84165	0.55
Mof_O 	O 	0.3954	0.73942	0.8144	-0.302
Mof_O 	O 	0.3404	0.81882	0.81886	-0.413
Mof_C 	C 	0.3508	0.7837	0.75917	-0.108
Mof_C 	C 	0.3032	0.8249	0.74463	0.049
Mof_H 	H 	0.2812	0.8505	0.7601	0.044
Mof_C 	C 	0.3637	0.78	0.80024	0.345
Mof_C 	C 	0.2881	0.8281	0.70676	-0.102
Mof_C 	C 	0.236	0.872	0.69075	0.353
Mof_C 	C 	0.3206	0.7901	0.68321	0.043
Mof_H 	H 	0.3103	0.7922	0.658	0.044
Mof_C 	C 	0.3693	0.7487	0.69816	-0.101
Mof_O 	O 	0.2126	0.87346	0.65836	-0.245
Mof_O 	O 	0.2192	0.9085	0.71405	-0.395
Mof_C 	C 	0.4039	0.7062	0.67355	0.335
Mof_C 	C 	0.3837	0.746	0.73514	0.044
Mof_H 	H 	0.416	0.7183	0.7446	0.052
Mof_O 	O 	0.3973	0.71207	0.63871	-0.367
Mof_O 	O 	0.4334	0.66613	0.68844	-0.357
Mof_H 	H 	0.192	0.936	0.702	0.249
Mof_Ag	Ag	0.18234	0.34136	0.34165	0.55
Mof_O 	O 	0.3954	0.23942	0.3144	-0.302
Mof_O 	O 	0.3404	0.31882	0.31886	-0.413
Mof_C 	C 	0.3508	0.2837	0.25917	-0.108
Mof_C 	C 	0.3032	0.3249	0.24463	0.049
Mof_H 	H 	0.2812	0.3505	0.2601	0.044
Mof_C 	C 	0.3637	0.28	0.30024	0.345
Mof_C 	C 	0.2881	0.3281	0.20676	-0.102
Mof_C 	C 	0.236	0.372	0.19075	0.353
Mof_C 	C 	0.3206	0.2901	0.18321	0.043
Mof_H 	H 	0.3103	0.2922	0.158	0.044
Mof_C 	C 	0.3693	0.2487	0.19816	-0.101
Mof_O 	O 	0.2126	0.37346	0.15836	-0.245
Mof_O 	O 	0.2192	0.4085	0.21405	-0.395
Mof_C 	C 	0.4039	0.2062	0.17355	0.335
Mof_C 	C 	0.3837	0.246	0.23514	0.044
Mof_H 	H 	0.416	0.2183	0.2446	0.052
Mof_O 	O 	0.3973	0.21207	0.13871	-0.367
Mof_O 	O 	0.4334	0.16613	0.18844	-0.357
Mof_H 	H 	0.192	0.436	0.202	0.249
Mof_Ag	Ag	0.31766	0.09136	0.59165	0.55
Mof_O 	O 	0.1046	0.98942	0.5644	-0.302
Mof_O 	O 	0.1596	0.06882	0.56886	-0.412
Mof_C 	C 	0.1492	0.0337	0.50917	-0.108
Mof_C 	C 	0.1968	0.0749	0.49463	0.049
Mof_H 	H 	0.2188	0.1005	0.5101	0.044
Mof_C 	C 	0.1363	0.03	0.55024	0.345
Mof_C 	C 	0.2119	0.0781	0.45676	-0.102
Mof_C 	C 	0.264	0.122	0.44075	0.353
Mof_C 	C 	0.1794	0.0401	0.43321	0.042
Mof_H 	H 	0.1897	0.0422	0.408	0.044
Mof_C 	C 	0.1307	0.9987	0.44816	-0.101
Mof_O 	O 	0.2874	0.12346	0.40836	-0.245
Mof_O 	O 	0.2808	0.1585	0.46405	-0.395
Mof_C 	C 	0.0961	0.9562	0.42355	0.335
Mof_C 	C 	0.1163	0.996	0.48514	0.044
Mof_H 	H 	0.084	0.9683	0.4946	0.052
Mof_O 	O 	0.1027	0.96207	0.38871	-0.367
Mof_O 	O 	0.0666	0.91613	0.43844	-0.357
Mof_H 	H 	0.308	0.186	0.452	0.249
Mof_Ag	Ag	0.31766	0.59136	0.09165	0.55
Mof_O 	O 	0.1046	0.48942	0.0644	-0.302
Mof_O 	O 	0.1596	0.56882	0.06886	-0.413
Mof_C 	C 	0.1492	0.5337	0.00917	-0.108
Mof_C 	C 	0.1968	0.5749	0.99463	0.049
Mof_H 	H 	0.2188	0.6005	0.0101	0.044
Mof_C 	C 	0.1363	0.53	0.05024	0.345
Mof_C 	C 	0.2119	0.5781	0.95676	-0.102
Mof_C 	C 	0.264	0.622	0.94075	0.353
Mof_C 	C 	0.1794	0.5401	0.93321	0.042
Mof_H 	H 	0.1897	0.5422	0.908	0.044
Mof_C 	C 	0.1307	0.4987	0.94816	-0.101
Mof_O 	O 	0.2874	0.62346	0.90836	-0.245
Mof_O 	O 	0.2808	0.6585	0.96405	-0.395
Mof_C 	C 	0.0961	0.4562	0.92355	0.335
Mof_C 	C 	0.1163	0.496	0.98514	0.043
Mof_H 	H 	0.084	0.4683	0.9946	0.052
Mof_O 	O 	0.1027	0.46207	0.88871	-0.367
Mof_O 	O 	0.0666	0.41613	0.93844	-0.357
Mof_H 	H 	0.308	0.686	0.952	0.249
Mof_Ag	Ag	0.81766	0.09136	0.09165	0.55
Mof_O 	O 	0.6046	0.98942	0.0644	-0.302
Mof_O 	O 	0.6596	0.06882	0.06886	-0.413
Mof_C 	C 	0.6492	0.0337	0.00917	-0.109
Mof_C 	C 	0.6968	0.0749	0.99463	0.051
Mof_H 	H 	0.7188	0.1005	0.0101	0.043
Mof_C 	C 	0.6363	0.03	0.05024	0.345
Mof_C 	C 	0.7119	0.0781	0.95676	-0.102
Mof_C 	C 	0.764	0.122	0.94075	0.353
Mof_C 	C 	0.6794	0.0401	0.93321	0.043
Mof_H 	H 	0.6897	0.0422	0.908	0.044
Mof_C 	C 	0.6307	0.9987	0.94816	-0.102
Mof_O 	O 	0.7874	0.12346	0.90836	-0.245
Mof_O 	O 	0.7808	0.1585	0.96405	-0.395
Mof_C 	C 	0.5961	0.9562	0.92355	0.335
Mof_C 	C 	0.6163	0.996	0.98514	0.044
Mof_H 	H 	0.584	0.9683	0.9946	0.052
Mof_O 	O 	0.6027	0.96207	0.88871	-0.367
Mof_O 	O 	0.5666	0.91613	0.93844	-0.357
Mof_H 	H 	0.808	0.186	0.952	0.249
Mof_Ag	Ag	0.81766	0.59136	0.59165	0.55
Mof_O 	O 	0.6046	0.48942	0.5644	-0.302
Mof_O 	O 	0.6596	0.56882	0.56886	-0.413
Mof_C 	C 	0.6492	0.5337	0.50917	-0.108
Mof_C 	C 	0.6968	0.5749	0.49463	0.049
Mof_H 	H 	0.7188	0.6005	0.5101	0.044
Mof_C 	C 	0.6363	0.53	0.55024	0.345
Mof_C 	C 	0.7119	0.5781	0.45676	-0.102
Mof_C 	C 	0.764	0.622	0.44075	0.353
Mof_C 	C 	0.6794	0.5401	0.43321	0.043
Mof_H 	H 	0.6897	0.5422	0.408	0.044
Mof_C 	C 	0.6307	0.4987	0.44816	-0.101
Mof_O 	O 	0.7874	0.62346	0.40836	-0.245
Mof_O 	O 	0.7808	0.6585	0.46405	-0.395
Mof_C 	C 	0.5961	0.4562	0.42355	0.335
Mof_C 	C 	0.6163	0.496	0.48514	0.044
Mof_H 	H 	0.584	0.4683	0.4946	0.052
Mof_O 	O 	0.6027	0.46207	0.38871	-0.367
Mof_O 	O 	0.5666	0.41613	0.43844	-0.357
Mof_H 	H 	0.808	0.686	0.452	0.249
Mof_Ag	Ag	0.93234	0.15864	0.59165	0.55
Mof_O 	O 	0.1454	0.26058	0.5644	-0.302
Mof_O 	O 	0.0904	0.18118	0.56886	-0.413
Mof_C 	C 	0.1008	0.2163	0.50917	-0.108
Mof_C 	C 	0.0532	0.1751	0.49463	0.05
Mof_H 	H 	0.0312	0.1495	0.5101	0.044
Mof_C 	C 	0.1137	0.22	0.55024	0.345
Mof_C 	C 	0.0381	0.1719	0.45676	-0.102
Mof_C 	C 	0.986	0.128	0.44075	0.353
Mof_C 	C 	0.0706	0.2099	0.43321	0.043
Mof_H 	H 	0.0603	0.2078	0.408	0.044
Mof_C 	C 	0.1193	0.2513	0.44816	-0.101
Mof_O 	O 	0.9626	0.12654	0.40836	-0.245
Mof_O 	O 	0.9692	0.0915	0.46405	-0.395
Mof_C 	C 	0.1539	0.2938	0.42355	0.335
Mof_C 	C 	0.1337	0.254	0.48514	0.044
Mof_H 	H 	0.166	0.2817	0.4946	0.052
Mof_O 	O 	0.1473	0.28793	0.38871	-0.367
Mof_O 	O 	0.1834	0.33387	0.43844	-0.357
Mof_H 	H 	0.942	0.064	0.452	0.249
Mof_Ag	Ag	0.93234	0.65864	0.09165	0.55
Mof_O 	O 	0.1454	0.76058	0.0644	-0.302
Mof_O 	O 	0.0904	0.68118	0.06886	-0.412
Mof_C 	C 	0.1008	0.7163	0.00917	-0.107
Mof_C 	C 	0.0532	0.6751	0.99463	0.049
Mof_H 	H 	0.0312	0.6495	0.0101	0.044
Mof_C 	C 	0.1137	0.72	0.05024	0.345
Mof_C 	C 	0.0381	0.6719	0.95676	-0.101
Mof_C 	C 	0.986	0.628	0.94075	0.353
Mof_C 	C 	0.0706	0.7099	0.93321	0.042
Mof_H 	H 	0.0603	0.7078	0.908	0.044
Mof_C 	C 	0.1193	0.7513	0.94816	-0.1
Mof_O 	O 	0.9626	0.62654	0.90836	-0.245
Mof_O 	O 	0.9692	0.5915	0.96405	-0.395
Mof_C 	C 	0.1539	0.7938	0.92355	0.335
Mof_C 	C 	0.1337	0.754	0.98514	0.043
Mof_H 	H 	0.166	0.7817	0.9946	0.052
Mof_O 	O 	0.1473	0.78793	0.88871	-0.367
Mof_O 	O 	0.1834	0.83387	0.93844	-0.357
Mof_H 	H 	0.942	0.564	0.952	0.249
Mof_Ag	Ag	0.43234	0.15864	0.09165	0.55
Mof_O 	O 	0.6454	0.26058	0.0644	-0.302
Mof_O 	O 	0.5904	0.18118	0.06886	-0.413
Mof_C 	C 	0.6008	0.2163	0.00917	-0.109
Mof_C 	C 	0.5532	0.1751	0.99463	0.05
Mof_H 	H 	0.5312	0.1495	0.0101	0.043
Mof_C 	C 	0.6137	0.22	0.05024	0.345
Mof_C 	C 	0.5381	0.1719	0.95676	-0.102
Mof_C 	C 	0.486	0.128	0.94075	0.353
Mof_C 	C 	0.5706	0.2099	0.93321	0.043
Mof_H 	H 	0.5603	0.2078	0.908	0.044
Mof_C 	C 	0.6193	0.2513	0.94816	-0.101
Mof_O 	O 	0.4626	0.12654	0.90836	-0.245
Mof_O 	O 	0.4692	0.0915	0.96405	-0.395
Mof_C 	C 	0.6539	0.2938	0.92355	0.335
Mof_C 	C 	0.6337	0.254	0.98514	0.044
Mof_H 	H 	0.666	0.2817	0.9946	0.052
Mof_O 	O 	0.6473	0.28793	0.88871	-0.367
Mof_O 	O 	0.6834	0.33387	0.93844	-0.357
Mof_H 	H 	0.442	0.064	0.952	0.249
Mof_Ag	Ag	0.43234	0.65864	0.59165	0.55
Mof_O 	O 	0.6454	0.76058	0.5644	-0.302
Mof_O 	O 	0.5904	0.68118	0.56886	-0.413
Mof_C 	C 	0.6008	0.7163	0.50917	-0.108
Mof_C 	C 	0.5532	0.6751	0.49463	0.049
Mof_H 	H 	0.5312	0.6495	0.5101	0.044
Mof_C 	C 	0.6137	0.72	0.55024	0.345
Mof_C 	C 	0.5381	0.6719	0.45676	-0.102
Mof_C 	C 	0.486	0.628	0.44075	0.353
Mof_C 	C 	0.5706	0.7099	0.43321	0.043
Mof_H 	H 	0.5603	0.7078	0.408	0.044
Mof_C 	C 	0.6193	0.7513	0.44816	-0.101
Mof_O 	O 	0.4626	0.62654	0.40836	-0.245
Mof_O 	O 	0.4692	0.5915	0.46405	-0.395
Mof_C 	C 	0.6539	0.7938	0.42355	0.335
Mof_C 	C 	0.6337	0.754	0.48514	0.044
Mof_H 	H 	0.666	0.7817	0.4946	0.052
Mof_O 	O 	0.6473	0.78793	0.38871	-0.367
Mof_O 	O 	0.6834	0.83387	0.43844	-0.357
Mof_H 	H 	0.442	0.564	0.452	0.249
Mof_Ag	Ag	0.93234	0.09136	0.65835	0.55
Mof_O 	O 	0.1454	0.98942	0.6856	-0.302
Mof_O 	O 	0.0904	0.06882	0.68114	-0.413
Mof_C 	C 	0.1008	0.0337	0.74083	-0.109
Mof_C 	C 	0.0532	0.0749	0.75537	0.05
Mof_H 	H 	0.0312	0.1005	0.7399	0.044
Mof_C 	C 	0.1137	0.03	0.69976	0.345
Mof_C 	C 	0.0381	0.0781	0.79324	-0.102
Mof_C 	C 	0.986	0.122	0.80925	0.353
Mof_C 	C 	0.0706	0.0401	0.81679	0.043
Mof_H 	H 	0.0603	0.0422	0.842	0.044
Mof_C 	C 	0.1193	0.9987	0.80184	-0.101
Mof_O 	O 	0.9626	0.12346	0.84164	-0.245
Mof_O 	O 	0.9692	0.1585	0.78595	-0.395
Mof_C 	C 	0.1539	0.9562	0.82645	0.335
Mof_C 	C 	0.1337	0.996	0.76486	0.044
Mof_H 	H 	0.166	0.9683	0.7554	0.052
Mof_O 	O 	0.1473	0.96207	0.86129	-0.367
Mof_O 	O 	0.1834	0.91613	0.81156	-0.357
Mof_H 	H 	0.942	0.186	0.798	0.249
Mof_Ag	Ag	0.93234	0.59136	0.15835	0.55
Mof_O 	O 	0.1454	0.48942	0.1856	-0.302
Mof_O 	O 	0.0904	0.56882	0.18114	-0.413
Mof_C 	C 	0.1008	0.5337	0.24083	-0.108
Mof_C 	C 	0.0532	0.5749	0.25537	0.049
Mof_H 	H 	0.0312	0.6005	0.2399	0.044
Mof_C 	C 	0.1137	0.53	0.19976	0.345
Mof_C 	C 	0.0381	0.5781	0.29324	-0.102
Mof_C 	C 	0.986	0.622	0.30925	0.353
Mof_C 	C 	0.0706	0.5401	0.31679	0.043
Mof_H 	H 	0.0603	0.5422	0.342	0.044
Mof_C 	C 	0.1193	0.4987	0.30184	-0.101
Mof_O 	O 	0.9626	0.62346	0.34164	-0.245
Mof_O 	O 	0.9692	0.6585	0.28595	-0.395
Mof_C 	C 	0.1539	0.4562	0.32645	0.335
Mof_C 	C 	0.1337	0.496	0.26486	0.044
Mof_H 	H 	0.166	0.4683	0.2554	0.052
Mof_O 	O 	0.1473	0.46207	0.36129	-0.367
Mof_O 	O 	0.1834	0.41613	0.31156	-0.357
Mof_H 	H 	0.942	0.686	0.298	0.249
Mof_Ag	Ag	0.43234	0.09136	0.15835	0.55
Mof_O 	O 	0.6454	0.98942	0.1856	-0.302
Mof_O 	O 	0.5904	0.06882	0.18114	-0.413
Mof_C 	C 	0.6008	0.0337	0.24083	-0.108
Mof_C 	C 	0.5532	0.0749	0.25537	0.049
Mof_H 	H 	0.5312	0.1005	0.2399	0.044
Mof_C 	C 	0.6137	0.03	0.19976	0.345
Mof_C 	C 	0.5381	0.0781	0.29324	-0.102
Mof_C 	C 	0.486	0.122	0.30925	0.353
Mof_C 	C 	0.5706	0.0401	0.31679	0.043
Mof_H 	H 	0.5603	0.0422	0.342	0.044
Mof_C 	C 	0.6193	0.9987	0.30184	-0.101
Mof_O 	O 	0.4626	0.12346	0.34164	-0.245
Mof_O 	O 	0.4692	0.1585	0.28595	-0.395
Mof_C 	C 	0.6539	0.9562	0.32645	0.335
Mof_C 	C 	0.6337	0.996	0.26486	0.044
Mof_H 	H 	0.666	0.9683	0.2554	0.052
Mof_O 	O 	0.6473	0.96207	0.36129	-0.367
Mof_O 	O 	0.6834	0.91613	0.31156	-0.357
Mof_H 	H 	0.442	0.186	0.298	0.249
Mof_Ag	Ag	0.43234	0.59136	0.65835	0.55
Mof_O 	O 	0.6454	0.48942	0.6856	-0.302
Mof_O 	O 	0.5904	0.56882	0.68114	-0.413
Mof_C 	C 	0.6008	0.5337	0.74083	-0.108
Mof_C 	C 	0.5532	0.5749	0.75537	0.049
Mof_H 	H 	0.5312	0.6005	0.7399	0.044
Mof_C 	C 	0.6137	0.53	0.69976	0.345
Mof_C 	C 	0.5381	0.5781	0.79324	-0.102
Mof_C 	C 	0.486	0.622	0.80925	0.353
Mof_C 	C 	0.5706	0.5401	0.81679	0.043
Mof_H 	H 	0.5603	0.5422	0.842	0.044
Mof_C 	C 	0.6193	0.4987	0.80184	-0.101
Mof_O 	O 	0.4626	0.62346	0.84164	-0.245
Mof_O 	O 	0.4692	0.6585	0.78595	-0.395
Mof_C 	C 	0.6539	0.4562	0.82645	0.335
Mof_C 	C 	0.6337	0.496	0.76486	0.044
Mof_H 	H 	0.666	0.4683	0.7554	0.052
Mof_O 	O 	0.6473	0.46207	0.86129	-0.367
Mof_O 	O 	0.6834	0.41613	0.81156	-0.357
Mof_H 	H 	0.442	0.686	0.798	0.249
Mof_Ag	Ag	0.31766	0.15864	0.65835	0.55
Mof_O 	O 	0.1046	0.26058	0.6856	-0.302
Mof_O 	O 	0.1596	0.18118	0.68114	-0.413
Mof_C 	C 	0.1492	0.2163	0.74083	-0.108
Mof_C 	C 	0.1968	0.1751	0.75537	0.049
Mof_H 	H 	0.2188	0.1495	0.7399	0.044
Mof_C 	C 	0.1363	0.22	0.69976	0.345
Mof_C 	C 	0.2119	0.1719	0.79324	-0.102
Mof_C 	C 	0.264	0.128	0.80925	0.353
Mof_C 	C 	0.1794	0.2099	0.81679	0.043
Mof_H 	H 	0.1897	0.2078	0.842	0.044
Mof_C 	C 	0.1307	0.2513	0.80184	-0.101
Mof_O 	O 	0.2874	0.12654	0.84164	-0.245
Mof_O 	O 	0.2808	0.0915	0.78595	-0.395
Mof_C 	C 	0.0961	0.2938	0.82645	0.335
Mof_C 	C 	0.1163	0.254	0.76486	0.044
Mof_H 	H 	0.084	0.2817	0.7554	0.052
Mof_O 	O 	0.1027	0.28793	0.86129	-0.367
Mof_O 	O 	0.0666	0.33387	0.81156	-0.357
Mof_H 	H 	0.308	0.064	0.798	0.249
Mof_Ag	Ag	0.31766	0.65864	0.15835	0.55
Mof_O 	O 	0.1046	0.76058	0.1856	-0.302
Mof_O 	O 	0.1596	0.68118	0.18114	-0.413
Mof_C 	C 	0.1492	0.7163	0.24083	-0.108
Mof_C 	C 	0.1968	0.6751	0.25537	0.049
Mof_H 	H 	0.2188	0.6495	0.2399	0.044
Mof_C 	C 	0.1363	0.72	0.19976	0.345
Mof_C 	C 	0.2119	0.6719	0.29324	-0.102
Mof_C 	C 	0.264	0.628	0.30925	0.353
Mof_C 	C 	0.1794	0.7099	0.31679	0.043
Mof_H 	H 	0.1897	0.7078	0.342	0.044
Mof_C 	C 	0.1307	0.7513	0.30184	-0.101
Mof_O 	O 	0.2874	0.62654	0.34164	-0.245
Mof_O 	O 	0.2808	0.5915	0.28595	-0.395
Mof_C 	C 	0.0961	0.7938	0.32645	0.335
Mof_C 	C 	0.1163	0.754	0.26486	0.044
Mof_H 	H 	0.084	0.7817	0.2554	0.052
Mof_O 	O 	0.1027	0.78793	0.36129	-0.367
Mof_O 	O 	0.0666	0.83387	0.31156	-0.357
Mof_H 	H 	0.308	0.564	0.298	0.249
Mof_Ag	Ag	0.81766	0.15864	0.15835	0.55
Mof_O 	O 	0.6046	0.26058	0.1856	-0.302
Mof_O 	O 	0.6596	0.18118	0.18114	-0.413
Mof_C 	C 	0.6492	0.2163	0.24083	-0.108
Mof_C 	C 	0.6968	0.1751	0.25537	0.049
Mof_H 	H 	0.7188	0.1495	0.2399	0.044
Mof_C 	C 	0.6363	0.22	0.19976	0.345
Mof_C 	C 	0.7119	0.1719	0.29324	-0.102
Mof_C 	C 	0.764	0.128	0.30925	0.353
Mof_C 	C 	0.6794	0.2099	0.31679	0.043
Mof_H 	H 	0.6897	0.2078	0.342	0.044
Mof_C 	C 	0.6307	0.2513	0.30184	-0.101
Mof_O 	O 	0.7874	0.12654	0.34164	-0.245
Mof_O 	O 	0.7808	0.0915	0.28595	-0.395
Mof_C 	C 	0.5961	0.2938	0.32645	0.335
Mof_C 	C 	0.6163	0.254	0.26486	0.044
Mof_H 	H 	0.584	0.2817	0.2554	0.052
Mof_O 	O 	0.6027	0.28793	0.36129	-0.367
Mof_O 	O 	0.5666	0.33387	0.31156	-0.357
Mof_H 	H 	0.808	0.064	0.298	0.249
Mof_Ag	Ag	0.81766	0.65864	0.65835	0.55
Mof_O 	O 	0.6046	0.76058	0.6856	-0.302
Mof_O 	O 	0.6596	0.68118	0.68114	-0.413
Mof_C 	C 	0.6492	0.7163	0.74083	-0.108
Mof_C 	C 	0.6968	0.6751	0.75537	0.049
Mof_H 	H 	0.7188	0.6495	0.7399	0.044
Mof_C 	C 	0.6363	0.72	0.69976	0.345
Mof_C 	C 	0.7119	0.6719	0.79324	-0.102
Mof_C 	C 	0.764	0.628	0.80925	0.353
Mof_C 	C 	0.6794	0.7099	0.81679	0.043
Mof_H 	H 	0.6897	0.7078	0.842	0.044
Mof_C 	C 	0.6307	0.7513	0.80184	-0.101
Mof_O 	O 	0.7874	0.62654	0.84164	-0.245
Mof_O 	O 	0.7808	0.5915	0.78595	-0.395
Mof_C 	C 	0.5961	0.7938	0.82645	0.335
Mof_C 	C 	0.6163	0.754	0.76486	0.044
Mof_H 	H 	0.584	0.7817	0.7554	0.052
Mof_O 	O 	0.6027	0.78793	0.86129	-0.367
Mof_O 	O 	0.5666	0.83387	0.81156	-0.357
Mof_H 	H 	0.808	0.564	0.798	0.249
Mof_Ag	Ag	0.875	0.93462	0.375	0.564
Mof_Ag	Ag	0.875	0.43462	0.875	0.564
Mof_Ag	Ag	0.375	0.93462	0.875	0.564
Mof_Ag	Ag	0.375	0.43462	0.375	0.564
Mof_Ag	Ag	0.875	0.81538	0.375	0.564
Mof_Ag	Ag	0.875	0.31538	0.875	0.564
Mof_Ag	Ag	0.375	0.81538	0.875	0.564
Mof_Ag	Ag	0.375	0.31538	0.375	0.564
Mof_Ag	Ag	0.125	0.06538	0.625	0.564
Mof_Ag	Ag	0.125	0.56538	0.125	0.564
Mof_Ag	Ag	0.625	0.06538	0.125	0.564
Mof_Ag	Ag	0.625	0.56538	0.625	0.564
Mof_Ag	Ag	0.125	0.18462	0.625	0.564
Mof_Ag	Ag	0.125	0.68462	0.125	0.564
Mof_Ag	Ag	0.625	0.18462	0.125	0.564
Mof_Ag	Ag	0.625	0.68462	0.625	0.564
_end
