# CIF file generated by openbabel 3.1.0, see https://openbabel.org
data_I
_chemical_name_common 'image0'
_cell_length_a 24.0595
_cell_length_b 24.0595
_cell_length_c 30.986
_cell_angle_alpha 90
_cell_angle_beta 90
_cell_angle_gamma 90
_space_group_name_H-M_alt 'P 1'
_space_group_name_Hall 'P 1'
loop_
    _symmetry_equiv_pos_as_xyz
    x,y,z
loop_
    _atom_site_label
    _atom_site_type_symbol
    _atom_site_fract_x
    _atom_site_fract_y
    _atom_site_fract_z
    _atom_site_occupancy
    Zn1      Zn       0.57245    0.12589    0.12217    1.000
    C1       C        0.29816    0.23813    0.07780    1.000
    C2       C        0.34830    0.23610    0.04859    1.000
    H1       H        0.33620    0.23440    0.01880    1.000
    H2       H        0.37000    0.26970    0.05230    1.000
    C3       C        0.47837    0.16468    0.08112    1.000
    C4       C        0.44225    0.19450    0.04897    1.000
    H3       H        0.45110    0.23390    0.04940    1.000
    H4       H        0.45010    0.18060    0.02020    1.000
    C5       C        0.36078    0.13556    0.03870    1.000
    H5       H        0.32210    0.13210    0.04710    1.000
    H6       H        0.38050    0.10410    0.05090    1.000
    C6       C        0.36394    0.13126    0.98975    1.000
    C7       C        0.40790    0.10400    0.96975    1.000
    H7       H        0.43530    0.08750    0.98660    1.000
    C8       C        0.41140    0.10090    0.92529    1.000
    H8       H        0.44160    0.08300    0.91270    1.000
    C9       C        0.37077    0.12390    0.89920    1.000
    C10      C        0.32650    0.15146    0.91908    1.000
    H9       H        0.29890    0.16770    0.90230    1.000
    C11      C        0.32349    0.15480    0.96350    1.000
    H10      H        0.29370    0.17330    0.97610    1.000
    C12      C        0.69740    0.11870    0.10820    1.000
    H11      H        0.70370    0.15400    0.11940    1.000
    C13      C        0.73740    0.08430    0.09427    1.000
    H12      H        0.77550    0.09050    0.09440    1.000
    C14      C        0.65560    0.04650    0.08698    1.000
    H13      H        0.62820    0.02060    0.08070    1.000
    C15      C        0.73580    0.98860    0.06050    1.000
    C16      C        0.73010    0.97300    0.01630    1.000
    N1       N        0.38335    0.18705    0.05841    1.000
    N2       N        0.64627    0.09506    0.10368    1.000
    N3       N        0.71031    0.03870    0.07995    1.000
    O1       O        0.25668    0.26456    0.06574    1.000
    O2       O        0.30090    0.21343    0.11411    1.000
    O3       O        0.45882    0.15317    0.11733    1.000
    O4       O        0.52810    0.15387    0.07105    1.000
    Zn2      Zn       0.07245    0.62589    0.62216    1.000
    C17      C        0.79816    0.73813    0.57780    1.000
    C18      C        0.84830    0.73610    0.54859    1.000
    H14      H        0.83620    0.73440    0.51880    1.000
    H15      H        0.87000    0.76970    0.55230    1.000
    C19      C        0.97837    0.66468    0.58112    1.000
    C20      C        0.94225    0.69450    0.54897    1.000
    H16      H        0.95110    0.73390    0.54940    1.000
    H17      H        0.95010    0.68060    0.52020    1.000
    C21      C        0.86078    0.63556    0.53870    1.000
    H18      H        0.82210    0.63210    0.54710    1.000
    H19      H        0.88050    0.60410    0.55090    1.000
    C22      C        0.86394    0.63126    0.48975    1.000
    C23      C        0.90790    0.60400    0.46975    1.000
    H20      H        0.93530    0.58750    0.48660    1.000
    C24      C        0.91140    0.60090    0.42529    1.000
    H21      H        0.94160    0.58300    0.41270    1.000
    C25      C        0.87077    0.62390    0.39920    1.000
    C26      C        0.82650    0.65146    0.41908    1.000
    H22      H        0.79890    0.66770    0.40230    1.000
    C27      C        0.82349    0.65480    0.46350    1.000
    H23      H        0.79370    0.67330    0.47610    1.000
    C28      C        0.19740    0.61870    0.60820    1.000
    H24      H        0.20370    0.65400    0.61940    1.000
    C29      C        0.23740    0.58430    0.59427    1.000
    H25      H        0.27550    0.59050    0.59440    1.000
    C30      C        0.15560    0.54650    0.58698    1.000
    H26      H        0.12820    0.52060    0.58070    1.000
    C31      C        0.23580    0.48860    0.56050    1.000
    C32      C        0.23010    0.47300    0.51630    1.000
    N4       N        0.88335    0.68705    0.55841    1.000
    N5       N        0.14627    0.59506    0.60368    1.000
    N6       N        0.21031    0.53870    0.57995    1.000
    O5       O        0.75668    0.76456    0.56574    1.000
    O6       O        0.80090    0.71343    0.61411    1.000
    O7       O        0.95882    0.65317    0.61733    1.000
    O8       O        0.02810    0.65387    0.57105    1.000
    Zn3      Zn       0.92755    0.87411    0.62216    1.000
    C33      C        0.20184    0.76187    0.57780    1.000
    C34      C        0.15170    0.76390    0.54859    1.000
    H27      H        0.16380    0.76560    0.51880    1.000
    H28      H        0.13000    0.73030    0.55230    1.000
    C35      C        0.02163    0.83532    0.58112    1.000
    C36      C        0.05775    0.80550    0.54897    1.000
    H29      H        0.04890    0.76610    0.54940    1.000
    H30      H        0.04990    0.81940    0.52020    1.000
    C37      C        0.13922    0.86444    0.53870    1.000
    H31      H        0.17790    0.86790    0.54710    1.000
    H32      H        0.11950    0.89590    0.55090    1.000
    C38      C        0.13606    0.86874    0.48975    1.000
    C39      C        0.09210    0.89600    0.46975    1.000
    H33      H        0.06470    0.91250    0.48660    1.000
    C40      C        0.08860    0.89910    0.42529    1.000
    H34      H        0.05840    0.91700    0.41270    1.000
    C41      C        0.12923    0.87610    0.39920    1.000
    C42      C        0.17350    0.84854    0.41908    1.000
    H35      H        0.20110    0.83230    0.40230    1.000
    C43      C        0.17651    0.84520    0.46350    1.000
    H36      H        0.20630    0.82670    0.47610    1.000
    C44      C        0.80260    0.88130    0.60820    1.000
    H37      H        0.79630    0.84600    0.61940    1.000
    C45      C        0.76260    0.91570    0.59427    1.000
    H38      H        0.72450    0.90950    0.59440    1.000
    C46      C        0.84440    0.95350    0.58698    1.000
    H39      H        0.87180    0.97940    0.58070    1.000
    C47      C        0.76420    0.01140    0.56050    1.000
    C48      C        0.76990    0.02700    0.51630    1.000
    N7       N        0.11665    0.81295    0.55841    1.000
    N8       N        0.85373    0.90494    0.60368    1.000
    N9       N        0.78969    0.96130    0.57995    1.000
    O9       O        0.24332    0.73544    0.56574    1.000
    O10      O        0.19910    0.78657    0.61411    1.000
    O11      O        0.04118    0.84683    0.61733    1.000
    O12      O        0.97190    0.84613    0.57105    1.000
    Zn4      Zn       0.42755    0.37411    0.12217    1.000
    C49      C        0.70184    0.26187    0.07780    1.000
    C50      C        0.65170    0.26390    0.04859    1.000
    H40      H        0.66380    0.26560    0.01880    1.000
    H41      H        0.63000    0.23030    0.05230    1.000
    C51      C        0.52163    0.33532    0.08112    1.000
    C52      C        0.55775    0.30550    0.04897    1.000
    H42      H        0.54890    0.26610    0.04940    1.000
    H43      H        0.54990    0.31940    0.02020    1.000
    C53      C        0.63922    0.36444    0.03870    1.000
    H44      H        0.67790    0.36790    0.04710    1.000
    H45      H        0.61950    0.39590    0.05090    1.000
    C54      C        0.63606    0.36874    0.98975    1.000
    C55      C        0.59210    0.39600    0.96975    1.000
    H46      H        0.56470    0.41250    0.98660    1.000
    C56      C        0.58860    0.39910    0.92529    1.000
    H47      H        0.55840    0.41700    0.91270    1.000
    C57      C        0.62923    0.37610    0.89920    1.000
    C58      C        0.67350    0.34854    0.91908    1.000
    H48      H        0.70110    0.33230    0.90230    1.000
    C59      C        0.67651    0.34520    0.96350    1.000
    H49      H        0.70630    0.32670    0.97610    1.000
    C60      C        0.30260    0.38130    0.10820    1.000
    H50      H        0.29630    0.34600    0.11940    1.000
    C61      C        0.26260    0.41570    0.09427    1.000
    H51      H        0.22450    0.40950    0.09440    1.000
    C62      C        0.34440    0.45350    0.08698    1.000
    H52      H        0.37180    0.47940    0.08070    1.000
    C63      C        0.26420    0.51140    0.06050    1.000
    C64      C        0.26990    0.52700    0.01630    1.000
    N10      N        0.61665    0.31295    0.05841    1.000
    N11      N        0.35373    0.40494    0.10368    1.000
    N12      N        0.28969    0.46130    0.07995    1.000
    O13      O        0.74332    0.23544    0.06574    1.000
    O14      O        0.69910    0.28657    0.11411    1.000
    O15      O        0.54118    0.34683    0.11733    1.000
    O16      O        0.47190    0.34613    0.07105    1.000
    Zn5      Zn       0.12411    0.32245    0.37216    1.000
    C65      C        0.01187    0.04816    0.32780    1.000
    C66      C        0.01390    0.09830    0.29859    1.000
    H53      H        0.01560    0.08620    0.26880    1.000
    H54      H        0.98030    0.12000    0.30230    1.000
    C67      C        0.08532    0.22837    0.33112    1.000
    C68      C        0.05550    0.19225    0.29897    1.000
    H55      H        0.01610    0.20110    0.29940    1.000
    H56      H        0.06940    0.20010    0.27020    1.000
    C69      C        0.11444    0.11078    0.28870    1.000
    H57      H        0.11790    0.07210    0.29710    1.000
    H58      H        0.14590    0.13050    0.30090    1.000
    C70      C        0.11874    0.11394    0.23975    1.000
    C71      C        0.14600    0.15790    0.21975    1.000
    H59      H        0.16250    0.18530    0.23660    1.000
    C72      C        0.14910    0.16140    0.17529    1.000
    H60      H        0.16700    0.19160    0.16270    1.000
    C73      C        0.12610    0.12077    0.14920    1.000
    C74      C        0.09854    0.07650    0.16908    1.000
    H61      H        0.08230    0.04890    0.15230    1.000
    C75      C        0.09520    0.07349    0.21350    1.000
    H62      H        0.07670    0.04370    0.22610    1.000
    C76      C        0.13130    0.44740    0.35820    1.000
    H63      H        0.09600    0.45370    0.36940    1.000
    C77      C        0.16570    0.48740    0.34427    1.000
    H64      H        0.15950    0.52550    0.34440    1.000
    C78      C        0.20350    0.40560    0.33698    1.000
    H65      H        0.22940    0.37820    0.33070    1.000
    C79      C        0.26140    0.48580    0.31050    1.000
    C80      C        0.27700    0.48010    0.26630    1.000
    N13      N        0.06295    0.13335    0.30841    1.000
    N14      N        0.15494    0.39627    0.35368    1.000
    N15      N        0.21130    0.46031    0.32995    1.000
    O17      O        0.98544    0.00668    0.31574    1.000
    O18      O        0.03657    0.05090    0.36411    1.000
    O19      O        0.09683    0.20882    0.36733    1.000
    O20      O        0.09613    0.27810    0.32105    1.000
    Zn6      Zn       0.62411    0.82245    0.87216    1.000
    C81      C        0.51187    0.54816    0.82780    1.000
    C82      C        0.51390    0.59830    0.79859    1.000
    H66      H        0.51560    0.58620    0.76880    1.000
    H67      H        0.48030    0.62000    0.80230    1.000
    C83      C        0.58532    0.72837    0.83112    1.000
    C84      C        0.55550    0.69225    0.79897    1.000
    H68      H        0.51610    0.70110    0.79940    1.000
    H69      H        0.56940    0.70010    0.77020    1.000
    C85      C        0.61444    0.61078    0.78870    1.000
    H70      H        0.61790    0.57210    0.79710    1.000
    H71      H        0.64590    0.63050    0.80090    1.000
    C86      C        0.61874    0.61394    0.73975    1.000
    C87      C        0.64600    0.65790    0.71975    1.000
    H72      H        0.66250    0.68530    0.73660    1.000
    C88      C        0.64910    0.66140    0.67529    1.000
    H73      H        0.66700    0.69160    0.66270    1.000
    C89      C        0.62610    0.62077    0.64920    1.000
    C90      C        0.59854    0.57650    0.66908    1.000
    H74      H        0.58230    0.54890    0.65230    1.000
    C91      C        0.59520    0.57349    0.71350    1.000
    H75      H        0.57670    0.54370    0.72610    1.000
    C92      C        0.63130    0.94740    0.85820    1.000
    H76      H        0.59600    0.95370    0.86940    1.000
    C93      C        0.66570    0.98740    0.84427    1.000
    H77      H        0.65950    0.02550    0.84440    1.000
    C94      C        0.70350    0.90560    0.83698    1.000
    H78      H        0.72940    0.87820    0.83070    1.000
    C95      C        0.76140    0.98580    0.81050    1.000
    C96      C        0.77700    0.98010    0.76630    1.000
    N16      N        0.56295    0.63335    0.80841    1.000
    N17      N        0.65494    0.89627    0.85368    1.000
    N18      N        0.71130    0.96031    0.82995    1.000
    O21      O        0.48544    0.50668    0.81574    1.000
    O22      O        0.53657    0.55090    0.86411    1.000
    O23      O        0.59683    0.70882    0.86733    1.000
    O24      O        0.59613    0.77810    0.82105    1.000
    Zn7      Zn       0.37589    0.67755    0.87216    1.000
    C97      C        0.48813    0.95184    0.82780    1.000
    C98      C        0.48610    0.90170    0.79859    1.000
    H79      H        0.48440    0.91380    0.76880    1.000
    H80      H        0.51970    0.88000    0.80230    1.000
    C99      C        0.41468    0.77163    0.83112    1.000
    C100     C        0.44450    0.80775    0.79897    1.000
    H81      H        0.48390    0.79890    0.79940    1.000
    H82      H        0.43060    0.79990    0.77020    1.000
    C101     C        0.38556    0.88922    0.78870    1.000
    H83      H        0.38210    0.92790    0.79710    1.000
    H84      H        0.35410    0.86950    0.80090    1.000
    C102     C        0.38126    0.88606    0.73975    1.000
    C103     C        0.35400    0.84210    0.71975    1.000
    H85      H        0.33750    0.81470    0.73660    1.000
    C104     C        0.35090    0.83860    0.67529    1.000
    H86      H        0.33300    0.80840    0.66270    1.000
    C105     C        0.37390    0.87923    0.64920    1.000
    C106     C        0.40146    0.92350    0.66908    1.000
    H87      H        0.41770    0.95110    0.65230    1.000
    C107     C        0.40480    0.92651    0.71350    1.000
    H88      H        0.42330    0.95630    0.72610    1.000
    C108     C        0.36870    0.55260    0.85820    1.000
    H89      H        0.40400    0.54630    0.86940    1.000
    C109     C        0.33430    0.51260    0.84427    1.000
    H90      H        0.34050    0.47450    0.84440    1.000
    C110     C        0.29650    0.59440    0.83698    1.000
    H91      H        0.27060    0.62180    0.83070    1.000
    C111     C        0.23860    0.51420    0.81050    1.000
    C112     C        0.22300    0.51990    0.76630    1.000
    N19      N        0.43705    0.86665    0.80841    1.000
    N20      N        0.34506    0.60373    0.85368    1.000
    N21      N        0.28870    0.53969    0.82995    1.000
    O25      O        0.51456    0.99332    0.81574    1.000
    O26      O        0.46343    0.94910    0.86411    1.000
    O27      O        0.40317    0.79118    0.86733    1.000
    O28      O        0.40387    0.72190    0.82105    1.000
    Zn8      Zn       0.87589    0.17755    0.37216    1.000
    C113     C        0.98813    0.45184    0.32780    1.000
    C114     C        0.98610    0.40170    0.29859    1.000
    H92      H        0.98440    0.41380    0.26880    1.000
    H93      H        0.01970    0.38000    0.30230    1.000
    C115     C        0.91468    0.27163    0.33112    1.000
    C116     C        0.94450    0.30775    0.29897    1.000
    H94      H        0.98390    0.29890    0.29940    1.000
    H95      H        0.93060    0.29990    0.27020    1.000
    C117     C        0.88556    0.38922    0.28870    1.000
    H96      H        0.88210    0.42790    0.29710    1.000
    H97      H        0.85410    0.36950    0.30090    1.000
    C118     C        0.88126    0.38606    0.23975    1.000
    C119     C        0.85400    0.34210    0.21975    1.000
    H98      H        0.83750    0.31470    0.23660    1.000
    C120     C        0.85090    0.33860    0.17529    1.000
    H99      H        0.83300    0.30840    0.16270    1.000
    C121     C        0.87390    0.37923    0.14920    1.000
    C122     C        0.90146    0.42350    0.16908    1.000
    H100     H        0.91770    0.45110    0.15230    1.000
    C123     C        0.90480    0.42651    0.21350    1.000
    H101     H        0.92330    0.45630    0.22610    1.000
    C124     C        0.86870    0.05260    0.35820    1.000
    H102     H        0.90400    0.04630    0.36940    1.000
    C125     C        0.83430    0.01260    0.34427    1.000
    H103     H        0.84050    0.97450    0.34440    1.000
    C126     C        0.79650    0.09440    0.33698    1.000
    H104     H        0.77060    0.12180    0.33070    1.000
    C127     C        0.73860    0.01420    0.31050    1.000
    C128     C        0.72300    0.01990    0.26630    1.000
    N22      N        0.93705    0.36665    0.30841    1.000
    N23      N        0.84506    0.10373    0.35368    1.000
    N24      N        0.78870    0.03969    0.32995    1.000
    O29      O        0.01456    0.49332    0.31574    1.000
    O30      O        0.96343    0.44910    0.36411    1.000
    O31      O        0.90317    0.29118    0.36733    1.000
    O32      O        0.90387    0.22190    0.32105    1.000
    Zn9      Zn       0.92755    0.12589    0.87783    1.000
    C129     C        0.20184    0.23813    0.92220    1.000
    C130     C        0.15170    0.23610    0.95141    1.000
    H105     H        0.16380    0.23440    0.98120    1.000
    H106     H        0.13000    0.26970    0.94770    1.000
    C131     C        0.02163    0.16468    0.91888    1.000
    C132     C        0.05775    0.19450    0.95103    1.000
    H107     H        0.04890    0.23390    0.95060    1.000
    H108     H        0.04990    0.18060    0.97980    1.000
    C133     C        0.13922    0.13556    0.96130    1.000
    H109     H        0.17790    0.13210    0.95290    1.000
    H110     H        0.11950    0.10410    0.94910    1.000
    C134     C        0.13606    0.13126    0.01025    1.000
    C135     C        0.09210    0.10400    0.03025    1.000
    H111     H        0.06470    0.08750    0.01340    1.000
    C136     C        0.08860    0.10090    0.07471    1.000
    H112     H        0.05840    0.08300    0.08730    1.000
    C137     C        0.12923    0.12390    0.10080    1.000
    C138     C        0.17350    0.15146    0.08092    1.000
    H113     H        0.20110    0.16770    0.09770    1.000
    C139     C        0.17651    0.15480    0.03650    1.000
    H114     H        0.20630    0.17330    0.02390    1.000
    C140     C        0.80260    0.11870    0.89180    1.000
    H115     H        0.79630    0.15400    0.88060    1.000
    C141     C        0.76260    0.08430    0.90573    1.000
    H116     H        0.72450    0.09050    0.90560    1.000
    C142     C        0.84440    0.04650    0.91302    1.000
    H117     H        0.87180    0.02060    0.91930    1.000
    C143     C        0.76420    0.98860    0.93950    1.000
    C144     C        0.76990    0.97300    0.98370    1.000
    N25      N        0.11665    0.18705    0.94159    1.000
    N26      N        0.85373    0.09506    0.89632    1.000
    N27      N        0.78969    0.03870    0.92005    1.000
    O33      O        0.24332    0.26456    0.93426    1.000
    O34      O        0.19910    0.21343    0.88589    1.000
    O35      O        0.04118    0.15317    0.88267    1.000
    O36      O        0.97190    0.15387    0.92895    1.000
    Zn10     Zn       0.42755    0.62589    0.37783    1.000
    C145     C        0.70184    0.73813    0.42220    1.000
    C146     C        0.65170    0.73610    0.45141    1.000
    H118     H        0.66380    0.73440    0.48120    1.000
    H119     H        0.63000    0.76970    0.44770    1.000
    C147     C        0.52163    0.66468    0.41888    1.000
    C148     C        0.55775    0.69450    0.45103    1.000
    H120     H        0.54890    0.73390    0.45060    1.000
    H121     H        0.54990    0.68060    0.47980    1.000
    C149     C        0.63922    0.63556    0.46130    1.000
    H122     H        0.67790    0.63210    0.45290    1.000
    H123     H        0.61950    0.60410    0.44910    1.000
    C150     C        0.63606    0.63126    0.51025    1.000
    C151     C        0.59210    0.60400    0.53025    1.000
    H124     H        0.56470    0.58750    0.51340    1.000
    C152     C        0.58860    0.60090    0.57471    1.000
    H125     H        0.55840    0.58300    0.58730    1.000
    C153     C        0.62923    0.62390    0.60080    1.000
    C154     C        0.67350    0.65146    0.58092    1.000
    H126     H        0.70110    0.66770    0.59770    1.000
    C155     C        0.67651    0.65480    0.53650    1.000
    H127     H        0.70630    0.67330    0.52390    1.000
    C156     C        0.30260    0.61870    0.39180    1.000
    H128     H        0.29630    0.65400    0.38060    1.000
    C157     C        0.26260    0.58430    0.40573    1.000
    H129     H        0.22450    0.59050    0.40560    1.000
    C158     C        0.34440    0.54650    0.41302    1.000
    H130     H        0.37180    0.52060    0.41930    1.000
    C159     C        0.26420    0.48860    0.43950    1.000
    C160     C        0.26990    0.47300    0.48370    1.000
    N28      N        0.61665    0.68705    0.44159    1.000
    N29      N        0.35373    0.59506    0.39632    1.000
    N30      N        0.28969    0.53870    0.42005    1.000
    O37      O        0.74332    0.76456    0.43426    1.000
    O38      O        0.69910    0.71343    0.38589    1.000
    O39      O        0.54118    0.65317    0.38267    1.000
    O40      O        0.47190    0.65387    0.42895    1.000
    Zn11     Zn       0.57245    0.87411    0.37783    1.000
    C161     C        0.29816    0.76187    0.42220    1.000
    C162     C        0.34830    0.76390    0.45141    1.000
    H131     H        0.33620    0.76560    0.48120    1.000
    H132     H        0.37000    0.73030    0.44770    1.000
    C163     C        0.47837    0.83532    0.41888    1.000
    C164     C        0.44225    0.80550    0.45103    1.000
    H133     H        0.45110    0.76610    0.45060    1.000
    H134     H        0.45010    0.81940    0.47980    1.000
    C165     C        0.36078    0.86444    0.46130    1.000
    H135     H        0.32210    0.86790    0.45290    1.000
    H136     H        0.38050    0.89590    0.44910    1.000
    C166     C        0.36394    0.86874    0.51025    1.000
    C167     C        0.40790    0.89600    0.53025    1.000
    H137     H        0.43530    0.91250    0.51340    1.000
    C168     C        0.41140    0.89910    0.57471    1.000
    H138     H        0.44160    0.91700    0.58730    1.000
    C169     C        0.37077    0.87610    0.60080    1.000
    C170     C        0.32650    0.84854    0.58092    1.000
    H139     H        0.29890    0.83230    0.59770    1.000
    C171     C        0.32349    0.84520    0.53650    1.000
    H140     H        0.29370    0.82670    0.52390    1.000
    C172     C        0.69740    0.88130    0.39180    1.000
    H141     H        0.70370    0.84600    0.38060    1.000
    C173     C        0.73740    0.91570    0.40573    1.000
    H142     H        0.77550    0.90950    0.40560    1.000
    C174     C        0.65560    0.95350    0.41302    1.000
    H143     H        0.62820    0.97940    0.41930    1.000
    C175     C        0.73580    0.01140    0.43950    1.000
    C176     C        0.73010    0.02700    0.48370    1.000
    N31      N        0.38335    0.81295    0.44159    1.000
    N32      N        0.64627    0.90494    0.39632    1.000
    N33      N        0.71031    0.96130    0.42005    1.000
    O41      O        0.25668    0.73544    0.43426    1.000
    O42      O        0.30090    0.78657    0.38589    1.000
    O43      O        0.45882    0.84683    0.38267    1.000
    O44      O        0.52810    0.84613    0.42895    1.000
    Zn12     Zn       0.07245    0.37411    0.87783    1.000
    C177     C        0.79816    0.26187    0.92220    1.000
    C178     C        0.84830    0.26390    0.95141    1.000
    H144     H        0.83620    0.26560    0.98120    1.000
    H145     H        0.87000    0.23030    0.94770    1.000
    C179     C        0.97837    0.33532    0.91888    1.000
    C180     C        0.94225    0.30550    0.95103    1.000
    H146     H        0.95110    0.26610    0.95060    1.000
    H147     H        0.95010    0.31940    0.97980    1.000
    C181     C        0.86078    0.36444    0.96130    1.000
    H148     H        0.82210    0.36790    0.95290    1.000
    H149     H        0.88050    0.39590    0.94910    1.000
    C182     C        0.86394    0.36874    0.01025    1.000
    C183     C        0.90790    0.39600    0.03025    1.000
    H150     H        0.93530    0.41250    0.01340    1.000
    C184     C        0.91140    0.39910    0.07471    1.000
    H151     H        0.94160    0.41700    0.08730    1.000
    C185     C        0.87077    0.37610    0.10080    1.000
    C186     C        0.82650    0.34854    0.08092    1.000
    H152     H        0.79890    0.33230    0.09770    1.000
    C187     C        0.82349    0.34520    0.03650    1.000
    H153     H        0.79370    0.32670    0.02390    1.000
    C188     C        0.19740    0.38130    0.89180    1.000
    H154     H        0.20370    0.34600    0.88060    1.000
    C189     C        0.23740    0.41570    0.90573    1.000
    H155     H        0.27550    0.40950    0.90560    1.000
    C190     C        0.15560    0.45350    0.91302    1.000
    H156     H        0.12820    0.47940    0.91930    1.000
    C191     C        0.23580    0.51140    0.93950    1.000
    C192     C        0.23010    0.52700    0.98370    1.000
    N34      N        0.88335    0.31295    0.94159    1.000
    N35      N        0.14627    0.40494    0.89632    1.000
    N36      N        0.21031    0.46130    0.92005    1.000
    O45      O        0.75668    0.23544    0.93426    1.000
    O46      O        0.80090    0.28657    0.88589    1.000
    O47      O        0.95882    0.34683    0.88267    1.000
    O48      O        0.02810    0.34613    0.92895    1.000
    Zn13     Zn       0.37589    0.32245    0.62783    1.000
    C193     C        0.48813    0.04816    0.67220    1.000
    C194     C        0.48610    0.09830    0.70141    1.000
    H157     H        0.48440    0.08620    0.73120    1.000
    H158     H        0.51970    0.12000    0.69770    1.000
    C195     C        0.41468    0.22837    0.66888    1.000
    C196     C        0.44450    0.19225    0.70103    1.000
    H159     H        0.48390    0.20110    0.70060    1.000
    H160     H        0.43060    0.20010    0.72980    1.000
    C197     C        0.38556    0.11078    0.71130    1.000
    H161     H        0.38210    0.07210    0.70290    1.000
    H162     H        0.35410    0.13050    0.69910    1.000
    C198     C        0.38126    0.11394    0.76025    1.000
    C199     C        0.35400    0.15790    0.78025    1.000
    H163     H        0.33750    0.18530    0.76340    1.000
    C200     C        0.35090    0.16140    0.82471    1.000
    H164     H        0.33300    0.19160    0.83730    1.000
    C201     C        0.37390    0.12077    0.85080    1.000
    C202     C        0.40146    0.07650    0.83092    1.000
    H165     H        0.41770    0.04890    0.84770    1.000
    C203     C        0.40480    0.07349    0.78650    1.000
    H166     H        0.42330    0.04370    0.77390    1.000
    C204     C        0.36870    0.44740    0.64180    1.000
    H167     H        0.40400    0.45370    0.63060    1.000
    C205     C        0.33430    0.48740    0.65573    1.000
    H168     H        0.34050    0.52550    0.65560    1.000
    C206     C        0.29650    0.40560    0.66302    1.000
    H169     H        0.27060    0.37820    0.66930    1.000
    C207     C        0.23860    0.48580    0.68950    1.000
    C208     C        0.22300    0.48010    0.73370    1.000
    N37      N        0.43705    0.13335    0.69159    1.000
    N38      N        0.34506    0.39627    0.64632    1.000
    N39      N        0.28870    0.46031    0.67005    1.000
    O49      O        0.51456    0.00668    0.68426    1.000
    O50      O        0.46343    0.05090    0.63589    1.000
    O51      O        0.40317    0.20882    0.63267    1.000
    O52      O        0.40387    0.27810    0.67895    1.000
    Zn14     Zn       0.87589    0.82245    0.12783    1.000
    C209     C        0.98813    0.54816    0.17220    1.000
    C210     C        0.98610    0.59830    0.20141    1.000
    H170     H        0.98440    0.58620    0.23120    1.000
    H171     H        0.01970    0.62000    0.19770    1.000
    C211     C        0.91468    0.72837    0.16888    1.000
    C212     C        0.94450    0.69225    0.20103    1.000
    H172     H        0.98390    0.70110    0.20060    1.000
    H173     H        0.93060    0.70010    0.22980    1.000
    C213     C        0.88556    0.61078    0.21130    1.000
    H174     H        0.88210    0.57210    0.20290    1.000
    H175     H        0.85410    0.63050    0.19910    1.000
    C214     C        0.88126    0.61394    0.26025    1.000
    C215     C        0.85400    0.65790    0.28025    1.000
    H176     H        0.83750    0.68530    0.26340    1.000
    C216     C        0.85090    0.66140    0.32471    1.000
    H177     H        0.83300    0.69160    0.33730    1.000
    C217     C        0.87390    0.62077    0.35080    1.000
    C218     C        0.90146    0.57650    0.33092    1.000
    H178     H        0.91770    0.54890    0.34770    1.000
    C219     C        0.90480    0.57349    0.28650    1.000
    H179     H        0.92330    0.54370    0.27390    1.000
    C220     C        0.86870    0.94740    0.14180    1.000
    H180     H        0.90400    0.95370    0.13060    1.000
    C221     C        0.83430    0.98740    0.15573    1.000
    H181     H        0.84050    0.02550    0.15560    1.000
    C222     C        0.79650    0.90560    0.16302    1.000
    H182     H        0.77060    0.87820    0.16930    1.000
    C223     C        0.73860    0.98580    0.18950    1.000
    C224     C        0.72300    0.98010    0.23370    1.000
    N40      N        0.93705    0.63335    0.19159    1.000
    N41      N        0.84506    0.89627    0.14632    1.000
    N42      N        0.78870    0.96031    0.17005    1.000
    O53      O        0.01456    0.50668    0.18426    1.000
    O54      O        0.96343    0.55090    0.13589    1.000
    O55      O        0.90317    0.70882    0.13267    1.000
    O56      O        0.90387    0.77810    0.17895    1.000
    Zn15     Zn       0.12411    0.67755    0.12783    1.000
    C225     C        0.01187    0.95184    0.17220    1.000
    C226     C        0.01390    0.90170    0.20141    1.000
    H183     H        0.01560    0.91380    0.23120    1.000
    H184     H        0.98030    0.88000    0.19770    1.000
    C227     C        0.08532    0.77163    0.16888    1.000
    C228     C        0.05550    0.80775    0.20103    1.000
    H185     H        0.01610    0.79890    0.20060    1.000
    H186     H        0.06940    0.79990    0.22980    1.000
    C229     C        0.11444    0.88922    0.21130    1.000
    H187     H        0.11790    0.92790    0.20290    1.000
    H188     H        0.14590    0.86950    0.19910    1.000
    C230     C        0.11874    0.88606    0.26025    1.000
    C231     C        0.14600    0.84210    0.28025    1.000
    H189     H        0.16250    0.81470    0.26340    1.000
    C232     C        0.14910    0.83860    0.32471    1.000
    H190     H        0.16700    0.80840    0.33730    1.000
    C233     C        0.12610    0.87923    0.35080    1.000
    C234     C        0.09854    0.92350    0.33092    1.000
    H191     H        0.08230    0.95110    0.34770    1.000
    C235     C        0.09520    0.92651    0.28650    1.000
    H192     H        0.07670    0.95630    0.27390    1.000
    C236     C        0.13130    0.55260    0.14180    1.000
    H193     H        0.09600    0.54630    0.13060    1.000
    C237     C        0.16570    0.51260    0.15573    1.000
    H194     H        0.15950    0.47450    0.15560    1.000
    C238     C        0.20350    0.59440    0.16302    1.000
    H195     H        0.22940    0.62180    0.16930    1.000
    C239     C        0.26140    0.51420    0.18950    1.000
    C240     C        0.27700    0.51990    0.23370    1.000
    N43      N        0.06295    0.86665    0.19159    1.000
    N44      N        0.15494    0.60373    0.14632    1.000
    N45      N        0.21130    0.53969    0.17005    1.000
    O57      O        0.98544    0.99332    0.18426    1.000
    O58      O        0.03657    0.94910    0.13589    1.000
    O59      O        0.09683    0.79118    0.13267    1.000
    O60      O        0.09613    0.72190    0.17895    1.000
    Zn16     Zn       0.62411    0.17755    0.62783    1.000
    C241     C        0.51187    0.45184    0.67220    1.000
    C242     C        0.51390    0.40170    0.70141    1.000
    H196     H        0.51560    0.41380    0.73120    1.000
    H197     H        0.48030    0.38000    0.69770    1.000
    C243     C        0.58532    0.27163    0.66888    1.000
    C244     C        0.55550    0.30775    0.70103    1.000
    H198     H        0.51610    0.29890    0.70060    1.000
    H199     H        0.56940    0.29990    0.72980    1.000
    C245     C        0.61444    0.38922    0.71130    1.000
    H200     H        0.61790    0.42790    0.70290    1.000
    H201     H        0.64590    0.36950    0.69910    1.000
    C246     C        0.61874    0.38606    0.76025    1.000
    C247     C        0.64600    0.34210    0.78025    1.000
    H202     H        0.66250    0.31470    0.76340    1.000
    C248     C        0.64910    0.33860    0.82471    1.000
    H203     H        0.66700    0.30840    0.83730    1.000
    C249     C        0.62610    0.37923    0.85080    1.000
    C250     C        0.59854    0.42350    0.83092    1.000
    H204     H        0.58230    0.45110    0.84770    1.000
    C251     C        0.59520    0.42651    0.78650    1.000
    H205     H        0.57670    0.45630    0.77390    1.000
    C252     C        0.63130    0.05260    0.64180    1.000
    H206     H        0.59600    0.04630    0.63060    1.000
    C253     C        0.66570    0.01260    0.65573    1.000
    H207     H        0.65950    0.97450    0.65560    1.000
    C254     C        0.70350    0.09440    0.66302    1.000
    H208     H        0.72940    0.12180    0.66930    1.000
    C255     C        0.76140    0.01420    0.68950    1.000
    C256     C        0.77700    0.01990    0.73370    1.000
    N46      N        0.56295    0.36665    0.69159    1.000
    N47      N        0.65494    0.10373    0.64632    1.000
    N48      N        0.71130    0.03969    0.67005    1.000
    O61      O        0.48544    0.49332    0.68426    1.000
    O62      O        0.53657    0.44910    0.63589    1.000
    O63      O        0.59683    0.29118    0.63267    1.000
    O64      O        0.59613    0.22190    0.67895    1.000
    Zn17     Zn       0.42755    0.87411    0.87783    1.000
    C257     C        0.70184    0.76187    0.92220    1.000
    C258     C        0.65170    0.76390    0.95141    1.000
    H209     H        0.66380    0.76560    0.98120    1.000
    H210     H        0.63000    0.73030    0.94770    1.000
    C259     C        0.52163    0.83532    0.91888    1.000
    C260     C        0.55775    0.80550    0.95103    1.000
    H211     H        0.54890    0.76610    0.95060    1.000
    H212     H        0.54990    0.81940    0.97980    1.000
    C261     C        0.63922    0.86444    0.96130    1.000
    H213     H        0.67790    0.86790    0.95290    1.000
    H214     H        0.61950    0.89590    0.94910    1.000
    C262     C        0.63606    0.86874    0.01025    1.000
    C263     C        0.59210    0.89600    0.03025    1.000
    H215     H        0.56470    0.91250    0.01340    1.000
    C264     C        0.58860    0.89910    0.07471    1.000
    H216     H        0.55840    0.91700    0.08730    1.000
    C265     C        0.62923    0.87610    0.10080    1.000
    C266     C        0.67350    0.84854    0.08092    1.000
    H217     H        0.70110    0.83230    0.09770    1.000
    C267     C        0.67651    0.84520    0.03650    1.000
    H218     H        0.70630    0.82670    0.02390    1.000
    C268     C        0.30260    0.88130    0.89180    1.000
    H219     H        0.29630    0.84600    0.88060    1.000
    C269     C        0.26260    0.91570    0.90573    1.000
    H220     H        0.22450    0.90950    0.90560    1.000
    C270     C        0.34440    0.95350    0.91302    1.000
    H221     H        0.37180    0.97940    0.91930    1.000
    C271     C        0.26420    0.01140    0.93950    1.000
    C272     C        0.26990    0.02700    0.98370    1.000
    N49      N        0.61665    0.81295    0.94159    1.000
    N50      N        0.35373    0.90494    0.89632    1.000
    N51      N        0.28969    0.96130    0.92005    1.000
    O65      O        0.74332    0.73544    0.93426    1.000
    O66      O        0.69910    0.78657    0.88589    1.000
    O67      O        0.54118    0.84683    0.88267    1.000
    O68      O        0.47190    0.84613    0.92895    1.000
    Zn18     Zn       0.92755    0.37411    0.37783    1.000
    C273     C        0.20184    0.26187    0.42220    1.000
    C274     C        0.15170    0.26390    0.45141    1.000
    H222     H        0.16380    0.26560    0.48120    1.000
    H223     H        0.13000    0.23030    0.44770    1.000
    C275     C        0.02163    0.33532    0.41888    1.000
    C276     C        0.05775    0.30550    0.45103    1.000
    H224     H        0.04890    0.26610    0.45060    1.000
    H225     H        0.04990    0.31940    0.47980    1.000
    C277     C        0.13922    0.36444    0.46130    1.000
    H226     H        0.17790    0.36790    0.45290    1.000
    H227     H        0.11950    0.39590    0.44910    1.000
    C278     C        0.13606    0.36874    0.51025    1.000
    C279     C        0.09210    0.39600    0.53025    1.000
    H228     H        0.06470    0.41250    0.51340    1.000
    C280     C        0.08860    0.39910    0.57471    1.000
    H229     H        0.05840    0.41700    0.58730    1.000
    C281     C        0.12923    0.37610    0.60080    1.000
    C282     C        0.17350    0.34854    0.58092    1.000
    H230     H        0.20110    0.33230    0.59770    1.000
    C283     C        0.17651    0.34520    0.53650    1.000
    H231     H        0.20630    0.32670    0.52390    1.000
    C284     C        0.80260    0.38130    0.39180    1.000
    H232     H        0.79630    0.34600    0.38060    1.000
    C285     C        0.76260    0.41570    0.40573    1.000
    H233     H        0.72450    0.40950    0.40560    1.000
    C286     C        0.84440    0.45350    0.41302    1.000
    H234     H        0.87180    0.47940    0.41930    1.000
    C287     C        0.76420    0.51140    0.43950    1.000
    C288     C        0.76990    0.52700    0.48370    1.000
    N52      N        0.11665    0.31295    0.44159    1.000
    N53      N        0.85373    0.40494    0.39632    1.000
    N54      N        0.78969    0.46130    0.42005    1.000
    O69      O        0.24332    0.23544    0.43426    1.000
    O70      O        0.19910    0.28657    0.38589    1.000
    O71      O        0.04118    0.34683    0.38267    1.000
    O72      O        0.97190    0.34613    0.42895    1.000
    Zn19     Zn       0.07245    0.12589    0.37783    1.000
    C289     C        0.79816    0.23813    0.42220    1.000
    C290     C        0.84830    0.23610    0.45141    1.000
    H235     H        0.83620    0.23440    0.48120    1.000
    H236     H        0.87000    0.26970    0.44770    1.000
    C291     C        0.97837    0.16468    0.41888    1.000
    C292     C        0.94225    0.19450    0.45103    1.000
    H237     H        0.95110    0.23390    0.45060    1.000
    H238     H        0.95010    0.18060    0.47980    1.000
    C293     C        0.86078    0.13556    0.46130    1.000
    H239     H        0.82210    0.13210    0.45290    1.000
    H240     H        0.88050    0.10410    0.44910    1.000
    C294     C        0.86394    0.13126    0.51025    1.000
    C295     C        0.90790    0.10400    0.53025    1.000
    H241     H        0.93530    0.08750    0.51340    1.000
    C296     C        0.91140    0.10090    0.57471    1.000
    H242     H        0.94160    0.08300    0.58730    1.000
    C297     C        0.87077    0.12390    0.60080    1.000
    C298     C        0.82650    0.15146    0.58092    1.000
    H243     H        0.79890    0.16770    0.59770    1.000
    C299     C        0.82349    0.15480    0.53650    1.000
    H244     H        0.79370    0.17330    0.52390    1.000
    C300     C        0.19740    0.11870    0.39180    1.000
    H245     H        0.20370    0.15400    0.38060    1.000
    C301     C        0.23740    0.08430    0.40573    1.000
    H246     H        0.27550    0.09050    0.40560    1.000
    C302     C        0.15560    0.04650    0.41302    1.000
    H247     H        0.12820    0.02060    0.41930    1.000
    C303     C        0.23580    0.98860    0.43950    1.000
    C304     C        0.23010    0.97300    0.48370    1.000
    N55      N        0.88335    0.18705    0.44159    1.000
    N56      N        0.14627    0.09506    0.39632    1.000
    N57      N        0.21031    0.03870    0.42005    1.000
    O73      O        0.75668    0.26456    0.43426    1.000
    O74      O        0.80090    0.21343    0.38589    1.000
    O75      O        0.95882    0.15317    0.38267    1.000
    O76      O        0.02810    0.15387    0.42895    1.000
    Zn20     Zn       0.57245    0.62589    0.87783    1.000
    C305     C        0.29816    0.73813    0.92220    1.000
    C306     C        0.34830    0.73610    0.95141    1.000
    H248     H        0.33620    0.73440    0.98120    1.000
    H249     H        0.37000    0.76970    0.94770    1.000
    C307     C        0.47837    0.66468    0.91888    1.000
    C308     C        0.44225    0.69450    0.95103    1.000
    H250     H        0.45110    0.73390    0.95060    1.000
    H251     H        0.45010    0.68060    0.97980    1.000
    C309     C        0.36078    0.63556    0.96130    1.000
    H252     H        0.32210    0.63210    0.95290    1.000
    H253     H        0.38050    0.60410    0.94910    1.000
    C310     C        0.36394    0.63126    0.01025    1.000
    C311     C        0.40790    0.60400    0.03025    1.000
    H254     H        0.43530    0.58750    0.01340    1.000
    C312     C        0.41140    0.60090    0.07471    1.000
    H255     H        0.44160    0.58300    0.08730    1.000
    C313     C        0.37077    0.62390    0.10080    1.000
    C314     C        0.32650    0.65146    0.08092    1.000
    H256     H        0.29890    0.66770    0.09770    1.000
    C315     C        0.32349    0.65480    0.03650    1.000
    H257     H        0.29370    0.67330    0.02390    1.000
    C316     C        0.69740    0.61870    0.89180    1.000
    H258     H        0.70370    0.65400    0.88060    1.000
    C317     C        0.73740    0.58430    0.90573    1.000
    H259     H        0.77550    0.59050    0.90560    1.000
    C318     C        0.65560    0.54650    0.91302    1.000
    H260     H        0.62820    0.52060    0.91930    1.000
    C319     C        0.73580    0.48860    0.93950    1.000
    C320     C        0.73010    0.47300    0.98370    1.000
    N58      N        0.38335    0.68705    0.94159    1.000
    N59      N        0.64627    0.59506    0.89632    1.000
    N60      N        0.71031    0.53870    0.92005    1.000
    O77      O        0.25668    0.76456    0.93426    1.000
    O78      O        0.30090    0.71343    0.88589    1.000
    O79      O        0.45882    0.65317    0.88267    1.000
    O80      O        0.52810    0.65387    0.92895    1.000
    Zn21     Zn       0.87589    0.67755    0.62783    1.000
    C321     C        0.98813    0.95184    0.67220    1.000
    C322     C        0.98610    0.90170    0.70141    1.000
    H261     H        0.98440    0.91380    0.73120    1.000
    H262     H        0.01970    0.88000    0.69770    1.000
    C323     C        0.91468    0.77163    0.66888    1.000
    C324     C        0.94450    0.80775    0.70103    1.000
    H263     H        0.98390    0.79890    0.70060    1.000
    H264     H        0.93060    0.79990    0.72980    1.000
    C325     C        0.88556    0.88922    0.71130    1.000
    H265     H        0.88210    0.92790    0.70290    1.000
    H266     H        0.85410    0.86950    0.69910    1.000
    C326     C        0.88126    0.88606    0.76025    1.000
    C327     C        0.85400    0.84210    0.78025    1.000
    H267     H        0.83750    0.81470    0.76340    1.000
    C328     C        0.85090    0.83860    0.82471    1.000
    H268     H        0.83300    0.80840    0.83730    1.000
    C329     C        0.87390    0.87923    0.85080    1.000
    C330     C        0.90146    0.92350    0.83092    1.000
    H269     H        0.91770    0.95110    0.84770    1.000
    C331     C        0.90480    0.92651    0.78650    1.000
    H270     H        0.92330    0.95630    0.77390    1.000
    C332     C        0.86870    0.55260    0.64180    1.000
    H271     H        0.90400    0.54630    0.63060    1.000
    C333     C        0.83430    0.51260    0.65573    1.000
    H272     H        0.84050    0.47450    0.65560    1.000
    C334     C        0.79650    0.59440    0.66302    1.000
    H273     H        0.77060    0.62180    0.66930    1.000
    C335     C        0.73860    0.51420    0.68950    1.000
    C336     C        0.72300    0.51990    0.73370    1.000
    N61      N        0.93705    0.86665    0.69159    1.000
    N62      N        0.84506    0.60373    0.64632    1.000
    N63      N        0.78870    0.53969    0.67005    1.000
    O81      O        0.01456    0.99332    0.68426    1.000
    O82      O        0.96343    0.94910    0.63589    1.000
    O83      O        0.90317    0.79118    0.63267    1.000
    O84      O        0.90387    0.72190    0.67895    1.000
    Zn22     Zn       0.37589    0.17755    0.12783    1.000
    C337     C        0.48813    0.45184    0.17220    1.000
    C338     C        0.48610    0.40170    0.20141    1.000
    H274     H        0.48440    0.41380    0.23120    1.000
    H275     H        0.51970    0.38000    0.19770    1.000
    C339     C        0.41468    0.27163    0.16888    1.000
    C340     C        0.44450    0.30775    0.20103    1.000
    H276     H        0.48390    0.29890    0.20060    1.000
    H277     H        0.43060    0.29990    0.22980    1.000
    C341     C        0.38556    0.38922    0.21130    1.000
    H278     H        0.38210    0.42790    0.20290    1.000
    H279     H        0.35410    0.36950    0.19910    1.000
    C342     C        0.38126    0.38606    0.26025    1.000
    C343     C        0.35400    0.34210    0.28025    1.000
    H280     H        0.33750    0.31470    0.26340    1.000
    C344     C        0.35090    0.33860    0.32471    1.000
    H281     H        0.33300    0.30840    0.33730    1.000
    C345     C        0.37390    0.37923    0.35080    1.000
    C346     C        0.40146    0.42350    0.33092    1.000
    H282     H        0.41770    0.45110    0.34770    1.000
    C347     C        0.40480    0.42651    0.28650    1.000
    H283     H        0.42330    0.45630    0.27390    1.000
    C348     C        0.36870    0.05260    0.14180    1.000
    H284     H        0.40400    0.04630    0.13060    1.000
    C349     C        0.33430    0.01260    0.15573    1.000
    H285     H        0.34050    0.97450    0.15560    1.000
    C350     C        0.29650    0.09440    0.16302    1.000
    H286     H        0.27060    0.12180    0.16930    1.000
    C351     C        0.23860    0.01420    0.18950    1.000
    C352     C        0.22300    0.01990    0.23370    1.000
    N64      N        0.43705    0.36665    0.19159    1.000
    N65      N        0.34506    0.10373    0.14632    1.000
    N66      N        0.28870    0.03969    0.17005    1.000
    O85      O        0.51456    0.49332    0.18426    1.000
    O86      O        0.46343    0.44910    0.13589    1.000
    O87      O        0.40317    0.29118    0.13267    1.000
    O88      O        0.40387    0.22190    0.17895    1.000
    Zn23     Zn       0.62411    0.32245    0.12783    1.000
    C353     C        0.51187    0.04816    0.17220    1.000
    C354     C        0.51390    0.09830    0.20141    1.000
    H287     H        0.51560    0.08620    0.23120    1.000
    H288     H        0.48030    0.12000    0.19770    1.000
    C355     C        0.58532    0.22837    0.16888    1.000
    C356     C        0.55550    0.19225    0.20103    1.000
    H289     H        0.51610    0.20110    0.20060    1.000
    H290     H        0.56940    0.20010    0.22980    1.000
    C357     C        0.61444    0.11078    0.21130    1.000
    H291     H        0.61790    0.07210    0.20290    1.000
    H292     H        0.64590    0.13050    0.19910    1.000
    C358     C        0.61874    0.11394    0.26025    1.000
    C359     C        0.64600    0.15790    0.28025    1.000
    H293     H        0.66250    0.18530    0.26340    1.000
    C360     C        0.64910    0.16140    0.32471    1.000
    H294     H        0.66700    0.19160    0.33730    1.000
    C361     C        0.62610    0.12077    0.35080    1.000
    C362     C        0.59854    0.07650    0.33092    1.000
    H295     H        0.58230    0.04890    0.34770    1.000
    C363     C        0.59520    0.07349    0.28650    1.000
    H296     H        0.57670    0.04370    0.27390    1.000
    C364     C        0.63130    0.44740    0.14180    1.000
    H297     H        0.59600    0.45370    0.13060    1.000
    C365     C        0.66570    0.48740    0.15573    1.000
    H298     H        0.65950    0.52550    0.15560    1.000
    C366     C        0.70350    0.40560    0.16302    1.000
    H299     H        0.72940    0.37820    0.16930    1.000
    C367     C        0.76140    0.48580    0.18950    1.000
    C368     C        0.77700    0.48010    0.23370    1.000
    N67      N        0.56295    0.13335    0.19159    1.000
    N68      N        0.65494    0.39627    0.14632    1.000
    N69      N        0.71130    0.46031    0.17005    1.000
    O89      O        0.48544    0.00668    0.18426    1.000
    O90      O        0.53657    0.05090    0.13589    1.000
    O91      O        0.59683    0.20882    0.13267    1.000
    O92      O        0.59613    0.27810    0.17895    1.000
    Zn24     Zn       0.12411    0.82245    0.62783    1.000
    C369     C        0.01187    0.54816    0.67220    1.000
    C370     C        0.01390    0.59830    0.70141    1.000
    H300     H        0.01560    0.58620    0.73120    1.000
    H301     H        0.98030    0.62000    0.69770    1.000
    C371     C        0.08532    0.72837    0.66888    1.000
    C372     C        0.05550    0.69225    0.70103    1.000
    H302     H        0.01610    0.70110    0.70060    1.000
    H303     H        0.06940    0.70010    0.72980    1.000
    C373     C        0.11444    0.61078    0.71130    1.000
    H304     H        0.11790    0.57210    0.70290    1.000
    H305     H        0.14590    0.63050    0.69910    1.000
    C374     C        0.11874    0.61394    0.76025    1.000
    C375     C        0.14600    0.65790    0.78025    1.000
    H306     H        0.16250    0.68530    0.76340    1.000
    C376     C        0.14910    0.66140    0.82471    1.000
    H307     H        0.16700    0.69160    0.83730    1.000
    C377     C        0.12610    0.62077    0.85080    1.000
    C378     C        0.09854    0.57650    0.83092    1.000
    H308     H        0.08230    0.54890    0.84770    1.000
    C379     C        0.09520    0.57349    0.78650    1.000
    H309     H        0.07670    0.54370    0.77390    1.000
    C380     C        0.13130    0.94740    0.64180    1.000
    H310     H        0.09600    0.95370    0.63060    1.000
    C381     C        0.16570    0.98740    0.65573    1.000
    H311     H        0.15950    0.02550    0.65560    1.000
    C382     C        0.20350    0.90560    0.66302    1.000
    H312     H        0.22940    0.87820    0.66930    1.000
    C383     C        0.26140    0.98580    0.68950    1.000
    C384     C        0.27700    0.98010    0.73370    1.000
    N70      N        0.06295    0.63335    0.69159    1.000
    N71      N        0.15494    0.89627    0.64632    1.000
    N72      N        0.21130    0.96031    0.67005    1.000
    O93      O        0.98544    0.50668    0.68426    1.000
    O94      O        0.03657    0.55090    0.63589    1.000
    O95      O        0.09683    0.70882    0.63267    1.000
    O96      O        0.09613    0.77810    0.67895    1.000
    Zn25     Zn       0.07245    0.87411    0.12217    1.000
    C385     C        0.79816    0.76187    0.07780    1.000
    C386     C        0.84830    0.76390    0.04859    1.000
    H313     H        0.83620    0.76560    0.01880    1.000
    H314     H        0.87000    0.73030    0.05230    1.000
    C387     C        0.97837    0.83532    0.08112    1.000
    C388     C        0.94225    0.80550    0.04897    1.000
    H315     H        0.95110    0.76610    0.04940    1.000
    H316     H        0.95010    0.81940    0.02020    1.000
    C389     C        0.86078    0.86444    0.03870    1.000
    H317     H        0.82210    0.86790    0.04710    1.000
    H318     H        0.88050    0.89590    0.05090    1.000
    C390     C        0.86394    0.86874    0.98975    1.000
    C391     C        0.90790    0.89600    0.96975    1.000
    H319     H        0.93530    0.91250    0.98660    1.000
    C392     C        0.91140    0.89910    0.92529    1.000
    H320     H        0.94160    0.91700    0.91270    1.000
    C393     C        0.87077    0.87610    0.89920    1.000
    C394     C        0.82650    0.84854    0.91908    1.000
    H321     H        0.79890    0.83230    0.90230    1.000
    C395     C        0.82349    0.84520    0.96350    1.000
    H322     H        0.79370    0.82670    0.97610    1.000
    C396     C        0.19740    0.88130    0.10820    1.000
    H323     H        0.20370    0.84600    0.11940    1.000
    C397     C        0.23740    0.91570    0.09427    1.000
    H324     H        0.27550    0.90950    0.09440    1.000
    C398     C        0.15560    0.95350    0.08698    1.000
    H325     H        0.12820    0.97940    0.08070    1.000
    C399     C        0.23580    0.01140    0.06050    1.000
    C400     C        0.23010    0.02700    0.01630    1.000
    N73      N        0.88335    0.81295    0.05841    1.000
    N74      N        0.14627    0.90494    0.10368    1.000
    N75      N        0.21031    0.96130    0.07995    1.000
    O97      O        0.75668    0.73544    0.06574    1.000
    O98      O        0.80090    0.78657    0.11411    1.000
    O99      O        0.95882    0.84683    0.11733    1.000
    O100     O        0.02810    0.84613    0.07105    1.000
    Zn26     Zn       0.57245    0.37411    0.62216    1.000
    C401     C        0.29816    0.26187    0.57780    1.000
    C402     C        0.34830    0.26390    0.54859    1.000
    H326     H        0.33620    0.26560    0.51880    1.000
    H327     H        0.37000    0.23030    0.55230    1.000
    C403     C        0.47837    0.33532    0.58112    1.000
    C404     C        0.44225    0.30550    0.54897    1.000
    H328     H        0.45110    0.26610    0.54940    1.000
    H329     H        0.45010    0.31940    0.52020    1.000
    C405     C        0.36078    0.36444    0.53870    1.000
    H330     H        0.32210    0.36790    0.54710    1.000
    H331     H        0.38050    0.39590    0.55090    1.000
    C406     C        0.36394    0.36874    0.48975    1.000
    C407     C        0.40790    0.39600    0.46975    1.000
    H332     H        0.43530    0.41250    0.48660    1.000
    C408     C        0.41140    0.39910    0.42529    1.000
    H333     H        0.44160    0.41700    0.41270    1.000
    C409     C        0.37077    0.37610    0.39920    1.000
    C410     C        0.32650    0.34854    0.41908    1.000
    H334     H        0.29890    0.33230    0.40230    1.000
    C411     C        0.32349    0.34520    0.46350    1.000
    H335     H        0.29370    0.32670    0.47610    1.000
    C412     C        0.69740    0.38130    0.60820    1.000
    H336     H        0.70370    0.34600    0.61940    1.000
    C413     C        0.73740    0.41570    0.59427    1.000
    H337     H        0.77550    0.40950    0.59440    1.000
    C414     C        0.65560    0.45350    0.58698    1.000
    H338     H        0.62820    0.47940    0.58070    1.000
    C415     C        0.73580    0.51140    0.56050    1.000
    C416     C        0.73010    0.52700    0.51630    1.000
    N76      N        0.38335    0.31295    0.55841    1.000
    N77      N        0.64627    0.40494    0.60368    1.000
    N78      N        0.71031    0.46130    0.57995    1.000
    O101     O        0.25668    0.23544    0.56574    1.000
    O102     O        0.30090    0.28657    0.61411    1.000
    O103     O        0.45882    0.34683    0.61733    1.000
    O104     O        0.52810    0.34613    0.57105    1.000
    Zn27     Zn       0.42755    0.12589    0.62216    1.000
    C417     C        0.70184    0.23813    0.57780    1.000
    C418     C        0.65170    0.23610    0.54859    1.000
    H339     H        0.66380    0.23440    0.51880    1.000
    H340     H        0.63000    0.26970    0.55230    1.000
    C419     C        0.52163    0.16468    0.58112    1.000
    C420     C        0.55775    0.19450    0.54897    1.000
    H341     H        0.54890    0.23390    0.54940    1.000
    H342     H        0.54990    0.18060    0.52020    1.000
    C421     C        0.63922    0.13556    0.53870    1.000
    H343     H        0.67790    0.13210    0.54710    1.000
    H344     H        0.61950    0.10410    0.55090    1.000
    C422     C        0.63606    0.13126    0.48975    1.000
    C423     C        0.59210    0.10400    0.46975    1.000
    H345     H        0.56470    0.08750    0.48660    1.000
    C424     C        0.58860    0.10090    0.42529    1.000
    H346     H        0.55840    0.08300    0.41270    1.000
    C425     C        0.62923    0.12390    0.39920    1.000
    C426     C        0.67350    0.15146    0.41908    1.000
    H347     H        0.70110    0.16770    0.40230    1.000
    C427     C        0.67651    0.15480    0.46350    1.000
    H348     H        0.70630    0.17330    0.47610    1.000
    C428     C        0.30260    0.11870    0.60820    1.000
    H349     H        0.29630    0.15400    0.61940    1.000
    C429     C        0.26260    0.08430    0.59427    1.000
    H350     H        0.22450    0.09050    0.59440    1.000
    C430     C        0.34440    0.04650    0.58698    1.000
    H351     H        0.37180    0.02060    0.58070    1.000
    C431     C        0.26420    0.98860    0.56050    1.000
    C432     C        0.26990    0.97300    0.51630    1.000
    N79      N        0.61665    0.18705    0.55841    1.000
    N80      N        0.35373    0.09506    0.60368    1.000
    N81      N        0.28969    0.03870    0.57995    1.000
    O105     O        0.74332    0.26456    0.56574    1.000
    O106     O        0.69910    0.21343    0.61411    1.000
    O107     O        0.54118    0.15317    0.61733    1.000
    O108     O        0.47190    0.15387    0.57105    1.000
    Zn28     Zn       0.92755    0.62589    0.12217    1.000
    C433     C        0.20184    0.73813    0.07780    1.000
    C434     C        0.15170    0.73610    0.04859    1.000
    H352     H        0.16380    0.73440    0.01880    1.000
    H353     H        0.13000    0.76970    0.05230    1.000
    C435     C        0.02163    0.66468    0.08112    1.000
    C436     C        0.05775    0.69450    0.04897    1.000
    H354     H        0.04890    0.73390    0.04940    1.000
    H355     H        0.04990    0.68060    0.02020    1.000
    C437     C        0.13922    0.63556    0.03870    1.000
    H356     H        0.17790    0.63210    0.04710    1.000
    H357     H        0.11950    0.60410    0.05090    1.000
    C438     C        0.13606    0.63126    0.98975    1.000
    C439     C        0.09210    0.60400    0.96975    1.000
    H358     H        0.06470    0.58750    0.98660    1.000
    C440     C        0.08860    0.60090    0.92529    1.000
    H359     H        0.05840    0.58300    0.91270    1.000
    C441     C        0.12923    0.62390    0.89920    1.000
    C442     C        0.17350    0.65146    0.91908    1.000
    H360     H        0.20110    0.66770    0.90230    1.000
    C443     C        0.17651    0.65480    0.96350    1.000
    H361     H        0.20630    0.67330    0.97610    1.000
    C444     C        0.80260    0.61870    0.10820    1.000
    H362     H        0.79630    0.65400    0.11940    1.000
    C445     C        0.76260    0.58430    0.09427    1.000
    H363     H        0.72450    0.59050    0.09440    1.000
    C446     C        0.84440    0.54650    0.08698    1.000
    H364     H        0.87180    0.52060    0.08070    1.000
    C447     C        0.76420    0.48860    0.06050    1.000
    C448     C        0.76990    0.47300    0.01630    1.000
    N82      N        0.11665    0.68705    0.05841    1.000
    N83      N        0.85373    0.59506    0.10368    1.000
    N84      N        0.78969    0.53870    0.07995    1.000
    O109     O        0.24332    0.76456    0.06574    1.000
    O110     O        0.19910    0.71343    0.11411    1.000
    O111     O        0.04118    0.65317    0.11733    1.000
    O112     O        0.97190    0.65387    0.07105    1.000
    Zn29     Zn       0.62411    0.67755    0.37216    1.000
    C449     C        0.51187    0.95184    0.32780    1.000
    C450     C        0.51390    0.90170    0.29859    1.000
    H365     H        0.51560    0.91380    0.26880    1.000
    H366     H        0.48030    0.88000    0.30230    1.000
    C451     C        0.58532    0.77163    0.33112    1.000
    C452     C        0.55550    0.80775    0.29897    1.000
    H367     H        0.51610    0.79890    0.29940    1.000
    H368     H        0.56940    0.79990    0.27020    1.000
    C453     C        0.61444    0.88922    0.28870    1.000
    H369     H        0.61790    0.92790    0.29710    1.000
    H370     H        0.64590    0.86950    0.30090    1.000
    C454     C        0.61874    0.88606    0.23975    1.000
    C455     C        0.64600    0.84210    0.21975    1.000
    H371     H        0.66250    0.81470    0.23660    1.000
    C456     C        0.64910    0.83860    0.17529    1.000
    H372     H        0.66700    0.80840    0.16270    1.000
    C457     C        0.62610    0.87923    0.14920    1.000
    C458     C        0.59854    0.92350    0.16908    1.000
    H373     H        0.58230    0.95110    0.15230    1.000
    C459     C        0.59520    0.92651    0.21350    1.000
    H374     H        0.57670    0.95630    0.22610    1.000
    C460     C        0.63130    0.55260    0.35820    1.000
    H375     H        0.59600    0.54630    0.36940    1.000
    C461     C        0.66570    0.51260    0.34427    1.000
    H376     H        0.65950    0.47450    0.34440    1.000
    C462     C        0.70350    0.59440    0.33698    1.000
    H377     H        0.72940    0.62180    0.33070    1.000
    C463     C        0.76140    0.51420    0.31050    1.000
    C464     C        0.77700    0.51990    0.26630    1.000
    N85      N        0.56295    0.86665    0.30841    1.000
    N86      N        0.65494    0.60373    0.35368    1.000
    N87      N        0.71130    0.53969    0.32995    1.000
    O113     O        0.48544    0.99332    0.31574    1.000
    O114     O        0.53657    0.94910    0.36411    1.000
    O115     O        0.59683    0.79118    0.36733    1.000
    O116     O        0.59613    0.72190    0.32105    1.000
    Zn30     Zn       0.12411    0.17755    0.87216    1.000
    C465     C        0.01187    0.45184    0.82780    1.000
    C466     C        0.01390    0.40170    0.79859    1.000
    H378     H        0.01560    0.41380    0.76880    1.000
    H379     H        0.98030    0.38000    0.80230    1.000
    C467     C        0.08532    0.27163    0.83112    1.000
    C468     C        0.05550    0.30775    0.79897    1.000
    H380     H        0.01610    0.29890    0.79940    1.000
    H381     H        0.06940    0.29990    0.77020    1.000
    C469     C        0.11444    0.38922    0.78870    1.000
    H382     H        0.11790    0.42790    0.79710    1.000
    H383     H        0.14590    0.36950    0.80090    1.000
    C470     C        0.11874    0.38606    0.73975    1.000
    C471     C        0.14600    0.34210    0.71975    1.000
    H384     H        0.16250    0.31470    0.73660    1.000
    C472     C        0.14910    0.33860    0.67529    1.000
    H385     H        0.16700    0.30840    0.66270    1.000
    C473     C        0.12610    0.37923    0.64920    1.000
    C474     C        0.09854    0.42350    0.66908    1.000
    H386     H        0.08230    0.45110    0.65230    1.000
    C475     C        0.09520    0.42651    0.71350    1.000
    H387     H        0.07670    0.45630    0.72610    1.000
    C476     C        0.13130    0.05260    0.85820    1.000
    H388     H        0.09600    0.04630    0.86940    1.000
    C477     C        0.16570    0.01260    0.84427    1.000
    H389     H        0.15950    0.97450    0.84440    1.000
    C478     C        0.20350    0.09440    0.83698    1.000
    H390     H        0.22940    0.12180    0.83070    1.000
    C479     C        0.26140    0.01420    0.81050    1.000
    C480     C        0.27700    0.01990    0.76630    1.000
    N88      N        0.06295    0.36665    0.80841    1.000
    N89      N        0.15494    0.10373    0.85368    1.000
    N90      N        0.21130    0.03969    0.82995    1.000
    O117     O        0.98544    0.49332    0.81574    1.000
    O118     O        0.03657    0.44910    0.86411    1.000
    O119     O        0.09683    0.29118    0.86733    1.000
    O120     O        0.09613    0.22190    0.82105    1.000
    Zn31     Zn       0.87589    0.32245    0.87216    1.000
    C481     C        0.98813    0.04816    0.82780    1.000
    C482     C        0.98610    0.09830    0.79859    1.000
    H391     H        0.98440    0.08620    0.76880    1.000
    H392     H        0.01970    0.12000    0.80230    1.000
    C483     C        0.91468    0.22837    0.83112    1.000
    C484     C        0.94450    0.19225    0.79897    1.000
    H393     H        0.98390    0.20110    0.79940    1.000
    H394     H        0.93060    0.20010    0.77020    1.000
    C485     C        0.88556    0.11078    0.78870    1.000
    H395     H        0.88210    0.07210    0.79710    1.000
    H396     H        0.85410    0.13050    0.80090    1.000
    C486     C        0.88126    0.11394    0.73975    1.000
    C487     C        0.85400    0.15790    0.71975    1.000
    H397     H        0.83750    0.18530    0.73660    1.000
    C488     C        0.85090    0.16140    0.67529    1.000
    H398     H        0.83300    0.19160    0.66270    1.000
    C489     C        0.87390    0.12077    0.64920    1.000
    C490     C        0.90146    0.07650    0.66908    1.000
    H399     H        0.91770    0.04890    0.65230    1.000
    C491     C        0.90480    0.07349    0.71350    1.000
    H400     H        0.92330    0.04370    0.72610    1.000
    C492     C        0.86870    0.44740    0.85820    1.000
    H401     H        0.90400    0.45370    0.86940    1.000
    C493     C        0.83430    0.48740    0.84427    1.000
    H402     H        0.84050    0.52550    0.84440    1.000
    C494     C        0.79650    0.40560    0.83698    1.000
    H403     H        0.77060    0.37820    0.83070    1.000
    C495     C        0.73860    0.48580    0.81050    1.000
    C496     C        0.72300    0.48010    0.76630    1.000
    N91      N        0.93705    0.13335    0.80841    1.000
    N92      N        0.84506    0.39627    0.85368    1.000
    N93      N        0.78870    0.46031    0.82995    1.000
    O121     O        0.01456    0.00668    0.81574    1.000
    O122     O        0.96343    0.05090    0.86411    1.000
    O123     O        0.90317    0.20882    0.86733    1.000
    O124     O        0.90387    0.27810    0.82105    1.000
    Zn32     Zn       0.37589    0.82245    0.37216    1.000
    C497     C        0.48813    0.54816    0.32780    1.000
    C498     C        0.48610    0.59830    0.29859    1.000
    H404     H        0.48440    0.58620    0.26880    1.000
    H405     H        0.51970    0.62000    0.30230    1.000
    C499     C        0.41468    0.72837    0.33112    1.000
    C500     C        0.44450    0.69225    0.29897    1.000
    H406     H        0.48390    0.70110    0.29940    1.000
    H407     H        0.43060    0.70010    0.27020    1.000
    C501     C        0.38556    0.61078    0.28870    1.000
    H408     H        0.38210    0.57210    0.29710    1.000
    H409     H        0.35410    0.63050    0.30090    1.000
    C502     C        0.38126    0.61394    0.23975    1.000
    C503     C        0.35400    0.65790    0.21975    1.000
    H410     H        0.33750    0.68530    0.23660    1.000
    C504     C        0.35090    0.66140    0.17529    1.000
    H411     H        0.33300    0.69160    0.16270    1.000
    C505     C        0.37390    0.62077    0.14920    1.000
    C506     C        0.40146    0.57650    0.16908    1.000
    H412     H        0.41770    0.54890    0.15230    1.000
    C507     C        0.40480    0.57349    0.21350    1.000
    H413     H        0.42330    0.54370    0.22610    1.000
    C508     C        0.36870    0.94740    0.35820    1.000
    H414     H        0.40400    0.95370    0.36940    1.000
    C509     C        0.33430    0.98740    0.34427    1.000
    H415     H        0.34050    0.02550    0.34440    1.000
    C510     C        0.29650    0.90560    0.33698    1.000
    H416     H        0.27060    0.87820    0.33070    1.000
    C511     C        0.23860    0.98580    0.31050    1.000
    C512     C        0.22300    0.98010    0.26630    1.000
    N94      N        0.43705    0.63335    0.30841    1.000
    N95      N        0.34506    0.89627    0.35368    1.000
    N96      N        0.28870    0.96031    0.32995    1.000
    O125     O        0.51456    0.50668    0.31574    1.000
    O126     O        0.46343    0.55090    0.36411    1.000
    O127     O        0.40317    0.70882    0.36733    1.000
    O128     O        0.40387    0.77810    0.32105    1.000
    C513     C        0.75000    0.01550    0.00000    1.000
    C514     C        0.25000    0.51550    0.50000    1.000
    C515     C        0.75000    0.98450    0.50000    1.000
    C516     C        0.25000    0.48450    0.00000    1.000
    C517     C        0.23450    0.50000    0.25000    1.000
    C518     C        0.73450    0.00000    0.75000    1.000
    C519     C        0.26550    0.50000    0.75000    1.000
    C520     C        0.76550    0.00000    0.25000    1.000
    C521     C        0.25000    0.98450    0.00000    1.000
    C522     C        0.75000    0.48450    0.50000    1.000
    C523     C        0.25000    0.01550    0.50000    1.000
    C524     C        0.75000    0.51550    0.00000    1.000
    C525     C        0.76550    0.50000    0.75000    1.000
    C526     C        0.26550    0.00000    0.25000    1.000
    C527     C        0.73450    0.50000    0.25000    1.000
    C528     C        0.23450    0.00000    0.75000    1.000
