data_functionalizedCrystal
_audit_creation_method	'EQeq! by Chris Wilmer'
_symmetry_space_group_name_H-M	'P1'
_symmetry_Int_Tables_number	1
_symmetry_cell_setting	triclinic
loop_
_symmetry_equiv_pos_as_xyz
  x,y,z
_cell_length_a	10.1
_cell_length_b	13.978
_cell_length_c	14.481
_cell_angle_alpha	63.119
_cell_angle_beta	71.811
_cell_angle_gamma	79.588
loop_
_atom_site_label
_atom_site_type_symbol
_atom_site_fract_x
_atom_site_fract_y
_atom_site_fract_z
_atom_site_charge
Mof_Cd	Cd	0.19568	0.03405	0.39392	0.454
Mof_Cd	Cd	0.7681	0.92863	0.02594	0.41
Mof_O 	O 	0.4337	0.0358	0.3457	-0.267
Mof_O 	O 	0.3805	0.1561	0.1957	-0.246
Mof_O 	O 	0.8899	0.0433	0.4209	-0.295
Mof_O 	O 	0.0629	0.1233	0.2798	-0.275
Mof_O 	O 	0.1123	0.2227	0.003	-0.265
Mof_O 	O 	0.0196	0.0663	0.1151	-0.259
Mof_O 	O 	0.653	0.0419	0.0992	-0.269
Mof_O 	O 	0.811	0.1487	0.961	-0.253
Mof_N 	N 	0.1949	0.8664	0.3973	-0.154
Mof_N 	N 	0.1913	0.1907	0.4177	-0.154
Mof_N 	N 	0.6073	0.8075	0.1725	-0.155
Mof_C 	C 	0.1963	0.7728	0.4853	0.11
Mof_H 	H 	0.2126	0.7734	0.5448	-0.002
Mof_C 	C 	0.1743	0.6781	0.4887	-0.179
Mof_H 	H 	0.1783	0.616	0.5506	0.095
Mof_C 	C 	0.1465	0.6685	0.4061	0.131
Mof_C 	C 	0.1573	0.7603	0.3162	-0.174
Mof_H 	H 	0.152	0.7577	0.2545	0.108
Mof_C 	C 	0.1766	0.8615	0.3107	0.097
Mof_H 	H 	0.1767	0.9237	0.2481	0.019
Mof_C 	C 	0.094	0.5668	0.4148	-0.088
Mof_H 	H 	0.0417	0.5757	0.3689	0.059
Mof_C 	C 	0.121	0.4635	0.4862	-0.083
Mof_H 	H 	0.115	0.4514	0.556	0.058
Mof_C 	C 	0.1588	0.3707	0.4579	0.12
Mof_C 	C 	0.1754	0.2696	0.5409	-0.176
Mof_H 	H 	0.177	0.2606	0.6083	0.095
Mof_C 	C 	0.189	0.1854	0.5139	0.101
Mof_H 	H 	0.1975	0.117	0.5676	0.012
Mof_C 	C 	0.181	0.2873	0.3415	0.104
Mof_H 	H 	0.1846	0.294	0.2739	0.014
Mof_C 	C 	0.1649	0.3787	0.3575	-0.179
Mof_H 	H 	0.1582	0.4457	0.3014	0.094
Mof_C 	C 	0.5877	0.8022	0.2699	0.098
Mof_H 	H 	0.6021	0.8626	0.2762	0.016
Mof_C 	C 	0.5457	0.7079	0.3642	-0.183
Mof_H 	H 	0.5335	0.7068	0.4311	0.097
Mof_C 	C 	0.5235	0.6202	0.3573	0.14
Mof_C 	C 	0.5362	0.6263	0.2596	-0.188
Mof_H 	H 	0.5178	0.567	0.2533	0.096
Mof_C 	C 	0.5764	0.7202	0.1682	0.106
Mof_H 	H 	0.5823	0.7228	0.1017	0.009
Mof_C 	C 	0.4951	0.5113	0.4524	-0.092
Mof_H 	H 	0.4691	0.4574	0.4417	0.061
Mof_C 	C 	0.4643	0.1134	0.2501	0.289
Mof_C 	C 	0.6084	0.1624	0.2161	-0.068
Mof_H 	H 	0.5857	0.2239	0.2345	0.058
Mof_C 	C 	0.7166	0.0952	0.2766	-0.092
Mof_H 	H 	0.6721	0.0631	0.3529	0.076
Mof_H 	H 	0.7551	0.0376	0.2546	0.083
Mof_C 	C 	0.8333	0.1632	0.2548	-0.081
Mof_H 	H 	0.7864	0.218	0.2801	0.058
Mof_C 	C 	0.9034	0.2275	0.1357	-0.096
Mof_H 	H 	0.9493	0.2855	0.1323	0.073
Mof_C 	C 	0.7952	0.2837	0.0683	-0.07
Mof_H 	H 	0.7543	0.3469	0.0802	0.049
Mof_H 	H 	0.8438	0.3076	0.9929	0.066
Mof_C 	C 	0.6766	0.2125	0.0942	-0.1
Mof_H 	H 	0.6052	0.2601	0.06	0.073
Mof_C 	C 	0.9372	0.1035	0.3237	0.308
Mof_C 	C 	0.0192	0.1657	0.0831	0.31
Mof_C 	C 	0.7199	0.1279	0.0499	0.294
Mof_Cd	Cd	0.80432	0.96595	0.60608	0.455
Mof_Cd	Cd	0.2319	0.07137	0.97406	0.411
Mof_O 	O 	0.5663	0.9642	0.6543	-0.266
Mof_O 	O 	0.6195	0.8439	0.8043	-0.245
Mof_O 	O 	0.1101	0.9567	0.5791	-0.295
Mof_O 	O 	0.9371	0.8767	0.7202	-0.275
Mof_O 	O 	0.8877	0.7773	0.997	-0.265
Mof_O 	O 	0.9804	0.9337	0.8849	-0.259
Mof_O 	O 	0.347	0.9581	0.9008	-0.269
Mof_O 	O 	0.189	0.8513	0.039	-0.253
Mof_N 	N 	0.8051	0.1336	0.6027	-0.154
Mof_N 	N 	0.8087	0.8093	0.5823	-0.154
Mof_N 	N 	0.3927	0.1925	0.8275	-0.155
Mof_C 	C 	0.8037	0.2272	0.5147	0.11
Mof_H 	H 	0.7874	0.2266	0.4552	-0.002
Mof_C 	C 	0.8257	0.3219	0.5113	-0.179
Mof_H 	H 	0.8217	0.384	0.4494	0.095
Mof_C 	C 	0.8535	0.3315	0.5939	0.131
Mof_C 	C 	0.8427	0.2397	0.6838	-0.174
Mof_H 	H 	0.848	0.2423	0.7455	0.108
Mof_C 	C 	0.8234	0.1385	0.6893	0.097
Mof_H 	H 	0.8233	0.0763	0.7519	0.019
Mof_C 	C 	0.906	0.4332	0.5852	-0.088
Mof_H 	H 	0.9583	0.4243	0.6311	0.059
Mof_C 	C 	0.879	0.5365	0.5138	-0.083
Mof_H 	H 	0.885	0.5486	0.444	0.058
Mof_C 	C 	0.8412	0.6293	0.5421	0.12
Mof_C 	C 	0.8246	0.7304	0.4591	-0.176
Mof_H 	H 	0.823	0.7394	0.3917	0.095
Mof_C 	C 	0.811	0.8146	0.4861	0.101
Mof_H 	H 	0.8025	0.883	0.4324	0.012
Mof_C 	C 	0.819	0.7127	0.6585	0.104
Mof_H 	H 	0.8154	0.706	0.7261	0.014
Mof_C 	C 	0.8351	0.6213	0.6425	-0.179
Mof_H 	H 	0.8418	0.5543	0.6986	0.094
Mof_C 	C 	0.4123	0.1978	0.7301	0.098
Mof_H 	H 	0.3979	0.1374	0.7238	0.016
Mof_C 	C 	0.4543	0.2921	0.6358	-0.183
Mof_H 	H 	0.4665	0.2932	0.5689	0.097
Mof_C 	C 	0.4765	0.3798	0.6427	0.14
Mof_C 	C 	0.4638	0.3737	0.7404	-0.188
Mof_H 	H 	0.4822	0.433	0.7467	0.096
Mof_C 	C 	0.4236	0.2798	0.8318	0.106
Mof_H 	H 	0.4177	0.2772	0.8983	0.009
Mof_C 	C 	0.5049	0.4887	0.5476	-0.092
Mof_H 	H 	0.5309	0.5426	0.5583	0.061
Mof_C 	C 	0.5357	0.8866	0.7499	0.289
Mof_C 	C 	0.3916	0.8376	0.7839	-0.068
Mof_H 	H 	0.4143	0.7761	0.7655	0.058
Mof_C 	C 	0.2834	0.9048	0.7234	-0.092
Mof_H 	H 	0.3279	0.9369	0.6471	0.076
Mof_H 	H 	0.2449	0.9624	0.7454	0.083
Mof_C 	C 	0.1667	0.8368	0.7452	-0.081
Mof_H 	H 	0.2136	0.782	0.7199	0.058
Mof_C 	C 	0.0966	0.7725	0.8643	-0.096
Mof_H 	H 	0.0507	0.7145	0.8677	0.073
Mof_C 	C 	0.2048	0.7163	0.9317	-0.07
Mof_H 	H 	0.2457	0.6531	0.9198	0.049
Mof_H 	H 	0.1562	0.6924	0.0071	0.066
Mof_C 	C 	0.3234	0.7875	0.9058	-0.1
Mof_H 	H 	0.3948	0.7399	0.94	0.073
Mof_C 	C 	0.0628	0.8965	0.6763	0.308
Mof_C 	C 	0.9808	0.8343	0.9169	0.31
Mof_C 	C 	0.2801	0.8721	0.9501	0.294
_end
