# CIF file generated by openbabel 3.1.0, see https://openbabel.org
data_I
_chemical_name_common 'image0'
_cell_length_a 8.9711
_cell_length_b 14.1439
_cell_length_c 19.8782
_cell_angle_alpha 82.151
_cell_angle_beta 82.397
_cell_angle_gamma 74.901
_space_group_name_H-M_alt 'P 1'
_space_group_name_Hall 'P 1'
loop_
    _symmetry_equiv_pos_as_xyz
    x,y,z
loop_
    _atom_site_label
    _atom_site_type_symbol
    _atom_site_fract_x
    _atom_site_fract_y
    _atom_site_fract_z
    _atom_site_occupancy
    Zn1      Zn       0.38289    0.48184    0.63663    1.000
    Zn2      Zn       0.49046    0.02607    0.88311    1.000
    V1       V        0.99130    0.55990    0.58255    1.000
    V2       V        0.77908    0.41481    0.69276    1.000
    V3       V        0.97273    0.19668    0.74761    1.000
    V4       V        0.83282    0.10977    0.90050    1.000
    V5       V        0.84390    0.07187    0.06392    1.000
    C1       C        0.97930    0.53210    0.93150    1.000
    C2       C        0.99970    0.43260    0.95480    1.000
    C3       C        0.01820    0.40110    0.02400    1.000
    C4       C        0.39300    0.06320    0.54240    1.000
    C5       C        0.45410    0.96530    0.56650    1.000
    C6       C        0.55990    0.90160    0.52460    1.000
    C7       C        0.95120    0.56770    0.85880    1.000
    H1       H        0.88270    0.53310    0.84440    1.000
    H2       H        0.89980    0.63740    0.85530    1.000
    C8       C        0.32040    0.55900    0.77510    1.000
    H3       H        0.41890    0.57040    0.77020    1.000
    C9       C        0.13000    0.51490    0.75460    1.000
    H4       H        0.06350    0.48880    0.73470    1.000
    C10      C        0.00230    0.35730    0.90570    1.000
    H5       H        0.93170    0.31700    0.92520    1.000
    H6       H        0.96630    0.39190    0.86300    1.000
    C11      C        0.39250    0.25130    0.85940    1.000
    H7       H        0.49300    0.25360    0.84190    1.000
    C12      C        0.20240    0.19870    0.90230    1.000
    H8       H        0.13810    0.15780    0.92120    1.000
    C13      C        0.02730    0.29420    0.05120    1.000
    H9       H        0.96980    0.29180    0.09600    1.000
    H10      H        0.97810    0.26540    0.02140    1.000
    C14      C        0.42720    0.18880    0.04160    1.000
    H11      H        0.53070    0.18830    0.02820    1.000
    C15      C        0.23270    0.14100    0.08120    1.000
    H12      H        0.16600    0.10210    0.10090    1.000
    C16      C        0.28150    0.13090    0.58840    1.000
    H13      H        0.19050    0.16460    0.56530    1.000
    H14      H        0.24810    0.09270    0.62920    1.000
    C17      C        0.30520    0.30090    0.60140    1.000
    H15      H        0.21620    0.33690    0.58170    1.000
    C18      C        0.51040    0.25840    0.64950    1.000
    H16      H        0.59570    0.26270    0.66980    1.000
    C19      C        0.39870    0.92460    0.63780    1.000
    H17      H        0.28690    0.94860    0.64580    1.000
    H18      H        0.42280    0.85330    0.64070    1.000
    C20      C        0.40920    0.98970    0.74770    1.000
    H19      H        0.30320    0.00730    0.76090    1.000
    C21      C        0.64670    0.96680    0.74250    1.000
    H20      H        0.74450    0.96470    0.75430    1.000
    C22      C        0.63500    0.79860    0.55390    1.000
    H21      H        0.73080    0.77370    0.52590    1.000
    H22      H        0.66110    0.80070    0.59940    1.000
    N1       N        0.43960    0.60350    0.58080    1.000
    N2       N        0.41030    0.74950    0.52020    1.000
    N3       N        0.09710    0.55230    0.81250    1.000
    N4       N        0.22200    0.58050    0.82790    1.000
    N5       N        0.26970    0.51910    0.72830    1.000
    N6       N        0.15760    0.29390    0.89220    1.000
    N7       N        0.27760    0.33130    0.86390    1.000
    N8       N        0.35290    0.16710    0.88180    1.000
    N9       N        0.18790    0.23480    0.05630    1.000
    N10      N        0.31210    0.26720    0.02980    1.000
    N11      N        0.38310    0.11140    0.07410    1.000
    N12      N        0.35480    0.20390    0.60750    1.000
    N13      N        0.48540    0.17490    0.63990    1.000
    N14      N        0.40100    0.33850    0.62740    1.000
    N15      N        0.47170    0.95360    0.69040    1.000
    N16      N        0.62800    0.94050    0.68650    1.000
    N17      N        0.51630    0.99780    0.78390    1.000
    N18      N        0.53280    0.73000    0.55750    1.000
    C23      C        0.54700    0.64540    0.59140    1.000
    H23      H        0.62430    0.61700    0.62010    1.000
    C24      C        0.35970    0.67000    0.53630    1.000
    H24      H        0.27490    0.66060    0.51820    1.000
    O1       O        0.17680    0.51790    0.58730    1.000
    O2       O        0.93910    0.59560    0.50910    1.000
    O3       O        0.89430    0.47890    0.63260    1.000
    O4       O        0.84680    0.28450    0.69440    1.000
    O5       O        0.89060    0.19410    0.83610    1.000
    O6       O        0.67370    0.08000    0.89240    1.000
    O7       O        0.98420    0.00340    0.90130    1.000
    O8       O        0.83620    0.14740    0.98060    1.000
    O9       O        0.70400    0.01970    0.07950    1.000
    O10      O        0.94290    0.66650    0.60910    1.000
    O11      O        0.60120    0.44490    0.67340    1.000
    V6       V        0.01310    0.51560    0.56089    1.000
    Zn3      Zn       0.61711    0.51816    0.36337    1.000
    Zn4      Zn       0.50954    0.97393    0.11689    1.000
    V7       V        0.00870    0.44010    0.41745    1.000
    V8       V        0.22092    0.58519    0.30724    1.000
    V9       V        0.02727    0.80332    0.25239    1.000
    V10      V        0.16718    0.89023    0.09950    1.000
    V11      V        0.15610    0.92813    0.93608    1.000
    C25      C        0.02070    0.46790    0.06850    1.000
    C26      C        0.00030    0.56740    0.04520    1.000
    C27      C        0.98180    0.59890    0.97600    1.000
    C28      C        0.60700    0.93680    0.45760    1.000
    C29      C        0.54590    0.03470    0.43350    1.000
    C30      C        0.44010    0.09840    0.47540    1.000
    C31      C        0.04880    0.43230    0.14120    1.000
    H25      H        0.11730    0.46690    0.15560    1.000
    H26      H        0.10020    0.36260    0.14470    1.000
    C32      C        0.67960    0.44100    0.22490    1.000
    H27      H        0.58110    0.42960    0.22980    1.000
    C33      C        0.87000    0.48510    0.24540    1.000
    H28      H        0.93650    0.51120    0.26530    1.000
    C34      C        0.99770    0.64270    0.09430    1.000
    H29      H        0.06830    0.68300    0.07480    1.000
    H30      H        0.03370    0.60810    0.13700    1.000
    C35      C        0.60750    0.74870    0.14060    1.000
    H31      H        0.50700    0.74640    0.15810    1.000
    C36      C        0.79760    0.80130    0.09770    1.000
    H32      H        0.86190    0.84220    0.07880    1.000
    C37      C        0.97270    0.70580    0.94880    1.000
    H33      H        0.03020    0.70820    0.90400    1.000
    H34      H        0.02190    0.73460    0.97860    1.000
    C38      C        0.57280    0.81120    0.95840    1.000
    H35      H        0.46930    0.81170    0.97180    1.000
    C39      C        0.76730    0.85900    0.91880    1.000
    H36      H        0.83400    0.89790    0.89910    1.000
    C40      C        0.71850    0.86910    0.41160    1.000
    H37      H        0.80950    0.83540    0.43470    1.000
    H38      H        0.75190    0.90730    0.37080    1.000
    C41      C        0.69480    0.69910    0.39860    1.000
    H39      H        0.78380    0.66310    0.41830    1.000
    C42      C        0.48960    0.74160    0.35050    1.000
    H40      H        0.40430    0.73730    0.33020    1.000
    C43      C        0.60130    0.07540    0.36220    1.000
    H41      H        0.71310    0.05140    0.35420    1.000
    H42      H        0.57720    0.14670    0.35930    1.000
    C44      C        0.59080    0.01030    0.25230    1.000
    H43      H        0.69680    0.99270    0.23910    1.000
    C45      C        0.35330    0.03320    0.25750    1.000
    H44      H        0.25550    0.03530    0.24570    1.000
    C46      C        0.36500    0.20140    0.44610    1.000
    H45      H        0.26920    0.22630    0.47410    1.000
    H46      H        0.33890    0.19930    0.40060    1.000
    N19      N        0.56040    0.39650    0.41920    1.000
    N20      N        0.58970    0.25050    0.47980    1.000
    N21      N        0.90290    0.44770    0.18750    1.000
    N22      N        0.77800    0.41950    0.17210    1.000
    N23      N        0.73030    0.48090    0.27170    1.000
    N24      N        0.84240    0.70610    0.10780    1.000
    N25      N        0.72240    0.66870    0.13610    1.000
    N26      N        0.64710    0.83290    0.11820    1.000
    N27      N        0.81210    0.76520    0.94370    1.000
    N28      N        0.68790    0.73280    0.97020    1.000
    N29      N        0.61690    0.88860    0.92590    1.000
    N30      N        0.64520    0.79610    0.39250    1.000
    N31      N        0.51460    0.82510    0.36010    1.000
    N32      N        0.59900    0.66150    0.37260    1.000
    N33      N        0.52830    0.04640    0.30960    1.000
    N34      N        0.37200    0.05950    0.31350    1.000
    N35      N        0.48370    0.00220    0.21610    1.000
    N36      N        0.46720    0.27000    0.44250    1.000
    C47      C        0.45300    0.35460    0.40860    1.000
    H47      H        0.37570    0.38300    0.37990    1.000
    C48      C        0.64030    0.33000    0.46370    1.000
    H48      H        0.72510    0.33940    0.48180    1.000
    O12      O        0.82320    0.48210    0.41270    1.000
    O13      O        0.06090    0.40440    0.49090    1.000
    O14      O        0.10570    0.52110    0.36740    1.000
    O15      O        0.15320    0.71550    0.30560    1.000
    O16      O        0.10940    0.80590    0.16390    1.000
    O17      O        0.32630    0.92000    0.10760    1.000
    O18      O        0.01580    0.99660    0.09870    1.000
    O19      O        0.16380    0.85260    0.01940    1.000
    O20      O        0.29600    0.98030    0.92050    1.000
    O21      O        0.05710    0.33350    0.39090    1.000
    O22      O        0.39880    0.55510    0.32660    1.000
    V12      V        0.98690    0.48440    0.43911    1.000
