data_functionalizedCrystal
_audit_creation_method	'EQeq! by Chris Wilmer'
_symmetry_space_group_name_H-M	'P1'
_symmetry_Int_Tables_number	1
_symmetry_cell_setting	triclinic
loop_
_symmetry_equiv_pos_as_xyz
  x,y,z
_cell_length_a	18.302
_cell_length_b	14.67
_cell_length_c	12.298
_cell_angle_alpha	90
_cell_angle_beta	113.62
_cell_angle_gamma	90
loop_
_atom_site_label
_atom_site_type_symbol
_atom_site_fract_x
_atom_site_fract_y
_atom_site_fract_z
_atom_site_charge
Mof_Ag	Ag	0.24547	0.19795	0.74462	0.754
Mof_Cr	Cr	0.28972	0.4951	0.47463	2.131
Mof_O 	O 	0.3513	0.4199	0.6156	-0.648
Mof_O 	O 	0.2057	0.4085	0.4602	-0.665
Mof_O 	O 	0.3383	0.3007	0.715	-0.409
Mof_O 	O 	0.1813	0.2874	0.5524	-0.406
Mof_C 	C 	0.314	0.3553	0.6346	0.311
Mof_C 	C 	0.2232	0.3478	0.5397	0.274
Mof_Ag	Ag	0.92248	0.81031	0.12852	0.564
Mof_O 	O 	0.781	0.5694	0.1606	-0.576
Mof_O 	O 	0.7431	0.5845	0.9343	-0.6
Mof_O 	O 	0.8533	0.696	0.1969	-0.387
Mof_O 	O 	0.8146	0.7103	0.9578	-0.406
Mof_C 	C 	0.8117	0.6379	0.131	0.26
Mof_C 	C 	0.7903	0.647	0.9967	0.26
Mof_O 	O 	0.8828	0.9286	0.9901	-0.622
Mof_O 	O 	0.8266	0.0774	0.8713	-0.653
Mof_O 	O 	0.9738	0.9124	0.9156	-0.368
Mof_O 	O 	0.9216	0.0802	0.7996	-0.398
Mof_C 	C 	0.9183	0.9535	0.9244	0.286
Mof_C 	C 	0.888	0.0442	0.8574	0.267
Mof_K 	K 	0.0006	0.7296	0.8678	-1.177
Mof_Ag	Ag	0.0735	0.6548	0.7944	0.63
Mof_Ag	Ag	0.0416	0.7606	0.9368	0.765
Mof_Ag	Ag	0.9486	0.7244	0.8819	0.561
Mof_Ag	Ag	0.75453	0.19795	0.75538	0.747
Mof_Cr	Cr	0.71028	0.4951	0.02537	2.131
Mof_O 	O 	0.6487	0.4199	0.8844	-0.647
Mof_O 	O 	0.7943	0.4085	0.0398	-0.663
Mof_O 	O 	0.6617	0.3007	0.785	-0.407
Mof_O 	O 	0.8187	0.2874	0.9476	-0.44
Mof_C 	C 	0.686	0.3553	0.8654	0.305
Mof_C 	C 	0.7768	0.3478	0.9603	0.287
Mof_Ag	Ag	0.07752	0.81031	0.37148	0.496
Mof_O 	O 	0.219	0.5694	0.3394	-0.581
Mof_O 	O 	0.2569	0.5845	0.5657	-0.599
Mof_O 	O 	0.1467	0.696	0.3031	-0.391
Mof_O 	O 	0.1854	0.7103	0.5422	-0.394
Mof_C 	C 	0.1883	0.6379	0.369	0.262
Mof_C 	C 	0.2097	0.647	0.5033	0.249
Mof_O 	O 	0.1172	0.9286	0.5099	-0.633
Mof_O 	O 	0.1734	0.0774	0.6287	-0.645
Mof_O 	O 	0.0262	0.9124	0.5844	-0.431
Mof_O 	O 	0.0784	0.0802	0.7004	-0.417
Mof_C 	C 	0.0817	0.9535	0.5756	0.291
Mof_C 	C 	0.112	0.0442	0.6426	0.262
Mof_K 	K 	0.9994	0.7296	0.6322	-1.564
Mof_Ag	Ag	0.9265	0.6548	0.7056	0.577
Mof_Ag	Ag	0.9584	0.7606	0.5632	1.334
Mof_Ag	Ag	0.0514	0.7244	0.6181	0.327
Mof_Ag	Ag	0.57752	0.68969	0.87148	0.538
Mof_O 	O 	0.719	0.9306	0.8394	-0.574
Mof_O 	O 	0.7569	0.9155	0.0657	-0.599
Mof_O 	O 	0.6467	0.804	0.8031	-0.39
Mof_O 	O 	0.6854	0.7897	0.0422	-0.401
Mof_C 	C 	0.6883	0.8621	0.869	0.269
Mof_C 	C 	0.7097	0.853	0.0033	0.244
Mof_O 	O 	0.6172	0.5714	0.0099	-0.635
Mof_O 	O 	0.6734	0.4226	0.1287	-0.65
Mof_O 	O 	0.5262	0.5876	0.0844	-0.41
Mof_O 	O 	0.5784	0.4198	0.2004	-0.415
Mof_C 	C 	0.5817	0.5465	0.0756	0.285
Mof_C 	C 	0.612	0.4558	0.1426	0.268
Mof_K 	K 	0.4994	0.7704	0.1322	-1.368
Mof_Ag	Ag	0.4265	0.8452	0.2056	0.602
Mof_Ag	Ag	0.4584	0.7394	0.0632	1.036
Mof_Ag	Ag	0.5514	0.7756	0.1181	0.444
Mof_Ag	Ag	0.25453	0.30205	0.25538	0.76
Mof_Cr	Cr	0.21028	0.0049	0.52537	2.126
Mof_O 	O 	0.1487	0.0801	0.3844	-0.636
Mof_O 	O 	0.2943	0.0915	0.5398	-0.664
Mof_O 	O 	0.1617	0.1993	0.285	-0.391
Mof_O 	O 	0.3187	0.2126	0.4476	-0.423
Mof_C 	C 	0.186	0.1447	0.3654	0.303
Mof_C 	C 	0.2768	0.1522	0.4603	0.285
Mof_Ag	Ag	0.42248	0.68969	0.62852	0.532
Mof_O 	O 	0.281	0.9306	0.6606	-0.574
Mof_O 	O 	0.2431	0.9155	0.4343	-0.596
Mof_O 	O 	0.3533	0.804	0.6969	-0.388
Mof_O 	O 	0.3146	0.7897	0.4578	-0.4
Mof_C 	C 	0.3117	0.8621	0.631	0.263
Mof_C 	C 	0.2903	0.853	0.4967	0.254
Mof_O 	O 	0.3828	0.5714	0.4901	-0.633
Mof_O 	O 	0.3266	0.4226	0.3713	-0.652
Mof_O 	O 	0.4738	0.5876	0.4156	-0.409
Mof_O 	O 	0.4216	0.4198	0.2996	-0.415
Mof_C 	C 	0.4183	0.5465	0.4244	0.284
Mof_C 	C 	0.388	0.4558	0.3574	0.268
Mof_K 	K 	0.5006	0.7704	0.3678	-1.369
Mof_Ag	Ag	0.5735	0.8452	0.2944	0.603
Mof_Ag	Ag	0.5416	0.7394	0.4368	1.04
Mof_Ag	Ag	0.4486	0.7756	0.3819	0.447
Mof_Ag	Ag	0.74547	0.30205	0.24462	0.743
Mof_Cr	Cr	0.78972	0.0049	0.97463	2.115
Mof_O 	O 	0.8513	0.0801	0.1156	-0.635
Mof_O 	O 	0.7057	0.0915	0.9602	-0.669
Mof_O 	O 	0.8383	0.1993	0.215	-0.419
Mof_O 	O 	0.6813	0.2126	0.0524	-0.421
Mof_C 	C 	0.814	0.1447	0.1346	0.307
Mof_C 	C 	0.7232	0.1522	0.0397	0.288
Mof_Ag	Ag	2.64664e-33	0.958	0.75	0.775
Mof_Ag	Ag	0.5	0.542	0.25	0.851
Mof_Ag	Ag	0.42248	0.31031	0.12852	0.537
Mof_O 	O 	0.281	0.0694	0.1606	-0.572
Mof_O 	O 	0.2431	0.0845	0.9343	-0.595
Mof_O 	O 	0.3533	0.196	0.1969	-0.39
Mof_O 	O 	0.3146	0.2103	0.9578	-0.4
Mof_C 	C 	0.3117	0.1379	0.131	0.269
Mof_C 	C 	0.2903	0.147	0.9967	0.246
Mof_O 	O 	0.3828	0.4286	0.9901	-0.634
Mof_O 	O 	0.3266	0.5774	0.8713	-0.651
Mof_O 	O 	0.4738	0.4124	0.9156	-0.41
Mof_O 	O 	0.4216	0.5802	0.7996	-0.415
Mof_C 	C 	0.4183	0.4535	0.9244	0.285
Mof_C 	C 	0.388	0.5442	0.8574	0.268
Mof_K 	K 	0.5006	0.2296	0.8678	-1.369
Mof_Ag	Ag	0.5735	0.1548	0.7944	0.602
Mof_Ag	Ag	0.5416	0.2606	0.9368	1.037
Mof_Ag	Ag	0.4486	0.2244	0.8819	0.445
Mof_Ag	Ag	0.74547	0.69795	0.74462	0.743
Mof_Cr	Cr	0.78972	0.9951	0.47463	2.133
Mof_O 	O 	0.8513	0.9199	0.6156	-0.642
Mof_O 	O 	0.7057	0.9085	0.4602	-0.665
Mof_O 	O 	0.8383	0.8007	0.715	-0.419
Mof_O 	O 	0.6813	0.7874	0.5524	-0.421
Mof_C 	C 	0.814	0.8553	0.6346	0.309
Mof_C 	C 	0.7232	0.8478	0.5397	0.28
Mof_Ag	Ag	0.57752	0.31031	0.37148	0.533
Mof_O 	O 	0.719	0.0694	0.3394	-0.577
Mof_O 	O 	0.7569	0.0845	0.5657	-0.6
Mof_O 	O 	0.6467	0.196	0.3031	-0.388
Mof_O 	O 	0.6854	0.2103	0.5422	-0.401
Mof_C 	C 	0.6883	0.1379	0.369	0.262
Mof_C 	C 	0.7097	0.147	0.5033	0.253
Mof_O 	O 	0.6172	0.4286	0.5099	-0.634
Mof_O 	O 	0.6734	0.5774	0.6287	-0.651
Mof_O 	O 	0.5262	0.4124	0.5844	-0.409
Mof_O 	O 	0.5784	0.5802	0.7004	-0.415
Mof_C 	C 	0.5817	0.4535	0.5756	0.285
Mof_C 	C 	0.612	0.5442	0.6426	0.268
Mof_K 	K 	0.4994	0.2296	0.6322	-1.368
Mof_Ag	Ag	0.4265	0.1548	0.7056	0.604
Mof_Ag	Ag	0.4584	0.2606	0.5632	1.04
Mof_Ag	Ag	0.5514	0.2244	0.6181	0.446
Mof_Ag	Ag	0.25453	0.69795	0.75538	0.76
Mof_Cr	Cr	0.21028	0.9951	0.02537	2.109
Mof_O 	O 	0.1487	0.9199	0.8844	-0.63
Mof_O 	O 	0.2943	0.9085	0.0398	-0.668
Mof_O 	O 	0.1617	0.8007	0.785	-0.39
Mof_O 	O 	0.3187	0.7874	0.9476	-0.422
Mof_C 	C 	0.186	0.8553	0.8654	0.3
Mof_C 	C 	0.2768	0.8478	0.9603	0.294
Mof_Ag	Ag	0.75453	0.80205	0.25538	0.747
Mof_Cr	Cr	0.71028	0.5049	0.52537	2.133
Mof_O 	O 	0.6487	0.5801	0.3844	-0.648
Mof_O 	O 	0.7943	0.5915	0.5398	-0.665
Mof_O 	O 	0.6617	0.6993	0.285	-0.407
Mof_O 	O 	0.8187	0.7126	0.4476	-0.438
Mof_C 	C 	0.686	0.6447	0.3654	0.306
Mof_C 	C 	0.7768	0.6522	0.4603	0.288
Mof_Ag	Ag	0.07752	0.18969	0.87148	0.483
Mof_O 	O 	0.219	0.4306	0.8394	-0.58
Mof_O 	O 	0.2569	0.4155	0.0657	-0.599
Mof_O 	O 	0.1467	0.304	0.8031	-0.39
Mof_O 	O 	0.1854	0.2897	0.0422	-0.392
Mof_C 	C 	0.1883	0.3621	0.869	0.258
Mof_C 	C 	0.2097	0.353	0.0033	0.253
Mof_O 	O 	0.1172	0.0714	0.0099	-0.625
Mof_O 	O 	0.1734	0.9226	0.1287	-0.643
Mof_O 	O 	0.0262	0.0876	0.0844	-0.429
Mof_O 	O 	0.0784	0.9198	0.2004	-0.416
Mof_C 	C 	0.0817	0.0465	0.0756	0.292
Mof_C 	C 	0.112	0.9558	0.1426	0.259
Mof_K 	K 	0.9994	0.2704	0.1322	-1.562
Mof_Ag	Ag	0.9265	0.3452	0.2056	0.575
Mof_Ag	Ag	0.9584	0.2394	0.0632	1.338
Mof_Ag	Ag	0.0514	0.2756	0.1181	0.327
Mof_Ag	Ag	0.24547	0.80205	0.24462	0.753
Mof_Cr	Cr	0.28972	0.5049	0.97463	2.129
Mof_O 	O 	0.3513	0.5801	0.1156	-0.649
Mof_O 	O 	0.2057	0.5915	0.9602	-0.664
Mof_O 	O 	0.3383	0.6993	0.215	-0.409
Mof_O 	O 	0.1813	0.7126	0.0524	-0.408
Mof_C 	C 	0.314	0.6447	0.1346	0.31
Mof_C 	C 	0.2232	0.6522	0.0397	0.273
Mof_Ag	Ag	0.92248	0.18969	0.62852	0.577
Mof_O 	O 	0.781	0.4306	0.6606	-0.577
Mof_O 	O 	0.7431	0.4155	0.4343	-0.6
Mof_O 	O 	0.8533	0.304	0.6969	-0.388
Mof_O 	O 	0.8146	0.2897	0.4578	-0.408
Mof_C 	C 	0.8117	0.3621	0.631	0.264
Mof_C 	C 	0.7903	0.353	0.4967	0.256
Mof_O 	O 	0.8828	0.0714	0.4901	-0.629
Mof_O 	O 	0.8266	0.9226	0.3713	-0.655
Mof_O 	O 	0.9738	0.0876	0.4156	-0.368
Mof_O 	O 	0.9216	0.9198	0.2996	-0.398
Mof_C 	C 	0.9183	0.0465	0.4244	0.285
Mof_C 	C 	0.888	0.9558	0.3574	0.27
Mof_K 	K 	0.0006	0.2704	0.3678	-1.178
Mof_Ag	Ag	0.0735	0.3452	0.2944	0.633
Mof_Ag	Ag	0.0416	0.2394	0.4368	0.757
Mof_Ag	Ag	0.9486	0.2756	0.3819	0.566
Mof_Ag	Ag	0.5	0.458	0.75	0.851
Mof_Ag	Ag	9.39476e-18	0.042	0.25	0.772
_end
