# CIF file generated by openbabel 3.1.0, see https://openbabel.org
data_I
_chemical_name_common 'image0'
_cell_length_a 11.0437
_cell_length_b 11.0107
_cell_length_c 11.0222
_cell_angle_alpha 83.364
_cell_angle_beta 85.871
_cell_angle_gamma 77.346
_space_group_name_H-M_alt 'P 1'
_space_group_name_Hall 'P 1'
loop_
    _symmetry_equiv_pos_as_xyz
    x,y,z
loop_
    _atom_site_label
    _atom_site_type_symbol
    _atom_site_fract_x
    _atom_site_fract_y
    _atom_site_fract_z
    _atom_site_occupancy
    Co1      Co       0.08690    0.90366    0.25111    1.000
    Co2      Co       0.97180    0.85856    0.00277    1.000
    Co3      Co       0.85370    0.99996    0.48949    1.000
    O1       O        0.09250    0.94120    0.06590    1.000
    O2       O        0.04800    0.90350    0.43180    1.000
    O3       O        0.33000    0.93690    0.43780    1.000
    O4       O        0.27900    0.86410    0.26920    1.000
    O5       O        0.03860    0.67430    0.07560    1.000
    O6       O        0.10310    0.71110    0.25190    1.000
    N1       N        0.84250    0.89510    0.14280    1.000
    N2       N        0.89000    0.91520    0.24440    1.000
    N3       N        0.80470    0.92520    0.33540    1.000
    N4       N        0.07430    0.18620    0.16150    1.000
    N5       N        0.09520    0.09480    0.25420    1.000
    N6       N        0.11570    0.13630    0.35670    1.000
    C1       C        0.69570    0.91020    0.29420    1.000
    C2       C        0.71930    0.89240    0.16840    1.000
    C3       C        0.50200    0.88060    0.15540    1.000
    H1       H        0.43780    0.87210    0.10940    1.000
    C4       C        0.62080    0.87860    0.10040    1.000
    H2       H        0.63480    0.86810    0.01770    1.000
    C5       C        0.48100    0.89560    0.28160    1.000
    C6       C        0.57770    0.91220    0.34930    1.000
    H3       H        0.56310    0.92470    0.43160    1.000
    C7       C        0.35700    0.89900    0.33210    1.000
    C8       C        0.07900    0.29570    0.20900    1.000
    C9       C        0.10300    0.26430    0.33140    1.000
    C10      C        0.11300    0.35390    0.41020    1.000
    H4       H        0.12120    0.33360    0.49380    1.000
    C11      C        0.10800    0.47320    0.35490    1.000
    H5       H        0.11950    0.53480    0.40130    1.000
    C12      C        0.08600    0.50350    0.23440    1.000
    C13      C        0.07000    0.41920    0.15740    1.000
    H6       H        0.05380    0.44310    0.07550    1.000
    C14      C        0.07400    0.64160    0.18310    1.000
    H7       H        0.18100    0.91900    0.04300    1.000
    H8       H        0.96800    0.88300    0.44800    1.000
    Co4      Co       0.91310    0.09634    0.74889    1.000
    Co5      Co       0.02820    0.14144    0.99723    1.000
    Co6      Co       0.14630    0.00004    0.51051    1.000
    O7       O        0.90750    0.05880    0.93410    1.000
    O8       O        0.95200    0.09650    0.56820    1.000
    O9       O        0.67000    0.06310    0.56220    1.000
    O10      O        0.72100    0.13590    0.73080    1.000
    O11      O        0.96140    0.32570    0.92440    1.000
    O12      O        0.89690    0.28890    0.74810    1.000
    N7       N        0.15750    0.10490    0.85720    1.000
    N8       N        0.11000    0.08480    0.75560    1.000
    N9       N        0.19530    0.07480    0.66460    1.000
    N10      N        0.92570    0.81380    0.83850    1.000
    N11      N        0.90480    0.90520    0.74580    1.000
    N12      N        0.88430    0.86370    0.64330    1.000
    C15      C        0.30430    0.08980    0.70580    1.000
    C16      C        0.28070    0.10760    0.83160    1.000
    C17      C        0.49800    0.11940    0.84460    1.000
    H9       H        0.56220    0.12790    0.89060    1.000
    C18      C        0.37920    0.12140    0.89960    1.000
    H10      H        0.36520    0.13190    0.98230    1.000
    C19      C        0.51900    0.10440    0.71840    1.000
    C20      C        0.42230    0.08780    0.65070    1.000
    H11      H        0.43690    0.07530    0.56840    1.000
    C21      C        0.64300    0.10100    0.66790    1.000
    C22      C        0.92100    0.70430    0.79100    1.000
    C23      C        0.89700    0.73570    0.66860    1.000
    C24      C        0.88700    0.64610    0.58980    1.000
    H12      H        0.87880    0.66640    0.50620    1.000
    C25      C        0.89200    0.52680    0.64510    1.000
    H13      H        0.88050    0.46520    0.59870    1.000
    C26      C        0.91400    0.49650    0.76560    1.000
    C27      C        0.93000    0.58080    0.84260    1.000
    H14      H        0.94620    0.55690    0.92450    1.000
    C28      C        0.92600    0.35840    0.81690    1.000
    H15      H        0.81900    0.08100    0.95700    1.000
    H16      H        0.03200    0.11700    0.55200    1.000
