data_functionalizedCrystal
_audit_creation_method	'EQeq! by Chris Wilmer'
_symmetry_space_group_name_H-M	'P1'
_symmetry_Int_Tables_number	1
_symmetry_cell_setting	triclinic
loop_
_symmetry_equiv_pos_as_xyz
  x,y,z
_cell_length_a	11.3574
_cell_length_b	11.3574
_cell_length_c	16.028
_cell_angle_alpha	85.2079
_cell_angle_beta	85.2079
_cell_angle_gamma	61.0372
loop_
_atom_site_label
_atom_site_type_symbol
_atom_site_fract_x
_atom_site_fract_y
_atom_site_fract_z
_atom_site_charge
Mof_Sr	Sr	0.05785	0.66077	0.98688	1.334
Mof_Sr	Sr	0.33923	0.94215	0.51312	1.344
Mof_Sr	Sr	0.94215	0.33923	0.01312	1.334
Mof_Sr	Sr	0.66077	0.05785	0.48688	1.344
Mof_Ca	Ca	0.88044	0.31224	0.74827	1.318
Mof_Ca	Ca	0.68776	0.11956	0.75173	1.315
Mof_Ca	Ca	0.11956	0.68776	0.25173	1.318
Mof_Ca	Ca	0.31224	0.88044	0.24827	1.315
Mof_H 	H 	0.7619	0.6369	0.5543	0.036
Mof_H 	H 	0.7532	0.6546	0.6607	0.041
Mof_H 	H 	0.9751	0.5979	0.6086	0.03
Mof_H 	H 	0.9839	0.4619	0.5625	0.03
Mof_H 	H 	0.7018	0.463	0.5181	0.136
Mof_H 	H 	0.847	0.3758	0.5211	0.094
Mof_H 	H 	0.5601	0.5001	0.6593	0.058
Mof_H 	H 	0.5473	0.6465	0.6339	0.062
Mof_H 	H 	0.2017	0.3887	0.6528	0.101
Mof_H 	H 	0.1816	0.293	0.7309	0.066
Mof_H 	H 	0.0692	0.561	0.7518	0.08
Mof_H 	H 	0.9017	0.6005	0.7796	0.065
Mof_H 	H 	0.3631	0.2381	0.9457	0.035
Mof_H 	H 	0.3454	0.2468	0.8393	0.041
Mof_H 	H 	0.4021	0.0249	0.8914	0.029
Mof_H 	H 	0.5381	0.0161	0.9375	0.03
Mof_H 	H 	0.537	0.2982	0.9819	0.136
Mof_H 	H 	0.6242	0.153	0.9789	0.094
Mof_H 	H 	0.4999	0.4399	0.8407	0.058
Mof_H 	H 	0.3535	0.4527	0.8661	0.062
Mof_H 	H 	0.6113	0.7983	0.8472	0.102
Mof_H 	H 	0.707	0.8184	0.7691	0.066
Mof_H 	H 	0.439	0.9308	0.7482	0.079
Mof_H 	H 	0.3995	0.0983	0.7204	0.06
Mof_H 	H 	0.2381	0.3631	0.4457	0.036
Mof_H 	H 	0.2468	0.3454	0.3393	0.041
Mof_H 	H 	0.0249	0.4021	0.3914	0.03
Mof_H 	H 	0.0161	0.5381	0.4375	0.03
Mof_H 	H 	0.2982	0.537	0.4819	0.136
Mof_H 	H 	0.153	0.6242	0.4789	0.094
Mof_H 	H 	0.4399	0.4999	0.3407	0.058
Mof_H 	H 	0.4527	0.3535	0.3661	0.062
Mof_H 	H 	0.7983	0.6113	0.3472	0.101
Mof_H 	H 	0.8184	0.707	0.2691	0.066
Mof_H 	H 	0.9308	0.439	0.2482	0.08
Mof_H 	H 	0.0983	0.3995	0.2204	0.065
Mof_H 	H 	0.6369	0.7619	0.0543	0.035
Mof_H 	H 	0.6546	0.7532	0.1607	0.041
Mof_H 	H 	0.5979	0.9751	0.1086	0.029
Mof_H 	H 	0.4619	0.9839	0.0625	0.03
Mof_H 	H 	0.463	0.7018	0.0181	0.136
Mof_H 	H 	0.3758	0.847	0.0211	0.094
Mof_H 	H 	0.5001	0.5601	0.1593	0.058
Mof_H 	H 	0.6465	0.5473	0.1339	0.062
Mof_H 	H 	0.3887	0.2017	0.1528	0.102
Mof_H 	H 	0.293	0.1816	0.2309	0.066
Mof_H 	H 	0.561	0.0692	0.2518	0.079
Mof_H 	H 	0.6005	0.9017	0.2796	0.06
Mof_C 	C 	0.7954	0.592	0.6188	-0.071
Mof_C 	C 	0.9443	0.5321	0.6186	-0.045
Mof_C 	C 	0.7487	0.2905	0.5829	0.48
Mof_C 	C 	0.7591	0.4181	0.5598	-0.333
Mof_C 	C 	0.6098	0.5668	0.6629	-0.2
Mof_C 	C 	0.5899	0.5993	0.7544	0.352
Mof_C 	C 	0.1423	0.3435	0.6747	-0.238
Mof_C 	C 	0.1435	0.2393	0.6204	0.387
Mof_C 	C 	0.0004	0.5224	0.7655	-0.248
Mof_C 	C 	0.021	0.4414	0.8483	0.44
Mof_C 	C 	0.408	0.2046	0.8812	-0.07
Mof_C 	C 	0.4679	0.0557	0.8814	-0.048
Mof_C 	C 	0.7095	0.2513	0.9171	0.479
Mof_C 	C 	0.5819	0.2409	0.9402	-0.333
Mof_C 	C 	0.4332	0.3902	0.8371	-0.2
Mof_C 	C 	0.4007	0.4101	0.7456	0.352
Mof_C 	C 	0.6565	0.8577	0.8253	-0.237
Mof_C 	C 	0.7607	0.8565	0.8796	0.386
Mof_C 	C 	0.4776	0.9996	0.7345	-0.243
Mof_C 	C 	0.5586	0.979	0.6517	0.447
Mof_C 	C 	0.2046	0.408	0.3812	-0.071
Mof_C 	C 	0.0557	0.4679	0.3814	-0.045
Mof_C 	C 	0.2513	0.7095	0.4171	0.48
Mof_C 	C 	0.2409	0.5819	0.4402	-0.333
Mof_C 	C 	0.3902	0.4332	0.3371	-0.2
Mof_C 	C 	0.4101	0.4007	0.2456	0.352
Mof_C 	C 	0.8577	0.6565	0.3253	-0.238
Mof_C 	C 	0.8565	0.7607	0.3796	0.387
Mof_C 	C 	0.9996	0.4776	0.2345	-0.248
Mof_C 	C 	0.979	0.5586	0.1517	0.44
Mof_C 	C 	0.592	0.7954	0.1188	-0.07
Mof_C 	C 	0.5321	0.9443	0.1186	-0.048
Mof_C 	C 	0.2905	0.7487	0.0829	0.479
Mof_C 	C 	0.4181	0.7591	0.0598	-0.333
Mof_C 	C 	0.5668	0.6098	0.1629	-0.2
Mof_C 	C 	0.5993	0.5899	0.2544	0.352
Mof_C 	C 	0.3435	0.1423	0.1747	-0.237
Mof_C 	C 	0.2393	0.1435	0.1204	0.386
Mof_C 	C 	0.5224	0.0004	0.2655	-0.243
Mof_C 	C 	0.4414	0.021	0.3483	0.447
Mof_N 	N 	0.746	0.4922	0.6333	-0.09
Mof_N 	N 	0.0033	0.4461	0.6953	-0.11
Mof_N 	N 	0.5078	0.254	0.8667	-0.09
Mof_N 	N 	0.5539	0.9967	0.8047	-0.108
Mof_N 	N 	0.254	0.5078	0.3667	-0.09
Mof_N 	N 	0.9967	0.5539	0.3047	-0.11
Mof_N 	N 	0.4922	0.746	0.1333	-0.09
Mof_N 	N 	0.4461	0.0033	0.1953	-0.108
Mof_O 	O 	0.7643	0.2461	0.6585	-0.585
Mof_O 	O 	0.7273	0.2371	0.5254	-0.495
Mof_O 	O 	0.6866	0.5268	0.7995	-0.397
Mof_O 	O 	0.4807	0.6973	0.7766	-0.314
Mof_O 	O 	0.0423	0.2219	0.6262	-0.458
Mof_O 	O 	0.247	0.1746	0.5745	-0.441
Mof_O 	O 	0.9926	0.348	0.8542	-0.576
Mof_O 	O 	0.0597	0.4751	0.9079	-0.515
Mof_O 	O 	0.7539	0.2357	0.8415	-0.585
Mof_O 	O 	0.7629	0.2727	0.9746	-0.492
Mof_O 	O 	0.4732	0.3134	0.7005	-0.398
Mof_O 	O 	0.3027	0.5193	0.7234	-0.315
Mof_O 	O 	0.7781	0.9577	0.8738	-0.454
Mof_O 	O 	0.8254	0.753	0.9255	-0.436
Mof_O 	O 	0.652	0.0074	0.6458	-0.584
Mof_O 	O 	0.5249	0.9403	0.5921	-0.516
Mof_O 	O 	0.2357	0.7539	0.3415	-0.585
Mof_O 	O 	0.2727	0.7629	0.4746	-0.495
Mof_O 	O 	0.3134	0.4732	0.2005	-0.397
Mof_O 	O 	0.5193	0.3027	0.2234	-0.314
Mof_O 	O 	0.9577	0.7781	0.3738	-0.458
Mof_O 	O 	0.753	0.8254	0.4255	-0.441
Mof_O 	O 	0.0074	0.652	0.1458	-0.576
Mof_O 	O 	0.9403	0.5249	0.0921	-0.515
Mof_O 	O 	0.2461	0.7643	0.1585	-0.585
Mof_O 	O 	0.2371	0.7273	0.0254	-0.492
Mof_O 	O 	0.5268	0.6866	0.2995	-0.398
Mof_O 	O 	0.6973	0.4807	0.2766	-0.315
Mof_O 	O 	0.2219	0.0423	0.1262	-0.454
Mof_O 	O 	0.1746	0.247	0.0745	-0.436
Mof_O 	O 	0.348	0.9926	0.3542	-0.584
Mof_O 	O 	0.4751	0.0597	0.4079	-0.516
_end
