# CIF file generated by openbabel 3.1.0, see https://openbabel.org
data_I
_chemical_name_common 'image0'
_cell_length_a 17.493
_cell_length_b 15.092
_cell_length_c 23.745
_cell_angle_alpha 90
_cell_angle_beta 97.06
_cell_angle_gamma 90
_space_group_name_H-M_alt 'P 1'
_space_group_name_Hall 'P 1'
loop_
    _symmetry_equiv_pos_as_xyz
    x,y,z
loop_
    _atom_site_label
    _atom_site_type_symbol
    _atom_site_fract_x
    _atom_site_fract_y
    _atom_site_fract_z
    _atom_site_occupancy
    Zn1      Zn       0.16625    0.86669    0.48219    1.000
    Zn2      Zn       0.31019    0.93353    0.41030    1.000
    O1       O        0.19170    0.76970    0.43700    1.000
    O2       O        0.30050    0.80520    0.40310    1.000
    O3       O        0.24320    0.59940    0.04255    1.000
    O4       O        0.34480    0.57150    0.99717    1.000
    O5       O        0.59920    0.45890    0.19850    1.000
    O6       O        0.58620    0.46980    0.10404    1.000
    O7       O        0.92270    0.28900    0.47430    1.000
    O8       O        0.92980    0.14410    0.48730    1.000
    O9       O        0.24970    0.04190    0.41880    1.000
    O10      O        0.14480    0.97360    0.43700    1.000
    O11      O        0.33150    0.54850    0.24357    1.000
    O12      O        0.18170    0.35660    0.40190    1.000
    C1       C        0.24820    0.75140    0.41220    1.000
    C2       C        0.25410    0.65760    0.39250    1.000
    C3       C        0.30990    0.63420    0.35810    1.000
    H1       H        0.34410    0.67670    0.34780    1.000
    C4       C        0.31450    0.54840    0.33940    1.000
    C5       C        0.26340    0.48500    0.35560    1.000
    H2       H        0.26600    0.42690    0.34280    1.000
    C6       C        0.20910    0.50830    0.39060    1.000
    C7       C        0.20520    0.59380    0.40930    1.000
    H3       H        0.16930    0.60890    0.43350    1.000
    C8       C        0.36940    0.52530    0.29680    1.000
    H4       H        0.41710    0.55830    0.30480    1.000
    H5       H        0.38110    0.46250    0.29820    1.000
    C9       C        0.31340    0.57800    0.04050    1.000
    C10      C        0.56200    0.47520    0.15150    1.000
    C11      C        0.36080    0.55630    0.09530    1.000
    C12      C        0.43670    0.52700    0.09830    1.000
    H6       H        0.45940    0.52220    0.06500    1.000
    C13      C        0.47820    0.50520    0.14820    1.000
    C14      C        0.44560    0.51160    0.19960    1.000
    H7       H        0.47430    0.49700    0.23400    1.000
    C15      C        0.37100    0.53970    0.19790    1.000
    C16      C        0.32620    0.56140    0.14600    1.000
    H8       H        0.27510    0.57870    0.14530    1.000
    C17      C        0.15080    0.44120    0.40840    1.000
    H9       H        0.14270    0.45090    0.44760    1.000
    H10      H        0.10180    0.44730    0.38470    1.000
    C18      C        0.18340    0.04120    0.42940    1.000
    C19      C        0.95480    0.21980    0.47220    1.000
    C20      C        0.14050    0.12880    0.42990    1.000
    C21      C        0.06940    0.13320    0.44860    1.000
    H11      H        0.04480    0.08160    0.45800    1.000
    C22      C        0.03470    0.21340    0.45330    1.000
    C23      C        0.06970    0.29070    0.43710    1.000
    H12      H        0.04500    0.34500    0.43900    1.000
    C24      C        0.14100    0.28650    0.41830    1.000
    C25      C        0.17530    0.20550    0.41370    1.000
    H13      H        0.22250    0.20200    0.39960    1.000
    Zn3      Zn       0.83375    0.36669    0.01781    1.000
    Zn4      Zn       0.68981    0.43353    0.08970    1.000
    O13      O        0.80830    0.26970    0.06300    1.000
    O14      O        0.69950    0.30520    0.09690    1.000
    O15      O        0.75680    0.09940    0.45745    1.000
    O16      O        0.65520    0.07150    0.50283    1.000
    O17      O        0.40080    0.95890    0.30150    1.000
    O18      O        0.41380    0.96980    0.39596    1.000
    O19      O        0.07730    0.78900    0.02570    1.000
    O20      O        0.07020    0.64410    0.01270    1.000
    O21      O        0.75030    0.54190    0.08120    1.000
    O22      O        0.85520    0.47360    0.06300    1.000
    O23      O        0.66850    0.04850    0.25643    1.000
    O24      O        0.81830    0.85660    0.09810    1.000
    C26      C        0.75180    0.25140    0.08780    1.000
    C27      C        0.74590    0.15760    0.10750    1.000
    C28      C        0.69010    0.13420    0.14190    1.000
    H14      H        0.65590    0.17670    0.15220    1.000
    C29      C        0.68550    0.04840    0.16060    1.000
    C30      C        0.73660    0.98500    0.14440    1.000
    H15      H        0.73400    0.92690    0.15720    1.000
    C31      C        0.79090    0.00830    0.10940    1.000
    C32      C        0.79480    0.09380    0.09070    1.000
    H16      H        0.83070    0.10890    0.06650    1.000
    C33      C        0.63060    0.02530    0.20320    1.000
    H17      H        0.58290    0.05830    0.19520    1.000
    H18      H        0.61890    0.96250    0.20180    1.000
    C34      C        0.68660    0.07800    0.45950    1.000
    C35      C        0.43800    0.97520    0.34850    1.000
    C36      C        0.63920    0.05630    0.40470    1.000
    C37      C        0.56330    0.02700    0.40170    1.000
    H19      H        0.54060    0.02220    0.43500    1.000
    C38      C        0.52180    0.00520    0.35180    1.000
    C39      C        0.55440    0.01160    0.30040    1.000
    H20      H        0.52570    0.99700    0.26600    1.000
    C40      C        0.62900    0.03970    0.30210    1.000
    C41      C        0.67380    0.06140    0.35400    1.000
    H21      H        0.72490    0.07870    0.35470    1.000
    C42      C        0.84920    0.94120    0.09160    1.000
    H22      H        0.85730    0.95090    0.05240    1.000
    H23      H        0.89820    0.94730    0.11530    1.000
    C43      C        0.81660    0.54120    0.07060    1.000
    C44      C        0.04520    0.71980    0.02780    1.000
    C45      C        0.85950    0.62880    0.07010    1.000
    C46      C        0.93060    0.63320    0.05140    1.000
    H24      H        0.95520    0.58160    0.04200    1.000
    C47      C        0.96530    0.71340    0.04670    1.000
    C48      C        0.93030    0.79070    0.06290    1.000
    H25      H        0.95500    0.84500    0.06100    1.000
    C49      C        0.85900    0.78650    0.08170    1.000
    C50      C        0.82470    0.70550    0.08630    1.000
    H26      H        0.77750    0.70200    0.10040    1.000
    Zn5      Zn       0.83375    0.13331    0.51781    1.000
    Zn6      Zn       0.68981    0.06647    0.58970    1.000
    O25      O        0.80830    0.23030    0.56300    1.000
    O26      O        0.69950    0.19480    0.59690    1.000
    O27      O        0.75680    0.40060    0.95745    1.000
    O28      O        0.65520    0.42850    0.00283    1.000
    O29      O        0.40080    0.54110    0.80150    1.000
    O30      O        0.41380    0.53020    0.89596    1.000
    O31      O        0.07730    0.71100    0.52570    1.000
    O32      O        0.07020    0.85590    0.51270    1.000
    O33      O        0.75030    0.95810    0.58120    1.000
    O34      O        0.85520    0.02640    0.56300    1.000
    O35      O        0.66850    0.45150    0.75643    1.000
    O36      O        0.81830    0.64340    0.59810    1.000
    C51      C        0.75180    0.24860    0.58780    1.000
    C52      C        0.74590    0.34240    0.60750    1.000
    C53      C        0.69010    0.36580    0.64190    1.000
    H27      H        0.65590    0.32330    0.65220    1.000
    C54      C        0.68550    0.45160    0.66060    1.000
    C55      C        0.73660    0.51500    0.64440    1.000
    H28      H        0.73400    0.57310    0.65720    1.000
    C56      C        0.79090    0.49170    0.60940    1.000
    C57      C        0.79480    0.40620    0.59070    1.000
    H29      H        0.83070    0.39110    0.56650    1.000
    C58      C        0.63060    0.47470    0.70320    1.000
    H30      H        0.58290    0.44170    0.69520    1.000
    H31      H        0.61890    0.53750    0.70180    1.000
    C59      C        0.68660    0.42200    0.95950    1.000
    C60      C        0.43800    0.52480    0.84850    1.000
    C61      C        0.63920    0.44370    0.90470    1.000
    C62      C        0.56330    0.47300    0.90170    1.000
    H32      H        0.54060    0.47780    0.93500    1.000
    C63      C        0.52180    0.49480    0.85180    1.000
    C64      C        0.55440    0.48840    0.80040    1.000
    H33      H        0.52570    0.50300    0.76600    1.000
    C65      C        0.62900    0.46030    0.80210    1.000
    C66      C        0.67380    0.43860    0.85400    1.000
    H34      H        0.72490    0.42130    0.85470    1.000
    C67      C        0.84920    0.55880    0.59160    1.000
    H35      H        0.85730    0.54910    0.55240    1.000
    H36      H        0.89820    0.55270    0.61530    1.000
    C68      C        0.81660    0.95880    0.57060    1.000
    C69      C        0.04520    0.78020    0.52780    1.000
    C70      C        0.85950    0.87120    0.57010    1.000
    C71      C        0.93060    0.86680    0.55140    1.000
    H37      H        0.95520    0.91840    0.54200    1.000
    C72      C        0.96530    0.78660    0.54670    1.000
    C73      C        0.93030    0.70930    0.56290    1.000
    H38      H        0.95500    0.65500    0.56100    1.000
    C74      C        0.85900    0.71350    0.58170    1.000
    C75      C        0.82470    0.79450    0.58630    1.000
    H39      H        0.77750    0.79800    0.60040    1.000
    Zn7      Zn       0.16625    0.63331    0.98219    1.000
    Zn8      Zn       0.31019    0.56647    0.91030    1.000
    O37      O        0.19170    0.73030    0.93700    1.000
    O38      O        0.30050    0.69480    0.90310    1.000
    O39      O        0.24320    0.90060    0.54255    1.000
    O40      O        0.34480    0.92850    0.49717    1.000
    O41      O        0.59920    0.04110    0.69850    1.000
    O42      O        0.58620    0.03020    0.60404    1.000
    O43      O        0.92270    0.21100    0.97430    1.000
    O44      O        0.92980    0.35590    0.98730    1.000
    O45      O        0.24970    0.45810    0.91880    1.000
    O46      O        0.14480    0.52640    0.93700    1.000
    O47      O        0.33150    0.95150    0.74357    1.000
    O48      O        0.18170    0.14340    0.90190    1.000
    C76      C        0.24820    0.74860    0.91220    1.000
    C77      C        0.25410    0.84240    0.89250    1.000
    C78      C        0.30990    0.86580    0.85810    1.000
    H40      H        0.34410    0.82330    0.84780    1.000
    C79      C        0.31450    0.95160    0.83940    1.000
    C80      C        0.26340    0.01500    0.85560    1.000
    H41      H        0.26600    0.07310    0.84280    1.000
    C81      C        0.20910    0.99170    0.89060    1.000
    C82      C        0.20520    0.90620    0.90930    1.000
    H42      H        0.16930    0.89110    0.93350    1.000
    C83      C        0.36940    0.97470    0.79680    1.000
    H43      H        0.41710    0.94170    0.80480    1.000
    H44      H        0.38110    0.03750    0.79820    1.000
    C84      C        0.31340    0.92200    0.54050    1.000
    C85      C        0.56200    0.02480    0.65150    1.000
    C86      C        0.36080    0.94370    0.59530    1.000
    C87      C        0.43670    0.97300    0.59830    1.000
    H45      H        0.45940    0.97780    0.56500    1.000
    C88      C        0.47820    0.99480    0.64820    1.000
    C89      C        0.44560    0.98840    0.69960    1.000
    H46      H        0.47430    0.00300    0.73400    1.000
    C90      C        0.37100    0.96030    0.69790    1.000
    C91      C        0.32620    0.93860    0.64600    1.000
    H47      H        0.27510    0.92130    0.64530    1.000
    C92      C        0.15080    0.05880    0.90840    1.000
    H48      H        0.14270    0.04910    0.94760    1.000
    H49      H        0.10180    0.05270    0.88470    1.000
    C93      C        0.18340    0.45880    0.92940    1.000
    C94      C        0.95480    0.28020    0.97220    1.000
    C95      C        0.14050    0.37120    0.92990    1.000
    C96      C        0.06940    0.36680    0.94860    1.000
    H50      H        0.04480    0.41840    0.95800    1.000
    C97      C        0.03470    0.28660    0.95330    1.000
    C98      C        0.06970    0.20930    0.93710    1.000
    H51      H        0.04500    0.15500    0.93900    1.000
    C99      C        0.14100    0.21350    0.91830    1.000
    C100     C        0.17530    0.29450    0.91370    1.000
    H52      H        0.22250    0.29800    0.89960    1.000
