data_functionalizedCrystal
_audit_creation_method	'EQeq! by Chris Wilmer'
_symmetry_space_group_name_H-M	'P1'
_symmetry_Int_Tables_number	1
_symmetry_cell_setting	triclinic
loop_
_symmetry_equiv_pos_as_xyz
  x,y,z
_cell_length_a	12.238
_cell_length_b	12.238
_cell_length_c	12.398
_cell_angle_alpha	90
_cell_angle_beta	90
_cell_angle_gamma	90
loop_
_atom_site_label
_atom_site_type_symbol
_atom_site_fract_x
_atom_site_fract_y
_atom_site_fract_z
_atom_site_charge
Mof_C 	C 	0.7667	0.8654	0.3178	0.035
Mof_H 	H 	0.7241	0.8919	0.3741	0.069
Mof_C 	C 	0.7235	0.8595	0.2204	0.026
Mof_H 	H 	0.6504	0.8769	0.2095	-0.008
Mof_C 	C 	0.789	0.8267	0.1337	-0.099
Mof_C 	C 	0.8956	0.7986	0.1535	-0.085
Mof_H 	H 	0.9407	0.7769	0.0971	0.123
Mof_C 	C 	0.9362	0.8028	0.2591	0.299
Mof_C 	C 	0.0473	0.7623	0.2842	-0.198
Mof_C 	C 	0.0764	0.6589	0.2622	0.156
Mof_H 	H 	0.0247	0.6114	0.2336	-0.117
Mof_C 	C 	0.1796	0.6218	0.2807	-0.224
Mof_C 	C 	0.2547	0.6913	0.3246	0.068
Mof_H 	H 	0.3255	0.6678	0.3389	-0.005
Mof_C 	C 	0.2236	0.7961	0.3472	-0.044
Mof_H 	H 	0.2746	0.8433	0.3775	0.092
Mof_N 	N 	0.8703	0.8344	0.3387	-0.08
Mof_N 	N 	0.1227	0.8335	0.3276	-0.007
Mof_O 	O 	0.9071	0.8418	0.4395	-0.155
Mof_O 	O 	0.0981	0.9317	0.3441	-0.21
Mof_O 	O 	0.6675	0.914	0.9897	-0.589
Mof_O 	O 	0.6661	0.7172	0.0066	-0.984
Mof_O 	O 	0.8241	0.807	0.931	-0.31
Mof_O 	O 	0.1488	0.4574	0.1511	-0.778
Mof_O 	O 	0.1821	0.4169	0.3373	-0.321
Mof_O 	O 	0.3274	0.4848	0.2197	-0.508
Mof_Na	Na	0.7148	0.529	0.9996	2.587
Mof_S 	S 	0.73205	0.81523	0.0011	0.766
Mof_S 	S 	0.214	0.4829	0.2462	0.637
Mof_O 	O 	0.5826	0.1266	0.1116	-0.717
Mof_C 	C 	0.2333	0.1346	0.3178	-0.117
Mof_H 	H 	0.2759	0.1081	0.3741	0.052
Mof_C 	C 	0.2765	0.1405	0.2204	0.14
Mof_H 	H 	0.3496	0.1231	0.2095	-0.099
Mof_C 	C 	0.211	0.1733	0.1337	-0.3
Mof_C 	C 	0.1044	0.2014	0.1535	0.157
Mof_H 	H 	0.0593	0.2231	0.0971	-0.09
Mof_C 	C 	0.0638	0.1972	0.2591	-0.219
Mof_C 	C 	0.9527	0.2377	0.2842	0.301
Mof_C 	C 	0.9236	0.3411	0.2622	-0.144
Mof_H 	H 	0.9753	0.3886	0.2336	0.119
Mof_C 	C 	0.8204	0.3782	0.2807	-0.039
Mof_C 	C 	0.7453	0.3087	0.3246	-0.068
Mof_H 	H 	0.6745	0.3322	0.3389	0.036
Mof_C 	C 	0.7764	0.2039	0.3472	0.049
Mof_H 	H 	0.7254	0.1567	0.3775	0.013
Mof_N 	N 	0.1297	0.1656	0.3387	-0.002
Mof_N 	N 	0.8773	0.1665	0.3276	-0.082
Mof_O 	O 	0.0929	0.1582	0.4395	-0.332
Mof_O 	O 	0.9019	0.0683	0.3441	-0.231
Mof_O 	O 	0.3325	0.086	0.9897	-0.736
Mof_O 	O 	0.3339	0.2828	0.0066	-0.998
Mof_O 	O 	0.1759	0.193	0.931	-0.422
Mof_O 	O 	0.8512	0.5426	0.1511	-0.692
Mof_O 	O 	0.8179	0.5831	0.3373	-0.248
Mof_O 	O 	0.6726	0.5152	0.2197	-0.497
Mof_Na	Na	0.2852	0.471	0.9996	2.571
Mof_S 	S 	0.26795	0.18477	0.0011	0.847
Mof_S 	S 	0.786	0.5171	0.2462	0.573
Mof_O 	O 	0.4174	0.8734	0.1116	-0.622
Mof_C 	C 	0.8654	0.2333	0.6822	-0.055
Mof_H 	H 	0.8919	0.2759	0.6259	0.1
Mof_C 	C 	0.8595	0.2765	0.7796	0.136
Mof_H 	H 	0.8769	0.3496	0.7905	-0.046
Mof_C 	C 	0.8267	0.211	0.8663	-0.237
Mof_C 	C 	0.7986	0.1044	0.8465	0.151
Mof_H 	H 	0.7769	0.0593	0.9029	-0.071
Mof_C 	C 	0.8028	0.0638	0.7409	-0.176
Mof_C 	C 	0.7623	0.9527	0.7158	0.301
Mof_C 	C 	0.6589	0.9236	0.7378	-0.143
Mof_H 	H 	0.6114	0.9753	0.7664	0.116
Mof_C 	C 	0.6218	0.8204	0.7193	-0.039
Mof_C 	C 	0.6913	0.7453	0.6754	-0.064
Mof_H 	H 	0.6678	0.6745	0.6611	0.042
Mof_C 	C 	0.7961	0.7764	0.6528	0.059
Mof_H 	H 	0.8433	0.7254	0.6225	0.056
Mof_N 	N 	0.8344	0.1297	0.6613	0.002
Mof_N 	N 	0.8335	0.8773	0.6724	-0.087
Mof_O 	O 	0.8418	0.0929	0.5605	-0.276
Mof_O 	O 	0.9317	0.9019	0.6559	-0.092
Mof_O 	O 	0.914	0.3325	0.0103	-0.596
Mof_O 	O 	0.7172	0.3339	0.9934	-0.994
Mof_O 	O 	0.807	0.1759	0.069	-0.368
Mof_O 	O 	0.4574	0.8512	0.8489	-0.689
Mof_O 	O 	0.4169	0.8179	0.6627	-0.246
Mof_O 	O 	0.4848	0.6726	0.7803	-0.497
Mof_Na	Na	0.529	0.2852	0.0004	2.573
Mof_S 	S 	0.81523	0.26795	0.9989	0.804
Mof_S 	S 	0.4829	0.786	0.7538	0.573
Mof_O 	O 	0.1266	0.4174	0.8884	-0.717
Mof_C 	C 	0.1346	0.7667	0.6822	-0.022
Mof_H 	H 	0.1081	0.7241	0.6259	0.02
Mof_C 	C 	0.1405	0.7235	0.7796	0.026
Mof_H 	H 	0.1231	0.6504	0.7905	-0.059
Mof_C 	C 	0.1733	0.789	0.8663	-0.156
Mof_C 	C 	0.2014	0.8956	0.8465	-0.087
Mof_H 	H 	0.2231	0.9407	0.9029	0.11
Mof_C 	C 	0.1972	0.9362	0.7409	0.272
Mof_C 	C 	0.2377	0.0473	0.7158	-0.215
Mof_C 	C 	0.3411	0.0764	0.7378	0.164
Mof_H 	H 	0.3886	0.0247	0.7664	-0.119
Mof_C 	C 	0.3782	0.1796	0.7193	-0.229
Mof_C 	C 	0.3087	0.2547	0.6754	0.069
Mof_H 	H 	0.3322	0.3255	0.6611	-0.012
Mof_C 	C 	0.2039	0.2236	0.6528	-0.057
Mof_H 	H 	0.1567	0.2746	0.6225	0.048
Mof_N 	N 	0.1656	0.8703	0.6613	-0.087
Mof_N 	N 	0.1665	0.1227	0.6724	0.002
Mof_O 	O 	0.1582	0.9071	0.5605	-0.205
Mof_O 	O 	0.0683	0.0981	0.6559	-0.358
Mof_O 	O 	0.086	0.6675	0.0103	-0.725
Mof_O 	O 	0.2828	0.6661	0.9934	-0.988
Mof_O 	O 	0.193	0.8241	0.069	-0.361
Mof_O 	O 	0.5426	0.1488	0.8489	-0.781
Mof_O 	O 	0.5831	0.1821	0.6627	-0.322
Mof_O 	O 	0.5152	0.3274	0.7803	-0.509
Mof_Na	Na	0.471	0.7148	0.0004	2.584
Mof_S 	S 	0.18477	0.73205	0.9989	0.807
Mof_S 	S 	0.5171	0.214	0.7538	0.639
Mof_O 	O 	0.8734	0.5826	0.8884	-0.622
Mof_Na	Na	0.5	0	0.9882	1.983
Mof_Na	Na	-1.676e-34	0.5	0.0118	1.981
Mof_Sm	Sm	1.89921e-33	0	0.5	1.414
Mof_Cl	Cl	0.5	0.5	0.945	-1.032
Mof_Cl	Cl	0.5	0.5	0.055	-1.032
_end
