data_functionalizedCrystal
_audit_creation_method	'EQeq! by Chris Wilmer'
_symmetry_space_group_name_H-M	'P1'
_symmetry_Int_Tables_number	1
_symmetry_cell_setting	triclinic
loop_
_symmetry_equiv_pos_as_xyz
  x,y,z
_cell_length_a	9.296
_cell_length_b	25.562
_cell_length_c	7.811
_cell_angle_alpha	90
_cell_angle_beta	97.27
_cell_angle_gamma	90
loop_
_atom_site_label
_atom_site_type_symbol
_atom_site_fract_x
_atom_site_fract_y
_atom_site_fract_z
_atom_site_charge
Mof_Sm	Sm	0.51334	0.65038	0.58754	1.979
Mof_O 	O 	0.4941	0.70606	0.3332	-0.493
Mof_O 	O 	0.5951	0.76562	0.1765	-0.523
Mof_O 	O 	0.2632	0.65598	0.4941	-0.532
Mof_O 	O 	0.1417	0.58853	0.5884	-0.387
Mof_O 	O 	0.1907	0.48361	0.4368	-0.403
Mof_O 	O 	0.3403	0.50842	0.2485	-0.291
Mof_O 	O 	0.7072	0.62278	0.8019	-0.515
Mof_O 	O 	0.6162	0.6169	0.0516	-0.358
Mof_N 	N 	0.7515	0.66621	0.4531	-0.218
Mof_N 	N 	0.9701	0.53327	0.2715	-0.18
Mof_C 	C 	0.6003	0.7277	0.2776	0.443
Mof_C 	C 	0.7487	0.7046	0.3357	-0.07
Mof_C 	C 	0.871	0.7222	0.2689	0.049
Mof_C 	C 	0.0038	0.699	0.3273	-0.002
Mof_C 	C 	0.0085	0.6587	0.4469	-0.191
Mof_C 	C 	0.8796	0.6433	0.5061	0.136
Mof_C 	C 	0.1484	0.6316	0.5154	0.416
Mof_C 	C 	0.2206	0.5076	0.3022	0.295
Mof_C 	C 	0.0959	0.5364	0.2013	-0.052
Mof_C 	C 	0.1061	0.5643	0.0503	-0.079
Mof_C 	C 	0.9808	0.5882	0.9691	0.142
Mof_C 	C 	0.8516	0.5846	0.0407	-0.19
Mof_C 	C 	0.8499	0.5568	0.1939	0.11
Mof_C 	C 	0.7137	0.6101	0.9583	0.449
Mof_Sm	Sm	0.48666	0.15038	0.91246	1.984
Mof_O 	O 	0.5059	0.20606	0.1668	-0.491
Mof_O 	O 	0.4049	0.26562	0.3235	-0.519
Mof_O 	O 	0.7368	0.15598	0.0059	-0.536
Mof_O 	O 	0.8583	0.08853	0.9116	-0.361
Mof_O 	O 	0.8093	0.98361	0.0632	-0.359
Mof_O 	O 	0.6597	0.00842	0.2515	-0.295
Mof_O 	O 	0.2928	0.12278	0.6981	-0.507
Mof_O 	O 	0.3838	0.1169	0.4484	-0.337
Mof_N 	N 	0.2485	0.16621	0.0469	-0.223
Mof_N 	N 	0.0299	0.03327	0.2285	-0.235
Mof_C 	C 	0.3997	0.2277	0.2224	0.437
Mof_C 	C 	0.2513	0.2046	0.1643	-0.05
Mof_C 	C 	0.129	0.2222	0.2311	-0.052
Mof_C 	C 	0.9962	0.199	0.1727	0.099
Mof_C 	C 	0.9915	0.1587	0.0531	-0.127
Mof_C 	C 	0.1204	0.1433	0.9939	0.067
Mof_C 	C 	0.8516	0.1316	0.9846	0.419
Mof_C 	C 	0.7794	0.0076	0.1978	0.257
Mof_C 	C 	0.9041	0.0364	0.2987	-0.005
Mof_C 	C 	0.8939	0.0643	0.4497	0.025
Mof_C 	C 	0.0192	0.0882	0.5309	-0.01
Mof_C 	C 	0.1484	0.0846	0.4593	-0.128
Mof_C 	C 	0.1501	0.0568	0.3061	0.069
Mof_C 	C 	0.2863	0.1101	0.5417	0.395
Mof_Sm	Sm	0.48666	0.34962	0.41246	1.967
Mof_O 	O 	0.5059	0.29394	0.6668	-0.488
Mof_O 	O 	0.4049	0.23438	0.8235	-0.519
Mof_O 	O 	0.7368	0.34402	0.5059	-0.524
Mof_O 	O 	0.8583	0.41147	0.4116	-0.356
Mof_O 	O 	0.8093	0.51639	0.5632	-0.387
Mof_O 	O 	0.6597	0.49158	0.7515	-0.289
Mof_O 	O 	0.2928	0.37722	0.1981	-0.498
Mof_O 	O 	0.3838	0.3831	0.9484	-0.322
Mof_N 	N 	0.2485	0.33379	0.5469	-0.211
Mof_N 	N 	0.0299	0.46673	0.7285	-0.224
Mof_C 	C 	0.3997	0.2723	0.7224	0.438
Mof_C 	C 	0.2513	0.2954	0.6643	-0.052
Mof_C 	C 	0.129	0.2778	0.7311	-0.041
Mof_C 	C 	0.9962	0.301	0.6727	0.087
Mof_C 	C 	0.9915	0.3413	0.5531	-0.106
Mof_C 	C 	0.1204	0.3567	0.4939	0.045
Mof_C 	C 	0.8516	0.3684	0.4846	0.402
Mof_C 	C 	0.7794	0.4924	0.6978	0.291
Mof_C 	C 	0.9041	0.4636	0.7987	-0.015
Mof_C 	C 	0.8939	0.4357	0.9497	0.046
Mof_C 	C 	0.0192	0.4118	0.0309	-0.032
Mof_C 	C 	0.1484	0.4154	0.9593	-0.098
Mof_C 	C 	0.1501	0.4432	0.8061	0.074
Mof_C 	C 	0.2863	0.3899	0.0417	0.374
Mof_Sm	Sm	0.51334	0.84962	0.08754	1.918
Mof_O 	O 	0.4941	0.79394	0.8332	-0.48
Mof_O 	O 	0.5951	0.73438	0.6765	-0.522
Mof_O 	O 	0.2632	0.84402	0.9941	-0.483
Mof_O 	O 	0.1417	0.91147	0.0884	-0.369
Mof_O 	O 	0.1907	0.01639	0.9368	-0.42
Mof_O 	O 	0.3403	0.99158	0.7485	-0.283
Mof_O 	O 	0.7072	0.87722	0.3019	-0.499
Mof_O 	O 	0.6162	0.8831	0.5516	-0.331
Mof_N 	N 	0.7515	0.83379	0.9531	-0.194
Mof_N 	N 	0.9701	0.96673	0.7715	-0.168
Mof_C 	C 	0.6003	0.7723	0.7776	0.447
Mof_C 	C 	0.7487	0.7954	0.8357	-0.071
Mof_C 	C 	0.871	0.7778	0.7689	0.059
Mof_C 	C 	0.0038	0.801	0.8273	-0.012
Mof_C 	C 	0.0085	0.8413	0.9469	-0.121
Mof_C 	C 	0.8796	0.8567	0.0061	0.087
Mof_C 	C 	0.1484	0.8684	0.0154	0.342
Mof_C 	C 	0.2206	0.9924	0.8022	0.331
Mof_C 	C 	0.0959	0.9636	0.7013	-0.055
Mof_C 	C 	0.1061	0.9357	0.5503	-0.047
Mof_C 	C 	0.9808	0.9118	0.4691	0.111
Mof_C 	C 	0.8516	0.9154	0.5407	-0.15
Mof_C 	C 	0.8499	0.9432	0.6939	0.112
Mof_C 	C 	0.7137	0.8899	0.4583	0.411
Mof_Cu	Cu	1.77456e-33	0.5	0.5	0.896
Mof_Cu	Cu	-0	0	-0	0.877
_end
