# CIF file generated by openbabel 3.1.0, see https://openbabel.org
data_I
_chemical_name_common 'BOMCUB_charged'
_cell_length_a 9.025
_cell_length_b 9.025
_cell_length_c 11.343
_cell_angle_alpha 90
_cell_angle_beta 90
_cell_angle_gamma 120
_space_group_name_H-M_alt 'P 1'
_space_group_name_Hall 'P 1'
loop_
    _symmetry_equiv_pos_as_xyz
    x,y,z
loop_
    _atom_site_label
    _atom_site_type_symbol
    _atom_site_fract_x
    _atom_site_fract_y
    _atom_site_fract_z
    _atom_site_occupancy
    In1      In       0.50000    0.00000    0.66667    1.000
    In2      In       0.50000    0.50000    0.00000    1.000
    In3      In       0.00000    0.50000    0.33333    1.000
    C1       C        0.78905    0.21095    0.50000    1.000
    C2       C        0.69025    0.30975    0.50000    1.000
    C3       C        0.42190    0.21095    0.83333    1.000
    C4       C        0.61950    0.30975    0.83333    1.000
    C5       C        0.78905    0.57810    0.16667    1.000
    C6       C        0.69025    0.38050    0.16667    1.000
    C7       C        0.21095    0.78905    0.50000    1.000
    C8       C        0.30975    0.69025    0.50000    1.000
    C9       C        0.57810    0.78905    0.83333    1.000
    C10      C        0.38050    0.69025    0.83333    1.000
    C11      C        0.21095    0.42190    0.16667    1.000
    C12      C        0.30975    0.61950    0.16667    1.000
    O1       O        0.73190    0.07870    0.56140    1.000
    O2       O        0.55310    0.24140    0.55540    1.000
    O3       O        0.34680    0.26810    0.89473    1.000
    O4       O        0.68830    0.44690    0.88873    1.000
    O5       O        0.92130    0.65320    0.22807    1.000
    O6       O        0.75860    0.31170    0.22207    1.000
    O7       O        0.26810    0.92130    0.56140    1.000
    O8       O        0.44690    0.75860    0.55540    1.000
    O9       O        0.65320    0.73190    0.89473    1.000
    O10      O        0.31170    0.55310    0.88873    1.000
    O11      O        0.07870    0.34680    0.22807    1.000
    O12      O        0.24140    0.68830    0.22207    1.000
    O13      O        0.65320    0.92130    0.77193    1.000
    O14      O        0.31170    0.75860    0.77793    1.000
    O15      O        0.07870    0.73190    0.43860    1.000
    O16      O        0.24140    0.55310    0.44460    1.000
    O17      O        0.26810    0.34680    0.10527    1.000
    O18      O        0.44690    0.68830    0.11127    1.000
    O19      O        0.34680    0.07870    0.77193    1.000
    O20      O        0.68830    0.24140    0.77793    1.000
    O21      O        0.92130    0.26810    0.43860    1.000
    O22      O        0.75860    0.44690    0.44460    1.000
    O23      O        0.73190    0.65320    0.10527    1.000
    O24      O        0.55310    0.31170    0.11127    1.000
    H1       H        0.89580    0.97210    0.05260    1.000
    H2       H        0.10420    0.02790    0.05260    1.000
    H3       H        0.97210    0.89580    0.94740    1.000
    H4       H        0.02790    0.10420    0.94740    1.000
    N1       N        0.00000    0.00000    0.00000    1.000
    H5       H        0.07630    0.10420    0.38593    1.000
    H6       H        0.92370    0.89580    0.38593    1.000
    H7       H        0.92370    0.02790    0.28073    1.000
    H8       H        0.07630    0.97210    0.28073    1.000
    N2       N        0.00000    0.00000    0.33333    1.000
    H9       H        0.02790    0.92370    0.71927    1.000
    H10      H        0.97210    0.07630    0.71927    1.000
    H11      H        0.10420    0.07630    0.61407    1.000
    H12      H        0.89580    0.92370    0.61407    1.000
    N3       N        0.00000    0.00000    0.66667    1.000
