data_functionalizedCrystal
_audit_creation_method	'EQeq! by Chris Wilmer'
_symmetry_space_group_name_H-M	'P1'
_symmetry_Int_Tables_number	1
_symmetry_cell_setting	triclinic
loop_
_symmetry_equiv_pos_as_xyz
  x,y,z
_cell_length_a	21.9367
_cell_length_b	21.9367
_cell_length_c	16.3377
_cell_angle_alpha	90
_cell_angle_beta	90
_cell_angle_gamma	90
loop_
_atom_site_label
_atom_site_type_symbol
_atom_site_fract_x
_atom_site_fract_y
_atom_site_fract_z
_atom_site_charge
Mof_Cd	Cd	0.08029	0.51124	0.04089	0.401
Mof_O 	O 	0.08621	0.41788	0.9584	-0.271
Mof_O 	O 	0.1176	0.3225	0.9639	-0.223
Mof_O 	O 	0.1746	0.25674	0.0579	-0.227
Mof_O 	O 	0.21814	0.26395	0.1797	-0.281
Mof_N 	N 	0.13263	0.44364	0.1121	-0.134
Mof_N 	N 	0.1836	0.38299	0.1981	-0.131
Mof_C 	C 	0.1118	0.3759	0.9946	0.272
Mof_C 	C 	0.1885	0.2859	0.1216	0.281
Mof_C 	C 	0.1387	0.3877	0.0765	-0.005
Mof_C 	C 	0.1705	0.3504	0.1285	-0.018
Mof_C 	C 	0.1596	0.4383	0.1858	0.042
Mof_C 	C 	0.161	0.4885	0.2456	0.181
Mof_C 	C 	0.1126	0.5228	0.2584	-0.238
Mof_H 	H 	0.0764	0.5144	0.231	0.111
Mof_C 	C 	0.1153	0.5726	0.3139	0.246
Mof_H 	H 	0.081	0.5972	0.3188	-0.084
Mof_C 	C 	0.163	0.586	0.3586	-0.51
Mof_C 	C 	0.2172	0.5471	0.3471	0.134
Mof_H 	H 	0.2521	0.5537	0.378	-0.04
Mof_C 	C 	0.2155	0.5008	0.2898	-0.177
Mof_H 	H 	0.2502	0.4776	0.2801	0.075
Mof_C 	C 	0.1616	0.6397	0.4174	0.983
Mof_C 	C 	0.1044	0.6743	0.4243	-0.399
Mof_H 	H 	0.0923	0.6923	0.3733	0.18
Mof_H 	H 	0.1093	0.7056	0.4648	0.121
Mof_H 	H 	0.0736	0.6461	0.442	0.112
Mof_C 	C 	0.179	0.6201	0.5003	-0.974
Mof_H 	H 	0.1449	0.6138	0.536	0.342
Mof_H 	H 	0.2056	0.6502	0.5234	0.364
Mof_H 	H 	0.2008	0.5825	0.4937	0.275
Mof_C 	C 	0.2088	0.6822	0.3883	-0.583
Mof_H 	H 	0.2493	0.6676	0.399	0.033
Mof_H 	H 	0.2033	0.7211	0.4142	0.211
Mof_H 	H 	0.203	0.6863	0.3304	0.156
Mof_C 	C 	0.1599	0.5509	0.2171	-0.07
Mof_H 	H 	0.1595	0.5586	0.1611	0.033
Mof_C 	C 	0.1593	0.6	0.2717	0.038
Mof_H 	H 	0.1565	0.64	0.2532	-0.005
Mof_C 	C 	0.1564	0.5322	0.3828	0.189
Mof_H 	H 	0.1512	0.5251	0.4384	-0.062
Mof_C 	C 	0.1565	0.48	0.3265	-0.15
Mof_H 	H 	0.1534	0.4407	0.3472	0.072
Mof_C 	C 	0.143	0.6992	0.3844	-0.531
Mof_H 	H 	0.1711	0.7148	0.3444	0.177
Mof_H 	H 	0.1378	0.7287	0.4272	0.154
Mof_H 	H 	0.1044	0.6914	0.3587	0.049
Mof_C 	C 	0.1153	0.6253	0.4797	-0.543
Mof_H 	H 	0.0737	0.6323	0.4637	0.119
Mof_H 	H 	0.1244	0.649	0.5275	0.143
Mof_H 	H 	0.1209	0.5828	0.4917	0.166
Mof_C 	C 	0.2174	0.6523	0.4644	-0.489
Mof_H 	H 	0.2289	0.6217	0.5034	0.171
Mof_H 	H 	0.213	0.6908	0.4916	0.09
Mof_H 	H 	0.2483	0.6555	0.423	0.246
Mof_Cd	Cd	0.58029	0.01124	0.54089	0.4
Mof_O 	O 	0.58621	0.91788	0.4584	-0.272
Mof_O 	O 	0.6176	0.8225	0.4639	-0.224
Mof_O 	O 	0.6746	0.75674	0.5579	-0.228
Mof_O 	O 	0.71814	0.76395	0.6797	-0.282
Mof_N 	N 	0.63263	0.94364	0.6121	-0.135
Mof_N 	N 	0.6836	0.88299	0.6981	-0.132
Mof_C 	C 	0.6118	0.8759	0.4946	0.271
Mof_C 	C 	0.6885	0.7859	0.6216	0.28
Mof_C 	C 	0.6387	0.8877	0.5765	-0.007
Mof_C 	C 	0.6705	0.8504	0.6285	-0.018
Mof_C 	C 	0.6596	0.9383	0.6858	0.041
Mof_C 	C 	0.661	0.9885	0.7456	0.182
Mof_C 	C 	0.6126	0.0228	0.7584	-0.246
Mof_H 	H 	0.5764	0.0144	0.731	0.112
Mof_C 	C 	0.6153	0.0726	0.8139	0.251
Mof_H 	H 	0.581	0.0972	0.8188	-0.087
Mof_C 	C 	0.663	0.086	0.8586	-0.511
Mof_C 	C 	0.7172	0.0471	0.8471	0.138
Mof_H 	H 	0.7521	0.0537	0.878	-0.043
Mof_C 	C 	0.7155	0.0008	0.7898	-0.185
Mof_H 	H 	0.7502	0.9776	0.7801	0.078
Mof_C 	C 	0.6616	0.1397	0.9174	0.982
Mof_C 	C 	0.6044	0.1743	0.9243	-0.401
Mof_H 	H 	0.5923	0.1923	0.8733	0.177
Mof_H 	H 	0.6093	0.2056	0.9648	0.121
Mof_H 	H 	0.5736	0.1461	0.942	0.115
Mof_C 	C 	0.679	0.1201	0.0003	-0.966
Mof_H 	H 	0.6449	0.1138	0.036	0.34
Mof_H 	H 	0.7056	0.1502	0.0234	0.361
Mof_H 	H 	0.7008	0.0825	0.9937	0.272
Mof_C 	C 	0.7088	0.1822	0.8883	-0.586
Mof_H 	H 	0.7493	0.1676	0.899	0.036
Mof_H 	H 	0.7033	0.2211	0.9142	0.212
Mof_H 	H 	0.703	0.1863	0.8304	0.157
Mof_C 	C 	0.6599	0.0509	0.7171	-0.065
Mof_H 	H 	0.6595	0.0586	0.6611	0.031
Mof_C 	C 	0.6593	0.1	0.7717	0.033
Mof_H 	H 	0.6565	0.14	0.7532	-0.003
Mof_C 	C 	0.6564	0.0322	0.8828	0.183
Mof_H 	H 	0.6512	0.0251	0.9384	-0.061
Mof_C 	C 	0.6565	0.98	0.8265	-0.145
Mof_H 	H 	0.6534	0.9407	0.8472	0.071
Mof_C 	C 	0.643	0.1992	0.8844	-0.528
Mof_H 	H 	0.6711	0.2148	0.8444	0.176
Mof_H 	H 	0.6378	0.2287	0.9272	0.154
Mof_H 	H 	0.6044	0.1914	0.8587	0.051
Mof_C 	C 	0.6153	0.1253	0.9797	-0.545
Mof_H 	H 	0.5737	0.1323	0.9637	0.117
Mof_H 	H 	0.6244	0.149	0.0275	0.144
Mof_H 	H 	0.6209	0.0828	0.9917	0.166
Mof_C 	C 	0.7174	0.1523	0.9644	-0.489
Mof_H 	H 	0.7289	0.1217	0.0034	0.171
Mof_H 	H 	0.713	0.1908	0.9916	0.09
Mof_H 	H 	0.7483	0.1555	0.923	0.243
Mof_Cd	Cd	0.41971	0.48876	0.54089	0.4
Mof_O 	O 	0.41379	0.58212	0.4584	-0.272
Mof_O 	O 	0.3824	0.6775	0.4639	-0.224
Mof_O 	O 	0.3254	0.74326	0.5579	-0.228
Mof_O 	O 	0.28186	0.73605	0.6797	-0.282
Mof_N 	N 	0.36737	0.55636	0.6121	-0.135
Mof_N 	N 	0.3164	0.61701	0.6981	-0.132
Mof_C 	C 	0.3882	0.6241	0.4946	0.271
Mof_C 	C 	0.3115	0.7141	0.6216	0.28
Mof_C 	C 	0.3613	0.6123	0.5765	-0.007
Mof_C 	C 	0.3295	0.6496	0.6285	-0.018
Mof_C 	C 	0.3404	0.5617	0.6858	0.041
Mof_C 	C 	0.339	0.5115	0.7456	0.18
Mof_C 	C 	0.3874	0.4772	0.7584	-0.239
Mof_H 	H 	0.4236	0.4856	0.731	0.11
Mof_C 	C 	0.3847	0.4274	0.8139	0.245
Mof_H 	H 	0.419	0.4028	0.8188	-0.085
Mof_C 	C 	0.337	0.414	0.8586	-0.511
Mof_C 	C 	0.2828	0.4529	0.8471	0.133
Mof_H 	H 	0.2479	0.4463	0.878	-0.041
Mof_C 	C 	0.2845	0.4992	0.7898	-0.178
Mof_H 	H 	0.2498	0.5224	0.7801	0.074
Mof_C 	C 	0.3384	0.3603	0.9174	0.983
Mof_C 	C 	0.3956	0.3257	0.9243	-0.4
Mof_H 	H 	0.4077	0.3077	0.8733	0.179
Mof_H 	H 	0.3907	0.2944	0.9648	0.121
Mof_H 	H 	0.4264	0.3539	0.942	0.113
Mof_C 	C 	0.321	0.3799	0.0003	-0.973
Mof_H 	H 	0.3551	0.3862	0.036	0.341
Mof_H 	H 	0.2944	0.3498	0.0234	0.363
Mof_H 	H 	0.2992	0.4175	0.9937	0.274
Mof_C 	C 	0.2912	0.3178	0.8883	-0.584
Mof_H 	H 	0.2507	0.3324	0.899	0.034
Mof_H 	H 	0.2967	0.2789	0.9142	0.212
Mof_H 	H 	0.297	0.3137	0.8304	0.156
Mof_C 	C 	0.3401	0.4491	0.7171	-0.07
Mof_H 	H 	0.3405	0.4414	0.6611	0.033
Mof_C 	C 	0.3407	0.4	0.7717	0.038
Mof_H 	H 	0.3435	0.36	0.7532	-0.005
Mof_C 	C 	0.3436	0.4678	0.8828	0.189
Mof_H 	H 	0.3488	0.4749	0.9384	-0.062
Mof_C 	C 	0.3435	0.52	0.8265	-0.15
Mof_H 	H 	0.3466	0.5593	0.8472	0.072
Mof_C 	C 	0.357	0.3008	0.8844	-0.53
Mof_H 	H 	0.3289	0.2852	0.8444	0.177
Mof_H 	H 	0.3622	0.2713	0.9272	0.154
Mof_H 	H 	0.3956	0.3086	0.8587	0.05
Mof_C 	C 	0.3847	0.3747	0.9797	-0.544
Mof_H 	H 	0.4263	0.3677	0.9637	0.118
Mof_H 	H 	0.3756	0.351	0.0275	0.143
Mof_H 	H 	0.3791	0.4172	0.9917	0.166
Mof_C 	C 	0.2826	0.3477	0.9644	-0.489
Mof_H 	H 	0.2711	0.3783	0.0034	0.171
Mof_H 	H 	0.287	0.3092	0.9916	0.09
Mof_H 	H 	0.2517	0.3445	0.923	0.245
Mof_Cd	Cd	0.91971	0.98876	0.04089	0.399
Mof_O 	O 	0.91379	0.08212	0.9584	-0.272
Mof_O 	O 	0.8824	0.1775	0.9639	-0.224
Mof_O 	O 	0.8254	0.24326	0.0579	-0.228
Mof_O 	O 	0.78186	0.23605	0.1797	-0.282
Mof_N 	N 	0.86737	0.05636	0.1121	-0.135
Mof_N 	N 	0.8164	0.11701	0.1981	-0.132
Mof_C 	C 	0.8882	0.1241	0.9946	0.27
Mof_C 	C 	0.8115	0.2141	0.1216	0.28
Mof_C 	C 	0.8613	0.1123	0.0765	-0.006
Mof_C 	C 	0.8295	0.1496	0.1285	-0.019
Mof_C 	C 	0.8404	0.0617	0.1858	0.041
Mof_C 	C 	0.839	0.0115	0.2456	0.182
Mof_C 	C 	0.8874	0.9772	0.2584	-0.242
Mof_H 	H 	0.9236	0.9856	0.231	0.111
Mof_C 	C 	0.8847	0.9274	0.3139	0.248
Mof_H 	H 	0.919	0.9028	0.3188	-0.086
Mof_C 	C 	0.837	0.914	0.3586	-0.512
Mof_C 	C 	0.7828	0.9529	0.3471	0.135
Mof_H 	H 	0.7479	0.9463	0.378	-0.041
Mof_C 	C 	0.7845	0.9992	0.2898	-0.181
Mof_H 	H 	0.7498	0.0224	0.2801	0.076
Mof_C 	C 	0.8384	0.8603	0.4174	0.984
Mof_C 	C 	0.8956	0.8257	0.4243	-0.4
Mof_H 	H 	0.9077	0.8077	0.3733	0.18
Mof_H 	H 	0.8907	0.7944	0.4648	0.121
Mof_H 	H 	0.9264	0.8539	0.442	0.112
Mof_C 	C 	0.821	0.8799	0.5003	-0.975
Mof_H 	H 	0.8551	0.8862	0.536	0.342
Mof_H 	H 	0.7944	0.8498	0.5234	0.364
Mof_H 	H 	0.7992	0.9175	0.4937	0.275
Mof_C 	C 	0.7912	0.8178	0.3883	-0.583
Mof_H 	H 	0.7507	0.8324	0.399	0.033
Mof_H 	H 	0.7967	0.7789	0.4142	0.211
Mof_H 	H 	0.797	0.8137	0.3304	0.156
Mof_C 	C 	0.8401	0.9491	0.2171	-0.069
Mof_H 	H 	0.8405	0.9414	0.1611	0.032
Mof_C 	C 	0.8407	0.9	0.2717	0.036
Mof_H 	H 	0.8435	0.86	0.2532	-0.004
Mof_C 	C 	0.8436	0.9678	0.3828	0.187
Mof_H 	H 	0.8488	0.9749	0.4384	-0.062
Mof_C 	C 	0.8435	0.02	0.3265	-0.149
Mof_H 	H 	0.8466	0.0593	0.3472	0.072
Mof_C 	C 	0.857	0.8008	0.3844	-0.531
Mof_H 	H 	0.8289	0.7852	0.3444	0.177
Mof_H 	H 	0.8622	0.7713	0.4272	0.155
Mof_H 	H 	0.8956	0.8086	0.3587	0.049
Mof_C 	C 	0.8847	0.8747	0.4797	-0.543
Mof_H 	H 	0.9263	0.8677	0.4637	0.119
Mof_H 	H 	0.8756	0.851	0.5275	0.143
Mof_H 	H 	0.8791	0.9172	0.4917	0.166
Mof_C 	C 	0.7826	0.8477	0.4644	-0.489
Mof_H 	H 	0.7711	0.8783	0.5034	0.171
Mof_H 	H 	0.787	0.8092	0.4916	0.09
Mof_H 	H 	0.7517	0.8445	0.423	0.246
Mof_Cd	Cd	0.23876	0.33029	0.29089	0.4
Mof_O 	O 	0.33212	0.33621	0.2084	-0.272
Mof_O 	O 	0.4275	0.3676	0.2139	-0.224
Mof_O 	O 	0.49326	0.4246	0.3079	-0.228
Mof_O 	O 	0.48605	0.46814	0.4297	-0.282
Mof_N 	N 	0.30636	0.38263	0.3621	-0.135
Mof_N 	N 	0.36701	0.4336	0.4481	-0.132
Mof_C 	C 	0.3741	0.3618	0.2446	0.271
Mof_C 	C 	0.4641	0.4385	0.3716	0.28
Mof_C 	C 	0.3623	0.3887	0.3265	-0.007
Mof_C 	C 	0.3996	0.4205	0.3785	-0.019
Mof_C 	C 	0.3117	0.4096	0.4358	0.041
Mof_C 	C 	0.2615	0.411	0.4956	0.179
Mof_C 	C 	0.2272	0.3626	0.5084	-0.239
Mof_H 	H 	0.2356	0.3264	0.481	0.11
Mof_C 	C 	0.1774	0.3653	0.5639	0.245
Mof_H 	H 	0.1528	0.331	0.5688	-0.085
Mof_C 	C 	0.164	0.413	0.6086	-0.511
Mof_C 	C 	0.2029	0.4672	0.5971	0.133
Mof_H 	H 	0.1963	0.5021	0.628	-0.041
Mof_C 	C 	0.2492	0.4655	0.5398	-0.178
Mof_H 	H 	0.2724	0.5002	0.5301	0.074
Mof_C 	C 	0.1103	0.4116	0.6674	0.983
Mof_C 	C 	0.0757	0.3544	0.6743	-0.399
Mof_H 	H 	0.0577	0.3423	0.6233	0.18
Mof_H 	H 	0.0444	0.3593	0.7148	0.121
Mof_H 	H 	0.1039	0.3236	0.692	0.112
Mof_C 	C 	0.1299	0.429	0.7503	-0.974
Mof_H 	H 	0.1362	0.3949	0.786	0.342
Mof_H 	H 	0.0998	0.4556	0.7734	0.364
Mof_H 	H 	0.1675	0.4508	0.7437	0.275
Mof_C 	C 	0.0678	0.4588	0.6383	-0.583
Mof_H 	H 	0.0824	0.4993	0.649	0.033
Mof_H 	H 	0.0289	0.4533	0.6642	0.211
Mof_H 	H 	0.0637	0.453	0.5804	0.156
Mof_C 	C 	0.1991	0.4099	0.4671	-0.069
Mof_H 	H 	0.1914	0.4095	0.4111	0.033
Mof_C 	C 	0.15	0.4093	0.5217	0.038
Mof_H 	H 	0.11	0.4065	0.5032	-0.005
Mof_C 	C 	0.2178	0.4064	0.6328	0.189
Mof_H 	H 	0.2249	0.4012	0.6884	-0.062
Mof_C 	C 	0.27	0.4065	0.5765	-0.15
Mof_H 	H 	0.3093	0.4034	0.5972	0.072
Mof_C 	C 	0.0508	0.393	0.6344	-0.531
Mof_H 	H 	0.0352	0.4211	0.5944	0.177
Mof_H 	H 	0.0213	0.3878	0.6772	0.154
Mof_H 	H 	0.0586	0.3544	0.6087	0.049
Mof_C 	C 	0.1247	0.3653	0.7297	-0.543
Mof_H 	H 	0.1177	0.3237	0.7137	0.119
Mof_H 	H 	0.101	0.3744	0.7775	0.143
Mof_H 	H 	0.1672	0.3709	0.7417	0.166
Mof_C 	C 	0.0977	0.4674	0.7144	-0.489
Mof_H 	H 	0.1283	0.4789	0.7534	0.171
Mof_H 	H 	0.0592	0.463	0.7416	0.09
Mof_H 	H 	0.0945	0.4983	0.673	0.246
Mof_Cd	Cd	0.73876	0.83029	0.79089	0.4
Mof_O 	O 	0.83212	0.83621	0.7084	-0.272
Mof_O 	O 	0.9275	0.8676	0.7139	-0.224
Mof_O 	O 	0.99326	0.9246	0.8079	-0.227
Mof_O 	O 	0.98605	0.96814	0.9297	-0.282
Mof_N 	N 	0.80636	0.88263	0.8621	-0.135
Mof_N 	N 	0.86701	0.9336	0.9481	-0.132
Mof_C 	C 	0.8741	0.8618	0.7446	0.271
Mof_C 	C 	0.9641	0.9385	0.8716	0.28
Mof_C 	C 	0.8623	0.8887	0.8265	-0.007
Mof_C 	C 	0.8996	0.9205	0.8785	-0.018
Mof_C 	C 	0.8117	0.9096	0.9358	0.04
Mof_C 	C 	0.7615	0.911	0.9956	0.185
Mof_C 	C 	0.7272	0.8626	0.0084	-0.254
Mof_H 	H 	0.7356	0.8264	0.981	0.115
Mof_C 	C 	0.6774	0.8653	0.0639	0.258
Mof_H 	H 	0.6528	0.831	0.0688	-0.089
Mof_C 	C 	0.664	0.913	0.1086	-0.513
Mof_C 	C 	0.7029	0.9672	0.0971	0.14
Mof_H 	H 	0.6963	0.0021	0.128	-0.042
Mof_C 	C 	0.7492	0.9655	0.0398	-0.188
Mof_H 	H 	0.7724	0.0002	0.0301	0.079
Mof_C 	C 	0.6103	0.9116	0.1674	0.985
Mof_C 	C 	0.5757	0.8544	0.1743	-0.4
Mof_H 	H 	0.5577	0.8423	0.1233	0.18
Mof_H 	H 	0.5444	0.8593	0.2148	0.121
Mof_H 	H 	0.6039	0.8236	0.192	0.112
Mof_C 	C 	0.6299	0.929	0.2503	-0.975
Mof_H 	H 	0.6362	0.8949	0.286	0.342
Mof_H 	H 	0.5998	0.9556	0.2734	0.364
Mof_H 	H 	0.6675	0.9508	0.2437	0.275
Mof_C 	C 	0.5678	0.9588	0.1383	-0.583
Mof_H 	H 	0.5824	0.9993	0.149	0.033
Mof_H 	H 	0.5289	0.9533	0.1642	0.212
Mof_H 	H 	0.5637	0.953	0.0804	0.156
Mof_C 	C 	0.6991	0.9099	0.9671	-0.059
Mof_H 	H 	0.6914	0.9095	0.9111	0.029
Mof_C 	C 	0.65	0.9093	0.0217	0.027
Mof_H 	H 	0.61	0.9065	0.0032	-0.001
Mof_C 	C 	0.7178	0.9064	0.1328	0.183
Mof_H 	H 	0.7249	0.9012	0.1884	-0.061
Mof_C 	C 	0.77	0.9065	0.0765	-0.146
Mof_H 	H 	0.8093	0.9034	0.0972	0.07
Mof_C 	C 	0.5508	0.893	0.1344	-0.531
Mof_H 	H 	0.5352	0.9211	0.0944	0.177
Mof_H 	H 	0.5213	0.8878	0.1772	0.155
Mof_H 	H 	0.5586	0.8544	0.1087	0.049
Mof_C 	C 	0.6247	0.8653	0.2297	-0.543
Mof_H 	H 	0.6177	0.8237	0.2137	0.119
Mof_H 	H 	0.601	0.8744	0.2775	0.143
Mof_H 	H 	0.6672	0.8709	0.2417	0.166
Mof_C 	C 	0.5977	0.9674	0.2144	-0.489
Mof_H 	H 	0.6283	0.9789	0.2534	0.171
Mof_H 	H 	0.5592	0.963	0.2416	0.09
Mof_H 	H 	0.5945	0.9983	0.173	0.246
Mof_Cd	Cd	0.26124	0.66971	0.79089	0.4
Mof_O 	O 	0.16788	0.66379	0.7084	-0.272
Mof_O 	O 	0.0725	0.6324	0.7139	-0.224
Mof_O 	O 	0.00674	0.5754	0.8079	-0.228
Mof_O 	O 	0.01395	0.53186	0.9297	-0.282
Mof_N 	N 	0.19364	0.61737	0.8621	-0.135
Mof_N 	N 	0.13299	0.5664	0.9481	-0.132
Mof_C 	C 	0.1259	0.6382	0.7446	0.271
Mof_C 	C 	0.0359	0.5615	0.8716	0.28
Mof_C 	C 	0.1377	0.6113	0.8265	-0.007
Mof_C 	C 	0.1004	0.5795	0.8785	-0.019
Mof_C 	C 	0.1883	0.5904	0.9358	0.041
Mof_C 	C 	0.2385	0.589	0.9956	0.181
Mof_C 	C 	0.2728	0.6374	0.0084	-0.244
Mof_H 	H 	0.2644	0.6736	0.981	0.112
Mof_C 	C 	0.3226	0.6347	0.0639	0.249
Mof_H 	H 	0.3472	0.669	0.0688	-0.086
Mof_C 	C 	0.336	0.587	0.1086	-0.512
Mof_C 	C 	0.2971	0.5328	0.0971	0.135
Mof_H 	H 	0.3037	0.4979	0.128	-0.041
Mof_C 	C 	0.2508	0.5345	0.0398	-0.18
Mof_H 	H 	0.2276	0.4998	0.0301	0.075
Mof_C 	C 	0.3897	0.5884	0.1674	0.984
Mof_C 	C 	0.4243	0.6456	0.1743	-0.4
Mof_H 	H 	0.4423	0.6577	0.1233	0.18
Mof_H 	H 	0.4556	0.6407	0.2148	0.121
Mof_H 	H 	0.3961	0.6764	0.192	0.112
Mof_C 	C 	0.3701	0.571	0.2503	-0.975
Mof_H 	H 	0.3638	0.6051	0.286	0.342
Mof_H 	H 	0.4002	0.5444	0.2734	0.364
Mof_H 	H 	0.3325	0.5492	0.2437	0.275
Mof_C 	C 	0.4322	0.5412	0.1383	-0.583
Mof_H 	H 	0.4176	0.5007	0.149	0.033
Mof_H 	H 	0.4711	0.5467	0.1642	0.211
Mof_H 	H 	0.4363	0.547	0.0804	0.156
Mof_C 	C 	0.3009	0.5901	0.9671	-0.066
Mof_H 	H 	0.3086	0.5905	0.9111	0.031
Mof_C 	C 	0.35	0.5907	0.0217	0.034
Mof_H 	H 	0.39	0.5935	0.0032	-0.004
Mof_C 	C 	0.2822	0.5936	0.1328	0.187
Mof_H 	H 	0.2751	0.5988	0.1884	-0.062
Mof_C 	C 	0.23	0.5935	0.0765	-0.149
Mof_H 	H 	0.1907	0.5966	0.0972	0.071
Mof_C 	C 	0.4492	0.607	0.1344	-0.531
Mof_H 	H 	0.4648	0.5789	0.0944	0.177
Mof_H 	H 	0.4787	0.6122	0.1772	0.155
Mof_H 	H 	0.4414	0.6456	0.1087	0.049
Mof_C 	C 	0.3753	0.6347	0.2297	-0.543
Mof_H 	H 	0.3823	0.6763	0.2137	0.119
Mof_H 	H 	0.399	0.6256	0.2775	0.143
Mof_H 	H 	0.3328	0.6291	0.2417	0.166
Mof_C 	C 	0.4023	0.5326	0.2144	-0.489
Mof_H 	H 	0.3717	0.5211	0.2534	0.171
Mof_H 	H 	0.4408	0.537	0.2416	0.09
Mof_H 	H 	0.4055	0.5017	0.173	0.246
Mof_Cd	Cd	0.76124	0.16971	0.29089	0.4
Mof_O 	O 	0.66788	0.16379	0.2084	-0.272
Mof_O 	O 	0.5725	0.1324	0.2139	-0.223
Mof_O 	O 	0.50674	0.0754	0.3079	-0.228
Mof_O 	O 	0.51395	0.03186	0.4297	-0.282
Mof_N 	N 	0.69364	0.11737	0.3621	-0.135
Mof_N 	N 	0.63299	0.0664	0.4481	-0.132
Mof_C 	C 	0.6259	0.1382	0.2446	0.271
Mof_C 	C 	0.5359	0.0615	0.3716	0.28
Mof_C 	C 	0.6377	0.1113	0.3265	-0.007
Mof_C 	C 	0.6004	0.0795	0.3785	-0.018
Mof_C 	C 	0.6883	0.0904	0.4358	0.041
Mof_C 	C 	0.7385	0.089	0.4956	0.179
Mof_C 	C 	0.7728	0.1374	0.5084	-0.238
Mof_H 	H 	0.7644	0.1736	0.481	0.109
Mof_C 	C 	0.8226	0.1347	0.5639	0.244
Mof_H 	H 	0.8472	0.169	0.5688	-0.084
Mof_C 	C 	0.836	0.087	0.6086	-0.51
Mof_C 	C 	0.7971	0.0328	0.5971	0.132
Mof_H 	H 	0.8037	0.9979	0.628	-0.04
Mof_C 	C 	0.7508	0.0345	0.5398	-0.177
Mof_H 	H 	0.7276	0.9998	0.5301	0.074
Mof_C 	C 	0.8897	0.0884	0.6674	0.982
Mof_C 	C 	0.9243	0.1456	0.6743	-0.399
Mof_H 	H 	0.9423	0.1577	0.6233	0.18
Mof_H 	H 	0.9556	0.1407	0.7148	0.12
Mof_H 	H 	0.8961	0.1764	0.692	0.112
Mof_C 	C 	0.8701	0.071	0.7503	-0.973
Mof_H 	H 	0.8638	0.1051	0.786	0.342
Mof_H 	H 	0.9002	0.0444	0.7734	0.363
Mof_H 	H 	0.8325	0.0492	0.7437	0.275
Mof_C 	C 	0.9322	0.0412	0.6383	-0.582
Mof_H 	H 	0.9176	0.0007	0.649	0.033
Mof_H 	H 	0.9711	0.0467	0.6642	0.211
Mof_H 	H 	0.9363	0.047	0.5804	0.156
Mof_C 	C 	0.8009	0.0901	0.4671	-0.07
Mof_H 	H 	0.8086	0.0905	0.4111	0.033
Mof_C 	C 	0.85	0.0907	0.5217	0.038
Mof_H 	H 	0.89	0.0935	0.5032	-0.005
Mof_C 	C 	0.7822	0.0936	0.6328	0.189
Mof_H 	H 	0.7751	0.0988	0.6884	-0.063
Mof_C 	C 	0.73	0.0935	0.5765	-0.151
Mof_H 	H 	0.6907	0.0966	0.5972	0.072
Mof_C 	C 	0.9492	0.107	0.6344	-0.53
Mof_H 	H 	0.9648	0.0789	0.5944	0.177
Mof_H 	H 	0.9787	0.1122	0.6772	0.154
Mof_H 	H 	0.9414	0.1456	0.6087	0.049
Mof_C 	C 	0.8753	0.1347	0.7297	-0.543
Mof_H 	H 	0.8823	0.1763	0.7137	0.119
Mof_H 	H 	0.899	0.1256	0.7775	0.143
Mof_H 	H 	0.8328	0.1291	0.7417	0.166
Mof_C 	C 	0.9023	0.0326	0.7144	-0.489
Mof_H 	H 	0.8717	0.0211	0.7534	0.17
Mof_H 	H 	0.9408	0.037	0.7416	0.09
Mof_H 	H 	0.9055	0.0017	0.673	0.246
Mof_Cd	Cd	0.91971	0.48876	0.95911	0.4
Mof_O 	O 	0.91379	0.58212	0.0416	-0.272
Mof_O 	O 	0.8824	0.6775	0.0361	-0.224
Mof_O 	O 	0.8254	0.74326	0.9421	-0.228
Mof_O 	O 	0.78186	0.73605	0.8203	-0.282
Mof_N 	N 	0.86737	0.55636	0.8879	-0.135
Mof_N 	N 	0.8164	0.61701	0.8019	-0.132
Mof_C 	C 	0.8882	0.6241	0.0054	0.271
Mof_C 	C 	0.8115	0.7141	0.8784	0.28
Mof_C 	C 	0.8613	0.6123	0.9235	-0.006
Mof_C 	C 	0.8295	0.6496	0.8715	-0.019
Mof_C 	C 	0.8404	0.5617	0.8142	0.041
Mof_C 	C 	0.839	0.5115	0.7544	0.18
Mof_C 	C 	0.8874	0.4772	0.7416	-0.239
Mof_H 	H 	0.9236	0.4856	0.769	0.11
Mof_C 	C 	0.8847	0.4274	0.6861	0.245
Mof_H 	H 	0.919	0.4028	0.6812	-0.085
Mof_C 	C 	0.837	0.414	0.6414	-0.511
Mof_C 	C 	0.7828	0.4529	0.6529	0.133
Mof_H 	H 	0.7479	0.4463	0.622	-0.041
Mof_C 	C 	0.7845	0.4992	0.7102	-0.178
Mof_H 	H 	0.7498	0.5224	0.7199	0.074
Mof_C 	C 	0.8384	0.3603	0.5826	0.983
Mof_C 	C 	0.8956	0.3257	0.5757	-0.399
Mof_H 	H 	0.9077	0.3077	0.6267	0.18
Mof_H 	H 	0.8907	0.2944	0.5352	0.121
Mof_H 	H 	0.9264	0.3539	0.558	0.112
Mof_C 	C 	0.821	0.3799	0.4997	-0.974
Mof_H 	H 	0.8551	0.3862	0.464	0.342
Mof_H 	H 	0.7944	0.3498	0.4766	0.364
Mof_H 	H 	0.7992	0.4175	0.5063	0.275
Mof_C 	C 	0.7912	0.3178	0.6117	-0.583
Mof_H 	H 	0.7507	0.3324	0.601	0.033
Mof_H 	H 	0.7967	0.2789	0.5858	0.211
Mof_H 	H 	0.797	0.3137	0.6696	0.156
Mof_C 	C 	0.8401	0.4491	0.7829	-0.07
Mof_H 	H 	0.8405	0.4414	0.8389	0.033
Mof_C 	C 	0.8407	0.4	0.7283	0.038
Mof_H 	H 	0.8435	0.36	0.7468	-0.005
Mof_C 	C 	0.8436	0.4678	0.6172	0.189
Mof_H 	H 	0.8488	0.4749	0.5616	-0.062
Mof_C 	C 	0.8435	0.52	0.6735	-0.15
Mof_H 	H 	0.8466	0.5593	0.6528	0.072
Mof_C 	C 	0.857	0.3008	0.6156	-0.531
Mof_H 	H 	0.8289	0.2852	0.6556	0.177
Mof_H 	H 	0.8622	0.2713	0.5728	0.154
Mof_H 	H 	0.8956	0.3086	0.6413	0.049
Mof_C 	C 	0.8847	0.3747	0.5203	-0.543
Mof_H 	H 	0.9263	0.3677	0.5363	0.119
Mof_H 	H 	0.8756	0.351	0.4725	0.143
Mof_H 	H 	0.8791	0.4172	0.5083	0.166
Mof_C 	C 	0.7826	0.3477	0.5356	-0.489
Mof_H 	H 	0.7711	0.3783	0.4966	0.171
Mof_H 	H 	0.787	0.3092	0.5084	0.09
Mof_H 	H 	0.7517	0.3445	0.577	0.246
Mof_Cd	Cd	0.41971	0.98876	0.45911	0.4
Mof_O 	O 	0.41379	0.08212	0.5416	-0.272
Mof_O 	O 	0.3824	0.1775	0.5361	-0.224
Mof_O 	O 	0.3254	0.24326	0.4421	-0.228
Mof_O 	O 	0.28186	0.23605	0.3203	-0.282
Mof_N 	N 	0.36737	0.05636	0.3879	-0.135
Mof_N 	N 	0.3164	0.11701	0.3019	-0.132
Mof_C 	C 	0.3882	0.1241	0.5054	0.271
Mof_C 	C 	0.3115	0.2141	0.3784	0.28
Mof_C 	C 	0.3613	0.1123	0.4235	-0.007
Mof_C 	C 	0.3295	0.1496	0.3715	-0.018
Mof_C 	C 	0.3404	0.0617	0.3142	0.041
Mof_C 	C 	0.339	0.0115	0.2544	0.182
Mof_C 	C 	0.3874	0.9772	0.2416	-0.246
Mof_H 	H 	0.4236	0.9856	0.269	0.112
Mof_C 	C 	0.3847	0.9274	0.1861	0.251
Mof_H 	H 	0.419	0.9028	0.1812	-0.087
Mof_C 	C 	0.337	0.914	0.1414	-0.511
Mof_C 	C 	0.2828	0.9529	0.1529	0.138
Mof_H 	H 	0.2479	0.9463	0.122	-0.043
Mof_C 	C 	0.2845	0.9992	0.2102	-0.185
Mof_H 	H 	0.2498	0.0224	0.2199	0.078
Mof_C 	C 	0.3384	0.8603	0.0826	0.982
Mof_C 	C 	0.3956	0.8257	0.0757	-0.401
Mof_H 	H 	0.4077	0.8077	0.1267	0.177
Mof_H 	H 	0.3907	0.7944	0.0352	0.121
Mof_H 	H 	0.4264	0.8539	0.058	0.115
Mof_C 	C 	0.321	0.8799	0.9997	-0.966
Mof_H 	H 	0.3551	0.8862	0.964	0.34
Mof_H 	H 	0.2944	0.8498	0.9766	0.361
Mof_H 	H 	0.2992	0.9175	0.0063	0.272
Mof_C 	C 	0.2912	0.8178	0.1117	-0.586
Mof_H 	H 	0.2507	0.8324	0.101	0.036
Mof_H 	H 	0.2967	0.7789	0.0858	0.212
Mof_H 	H 	0.297	0.8137	0.1696	0.157
Mof_C 	C 	0.3401	0.9491	0.2829	-0.065
Mof_H 	H 	0.3405	0.9414	0.3389	0.031
Mof_C 	C 	0.3407	0.9	0.2283	0.033
Mof_H 	H 	0.3435	0.86	0.2468	-0.003
Mof_C 	C 	0.3436	0.9678	0.1172	0.183
Mof_H 	H 	0.3488	0.9749	0.0616	-0.061
Mof_C 	C 	0.3435	0.02	0.1735	-0.145
Mof_H 	H 	0.3466	0.0593	0.1528	0.071
Mof_C 	C 	0.357	0.8008	0.1156	-0.528
Mof_H 	H 	0.3289	0.7852	0.1556	0.176
Mof_H 	H 	0.3622	0.7713	0.0728	0.154
Mof_H 	H 	0.3956	0.8086	0.1413	0.051
Mof_C 	C 	0.3847	0.8747	0.0203	-0.545
Mof_H 	H 	0.4263	0.8677	0.0363	0.117
Mof_H 	H 	0.3756	0.851	0.9725	0.144
Mof_H 	H 	0.3791	0.9172	0.0083	0.166
Mof_C 	C 	0.2826	0.8477	0.0356	-0.489
Mof_H 	H 	0.2711	0.8783	0.9966	0.171
Mof_H 	H 	0.287	0.8092	0.0084	0.09
Mof_H 	H 	0.2517	0.8445	0.077	0.243
Mof_Cd	Cd	0.58029	0.51124	0.45911	0.4
Mof_O 	O 	0.58621	0.41788	0.5416	-0.272
Mof_O 	O 	0.6176	0.3225	0.5361	-0.224
Mof_O 	O 	0.6746	0.25674	0.4421	-0.228
Mof_O 	O 	0.71814	0.26395	0.3203	-0.282
Mof_N 	N 	0.63263	0.44364	0.3879	-0.135
Mof_N 	N 	0.6836	0.38299	0.3019	-0.132
Mof_C 	C 	0.6118	0.3759	0.5054	0.271
Mof_C 	C 	0.6885	0.2859	0.3784	0.28
Mof_C 	C 	0.6387	0.3877	0.4235	-0.007
Mof_C 	C 	0.6705	0.3504	0.3715	-0.018
Mof_C 	C 	0.6596	0.4383	0.3142	0.041
Mof_C 	C 	0.661	0.4885	0.2544	0.18
Mof_C 	C 	0.6126	0.5228	0.2416	-0.239
Mof_H 	H 	0.5764	0.5144	0.269	0.11
Mof_C 	C 	0.6153	0.5726	0.1861	0.245
Mof_H 	H 	0.581	0.5972	0.1812	-0.085
Mof_C 	C 	0.663	0.586	0.1414	-0.511
Mof_C 	C 	0.7172	0.5471	0.1529	0.133
Mof_H 	H 	0.7521	0.5537	0.122	-0.041
Mof_C 	C 	0.7155	0.5008	0.2102	-0.178
Mof_H 	H 	0.7502	0.4776	0.2199	0.074
Mof_C 	C 	0.6616	0.6397	0.0826	0.983
Mof_C 	C 	0.6044	0.6743	0.0757	-0.4
Mof_H 	H 	0.5923	0.6923	0.1267	0.179
Mof_H 	H 	0.6093	0.7056	0.0352	0.121
Mof_H 	H 	0.5736	0.6461	0.058	0.113
Mof_C 	C 	0.679	0.6201	0.9997	-0.973
Mof_H 	H 	0.6449	0.6138	0.964	0.341
Mof_H 	H 	0.7056	0.6502	0.9766	0.363
Mof_H 	H 	0.7008	0.5825	0.0063	0.274
Mof_C 	C 	0.7088	0.6822	0.1117	-0.584
Mof_H 	H 	0.7493	0.6676	0.101	0.034
Mof_H 	H 	0.7033	0.7211	0.0858	0.212
Mof_H 	H 	0.703	0.6863	0.1696	0.156
Mof_C 	C 	0.6599	0.5509	0.2829	-0.07
Mof_H 	H 	0.6595	0.5586	0.3389	0.033
Mof_C 	C 	0.6593	0.6	0.2283	0.038
Mof_H 	H 	0.6565	0.64	0.2468	-0.005
Mof_C 	C 	0.6564	0.5322	0.1172	0.189
Mof_H 	H 	0.6512	0.5251	0.0616	-0.062
Mof_C 	C 	0.6565	0.48	0.1735	-0.15
Mof_H 	H 	0.6534	0.4407	0.1528	0.072
Mof_C 	C 	0.643	0.6992	0.1156	-0.53
Mof_H 	H 	0.6711	0.7148	0.1556	0.177
Mof_H 	H 	0.6378	0.7287	0.0728	0.154
Mof_H 	H 	0.6044	0.6914	0.1413	0.05
Mof_C 	C 	0.6153	0.6253	0.0203	-0.544
Mof_H 	H 	0.5737	0.6323	0.0363	0.118
Mof_H 	H 	0.6244	0.649	0.9725	0.143
Mof_H 	H 	0.6209	0.5828	0.0083	0.166
Mof_C 	C 	0.7174	0.6523	0.0356	-0.489
Mof_H 	H 	0.7289	0.6217	0.9966	0.171
Mof_H 	H 	0.713	0.6908	0.0084	0.09
Mof_H 	H 	0.7483	0.6555	0.077	0.245
Mof_Cd	Cd	0.08029	0.01124	0.95911	0.399
Mof_O 	O 	0.08621	0.91788	0.0416	-0.272
Mof_O 	O 	0.1176	0.8225	0.0361	-0.224
Mof_O 	O 	0.1746	0.75674	0.9421	-0.228
Mof_O 	O 	0.21814	0.76395	0.8203	-0.282
Mof_N 	N 	0.13263	0.94364	0.8879	-0.135
Mof_N 	N 	0.1836	0.88299	0.8019	-0.132
Mof_C 	C 	0.1118	0.8759	0.0054	0.27
Mof_C 	C 	0.1885	0.7859	0.8784	0.28
Mof_C 	C 	0.1387	0.8877	0.9235	-0.006
Mof_C 	C 	0.1705	0.8504	0.8715	-0.019
Mof_C 	C 	0.1596	0.9383	0.8142	0.041
Mof_C 	C 	0.161	0.9885	0.7544	0.182
Mof_C 	C 	0.1126	0.0228	0.7416	-0.242
Mof_H 	H 	0.0764	0.0144	0.769	0.111
Mof_C 	C 	0.1153	0.0726	0.6861	0.248
Mof_H 	H 	0.081	0.0972	0.6812	-0.086
Mof_C 	C 	0.163	0.086	0.6414	-0.512
Mof_C 	C 	0.2172	0.0471	0.6529	0.135
Mof_H 	H 	0.2521	0.0537	0.622	-0.041
Mof_C 	C 	0.2155	0.0008	0.7102	-0.181
Mof_H 	H 	0.2502	0.9776	0.7199	0.076
Mof_C 	C 	0.1616	0.1397	0.5826	0.984
Mof_C 	C 	0.1044	0.1743	0.5757	-0.4
Mof_H 	H 	0.0923	0.1923	0.6267	0.18
Mof_H 	H 	0.1093	0.2056	0.5352	0.121
Mof_H 	H 	0.0736	0.1461	0.558	0.112
Mof_C 	C 	0.179	0.1201	0.4997	-0.975
Mof_H 	H 	0.1449	0.1138	0.464	0.342
Mof_H 	H 	0.2056	0.1502	0.4766	0.364
Mof_H 	H 	0.2008	0.0825	0.5063	0.275
Mof_C 	C 	0.2088	0.1822	0.6117	-0.583
Mof_H 	H 	0.2493	0.1676	0.601	0.033
Mof_H 	H 	0.2033	0.2211	0.5858	0.211
Mof_H 	H 	0.203	0.1863	0.6696	0.156
Mof_C 	C 	0.1599	0.0509	0.7829	-0.069
Mof_H 	H 	0.1595	0.0586	0.8389	0.032
Mof_C 	C 	0.1593	0.1	0.7283	0.036
Mof_H 	H 	0.1565	0.14	0.7468	-0.004
Mof_C 	C 	0.1564	0.0322	0.6172	0.187
Mof_H 	H 	0.1512	0.0251	0.5616	-0.062
Mof_C 	C 	0.1565	0.98	0.6735	-0.149
Mof_H 	H 	0.1534	0.9407	0.6528	0.072
Mof_C 	C 	0.143	0.1992	0.6156	-0.531
Mof_H 	H 	0.1711	0.2148	0.6556	0.177
Mof_H 	H 	0.1378	0.2287	0.5728	0.155
Mof_H 	H 	0.1044	0.1914	0.6413	0.049
Mof_C 	C 	0.1153	0.1253	0.5203	-0.543
Mof_H 	H 	0.0737	0.1323	0.5363	0.119
Mof_H 	H 	0.1244	0.149	0.4725	0.143
Mof_H 	H 	0.1209	0.0828	0.5083	0.166
Mof_C 	C 	0.2174	0.1523	0.5356	-0.489
Mof_H 	H 	0.2289	0.1217	0.4966	0.171
Mof_H 	H 	0.213	0.1908	0.5084	0.09
Mof_H 	H 	0.2483	0.1555	0.577	0.246
Mof_Cd	Cd	0.76124	0.66971	0.70911	0.4
Mof_O 	O 	0.66788	0.66379	0.7916	-0.272
Mof_O 	O 	0.5725	0.6324	0.7861	-0.224
Mof_O 	O 	0.50674	0.5754	0.6921	-0.228
Mof_O 	O 	0.51395	0.53186	0.5703	-0.282
Mof_N 	N 	0.69364	0.61737	0.6379	-0.135
Mof_N 	N 	0.63299	0.5664	0.5519	-0.132
Mof_C 	C 	0.6259	0.6382	0.7554	0.271
Mof_C 	C 	0.5359	0.5615	0.6284	0.28
Mof_C 	C 	0.6377	0.6113	0.6735	-0.007
Mof_C 	C 	0.6004	0.5795	0.6215	-0.019
Mof_C 	C 	0.6883	0.5904	0.5642	0.041
Mof_C 	C 	0.7385	0.589	0.5044	0.179
Mof_C 	C 	0.7728	0.6374	0.4916	-0.239
Mof_H 	H 	0.7644	0.6736	0.519	0.11
Mof_C 	C 	0.8226	0.6347	0.4361	0.245
Mof_H 	H 	0.8472	0.669	0.4312	-0.085
Mof_C 	C 	0.836	0.587	0.3914	-0.511
Mof_C 	C 	0.7971	0.5328	0.4029	0.133
Mof_H 	H 	0.8037	0.4979	0.372	-0.041
Mof_C 	C 	0.7508	0.5345	0.4602	-0.178
Mof_H 	H 	0.7276	0.4998	0.4699	0.074
Mof_C 	C 	0.8897	0.5884	0.3326	0.983
Mof_C 	C 	0.9243	0.6456	0.3257	-0.399
Mof_H 	H 	0.9423	0.6577	0.3767	0.18
Mof_H 	H 	0.9556	0.6407	0.2852	0.121
Mof_H 	H 	0.8961	0.6764	0.308	0.112
Mof_C 	C 	0.8701	0.571	0.2497	-0.974
Mof_H 	H 	0.8638	0.6051	0.214	0.342
Mof_H 	H 	0.9002	0.5444	0.2266	0.364
Mof_H 	H 	0.8325	0.5492	0.2563	0.275
Mof_C 	C 	0.9322	0.5412	0.3617	-0.583
Mof_H 	H 	0.9176	0.5007	0.351	0.033
Mof_H 	H 	0.9711	0.5467	0.3358	0.211
Mof_H 	H 	0.9363	0.547	0.4196	0.156
Mof_C 	C 	0.8009	0.5901	0.5329	-0.069
Mof_H 	H 	0.8086	0.5905	0.5889	0.033
Mof_C 	C 	0.85	0.5907	0.4783	0.038
Mof_H 	H 	0.89	0.5935	0.4968	-0.005
Mof_C 	C 	0.7822	0.5936	0.3672	0.189
Mof_H 	H 	0.7751	0.5988	0.3116	-0.062
Mof_C 	C 	0.73	0.5935	0.4235	-0.15
Mof_H 	H 	0.6907	0.5966	0.4028	0.072
Mof_C 	C 	0.9492	0.607	0.3656	-0.531
Mof_H 	H 	0.9648	0.5789	0.4056	0.177
Mof_H 	H 	0.9787	0.6122	0.3228	0.154
Mof_H 	H 	0.9414	0.6456	0.3913	0.049
Mof_C 	C 	0.8753	0.6347	0.2703	-0.543
Mof_H 	H 	0.8823	0.6763	0.2863	0.119
Mof_H 	H 	0.899	0.6256	0.2225	0.143
Mof_H 	H 	0.8328	0.6291	0.2583	0.166
Mof_C 	C 	0.9023	0.5326	0.2856	-0.489
Mof_H 	H 	0.8717	0.5211	0.2466	0.171
Mof_H 	H 	0.9408	0.537	0.2584	0.09
Mof_H 	H 	0.9055	0.5017	0.327	0.246
Mof_Cd	Cd	0.26124	0.16971	0.20911	0.4
Mof_O 	O 	0.16788	0.16379	0.2916	-0.272
Mof_O 	O 	0.0725	0.1324	0.2861	-0.224
Mof_O 	O 	0.00674	0.0754	0.1921	-0.227
Mof_O 	O 	0.01395	0.03186	0.0703	-0.282
Mof_N 	N 	0.19364	0.11737	0.1379	-0.135
Mof_N 	N 	0.13299	0.0664	0.0519	-0.132
Mof_C 	C 	0.1259	0.1382	0.2554	0.271
Mof_C 	C 	0.0359	0.0615	0.1284	0.28
Mof_C 	C 	0.1377	0.1113	0.1735	-0.007
Mof_C 	C 	0.1004	0.0795	0.1215	-0.018
Mof_C 	C 	0.1883	0.0904	0.0642	0.04
Mof_C 	C 	0.2385	0.089	0.0044	0.185
Mof_C 	C 	0.2728	0.1374	0.9916	-0.254
Mof_H 	H 	0.2644	0.1736	0.019	0.115
Mof_C 	C 	0.3226	0.1347	0.9361	0.258
Mof_H 	H 	0.3472	0.169	0.9312	-0.089
Mof_C 	C 	0.336	0.087	0.8914	-0.513
Mof_C 	C 	0.2971	0.0328	0.9029	0.14
Mof_H 	H 	0.3037	0.9979	0.872	-0.042
Mof_C 	C 	0.2508	0.0345	0.9602	-0.188
Mof_H 	H 	0.2276	0.9998	0.9699	0.079
Mof_C 	C 	0.3897	0.0884	0.8326	0.985
Mof_C 	C 	0.4243	0.1456	0.8257	-0.4
Mof_H 	H 	0.4423	0.1577	0.8767	0.18
Mof_H 	H 	0.4556	0.1407	0.7852	0.121
Mof_H 	H 	0.3961	0.1764	0.808	0.112
Mof_C 	C 	0.3701	0.071	0.7497	-0.975
Mof_H 	H 	0.3638	0.1051	0.714	0.342
Mof_H 	H 	0.4002	0.0444	0.7266	0.364
Mof_H 	H 	0.3325	0.0492	0.7563	0.275
Mof_C 	C 	0.4322	0.0412	0.8617	-0.583
Mof_H 	H 	0.4176	0.0007	0.851	0.033
Mof_H 	H 	0.4711	0.0467	0.8358	0.212
Mof_H 	H 	0.4363	0.047	0.9196	0.156
Mof_C 	C 	0.3009	0.0901	0.0329	-0.059
Mof_H 	H 	0.3086	0.0905	0.0889	0.029
Mof_C 	C 	0.35	0.0907	0.9783	0.027
Mof_H 	H 	0.39	0.0935	0.9968	-0.001
Mof_C 	C 	0.2822	0.0936	0.8672	0.183
Mof_H 	H 	0.2751	0.0988	0.8116	-0.061
Mof_C 	C 	0.23	0.0935	0.9235	-0.146
Mof_H 	H 	0.1907	0.0966	0.9028	0.07
Mof_C 	C 	0.4492	0.107	0.8656	-0.531
Mof_H 	H 	0.4648	0.0789	0.9056	0.177
Mof_H 	H 	0.4787	0.1122	0.8228	0.155
Mof_H 	H 	0.4414	0.1456	0.8913	0.049
Mof_C 	C 	0.3753	0.1347	0.7703	-0.543
Mof_H 	H 	0.3823	0.1763	0.7863	0.119
Mof_H 	H 	0.399	0.1256	0.7225	0.143
Mof_H 	H 	0.3328	0.1291	0.7583	0.166
Mof_C 	C 	0.4023	0.0326	0.7856	-0.489
Mof_H 	H 	0.3717	0.0211	0.7466	0.171
Mof_H 	H 	0.4408	0.037	0.7584	0.09
Mof_H 	H 	0.4055	0.0017	0.827	0.246
Mof_Cd	Cd	0.73876	0.33029	0.20911	0.4
Mof_O 	O 	0.83212	0.33621	0.2916	-0.272
Mof_O 	O 	0.9275	0.3676	0.2861	-0.224
Mof_O 	O 	0.99326	0.4246	0.1921	-0.228
Mof_O 	O 	0.98605	0.46814	0.0703	-0.282
Mof_N 	N 	0.80636	0.38263	0.1379	-0.135
Mof_N 	N 	0.86701	0.4336	0.0519	-0.132
Mof_C 	C 	0.8741	0.3618	0.2554	0.271
Mof_C 	C 	0.9641	0.4385	0.1284	0.28
Mof_C 	C 	0.8623	0.3887	0.1735	-0.007
Mof_C 	C 	0.8996	0.4205	0.1215	-0.019
Mof_C 	C 	0.8117	0.4096	0.0642	0.041
Mof_C 	C 	0.7615	0.411	0.0044	0.181
Mof_C 	C 	0.7272	0.3626	0.9916	-0.244
Mof_H 	H 	0.7356	0.3264	0.019	0.112
Mof_C 	C 	0.6774	0.3653	0.9361	0.249
Mof_H 	H 	0.6528	0.331	0.9312	-0.086
Mof_C 	C 	0.664	0.413	0.8914	-0.512
Mof_C 	C 	0.7029	0.4672	0.9029	0.135
Mof_H 	H 	0.6963	0.5021	0.872	-0.041
Mof_C 	C 	0.7492	0.4655	0.9602	-0.18
Mof_H 	H 	0.7724	0.5002	0.9699	0.075
Mof_C 	C 	0.6103	0.4116	0.8326	0.984
Mof_C 	C 	0.5757	0.3544	0.8257	-0.4
Mof_H 	H 	0.5577	0.3423	0.8767	0.18
Mof_H 	H 	0.5444	0.3593	0.7852	0.121
Mof_H 	H 	0.6039	0.3236	0.808	0.112
Mof_C 	C 	0.6299	0.429	0.7497	-0.975
Mof_H 	H 	0.6362	0.3949	0.714	0.342
Mof_H 	H 	0.5998	0.4556	0.7266	0.364
Mof_H 	H 	0.6675	0.4508	0.7563	0.275
Mof_C 	C 	0.5678	0.4588	0.8617	-0.583
Mof_H 	H 	0.5824	0.4993	0.851	0.033
Mof_H 	H 	0.5289	0.4533	0.8358	0.211
Mof_H 	H 	0.5637	0.453	0.9196	0.156
Mof_C 	C 	0.6991	0.4099	0.0329	-0.066
Mof_H 	H 	0.6914	0.4095	0.0889	0.031
Mof_C 	C 	0.65	0.4093	0.9783	0.034
Mof_H 	H 	0.61	0.4065	0.9968	-0.004
Mof_C 	C 	0.7178	0.4064	0.8672	0.187
Mof_H 	H 	0.7249	0.4012	0.8116	-0.062
Mof_C 	C 	0.77	0.4065	0.9235	-0.149
Mof_H 	H 	0.8093	0.4034	0.9028	0.071
Mof_C 	C 	0.5508	0.393	0.8656	-0.531
Mof_H 	H 	0.5352	0.4211	0.9056	0.177
Mof_H 	H 	0.5213	0.3878	0.8228	0.155
Mof_H 	H 	0.5586	0.3544	0.8913	0.049
Mof_C 	C 	0.6247	0.3653	0.7703	-0.543
Mof_H 	H 	0.6177	0.3237	0.7863	0.119
Mof_H 	H 	0.601	0.3744	0.7225	0.143
Mof_H 	H 	0.6672	0.3709	0.7583	0.166
Mof_C 	C 	0.5977	0.4674	0.7856	-0.489
Mof_H 	H 	0.6283	0.4789	0.7466	0.171
Mof_H 	H 	0.5592	0.463	0.7584	0.09
Mof_H 	H 	0.5945	0.4983	0.827	0.246
Mof_Cd	Cd	0.23876	0.83029	0.70911	0.4
Mof_O 	O 	0.33212	0.83621	0.7916	-0.272
Mof_O 	O 	0.4275	0.8676	0.7861	-0.223
Mof_O 	O 	0.49326	0.9246	0.6921	-0.228
Mof_O 	O 	0.48605	0.96814	0.5703	-0.282
Mof_N 	N 	0.30636	0.88263	0.6379	-0.135
Mof_N 	N 	0.36701	0.9336	0.5519	-0.132
Mof_C 	C 	0.3741	0.8618	0.7554	0.271
Mof_C 	C 	0.4641	0.9385	0.6284	0.28
Mof_C 	C 	0.3623	0.8887	0.6735	-0.007
Mof_C 	C 	0.3996	0.9205	0.6215	-0.018
Mof_C 	C 	0.3117	0.9096	0.5642	0.041
Mof_C 	C 	0.2615	0.911	0.5044	0.179
Mof_C 	C 	0.2272	0.8626	0.4916	-0.238
Mof_H 	H 	0.2356	0.8264	0.519	0.109
Mof_C 	C 	0.1774	0.8653	0.4361	0.244
Mof_H 	H 	0.1528	0.831	0.4312	-0.084
Mof_C 	C 	0.164	0.913	0.3914	-0.51
Mof_C 	C 	0.2029	0.9672	0.4029	0.132
Mof_H 	H 	0.1963	0.0021	0.372	-0.04
Mof_C 	C 	0.2492	0.9655	0.4602	-0.177
Mof_H 	H 	0.2724	0.0002	0.4699	0.074
Mof_C 	C 	0.1103	0.9116	0.3326	0.982
Mof_C 	C 	0.0757	0.8544	0.3257	-0.399
Mof_H 	H 	0.0577	0.8423	0.3767	0.18
Mof_H 	H 	0.0444	0.8593	0.2852	0.12
Mof_H 	H 	0.1039	0.8236	0.308	0.112
Mof_C 	C 	0.1299	0.929	0.2497	-0.973
Mof_H 	H 	0.1362	0.8949	0.214	0.342
Mof_H 	H 	0.0998	0.9556	0.2266	0.363
Mof_H 	H 	0.1675	0.9508	0.2563	0.275
Mof_C 	C 	0.0678	0.9588	0.3617	-0.582
Mof_H 	H 	0.0824	0.9993	0.351	0.033
Mof_H 	H 	0.0289	0.9533	0.3358	0.211
Mof_H 	H 	0.0637	0.953	0.4196	0.156
Mof_C 	C 	0.1991	0.9099	0.5329	-0.07
Mof_H 	H 	0.1914	0.9095	0.5889	0.033
Mof_C 	C 	0.15	0.9093	0.4783	0.038
Mof_H 	H 	0.11	0.9065	0.4968	-0.005
Mof_C 	C 	0.2178	0.9064	0.3672	0.189
Mof_H 	H 	0.2249	0.9012	0.3116	-0.063
Mof_C 	C 	0.27	0.9065	0.4235	-0.151
Mof_H 	H 	0.3093	0.9034	0.4028	0.072
Mof_C 	C 	0.0508	0.893	0.3656	-0.53
Mof_H 	H 	0.0352	0.9211	0.4056	0.177
Mof_H 	H 	0.0213	0.8878	0.3228	0.154
Mof_H 	H 	0.0586	0.8544	0.3913	0.049
Mof_C 	C 	0.1247	0.8653	0.2703	-0.543
Mof_H 	H 	0.1177	0.8237	0.2863	0.119
Mof_H 	H 	0.101	0.8744	0.2225	0.143
Mof_H 	H 	0.1672	0.8709	0.2583	0.166
Mof_C 	C 	0.0977	0.9674	0.2856	-0.489
Mof_H 	H 	0.1283	0.9789	0.2466	0.17
Mof_H 	H 	0.0592	0.963	0.2584	0.09
Mof_H 	H 	0.0945	0.9983	0.327	0.246
_end
