# CIF file generated by openbabel 3.1.0, see https://openbabel.org
data_I
_chemical_name_common 'image0'
_cell_length_a 18.9701
_cell_length_b 18.9701
_cell_length_c 16.74
_cell_angle_alpha 90
_cell_angle_beta 90
_cell_angle_gamma 90
_space_group_name_H-M_alt 'P 1'
_space_group_name_Hall 'P 1'
loop_
    _symmetry_equiv_pos_as_xyz
    x,y,z
loop_
    _atom_site_label
    _atom_site_type_symbol
    _atom_site_fract_x
    _atom_site_fract_y
    _atom_site_fract_z
    _atom_site_occupancy
    Zn1      Zn       0.60549    0.17336    0.17924    1.000
    C1       C        0.63980    0.30920    0.26560    1.000
    H1       H        0.60270    0.30580    0.30180    1.000
    C2       C        0.63820    0.03260    0.25050    1.000
    H2       H        0.60470    0.01060    0.21840    1.000
    C3       C        0.69920    0.10930    0.30660    1.000
    H3       H        0.71800    0.15250    0.32210    1.000
    C4       C        0.68120    0.10880    0.04220    1.000
    H4       H        0.71250    0.08450    0.07480    1.000
    C5       C        0.71730    0.04730    0.33770    1.000
    H5       H        0.75080    0.03960    0.37730    1.000
    N1       N        0.65220    0.26460    0.20440    1.000
    N2       N        0.64920    0.10060    0.24880    1.000
    N3       N        0.62800    0.14990    0.06710    1.000
    N4       N        0.67790    0.99790    0.30080    1.000
    Zn2      Zn       0.39451    0.82664    0.17924    1.000
    C6       C        0.36020    0.69080    0.26560    1.000
    H6       H        0.39730    0.69420    0.30180    1.000
    C7       C        0.36180    0.96740    0.25050    1.000
    H7       H        0.39530    0.98940    0.21840    1.000
    C8       C        0.30080    0.89070    0.30660    1.000
    H8       H        0.28200    0.84750    0.32210    1.000
    C9       C        0.31880    0.89120    0.04220    1.000
    H9       H        0.28750    0.91550    0.07480    1.000
    C10      C        0.28270    0.95270    0.33770    1.000
    H10      H        0.24920    0.96040    0.37730    1.000
    N5       N        0.34780    0.73540    0.20440    1.000
    N6       N        0.35080    0.89940    0.24880    1.000
    N7       N        0.37200    0.85010    0.06710    1.000
    N8       N        0.32210    0.00210    0.30080    1.000
    Zn3      Zn       0.32664    0.10549    0.67924    1.000
    C11      C        0.19080    0.13980    0.76560    1.000
    H11      H        0.19420    0.10270    0.80180    1.000
    C12      C        0.46740    0.13820    0.75050    1.000
    H12      H        0.48940    0.10470    0.71840    1.000
    C13      C        0.39070    0.19920    0.80660    1.000
    H13      H        0.34750    0.21800    0.82210    1.000
    C14      C        0.39120    0.18120    0.54220    1.000
    H14      H        0.41550    0.21250    0.57480    1.000
    C15      C        0.45270    0.21730    0.83770    1.000
    H15      H        0.46040    0.25080    0.87730    1.000
    N9       N        0.23540    0.15220    0.70440    1.000
    N10      N        0.39940    0.14920    0.74880    1.000
    N11      N        0.35010    0.12800    0.56710    1.000
    N12      N        0.50210    0.17790    0.80080    1.000
    Zn4      Zn       0.67336    0.89451    0.67924    1.000
    C16      C        0.80920    0.86020    0.76560    1.000
    H16      H        0.80580    0.89730    0.80180    1.000
    C17      C        0.53260    0.86180    0.75050    1.000
    H17      H        0.51060    0.89530    0.71840    1.000
    C18      C        0.60930    0.80080    0.80660    1.000
    H18      H        0.65250    0.78200    0.82210    1.000
    C19      C        0.60880    0.81880    0.54220    1.000
    H19      H        0.58450    0.78750    0.57480    1.000
    C20      C        0.54730    0.78270    0.83770    1.000
    H20      H        0.53960    0.74920    0.87730    1.000
    N13      N        0.76460    0.84780    0.70440    1.000
    N14      N        0.60060    0.85080    0.74880    1.000
    N15      N        0.64990    0.87200    0.56710    1.000
    N16      N        0.49790    0.82210    0.80080    1.000
    Zn5      Zn       0.89451    0.67336    0.32076    1.000
    C21      C        0.86020    0.80920    0.23440    1.000
    H21      H        0.89730    0.80580    0.19820    1.000
    C22      C        0.86180    0.53260    0.24950    1.000
    H22      H        0.89530    0.51060    0.28160    1.000
    C23      C        0.80080    0.60930    0.19340    1.000
    H23      H        0.78200    0.65250    0.17790    1.000
    C24      C        0.81880    0.60880    0.45780    1.000
    H24      H        0.78750    0.58450    0.42520    1.000
    C25      C        0.78270    0.54730    0.16230    1.000
    H25      H        0.74920    0.53960    0.12270    1.000
    N17      N        0.84780    0.76460    0.29560    1.000
    N18      N        0.85080    0.60060    0.25120    1.000
    N19      N        0.87200    0.64990    0.43290    1.000
    N20      N        0.82210    0.49790    0.19920    1.000
    Zn6      Zn       0.10549    0.32664    0.32076    1.000
    C26      C        0.13980    0.19080    0.23440    1.000
    H26      H        0.10270    0.19420    0.19820    1.000
    C27      C        0.13820    0.46740    0.24950    1.000
    H27      H        0.10470    0.48940    0.28160    1.000
    C28      C        0.19920    0.39070    0.19340    1.000
    H28      H        0.21800    0.34750    0.17790    1.000
    C29      C        0.18120    0.39120    0.45780    1.000
    H29      H        0.21250    0.41550    0.42520    1.000
    C30      C        0.21730    0.45270    0.16230    1.000
    H30      H        0.25080    0.46040    0.12270    1.000
    N21      N        0.15220    0.23540    0.29560    1.000
    N22      N        0.14920    0.39940    0.25120    1.000
    N23      N        0.12800    0.35010    0.43290    1.000
    N24      N        0.17790    0.50210    0.19920    1.000
    Zn7      Zn       0.17336    0.60549    0.82076    1.000
    C31      C        0.30920    0.63980    0.73440    1.000
    H31      H        0.30580    0.60270    0.69820    1.000
    C32      C        0.03260    0.63820    0.74950    1.000
    H32      H        0.01060    0.60470    0.78160    1.000
    C33      C        0.10930    0.69920    0.69340    1.000
    H33      H        0.15250    0.71800    0.67790    1.000
    C34      C        0.10880    0.68120    0.95780    1.000
    H34      H        0.08450    0.71250    0.92520    1.000
    C35      C        0.04730    0.71730    0.66230    1.000
    H35      H        0.03960    0.75080    0.62270    1.000
    N25      N        0.26460    0.65220    0.79560    1.000
    N26      N        0.10060    0.64920    0.75120    1.000
    N27      N        0.14990    0.62800    0.93290    1.000
    N28      N        0.99790    0.67790    0.69920    1.000
    Zn8      Zn       0.82664    0.39451    0.82076    1.000
    C36      C        0.69080    0.36020    0.73440    1.000
    H36      H        0.69420    0.39730    0.69820    1.000
    C37      C        0.96740    0.36180    0.74950    1.000
    H37      H        0.98940    0.39530    0.78160    1.000
    C38      C        0.89070    0.30080    0.69340    1.000
    H38      H        0.84750    0.28200    0.67790    1.000
    C39      C        0.89120    0.31880    0.95780    1.000
    H39      H        0.91550    0.28750    0.92520    1.000
    C40      C        0.95270    0.28270    0.66230    1.000
    H40      H        0.96040    0.24920    0.62270    1.000
    N29      N        0.73540    0.34780    0.79560    1.000
    N30      N        0.89940    0.35080    0.75120    1.000
    N31      N        0.85010    0.37200    0.93290    1.000
    N32      N        0.00210    0.32210    0.69920    1.000
    Zn9      Zn       0.39451    0.82664    0.82076    1.000
    C41      C        0.36020    0.69080    0.73440    1.000
    H41      H        0.39730    0.69420    0.69820    1.000
    C42      C        0.36180    0.96740    0.74950    1.000
    H42      H        0.39530    0.98940    0.78160    1.000
    C43      C        0.30080    0.89070    0.69340    1.000
    H43      H        0.28200    0.84750    0.67790    1.000
    C44      C        0.31880    0.89120    0.95780    1.000
    H44      H        0.28750    0.91550    0.92520    1.000
    C45      C        0.28270    0.95270    0.66230    1.000
    H45      H        0.24920    0.96040    0.62270    1.000
    N33      N        0.34780    0.73540    0.79560    1.000
    N34      N        0.35080    0.89940    0.75120    1.000
    N35      N        0.37200    0.85010    0.93290    1.000
    N36      N        0.32210    0.00210    0.69920    1.000
    Zn10     Zn       0.60549    0.17336    0.82076    1.000
    C46      C        0.63980    0.30920    0.73440    1.000
    H46      H        0.60270    0.30580    0.69820    1.000
    C47      C        0.63820    0.03260    0.74950    1.000
    H47      H        0.60470    0.01060    0.78160    1.000
    C48      C        0.69920    0.10930    0.69340    1.000
    H48      H        0.71800    0.15250    0.67790    1.000
    C49      C        0.68120    0.10880    0.95780    1.000
    H49      H        0.71250    0.08450    0.92520    1.000
    C50      C        0.71730    0.04730    0.66230    1.000
    H50      H        0.75080    0.03960    0.62270    1.000
    N37      N        0.65220    0.26460    0.79560    1.000
    N38      N        0.64920    0.10060    0.75120    1.000
    N39      N        0.62800    0.14990    0.93290    1.000
    N40      N        0.67790    0.99790    0.69920    1.000
    Zn11     Zn       0.67336    0.89451    0.32076    1.000
    C51      C        0.80920    0.86020    0.23440    1.000
    H51      H        0.80580    0.89730    0.19820    1.000
    C52      C        0.53260    0.86180    0.24950    1.000
    H52      H        0.51060    0.89530    0.28160    1.000
    C53      C        0.60930    0.80080    0.19340    1.000
    H53      H        0.65250    0.78200    0.17790    1.000
    C54      C        0.60880    0.81880    0.45780    1.000
    H54      H        0.58450    0.78750    0.42520    1.000
    C55      C        0.54730    0.78270    0.16230    1.000
    H55      H        0.53960    0.74920    0.12270    1.000
    N41      N        0.76460    0.84780    0.29560    1.000
    N42      N        0.60060    0.85080    0.25120    1.000
    N43      N        0.64990    0.87200    0.43290    1.000
    N44      N        0.49790    0.82210    0.19920    1.000
    Zn12     Zn       0.32664    0.10549    0.32076    1.000
    C56      C        0.19080    0.13980    0.23440    1.000
    H56      H        0.19420    0.10270    0.19820    1.000
    C57      C        0.46740    0.13820    0.24950    1.000
    H57      H        0.48940    0.10470    0.28160    1.000
    C58      C        0.39070    0.19920    0.19340    1.000
    H58      H        0.34750    0.21800    0.17790    1.000
    C59      C        0.39120    0.18120    0.45780    1.000
    H59      H        0.41550    0.21250    0.42520    1.000
    C60      C        0.45270    0.21730    0.16230    1.000
    H60      H        0.46040    0.25080    0.12270    1.000
    N45      N        0.23540    0.15220    0.29560    1.000
    N46      N        0.39940    0.14920    0.25120    1.000
    N47      N        0.35010    0.12800    0.43290    1.000
    N48      N        0.50210    0.17790    0.19920    1.000
    Zn13     Zn       0.10549    0.32664    0.67924    1.000
    C61      C        0.13980    0.19080    0.76560    1.000
    H61      H        0.10270    0.19420    0.80180    1.000
    C62      C        0.13820    0.46740    0.75050    1.000
    H62      H        0.10470    0.48940    0.71840    1.000
    C63      C        0.19920    0.39070    0.80660    1.000
    H63      H        0.21800    0.34750    0.82210    1.000
    C64      C        0.18120    0.39120    0.54220    1.000
    H64      H        0.21250    0.41550    0.57480    1.000
    C65      C        0.21730    0.45270    0.83770    1.000
    H65      H        0.25080    0.46040    0.87730    1.000
    N49      N        0.15220    0.23540    0.70440    1.000
    N50      N        0.14920    0.39940    0.74880    1.000
    N51      N        0.12800    0.35010    0.56710    1.000
    N52      N        0.17790    0.50210    0.80080    1.000
    Zn14     Zn       0.89451    0.67336    0.67924    1.000
    C66      C        0.86020    0.80920    0.76560    1.000
    H66      H        0.89730    0.80580    0.80180    1.000
    C67      C        0.86180    0.53260    0.75050    1.000
    H67      H        0.89530    0.51060    0.71840    1.000
    C68      C        0.80080    0.60930    0.80660    1.000
    H68      H        0.78200    0.65250    0.82210    1.000
    C69      C        0.81880    0.60880    0.54220    1.000
    H69      H        0.78750    0.58450    0.57480    1.000
    C70      C        0.78270    0.54730    0.83770    1.000
    H70      H        0.74920    0.53960    0.87730    1.000
    N53      N        0.84780    0.76460    0.70440    1.000
    N54      N        0.85080    0.60060    0.74880    1.000
    N55      N        0.87200    0.64990    0.56710    1.000
    N56      N        0.82210    0.49790    0.80080    1.000
    Zn15     Zn       0.82664    0.39451    0.17924    1.000
    C71      C        0.69080    0.36020    0.26560    1.000
    H71      H        0.69420    0.39730    0.30180    1.000
    C72      C        0.96740    0.36180    0.25050    1.000
    H72      H        0.98940    0.39530    0.21840    1.000
    C73      C        0.89070    0.30080    0.30660    1.000
    H73      H        0.84750    0.28200    0.32210    1.000
    C74      C        0.89120    0.31880    0.04220    1.000
    H74      H        0.91550    0.28750    0.07480    1.000
    C75      C        0.95270    0.28270    0.33770    1.000
    H75      H        0.96040    0.24920    0.37730    1.000
    N57      N        0.73540    0.34780    0.20440    1.000
    N58      N        0.89940    0.35080    0.24880    1.000
    N59      N        0.85010    0.37200    0.06710    1.000
    N60      N        0.00210    0.32210    0.30080    1.000
    Zn16     Zn       0.17336    0.60549    0.17924    1.000
    C76      C        0.30920    0.63980    0.26560    1.000
    H76      H        0.30580    0.60270    0.30180    1.000
    C77      C        0.03260    0.63820    0.25050    1.000
    H77      H        0.01060    0.60470    0.21840    1.000
    C78      C        0.10930    0.69920    0.30660    1.000
    H78      H        0.15250    0.71800    0.32210    1.000
    C79      C        0.10880    0.68120    0.04220    1.000
    H79      H        0.08450    0.71250    0.07480    1.000
    C80      C        0.04730    0.71730    0.33770    1.000
    H80      H        0.03960    0.75080    0.37730    1.000
    N61      N        0.26460    0.65220    0.20440    1.000
    N62      N        0.10060    0.64920    0.24880    1.000
    N63      N        0.14990    0.62800    0.06710    1.000
    N64      N        0.99790    0.67790    0.30080    1.000
    C81      C        0.71070    0.28930    0.17270    1.000
    H81      H        0.73320    0.26680    0.13050    1.000
    C82      C        0.28930    0.71070    0.17270    1.000
    H82      H        0.26680    0.73320    0.13050    1.000
    C83      C        0.21070    0.21070    0.67270    1.000
    H83      H        0.23320    0.23320    0.63050    1.000
    C84      C        0.78930    0.78930    0.67270    1.000
    H84      H        0.76680    0.76680    0.63050    1.000
    C85      C        0.78930    0.78930    0.32730    1.000
    H85      H        0.76680    0.76680    0.36950    1.000
    C86      C        0.21070    0.21070    0.32730    1.000
    H86      H        0.23320    0.23320    0.36950    1.000
    C87      C        0.28930    0.71070    0.82730    1.000
    H87      H        0.26680    0.73320    0.86950    1.000
    C88      C        0.71070    0.28930    0.82730    1.000
    H88      H        0.73320    0.26680    0.86950    1.000
    C89      C        0.59710    0.17110    0.00000    1.000
    H89      H        0.55670    0.19890    0.00000    1.000
    C90      C        0.40290    0.82890    0.00000    1.000
    H90      H        0.44330    0.80110    0.00000    1.000
    C91      C        0.32890    0.09710    0.50000    1.000
    H91      H        0.30110    0.05670    0.50000    1.000
    C92      C        0.67110    0.90290    0.50000    1.000
    H92      H        0.69890    0.94330    0.50000    1.000
    C93      C        0.90290    0.67110    0.50000    1.000
    H93      H        0.94330    0.69890    0.50000    1.000
    C94      C        0.09710    0.32890    0.50000    1.000
    H94      H        0.05670    0.30110    0.50000    1.000
    C95      C        0.17110    0.59710    0.00000    1.000
    H95      H        0.19890    0.55670    0.00000    1.000
    C96      C        0.82890    0.40290    0.00000    1.000
    H96      H        0.80110    0.44330    0.00000    1.000
