# CIF file generated by openbabel 3.1.0, see https://openbabel.org
data_I
_chemical_name_common 'image0'
_cell_length_a 10.0338
_cell_length_b 8.2827
_cell_length_c 11.1583
_cell_angle_alpha 90
_cell_angle_beta 90
_cell_angle_gamma 90
_space_group_name_H-M_alt 'P 1'
_space_group_name_Hall 'P 1'
loop_
    _symmetry_equiv_pos_as_xyz
    x,y,z
loop_
    _atom_site_label
    _atom_site_type_symbol
    _atom_site_fract_x
    _atom_site_fract_y
    _atom_site_fract_z
    _atom_site_occupancy
    Cu1      Cu       0.20437    0.00118    0.26844    1.000
    O1       O        0.01490    0.09830    0.18570    1.000
    O2       O        0.87190    0.30150    0.16840    1.000
    O3       O        0.18280    0.10790    0.42870    1.000
    O4       O        0.24280    0.11510    0.61960    1.000
    C1       C        0.96950    0.23210    0.21720    1.000
    H1       H        0.01150    0.28520    0.28260    1.000
    C2       C        0.23050    0.04160    0.52140    1.000
    H2       H        0.25810    0.93200    0.51670    1.000
    Cu2      Cu       0.29563    0.99882    0.76844    1.000
    O5       O        0.48510    0.90170    0.68570    1.000
    O6       O        0.62810    0.69850    0.66840    1.000
    O7       O        0.31720    0.89210    0.92870    1.000
    O8       O        0.25720    0.88490    0.11960    1.000
    C3       C        0.53050    0.76790    0.71720    1.000
    H3       H        0.48850    0.71480    0.78260    1.000
    C4       C        0.26950    0.95840    0.02140    1.000
    H4       H        0.24190    0.06800    0.01670    1.000
    Cu3      Cu       0.79563    0.50118    0.23156    1.000
    O9       O        0.98510    0.59830    0.31430    1.000
    O10      O        0.12810    0.80150    0.33160    1.000
    O11      O        0.81720    0.60790    0.07130    1.000
    O12      O        0.75720    0.61510    0.88040    1.000
    C5       C        0.03050    0.73210    0.28280    1.000
    H5       H        0.98850    0.78520    0.21740    1.000
    C6       C        0.76950    0.54160    0.97860    1.000
    H6       H        0.74190    0.43200    0.98330    1.000
    Cu4      Cu       0.70437    0.49882    0.73156    1.000
    O13      O        0.51490    0.40170    0.81430    1.000
    O14      O        0.37190    0.19850    0.83160    1.000
    O15      O        0.68280    0.39210    0.57130    1.000
    O16      O        0.74280    0.38490    0.38040    1.000
    C7       C        0.46950    0.26790    0.78280    1.000
    H7       H        0.51150    0.21480    0.71740    1.000
    C8       C        0.73050    0.45840    0.47860    1.000
    H8       H        0.75810    0.56800    0.48330    1.000
