data_functionalizedCrystal
_audit_creation_method	'EQeq! by Chris Wilmer'
_symmetry_space_group_name_H-M	'P1'
_symmetry_Int_Tables_number	1
_symmetry_cell_setting	triclinic
loop_
_symmetry_equiv_pos_as_xyz
  x,y,z
_cell_length_a	10.1964
_cell_length_b	17.686
_cell_length_c	17.686
_cell_angle_alpha	120
_cell_angle_beta	90
_cell_angle_gamma	90
loop_
_atom_site_label
_atom_site_type_symbol
_atom_site_fract_x
_atom_site_fract_y
_atom_site_fract_z
_atom_site_charge
Mof_Zn	Zn	0.98621	0.45883	0.53331	1.162
Mof_Zn	Zn	0.65288	0.07448	0.54117	1.168
Mof_Zn	Zn	0.31954	0.46669	0.92552	1.17
Mof_Zn	Zn	0.48621	0.54117	0.46669	1.17
Mof_Zn	Zn	0.15288	0.92552	0.45883	1.175
Mof_Zn	Zn	0.81954	0.53331	0.07448	1.165
Mof_H 	H 	0.2046	0.328	0.436	-0.048
Mof_H 	H 	0.2586	0.1853	0.3919	0.088
Mof_H 	H 	0.9217	0.1627	0.4909	0.081
Mof_H 	H 	0.8745	0.3064	0.5324	-0.027
Mof_H 	H 	0.0717	0.0243	0.3726	0.064
Mof_H 	H 	0.2204	0.0511	0.3901	0.054
Mof_H 	H 	0.2542	0.1593	0.5496	0.044
Mof_H 	H 	0.1191	0.1897	0.6647	0.142
Mof_H 	H 	0.2549	0.168	0.6909	0.134
Mof_H 	H 	0.1429	0.0979	0.6555	0.115
Mof_H 	H 	0.0502	0.0744	0.5196	0.114
Mof_H 	H 	0.87127	0.108	0.672	-0.05
Mof_H 	H 	0.92527	0.2066	0.8147	0.073
Mof_H 	H 	0.58837	0.3282	0.8373	0.07
Mof_H 	H 	0.54117	0.226	0.6936	-0.026
Mof_H 	H 	0.73837	0.3483	0.9757	0.05
Mof_H 	H 	0.88707	0.339	0.9489	0.041
Mof_H 	H 	0.92087	0.3903	0.8407	0.05
Mof_H 	H 	0.78577	0.475	0.8103	0.114
Mof_H 	H 	0.92157	0.5229	0.832	0.105
Mof_H 	H 	0.80957	0.5576	0.9021	0.087
Mof_H 	H 	0.71687	0.4452	0.9256	0.104
Mof_H 	H 	0.53793	0.564	0.892	-0.044
Mof_H 	H 	0.59193	0.6081	0.7934	0.079
Mof_H 	H 	0.25503	0.5091	0.6718	0.074
Mof_H 	H 	0.20783	0.4676	0.774	-0.022
Mof_H 	H 	0.40503	0.6274	0.6517	0.053
Mof_H 	H 	0.55373	0.6099	0.661	0.048
Mof_H 	H 	0.58753	0.4504	0.6097	0.046
Mof_H 	H 	0.45243	0.3353	0.525	0.127
Mof_H 	H 	0.58823	0.3091	0.4771	0.123
Mof_H 	H 	0.47623	0.3445	0.4424	0.101
Mof_H 	H 	0.38353	0.4804	0.5548	0.104
Mof_H 	H 	0.7046	0.672	0.564	-0.043
Mof_H 	H 	0.7586	0.8147	0.6081	0.078
Mof_H 	H 	0.4217	0.8373	0.5091	0.071
Mof_H 	H 	0.3745	0.6936	0.4676	-0.024
Mof_H 	H 	0.5717	0.9757	0.6274	0.051
Mof_H 	H 	0.7204	0.9489	0.6099	0.046
Mof_H 	H 	0.7542	0.8407	0.4504	0.047
Mof_H 	H 	0.6191	0.8103	0.3353	0.123
Mof_H 	H 	0.7549	0.832	0.3091	0.116
Mof_H 	H 	0.6429	0.9021	0.3445	0.096
Mof_H 	H 	0.5502	0.9256	0.4804	0.104
Mof_H 	H 	0.37127	0.892	0.328	-0.044
Mof_H 	H 	0.42527	0.7934	0.1853	0.079
Mof_H 	H 	0.08837	0.6718	0.1627	0.075
Mof_H 	H 	0.04117	0.774	0.3064	-0.017
Mof_H 	H 	0.23837	0.6517	0.0243	0.053
Mof_H 	H 	0.38707	0.661	0.0511	0.048
Mof_H 	H 	0.42087	0.6097	0.1593	0.045
Mof_H 	H 	0.28577	0.525	0.1897	0.131
Mof_H 	H 	0.42157	0.4771	0.168	0.126
Mof_H 	H 	0.30957	0.4424	0.0979	0.104
Mof_H 	H 	0.21687	0.5548	0.0744	0.105
Mof_H 	H 	0.03793	0.436	0.108	0.027
Mof_H 	H 	0.09193	0.3919	0.2066	0.031
Mof_H 	H 	0.75503	0.4909	0.3282	0.051
Mof_H 	H 	0.70783	0.5324	0.226	-0.014
Mof_H 	H 	0.90503	0.3726	0.3483	0.049
Mof_H 	H 	0.05373	0.3901	0.339	0.069
Mof_H 	H 	0.08753	0.5496	0.3903	0.075
Mof_H 	H 	0.95243	0.6647	0.475	0.028
Mof_H 	H 	0.08823	0.6909	0.5229	0.049
Mof_H 	H 	0.97623	0.6555	0.5576	0.003
Mof_H 	H 	0.88353	0.5196	0.4452	0.103
Mof_C 	C 	0.1467	0.295	0.4484	0.132
Mof_C 	C 	0.1806	0.2088	0.4218	-0.235
Mof_C 	C 	0.0969	0.1587	0.4404	0.19
Mof_C 	C 	0.9823	0.1954	0.48	-0.242
Mof_C 	C 	0.9537	0.2822	0.5048	0.061
Mof_C 	C 	0.1333	0.0649	0.4157	-0.182
Mof_C 	C 	0.2324	0.1099	0.5577	-0.045
Mof_C 	C 	0.3566	0.0549	0.5436	0.325
Mof_C 	C 	0.1827	0.1446	0.6508	-0.411
Mof_C 	C 	0.81337	0.1534	0.705	0.113
Mof_C 	C 	0.84727	0.213	0.7912	-0.213
Mof_C 	C 	0.76357	0.2817	0.8413	0.138
Mof_C 	C 	0.64897	0.2846	0.8046	-0.189
Mof_C 	C 	0.62037	0.2226	0.7178	0.069
Mof_C 	C 	0.79997	0.3508	0.9351	-0.158
Mof_C 	C 	0.89907	0.4478	0.8901	-0.091
Mof_C 	C 	0.02327	0.4887	0.9451	0.358
Mof_C 	C 	0.84937	0.5062	0.8554	-0.348
Mof_C 	C 	0.48003	0.5516	0.8466	0.116
Mof_C 	C 	0.51393	0.5782	0.787	-0.213
Mof_C 	C 	0.43023	0.5596	0.7183	0.142
Mof_C 	C 	0.31563	0.52	0.7154	-0.189
Mof_C 	C 	0.28703	0.4952	0.7774	0.071
Mof_C 	C 	0.46663	0.5843	0.6492	-0.161
Mof_C 	C 	0.56573	0.4423	0.5522	-0.056
Mof_C 	C 	0.68993	0.4564	0.5113	0.33
Mof_C 	C 	0.51603	0.3492	0.4938	-0.385
Mof_C 	C 	0.6467	0.705	0.5516	0.115
Mof_C 	C 	0.6806	0.7912	0.5782	-0.211
Mof_C 	C 	0.5969	0.8413	0.5596	0.14
Mof_C 	C 	0.4823	0.8046	0.52	-0.188
Mof_C 	C 	0.4537	0.7178	0.4952	0.071
Mof_C 	C 	0.6333	0.9351	0.5843	-0.159
Mof_C 	C 	0.7324	0.8901	0.4423	-0.063
Mof_C 	C 	0.8566	0.9451	0.4564	0.335
Mof_C 	C 	0.6827	0.8554	0.3492	-0.373
Mof_C 	C 	0.31337	0.8466	0.295	0.116
Mof_C 	C 	0.34727	0.787	0.2088	-0.212
Mof_C 	C 	0.26357	0.7183	0.1587	0.143
Mof_C 	C 	0.14897	0.7154	0.1954	-0.188
Mof_C 	C 	0.12037	0.7774	0.2822	0.072
Mof_C 	C 	0.29997	0.6492	0.0649	-0.161
Mof_C 	C 	0.39907	0.5522	0.1099	-0.053
Mof_C 	C 	0.52327	0.5113	0.0549	0.327
Mof_C 	C 	0.34937	0.4938	0.1446	-0.392
Mof_C 	C 	0.98003	0.4484	0.1534	-0.04
Mof_C 	C 	0.01393	0.4218	0.213	-0.054
Mof_C 	C 	0.93023	0.4404	0.2817	0.052
Mof_C 	C 	0.81563	0.48	0.2846	-0.132
Mof_C 	C 	0.78703	0.5048	0.2226	0.031
Mof_C 	C 	0.96663	0.4157	0.3508	-0.173
Mof_C 	C 	0.06573	0.5577	0.4478	-0.124
Mof_C 	C 	0.18993	0.5436	0.4887	0.356
Mof_C 	C 	0.01603	0.6508	0.5062	-0.11
Mof_N 	N 	0.13	0.056	0.4938	-0.261
Mof_N 	N 	0.0393	0.3315	0.4893	-0.272
Mof_N 	N 	0.79667	0.4378	0.944	-0.261
Mof_N 	N 	0.70597	0.1578	0.6685	-0.286
Mof_N 	N 	0.46333	0.5062	0.5622	-0.263
Mof_N 	N 	0.37263	0.5107	0.8422	-0.285
Mof_N 	N 	0.63	0.944	0.5062	-0.262
Mof_N 	N 	0.5393	0.6685	0.5107	-0.285
Mof_N 	N 	0.29667	0.5622	0.056	-0.263
Mof_N 	N 	0.20597	0.8422	0.3315	-0.283
Mof_N 	N 	0.96333	0.4938	0.4378	-0.263
Mof_N 	N 	0.87263	0.4893	0.1578	-0.255
Mof_O 	O 	0.3501	0.9737	0.4971	-0.475
Mof_O 	O 	0.456	0.0983	0.5799	-0.472
Mof_O 	O 	0.01677	0.5234	0.0263	-0.473
Mof_O 	O 	0.12267	0.4816	0.9017	-0.473
Mof_O 	O 	0.68343	0.5029	0.4766	-0.477
Mof_O 	O 	0.78933	0.4201	0.5184	-0.477
Mof_O 	O 	0.8501	0.0263	0.5029	-0.489
Mof_O 	O 	0.956	0.9017	0.4201	-0.49
Mof_O 	O 	0.51677	0.4766	0.9737	-0.476
Mof_O 	O 	0.62267	0.5184	0.0983	-0.475
Mof_O 	O 	0.18343	0.4971	0.5234	-0.477
Mof_O 	O 	0.28933	0.5799	0.4816	-0.478
_end
