data_functionalizedCrystal
_audit_creation_method	'EQeq! by Chris Wilmer'
_symmetry_space_group_name_H-M	'P1'
_symmetry_Int_Tables_number	1
_symmetry_cell_setting	triclinic
loop_
_symmetry_equiv_pos_as_xyz
  x,y,z
_cell_length_a	12.328
_cell_length_b	21.579
_cell_length_c	26.024
_cell_angle_alpha	90
_cell_angle_beta	99.54
_cell_angle_gamma	90
loop_
_atom_site_label
_atom_site_type_symbol
_atom_site_fract_x
_atom_site_fract_y
_atom_site_fract_z
_atom_site_charge
Mof_Mo	Mo	0.06871	0.35793	0.40481	0.774
Mof_Mo	Mo	0.95489	0.26301	0.42492	1.292
Mof_Mo	Mo	0.42887	0.23176	0.39479	1.118
Mof_Mo	Mo	0.28359	0.10438	0.42424	1.089
Mof_Mo	Mo	0.34151	0.3405	0.3895	1.128
Mof_Mo	Mo	0.07998	0.11745	0.43675	0.953
Mof_Co	Co	0.14812	0.56524	0.29301	1.139
Mof_P 	P 	0.14909	0.22611	0.35137	0.595
Mof_P 	P 	0.41394	0.10469	0.32182	0.559
Mof_P 	P 	0.85306	0.14406	0.35311	0.583
Mof_P 	P 	0.16882	0.41451	0.30056	0.617
Mof_O 	O 	0.1424	0.36814	0.25642	-0.843
Mof_O 	O 	0.1689	0.47785	0.27618	-0.721
Mof_O 	O 	0.2818	0.40053	0.33119	-0.462
Mof_O 	O 	0.7409	0.11076	0.34828	-0.464
Mof_O 	O 	0.5049	0.06009	0.31423	-0.691
Mof_O 	O 	0.0817	0.40984	0.33831	-0.792
Mof_O 	O 	0.8869	0.15561	0.30092	-0.44
Mof_O 	O 	0.145	0.07728	0.38325	-0.593
Mof_O 	O 	0.9497	0.31326	0.36257	-0.675
Mof_O 	O 	0.1016	0.21936	0.29429	-0.711
Mof_O 	O 	0.9902	0.18385	0.47165	-0.448
Mof_O 	O 	0.3832	0.28733	0.33648	-0.544
Mof_O 	O 	0.0671	0.20248	0.38614	-0.518
Mof_O 	O 	0.3502	0.27564	0.44412	-0.636
Mof_O 	O 	0.1746	0.29536	0.36503	-0.48
Mof_O 	O 	0.8413	0.20529	0.38227	-0.472
Mof_O 	O 	0.2569	0.18962	0.36786	-0.416
Mof_O 	O 	0.353	0.07451	0.36254	-0.56
Mof_O 	O 	0.2152	0.16134	0.46959	-0.624
Mof_O 	O 	0.4615	0.16881	0.33999	-0.421
Mof_O 	O 	0.2319	0.38611	0.4302	-0.482
Mof_O 	O 	0.9346	0.10102	0.38869	-0.394
Mof_O 	O 	0.0987	0.29444	0.45923	-0.648
Mof_O 	O 	0.4228	0.15595	0.44214	-0.531
Mof_O 	O 	0.3344	0.11306	0.27031	-0.468
Mof_Na	Na	0.9098	0.45632	0.3141	1.976
Mof_Mo	Mo	0.56871	0.85793	0.40481	0.938
Mof_Mo	Mo	0.45489	0.76301	0.42492	1.12
Mof_Mo	Mo	0.92887	0.73176	0.39479	1.174
Mof_Mo	Mo	0.78359	0.60438	0.42424	1.093
Mof_Mo	Mo	0.84151	0.8405	0.3895	1.162
Mof_Mo	Mo	0.57998	0.61745	0.43675	1.107
Mof_Co	Co	0.64812	0.06524	0.29301	1.148
Mof_P 	P 	0.64909	0.72611	0.35137	0.603
Mof_P 	P 	0.91394	0.60469	0.32182	0.621
Mof_P 	P 	0.35306	0.64406	0.35311	0.581
Mof_P 	P 	0.66882	0.91451	0.30056	0.626
Mof_O 	O 	0.6424	0.86814	0.25642	-0.899
Mof_O 	O 	0.6689	0.97785	0.27618	-0.728
Mof_O 	O 	0.7818	0.90053	0.33119	-0.458
Mof_O 	O 	0.2409	0.61076	0.34828	-0.482
Mof_O 	O 	0.0049	0.56009	0.31423	-0.802
Mof_O 	O 	0.5817	0.90984	0.33831	-0.754
Mof_O 	O 	0.3869	0.65561	0.30092	-0.482
Mof_O 	O 	0.645	0.57728	0.38325	-0.596
Mof_O 	O 	0.4497	0.81326	0.36257	-0.739
Mof_O 	O 	0.6016	0.71936	0.29429	-0.732
Mof_O 	O 	0.4902	0.68385	0.47165	-0.511
Mof_O 	O 	0.8832	0.78733	0.33648	-0.541
Mof_O 	O 	0.5671	0.70248	0.38614	-0.477
Mof_O 	O 	0.8502	0.77564	0.44412	-0.634
Mof_O 	O 	0.6746	0.79536	0.36503	-0.499
Mof_O 	O 	0.3413	0.70529	0.38227	-0.474
Mof_O 	O 	0.7569	0.68962	0.36786	-0.426
Mof_O 	O 	0.853	0.57451	0.36254	-0.57
Mof_O 	O 	0.7152	0.66134	0.46959	-0.637
Mof_O 	O 	0.9615	0.66881	0.33999	-0.406
Mof_O 	O 	0.7319	0.88611	0.4302	-0.496
Mof_O 	O 	0.4346	0.60102	0.38869	-0.459
Mof_O 	O 	0.5987	0.79444	0.45923	-0.617
Mof_O 	O 	0.9228	0.65595	0.44214	-0.516
Mof_O 	O 	0.8344	0.61306	0.27031	-0.469
Mof_Na	Na	0.4098	0.95632	0.3141	1.669
Mof_Mo	Mo	0.93129	0.35793	0.09519	1.089
Mof_Mo	Mo	0.04511	0.26301	0.07508	0.951
Mof_Mo	Mo	0.57113	0.23176	0.10521	1.108
Mof_Mo	Mo	0.71641	0.10438	0.07576	1.047
Mof_Mo	Mo	0.65849	0.3405	0.1105	1.119
Mof_Mo	Mo	0.92002	0.11745	0.06325	1.243
Mof_Co	Co	0.85188	0.56524	0.20699	1.153
Mof_P 	P 	0.85091	0.22611	0.14863	0.6
Mof_P 	P 	0.58606	0.10469	0.17818	0.557
Mof_P 	P 	0.14694	0.14406	0.14689	0.578
Mof_P 	P 	0.83118	0.41451	0.19944	0.622
Mof_O 	O 	0.8576	0.36814	0.24358	-0.844
Mof_O 	O 	0.8311	0.47785	0.22382	-0.747
Mof_O 	O 	0.7182	0.40053	0.16881	-0.467
Mof_O 	O 	0.2591	0.11076	0.15172	-0.473
Mof_O 	O 	0.4951	0.06009	0.18577	-0.696
Mof_O 	O 	0.9183	0.40984	0.16169	-0.7
Mof_O 	O 	0.1131	0.15561	0.19908	-0.494
Mof_O 	O 	0.855	0.07728	0.11675	-0.583
Mof_O 	O 	0.0503	0.31326	0.13743	-0.756
Mof_O 	O 	0.8984	0.21936	0.20571	-0.65
Mof_O 	O 	0.0098	0.18385	0.02835	-0.58
Mof_O 	O 	0.6168	0.28733	0.16352	-0.543
Mof_O 	O 	0.9329	0.20248	0.11386	-0.423
Mof_O 	O 	0.6498	0.27564	0.05588	-0.647
Mof_O 	O 	0.8254	0.29536	0.13497	-0.486
Mof_O 	O 	0.1587	0.20529	0.11773	-0.451
Mof_O 	O 	0.7431	0.18962	0.13214	-0.414
Mof_O 	O 	0.647	0.07451	0.13746	-0.551
Mof_O 	O 	0.7848	0.16134	0.03041	-0.653
Mof_O 	O 	0.5385	0.16881	0.16001	-0.421
Mof_O 	O 	0.7681	0.38611	0.0698	-0.521
Mof_O 	O 	0.0654	0.10102	0.11131	-0.518
Mof_O 	O 	0.9013	0.29444	0.04077	-0.594
Mof_O 	O 	0.5772	0.15595	0.05786	-0.538
Mof_O 	O 	0.6656	0.11306	0.22969	-0.462
Mof_Na	Na	0.0902	0.45632	0.1859	1.462
Mof_Mo	Mo	0.43129	0.85793	0.09519	0.925
Mof_Mo	Mo	0.54511	0.76301	0.07508	1.126
Mof_Mo	Mo	0.07113	0.73176	0.10521	1.055
Mof_Mo	Mo	0.21641	0.60438	0.07576	1.043
Mof_Mo	Mo	0.15849	0.8405	0.1105	1.091
Mof_Mo	Mo	0.42002	0.61745	0.06325	1.091
Mof_Co	Co	0.35188	0.06524	0.20699	1.145
Mof_P 	P 	0.35091	0.72611	0.14863	0.599
Mof_P 	P 	0.08606	0.60469	0.17818	0.494
Mof_P 	P 	0.64694	0.64406	0.14689	0.581
Mof_P 	P 	0.33118	0.91451	0.19944	0.624
Mof_O 	O 	0.3576	0.86814	0.24358	-0.905
Mof_O 	O 	0.3311	0.97785	0.22382	-0.736
Mof_O 	O 	0.2182	0.90053	0.16881	-0.475
Mof_O 	O 	0.7591	0.61076	0.15172	-0.457
Mof_O 	O 	0.9951	0.56009	0.18577	-0.591
Mof_O 	O 	0.4183	0.90984	0.16169	-0.758
Mof_O 	O 	0.6131	0.65561	0.19908	-0.479
Mof_O 	O 	0.355	0.57728	0.11675	-0.584
Mof_O 	O 	0.5503	0.81326	0.13743	-0.732
Mof_O 	O 	0.3984	0.71936	0.20571	-0.733
Mof_O 	O 	0.5098	0.68385	0.02835	-0.52
Mof_O 	O 	0.1168	0.78733	0.16352	-0.552
Mof_O 	O 	0.4329	0.70248	0.11386	-0.474
Mof_O 	O 	0.1498	0.77564	0.05588	-0.65
Mof_O 	O 	0.3254	0.79536	0.13497	-0.49
Mof_O 	O 	0.6587	0.70529	0.11773	-0.457
Mof_O 	O 	0.2431	0.68962	0.13214	-0.407
Mof_O 	O 	0.147	0.57451	0.13746	-0.546
Mof_O 	O 	0.2848	0.66134	0.03041	-0.64
Mof_O 	O 	0.0385	0.66881	0.16001	-0.439
Mof_O 	O 	0.2681	0.88611	0.0698	-0.509
Mof_O 	O 	0.5654	0.60102	0.11131	-0.457
Mof_O 	O 	0.4013	0.79444	0.04077	-0.628
Mof_O 	O 	0.0772	0.65595	0.05786	-0.554
Mof_O 	O 	0.1656	0.61306	0.22969	-0.466
Mof_Na	Na	0.5902	0.95632	0.1859	1.712
Mof_Mo	Mo	0.93129	0.64207	0.59519	1.1
Mof_Mo	Mo	0.04511	0.73699	0.57508	0.963
Mof_Mo	Mo	0.57113	0.76824	0.60521	1.118
Mof_Mo	Mo	0.71641	0.89562	0.57576	1.061
Mof_Mo	Mo	0.65849	0.6595	0.6105	1.129
Mof_Mo	Mo	0.92002	0.88255	0.56325	1.259
Mof_Co	Co	0.85188	0.43476	0.70699	1.153
Mof_P 	P 	0.85091	0.77389	0.64863	0.601
Mof_P 	P 	0.58606	0.89531	0.67818	0.557
Mof_P 	P 	0.14694	0.85594	0.64689	0.578
Mof_P 	P 	0.83118	0.58549	0.69944	0.622
Mof_O 	O 	0.8576	0.63186	0.74358	-0.845
Mof_O 	O 	0.8311	0.52215	0.72382	-0.747
Mof_O 	O 	0.7182	0.59947	0.66881	-0.467
Mof_O 	O 	0.2591	0.88924	0.65172	-0.47
Mof_O 	O 	0.4951	0.93991	0.68577	-0.697
Mof_O 	O 	0.9183	0.59016	0.66169	-0.701
Mof_O 	O 	0.1131	0.84439	0.69908	-0.494
Mof_O 	O 	0.855	0.92272	0.61675	-0.585
Mof_O 	O 	0.0503	0.68674	0.63743	-0.758
Mof_O 	O 	0.8984	0.78064	0.70571	-0.65
Mof_O 	O 	0.0098	0.81615	0.52835	-0.57
Mof_O 	O 	0.6168	0.71267	0.66352	-0.545
Mof_O 	O 	0.9329	0.79752	0.61386	-0.426
Mof_O 	O 	0.6498	0.72436	0.55588	-0.638
Mof_O 	O 	0.8254	0.70464	0.63497	-0.489
Mof_O 	O 	0.1587	0.79471	0.61773	-0.45
Mof_O 	O 	0.7431	0.81038	0.63214	-0.416
Mof_O 	O 	0.647	0.92549	0.63746	-0.552
Mof_O 	O 	0.7848	0.83866	0.53041	-0.644
Mof_O 	O 	0.5385	0.83119	0.66001	-0.421
Mof_O 	O 	0.7681	0.61389	0.5698	-0.511
Mof_O 	O 	0.0654	0.89898	0.61131	-0.517
Mof_O 	O 	0.9013	0.70556	0.54077	-0.585
Mof_O 	O 	0.5772	0.84405	0.55786	-0.529
Mof_O 	O 	0.6656	0.88694	0.72969	-0.463
Mof_Na	Na	0.0902	0.54368	0.6859	1.47
Mof_Mo	Mo	0.43129	0.14207	0.59519	0.935
Mof_Mo	Mo	0.54511	0.23699	0.57508	1.141
Mof_Mo	Mo	0.07113	0.26824	0.60521	1.064
Mof_Mo	Mo	0.21641	0.39562	0.57576	1.056
Mof_Mo	Mo	0.15849	0.1595	0.6105	1.101
Mof_Mo	Mo	0.42002	0.38255	0.56325	1.107
Mof_Co	Co	0.35188	0.93476	0.70699	1.145
Mof_P 	P 	0.35091	0.27389	0.64863	0.6
Mof_P 	P 	0.08606	0.39531	0.67818	0.494
Mof_P 	P 	0.64694	0.35594	0.64689	0.582
Mof_P 	P 	0.33118	0.08549	0.69944	0.625
Mof_O 	O 	0.3576	0.13186	0.74358	-0.905
Mof_O 	O 	0.3311	0.02215	0.72382	-0.737
Mof_O 	O 	0.2182	0.09947	0.66881	-0.475
Mof_O 	O 	0.7591	0.38924	0.65172	-0.454
Mof_O 	O 	0.9951	0.43991	0.68577	-0.591
Mof_O 	O 	0.4183	0.09016	0.66169	-0.76
Mof_O 	O 	0.6131	0.34439	0.69908	-0.479
Mof_O 	O 	0.355	0.42272	0.61675	-0.586
Mof_O 	O 	0.5503	0.18674	0.63743	-0.734
Mof_O 	O 	0.3984	0.28064	0.70571	-0.733
Mof_O 	O 	0.5098	0.31615	0.52835	-0.509
Mof_O 	O 	0.1168	0.21267	0.66352	-0.554
Mof_O 	O 	0.4329	0.29752	0.61386	-0.477
Mof_O 	O 	0.1498	0.22436	0.55588	-0.642
Mof_O 	O 	0.3254	0.20464	0.63497	-0.492
Mof_O 	O 	0.6587	0.29471	0.61773	-0.456
Mof_O 	O 	0.2431	0.31038	0.63214	-0.41
Mof_O 	O 	0.147	0.42549	0.63746	-0.546
Mof_O 	O 	0.2848	0.33866	0.53041	-0.631
Mof_O 	O 	0.0385	0.33119	0.66001	-0.439
Mof_O 	O 	0.2681	0.11389	0.5698	-0.499
Mof_O 	O 	0.5654	0.39898	0.61131	-0.455
Mof_O 	O 	0.4013	0.20556	0.54077	-0.619
Mof_O 	O 	0.0772	0.34405	0.55786	-0.545
Mof_O 	O 	0.1656	0.38694	0.72969	-0.467
Mof_Na	Na	0.5902	0.04368	0.6859	1.723
Mof_Mo	Mo	0.06871	0.64207	0.90481	0.785
Mof_Mo	Mo	0.95489	0.73699	0.92492	1.303
Mof_Mo	Mo	0.42887	0.76824	0.89479	1.128
Mof_Mo	Mo	0.28359	0.89562	0.92424	1.102
Mof_Mo	Mo	0.34151	0.6595	0.8895	1.138
Mof_Mo	Mo	0.07998	0.88255	0.93675	0.971
Mof_Co	Co	0.14812	0.43476	0.79301	1.139
Mof_P 	P 	0.14909	0.77389	0.85137	0.597
Mof_P 	P 	0.41394	0.89531	0.82182	0.559
Mof_P 	P 	0.85306	0.85594	0.85311	0.584
Mof_P 	P 	0.16882	0.58549	0.80056	0.617
Mof_O 	O 	0.1424	0.63186	0.75642	-0.844
Mof_O 	O 	0.1689	0.52215	0.77618	-0.722
Mof_O 	O 	0.2818	0.59947	0.83119	-0.462
Mof_O 	O 	0.7409	0.88924	0.84828	-0.461
Mof_O 	O 	0.5049	0.93991	0.81423	-0.691
Mof_O 	O 	0.0817	0.59016	0.83831	-0.793
Mof_O 	O 	0.8869	0.84439	0.80092	-0.44
Mof_O 	O 	0.145	0.92272	0.88325	-0.595
Mof_O 	O 	0.9497	0.68674	0.86257	-0.678
Mof_O 	O 	0.1016	0.78064	0.79429	-0.712
Mof_O 	O 	0.9902	0.81615	0.97165	-0.438
Mof_O 	O 	0.3832	0.71267	0.83648	-0.546
Mof_O 	O 	0.0671	0.79752	0.88614	-0.521
Mof_O 	O 	0.3502	0.72436	0.94412	-0.622
Mof_O 	O 	0.1746	0.70464	0.86503	-0.483
Mof_O 	O 	0.8413	0.79471	0.88227	-0.471
Mof_O 	O 	0.2569	0.81038	0.86786	-0.419
Mof_O 	O 	0.353	0.92549	0.86254	-0.56
Mof_O 	O 	0.2152	0.83866	0.96959	-0.61
Mof_O 	O 	0.4615	0.83119	0.83999	-0.421
Mof_O 	O 	0.2319	0.61389	0.9302	-0.473
Mof_O 	O 	0.9346	0.89898	0.88869	-0.393
Mof_O 	O 	0.0987	0.70556	0.95923	-0.635
Mof_O 	O 	0.4228	0.84405	0.94214	-0.522
Mof_O 	O 	0.3344	0.88694	0.77031	-0.469
Mof_Na	Na	0.9098	0.54368	0.8141	1.984
Mof_Mo	Mo	0.56871	0.14207	0.90481	0.947
Mof_Mo	Mo	0.45489	0.23699	0.92492	1.134
Mof_Mo	Mo	0.92887	0.26824	0.89479	1.182
Mof_Mo	Mo	0.78359	0.39562	0.92424	1.107
Mof_Mo	Mo	0.84151	0.1595	0.8895	1.171
Mof_Mo	Mo	0.57998	0.38255	0.93675	1.123
Mof_Co	Co	0.64812	0.93476	0.79301	1.148
Mof_P 	P 	0.64909	0.27389	0.85137	0.604
Mof_P 	P 	0.91394	0.39531	0.82182	0.621
Mof_P 	P 	0.35306	0.35594	0.85311	0.582
Mof_P 	P 	0.66882	0.08549	0.80056	0.626
Mof_O 	O 	0.6424	0.13186	0.75642	-0.899
Mof_O 	O 	0.6689	0.02215	0.77618	-0.729
Mof_O 	O 	0.7818	0.09947	0.83119	-0.458
Mof_O 	O 	0.2409	0.38924	0.84828	-0.479
Mof_O 	O 	0.0049	0.43991	0.81423	-0.801
Mof_O 	O 	0.5817	0.09016	0.83831	-0.755
Mof_O 	O 	0.3869	0.34439	0.80092	-0.483
Mof_O 	O 	0.645	0.42272	0.88325	-0.597
Mof_O 	O 	0.4497	0.18674	0.86257	-0.741
Mof_O 	O 	0.6016	0.28064	0.79429	-0.733
Mof_O 	O 	0.4902	0.31615	0.97165	-0.5
Mof_O 	O 	0.8832	0.21267	0.83648	-0.543
Mof_O 	O 	0.5671	0.29752	0.88614	-0.48
Mof_O 	O 	0.8502	0.22436	0.94412	-0.621
Mof_O 	O 	0.6746	0.20464	0.86503	-0.501
Mof_O 	O 	0.3413	0.29471	0.88227	-0.473
Mof_O 	O 	0.7569	0.31038	0.86786	-0.428
Mof_O 	O 	0.853	0.42549	0.86254	-0.57
Mof_O 	O 	0.7152	0.33866	0.96959	-0.624
Mof_O 	O 	0.9615	0.33119	0.83999	-0.406
Mof_O 	O 	0.7319	0.11389	0.9302	-0.486
Mof_O 	O 	0.4346	0.39898	0.88869	-0.457
Mof_O 	O 	0.5987	0.20556	0.95923	-0.604
Mof_O 	O 	0.9228	0.34405	0.94214	-0.507
Mof_O 	O 	0.8344	0.38694	0.77031	-0.469
Mof_Na	Na	0.4098	0.04368	0.8141	1.678
Mof_Co	Co	0.25	0.25	0.5	1.206
Mof_Co	Co	0.75	0.25	-0	1.192
Mof_Co	Co	0.75	0.75	0.5	1.209
Mof_Co	Co	0.25	0.75	-0	1.189
Mof_Co	Co	1.66518e-17	0.15273	0.25	1.065
Mof_Na	Na	1.66518e-17	0.3056	0.25	2.513
Mof_Co	Co	0.5	0.65273	0.25	1.099
Mof_Na	Na	0.5	0.8056	0.25	2.868
Mof_Co	Co	6.66071e-17	0.84727	0.75	1.065
Mof_Na	Na	6.66071e-17	0.6944	0.75	2.512
Mof_Co	Co	0.5	0.34727	0.75	1.099
Mof_Na	Na	0.5	0.1944	0.75	2.868
_end
