data_functionalizedCrystal
_audit_creation_method	'EQeq! by Chris Wilmer'
_symmetry_space_group_name_H-M	'P1'
_symmetry_Int_Tables_number	1
_symmetry_cell_setting	triclinic
loop_
_symmetry_equiv_pos_as_xyz
  x,y,z
_cell_length_a	22.0267
_cell_length_b	16.6061
_cell_length_c	25.5742
_cell_angle_alpha	90
_cell_angle_beta	115.25
_cell_angle_gamma	90
loop_
_atom_site_label
_atom_site_type_symbol
_atom_site_fract_x
_atom_site_fract_y
_atom_site_fract_z
_atom_site_charge
Mof_Ag	Ag	0.34424	0.95708	0.36726	0.522
Mof_Ag	Ag	0.32227	0.25501	0.86675	0.534
Mof_C 	C 	0.0327	0.3107	0.4096	-0.148
Mof_H 	H 	0.054	0.2897	0.388	0.081
Mof_C 	C 	0.1237	0.2559	0.501	0.099
Mof_C 	C 	0.5978	0.4713	0.9995	0.1
Mof_C 	C 	0.0598	0.3009	0.4688	0.063
Mof_C 	C 	0.2977	0.0835	0.5043	-0.135
Mof_H 	H 	0.3199	0.0872	0.5444	0.085
Mof_C 	C 	0.5039	0.3847	0.9954	-0.136
Mof_H 	H 	0.5236	0.3833	0.0356	0.086
Mof_C 	C 	0.2095	0.2261	0.5864	0.1
Mof_C 	C 	0.7203	0.6525	0.8911	0.064
Mof_H 	H 	0.7006	0.6572	0.8511	-0.025
Mof_C 	C 	0.682	0.5522	0.0056	0.096
Mof_C 	C 	0.7775	0.6383	0.0086	-0.131
Mof_H 	H 	0.7984	0.6345	0.0487	0.073
Mof_C 	C 	0.5333	0.4272	0.9654	0.068
Mof_C 	C 	0.4441	0.3444	0.9634	0.088
Mof_H 	H 	0.4242	0.3164	0.9835	-0.013
Mof_C 	C 	0.2428	0.2367	0.6504	0.064
Mof_C 	C 	0.026	0.3343	0.4986	-0.149
Mof_H 	H 	0.0431	0.3297	0.5386	0.076
Mof_C 	C 	0.2353	0.0643	0.3877	0.082
Mof_H 	H 	0.2135	0.0572	0.3478	-0.01
Mof_C 	C 	0.7148	0.6017	0.9765	0.05
Mof_C 	C 	0.2354	0.1216	0.4735	0.068
Mof_C 	C 	0.967	0.3742	0.4679	0.077
Mof_H 	H 	0.945	0.3968	0.4883	-0.022
Mof_C 	C 	0.6788	0.4561	0.1795	-0.144
Mof_H 	H 	0.6348	0.4388	0.1592	0.084
Mof_C 	C 	0.2041	0.1095	0.4143	-0.133
Mof_H 	H 	0.162	0.1319	0.3925	0.083
Mof_C 	C 	0.6802	0.5021	0.0869	0.095
Mof_C 	C 	0.7124	0.4914	0.1511	0.062
Mof_C 	C 	0.6865	0.6099	0.9173	-0.131
Mof_H 	H 	0.6449	0.5869	0.8949	0.076
Mof_C 	C 	0.9731	0.3526	0.3831	0.077
Mof_H 	H 	0.9556	0.36	0.3433	-0.022
Mof_C 	C 	0.8073	0.6801	0.9787	0.073
Mof_H 	H 	0.8486	0.7046	0.9999	-0.011
Mof_C 	C 	0.2053	0.1721	0.5038	0.102
Mof_C 	C 	0.3248	0.0404	0.4731	0.094
Mof_H 	H 	0.3668	0.0171	0.4935	-0.015
Mof_C 	C 	0.5016	0.4279	0.9057	-0.143
Mof_H 	H 	0.5191	0.4576	0.8846	0.082
Mof_C 	C 	0.8066	0.5049	0.2413	0.08
Mof_H 	H 	0.8506	0.5219	0.2624	-0.027
Mof_C 	C 	0.7118	0.4464	0.2392	0.082
Mof_H 	H 	0.689	0.4222	0.2584	-0.016
Mof_C 	C 	0.2449	0.2951	0.7359	0.071
Mof_H 	H 	0.226	0.3299	0.7534	-0.018
Mof_C 	C 	0.4438	0.384	0.8782	0.087
Mof_H 	H 	0.4245	0.3824	0.838	-0.008
Mof_C 	C 	0.2144	0.2876	0.6768	-0.138
Mof_H 	H 	0.1754	0.3162	0.6549	0.07
Mof_C 	C 	0.328	0.2086	0.743	0.092
Mof_H 	H 	0.3672	0.1809	0.7656	-0.023
Mof_C 	C 	0.778	0.5166	0.1822	-0.151
Mof_H 	H 	0.8019	0.5406	0.164	0.076
Mof_C 	C 	0.3022	0.1993	0.6839	-0.148
Mof_H 	H 	0.3245	0.1684	0.6672	0.086
Mof_N 	N 	0.2957	0.03	0.4167	-0.194
Mof_N 	N 	0.9392	0.3829	0.4108	-0.216
Mof_N 	N 	0.3008	0.2544	0.7697	-0.2
Mof_N 	N 	0.1477	0.2104	0.4714	-0.138
Mof_N 	N 	0.1526	0.2668	0.5581	-0.142
Mof_N 	N 	0.2379	0.1775	0.5617	-0.137
Mof_N 	N 	0.7799	0.6871	0.9211	-0.207
Mof_N 	N 	0.4135	0.3432	0.9059	-0.189
Mof_N 	N 	0.7753	0.4708	0.27	-0.2
Mof_N 	N 	0.6259	0.5127	0.9721	-0.142
Mof_N 	N 	0.6229	0.463	0.0575	-0.137
Mof_N 	N 	0.711	0.5491	0.0635	-0.15
Mof_Ag	Ag	0.84424	0.45708	0.36726	0.523
Mof_Ag	Ag	0.82227	0.75501	0.86675	0.534
Mof_C 	C 	0.5327	0.8107	0.4096	-0.146
Mof_H 	H 	0.554	0.7897	0.388	0.082
Mof_C 	C 	0.6237	0.7559	0.501	0.099
Mof_C 	C 	0.0978	0.9713	0.9995	0.102
Mof_C 	C 	0.5598	0.8009	0.4688	0.063
Mof_C 	C 	0.7977	0.5835	0.5043	-0.135
Mof_H 	H 	0.8199	0.5872	0.5444	0.085
Mof_C 	C 	0.0039	0.8847	0.9954	-0.131
Mof_H 	H 	0.0236	0.8833	0.0356	0.084
Mof_C 	C 	0.7095	0.7261	0.5864	0.1
Mof_C 	C 	0.2203	0.1525	0.8911	0.066
Mof_H 	H 	0.2006	0.1572	0.8511	-0.026
Mof_C 	C 	0.182	0.0522	0.0056	0.093
Mof_C 	C 	0.2775	0.1383	0.0086	-0.137
Mof_H 	H 	0.2984	0.1345	0.0487	0.074
Mof_C 	C 	0.0333	0.9272	0.9654	0.065
Mof_C 	C 	0.9441	0.8444	0.9634	0.084
Mof_H 	H 	0.9242	0.8164	0.9835	-0.012
Mof_C 	C 	0.7428	0.7367	0.6504	0.064
Mof_C 	C 	0.526	0.8343	0.4986	-0.148
Mof_H 	H 	0.5431	0.8297	0.5386	0.076
Mof_C 	C 	0.7353	0.5643	0.3877	0.082
Mof_H 	H 	0.7135	0.5572	0.3478	-0.01
Mof_C 	C 	0.2148	0.1017	0.9765	0.055
Mof_C 	C 	0.7354	0.6216	0.4735	0.068
Mof_C 	C 	0.467	0.8742	0.4679	0.077
Mof_H 	H 	0.445	0.8968	0.4883	-0.022
Mof_C 	C 	0.1788	0.9561	0.1795	-0.144
Mof_H 	H 	0.1348	0.9388	0.1592	0.084
Mof_C 	C 	0.7041	0.6095	0.4143	-0.133
Mof_H 	H 	0.662	0.6319	0.3925	0.083
Mof_C 	C 	0.1802	0.0021	0.0869	0.095
Mof_C 	C 	0.2124	0.9914	0.1511	0.062
Mof_C 	C 	0.1865	0.1099	0.9173	-0.135
Mof_H 	H 	0.1449	0.0869	0.8949	0.078
Mof_C 	C 	0.4731	0.8526	0.3831	0.076
Mof_H 	H 	0.4556	0.86	0.3433	-0.021
Mof_C 	C 	0.3073	0.1801	0.9787	0.077
Mof_H 	H 	0.3486	0.2046	0.9999	-0.012
Mof_C 	C 	0.7053	0.6721	0.5038	0.102
Mof_C 	C 	0.8248	0.5404	0.4731	0.094
Mof_H 	H 	0.8668	0.5171	0.4935	-0.016
Mof_C 	C 	0.0016	0.9279	0.9057	-0.14
Mof_H 	H 	0.0191	0.9576	0.8846	0.081
Mof_C 	C 	0.3066	0.0049	0.2413	0.08
Mof_H 	H 	0.3506	0.0219	0.2624	-0.027
Mof_C 	C 	0.2118	0.9464	0.2392	0.082
Mof_H 	H 	0.189	0.9222	0.2584	-0.016
Mof_C 	C 	0.7449	0.7951	0.7359	0.071
Mof_H 	H 	0.726	0.8299	0.7534	-0.018
Mof_C 	C 	0.9438	0.884	0.8782	0.084
Mof_H 	H 	0.9245	0.8824	0.838	-0.007
Mof_C 	C 	0.7144	0.7876	0.6768	-0.138
Mof_H 	H 	0.6754	0.8162	0.6549	0.07
Mof_C 	C 	0.828	0.7086	0.743	0.092
Mof_H 	H 	0.8672	0.6809	0.7656	-0.023
Mof_C 	C 	0.278	0.0166	0.1822	-0.151
Mof_H 	H 	0.3019	0.0406	0.164	0.076
Mof_C 	C 	0.8022	0.6993	0.6839	-0.148
Mof_H 	H 	0.8245	0.6684	0.6672	0.086
Mof_N 	N 	0.7957	0.53	0.4167	-0.194
Mof_N 	N 	0.4392	0.8829	0.4108	-0.216
Mof_N 	N 	0.8008	0.7544	0.7697	-0.2
Mof_N 	N 	0.6477	0.7104	0.4714	-0.138
Mof_N 	N 	0.6526	0.7668	0.5581	-0.142
Mof_N 	N 	0.7379	0.6775	0.5617	-0.137
Mof_N 	N 	0.2799	0.1871	0.9211	-0.208
Mof_N 	N 	0.9135	0.8432	0.9059	-0.188
Mof_N 	N 	0.2753	0.9708	0.27	-0.2
Mof_N 	N 	0.1259	0.0127	0.9721	-0.142
Mof_N 	N 	0.1229	0.963	0.0575	-0.138
Mof_N 	N 	0.211	0.0491	0.0635	-0.149
Mof_Ag	Ag	0.65576	0.95708	0.13274	0.523
Mof_Ag	Ag	0.67773	0.25501	0.63325	0.534
Mof_C 	C 	0.9673	0.3107	0.0904	-0.143
Mof_H 	H 	0.946	0.2897	0.112	0.081
Mof_C 	C 	0.8763	0.2559	0.999	0.098
Mof_C 	C 	0.4022	0.4713	0.5005	0.1
Mof_C 	C 	0.9402	0.3009	0.0312	0.061
Mof_C 	C 	0.7023	0.0835	0.9957	-0.138
Mof_H 	H 	0.6801	0.0872	0.9556	0.086
Mof_C 	C 	0.4961	0.3847	0.5046	-0.136
Mof_H 	H 	0.4764	0.3833	0.4644	0.086
Mof_C 	C 	0.7905	0.2261	0.9136	0.099
Mof_C 	C 	0.2797	0.6525	0.6089	0.065
Mof_H 	H 	0.2994	0.6572	0.6489	-0.026
Mof_C 	C 	0.318	0.5522	0.4944	0.095
Mof_C 	C 	0.2225	0.6383	0.4914	-0.134
Mof_H 	H 	0.2016	0.6345	0.4513	0.073
Mof_C 	C 	0.4667	0.4272	0.5346	0.068
Mof_C 	C 	0.5559	0.3444	0.5366	0.088
Mof_H 	H 	0.5758	0.3164	0.5165	-0.013
Mof_C 	C 	0.7572	0.2367	0.8496	0.064
Mof_C 	C 	0.974	0.3343	0.0014	-0.144
Mof_H 	H 	0.9569	0.3297	0.9614	0.074
Mof_C 	C 	0.7647	0.0643	0.1123	0.083
Mof_H 	H 	0.7865	0.0572	0.1522	-0.01
Mof_C 	C 	0.2852	0.6017	0.5235	0.052
Mof_C 	C 	0.7646	0.1216	0.0265	0.07
Mof_C 	C 	0.033	0.3742	0.0321	0.073
Mof_H 	H 	0.055	0.3968	0.0117	-0.021
Mof_C 	C 	0.3212	0.4561	0.3205	-0.144
Mof_H 	H 	0.3652	0.4388	0.3408	0.084
Mof_C 	C 	0.7959	0.1095	0.0857	-0.134
Mof_H 	H 	0.838	0.1319	0.1075	0.084
Mof_C 	C 	0.3198	0.5021	0.4131	0.095
Mof_C 	C 	0.2876	0.4914	0.3489	0.062
Mof_C 	C 	0.3135	0.6099	0.5827	-0.133
Mof_H 	H 	0.3551	0.5869	0.6051	0.077
Mof_C 	C 	0.0269	0.3526	0.1169	0.074
Mof_H 	H 	0.0444	0.36	0.1567	-0.021
Mof_C 	C 	0.1927	0.6801	0.5213	0.075
Mof_H 	H 	0.1514	0.7046	0.5001	-0.012
Mof_C 	C 	0.7947	0.1721	0.9962	0.1
Mof_C 	C 	0.6752	0.0404	0.0269	0.095
Mof_H 	H 	0.6332	0.0171	0.0065	-0.016
Mof_C 	C 	0.4984	0.4279	0.5943	-0.143
Mof_H 	H 	0.4809	0.4576	0.6154	0.082
Mof_C 	C 	0.1934	0.5049	0.2587	0.08
Mof_H 	H 	0.1494	0.5219	0.2376	-0.027
Mof_C 	C 	0.2882	0.4464	0.2608	0.082
Mof_H 	H 	0.311	0.4222	0.2416	-0.016
Mof_C 	C 	0.7551	0.2951	0.7641	0.071
Mof_H 	H 	0.774	0.3299	0.7466	-0.018
Mof_C 	C 	0.5562	0.384	0.6218	0.087
Mof_H 	H 	0.5755	0.3824	0.662	-0.008
Mof_C 	C 	0.7856	0.2876	0.8232	-0.138
Mof_H 	H 	0.8246	0.3162	0.8451	0.07
Mof_C 	C 	0.672	0.2086	0.757	0.092
Mof_H 	H 	0.6328	0.1809	0.7344	-0.023
Mof_C 	C 	0.222	0.5166	0.3178	-0.151
Mof_H 	H 	0.1981	0.5406	0.336	0.076
Mof_C 	C 	0.6978	0.1993	0.8161	-0.148
Mof_H 	H 	0.6755	0.1684	0.8328	0.086
Mof_N 	N 	0.7043	0.03	0.0833	-0.194
Mof_N 	N 	0.0608	0.3829	0.0892	-0.215
Mof_N 	N 	0.6992	0.2544	0.7303	-0.2
Mof_N 	N 	0.8523	0.2104	0.0286	-0.137
Mof_N 	N 	0.8474	0.2668	0.9419	-0.142
Mof_N 	N 	0.7621	0.1775	0.9383	-0.136
Mof_N 	N 	0.2201	0.6871	0.5789	-0.208
Mof_N 	N 	0.5865	0.3432	0.5941	-0.189
Mof_N 	N 	0.2247	0.4708	0.23	-0.2
Mof_N 	N 	0.3741	0.5127	0.5279	-0.142
Mof_N 	N 	0.3771	0.463	0.4425	-0.137
Mof_N 	N 	0.289	0.5491	0.4365	-0.15
Mof_Ag	Ag	0.15576	0.45708	0.13274	0.523
Mof_Ag	Ag	0.17773	0.75501	0.63325	0.535
Mof_C 	C 	0.4673	0.8107	0.0904	-0.146
Mof_H 	H 	0.446	0.7897	0.112	0.082
Mof_C 	C 	0.3763	0.7559	0.999	0.099
Mof_C 	C 	0.9022	0.9713	0.5005	0.1
Mof_C 	C 	0.4402	0.8009	0.0312	0.062
Mof_C 	C 	0.2023	0.5835	0.9957	-0.133
Mof_H 	H 	0.1801	0.5872	0.9556	0.084
Mof_C 	C 	0.9961	0.8847	0.5046	-0.136
Mof_H 	H 	0.9764	0.8833	0.4644	0.086
Mof_C 	C 	0.2905	0.7261	0.9136	0.1
Mof_C 	C 	0.7797	0.1525	0.6089	0.065
Mof_H 	H 	0.7994	0.1572	0.6489	-0.026
Mof_C 	C 	0.818	0.0522	0.4944	0.095
Mof_C 	C 	0.7225	0.1383	0.4914	-0.134
Mof_H 	H 	0.7016	0.1345	0.4513	0.073
Mof_C 	C 	0.9667	0.9272	0.5346	0.068
Mof_C 	C 	0.0559	0.8444	0.5366	0.088
Mof_H 	H 	0.0758	0.8164	0.5165	-0.013
Mof_C 	C 	0.2572	0.7367	0.8496	0.064
Mof_C 	C 	0.474	0.8343	0.0014	-0.149
Mof_H 	H 	0.4569	0.8297	0.9614	0.076
Mof_C 	C 	0.2647	0.5643	0.1123	0.081
Mof_H 	H 	0.2865	0.5572	0.1522	-0.009
Mof_C 	C 	0.7852	0.1017	0.5235	0.052
Mof_C 	C 	0.2646	0.6216	0.0265	0.066
Mof_C 	C 	0.533	0.8742	0.0321	0.077
Mof_H 	H 	0.555	0.8968	0.0117	-0.022
Mof_C 	C 	0.8212	0.9561	0.3205	-0.144
Mof_H 	H 	0.8652	0.9388	0.3408	0.084
Mof_C 	C 	0.2959	0.6095	0.0857	-0.131
Mof_H 	H 	0.338	0.6319	0.1075	0.083
Mof_C 	C 	0.8198	0.0021	0.4131	0.095
Mof_C 	C 	0.7876	0.9914	0.3489	0.062
Mof_C 	C 	0.8135	0.1099	0.5827	-0.133
Mof_H 	H 	0.8551	0.0869	0.6051	0.077
Mof_C 	C 	0.5269	0.8526	0.1169	0.076
Mof_H 	H 	0.5444	0.86	0.1567	-0.021
Mof_C 	C 	0.6927	0.1801	0.5213	0.075
Mof_H 	H 	0.6514	0.2046	0.5001	-0.012
Mof_C 	C 	0.2947	0.6721	0.9962	0.103
Mof_C 	C 	0.1752	0.5404	0.0269	0.092
Mof_H 	H 	0.1332	0.5171	0.0065	-0.015
Mof_C 	C 	0.9984	0.9279	0.5943	-0.144
Mof_H 	H 	0.9809	0.9576	0.6154	0.082
Mof_C 	C 	0.6934	0.0049	0.2587	0.08
Mof_H 	H 	0.6494	0.0219	0.2376	-0.027
Mof_C 	C 	0.7882	0.9464	0.2608	0.082
Mof_H 	H 	0.811	0.9222	0.2416	-0.016
Mof_C 	C 	0.2551	0.7951	0.7641	0.071
Mof_H 	H 	0.274	0.8299	0.7466	-0.018
Mof_C 	C 	0.0562	0.884	0.6218	0.088
Mof_H 	H 	0.0755	0.8824	0.662	-0.008
Mof_C 	C 	0.2856	0.7876	0.8232	-0.138
Mof_H 	H 	0.3246	0.8162	0.8451	0.07
Mof_C 	C 	0.172	0.7086	0.757	0.092
Mof_H 	H 	0.1328	0.6809	0.7344	-0.023
Mof_C 	C 	0.722	0.0166	0.3178	-0.151
Mof_H 	H 	0.6981	0.0406	0.336	0.076
Mof_C 	C 	0.1978	0.6993	0.8161	-0.148
Mof_H 	H 	0.1755	0.6684	0.8328	0.086
Mof_N 	N 	0.2043	0.53	0.0833	-0.194
Mof_N 	N 	0.5608	0.8829	0.0892	-0.216
Mof_N 	N 	0.1992	0.7544	0.7303	-0.2
Mof_N 	N 	0.3523	0.7104	0.0286	-0.138
Mof_N 	N 	0.3474	0.7668	0.9419	-0.142
Mof_N 	N 	0.2621	0.6775	0.9383	-0.137
Mof_N 	N 	0.7201	0.1871	0.5789	-0.208
Mof_N 	N 	0.0865	0.8432	0.5941	-0.189
Mof_N 	N 	0.7247	0.9708	0.23	-0.2
Mof_N 	N 	0.8741	0.0127	0.5279	-0.142
Mof_N 	N 	0.8771	0.963	0.4425	-0.137
Mof_N 	N 	0.789	0.0491	0.4365	-0.15
Mof_Ag	Ag	0.65576	0.04292	0.63274	0.523
Mof_Ag	Ag	0.67773	0.74499	0.13325	0.535
Mof_C 	C 	0.9673	0.6893	0.5904	-0.147
Mof_H 	H 	0.946	0.7103	0.612	0.082
Mof_C 	C 	0.8763	0.7441	0.499	0.099
Mof_C 	C 	0.4022	0.5287	0.0005	0.1
Mof_C 	C 	0.9402	0.6991	0.5312	0.063
Mof_C 	C 	0.7023	0.9165	0.4957	-0.135
Mof_H 	H 	0.6801	0.9128	0.4556	0.085
Mof_C 	C 	0.4961	0.6153	0.0046	-0.136
Mof_H 	H 	0.4764	0.6167	0.9644	0.086
Mof_C 	C 	0.7905	0.7739	0.4136	0.1
Mof_C 	C 	0.2797	0.3475	0.1089	0.064
Mof_H 	H 	0.2994	0.3428	0.1489	-0.025
Mof_C 	C 	0.318	0.4478	0.9944	0.096
Mof_C 	C 	0.2225	0.3617	0.9914	-0.131
Mof_H 	H 	0.2016	0.3655	0.9513	0.073
Mof_C 	C 	0.4667	0.5728	0.0346	0.068
Mof_C 	C 	0.5559	0.6556	0.0366	0.088
Mof_H 	H 	0.5758	0.6836	0.0165	-0.013
Mof_C 	C 	0.7572	0.7633	0.3496	0.064
Mof_C 	C 	0.974	0.6657	0.5014	-0.149
Mof_H 	H 	0.9569	0.6703	0.4614	0.076
Mof_C 	C 	0.7647	0.9357	0.6123	0.082
Mof_H 	H 	0.7865	0.9428	0.6522	-0.01
Mof_C 	C 	0.2852	0.3983	0.0235	0.05
Mof_C 	C 	0.7646	0.8784	0.5265	0.068
Mof_C 	C 	0.033	0.6258	0.5321	0.077
Mof_H 	H 	0.055	0.6032	0.5117	-0.022
Mof_C 	C 	0.3212	0.5439	0.8205	-0.144
Mof_H 	H 	0.3652	0.5612	0.8408	0.084
Mof_C 	C 	0.7959	0.8905	0.5857	-0.133
Mof_H 	H 	0.838	0.8681	0.6075	0.083
Mof_C 	C 	0.3198	0.4979	0.9131	0.095
Mof_C 	C 	0.2876	0.5086	0.8489	0.062
Mof_C 	C 	0.3135	0.3901	0.0827	-0.131
Mof_H 	H 	0.3551	0.4131	0.1051	0.076
Mof_C 	C 	0.0269	0.6474	0.6169	0.077
Mof_H 	H 	0.0444	0.64	0.6567	-0.022
Mof_C 	C 	0.1927	0.3199	0.0213	0.073
Mof_H 	H 	0.1514	0.2954	0.0001	-0.011
Mof_C 	C 	0.7947	0.8279	0.4962	0.102
Mof_C 	C 	0.6752	0.9596	0.5269	0.094
Mof_H 	H 	0.6332	0.9829	0.5065	-0.015
Mof_C 	C 	0.4984	0.5721	0.0943	-0.143
Mof_H 	H 	0.4809	0.5424	0.1154	0.082
Mof_C 	C 	0.1934	0.4951	0.7587	0.08
Mof_H 	H 	0.1494	0.4781	0.7376	-0.027
Mof_C 	C 	0.2882	0.5536	0.7608	0.082
Mof_H 	H 	0.311	0.5778	0.7416	-0.016
Mof_C 	C 	0.7551	0.7049	0.2641	0.071
Mof_H 	H 	0.774	0.6701	0.2466	-0.018
Mof_C 	C 	0.5562	0.616	0.1218	0.087
Mof_H 	H 	0.5755	0.6176	0.162	-0.008
Mof_C 	C 	0.7856	0.7124	0.3232	-0.138
Mof_H 	H 	0.8246	0.6838	0.3451	0.07
Mof_C 	C 	0.672	0.7914	0.257	0.092
Mof_H 	H 	0.6328	0.8191	0.2344	-0.023
Mof_C 	C 	0.222	0.4834	0.8178	-0.151
Mof_H 	H 	0.1981	0.4594	0.836	0.076
Mof_C 	C 	0.6978	0.8007	0.3161	-0.148
Mof_H 	H 	0.6755	0.8316	0.3328	0.086
Mof_N 	N 	0.7043	0.97	0.5833	-0.194
Mof_N 	N 	0.0608	0.6171	0.5892	-0.216
Mof_N 	N 	0.6992	0.7456	0.2303	-0.2
Mof_N 	N 	0.8523	0.7896	0.5286	-0.138
Mof_N 	N 	0.8474	0.7332	0.4419	-0.142
Mof_N 	N 	0.7621	0.8225	0.4383	-0.137
Mof_N 	N 	0.2201	0.3129	0.0789	-0.207
Mof_N 	N 	0.5865	0.6568	0.0941	-0.189
Mof_N 	N 	0.2247	0.5292	0.73	-0.2
Mof_N 	N 	0.3741	0.4873	0.0279	-0.142
Mof_N 	N 	0.3771	0.537	0.9425	-0.137
Mof_N 	N 	0.289	0.4509	0.9365	-0.15
Mof_Ag	Ag	0.15576	0.54292	0.63274	0.523
Mof_Ag	Ag	0.17773	0.24499	0.13325	0.534
Mof_C 	C 	0.4673	0.1893	0.5904	-0.146
Mof_H 	H 	0.446	0.2103	0.612	0.082
Mof_C 	C 	0.3763	0.2441	0.499	0.099
Mof_C 	C 	0.9022	0.0287	0.0005	0.102
Mof_C 	C 	0.4402	0.1991	0.5312	0.063
Mof_C 	C 	0.2023	0.4165	0.4957	-0.135
Mof_H 	H 	0.1801	0.4128	0.4556	0.085
Mof_C 	C 	0.9961	0.1153	0.0046	-0.131
Mof_H 	H 	0.9764	0.1167	0.9644	0.084
Mof_C 	C 	0.2905	0.2739	0.4136	0.1
Mof_C 	C 	0.7797	0.8475	0.1089	0.066
Mof_H 	H 	0.7994	0.8428	0.1489	-0.026
Mof_C 	C 	0.818	0.9478	0.9944	0.093
Mof_C 	C 	0.7225	0.8617	0.9914	-0.137
Mof_H 	H 	0.7016	0.8655	0.9513	0.074
Mof_C 	C 	0.9667	0.0728	0.0346	0.065
Mof_C 	C 	0.0559	0.1556	0.0366	0.084
Mof_H 	H 	0.0758	0.1836	0.0165	-0.012
Mof_C 	C 	0.2572	0.2633	0.3496	0.064
Mof_C 	C 	0.474	0.1657	0.5014	-0.148
Mof_H 	H 	0.4569	0.1703	0.4614	0.076
Mof_C 	C 	0.2647	0.4357	0.6123	0.082
Mof_H 	H 	0.2865	0.4428	0.6522	-0.01
Mof_C 	C 	0.7852	0.8983	0.0235	0.055
Mof_C 	C 	0.2646	0.3784	0.5265	0.068
Mof_C 	C 	0.533	0.1258	0.5321	0.077
Mof_H 	H 	0.555	0.1032	0.5117	-0.022
Mof_C 	C 	0.8212	0.0439	0.8205	-0.144
Mof_H 	H 	0.8652	0.0612	0.8408	0.084
Mof_C 	C 	0.2959	0.3905	0.5857	-0.133
Mof_H 	H 	0.338	0.3681	0.6075	0.083
Mof_C 	C 	0.8198	0.9979	0.9131	0.095
Mof_C 	C 	0.7876	0.0086	0.8489	0.062
Mof_C 	C 	0.8135	0.8901	0.0827	-0.135
Mof_H 	H 	0.8551	0.9131	0.1051	0.078
Mof_C 	C 	0.5269	0.1474	0.6169	0.076
Mof_H 	H 	0.5444	0.14	0.6567	-0.021
Mof_C 	C 	0.6927	0.8199	0.0213	0.077
Mof_H 	H 	0.6514	0.7954	0.0001	-0.012
Mof_C 	C 	0.2947	0.3279	0.4962	0.102
Mof_C 	C 	0.1752	0.4596	0.5269	0.094
Mof_H 	H 	0.1332	0.4829	0.5065	-0.016
Mof_C 	C 	0.9984	0.0721	0.0943	-0.14
Mof_H 	H 	0.9809	0.0424	0.1154	0.081
Mof_C 	C 	0.6934	0.9951	0.7587	0.08
Mof_H 	H 	0.6494	0.9781	0.7376	-0.027
Mof_C 	C 	0.7882	0.0536	0.7608	0.082
Mof_H 	H 	0.811	0.0778	0.7416	-0.016
Mof_C 	C 	0.2551	0.2049	0.2641	0.071
Mof_H 	H 	0.274	0.1701	0.2466	-0.018
Mof_C 	C 	0.0562	0.116	0.1218	0.084
Mof_H 	H 	0.0755	0.1176	0.162	-0.007
Mof_C 	C 	0.2856	0.2124	0.3232	-0.138
Mof_H 	H 	0.3246	0.1838	0.3451	0.07
Mof_C 	C 	0.172	0.2914	0.257	0.092
Mof_H 	H 	0.1328	0.3191	0.2344	-0.023
Mof_C 	C 	0.722	0.9834	0.8178	-0.151
Mof_H 	H 	0.6981	0.9594	0.836	0.076
Mof_C 	C 	0.1978	0.3007	0.3161	-0.148
Mof_H 	H 	0.1755	0.3316	0.3328	0.086
Mof_N 	N 	0.2043	0.47	0.5833	-0.194
Mof_N 	N 	0.5608	0.1171	0.5892	-0.216
Mof_N 	N 	0.1992	0.2456	0.2303	-0.2
Mof_N 	N 	0.3523	0.2896	0.5286	-0.138
Mof_N 	N 	0.3474	0.2332	0.4419	-0.142
Mof_N 	N 	0.2621	0.3225	0.4383	-0.137
Mof_N 	N 	0.7201	0.8129	0.0789	-0.208
Mof_N 	N 	0.0865	0.1568	0.0941	-0.188
Mof_N 	N 	0.7247	0.0292	0.73	-0.2
Mof_N 	N 	0.8741	0.9873	0.0279	-0.142
Mof_N 	N 	0.8771	0.037	0.9425	-0.138
Mof_N 	N 	0.789	0.9509	0.9365	-0.149
Mof_Ag	Ag	0.34424	0.04292	0.86726	0.523
Mof_Ag	Ag	0.32227	0.74499	0.36675	0.534
Mof_C 	C 	0.0327	0.6893	0.9096	-0.143
Mof_H 	H 	0.054	0.7103	0.888	0.081
Mof_C 	C 	0.1237	0.7441	0.001	0.098
Mof_C 	C 	0.5978	0.5287	0.4995	0.1
Mof_C 	C 	0.0598	0.6991	0.9688	0.061
Mof_C 	C 	0.2977	0.9165	0.0043	-0.138
Mof_H 	H 	0.3199	0.9128	0.0444	0.086
Mof_C 	C 	0.5039	0.6153	0.4954	-0.136
Mof_H 	H 	0.5236	0.6167	0.5356	0.086
Mof_C 	C 	0.2095	0.7739	0.0864	0.099
Mof_C 	C 	0.7203	0.3475	0.3911	0.065
Mof_H 	H 	0.7006	0.3428	0.3511	-0.026
Mof_C 	C 	0.682	0.4478	0.5056	0.095
Mof_C 	C 	0.7775	0.3617	0.5086	-0.134
Mof_H 	H 	0.7984	0.3655	0.5487	0.073
Mof_C 	C 	0.5333	0.5728	0.4654	0.068
Mof_C 	C 	0.4441	0.6556	0.4634	0.088
Mof_H 	H 	0.4242	0.6836	0.4835	-0.013
Mof_C 	C 	0.2428	0.7633	0.1504	0.064
Mof_C 	C 	0.026	0.6657	0.9986	-0.144
Mof_H 	H 	0.0431	0.6703	0.0386	0.074
Mof_C 	C 	0.2353	0.9357	0.8877	0.083
Mof_H 	H 	0.2135	0.9428	0.8478	-0.01
Mof_C 	C 	0.7148	0.3983	0.4765	0.052
Mof_C 	C 	0.2354	0.8784	0.9735	0.07
Mof_C 	C 	0.967	0.6258	0.9679	0.073
Mof_H 	H 	0.945	0.6032	0.9883	-0.021
Mof_C 	C 	0.6788	0.5439	0.6795	-0.144
Mof_H 	H 	0.6348	0.5612	0.6592	0.084
Mof_C 	C 	0.2041	0.8905	0.9143	-0.134
Mof_H 	H 	0.162	0.8681	0.8925	0.084
Mof_C 	C 	0.6802	0.4979	0.5869	0.095
Mof_C 	C 	0.7124	0.5086	0.6511	0.062
Mof_C 	C 	0.6865	0.3901	0.4173	-0.133
Mof_H 	H 	0.6449	0.4131	0.3949	0.077
Mof_C 	C 	0.9731	0.6474	0.8831	0.074
Mof_H 	H 	0.9556	0.64	0.8433	-0.021
Mof_C 	C 	0.8073	0.3199	0.4787	0.075
Mof_H 	H 	0.8486	0.2954	0.4999	-0.012
Mof_C 	C 	0.2053	0.8279	0.0038	0.1
Mof_C 	C 	0.3248	0.9596	0.9731	0.095
Mof_H 	H 	0.3668	0.9829	0.9935	-0.016
Mof_C 	C 	0.5016	0.5721	0.4057	-0.143
Mof_H 	H 	0.5191	0.5424	0.3846	0.082
Mof_C 	C 	0.8066	0.4951	0.7413	0.08
Mof_H 	H 	0.8506	0.4781	0.7624	-0.027
Mof_C 	C 	0.7118	0.5536	0.7392	0.082
Mof_H 	H 	0.689	0.5778	0.7584	-0.016
Mof_C 	C 	0.2449	0.7049	0.2359	0.071
Mof_H 	H 	0.226	0.6701	0.2534	-0.018
Mof_C 	C 	0.4438	0.616	0.3782	0.087
Mof_H 	H 	0.4245	0.6176	0.338	-0.008
Mof_C 	C 	0.2144	0.7124	0.1768	-0.138
Mof_H 	H 	0.1754	0.6838	0.1549	0.07
Mof_C 	C 	0.328	0.7914	0.243	0.092
Mof_H 	H 	0.3672	0.8191	0.2656	-0.023
Mof_C 	C 	0.778	0.4834	0.6822	-0.151
Mof_H 	H 	0.8019	0.4594	0.664	0.076
Mof_C 	C 	0.3022	0.8007	0.1839	-0.148
Mof_H 	H 	0.3245	0.8316	0.1672	0.086
Mof_N 	N 	0.2957	0.97	0.9167	-0.194
Mof_N 	N 	0.9392	0.6171	0.9108	-0.215
Mof_N 	N 	0.3008	0.7456	0.2697	-0.2
Mof_N 	N 	0.1477	0.7896	0.9714	-0.137
Mof_N 	N 	0.1526	0.7332	0.0581	-0.142
Mof_N 	N 	0.2379	0.8225	0.0617	-0.136
Mof_N 	N 	0.7799	0.3129	0.4211	-0.208
Mof_N 	N 	0.4135	0.6568	0.4059	-0.189
Mof_N 	N 	0.7753	0.5292	0.77	-0.2
Mof_N 	N 	0.6259	0.4873	0.4721	-0.142
Mof_N 	N 	0.6229	0.537	0.5575	-0.137
Mof_N 	N 	0.711	0.4509	0.5635	-0.15
Mof_Ag	Ag	0.84424	0.54292	0.86726	0.523
Mof_Ag	Ag	0.82227	0.24499	0.36675	0.535
Mof_C 	C 	0.5327	0.1893	0.9096	-0.146
Mof_H 	H 	0.554	0.2103	0.888	0.082
Mof_C 	C 	0.6237	0.2441	0.001	0.099
Mof_C 	C 	0.0978	0.0287	0.4995	0.1
Mof_C 	C 	0.5598	0.1991	0.9688	0.062
Mof_C 	C 	0.7977	0.4165	0.0043	-0.133
Mof_H 	H 	0.8199	0.4128	0.0444	0.084
Mof_C 	C 	0.0039	0.1153	0.4954	-0.136
Mof_H 	H 	0.0236	0.1167	0.5356	0.086
Mof_C 	C 	0.7095	0.2739	0.0864	0.1
Mof_C 	C 	0.2203	0.8475	0.3911	0.065
Mof_H 	H 	0.2006	0.8428	0.3511	-0.026
Mof_C 	C 	0.182	0.9478	0.5056	0.095
Mof_C 	C 	0.2775	0.8617	0.5086	-0.134
Mof_H 	H 	0.2984	0.8655	0.5487	0.073
Mof_C 	C 	0.0333	0.0728	0.4654	0.068
Mof_C 	C 	0.9441	0.1556	0.4634	0.088
Mof_H 	H 	0.9242	0.1836	0.4835	-0.013
Mof_C 	C 	0.7428	0.2633	0.1504	0.064
Mof_C 	C 	0.526	0.1657	0.9986	-0.149
Mof_H 	H 	0.5431	0.1703	0.0386	0.076
Mof_C 	C 	0.7353	0.4357	0.8877	0.081
Mof_H 	H 	0.7135	0.4428	0.8478	-0.009
Mof_C 	C 	0.2148	0.8983	0.4765	0.052
Mof_C 	C 	0.7354	0.3784	0.9735	0.066
Mof_C 	C 	0.467	0.1258	0.9679	0.077
Mof_H 	H 	0.445	0.1032	0.9883	-0.022
Mof_C 	C 	0.1788	0.0439	0.6795	-0.144
Mof_H 	H 	0.1348	0.0612	0.6592	0.084
Mof_C 	C 	0.7041	0.3905	0.9143	-0.131
Mof_H 	H 	0.662	0.3681	0.8925	0.083
Mof_C 	C 	0.1802	0.9979	0.5869	0.095
Mof_C 	C 	0.2124	0.0086	0.6511	0.062
Mof_C 	C 	0.1865	0.8901	0.4173	-0.133
Mof_H 	H 	0.1449	0.9131	0.3949	0.077
Mof_C 	C 	0.4731	0.1474	0.8831	0.076
Mof_H 	H 	0.4556	0.14	0.8433	-0.021
Mof_C 	C 	0.3073	0.8199	0.4787	0.075
Mof_H 	H 	0.3486	0.7954	0.4999	-0.012
Mof_C 	C 	0.7053	0.3279	0.0038	0.103
Mof_C 	C 	0.8248	0.4596	0.9731	0.092
Mof_H 	H 	0.8668	0.4829	0.9935	-0.015
Mof_C 	C 	0.0016	0.0721	0.4057	-0.144
Mof_H 	H 	0.0191	0.0424	0.3846	0.082
Mof_C 	C 	0.3066	0.9951	0.7413	0.08
Mof_H 	H 	0.3506	0.9781	0.7624	-0.027
Mof_C 	C 	0.2118	0.0536	0.7392	0.082
Mof_H 	H 	0.189	0.0778	0.7584	-0.016
Mof_C 	C 	0.7449	0.2049	0.2359	0.071
Mof_H 	H 	0.726	0.1701	0.2534	-0.018
Mof_C 	C 	0.9438	0.116	0.3782	0.088
Mof_H 	H 	0.9245	0.1176	0.338	-0.008
Mof_C 	C 	0.7144	0.2124	0.1768	-0.138
Mof_H 	H 	0.6754	0.1838	0.1549	0.07
Mof_C 	C 	0.828	0.2914	0.243	0.092
Mof_H 	H 	0.8672	0.3191	0.2656	-0.023
Mof_C 	C 	0.278	0.9834	0.6822	-0.151
Mof_H 	H 	0.3019	0.9594	0.664	0.076
Mof_C 	C 	0.8022	0.3007	0.1839	-0.148
Mof_H 	H 	0.8245	0.3316	0.1672	0.086
Mof_N 	N 	0.7957	0.47	0.9167	-0.194
Mof_N 	N 	0.4392	0.1171	0.9108	-0.216
Mof_N 	N 	0.8008	0.2456	0.2697	-0.2
Mof_N 	N 	0.6477	0.2896	0.9714	-0.138
Mof_N 	N 	0.6526	0.2332	0.0581	-0.142
Mof_N 	N 	0.7379	0.3225	0.0617	-0.137
Mof_N 	N 	0.2799	0.8129	0.4211	-0.208
Mof_N 	N 	0.9135	0.1568	0.4059	-0.189
Mof_N 	N 	0.2753	0.0292	0.77	-0.2
Mof_N 	N 	0.1259	0.9873	0.4721	-0.142
Mof_N 	N 	0.1229	0.037	0.5575	-0.137
Mof_N 	N 	0.211	0.9509	0.5635	-0.15
_end
