data_functionalizedCrystal
_audit_creation_method	'EQeq! by Chris Wilmer'
_symmetry_space_group_name_H-M	'P1'
_symmetry_Int_Tables_number	1
_symmetry_cell_setting	triclinic
loop_
_symmetry_equiv_pos_as_xyz
  x,y,z
_cell_length_a	15.952
_cell_length_b	15.952
_cell_length_c	15.952
_cell_angle_alpha	90
_cell_angle_beta	90
_cell_angle_gamma	90
loop_
_atom_site_label
_atom_site_type_symbol
_atom_site_fract_x
_atom_site_fract_y
_atom_site_fract_z
_atom_site_charge
Mof_O 	O 	0.14	0.1165	0.2545	-0.551
Mof_O 	O 	0.1367	0.0148	0.3502	-0.64
Mof_O 	O 	0.136	0.0084	0.1319	-0.543
Mof_O 	O 	0.1402	0.9002	0.2197	-0.634
Mof_C 	C 	0.1389	0.0401	0.2782	0.295
Mof_C 	C 	0.1385	0.9748	0.2046	0.275
Mof_O 	O 	0.36	0.8835	0.7545	-0.55
Mof_O 	O 	0.3633	0.9852	0.8502	-0.639
Mof_O 	O 	0.364	0.9916	0.6319	-0.548
Mof_O 	O 	0.3598	0.0998	0.7197	-0.635
Mof_C 	C 	0.3611	0.9599	0.7782	0.291
Mof_C 	C 	0.3615	0.0252	0.7046	0.282
Mof_O 	O 	0.86	0.6165	0.2455	-0.55
Mof_O 	O 	0.8633	0.5148	0.1498	-0.641
Mof_O 	O 	0.864	0.5084	0.3681	-0.549
Mof_O 	O 	0.8598	0.4002	0.2803	-0.636
Mof_C 	C 	0.8611	0.5401	0.2218	0.289
Mof_C 	C 	0.8615	0.4748	0.2954	0.286
Mof_O 	O 	0.64	0.3835	0.7455	-0.55
Mof_O 	O 	0.6367	0.4852	0.6498	-0.641
Mof_O 	O 	0.636	0.4916	0.8681	-0.549
Mof_O 	O 	0.6402	0.5998	0.7803	-0.636
Mof_C 	C 	0.6389	0.4599	0.7218	0.289
Mof_C 	C 	0.6385	0.5252	0.7954	0.286
Mof_O 	O 	0.2545	0.14	0.1165	-0.55
Mof_O 	O 	0.3502	0.1367	0.0148	-0.64
Mof_O 	O 	0.1319	0.136	0.0084	-0.543
Mof_O 	O 	0.2197	0.1402	0.9002	-0.634
Mof_C 	C 	0.2782	0.1389	0.0401	0.295
Mof_C 	C 	0.2046	0.1385	0.9748	0.275
Mof_O 	O 	0.7545	0.36	0.8835	-0.55
Mof_O 	O 	0.8502	0.3633	0.9852	-0.639
Mof_O 	O 	0.6319	0.364	0.9916	-0.548
Mof_O 	O 	0.7197	0.3598	0.0998	-0.635
Mof_C 	C 	0.7782	0.3611	0.9599	0.291
Mof_C 	C 	0.7046	0.3615	0.0252	0.282
Mof_O 	O 	0.2455	0.86	0.6165	-0.55
Mof_O 	O 	0.1498	0.8633	0.5148	-0.641
Mof_O 	O 	0.3681	0.864	0.5084	-0.549
Mof_O 	O 	0.2803	0.8598	0.4002	-0.636
Mof_C 	C 	0.2218	0.8611	0.5401	0.289
Mof_C 	C 	0.2954	0.8615	0.4748	0.286
Mof_O 	O 	0.7455	0.64	0.3835	-0.55
Mof_O 	O 	0.6498	0.6367	0.4852	-0.641
Mof_O 	O 	0.8681	0.636	0.4916	-0.549
Mof_O 	O 	0.7803	0.6402	0.5998	-0.636
Mof_C 	C 	0.7218	0.6389	0.4599	0.289
Mof_C 	C 	0.7954	0.6385	0.5252	0.286
Mof_O 	O 	0.1165	0.2545	0.14	-0.55
Mof_O 	O 	0.0148	0.3502	0.1367	-0.64
Mof_O 	O 	0.0084	0.1319	0.136	-0.543
Mof_O 	O 	0.9002	0.2197	0.1402	-0.634
Mof_C 	C 	0.0401	0.2782	0.1389	0.295
Mof_C 	C 	0.9748	0.2046	0.1385	0.275
Mof_O 	O 	0.8835	0.7545	0.36	-0.55
Mof_O 	O 	0.9852	0.8502	0.3633	-0.639
Mof_O 	O 	0.9916	0.6319	0.364	-0.548
Mof_O 	O 	0.0998	0.7197	0.3598	-0.635
Mof_C 	C 	0.9599	0.7782	0.3611	0.291
Mof_C 	C 	0.0252	0.7046	0.3615	0.282
Mof_O 	O 	0.6165	0.2455	0.86	-0.55
Mof_O 	O 	0.5148	0.1498	0.8633	-0.641
Mof_O 	O 	0.5084	0.3681	0.864	-0.549
Mof_O 	O 	0.4002	0.2803	0.8598	-0.636
Mof_C 	C 	0.5401	0.2218	0.8611	0.289
Mof_C 	C 	0.4748	0.2954	0.8615	0.286
Mof_O 	O 	0.3835	0.7455	0.64	-0.55
Mof_O 	O 	0.4852	0.6498	0.6367	-0.641
Mof_O 	O 	0.4916	0.8681	0.636	-0.549
Mof_O 	O 	0.5998	0.7803	0.6402	-0.636
Mof_C 	C 	0.4599	0.7218	0.6389	0.289
Mof_C 	C 	0.5252	0.7954	0.6385	0.286
Mof_Cr	Cr	0.13195	0.13195	0.13195	2.177
Mof_Cr	Cr	0.36805	0.86805	0.63195	2.177
Mof_Cr	Cr	0.86805	0.63195	0.36805	2.177
Mof_Cr	Cr	0.63195	0.36805	0.86805	2.177
Mof_Na	Na	0.1337	0.8663	0.3663	3.219
Mof_Na	Na	0.3663	0.1337	0.8663	3.219
Mof_Na	Na	0.8663	0.3663	0.1337	3.219
Mof_Na	Na	0.6337	0.6337	0.6337	3.23
_end
