# CIF file generated by openbabel 3.1.0, see https://openbabel.org
data_I
_chemical_name_common 'image0'
_cell_length_a 15.0877
_cell_length_b 10.2027
_cell_length_c 18.6376
_cell_angle_alpha 90
_cell_angle_beta 102.521
_cell_angle_gamma 90
_space_group_name_H-M_alt 'P 1'
_space_group_name_Hall 'P 1'
loop_
    _symmetry_equiv_pos_as_xyz
    x,y,z
loop_
    _atom_site_label
    _atom_site_type_symbol
    _atom_site_fract_x
    _atom_site_fract_y
    _atom_site_fract_z
    _atom_site_occupancy
    V1       V        0.16060    0.61538    0.08485    1.000
    V2       V        0.24829    0.54620    0.28319    1.000
    P1       P        0.28632    0.87848    0.07721    1.000
    P2       P        0.66411    0.83098    0.16562    1.000
    O1       O        0.20149    0.79780    0.07685    1.000
    O2       O        0.29072    0.92820    0.00058    1.000
    O3       O        0.67506    0.92570    0.10450    1.000
    O4       O        0.20282    0.64420    0.19135    1.000
    O5       O        0.73425    0.72180    0.17027    1.000
    O6       O        0.28878    0.00060    0.12552    1.000
    O7       O        0.67100    0.90010    0.23946    1.000
    C1       C        0.38400    0.77830    0.11120    1.000
    H1       H        0.37620    0.73440    0.15680    1.000
    H2       H        0.38710    0.70920    0.07450    1.000
    C2       C        0.55390    0.75720    0.14274    1.000
    H3       H        0.55050    0.70160    0.09870    1.000
    H4       H        0.54700    0.69900    0.18370    1.000
    C3       C        0.47390    0.85330    0.12749    1.000
    H5       H        0.47660    0.91070    0.17070    1.000
    H6       H        0.47790    0.90940    0.08500    1.000
    V3       V        0.66060    0.11538    0.08485    1.000
    V4       V        0.74829    0.04620    0.28319    1.000
    P3       P        0.78632    0.37848    0.07721    1.000
    P4       P        0.16411    0.33098    0.16562    1.000
    O8       O        0.70149    0.29780    0.07685    1.000
    O9       O        0.79072    0.42820    0.00058    1.000
    O10      O        0.17506    0.42570    0.10450    1.000
    O11      O        0.70282    0.14420    0.19135    1.000
    O12      O        0.23425    0.22180    0.17027    1.000
    O13      O        0.78878    0.50060    0.12552    1.000
    O14      O        0.17100    0.40010    0.23946    1.000
    C4       C        0.88400    0.27830    0.11120    1.000
    H7       H        0.87620    0.23440    0.15680    1.000
    H8       H        0.88710    0.20920    0.07450    1.000
    C5       C        0.05390    0.25720    0.14274    1.000
    H9       H        0.05050    0.20160    0.09870    1.000
    H10      H        0.04700    0.19900    0.18370    1.000
    C6       C        0.97390    0.35330    0.12749    1.000
    H11      H        0.97660    0.41070    0.17070    1.000
    H12      H        0.97790    0.40940    0.08500    1.000
    V5       V        0.83940    0.61538    0.41515    1.000
    V6       V        0.75171    0.54620    0.21681    1.000
    P5       P        0.71368    0.87848    0.42279    1.000
    P6       P        0.33589    0.83098    0.33438    1.000
    O15      O        0.79851    0.79780    0.42315    1.000
    O16      O        0.70928    0.92820    0.49942    1.000
    O17      O        0.32494    0.92570    0.39550    1.000
    O18      O        0.79718    0.64420    0.30865    1.000
    O19      O        0.26575    0.72180    0.32973    1.000
    O20      O        0.71122    0.00060    0.37448    1.000
    O21      O        0.32900    0.90010    0.26054    1.000
    C7       C        0.61600    0.77830    0.38880    1.000
    H13      H        0.62380    0.73440    0.34320    1.000
    H14      H        0.61290    0.70920    0.42550    1.000
    C8       C        0.44610    0.75720    0.35726    1.000
    H15      H        0.44950    0.70160    0.40130    1.000
    H16      H        0.45300    0.69900    0.31630    1.000
    C9       C        0.52610    0.85330    0.37251    1.000
    H17      H        0.52340    0.91070    0.32930    1.000
    H18      H        0.52210    0.90940    0.41500    1.000
    V7       V        0.33940    0.11538    0.41515    1.000
    V8       V        0.25171    0.04620    0.21681    1.000
    P7       P        0.21368    0.37848    0.42279    1.000
    P8       P        0.83589    0.33098    0.33438    1.000
    O22      O        0.29851    0.29780    0.42315    1.000
    O23      O        0.20928    0.42820    0.49942    1.000
    O24      O        0.82494    0.42570    0.39550    1.000
    O25      O        0.29718    0.14420    0.30865    1.000
    O26      O        0.76575    0.22180    0.32973    1.000
    O27      O        0.21122    0.50060    0.37448    1.000
    O28      O        0.82900    0.40010    0.26054    1.000
    C10      C        0.11600    0.27830    0.38880    1.000
    H19      H        0.12380    0.23440    0.34320    1.000
    H20      H        0.11290    0.20920    0.42550    1.000
    C11      C        0.94610    0.25720    0.35726    1.000
    H21      H        0.94950    0.20160    0.40130    1.000
    H22      H        0.95300    0.19900    0.31630    1.000
    C12      C        0.02610    0.35330    0.37251    1.000
    H23      H        0.02340    0.41070    0.32930    1.000
    H24      H        0.02210    0.40940    0.41500    1.000
    V9       V        0.83940    0.38462    0.91515    1.000
    V10      V        0.75171    0.45380    0.71681    1.000
    P9       P        0.71368    0.12152    0.92279    1.000
    P10      P        0.33589    0.16902    0.83438    1.000
    O29      O        0.79851    0.20220    0.92315    1.000
    O30      O        0.70928    0.07180    0.99942    1.000
    O31      O        0.32494    0.07430    0.89550    1.000
    O32      O        0.79718    0.35580    0.80865    1.000
    O33      O        0.26575    0.27820    0.82973    1.000
    O34      O        0.71122    0.99940    0.87448    1.000
    O35      O        0.32900    0.09990    0.76054    1.000
    C13      C        0.61600    0.22170    0.88880    1.000
    H25      H        0.62380    0.26560    0.84320    1.000
    H26      H        0.61290    0.29080    0.92550    1.000
    C14      C        0.44610    0.24280    0.85726    1.000
    H27      H        0.44950    0.29840    0.90130    1.000
    H28      H        0.45300    0.30100    0.81630    1.000
    C15      C        0.52610    0.14670    0.87251    1.000
    H29      H        0.52340    0.08930    0.82930    1.000
    H30      H        0.52210    0.09060    0.91500    1.000
    V11      V        0.33940    0.88462    0.91515    1.000
    V12      V        0.25171    0.95380    0.71681    1.000
    P11      P        0.21368    0.62152    0.92279    1.000
    P12      P        0.83589    0.66902    0.83438    1.000
    O36      O        0.29851    0.70220    0.92315    1.000
    O37      O        0.20928    0.57180    0.99942    1.000
    O38      O        0.82494    0.57430    0.89550    1.000
    O39      O        0.29718    0.85580    0.80865    1.000
    O40      O        0.76575    0.77820    0.82973    1.000
    O41      O        0.21122    0.49940    0.87448    1.000
    O42      O        0.82900    0.59990    0.76054    1.000
    C16      C        0.11600    0.72170    0.88880    1.000
    H31      H        0.12380    0.76560    0.84320    1.000
    H32      H        0.11290    0.79080    0.92550    1.000
    C17      C        0.94610    0.74280    0.85726    1.000
    H33      H        0.94950    0.79840    0.90130    1.000
    H34      H        0.95300    0.80100    0.81630    1.000
    C18      C        0.02610    0.64670    0.87251    1.000
    H35      H        0.02340    0.58930    0.82930    1.000
    H36      H        0.02210    0.59060    0.91500    1.000
    V13      V        0.16060    0.38462    0.58485    1.000
    V14      V        0.24829    0.45380    0.78319    1.000
    P13      P        0.28632    0.12152    0.57721    1.000
    P14      P        0.66411    0.16902    0.66562    1.000
    O43      O        0.20149    0.20220    0.57685    1.000
    O44      O        0.29072    0.07180    0.50058    1.000
    O45      O        0.67506    0.07430    0.60450    1.000
    O46      O        0.20282    0.35580    0.69135    1.000
    O47      O        0.73425    0.27820    0.67027    1.000
    O48      O        0.28878    0.99940    0.62552    1.000
    O49      O        0.67100    0.09990    0.73946    1.000
    C19      C        0.38400    0.22170    0.61120    1.000
    H37      H        0.37620    0.26560    0.65680    1.000
    H38      H        0.38710    0.29080    0.57450    1.000
    C20      C        0.55390    0.24280    0.64274    1.000
    H39      H        0.55050    0.29840    0.59870    1.000
    H40      H        0.54700    0.30100    0.68370    1.000
    C21      C        0.47390    0.14670    0.62749    1.000
    H41      H        0.47660    0.08930    0.67070    1.000
    H42      H        0.47790    0.09060    0.58500    1.000
    V15      V        0.66060    0.88462    0.58485    1.000
    V16      V        0.74829    0.95380    0.78319    1.000
    P15      P        0.78632    0.62152    0.57721    1.000
    P16      P        0.16411    0.66902    0.66562    1.000
    O50      O        0.70149    0.70220    0.57685    1.000
    O51      O        0.79072    0.57180    0.50058    1.000
    O52      O        0.17506    0.57430    0.60450    1.000
    O53      O        0.70282    0.85580    0.69135    1.000
    O54      O        0.23425    0.77820    0.67027    1.000
    O55      O        0.78878    0.49940    0.62552    1.000
    O56      O        0.17100    0.59990    0.73946    1.000
    C22      C        0.88400    0.72170    0.61120    1.000
    H43      H        0.87620    0.76560    0.65680    1.000
    H44      H        0.88710    0.79080    0.57450    1.000
    C23      C        0.05390    0.74280    0.64274    1.000
    H45      H        0.05050    0.79840    0.59870    1.000
    H46      H        0.04700    0.80100    0.68370    1.000
    C24      C        0.97390    0.64670    0.62749    1.000
    H47      H        0.97660    0.58930    0.67070    1.000
    H48      H        0.97790    0.59060    0.58500    1.000
