data_functionalizedCrystal
_audit_creation_method	'EQeq! by Chris Wilmer'
_symmetry_space_group_name_H-M	'P1'
_symmetry_Int_Tables_number	1
_symmetry_cell_setting	triclinic
loop_
_symmetry_equiv_pos_as_xyz
  x,y,z
_cell_length_a	11.2534
_cell_length_b	16.2117
_cell_length_c	33.3116
_cell_angle_alpha	90
_cell_angle_beta	96.7974
_cell_angle_gamma	90
loop_
_atom_site_label
_atom_site_type_symbol
_atom_site_fract_x
_atom_site_fract_y
_atom_site_fract_z
_atom_site_charge
Mof_Co	Co	0.1652	0.5659	0.14658	1.179
Mof_Co	Co	0.07724	0.54075	0.46406	1.183
Mof_Co	Co	0.57724	0.95925	0.96406	1.179
Mof_Co	Co	0.87837	0.49286	0.11403	1.177
Mof_Co	Co	0.04791	0.4205	0.19503	1.178
Mof_Co	Co	0.62163	0.99286	0.38597	1.173
Mof_Co	Co	0.12163	0.50714	0.88597	1.177
Mof_Co	Co	0.42276	0.04075	0.03594	1.187
Mof_Co	Co	0.54791	0.0795	0.69503	1.182
Mof_Co	Co	0.95209	0.5795	0.80497	1.179
Mof_Co	Co	0.6652	0.9341	0.64658	1.174
Mof_Co	Co	0.45209	0.9205	0.30497	1.175
Mof_Co	Co	0.92276	0.45925	0.53594	1.184
Mof_Co	Co	0.3348	0.0659	0.35342	1.184
Mof_Co	Co	0.37837	0.00714	0.61403	1.183
Mof_Co	Co	0.8348	0.4341	0.85342	1.18
Mof_H 	H 	0.744	0.3305	0.2424	0.059
Mof_H 	H 	0.2604	0.6824	0.3808	0.071
Mof_H 	H 	0.8395	0.7076	0.5691	0.069
Mof_H 	H 	0.4423	0.0321	0.1946	0.066
Mof_H 	H 	0.826	0.7286	0.4483	0.061
Mof_H 	H 	0.7396	0.3176	0.6192	0.072
Mof_H 	H 	0.3395	0.7924	0.0691	0.068
Mof_H 	H 	0.8064	0.4098	0.9874	0.067
Mof_H 	H 	0.4304	0.5529	0.5381	0.067
Mof_H 	H 	0.0978	0.7873	0.1179	0.067
Mof_H 	H 	0.5696	0.4471	0.4619	0.067
Mof_H 	H 	0.2798	0.6955	0.2618	0.063
Mof_H 	H 	0.674	0.2286	0.0517	0.063
Mof_H 	H 	0.9423	0.4679	0.6946	0.062
Mof_H 	H 	0.1936	0.5902	0.0126	0.066
Mof_H 	H 	0.9304	0.9471	0.0381	0.063
Mof_H 	H 	0.6605	0.2076	0.9309	0.071
Mof_H 	H 	0.174	0.2714	0.5517	0.062
Mof_H 	H 	0.0577	0.5321	0.3054	0.062
Mof_H 	H 	0.7202	0.3045	0.7382	0.065
Mof_H 	H 	0.326	0.7714	0.9483	0.061
Mof_H 	H 	0.7792	0.7286	0.0576	0.063
Mof_H 	H 	0.244	0.1695	0.7424	0.059
Mof_H 	H 	0.3873	0.3409	0.2417	0.055
Mof_H 	H 	0.9534	0.9777	0.3365	0.051
Mof_H 	H 	0.6936	0.9098	0.5126	0.063
Mof_H 	H 	0.6127	0.6591	0.7583	0.055
Mof_H 	H 	0.1605	0.2924	0.4309	0.07
Mof_H 	H 	0.1127	0.8409	0.2583	0.055
Mof_H 	H 	0.5577	0.9679	0.8054	0.058
Mof_H 	H 	0.2208	0.2714	0.9424	0.063
Mof_H 	H 	0.2202	0.1955	0.2382	0.065
Mof_H 	H 	0.756	0.8305	0.2576	0.057
Mof_H 	H 	0.2396	0.1824	0.1192	0.072
Mof_H 	H 	0.7798	0.8045	0.7618	0.063
Mof_H 	H 	0.8873	0.1591	0.7417	0.056
Mof_H 	H 	0.9022	0.2127	0.8821	0.066
Mof_H 	H 	0.5466	0.4777	0.1635	0.054
Mof_H 	H 	0.256	0.6695	0.7576	0.057
Mof_H 	H 	0.4534	0.5223	0.8365	0.054
Mof_H 	H 	0.3064	0.0902	0.4874	0.07
Mof_H 	H 	0.4022	0.2873	0.3821	0.067
Mof_H 	H 	0.7208	0.2286	0.4424	0.065
Mof_H 	H 	0.7604	0.8176	0.8808	0.071
Mof_H 	H 	0.5978	0.7127	0.6179	0.067
Mof_H 	H 	0.2792	0.7714	0.5576	0.061
Mof_H 	H 	0.0696	0.0529	0.9619	0.071
Mof_H 	H 	0.0466	0.0223	0.6635	0.058
Mof_C 	C 	0.07699	0.2333	0.78209	0.306
Mof_C 	C 	0.40212	0.066	0.11622	0.322
Mof_C 	C 	0.90391	0.6238	0.50591	0.37
Mof_C 	C 	0.76933	0.3587	0.98843	0.02
Mof_C 	C 	0.84185	0.7658	0.06325	0.029
Mof_C 	C 	0.93379	0.8268	0.25209	-0.083
Mof_C 	C 	0.73067	0.8587	0.51157	0.022
Mof_C 	C 	0.33642	0.5918	0.79962	-0.105
Mof_C 	C 	0.13734	0.2753	0.16954	0.316
Mof_C 	C 	0.28866	0.1284	0.56446	0.336
Mof_C 	C 	0.74757	0.8282	0.78347	0.031
Mof_C 	C 	0.83642	0.9082	0.29962	-0.105
Mof_C 	C 	0.06621	0.1732	0.74791	-0.082
Mof_C 	C 	0.63734	0.2247	0.66954	0.316
Mof_C 	C 	0.76484	0.8147	0.54714	-0.069
Mof_C 	C 	0.09788	0.566	0.38378	0.322
Mof_C 	C 	0.83473	0.3932	0.72323	-0.086
Mof_C 	C 	0.34185	0.7342	0.56325	0.031
Mof_C 	C 	0.36266	0.7753	0.33046	0.317
Mof_C 	C 	0.23067	0.6413	0.01157	0.022
Mof_C 	C 	0.06745	0.1036	0.94875	0.02
Mof_C 	C 	0.26933	0.1413	0.48843	0.019
Mof_C 	C 	0.34351	0.7938	0.00841	-0.087
Mof_C 	C 	0.63774	0.5688	0.58714	0.287
Mof_C 	C 	0.96914	0.1248	0.92124	-0.061
Mof_C 	C 	0.42301	0.7333	0.71791	0.309
Mof_C 	C 	0.55703	0.1622	0.38933	0.365
Mof_C 	C 	0.25243	0.1718	0.21653	0.029
Mof_C 	C 	0.78866	0.3716	0.06446	0.336
Mof_C 	C 	0.86266	0.7247	0.83046	0.317
Mof_C 	C 	0.23541	0.6646	0.35461	0.023
Mof_C 	C 	0.21134	0.6284	0.93554	0.337
Mof_C 	C 	0.05703	0.3378	0.88933	0.365
Mof_C 	C 	0.63327	0.9272	0.73507	0.378
Mof_C 	C 	0.46695	0.3006	0.40095	0.02
Mof_C 	C 	0.22953	0.6383	0.51393	0.322
Mof_C 	C 	0.73541	0.8354	0.85461	0.023
Mof_C 	C 	0.23765	0.6475	0.08655	0.301
Mof_C 	C 	0.66201	0.3416	0.45641	-0.065
Mof_C 	C 	0.24756	0.1743	0.52526	-0.07
Mof_C 	C 	0.78135	0.7989	0.82265	-0.069
Mof_C 	C 	0.74756	0.3257	0.02526	-0.071
Mof_C 	C 	0.43379	0.6732	0.75209	-0.083
Mof_C 	C 	0.55179	0.4398	0.18459	0.053
Mof_C 	C 	0.32653	0.4489	0.18493	0.371
Mof_C 	C 	0.65815	0.2658	0.43675	0.029
Mof_C 	C 	0.18997	0.2502	0.52697	0.031
Mof_C 	C 	0.09609	0.3762	0.49409	0.37
Mof_C 	C 	0.11546	0.5732	0.30956	0.033
Mof_C 	C 	0.71865	0.2989	0.67735	-0.066
Mof_C 	C 	0.44821	0.5602	0.81541	0.054
Mof_C 	C 	0.7239	0.9335	0.3167	0.401
Mof_C 	C 	0.88454	0.4268	0.69044	0.032
Mof_C 	C 	0.96695	0.1994	0.90095	0.026
Mof_C 	C 	0.27047	0.1383	0.98607	0.32
Mof_C 	C 	0.73516	0.3147	0.95286	-0.064
Mof_C 	C 	0.26235	0.1475	0.41345	0.3
Mof_C 	C 	0.54341	0.6417	0.76851	0.045
Mof_C 	C 	0.94297	0.6622	0.11067	0.366
Mof_C 	C 	0.61546	0.9268	0.80956	0.034
Mof_C 	C 	0.92301	0.7667	0.21791	0.307
Mof_C 	C 	0.16201	0.1584	0.95641	-0.065
Mof_C 	C 	0.15815	0.2342	0.93675	0.031
Mof_C 	C 	0.84774	0.3987	0.65164	-0.063
Mof_C 	C 	0.16527	0.6068	0.27677	-0.087
Mof_C 	C 	0.86673	0.4272	0.76493	0.378
Mof_C 	C 	0.65226	0.8987	0.84836	-0.067
Mof_C 	C 	0.17347	0.9489	0.31507	0.35
Mof_C 	C 	0.36673	0.0728	0.26493	0.377
Mof_C 	C 	0.95659	0.1417	0.73149	0.045
Mof_C 	C 	0.26459	0.1646	0.14539	0.021
Mof_C 	C 	0.56745	0.3964	0.44875	0.019
Mof_C 	C 	0.76459	0.3354	0.64539	0.022
Mof_C 	C 	0.55207	0.5855	0.79947	-0.1
Mof_C 	C 	0.86226	0.0688	0.91286	0.306
Mof_C 	C 	0.53086	0.6248	0.57876	-0.061
Mof_C 	C 	0.68065	0.2378	0.95445	0.023
Mof_C 	C 	0.83799	0.8416	0.04359	-0.067
Mof_C 	C 	0.04341	0.8583	0.26851	0.041
Mof_C 	C 	0.77047	0.3617	0.48607	0.321
Mof_C 	C 	0.44793	0.4145	0.20053	-0.099
Mof_C 	C 	0.34774	0.1013	0.15164	-0.06
Mof_C 	C 	0.90212	0.434	0.61622	0.322
Mof_C 	C 	0.73765	0.8525	0.58655	0.302
Mof_C 	C 	0.82985	0.8519	0.26815	0.044
Mof_C 	C 	0.68997	0.2498	0.02697	0.031
Mof_C 	C 	0.40391	0.8762	0.00591	0.371
Mof_C 	C 	0.7761	0.4335	0.1833	0.401
Mof_C 	C 	0.81003	0.7498	0.47303	0.033
Mof_C 	C 	0.32985	0.6481	0.76815	0.046
Mof_C 	C 	0.05179	0.0602	0.68459	0.048
Mof_C 	C 	0.71134	0.8716	0.43554	0.338
Mof_C 	C 	0.28135	0.7011	0.32265	-0.068
Mof_C 	C 	0.06159	0.2547	0.90879	-0.085
Mof_C 	C 	0.75244	0.8257	0.47474	-0.075
Mof_C 	C 	0.84351	0.7062	0.50841	-0.086
Mof_C 	C 	0.75243	0.3282	0.71653	0.029
Mof_C 	C 	0.46914	0.3752	0.42124	-0.059
Mof_C 	C 	0.43255	0.6036	0.55125	0.021
Mof_C 	C 	0.56159	0.2453	0.40879	-0.081
Mof_C 	C 	0.94793	0.0855	0.70053	-0.093
Mof_C 	C 	0.05207	0.9145	0.29947	-0.095
Mof_C 	C 	0.15226	0.6013	0.34836	-0.064
Mof_C 	C 	0.23516	0.1853	0.45286	-0.063
Mof_C 	C 	0.67015	0.3519	0.23185	0.045
Mof_C 	C 	0.31003	0.7502	0.97303	0.033
Mof_C 	C 	0.66527	0.8932	0.77677	-0.09
Mof_C 	C 	0.94821	0.9398	0.31541	0.049
Mof_C 	C 	0.59788	0.934	0.88378	0.322
Mof_C 	C 	0.16358	0.0918	0.70038	-0.1
Mof_C 	C 	0.15649	0.2938	0.49159	-0.083
Mof_C 	C 	0.13327	0.5728	0.23507	0.378
Mof_C 	C 	0.59609	0.1238	0.99409	0.369
Mof_C 	C 	0.03086	0.8752	0.07876	-0.057
Mof_C 	C 	0.21865	0.2011	0.17735	-0.065
Mof_C 	C 	0.56621	0.3268	0.24791	-0.082
Mof_C 	C 	0.2761	0.0665	0.6833	0.4
Mof_C 	C 	0.24757	0.6718	0.28347	0.03
Mof_C 	C 	0.18065	0.2622	0.45445	0.023
Mof_C 	C 	0.33799	0.6584	0.54359	-0.067
Mof_C 	C 	0.57699	0.2667	0.28209	0.308
Mof_C 	C 	0.81935	0.7378	0.54555	0.026
Mof_C 	C 	0.93841	0.7453	0.09121	-0.083
Mof_C 	C 	0.38454	0.0732	0.19044	0.031
Mof_C 	C 	0.17015	0.1481	0.73185	0.044
Mof_C 	C 	0.65649	0.2062	0.99159	-0.082
Mof_C 	C 	0.93255	0.8964	0.05125	0.016
Mof_C 	C 	0.43841	0.7547	0.59121	-0.085
Mof_C 	C 	0.53305	0.6994	0.59905	0.022
Mof_C 	C 	0.03305	0.8006	0.09905	0.019
Mof_C 	C 	0.13774	0.9312	0.08714	0.269
Mof_C 	C 	0.31935	0.7622	0.04555	0.026
Mof_C 	C 	0.66358	0.4082	0.20038	-0.104
Mof_C 	C 	0.82653	0.0511	0.68493	0.369
Mof_C 	C 	0.26484	0.6853	0.04714	-0.067
Mof_C 	C 	0.2239	0.5665	0.8167	0.401
Mof_C 	C 	0.76235	0.3525	0.91345	0.3
Mof_C 	C 	0.25244	0.6743	0.97474	-0.074
Mof_C 	C 	0.67347	0.5511	0.81507	0.371
Mof_C 	C 	0.72953	0.8617	0.01393	0.322
Mof_C 	C 	0.45659	0.3583	0.23149	0.044
Mof_C 	C 	0.33473	0.1068	0.22323	-0.083
Mof_C 	C 	0.36226	0.4312	0.41286	0.287
Mof_C 	C 	0.44297	0.8378	0.61067	0.368
Mof_O 	O 	0.12792	0.3908	0.90532	-0.421
Mof_O 	O 	0.82066	1.67327e-32	0.65576	-0.385
Mof_O 	O 	0.77655	0.0861	0.88925	-0.217
Mof_O 	O 	0.74172	0.0747	0.70272	-0.406
Mof_O 	O 	0.84215	0.4209	0.58125	-0.377
Mof_O 	O 	0.87059	0.4015	0.19969	-0.434
Mof_O 	O 	0.62792	0.1092	0.40532	-0.413
Mof_O 	O 	0.0776	0.4184	0.4622	-0.434
Mof_O 	O 	0.67672	0.918	0.58512	-0.38
Mof_O 	O 	0.87208	0.6092	0.09468	-0.421
Mof_O 	O 	0.72459	0.3192	0.88029	-0.293
Mof_O 	O 	0.06932	0.398	0.52812	-0.45
Mof_O 	O 	0.17934	0	0.34424	-0.376
Mof_O 	O 	0.91729	0.7006	0.80099	-0.379
Mof_O 	O 	0.4224	0.9184	0.0378	-0.442
Mof_O 	O 	0.58271	0.2006	0.69901	-0.377
Mof_O 	O 	0.87038	0.9997	0.93408	-0.217
Mof_O 	O 	0.37105	0.8066	0.36435	-0.268
Mof_O 	O 	0.17672	0.582	0.08512	-0.374
Mof_O 	O 	0.8319	0.7342	0.2047	-0.225
Mof_O 	O 	0.29332	0.0616	0.99112	-0.394
Mof_O 	O 	0.47463	0.2534	0.29593	-0.198
Mof_O 	O 	0.76574	0.4837	0.15474	-0.451
Mof_O 	O 	0.44536	0.0156	0.26756	-0.425
Mof_O 	O 	0.55464	0.9844	0.73244	-0.444
Mof_O 	O 	0.70668	0.9384	0.00888	-0.404
Mof_O 	O 	0.43068	0.898	0.97188	-0.453
Mof_O 	O 	0.23426	0.5163	0.84526	-0.452
Mof_O 	O 	0.08271	0.2994	0.19901	-0.377
Mof_O 	O 	0.0171	0.6498	0.1416	-0.396
Mof_O 	O 	0.77541	0.8192	0.61971	-0.297
Mof_O 	O 	0.20879	0.6641	0.90289	-0.296
Mof_O 	O 	0.9224	0.5816	0.5378	-0.435
Mof_O 	O 	0.26574	0.0163	0.65474	-0.446
Mof_O 	O 	0.97463	0.2466	0.79593	-0.196
Mof_O 	O 	0.32968	0.195	0.00358	-0.268
Mof_O 	O 	0.25828	0.9253	0.29728	-0.411
Mof_O 	O 	0.37059	0.0985	0.69969	-0.431
Mof_O 	O 	0.93068	0.602	0.47188	-0.449
Mof_O 	O 	0.6681	0.2342	0.2953	-0.221
Mof_O 	O 	0.04468	0.46858	0.13788	-0.596
Mof_O 	O 	0.94536	0.4844	0.76756	-0.434
Mof_O 	O 	0.4829	0.1498	0.3584	-0.393
Mof_O 	O 	0.5171	0.8502	0.6416	-0.399
Mof_O 	O 	0.79332	0.4384	0.49112	-0.399
Mof_O 	O 	0.67032	0.805	0.99642	-0.27
Mof_O 	O 	0.82328	0.418	0.91488	-0.373
Mof_O 	O 	0.27655	0.4139	0.38925	-0.218
Mof_O 	O 	0.70879	0.8359	0.40289	-0.296
Mof_O 	O 	0.31619	0.1008	0.29339	-0.403
Mof_O 	O 	0.54468	0.03142	0.63788	-0.589
Mof_O 	O 	0.22345	0.9139	0.11075	-0.219
Mof_O 	O 	0.34215	0.0791	0.08125	-0.375
Mof_O 	O 	0.12895	0.3066	0.13565	-0.266
Mof_O 	O 	0.37208	0.8908	0.59468	-0.429
Mof_O 	O 	0.17707	0.5554	0.93877	-0.411
Mof_O 	O 	0.24172	0.4253	0.20272	-0.412
Mof_O 	O 	0.15785	0.5791	0.41875	-0.377
Mof_O 	O 	0.02537	0.7534	0.20407	-0.199
Mof_O 	O 	0.62895	0.1934	0.63565	-0.265
Mof_O 	O 	0.17032	0.695	0.49642	-0.271
Mof_O 	O 	0.41729	0.7994	0.30099	-0.379
Mof_O 	O 	0.95532	0.53142	0.86212	-0.596
Mof_O 	O 	0.18381	0.6008	0.20661	-0.407
Mof_O 	O 	0.45532	0.96858	0.36212	-0.604
Mof_O 	O 	0.56932	0.102	0.02812	-0.445
Mof_O 	O 	0.05464	0.5156	0.23244	-0.435
Mof_O 	O 	0.32066	0.5	0.15576	-0.395
Mof_O 	O 	0.1681	0.2658	0.7953	-0.222
Mof_O 	O 	0.79121	0.3359	0.09711	-0.294
Mof_O 	O 	0.82293	0.4446	0.06123	-0.41
Mof_O 	O 	0.9829	0.3502	0.8584	-0.394
Mof_O 	O 	0.50216	0.9714	0.87926	-0.272
Mof_O 	O 	0.32293	0.0554	0.56123	-0.405
Mof_O 	O 	0.12941	0.5985	0.80031	-0.436
Mof_O 	O 	0.82968	0.305	0.50358	-0.267
Mof_O 	O 	0.81619	0.3992	0.79339	-0.406
Mof_O 	O 	0.52537	0.7466	0.70407	-0.199
Mof_O 	O 	0.27541	0.6808	0.11971	-0.295
Mof_O 	O 	0.29121	0.1641	0.59711	-0.294
Mof_O 	O 	0.72345	0.5861	0.61075	-0.218
Mof_O 	O 	0.73426	0.9837	0.34526	-0.457
Mof_O 	O 	0.37038	0.5003	0.43408	-0.2
Mof_O 	O 	0.75828	0.5747	0.79728	-0.412
Mof_O 	O 	0.00216	0.5286	0.37926	-0.266
Mof_O 	O 	0.87105	0.6934	0.86435	-0.266
Mof_O 	O 	0.68381	0.8992	0.70661	-0.411
Mof_O 	O 	0.12962	0.0003	0.06592	-0.183
Mof_O 	O 	0.20668	0.5616	0.50888	-0.399
Mof_O 	O 	0.22459	0.1808	0.38029	-0.293
Mof_O 	O 	0.32328	0.082	0.41488	-0.369
Mof_O 	O 	0.5776	0.0816	0.9622	-0.426
Mof_O 	O 	0.62941	0.9015	0.30031	-0.437
Mof_O 	O 	0.65785	0.9209	0.91875	-0.38
Mof_O 	O 	0.49784	0.0286	0.12074	-0.259
Mof_O 	O 	0.99784	0.4714	0.62074	-0.266
Mof_O 	O 	0.67707	0.9446	0.43877	-0.416
Mof_O 	O 	0.3319	0.7658	0.7047	-0.226
Mof_O 	O 	0.62962	0.4997	0.56592	-0.2
Mof_O 	O 	0.67934	0.5	0.84424	-0.395
_end
