# CIF file generated by openbabel 3.1.0, see https://openbabel.org
data_I
_chemical_name_common 'image0'
_cell_length_a 9.4442
_cell_length_b 15.449
_cell_length_c 9.5719
_cell_angle_alpha 90
_cell_angle_beta 93.268
_cell_angle_gamma 90
_space_group_name_H-M_alt 'P 1'
_space_group_name_Hall 'P 1'
loop_
    _symmetry_equiv_pos_as_xyz
    x,y,z
loop_
    _atom_site_label
    _atom_site_type_symbol
    _atom_site_fract_x
    _atom_site_fract_y
    _atom_site_fract_z
    _atom_site_occupancy
    U1       U        0.45078    0.22963    0.19832    1.000
    P1       P        0.20300    0.20140    0.96830    1.000
    O1       O        0.36450    0.20110    0.94930    1.000
    O2       O        0.19610    0.23110    0.11760    1.000
    O3       O        0.12480    0.26470    0.86480    1.000
    O4       O        0.14760    0.10920    0.94640    1.000
    U2       U        0.95078    0.72963    0.69832    1.000
    P2       P        0.70300    0.70140    0.46830    1.000
    O5       O        0.86450    0.70110    0.44930    1.000
    O6       O        0.69610    0.73110    0.61760    1.000
    O7       O        0.62480    0.76470    0.36480    1.000
    O8       O        0.64760    0.60920    0.44640    1.000
    U3       U        0.54922    0.22963    0.80168    1.000
    P3       P        0.79700    0.20140    0.03170    1.000
    O9       O        0.63550    0.20110    0.05070    1.000
    O10      O        0.80390    0.23110    0.88240    1.000
    O11      O        0.87520    0.26470    0.13520    1.000
    O12      O        0.85240    0.10920    0.05360    1.000
    U4       U        0.04922    0.72963    0.30168    1.000
    P4       P        0.29700    0.70140    0.53170    1.000
    O13      O        0.13550    0.70110    0.55070    1.000
    O14      O        0.30390    0.73110    0.38240    1.000
    O15      O        0.37520    0.76470    0.63520    1.000
    O16      O        0.35240    0.60920    0.55360    1.000
    U5       U        0.54922    0.77037    0.80168    1.000
    P5       P        0.79700    0.79860    0.03170    1.000
    O17      O        0.63550    0.79890    0.05070    1.000
    O18      O        0.80390    0.76890    0.88240    1.000
    O19      O        0.87520    0.73530    0.13520    1.000
    O20      O        0.85240    0.89080    0.05360    1.000
    U6       U        0.04922    0.27037    0.30168    1.000
    P6       P        0.29700    0.29860    0.53170    1.000
    O21      O        0.13550    0.29890    0.55070    1.000
    O22      O        0.30390    0.26890    0.38240    1.000
    O23      O        0.37520    0.23530    0.63520    1.000
    O24      O        0.35240    0.39080    0.55360    1.000
    U7       U        0.45078    0.77037    0.19832    1.000
    P7       P        0.20300    0.79860    0.96830    1.000
    O25      O        0.36450    0.79890    0.94930    1.000
    O26      O        0.19610    0.76890    0.11760    1.000
    O27      O        0.12480    0.73530    0.86480    1.000
    O28      O        0.14760    0.89080    0.94640    1.000
    U8       U        0.95078    0.27037    0.69832    1.000
    P8       P        0.70300    0.29860    0.46830    1.000
    O29      O        0.86450    0.29890    0.44930    1.000
    O30      O        0.69610    0.26890    0.61760    1.000
    O31      O        0.62480    0.23530    0.36480    1.000
    O32      O        0.64760    0.39080    0.44640    1.000
    U9       U        0.00000    0.00000    0.00000    1.000
    U10      U        0.50000    0.50000    0.50000    1.000
