data_functionalizedCrystal
_audit_creation_method	'EQeq! by Chris Wilmer'
_symmetry_space_group_name_H-M	'P1'
_symmetry_Int_Tables_number	1
_symmetry_cell_setting	triclinic
loop_
_symmetry_equiv_pos_as_xyz
  x,y,z
_cell_length_a	24.087
_cell_length_b	5.3812
_cell_length_c	6.66
_cell_angle_alpha	90
_cell_angle_beta	90
_cell_angle_gamma	90
loop_
_atom_site_label
_atom_site_type_symbol
_atom_site_fract_x
_atom_site_fract_y
_atom_site_fract_z
_atom_site_charge
Mof_O 	O 	0.6827	0.4576	0.1855	-0.7
Mof_O 	O 	0.5503	0.9376	0.6886	-0.235
Mof_O 	O 	0.3173	0.5424	0.1855	-0.697
Mof_O 	O 	0.4497	0.0624	0.6886	-0.251
Mof_O 	O 	0.8173	0.9576	0.3145	-0.685
Mof_O 	O 	0.9497	0.4376	0.8114	-0.124
Mof_O 	O 	0.1827	0.0424	0.3145	-0.697
Mof_O 	O 	0.0503	0.5624	0.8114	-0.134
Mof_O 	O 	0.3173	0.5424	0.8145	-0.538
Mof_O 	O 	0.4497	0.0624	0.3114	-0.327
Mof_O 	O 	0.6827	0.4576	0.8145	-0.54
Mof_O 	O 	0.5503	0.9376	0.3114	-0.31
Mof_O 	O 	0.1827	0.0424	0.6855	-0.607
Mof_O 	O 	0.0503	0.5624	0.1886	-0.272
Mof_O 	O 	0.8173	0.9576	0.6855	-0.595
Mof_O 	O 	0.9497	0.4376	0.1886	-0.262
Mof_Zr	Zr	0.6841	0.45	0.5	3.215
Mof_P 	P 	0.5872	0.9577	0.5	0.668
Mof_O 	O 	0.628	0.743	0.5	-0.693
Mof_O 	O 	0.6176	0.205	0.5	-0.677
Mof_Zr	Zr	0.3159	0.55	0.5	3.214
Mof_P 	P 	0.4128	0.0423	0.5	0.637
Mof_O 	O 	0.372	0.257	0.5	-0.695
Mof_O 	O 	0.3824	0.795	0.5	-0.647
Mof_Zr	Zr	0.8159	0.95	-0	3.201
Mof_P 	P 	0.9128	0.4577	-0	0.539
Mof_O 	O 	0.872	0.243	-0	-0.717
Mof_O 	O 	0.8824	0.705	-0	-0.725
Mof_Zr	Zr	0.1841	0.05	-0	3.198
Mof_P 	P 	0.0872	0.5423	-0	0.539
Mof_O 	O 	0.128	0.757	-0	-0.704
Mof_O 	O 	0.1176	0.295	-0	-0.734
Mof_P 	P 	0.7207	0.4437	-0	0.658
Mof_O 	O 	0.7611	0.6595	-0	-0.83
Mof_O 	O 	0.7526	0.1975	-0	-0.813
Mof_P 	P 	0.2793	0.5563	-0	0.658
Mof_O 	O 	0.2389	0.3405	-0	-0.835
Mof_O 	O 	0.2474	0.8025	-0	-0.796
Mof_P 	P 	0.7793	0.9437	0.5	0.768
Mof_O 	O 	0.7389	0.1595	0.5	-0.737
Mof_O 	O 	0.7474	0.6975	0.5	-0.758
Mof_P 	P 	0.2207	0.0563	0.5	0.742
Mof_O 	O 	0.2611	0.8405	0.5	-0.71
Mof_O 	O 	0.2526	0.3025	0.5	-0.759
Mof_H 	H 	0.5	0	0.3114	0.185
Mof_H 	H 	6.52436e-34	0.5	0.1886	0.168
Mof_H 	H 	0.5	-7.31062e-33	0.6886	0.207
Mof_H 	H 	2.66883e-33	0.5	0.8114	0.207
_end
