data_functionalizedCrystal
_audit_creation_method	'EQeq! by Chris Wilmer'
_symmetry_space_group_name_H-M	'P1'
_symmetry_Int_Tables_number	1
_symmetry_cell_setting	triclinic
loop_
_symmetry_equiv_pos_as_xyz
  x,y,z
_cell_length_a	8.4672
_cell_length_b	17.1205
_cell_length_c	17.1205
_cell_angle_alpha	90
_cell_angle_beta	90
_cell_angle_gamma	90
loop_
_atom_site_label
_atom_site_type_symbol
_atom_site_fract_x
_atom_site_fract_y
_atom_site_fract_z
_atom_site_charge
Mof_Tb	Tb	0.1498	0.89018	0.96267	2.18
Mof_Tb	Tb	0.1498	0.10982	0.03733	2.18
Mof_Tb	Tb	0.8502	0.96267	0.10982	2.18
Mof_Tb	Tb	0.8502	0.03733	0.89018	2.18
Mof_Tb	Tb	0.3502	0.60982	0.46267	2.18
Mof_Tb	Tb	0.3502	0.39018	0.53733	2.18
Mof_Tb	Tb	0.6498	0.53733	0.60982	2.18
Mof_Tb	Tb	0.6498	0.46267	0.39018	2.18
Mof_H 	H 	0.0531	0.7487	0.736	-0.015
Mof_H 	H 	0.8279	0.9414	0.6649	-0.024
Mof_H 	H 	0.7628	0.8798	0.5488	0.114
Mof_H 	H 	0.8554	0.7566	0.5235	-0.019
Mof_H 	H 	0.22	0.966	0.096	0.25
Mof_H 	H 	0.0531	0.2513	0.264	-0.016
Mof_H 	H 	0.8279	0.0586	0.3351	-0.025
Mof_H 	H 	0.7628	0.1202	0.4512	0.113
Mof_H 	H 	0.8554	0.2434	0.4765	-0.02
Mof_H 	H 	0.22	0.034	0.904	0.25
Mof_H 	H 	0.9469	0.736	0.2513	-0.016
Mof_H 	H 	0.1721	0.6649	0.0586	-0.025
Mof_H 	H 	0.2372	0.5488	0.1202	0.113
Mof_H 	H 	0.1446	0.5235	0.2434	-0.02
Mof_H 	H 	0.78	0.096	0.034	0.25
Mof_H 	H 	0.9469	0.264	0.7487	-0.016
Mof_H 	H 	0.1721	0.3351	0.9414	-0.025
Mof_H 	H 	0.2372	0.4512	0.8798	0.113
Mof_H 	H 	0.1446	0.4765	0.7566	-0.02
Mof_H 	H 	0.78	0.904	0.966	0.25
Mof_H 	H 	0.4469	0.7513	0.236	-0.016
Mof_H 	H 	0.6721	0.5586	0.1649	-0.025
Mof_H 	H 	0.7372	0.6202	0.0488	0.113
Mof_H 	H 	0.6446	0.7434	0.0235	-0.02
Mof_H 	H 	0.28	0.534	0.596	0.25
Mof_H 	H 	0.4469	0.2487	0.764	-0.016
Mof_H 	H 	0.6721	0.4414	0.8351	-0.025
Mof_H 	H 	0.7372	0.3798	0.9512	0.113
Mof_H 	H 	0.6446	0.2566	0.9765	-0.02
Mof_H 	H 	0.28	0.466	0.404	0.25
Mof_H 	H 	0.5531	0.764	0.7513	-0.016
Mof_H 	H 	0.3279	0.8351	0.5586	-0.025
Mof_H 	H 	0.2628	0.9512	0.6202	0.113
Mof_H 	H 	0.3554	0.9765	0.7434	-0.02
Mof_H 	H 	0.72	0.404	0.534	0.25
Mof_H 	H 	0.5531	0.236	0.2487	-0.016
Mof_H 	H 	0.3279	0.1649	0.4414	-0.025
Mof_H 	H 	0.2628	0.0488	0.3798	0.113
Mof_H 	H 	0.3554	0.0235	0.2566	-0.02
Mof_H 	H 	0.72	0.596	0.466	0.25
Mof_C 	C 	0.9623	0.7412	0.627	-0.254
Mof_C 	C 	0.9979	0.7763	0.698	0.172
Mof_C 	C 	0.9507	0.8526	0.7118	-0.245
Mof_C 	C 	0.9919	0.8921	0.7864	0.504
Mof_C 	C 	0.8624	0.8906	0.6557	0.164
Mof_C 	C 	0.8243	0.854	0.5857	-0.236
Mof_C 	C 	0.877	0.7804	0.5711	0.17
Mof_C 	C 	0.9623	0.2588	0.373	-0.254
Mof_C 	C 	0.9979	0.2237	0.302	0.172
Mof_C 	C 	0.9507	0.1474	0.2882	-0.245
Mof_C 	C 	0.9919	0.1079	0.2136	0.504
Mof_C 	C 	0.8624	0.1094	0.3443	0.164
Mof_C 	C 	0.8243	0.146	0.4143	-0.236
Mof_C 	C 	0.877	0.2196	0.4289	0.17
Mof_C 	C 	0.0377	0.627	0.2588	-0.254
Mof_C 	C 	0.0021	0.698	0.2237	0.172
Mof_C 	C 	0.0493	0.7118	0.1474	-0.245
Mof_C 	C 	0.0081	0.7864	0.1079	0.504
Mof_C 	C 	0.1376	0.6557	0.1094	0.164
Mof_C 	C 	0.1757	0.5857	0.146	-0.236
Mof_C 	C 	0.123	0.5711	0.2196	0.17
Mof_C 	C 	0.0377	0.373	0.7412	-0.254
Mof_C 	C 	0.0021	0.302	0.7763	0.172
Mof_C 	C 	0.0493	0.2882	0.8526	-0.245
Mof_C 	C 	0.0081	0.2136	0.8921	0.504
Mof_C 	C 	0.1376	0.3443	0.8906	0.164
Mof_C 	C 	0.1757	0.4143	0.854	-0.236
Mof_C 	C 	0.123	0.4289	0.7804	0.17
Mof_C 	C 	0.5377	0.7588	0.127	-0.254
Mof_C 	C 	0.5021	0.7237	0.198	0.172
Mof_C 	C 	0.5493	0.6474	0.2118	-0.245
Mof_C 	C 	0.5081	0.6079	0.2864	0.503
Mof_C 	C 	0.6376	0.6094	0.1557	0.164
Mof_C 	C 	0.6757	0.646	0.0857	-0.236
Mof_C 	C 	0.623	0.7196	0.0711	0.17
Mof_C 	C 	0.5377	0.2412	0.873	-0.254
Mof_C 	C 	0.5021	0.2763	0.802	0.172
Mof_C 	C 	0.5493	0.3526	0.7882	-0.245
Mof_C 	C 	0.5081	0.3921	0.7136	0.503
Mof_C 	C 	0.6376	0.3906	0.8443	0.164
Mof_C 	C 	0.6757	0.354	0.9143	-0.236
Mof_C 	C 	0.623	0.2804	0.9289	0.17
Mof_C 	C 	0.4623	0.873	0.7588	-0.254
Mof_C 	C 	0.4979	0.802	0.7237	0.172
Mof_C 	C 	0.4507	0.7882	0.6474	-0.245
Mof_C 	C 	0.4919	0.7136	0.6079	0.503
Mof_C 	C 	0.3624	0.8443	0.6094	0.164
Mof_C 	C 	0.3243	0.9143	0.646	-0.236
Mof_C 	C 	0.377	0.9289	0.7196	0.17
Mof_C 	C 	0.4623	0.127	0.2412	-0.254
Mof_C 	C 	0.4979	0.198	0.2763	0.172
Mof_C 	C 	0.4507	0.2118	0.3526	-0.245
Mof_C 	C 	0.4919	0.2864	0.3921	0.503
Mof_C 	C 	0.3624	0.1557	0.3906	0.164
Mof_C 	C 	0.3243	0.0857	0.354	-0.236
Mof_C 	C 	0.377	0.0711	0.2804	0.17
Mof_S 	S 	0.02364	0.64386	0.60766	0.741
Mof_S 	S 	0.02364	0.35614	0.39234	0.741
Mof_S 	S 	0.97636	0.60766	0.35614	0.741
Mof_S 	S 	0.97636	0.39234	0.64386	0.741
Mof_S 	S 	0.47636	0.85614	0.10766	0.741
Mof_S 	S 	0.47636	0.14386	0.89234	0.741
Mof_S 	S 	0.52364	0.89234	0.85614	0.741
Mof_S 	S 	0.52364	0.10766	0.14386	0.741
Mof_O 	O 	0.147	0.6509	0.5494	-0.555
Mof_O 	O 	0.8843	0.6048	0.5753	-0.57
Mof_O 	O 	0.0819	0.6096	0.6795	-0.358
Mof_O 	O 	0.0438	0.8518	0.8413	-0.565
Mof_O 	O 	0.9693	0.9661	0.7892	-0.554
Mof_O 	O 	0.1208	0.9741	0.0725	-0.896
Mof_O 	O 	0.147	0.3491	0.4506	-0.555
Mof_O 	O 	0.8843	0.3952	0.4247	-0.57
Mof_O 	O 	0.0819	0.3904	0.3205	-0.358
Mof_O 	O 	0.0438	0.1482	0.1587	-0.565
Mof_O 	O 	0.9693	0.0339	0.2108	-0.554
Mof_O 	O 	0.1208	0.0259	0.9275	-0.896
Mof_O 	O 	0.853	0.5494	0.3491	-0.555
Mof_O 	O 	0.1157	0.5753	0.3952	-0.57
Mof_O 	O 	0.9181	0.6795	0.3904	-0.358
Mof_O 	O 	0.9562	0.8413	0.1482	-0.565
Mof_O 	O 	0.0307	0.7892	0.0339	-0.554
Mof_O 	O 	0.8792	0.0725	0.0259	-0.896
Mof_O 	O 	0.853	0.4506	0.6509	-0.555
Mof_O 	O 	0.1157	0.4247	0.6048	-0.57
Mof_O 	O 	0.9181	0.3205	0.6096	-0.358
Mof_O 	O 	0.9562	0.1587	0.8518	-0.565
Mof_O 	O 	0.0307	0.2108	0.9661	-0.554
Mof_O 	O 	0.8792	0.9275	0.9741	-0.896
Mof_O 	O 	0.353	0.8491	0.0494	-0.555
Mof_O 	O 	0.6157	0.8952	0.0753	-0.57
Mof_O 	O 	0.4181	0.8904	0.1795	-0.358
Mof_O 	O 	0.4562	0.6482	0.3413	-0.565
Mof_O 	O 	0.5307	0.5339	0.2892	-0.554
Mof_O 	O 	0.3792	0.5259	0.5725	-0.896
Mof_O 	O 	0.353	0.1509	0.9506	-0.555
Mof_O 	O 	0.6157	0.1048	0.9247	-0.57
Mof_O 	O 	0.4181	0.1096	0.8205	-0.358
Mof_O 	O 	0.4562	0.3518	0.6587	-0.565
Mof_O 	O 	0.5307	0.4661	0.7108	-0.554
Mof_O 	O 	0.3792	0.4741	0.4275	-0.896
Mof_O 	O 	0.647	0.9506	0.8491	-0.555
Mof_O 	O 	0.3843	0.9247	0.8952	-0.57
Mof_O 	O 	0.5819	0.8205	0.8904	-0.358
Mof_O 	O 	0.5438	0.6587	0.6482	-0.565
Mof_O 	O 	0.4693	0.7108	0.5339	-0.554
Mof_O 	O 	0.6208	0.4275	0.5259	-0.896
Mof_O 	O 	0.647	0.0494	0.1509	-0.555
Mof_O 	O 	0.3843	0.0753	0.1048	-0.57
Mof_O 	O 	0.5819	0.1795	0.1096	-0.358
Mof_O 	O 	0.5438	0.3413	0.3518	-0.565
Mof_O 	O 	0.4693	0.2892	0.4661	-0.554
Mof_O 	O 	0.6208	0.5725	0.4741	-0.896
_end
