data_functionalizedCrystal
_audit_creation_method	'EQeq! by Chris Wilmer'
_symmetry_space_group_name_H-M	'P1'
_symmetry_Int_Tables_number	1
_symmetry_cell_setting	triclinic
loop_
_symmetry_equiv_pos_as_xyz
  x,y,z
_cell_length_a	31.84
_cell_length_b	13.478
_cell_length_c	19.854
_cell_angle_alpha	90
_cell_angle_beta	91.365
_cell_angle_gamma	90
loop_
_atom_site_label
_atom_site_type_symbol
_atom_site_fract_x
_atom_site_fract_y
_atom_site_fract_z
_atom_site_charge
Mof_O 	O 	0.14111	0.4713	0.3616	-0.265
Mof_Cd	Cd	0.17482	0.6199	0.35995	0.5
Mof_Cd	Cd	0.1036	0.66435	0.49003	0.465
Mof_C 	C 	0.0989	0.2961	0.3933	-0.021
Mof_H 	H 	0.1263	0.2923	0.3783	0.059
Mof_C 	C 	0.1384	0.9206	0.3934	-0.122
Mof_C 	C 	0.0806	0.3891	0.3991	-0.054
Mof_C 	C 	0.0987	0.1079	0.4042	0.088
Mof_C 	C 	0.1564	0.8208	0.3837	0.316
Mof_C 	C 	0.0784	0.2089	0.4088	-0.014
Mof_C 	C 	0.0762	0.0228	0.4045	-0.13
Mof_H 	H 	0.0471	0.0265	0.4061	0.086
Mof_C 	C 	0.1427	0.1002	0.3983	-0.146
Mof_H 	H 	0.1589	0.1575	0.3993	0.093
Mof_C 	C 	0.038	0.2179	0.435	-0.024
Mof_H 	H 	0.0242	0.1613	0.4496	0.055
Mof_C 	C 	0.1621	0.0093	0.3911	0.089
Mof_C 	C 	0.0408	0.396	0.4234	0.003
Mof_H 	H 	0.0288	0.4582	0.4293	0.067
Mof_C 	C 	0.0179	0.3102	0.4398	-0.052
Mof_C 	C 	0.0954	0.9288	0.4024	0.054
Mof_H 	H 	0.0792	0.8719	0.4071	0.038
Mof_C 	C 	0.2789	0.9842	0.4376	-0.053
Mof_C 	C 	0.2965	0.0218	0.3781	-0.006
Mof_H 	H 	0.3256	0.0263	0.3749	0.07
Mof_C 	C 	0.2707	0.0524	0.3237	-0.038
Mof_C 	C 	0.2091	0.0098	0.3878	0.002
Mof_C 	C 	0.2354	0.9791	0.4399	-0.021
Mof_H 	H 	0.2233	0.9537	0.4785	0.066
Mof_C 	C 	0.2278	0.0458	0.3299	-0.028
Mof_H 	H 	0.2106	0.0661	0.294	0.069
Mof_C 	C 	0.3068	0.9444	0.4917	0.306
Mof_C 	C 	0.2905	0.0829	0.2589	0.289
Mof_C 	C 	0.9745	0.3181	0.4652	0.291
Mof_O 	O 	0.26843	0.0812	0.2064	-0.248
Mof_O 	O 	0.95261	0.3945	0.4511	-0.254
Mof_O 	O 	0.32865	0.109	0.2604	-0.242
Mof_O 	O 	0.2891	0.9169	0.5458	-0.263
Mof_O 	O 	0.34556	0.9449	0.4835	-0.28
Mof_O 	O 	0.96028	0.2504	0.5007	-0.266
Mof_C 	C 	0.1054	0.4804	0.3845	0.307
Mof_O 	O 	0.08805	0.5634	0.3969	-0.258
Mof_O 	O 	0.1892	0.8062	0.3537	-0.251
Mof_O 	O 	0.13561	0.7441	0.4053	-0.298
Mof_O 	O 	0.64111	0.9713	0.3616	-0.264
Mof_Cd	Cd	0.67482	0.1199	0.35995	0.501
Mof_Cd	Cd	0.6036	0.16435	0.49003	0.466
Mof_C 	C 	0.5989	0.7961	0.3933	-0.02
Mof_H 	H 	0.6263	0.7923	0.3783	0.06
Mof_C 	C 	0.6384	0.4206	0.3934	-0.121
Mof_C 	C 	0.5806	0.8891	0.3991	-0.053
Mof_C 	C 	0.5987	0.6079	0.4042	0.089
Mof_C 	C 	0.6564	0.3208	0.3837	0.317
Mof_C 	C 	0.5784	0.7089	0.4088	-0.013
Mof_C 	C 	0.5762	0.5228	0.4045	-0.129
Mof_H 	H 	0.5471	0.5265	0.4061	0.087
Mof_C 	C 	0.6427	0.6002	0.3983	-0.145
Mof_H 	H 	0.6589	0.6575	0.3993	0.094
Mof_C 	C 	0.538	0.7179	0.435	-0.023
Mof_H 	H 	0.5242	0.6613	0.4496	0.056
Mof_C 	C 	0.6621	0.5093	0.3911	0.09
Mof_C 	C 	0.5408	0.896	0.4234	0.004
Mof_H 	H 	0.5288	0.9582	0.4293	0.068
Mof_C 	C 	0.5179	0.8102	0.4398	-0.051
Mof_C 	C 	0.5954	0.4288	0.4024	0.055
Mof_H 	H 	0.5792	0.3719	0.4071	0.039
Mof_C 	C 	0.7789	0.4842	0.4376	-0.052
Mof_C 	C 	0.7965	0.5218	0.3781	-0.005
Mof_H 	H 	0.8256	0.5263	0.3749	0.07
Mof_C 	C 	0.7707	0.5524	0.3237	-0.038
Mof_C 	C 	0.7091	0.5098	0.3878	0.002
Mof_C 	C 	0.7354	0.4791	0.4399	-0.021
Mof_H 	H 	0.7233	0.4537	0.4785	0.066
Mof_C 	C 	0.7278	0.5458	0.3299	-0.028
Mof_H 	H 	0.7106	0.5661	0.294	0.069
Mof_C 	C 	0.8068	0.4444	0.4917	0.306
Mof_C 	C 	0.7905	0.5829	0.2589	0.289
Mof_C 	C 	0.4745	0.8181	0.4652	0.291
Mof_O 	O 	0.76843	0.5812	0.2064	-0.248
Mof_O 	O 	0.45261	0.8945	0.4511	-0.254
Mof_O 	O 	0.82865	0.609	0.2604	-0.242
Mof_O 	O 	0.7891	0.4169	0.5458	-0.263
Mof_O 	O 	0.84556	0.4449	0.4835	-0.28
Mof_O 	O 	0.46028	0.7504	0.5007	-0.266
Mof_C 	C 	0.6054	0.9804	0.3845	0.307
Mof_O 	O 	0.58805	0.0634	0.3969	-0.258
Mof_O 	O 	0.6892	0.3062	0.3537	-0.251
Mof_O 	O 	0.63561	0.2441	0.4053	-0.298
Mof_O 	O 	0.85889	0.4713	0.1384	-0.264
Mof_Cd	Cd	0.82518	0.6199	0.14005	0.501
Mof_Cd	Cd	0.8964	0.66435	0.00997	0.466
Mof_C 	C 	0.9011	0.2961	0.1067	-0.02
Mof_H 	H 	0.8737	0.2923	0.1217	0.06
Mof_C 	C 	0.8616	0.9206	0.1066	-0.121
Mof_C 	C 	0.9194	0.3891	0.1009	-0.053
Mof_C 	C 	0.9013	0.1079	0.0958	0.089
Mof_C 	C 	0.8436	0.8208	0.1163	0.317
Mof_C 	C 	0.9216	0.2089	0.0912	-0.013
Mof_C 	C 	0.9238	0.0228	0.0955	-0.129
Mof_H 	H 	0.9529	0.0265	0.0939	0.087
Mof_C 	C 	0.8573	0.1002	0.1017	-0.145
Mof_H 	H 	0.8411	0.1575	0.1007	0.094
Mof_C 	C 	0.962	0.2179	0.065	-0.023
Mof_H 	H 	0.9758	0.1613	0.0504	0.056
Mof_C 	C 	0.8379	0.0093	0.1089	0.09
Mof_C 	C 	0.9592	0.396	0.0766	0.004
Mof_H 	H 	0.9712	0.4582	0.0707	0.068
Mof_C 	C 	0.9821	0.3102	0.0602	-0.051
Mof_C 	C 	0.9046	0.9288	0.0976	0.055
Mof_H 	H 	0.9208	0.8719	0.0929	0.039
Mof_C 	C 	0.7211	0.9842	0.0624	-0.052
Mof_C 	C 	0.7035	0.0218	0.1219	-0.005
Mof_H 	H 	0.6744	0.0263	0.1251	0.07
Mof_C 	C 	0.7293	0.0524	0.1763	-0.038
Mof_C 	C 	0.7909	0.0098	0.1122	0.002
Mof_C 	C 	0.7646	0.9791	0.0601	-0.021
Mof_H 	H 	0.7767	0.9537	0.0215	0.066
Mof_C 	C 	0.7722	0.0458	0.1701	-0.028
Mof_H 	H 	0.7894	0.0661	0.206	0.069
Mof_C 	C 	0.6932	0.9444	0.0083	0.306
Mof_C 	C 	0.7095	0.0829	0.2411	0.289
Mof_C 	C 	0.0255	0.3181	0.0348	0.291
Mof_O 	O 	0.73157	0.0812	0.2936	-0.248
Mof_O 	O 	0.04739	0.3945	0.0489	-0.254
Mof_O 	O 	0.67135	0.109	0.2396	-0.242
Mof_O 	O 	0.7109	0.9169	0.9542	-0.263
Mof_O 	O 	0.65444	0.9449	0.0165	-0.28
Mof_O 	O 	0.03972	0.2504	0.9993	-0.266
Mof_C 	C 	0.8946	0.4804	0.1155	0.307
Mof_O 	O 	0.91195	0.5634	0.1031	-0.258
Mof_O 	O 	0.8108	0.8062	0.1463	-0.251
Mof_O 	O 	0.86439	0.7441	0.0947	-0.298
Mof_O 	O 	0.35889	0.9713	0.1384	-0.264
Mof_Cd	Cd	0.32518	0.1199	0.14005	0.501
Mof_Cd	Cd	0.3964	0.16435	0.00997	0.466
Mof_C 	C 	0.4011	0.7961	0.1067	-0.02
Mof_H 	H 	0.3737	0.7923	0.1217	0.06
Mof_C 	C 	0.3616	0.4206	0.1066	-0.121
Mof_C 	C 	0.4194	0.8891	0.1009	-0.053
Mof_C 	C 	0.4013	0.6079	0.0958	0.089
Mof_C 	C 	0.3436	0.3208	0.1163	0.317
Mof_C 	C 	0.4216	0.7089	0.0912	-0.013
Mof_C 	C 	0.4238	0.5228	0.0955	-0.129
Mof_H 	H 	0.4529	0.5265	0.0939	0.087
Mof_C 	C 	0.3573	0.6002	0.1017	-0.145
Mof_H 	H 	0.3411	0.6575	0.1007	0.094
Mof_C 	C 	0.462	0.7179	0.065	-0.023
Mof_H 	H 	0.4758	0.6613	0.0504	0.056
Mof_C 	C 	0.3379	0.5093	0.1089	0.09
Mof_C 	C 	0.4592	0.896	0.0766	0.004
Mof_H 	H 	0.4712	0.9582	0.0707	0.068
Mof_C 	C 	0.4821	0.8102	0.0602	-0.051
Mof_C 	C 	0.4046	0.4288	0.0976	0.055
Mof_H 	H 	0.4208	0.3719	0.0929	0.039
Mof_C 	C 	0.2211	0.4842	0.0624	-0.052
Mof_C 	C 	0.2035	0.5218	0.1219	-0.005
Mof_H 	H 	0.1744	0.5263	0.1251	0.07
Mof_C 	C 	0.2293	0.5524	0.1763	-0.038
Mof_C 	C 	0.2909	0.5098	0.1122	0.002
Mof_C 	C 	0.2646	0.4791	0.0601	-0.021
Mof_H 	H 	0.2767	0.4537	0.0215	0.066
Mof_C 	C 	0.2722	0.5458	0.1701	-0.028
Mof_H 	H 	0.2894	0.5661	0.206	0.069
Mof_C 	C 	0.1932	0.4444	0.0083	0.306
Mof_C 	C 	0.2095	0.5829	0.2411	0.289
Mof_C 	C 	0.5255	0.8181	0.0348	0.291
Mof_O 	O 	0.23157	0.5812	0.2936	-0.248
Mof_O 	O 	0.54739	0.8945	0.0489	-0.254
Mof_O 	O 	0.17135	0.609	0.2396	-0.242
Mof_O 	O 	0.2109	0.4169	0.9542	-0.263
Mof_O 	O 	0.15444	0.4449	0.0165	-0.28
Mof_O 	O 	0.53972	0.7504	0.9993	-0.266
Mof_C 	C 	0.3946	0.9804	0.1155	0.307
Mof_O 	O 	0.41195	0.0634	0.1031	-0.258
Mof_O 	O 	0.3108	0.3062	0.1463	-0.251
Mof_O 	O 	0.36439	0.2441	0.0947	-0.298
Mof_O 	O 	0.85889	0.5287	0.6384	-0.264
Mof_Cd	Cd	0.82518	0.3801	0.64005	0.501
Mof_Cd	Cd	0.8964	0.33565	0.50997	0.466
Mof_C 	C 	0.9011	0.7039	0.6067	-0.02
Mof_H 	H 	0.8737	0.7077	0.6217	0.06
Mof_C 	C 	0.8616	0.0794	0.6066	-0.121
Mof_C 	C 	0.9194	0.6109	0.6009	-0.053
Mof_C 	C 	0.9013	0.8921	0.5958	0.089
Mof_C 	C 	0.8436	0.1792	0.6163	0.317
Mof_C 	C 	0.9216	0.7911	0.5912	-0.013
Mof_C 	C 	0.9238	0.9772	0.5955	-0.129
Mof_H 	H 	0.9529	0.9735	0.5939	0.087
Mof_C 	C 	0.8573	0.8998	0.6017	-0.145
Mof_H 	H 	0.8411	0.8425	0.6007	0.094
Mof_C 	C 	0.962	0.7821	0.565	-0.023
Mof_H 	H 	0.9758	0.8387	0.5504	0.056
Mof_C 	C 	0.8379	0.9907	0.6089	0.09
Mof_C 	C 	0.9592	0.604	0.5766	0.004
Mof_H 	H 	0.9712	0.5418	0.5707	0.068
Mof_C 	C 	0.9821	0.6898	0.5602	-0.051
Mof_C 	C 	0.9046	0.0712	0.5976	0.055
Mof_H 	H 	0.9208	0.1281	0.5929	0.039
Mof_C 	C 	0.7211	0.0158	0.5624	-0.052
Mof_C 	C 	0.7035	0.9782	0.6219	-0.005
Mof_H 	H 	0.6744	0.9737	0.6251	0.07
Mof_C 	C 	0.7293	0.9476	0.6763	-0.038
Mof_C 	C 	0.7909	0.9902	0.6122	0.002
Mof_C 	C 	0.7646	0.0209	0.5601	-0.021
Mof_H 	H 	0.7767	0.0463	0.5215	0.066
Mof_C 	C 	0.7722	0.9542	0.6701	-0.028
Mof_H 	H 	0.7894	0.9339	0.706	0.069
Mof_C 	C 	0.6932	0.0556	0.5083	0.306
Mof_C 	C 	0.7095	0.9171	0.7411	0.289
Mof_C 	C 	0.0255	0.6819	0.5348	0.291
Mof_O 	O 	0.73157	0.9188	0.7936	-0.248
Mof_O 	O 	0.04739	0.6055	0.5489	-0.254
Mof_O 	O 	0.67135	0.891	0.7396	-0.242
Mof_O 	O 	0.7109	0.0831	0.4542	-0.263
Mof_O 	O 	0.65444	0.0551	0.5165	-0.28
Mof_O 	O 	0.03972	0.7496	0.4993	-0.266
Mof_C 	C 	0.8946	0.5196	0.6155	0.307
Mof_O 	O 	0.91195	0.4366	0.6031	-0.258
Mof_O 	O 	0.8108	0.1938	0.6463	-0.251
Mof_O 	O 	0.86439	0.2559	0.5947	-0.298
Mof_O 	O 	0.35889	0.0287	0.6384	-0.264
Mof_Cd	Cd	0.32518	0.8801	0.64005	0.501
Mof_Cd	Cd	0.3964	0.83565	0.50997	0.466
Mof_C 	C 	0.4011	0.2039	0.6067	-0.02
Mof_H 	H 	0.3737	0.2077	0.6217	0.06
Mof_C 	C 	0.3616	0.5794	0.6066	-0.121
Mof_C 	C 	0.4194	0.1109	0.6009	-0.053
Mof_C 	C 	0.4013	0.3921	0.5958	0.089
Mof_C 	C 	0.3436	0.6792	0.6163	0.317
Mof_C 	C 	0.4216	0.2911	0.5912	-0.013
Mof_C 	C 	0.4238	0.4772	0.5955	-0.129
Mof_H 	H 	0.4529	0.4735	0.5939	0.087
Mof_C 	C 	0.3573	0.3998	0.6017	-0.145
Mof_H 	H 	0.3411	0.3425	0.6007	0.094
Mof_C 	C 	0.462	0.2821	0.565	-0.023
Mof_H 	H 	0.4758	0.3387	0.5504	0.056
Mof_C 	C 	0.3379	0.4907	0.6089	0.09
Mof_C 	C 	0.4592	0.104	0.5766	0.004
Mof_H 	H 	0.4712	0.0418	0.5707	0.068
Mof_C 	C 	0.4821	0.1898	0.5602	-0.051
Mof_C 	C 	0.4046	0.5712	0.5976	0.055
Mof_H 	H 	0.4208	0.6281	0.5929	0.039
Mof_C 	C 	0.2211	0.5158	0.5624	-0.052
Mof_C 	C 	0.2035	0.4782	0.6219	-0.005
Mof_H 	H 	0.1744	0.4737	0.6251	0.07
Mof_C 	C 	0.2293	0.4476	0.6763	-0.038
Mof_C 	C 	0.2909	0.4902	0.6122	0.002
Mof_C 	C 	0.2646	0.5209	0.5601	-0.021
Mof_H 	H 	0.2767	0.5463	0.5215	0.066
Mof_C 	C 	0.2722	0.4542	0.6701	-0.028
Mof_H 	H 	0.2894	0.4339	0.706	0.069
Mof_C 	C 	0.1932	0.5556	0.5083	0.306
Mof_C 	C 	0.2095	0.4171	0.7411	0.289
Mof_C 	C 	0.5255	0.1819	0.5348	0.291
Mof_O 	O 	0.23157	0.4188	0.7936	-0.248
Mof_O 	O 	0.54739	0.1055	0.5489	-0.254
Mof_O 	O 	0.17135	0.391	0.7396	-0.242
Mof_O 	O 	0.2109	0.5831	0.4542	-0.263
Mof_O 	O 	0.15444	0.5551	0.5165	-0.28
Mof_O 	O 	0.53972	0.2496	0.4993	-0.266
Mof_C 	C 	0.3946	0.0196	0.6155	0.307
Mof_O 	O 	0.41195	0.9366	0.6031	-0.258
Mof_O 	O 	0.3108	0.6938	0.6463	-0.251
Mof_O 	O 	0.36439	0.7559	0.5947	-0.298
Mof_O 	O 	0.14111	0.5287	0.8616	-0.264
Mof_Cd	Cd	0.17482	0.3801	0.85995	0.501
Mof_Cd	Cd	0.1036	0.33565	0.99003	0.466
Mof_C 	C 	0.0989	0.7039	0.8933	-0.02
Mof_H 	H 	0.1263	0.7077	0.8783	0.06
Mof_C 	C 	0.1384	0.0794	0.8934	-0.121
Mof_C 	C 	0.0806	0.6109	0.8991	-0.053
Mof_C 	C 	0.0987	0.8921	0.9042	0.089
Mof_C 	C 	0.1564	0.1792	0.8837	0.317
Mof_C 	C 	0.0784	0.7911	0.9088	-0.013
Mof_C 	C 	0.0762	0.9772	0.9045	-0.129
Mof_H 	H 	0.0471	0.9735	0.9061	0.087
Mof_C 	C 	0.1427	0.8998	0.8983	-0.145
Mof_H 	H 	0.1589	0.8425	0.8993	0.094
Mof_C 	C 	0.038	0.7821	0.935	-0.023
Mof_H 	H 	0.0242	0.8387	0.9496	0.056
Mof_C 	C 	0.1621	0.9907	0.8911	0.09
Mof_C 	C 	0.0408	0.604	0.9234	0.004
Mof_H 	H 	0.0288	0.5418	0.9293	0.068
Mof_C 	C 	0.0179	0.6898	0.9398	-0.051
Mof_C 	C 	0.0954	0.0712	0.9024	0.055
Mof_H 	H 	0.0792	0.1281	0.9071	0.039
Mof_C 	C 	0.2789	0.0158	0.9376	-0.052
Mof_C 	C 	0.2965	0.9782	0.8781	-0.005
Mof_H 	H 	0.3256	0.9737	0.8749	0.07
Mof_C 	C 	0.2707	0.9476	0.8237	-0.038
Mof_C 	C 	0.2091	0.9902	0.8878	0.002
Mof_C 	C 	0.2354	0.0209	0.9399	-0.021
Mof_H 	H 	0.2233	0.0463	0.9785	0.066
Mof_C 	C 	0.2278	0.9542	0.8299	-0.028
Mof_H 	H 	0.2106	0.9339	0.794	0.069
Mof_C 	C 	0.3068	0.0556	0.9917	0.306
Mof_C 	C 	0.2905	0.9171	0.7589	0.289
Mof_C 	C 	0.9745	0.6819	0.9652	0.291
Mof_O 	O 	0.26843	0.9188	0.7064	-0.248
Mof_O 	O 	0.95261	0.6055	0.9511	-0.254
Mof_O 	O 	0.32865	0.891	0.7604	-0.242
Mof_O 	O 	0.2891	0.0831	0.0458	-0.263
Mof_O 	O 	0.34556	0.0551	0.9835	-0.28
Mof_O 	O 	0.96028	0.7496	0.0007	-0.266
Mof_C 	C 	0.1054	0.5196	0.8845	0.307
Mof_O 	O 	0.08805	0.4366	0.8969	-0.258
Mof_O 	O 	0.1892	0.1938	0.8537	-0.251
Mof_O 	O 	0.13561	0.2559	0.9053	-0.298
Mof_O 	O 	0.64111	0.0287	0.8616	-0.264
Mof_Cd	Cd	0.67482	0.8801	0.85995	0.501
Mof_Cd	Cd	0.6036	0.83565	0.99003	0.466
Mof_C 	C 	0.5989	0.2039	0.8933	-0.02
Mof_H 	H 	0.6263	0.2077	0.8783	0.06
Mof_C 	C 	0.6384	0.5794	0.8934	-0.121
Mof_C 	C 	0.5806	0.1109	0.8991	-0.053
Mof_C 	C 	0.5987	0.3921	0.9042	0.089
Mof_C 	C 	0.6564	0.6792	0.8837	0.317
Mof_C 	C 	0.5784	0.2911	0.9088	-0.013
Mof_C 	C 	0.5762	0.4772	0.9045	-0.129
Mof_H 	H 	0.5471	0.4735	0.9061	0.087
Mof_C 	C 	0.6427	0.3998	0.8983	-0.145
Mof_H 	H 	0.6589	0.3425	0.8993	0.094
Mof_C 	C 	0.538	0.2821	0.935	-0.023
Mof_H 	H 	0.5242	0.3387	0.9496	0.056
Mof_C 	C 	0.6621	0.4907	0.8911	0.09
Mof_C 	C 	0.5408	0.104	0.9234	0.004
Mof_H 	H 	0.5288	0.0418	0.9293	0.068
Mof_C 	C 	0.5179	0.1898	0.9398	-0.051
Mof_C 	C 	0.5954	0.5712	0.9024	0.055
Mof_H 	H 	0.5792	0.6281	0.9071	0.039
Mof_C 	C 	0.7789	0.5158	0.9376	-0.052
Mof_C 	C 	0.7965	0.4782	0.8781	-0.005
Mof_H 	H 	0.8256	0.4737	0.8749	0.07
Mof_C 	C 	0.7707	0.4476	0.8237	-0.038
Mof_C 	C 	0.7091	0.4902	0.8878	0.002
Mof_C 	C 	0.7354	0.5209	0.9399	-0.021
Mof_H 	H 	0.7233	0.5463	0.9785	0.066
Mof_C 	C 	0.7278	0.4542	0.8299	-0.028
Mof_H 	H 	0.7106	0.4339	0.794	0.069
Mof_C 	C 	0.8068	0.5556	0.9917	0.306
Mof_C 	C 	0.7905	0.4171	0.7589	0.289
Mof_C 	C 	0.4745	0.1819	0.9652	0.291
Mof_O 	O 	0.76843	0.4188	0.7064	-0.248
Mof_O 	O 	0.45261	0.1055	0.9511	-0.254
Mof_O 	O 	0.82865	0.391	0.7604	-0.242
Mof_O 	O 	0.7891	0.5831	0.0458	-0.263
Mof_O 	O 	0.84556	0.5551	0.9835	-0.28
Mof_O 	O 	0.46028	0.2496	0.0007	-0.266
Mof_C 	C 	0.6054	0.0196	0.8845	0.307
Mof_O 	O 	0.58805	0.9366	0.8969	-0.258
Mof_O 	O 	0.6892	0.6938	0.8537	-0.251
Mof_O 	O 	0.63561	0.7559	0.9053	-0.298
_end
