data_functionalizedCrystal
_audit_creation_method	'EQeq! by Chris Wilmer'
_symmetry_space_group_name_H-M	'P1'
_symmetry_Int_Tables_number	1
_symmetry_cell_setting	triclinic
loop_
_symmetry_equiv_pos_as_xyz
  x,y,z
_cell_length_a	20.483
_cell_length_b	21.89
_cell_length_c	6.493
_cell_angle_alpha	90
_cell_angle_beta	90
_cell_angle_gamma	90
loop_
_atom_site_label
_atom_site_type_symbol
_atom_site_fract_x
_atom_site_fract_y
_atom_site_fract_z
_atom_site_charge
Mof_Ag	Ag	0.73306	0.31585	0.5159	0.671
Mof_Ag	Ag	0.50226	0.7832	0.5191	0.687
Mof_Ag	Ag	0.83975	0.52923	0.0192	0.48
Mof_S 	S 	0.5594	0.6593	0.524	-0.473
Mof_O 	O 	0.6381	0.3792	0.515	-0.419
Mof_O 	O 	0.7024	0.4559	0.532	-0.952
Mof_O 	O 	0.5101	0.6837	0.666	-0.221
Mof_O 	O 	0.5506	0.6806	0.311	-0.207
Mof_O 	O 	0.6265	0.666	0.599	-0.066
Mof_O 	O 	0.5137	0.3929	0.506	0.44
Mof_H 	H 	0.626	0.351	0.61	0.253
Mof_C 	C 	0.6478	0.4343	0.513	0.392
Mof_C 	C 	0.589	0.4765	0.549	-0.057
Mof_C 	C 	0.5264	0.4517	0.529	-0.035
Mof_C 	C 	0.4707	0.4988	0.53	-0.242
Mof_H 	H 	0.4283	0.4837	0.5311	0.1
Mof_C 	C 	0.4807	0.5581	0.513	0.689
Mof_H 	H 	0.4455	0.5848	0.5057	0.1
Mof_C 	C 	0.5448	0.5787	0.515	-1.281
Mof_C 	C 	0.5999	0.5393	0.508	0.872
Mof_H 	H 	0.6423	0.5544	0.5065	-0.197
Mof_S 	S 	0.645	0.4365	0.491	0.257
Mof_O 	O 	0.4631	0.6711	0.519	-0.392
Mof_O 	O 	0.5663	0.667	0.476	0.268
Mof_O 	O 	0.6442	0.393	0.664	-0.213
Mof_O 	O 	0.6393	0.4057	0.29	-0.2
Mof_O 	O 	0.6989	0.4803	0.498	0.586
Mof_O 	O 	0.4019	0.5755	0.541	0.002
Mof_H 	H 	0.434	0.663	0.36	0.103
Mof_C 	C 	0.5147	0.6435	0.525	0.605
Mof_C 	C 	0.5124	0.5735	0.542	0.883
Mof_C 	C 	0.4556	0.5433	0.504	-1.031
Mof_C 	C 	0.4592	0.4765	0.503	0.437
Mof_H 	H 	0.4202	0.4549	0.4928	-0.132
Mof_C 	C 	0.5098	0.4475	0.522	0.218
Mof_H 	H 	0.5102	0.405	0.5186	-0.475
Mof_C 	C 	0.5719	0.4805	0.518	-0.299
Mof_C 	C 	0.5723	0.5443	0.537	-0.053
Mof_H 	H 	0.6113	0.5658	0.5474	-0.141
Mof_N 	N 	0.7947	0.3376	0.839	-0.156
Mof_N 	N 	0.892	0.3278	0.012	-0.161
Mof_N 	N 	0.8352	0.427	0.011	-0.164
Mof_N 	N 	0.7857	0.3404	0.215	-0.156
Mof_C 	C 	0.8533	0.3054	0.841	0.023
Mof_H 	H 	0.8765	0.3114	0.7122	-0.005
Mof_H 	H 	0.8445	0.2621	0.8573	0.017
Mof_C 	C 	0.7969	0.4029	0.844	0.002
Mof_H 	H 	0.7528	0.4183	0.8568	0.048
Mof_H 	H 	0.8145	0.4176	0.7143	0.015
Mof_C 	C 	0.7532	0.3217	0.032	0.017
Mof_H 	H 	0.7111	0.3418	0.0239	0.033
Mof_H 	H 	0.7458	0.2779	0.0349	0.008
Mof_C 	C 	0.8998	0.3946	0.016	0.049
Mof_H 	H 	0.9278	0.408	0.9046	-0.033
Mof_H 	H 	0.9209	0.4055	0.1451	-0.021
Mof_C 	C 	0.8563	0.3152	0.21	-0.001
Mof_H 	H 	0.8806	0.3333	0.3225	0.005
Mof_H 	H 	0.8552	0.2714	0.2324	0.023
Mof_C 	C 	0.799	0.4109	0.211	-0.021
Mof_H 	H 	0.758	0.4329	0.2188	0.039
Mof_H 	H 	0.8255	0.4225	0.3284	0.013
Mof_N 	N 	0.5563	0.2027	0.715	-0.176
Mof_N 	N 	0.5611	0.1981	0.339	-0.16
Mof_N 	N 	0.6547	0.2356	0.53	-0.173
Mof_N 	N 	0.6262	0.128	0.51	-0.175
Mof_C 	C 	0.5192	0.2114	0.515	0.013
Mof_H 	H 	0.5041	0.2533	0.5034	0.029
Mof_H 	H 	0.4813	0.1848	0.5119	0.001
Mof_C 	C 	0.6136	0.2409	0.701	0.073
Mof_H 	H 	0.6399	0.2318	0.8218	-0.018
Mof_H 	H 	0.6002	0.2833	0.7126	-0.023
Mof_C 	C 	0.5862	0.1343	0.698	0.002
Mof_H 	H 	0.5513	0.1043	0.6977	-0.014
Mof_H 	H 	0.6133	0.1268	0.8185	-0.011
Mof_C 	C 	0.6151	0.248	0.339	-0.027
Mof_H 	H 	0.595	0.288	0.348	0.052
Mof_H 	H 	0.6418	0.2463	0.2157	0.022
Mof_C 	C 	0.5828	0.1419	0.333	0.072
Mof_H 	H 	0.5457	0.1144	0.3363	-0.03
Mof_H 	H 	0.6064	0.1347	0.2057	-0.026
Mof_C 	C 	0.6789	0.1727	0.525	0.031
Mof_H 	H 	0.7044	0.1651	0.6484	-0.003
Mof_H 	H 	0.7074	0.1676	0.4072	0
Mof_Ag	Ag	0.26694	0.68415	0.0159	0.668
Mof_Ag	Ag	0.49774	0.2168	0.0191	0.705
Mof_Ag	Ag	0.16025	0.47077	0.5192	0.476
Mof_S 	S 	0.4406	0.3407	0.024	-0.511
Mof_O 	O 	0.3619	0.6208	0.015	-0.395
Mof_O 	O 	0.2976	0.5441	0.032	-0.599
Mof_O 	O 	0.4899	0.3163	0.166	-0.219
Mof_O 	O 	0.4494	0.3194	0.811	-0.215
Mof_O 	O 	0.3735	0.334	0.099	-0.052
Mof_O 	O 	0.4863	0.6071	0.006	0.446
Mof_H 	H 	0.374	0.649	0.11	0.244
Mof_C 	C 	0.3522	0.5657	0.013	0.333
Mof_C 	C 	0.411	0.5235	0.049	-0.067
Mof_C 	C 	0.4736	0.5483	0.029	-0.035
Mof_C 	C 	0.5293	0.5012	0.03	-0.221
Mof_H 	H 	0.5717	0.5163	0.0311	0.107
Mof_C 	C 	0.5193	0.4419	0.013	0.689
Mof_H 	H 	0.5545	0.4152	0.0057	0.106
Mof_C 	C 	0.4552	0.4213	0.015	-1.3
Mof_C 	C 	0.4001	0.4607	0.008	0.873
Mof_H 	H 	0.3577	0.4456	0.0065	-0.17
Mof_S 	S 	0.355	0.5635	0.991	0.239
Mof_O 	O 	0.5369	0.3289	0.019	-0.392
Mof_O 	O 	0.4337	0.333	0.976	0.281
Mof_O 	O 	0.3558	0.607	0.164	-0.215
Mof_O 	O 	0.3607	0.5943	0.79	-0.197
Mof_O 	O 	0.3011	0.5197	0.998	0.258
Mof_O 	O 	0.5981	0.4245	0.041	0.007
Mof_H 	H 	0.566	0.337	0.86	0.096
Mof_C 	C 	0.4853	0.3565	0.025	0.63
Mof_C 	C 	0.4876	0.4265	0.042	0.904
Mof_C 	C 	0.5444	0.4567	0.004	-1.055
Mof_C 	C 	0.5408	0.5235	0.003	0.435
Mof_H 	H 	0.5798	0.5451	0.9928	-0.146
Mof_C 	C 	0.4902	0.5525	0.022	0.203
Mof_H 	H 	0.4898	0.595	0.0186	-0.471
Mof_C 	C 	0.4281	0.5195	0.018	-0.26
Mof_C 	C 	0.4277	0.4557	0.037	-0.046
Mof_H 	H 	0.3887	0.4342	0.0474	-0.148
Mof_N 	N 	0.2053	0.6624	0.339	-0.156
Mof_N 	N 	0.108	0.6722	0.512	-0.164
Mof_N 	N 	0.1648	0.573	0.511	-0.166
Mof_N 	N 	0.2143	0.6596	0.715	-0.159
Mof_C 	C 	0.1467	0.6946	0.341	0.034
Mof_H 	H 	0.1235	0.6886	0.2122	-0.005
Mof_H 	H 	0.1555	0.7379	0.3573	0.019
Mof_C 	C 	0.2031	0.5971	0.344	0.017
Mof_H 	H 	0.2472	0.5817	0.3568	0.04
Mof_H 	H 	0.1855	0.5824	0.2143	0.009
Mof_C 	C 	0.2468	0.6783	0.532	0.01
Mof_H 	H 	0.2889	0.6582	0.5239	0.03
Mof_H 	H 	0.2542	0.7221	0.5349	0.006
Mof_C 	C 	0.1002	0.6054	0.516	0.028
Mof_H 	H 	0.0722	0.592	0.4046	-0.019
Mof_H 	H 	0.0791	0.5945	0.6451	-0.015
Mof_C 	C 	0.1437	0.6848	0.71	-0
Mof_H 	H 	0.1194	0.6667	0.8225	0.002
Mof_H 	H 	0.1448	0.7286	0.7324	0.02
Mof_C 	C 	0.201	0.5891	0.711	-0.023
Mof_H 	H 	0.242	0.5671	0.7188	0.038
Mof_H 	H 	0.1745	0.5775	0.8284	0.01
Mof_N 	N 	0.4437	0.7973	0.215	-0.172
Mof_N 	N 	0.4389	0.8019	0.839	-0.162
Mof_N 	N 	0.3453	0.7644	0.03	-0.171
Mof_N 	N 	0.3738	0.872	0.01	-0.174
Mof_C 	C 	0.4808	0.7886	0.015	0.019
Mof_H 	H 	0.4959	0.7467	0.0034	0.031
Mof_H 	H 	0.5187	0.8152	0.0119	0.003
Mof_C 	C 	0.3864	0.7591	0.201	0.07
Mof_H 	H 	0.3601	0.7682	0.3218	-0.014
Mof_H 	H 	0.3998	0.7167	0.2126	-0.02
Mof_C 	C 	0.4138	0.8657	0.198	0.002
Mof_H 	H 	0.4487	0.8957	0.1977	-0.011
Mof_H 	H 	0.3867	0.8732	0.3185	-0.008
Mof_C 	C 	0.3849	0.752	0.839	-0.033
Mof_H 	H 	0.405	0.712	0.848	0.051
Mof_H 	H 	0.3582	0.7537	0.7157	0.021
Mof_C 	C 	0.4172	0.8581	0.833	0.066
Mof_H 	H 	0.4543	0.8856	0.8363	-0.032
Mof_H 	H 	0.3936	0.8653	0.7057	-0.028
Mof_C 	C 	0.3211	0.8273	0.025	0.049
Mof_H 	H 	0.2956	0.8349	0.1484	-0.008
Mof_H 	H 	0.2926	0.8324	0.9072	-0.012
Mof_Ag	Ag	0.23306	0.18415	0.5159	0.67
Mof_Ag	Ag	0.00226	0.7168	0.5191	0.685
Mof_Ag	Ag	0.33975	0.97077	0.0192	0.479
Mof_S 	S 	0.0594	0.8407	0.524	-0.478
Mof_O 	O 	0.1381	0.1208	0.515	-0.421
Mof_O 	O 	0.2024	0.0441	0.532	-0.961
Mof_O 	O 	0.0101	0.8163	0.666	-0.222
Mof_O 	O 	0.0506	0.8194	0.311	-0.208
Mof_O 	O 	0.1265	0.834	0.599	-0.064
Mof_O 	O 	0.0137	0.1071	0.506	0.438
Mof_H 	H 	0.126	0.149	0.61	0.253
Mof_C 	C 	0.1478	0.0657	0.513	0.394
Mof_C 	C 	0.089	0.0235	0.549	-0.061
Mof_C 	C 	0.0264	0.0483	0.529	-0.032
Mof_C 	C 	0.9707	0.0012	0.53	-0.246
Mof_H 	H 	0.9283	0.0163	0.5311	0.105
Mof_C 	C 	0.9807	0.9419	0.513	0.712
Mof_H 	H 	0.9455	0.9152	0.5057	0.096
Mof_C 	C 	0.0448	0.9213	0.515	-1.328
Mof_C 	C 	0.0999	0.9607	0.508	0.897
Mof_H 	H 	0.1423	0.9456	0.5065	-0.203
Mof_S 	S 	0.145	0.0635	0.491	0.258
Mof_O 	O 	0.9631	0.8289	0.519	-0.391
Mof_O 	O 	0.0663	0.833	0.476	0.274
Mof_O 	O 	0.1442	0.107	0.664	-0.213
Mof_O 	O 	0.1393	0.0943	0.29	-0.201
Mof_O 	O 	0.1989	0.0197	0.498	0.594
Mof_O 	O 	0.9019	0.9245	0.541	0.009
Mof_H 	H 	0.934	0.837	0.36	0.103
Mof_C 	C 	0.0147	0.8565	0.525	0.606
Mof_C 	C 	0.0124	0.9265	0.542	0.916
Mof_C 	C 	0.9556	0.9567	0.504	-1.059
Mof_C 	C 	0.9592	0.0235	0.503	0.436
Mof_H 	H 	0.9202	0.0451	0.4928	-0.136
Mof_C 	C 	0.0098	0.0525	0.522	0.221
Mof_H 	H 	0.0102	0.095	0.5186	-0.473
Mof_C 	C 	0.0719	0.0195	0.518	-0.303
Mof_C 	C 	0.0723	0.9557	0.537	-0.051
Mof_H 	H 	0.1113	0.9342	0.5474	-0.146
Mof_N 	N 	0.2947	0.1624	0.839	-0.156
Mof_N 	N 	0.392	0.1722	0.012	-0.161
Mof_N 	N 	0.3352	0.073	0.011	-0.163
Mof_N 	N 	0.2857	0.1596	0.215	-0.156
Mof_C 	C 	0.3533	0.1946	0.841	0.023
Mof_H 	H 	0.3765	0.1886	0.7122	-0.005
Mof_H 	H 	0.3445	0.2379	0.8573	0.017
Mof_C 	C 	0.2969	0.0971	0.844	0.001
Mof_H 	H 	0.2528	0.0817	0.8568	0.048
Mof_H 	H 	0.3145	0.0824	0.7143	0.016
Mof_C 	C 	0.2532	0.1783	0.032	0.017
Mof_H 	H 	0.2111	0.1582	0.0239	0.033
Mof_H 	H 	0.2458	0.2221	0.0349	0.008
Mof_C 	C 	0.3998	0.1054	0.016	0.051
Mof_H 	H 	0.4278	0.092	0.9046	-0.034
Mof_H 	H 	0.4209	0.0945	0.1451	-0.021
Mof_C 	C 	0.3563	0.1848	0.21	-0.001
Mof_H 	H 	0.3806	0.1667	0.3225	0.005
Mof_H 	H 	0.3552	0.2286	0.2324	0.023
Mof_C 	C 	0.299	0.0891	0.211	-0.021
Mof_H 	H 	0.258	0.0671	0.2188	0.039
Mof_H 	H 	0.3255	0.0775	0.3284	0.013
Mof_N 	N 	0.0563	0.2973	0.715	-0.175
Mof_N 	N 	0.0611	0.3019	0.339	-0.159
Mof_N 	N 	0.1547	0.2644	0.53	-0.173
Mof_N 	N 	0.1262	0.372	0.51	-0.175
Mof_C 	C 	0.0192	0.2886	0.515	0.017
Mof_H 	H 	0.0041	0.2467	0.5034	0.03
Mof_H 	H 	0.9813	0.3152	0.5119	-0.002
Mof_C 	C 	0.1136	0.2591	0.701	0.072
Mof_H 	H 	0.1399	0.2682	0.8218	-0.018
Mof_H 	H 	0.1002	0.2167	0.7126	-0.023
Mof_C 	C 	0.0862	0.3657	0.698	0.002
Mof_H 	H 	0.0513	0.3957	0.6977	-0.014
Mof_H 	H 	0.1133	0.3732	0.8185	-0.01
Mof_C 	C 	0.1151	0.252	0.339	-0.027
Mof_H 	H 	0.095	0.212	0.348	0.053
Mof_H 	H 	0.1418	0.2537	0.2157	0.022
Mof_C 	C 	0.0828	0.3581	0.333	0.072
Mof_H 	H 	0.0457	0.3856	0.3363	-0.03
Mof_H 	H 	0.1064	0.3653	0.2057	-0.026
Mof_C 	C 	0.1789	0.3273	0.525	0.031
Mof_H 	H 	0.2044	0.3349	0.6484	-0.003
Mof_H 	H 	0.2074	0.3324	0.4072	0
Mof_Ag	Ag	0.76694	0.81585	0.0159	0.669
Mof_Ag	Ag	0.99774	0.2832	0.0191	0.701
Mof_Ag	Ag	0.66025	0.02923	0.5192	0.472
Mof_S 	S 	0.9406	0.1593	0.024	-0.516
Mof_O 	O 	0.8619	0.8792	0.015	-0.397
Mof_O 	O 	0.7976	0.9559	0.032	-0.625
Mof_O 	O 	0.9899	0.1837	0.166	-0.221
Mof_O 	O 	0.9494	0.1806	0.811	-0.217
Mof_O 	O 	0.8735	0.166	0.099	-0.052
Mof_O 	O 	0.9863	0.8929	0.006	0.444
Mof_H 	H 	0.874	0.851	0.11	0.245
Mof_C 	C 	0.8522	0.9343	0.013	0.337
Mof_C 	C 	0.911	0.9765	0.049	-0.067
Mof_C 	C 	0.9736	0.9517	0.029	-0.035
Mof_C 	C 	0.0293	0.9988	0.03	-0.224
Mof_H 	H 	0.0717	0.9837	0.0311	0.11
Mof_C 	C 	0.0193	0.0581	0.013	0.707
Mof_H 	H 	0.0545	0.0848	0.0057	0.104
Mof_C 	C 	0.9552	0.0787	0.015	-1.346
Mof_C 	C 	0.9001	0.0393	0.008	0.896
Mof_H 	H 	0.8577	0.0544	0.0065	-0.179
Mof_S 	S 	0.855	0.9365	0.991	0.242
Mof_O 	O 	0.0369	0.1711	0.019	-0.389
Mof_O 	O 	0.9337	0.167	0.976	0.289
Mof_O 	O 	0.8558	0.893	0.164	-0.214
Mof_O 	O 	0.8607	0.9057	0.79	-0.199
Mof_O 	O 	0.8011	0.9803	0.998	0.284
Mof_O 	O 	0.0981	0.0755	0.041	0.014
Mof_H 	H 	0.066	0.163	0.86	0.096
Mof_C 	C 	0.9853	0.1435	0.025	0.628
Mof_C 	C 	0.9876	0.0735	0.042	0.94
Mof_C 	C 	0.0444	0.0433	0.004	-1.082
Mof_C 	C 	0.0408	0.9765	0.003	0.44
Mof_H 	H 	0.0798	0.9549	0.9928	-0.149
Mof_C 	C 	0.9902	0.9475	0.022	0.207
Mof_H 	H 	0.9898	0.905	0.0186	-0.469
Mof_C 	C 	0.9281	0.9805	0.018	-0.265
Mof_C 	C 	0.9277	0.0443	0.037	-0.049
Mof_H 	H 	0.8887	0.0658	0.0474	-0.15
Mof_N 	N 	0.7053	0.8376	0.339	-0.155
Mof_N 	N 	0.608	0.8278	0.512	-0.164
Mof_N 	N 	0.6648	0.927	0.511	-0.165
Mof_N 	N 	0.7143	0.8404	0.715	-0.159
Mof_C 	C 	0.6467	0.8054	0.341	0.034
Mof_H 	H 	0.6235	0.8114	0.2122	-0.005
Mof_H 	H 	0.6555	0.7621	0.3573	0.019
Mof_C 	C 	0.7031	0.9029	0.344	0.016
Mof_H 	H 	0.7472	0.9183	0.3568	0.042
Mof_H 	H 	0.6855	0.9176	0.2143	0.01
Mof_C 	C 	0.7468	0.8217	0.532	0.01
Mof_H 	H 	0.7889	0.8418	0.5239	0.03
Mof_H 	H 	0.7542	0.7779	0.5349	0.006
Mof_C 	C 	0.6002	0.8946	0.516	0.028
Mof_H 	H 	0.5722	0.908	0.4046	-0.018
Mof_H 	H 	0.5791	0.9055	0.6451	-0.015
Mof_C 	C 	0.6437	0.8152	0.71	-0
Mof_H 	H 	0.6194	0.8333	0.8225	0.003
Mof_H 	H 	0.6448	0.7714	0.7324	0.02
Mof_C 	C 	0.701	0.9109	0.711	-0.023
Mof_H 	H 	0.742	0.9329	0.7188	0.039
Mof_H 	H 	0.6745	0.9225	0.8284	0.011
Mof_N 	N 	0.9437	0.7027	0.215	-0.172
Mof_N 	N 	0.9389	0.6981	0.839	-0.161
Mof_N 	N 	0.8453	0.7356	0.03	-0.171
Mof_N 	N 	0.8738	0.628	0.01	-0.174
Mof_C 	C 	0.9808	0.7114	0.015	0.019
Mof_H 	H 	0.9959	0.7533	0.0034	0.032
Mof_H 	H 	0.0187	0.6848	0.0119	0.003
Mof_C 	C 	0.8864	0.7409	0.201	0.07
Mof_H 	H 	0.8601	0.7318	0.3218	-0.014
Mof_H 	H 	0.8998	0.7833	0.2126	-0.02
Mof_C 	C 	0.9138	0.6343	0.198	0.002
Mof_H 	H 	0.9487	0.6043	0.1977	-0.011
Mof_H 	H 	0.8867	0.6268	0.3185	-0.008
Mof_C 	C 	0.8849	0.748	0.839	-0.033
Mof_H 	H 	0.905	0.788	0.848	0.051
Mof_H 	H 	0.8582	0.7463	0.7157	0.021
Mof_C 	C 	0.9172	0.6419	0.833	0.066
Mof_H 	H 	0.9543	0.6144	0.8363	-0.032
Mof_H 	H 	0.8936	0.6347	0.7057	-0.028
Mof_C 	C 	0.8211	0.6727	0.025	0.048
Mof_H 	H 	0.7956	0.6651	0.1484	-0.008
Mof_H 	H 	0.7926	0.6676	0.9072	-0.012
_end
