# CIF file generated by openbabel 3.1.0, see https://openbabel.org
data_I
_chemical_name_common 'FIRNAX01_clean'
_cell_length_a 15.698
_cell_length_b 15.698
_cell_length_c 18.557
_cell_angle_alpha 90
_cell_angle_beta 90
_cell_angle_gamma 120
_space_group_name_H-M_alt 'P 1'
_space_group_name_Hall 'P 1'
loop_
    _symmetry_equiv_pos_as_xyz
    x,y,z
loop_
    _atom_site_label
    _atom_site_type_symbol
    _atom_site_fract_x
    _atom_site_fract_y
    _atom_site_fract_z
    _atom_site_occupancy
    Ni1      Ni       0.00000    0.82207    0.83333    1.000
    Ni2      Ni       0.82207    0.00000    0.50000    1.000
    Ni3      Ni       0.17793    0.17793    0.16667    1.000
    H1       H        0.49560    0.93410    0.59600    1.000
    H2       H        0.80500    0.65440    0.88627    1.000
    H3       H        0.60200    0.70230    0.34907    1.000
    H4       H        0.10030    0.39800    0.01573    1.000
    H5       H        0.49990    0.54060    0.60973    1.000
    H6       H        0.04570    0.15030    0.91453    1.000
    H7       H        0.29770    0.89970    0.68240    1.000
    H8       H        0.95930    0.45940    0.39027    1.000
    H9       H        0.93410    0.49560    0.73733    1.000
    H10      H        0.50440    0.43850    0.07067    1.000
    H11      H        0.70230    0.60200    0.98427    1.000
    H12      H        0.93510    0.64080    0.73983    1.000
    H13      H        0.04070    0.50010    0.27640    1.000
    H14      H        0.10370    0.10890    0.01373    1.000
    H15      H        0.15060    0.34560    0.11373    1.000
    H16      H        0.99480    0.89110    0.98627    1.000
    H17      H        0.35920    0.29430    0.07317    1.000
    H18      H        0.64080    0.93510    0.59350    1.000
    H19      H        0.06590    0.56150    0.92933    1.000
    H20      H        0.10460    0.95430    0.58120    1.000
    H21      H        0.89540    0.84970    0.08547    1.000
    H22      H        0.95430    0.10460    0.75213    1.000
    H23      H        0.19500    0.84940    0.78040    1.000
    H24      H        0.89110    0.99480    0.34707    1.000
    H25      H        0.45940    0.95930    0.94307    1.000
    H26      H        0.56150    0.06590    0.40400    1.000
    H27      H        0.29430    0.35920    0.26017    1.000
    H28      H        0.84940    0.19500    0.55293    1.000
    H29      H        0.15030    0.04570    0.41880    1.000
    H30      H        0.84970    0.89540    0.24787    1.000
    H31      H        0.00520    0.89630    0.68040    1.000
    H32      H        0.70570    0.06490    0.40650    1.000
    H33      H        0.50010    0.04070    0.05693    1.000
    H34      H        0.34560    0.15060    0.21960    1.000
    H35      H        0.89630    0.00520    0.65293    1.000
    H36      H        0.89970    0.29770    0.65093    1.000
    H37      H        0.06490    0.70570    0.92683    1.000
    H38      H        0.10890    0.10370    0.31960    1.000
    H39      H        0.43850    0.50440    0.26267    1.000
    H40      H        0.39800    0.10030    0.31760    1.000
    H41      H        0.54060    0.49990    0.72360    1.000
    H42      H        0.65440    0.80500    0.44707    1.000
    C1       C        0.96200    0.62450    0.77849    1.000
    C2       C        0.02180    0.44020    0.29870    1.000
    C3       C        0.33300    0.96460    0.93207    1.000
    C4       C        0.26510    0.98170    0.96520    1.000
    C5       C        0.21030    0.03640    0.07714    1.000
    C6       C        0.13050    0.30660    0.07255    1.000
    C7       C        0.10220    0.16740    0.01426    1.000
    C8       C        0.71660    0.73490    0.63186    1.000
    C9       C        0.01830    0.28340    0.29853    1.000
    C10      C        0.53750    0.96100    0.55670    1.000
    C11      C        0.23870    0.90010    0.68086    1.000
    C12      C        0.93160    0.12380    0.71258    1.000
    C13      C        0.03330    0.31070    0.88857    1.000
    C14      C        0.66250    0.03800    0.44516    1.000
    C15      C        0.82390    0.69340    0.92745    1.000
    C16      C        0.03900    0.57650    0.89003    1.000
    C17      C        0.93480    0.83260    0.98574    1.000
    C18      C        0.89780    0.06520    0.65240    1.000
    C19      C        0.51180    0.00000    0.50000    1.000
    C20      C        0.96100    0.53750    0.77663    1.000
    C21      C        0.03800    0.66250    0.88817    1.000
    C22      C        0.17390    0.96360    0.92286    1.000
    C23      C        0.66700    0.63160    0.73460    1.000
    C24      C        0.96670    0.27740    0.77809    1.000
    C25      C        0.00000    0.51180    0.83333    1.000
    C26      C        0.42350    0.46250    0.22337    1.000
    C27      C        0.06520    0.89780    0.68093    1.000
    C28      C        0.09990    0.33860    0.01419    1.000
    C29      C        0.57650    0.03900    0.44330    1.000
    C30      C        0.12380    0.93160    0.62075    1.000
    C31      C        0.31070    0.03330    0.44476    1.000
    C32      C        0.37550    0.33750    0.11183    1.000
    C33      C        0.06840    0.19220    0.95408    1.000
    C34      C        0.90010    0.23870    0.65247    1.000
    C35      C        0.41840    0.97820    0.96537    1.000
    C36      C        0.17610    0.86950    0.73922    1.000
    C37      C        0.78970    0.82610    0.58952    1.000
    C38      C        0.30660    0.13050    0.26078    1.000
    C39      C        0.98170    0.26510    0.36814    1.000
    C40      C        0.21140    0.93140    0.61994    1.000
    C41      C        0.87620    0.80780    0.04592    1.000
    C42      C        0.00000    0.41690    0.83333    1.000
    C43      C        0.27740    0.96670    0.55524    1.000
    C44      C        0.33750    0.37550    0.22151    1.000
    C45      C        0.68930    0.72260    0.22191    1.000
    C46      C        0.48820    0.48820    0.16667    1.000
    C47      C        0.36840    0.03540    0.06793    1.000
    C48      C        0.78860    0.72000    0.04673    1.000
    C49      C        0.63160    0.66700    0.59873    1.000
    C50      C        0.62450    0.96200    0.55484    1.000
    C51      C        0.97820    0.41840    0.36797    1.000
    C52      C        0.28000    0.06860    0.38006    1.000
    C53      C        0.66140    0.76130    0.34753    1.000
    C54      C        0.96360    0.17390    0.41048    1.000
    C55      C        0.80780    0.87620    0.28742    1.000
    C56      C        0.58310    0.58310    0.16667    1.000
    C57      C        0.93140    0.21140    0.71339    1.000
    C58      C        0.72260    0.68930    0.11143    1.000
    C59      C        0.28340    0.01830    0.03480    1.000
    C60      C        0.73490    0.71660    0.70147    1.000
    C61      C        0.83260    0.93480    0.34760    1.000
    C62      C        0.33860    0.09990    0.31914    1.000
    C63      C        0.46250    0.42350    0.10997    1.000
    C64      C        0.69340    0.82390    0.40589    1.000
    C65      C        0.19220    0.06840    0.37925    1.000
    C66      C        0.03540    0.36840    0.26540    1.000
    C67      C        0.82610    0.78970    0.74381    1.000
    C68      C        0.96460    0.33300    0.40127    1.000
    C69      C        0.41690    0.00000    0.50000    1.000
    C70      C        0.76130    0.66140    0.98581    1.000
    C71      C        0.72000    0.78860    0.28661    1.000
    C72      C        0.06860    0.28000    0.95327    1.000
    C73      C        0.16740    0.10220    0.31907    1.000
    C74      C        0.03640    0.21030    0.25619    1.000
    C75      C        0.55980    0.58160    0.63203    1.000
    C76      C        0.86950    0.17610    0.59411    1.000
    C77      C        0.44020    0.02180    0.03463    1.000
    C78      C        0.58160    0.55980    0.70130    1.000
    N1       N        0.00000    0.68810    0.83333    1.000
    N2       N        0.08994    0.86699    0.74018    1.000
    N3       N        0.77705    0.91006    0.40685    1.000
    N4       N        0.91006    0.77705    0.92649    1.000
    N5       N        0.31190    0.31190    0.16667    1.000
    N6       N        0.86699    0.08994    0.59315    1.000
    N7       N        0.39548    0.03504    0.44180    1.000
    N8       N        0.36044    0.96496    0.55820    1.000
    N9       N        0.68810    0.00000    0.50000    1.000
    N10      N        0.00000    0.24760    0.83333    1.000
    N11      N        0.96496    0.36044    0.77513    1.000
    N12      N        0.63956    0.60452    0.10847    1.000
    N13      N        0.22295    0.13301    0.25982    1.000
    N14      N        0.75240    0.75240    0.16667    1.000
    N15      N        0.60452    0.63956    0.22487    1.000
    N16      N        0.24760    0.00000    0.50000    1.000
    N17      N        0.03504    0.39548    0.89153    1.000
    N18      N        0.13301    0.22295    0.07351    1.000
    O1       O        0.12049    0.24403    0.23039    1.000
    O2       O        0.87440    0.84430    0.58513    1.000
    O3       O        0.12560    0.96990    0.08153    1.000
    O4       O        0.03010    0.15570    0.41487    1.000
    O5       O        0.87951    0.12354    0.43628    1.000
    O6       O        0.96990    0.12560    0.25180    1.000
    O7       O        0.15570    0.03010    0.91847    1.000
    O8       O        0.87646    0.75597    0.76961    1.000
    O9       O        0.75597    0.87646    0.56372    1.000
    O10      O        0.24403    0.12049    0.10294    1.000
    O11      O        0.84430    0.87440    0.74820    1.000
    O12      O        0.12354    0.87951    0.89706    1.000
    F1       F        0.39210    0.06580    0.13453    1.000
    F2       F        0.60790    0.67370    0.53213    1.000
    F3       F        0.67370    0.60790    0.80120    1.000
    F4       F        0.06580    0.39210    0.19880    1.000
    F5       F        0.32630    0.93420    0.86547    1.000
    F6       F        0.93420    0.32630    0.46787    1.000
