data_functionalizedCrystal
_audit_creation_method	'EQeq! by Chris Wilmer'
_symmetry_space_group_name_H-M	'P1'
_symmetry_Int_Tables_number	1
_symmetry_cell_setting	triclinic
loop_
_symmetry_equiv_pos_as_xyz
  x,y,z
_cell_length_a	18.0804
_cell_length_b	18.0804
_cell_length_c	48.7231
_cell_angle_alpha	90
_cell_angle_beta	90
_cell_angle_gamma	120
loop_
_atom_site_label
_atom_site_type_symbol
_atom_site_fract_x
_atom_site_fract_y
_atom_site_fract_z
_atom_site_charge
Mof_Cu	Cu	0.5047	0.4511	0.5217	0.913
Mof_C 	C 	0.6275	0.5433	0.4716	0.26
Mof_O 	O 	0.623	0.518	0.497	-0.327
Mof_O 	O 	0.5668	0.554	0.4614	-0.35
Mof_C 	C 	0.8046	0.633	0.4214	0.18
Mof_C 	C 	0.861	0.614	0.4342	-0.155
Mof_H 	H 	0.909	0.622	0.425	0.104
Mof_C 	C 	0.846	0.582	0.4609	0.032
Mof_C 	C 	0.774	0.57	0.4748	-0.093
Mof_H 	H 	0.763	0.549	0.4924	0.098
Mof_C 	C 	0.7168	0.5897	0.462	0.029
Mof_C 	C 	0.7322	0.6211	0.4353	-0.161
Mof_H 	H 	0.695	0.634	0.4268	0.119
Mof_C 	C 	0.8861	0.541	0.4777	0.266
Mof_O 	O 	0.8753	0.525	0.504	-0.39
Mof_O 	O 	0.9613	0.569	0.4667	-0.374
Mof_N 	N 	0.8398	0.6803	0.397	-0.247
Mof_C 	C 	0.794	0.697	0.3792	0.219
Mof_O 	O 	0.716	0.656	0.3783	-0.241
Mof_H 	H 	0.8931	0.7	0.3925	0.13
Mof_C 	C 	0.8316	0.7296	0.3505	-0.049
Mof_C 	C 	0.7811	0.7354	0.33	0.197
Mof_C 	C 	0.8151	0.765	0.3041	0.159
Mof_C 	C 	0.8996	0.7891	0.2986	0.049
Mof_C 	C 	0.9501	0.7833	0.3191	-0.25
Mof_C 	C 	0.9161	0.7536	0.345	-0.219
Mof_H 	H 	0.7251	0.72	0.3337	-0.034
Mof_H 	H 	0.782	0.769	0.2906	-0.021
Mof_H 	H 	0.006	0.799	0.3154	0.109
Mof_H 	H 	0.9495	0.75	0.3585	0.093
Mof_C 	C 	0.9358	0.8208	0.271	-0.041
Mof_C 	C 	0.8954	0.7738	0.246	0.037
Mof_N 	N 	0.9304	0.8013	0.22132	-0.181
Mof_C 	C 	0.011	0.8797	0.2179	0.06
Mof_N 	N 	0.0515	0.9271	0.2426	-0.107
Mof_C 	C 	0.0166	0.8996	0.2673	0.034
Mof_H 	H 	0.0437	0.9308	0.2828	0.017
Mof_H 	H 	0.034	0.8973	0.2007	0.036
Mof_H 	H 	0.8442	0.7235	0.247	0.031
Mof_C 	C 	0.7797	0.6984	0.3274	-0.217
Mof_C 	C 	0.8137	0.728	0.3015	-0.253
Mof_C 	C 	0.9514	0.8204	0.3217	0.161
Mof_C 	C 	0.9174	0.7906	0.3476	0.196
Mof_H 	H 	0.7229	0.658	0.3293	0.117
Mof_H 	H 	0.779	0.707	0.2862	0.126
Mof_H 	H 	0.0082	0.861	0.3198	-0.036
Mof_H 	H 	0.9517	0.811	0.3629	-0.048
Mof_Cu	Cu	0.17137	0.78443	0.85503	0.914
Mof_C 	C 	0.29417	0.87663	0.80493	0.261
Mof_O 	O 	0.28967	0.85133	0.83033	-0.326
Mof_O 	O 	0.23347	0.88733	0.79473	-0.349
Mof_C 	C 	0.47127	0.96633	0.75473	0.183
Mof_C 	C 	0.52767	0.94733	0.76753	-0.155
Mof_H 	H 	0.57567	0.95533	0.75833	0.105
Mof_C 	C 	0.51267	0.91533	0.79423	0.034
Mof_C 	C 	0.44067	0.90333	0.80813	-0.092
Mof_H 	H 	0.42967	0.88233	0.82573	0.099
Mof_C 	C 	0.38347	0.92303	0.79533	0.03
Mof_C 	C 	0.39887	0.95443	0.76863	-0.16
Mof_H 	H 	0.36167	0.96733	0.76013	0.121
Mof_C 	C 	0.55277	0.87433	0.81103	0.267
Mof_O 	O 	0.54197	0.85833	0.83733	-0.389
Mof_O 	O 	0.62797	0.90233	0.80003	-0.373
Mof_N 	N 	0.50647	0.01363	0.73033	-0.247
Mof_C 	C 	0.46067	0.03033	0.71253	0.219
Mof_O 	O 	0.38267	0.98933	0.71163	-0.238
Mof_H 	H 	0.55977	0.03333	0.72583	0.131
Mof_C 	C 	0.49827	0.06293	0.68383	-0.048
Mof_C 	C 	0.44777	0.06873	0.66333	0.178
Mof_C 	C 	0.48177	0.09833	0.63743	0.141
Mof_C 	C 	0.56627	0.12243	0.63193	0.051
Mof_C 	C 	0.61677	0.11663	0.65243	-0.237
Mof_C 	C 	0.58277	0.08693	0.67833	-0.203
Mof_H 	H 	0.39177	0.05333	0.66703	-0.029
Mof_H 	H 	0.44867	0.10233	0.62393	-0.015
Mof_H 	H 	0.67267	0.13233	0.64873	0.105
Mof_H 	H 	0.61617	0.08333	0.69183	0.087
Mof_C 	C 	0.60247	0.15413	0.60433	-0.044
Mof_C 	C 	0.56207	0.10713	0.57933	0.037
Mof_N 	N 	0.59707	0.13463	0.55465	-0.182
Mof_C 	C 	0.67767	0.21303	0.55123	0.062
Mof_N 	N 	0.71817	0.26043	0.57593	-0.107
Mof_C 	C 	0.68327	0.23293	0.60063	0.037
Mof_H 	H 	0.71037	0.26413	0.61613	0.017
Mof_H 	H 	0.70067	0.23063	0.53403	0.036
Mof_H 	H 	0.51087	0.05683	0.58033	0.03
Mof_C 	C 	0.44637	0.03173	0.66073	-0.198
Mof_C 	C 	0.48037	0.06133	0.63483	-0.235
Mof_C 	C 	0.61807	0.15373	0.65503	0.144
Mof_C 	C 	0.58407	0.12393	0.68093	0.181
Mof_H 	H 	0.38957	0.99133	0.66263	0.112
Mof_H 	H 	0.44567	0.04033	0.61953	0.12
Mof_H 	H 	0.67487	0.19433	0.65313	-0.029
Mof_H 	H 	0.61837	0.14433	0.69623	-0.043
Mof_Cu	Cu	0.83803	0.11777	0.18837	0.914
Mof_C 	C 	0.96083	0.20997	0.13827	0.262
Mof_O 	O 	0.95633	0.18467	0.16367	-0.326
Mof_O 	O 	0.90013	0.22067	0.12807	-0.35
Mof_C 	C 	0.13793	0.29967	0.08807	0.181
Mof_C 	C 	0.19433	0.28067	0.10087	-0.154
Mof_H 	H 	0.24233	0.28867	0.09167	0.104
Mof_C 	C 	0.17933	0.24867	0.12757	0.033
Mof_C 	C 	0.10733	0.23667	0.14147	-0.091
Mof_H 	H 	0.09633	0.21567	0.15907	0.098
Mof_C 	C 	0.05013	0.25637	0.12867	0.028
Mof_C 	C 	0.06553	0.28777	0.10197	-0.159
Mof_H 	H 	0.02833	0.30067	0.09347	0.12
Mof_C 	C 	0.21943	0.20767	0.14437	0.267
Mof_O 	O 	0.20863	0.19167	0.17067	-0.389
Mof_O 	O 	0.29463	0.23567	0.13337	-0.373
Mof_N 	N 	0.17313	0.34697	0.06367	-0.246
Mof_C 	C 	0.12733	0.36367	0.04587	0.221
Mof_O 	O 	0.04933	0.32267	0.04497	-0.24
Mof_H 	H 	0.22643	0.36667	0.05917	0.131
Mof_C 	C 	0.16493	0.39627	0.01717	-0.049
Mof_C 	C 	0.11443	0.40207	0.99667	0.201
Mof_C 	C 	0.14843	0.43167	0.97077	0.161
Mof_C 	C 	0.23293	0.45577	0.96527	0.051
Mof_C 	C 	0.28343	0.44997	0.98577	-0.255
Mof_C 	C 	0.24943	0.42027	0.01167	-0.221
Mof_H 	H 	0.05843	0.38667	0.00037	-0.035
Mof_H 	H 	0.11533	0.43567	0.95727	-0.021
Mof_H 	H 	0.33933	0.46567	0.98207	0.111
Mof_H 	H 	0.28283	0.41667	0.02517	0.094
Mof_C 	C 	0.26913	0.48747	0.93767	-0.044
Mof_C 	C 	0.22873	0.44047	0.91267	0.038
Mof_N 	N 	0.26373	0.46797	0.88799	-0.182
Mof_C 	C 	0.34433	0.54637	0.88457	0.062
Mof_N 	N 	0.38483	0.59377	0.90927	-0.107
Mof_C 	C 	0.34993	0.56627	0.93397	0.037
Mof_H 	H 	0.37703	0.59747	0.94947	0.016
Mof_H 	H 	0.36733	0.56397	0.86737	0.036
Mof_H 	H 	0.17753	0.39017	0.91367	0.031
Mof_C 	C 	0.11303	0.36507	0.99407	-0.22
Mof_C 	C 	0.14703	0.39467	0.96817	-0.256
Mof_C 	C 	0.28473	0.48707	0.98837	0.162
Mof_C 	C 	0.25073	0.45727	0.01427	0.199
Mof_H 	H 	0.05623	0.32467	0.99597	0.118
Mof_H 	H 	0.11233	0.37367	0.95287	0.128
Mof_H 	H 	0.34153	0.52767	0.98647	-0.036
Mof_H 	H 	0.28503	0.47767	0.02957	-0.05
Mof_Cu	Cu	0.5489	0.0536	0.5217	0.913
Mof_C 	C 	0.4567	0.0842	0.4716	0.261
Mof_O 	O 	0.482	0.105	0.497	-0.326
Mof_O 	O 	0.446	0.0128	0.4614	-0.349
Mof_C 	C 	0.367	0.1716	0.4214	0.182
Mof_C 	C 	0.386	0.247	0.4342	-0.154
Mof_H 	H 	0.378	0.287	0.425	0.105
Mof_C 	C 	0.418	0.264	0.4609	0.033
Mof_C 	C 	0.43	0.204	0.4748	-0.092
Mof_H 	H 	0.451	0.214	0.4924	0.099
Mof_C 	C 	0.4103	0.1271	0.462	0.03
Mof_C 	C 	0.3789	0.1111	0.4353	-0.16
Mof_H 	H 	0.366	0.061	0.4268	0.12
Mof_C 	C 	0.459	0.3451	0.4777	0.267
Mof_O 	O 	0.475	0.3503	0.504	-0.389
Mof_O 	O 	0.431	0.3923	0.4667	-0.373
Mof_N 	N 	0.3197	0.1595	0.397	-0.246
Mof_C 	C 	0.303	0.097	0.3792	0.221
Mof_O 	O 	0.344	0.06	0.3783	-0.239
Mof_H 	H 	0.3	0.1931	0.3925	0.131
Mof_C 	C 	0.2704	0.102	0.3505	-0.049
Mof_C 	C 	0.2646	0.0457	0.33	0.194
Mof_C 	C 	0.235	0.0501	0.3041	0.154
Mof_C 	C 	0.2109	0.1105	0.2986	0.051
Mof_C 	C 	0.2167	0.1668	0.3191	-0.248
Mof_C 	C 	0.2464	0.1625	0.345	-0.215
Mof_H 	H 	0.28	0.0051	0.3337	-0.033
Mof_H 	H 	0.231	0.013	0.2906	-0.019
Mof_H 	H 	0.201	0.207	0.3154	0.109
Mof_H 	H 	0.25	0.1995	0.3585	0.091
Mof_C 	C 	0.1792	0.115	0.271	-0.044
Mof_C 	C 	0.2262	0.1216	0.246	0.038
Mof_N 	N 	0.1987	0.1291	0.22132	-0.182
Mof_C 	C 	0.1203	0.1313	0.2179	0.062
Mof_N 	N 	0.0729	0.1244	0.2426	-0.107
Mof_C 	C 	0.1004	0.117	0.2673	0.037
Mof_H 	H 	0.0692	0.1129	0.2828	0.016
Mof_H 	H 	0.1027	0.1367	0.2007	0.036
Mof_H 	H 	0.2765	0.1207	0.247	0.031
Mof_C 	C 	0.3016	0.0813	0.3274	-0.213
Mof_C 	C 	0.272	0.0857	0.3015	-0.249
Mof_C 	C 	0.1796	0.131	0.3217	0.155
Mof_C 	C 	0.2094	0.1268	0.3476	0.193
Mof_H 	H 	0.342	0.0649	0.3293	0.116
Mof_H 	H 	0.293	0.072	0.2862	0.125
Mof_H 	H 	0.139	0.1472	0.3198	-0.034
Mof_H 	H 	0.189	0.1407	0.3629	-0.047
Mof_Cu	Cu	0.21557	0.38693	0.85503	0.914
Mof_C 	C 	0.12337	0.41753	0.80493	0.261
Mof_O 	O 	0.14867	0.43833	0.83033	-0.326
Mof_O 	O 	0.11267	0.34613	0.79473	-0.349
Mof_C 	C 	0.03367	0.50493	0.75473	0.183
Mof_C 	C 	0.05267	0.58033	0.76753	-0.155
Mof_H 	H 	0.04467	0.62033	0.75833	0.105
Mof_C 	C 	0.08467	0.59733	0.79423	0.034
Mof_C 	C 	0.09667	0.53733	0.80813	-0.092
Mof_H 	H 	0.11767	0.54733	0.82573	0.099
Mof_C 	C 	0.07697	0.46043	0.79533	0.03
Mof_C 	C 	0.04557	0.44443	0.76863	-0.16
Mof_H 	H 	0.03267	0.39433	0.76013	0.121
Mof_C 	C 	0.12567	0.67843	0.81103	0.267
Mof_O 	O 	0.14167	0.68363	0.83733	-0.389
Mof_O 	O 	0.09767	0.72563	0.80003	-0.373
Mof_N 	N 	0.98637	0.49283	0.73033	-0.247
Mof_C 	C 	0.96967	0.43033	0.71253	0.219
Mof_O 	O 	0.01067	0.39333	0.71163	-0.238
Mof_H 	H 	0.96667	0.52643	0.72583	0.131
Mof_C 	C 	0.93707	0.43533	0.68383	-0.048
Mof_C 	C 	0.93127	0.37903	0.66333	0.178
Mof_C 	C 	0.90167	0.38343	0.63743	0.14
Mof_C 	C 	0.87757	0.44383	0.63193	0.051
Mof_C 	C 	0.88337	0.50013	0.65243	-0.236
Mof_C 	C 	0.91307	0.49583	0.67833	-0.203
Mof_H 	H 	0.94667	0.33843	0.66703	-0.029
Mof_H 	H 	0.89767	0.34633	0.62393	-0.015
Mof_H 	H 	0.86767	0.54033	0.64873	0.105
Mof_H 	H 	0.91667	0.53283	0.69183	0.087
Mof_C 	C 	0.84587	0.44833	0.60433	-0.044
Mof_C 	C 	0.89287	0.45493	0.57933	0.038
Mof_N 	N 	0.86537	0.46243	0.55465	-0.182
Mof_C 	C 	0.78697	0.46463	0.55123	0.062
Mof_N 	N 	0.73957	0.45773	0.57593	-0.107
Mof_C 	C 	0.76707	0.45033	0.60063	0.037
Mof_H 	H 	0.73587	0.44623	0.61613	0.016
Mof_H 	H 	0.76937	0.47003	0.53403	0.036
Mof_H 	H 	0.94317	0.45403	0.58033	0.03
Mof_C 	C 	0.96827	0.41463	0.66073	-0.198
Mof_C 	C 	0.93867	0.41903	0.63483	-0.235
Mof_C 	C 	0.84627	0.46433	0.65503	0.143
Mof_C 	C 	0.87607	0.46013	0.68093	0.181
Mof_H 	H 	0.00867	0.39823	0.66263	0.112
Mof_H 	H 	0.95967	0.40533	0.61953	0.12
Mof_H 	H 	0.80567	0.48053	0.65313	-0.03
Mof_H 	H 	0.85567	0.47403	0.69623	-0.043
Mof_Cu	Cu	0.88223	0.72027	0.18837	0.914
Mof_C 	C 	0.79003	0.75087	0.13827	0.261
Mof_O 	O 	0.81533	0.77167	0.16367	-0.326
Mof_O 	O 	0.77933	0.67947	0.12807	-0.35
Mof_C 	C 	0.70033	0.83827	0.08807	0.181
Mof_C 	C 	0.71933	0.91367	0.10087	-0.153
Mof_H 	H 	0.71133	0.95367	0.09167	0.104
Mof_C 	C 	0.75133	0.93067	0.12757	0.032
Mof_C 	C 	0.76333	0.87067	0.14147	-0.091
Mof_H 	H 	0.78433	0.88067	0.15907	0.098
Mof_C 	C 	0.74363	0.79377	0.12867	0.029
Mof_C 	C 	0.71223	0.77777	0.10197	-0.159
Mof_H 	H 	0.69933	0.72767	0.09347	0.12
Mof_C 	C 	0.79233	0.01177	0.14437	0.268
Mof_O 	O 	0.80833	0.01697	0.17067	-0.389
Mof_O 	O 	0.76433	0.05897	0.13337	-0.373
Mof_N 	N 	0.65303	0.82617	0.06367	-0.246
Mof_C 	C 	0.63633	0.76367	0.04587	0.221
Mof_O 	O 	0.67733	0.72667	0.04497	-0.239
Mof_H 	H 	0.63333	0.85977	0.05917	0.131
Mof_C 	C 	0.60373	0.76867	0.01717	-0.049
Mof_C 	C 	0.59793	0.71237	0.99667	0.201
Mof_C 	C 	0.56833	0.71677	0.97077	0.161
Mof_C 	C 	0.54423	0.77717	0.96527	0.051
Mof_C 	C 	0.55003	0.83347	0.98577	-0.255
Mof_C 	C 	0.57973	0.82917	0.01167	-0.221
Mof_H 	H 	0.61333	0.67177	0.00037	-0.035
Mof_H 	H 	0.56433	0.67967	0.95727	-0.021
Mof_H 	H 	0.53433	0.87367	0.98207	0.111
Mof_H 	H 	0.58333	0.86617	0.02517	0.094
Mof_C 	C 	0.51253	0.78167	0.93767	-0.044
Mof_C 	C 	0.55953	0.78827	0.91267	0.038
Mof_N 	N 	0.53203	0.79577	0.88799	-0.182
Mof_C 	C 	0.45363	0.79797	0.88457	0.062
Mof_N 	N 	0.40623	0.79107	0.90927	-0.107
Mof_C 	C 	0.43373	0.78367	0.93397	0.037
Mof_H 	H 	0.40253	0.77957	0.94947	0.016
Mof_H 	H 	0.43603	0.80337	0.86737	0.036
Mof_H 	H 	0.60983	0.78737	0.91367	0.031
Mof_C 	C 	0.63493	0.74797	0.99407	-0.22
Mof_C 	C 	0.60533	0.75237	0.96817	-0.256
Mof_C 	C 	0.51293	0.79767	0.98837	0.162
Mof_C 	C 	0.54273	0.79347	0.01427	0.199
Mof_H 	H 	0.67533	0.73157	0.99597	0.118
Mof_H 	H 	0.62633	0.73867	0.95287	0.127
Mof_H 	H 	0.47233	0.81387	0.98647	-0.036
Mof_H 	H 	0.52233	0.80737	0.02957	-0.05
Mof_Cu	Cu	0.9464	0.4953	0.5217	0.913
Mof_C 	C 	0.9158	0.3725	0.4716	0.261
Mof_O 	O 	0.895	0.377	0.497	-0.326
Mof_O 	O 	0.9872	0.4332	0.4614	-0.349
Mof_C 	C 	0.8284	0.1954	0.4214	0.181
Mof_C 	C 	0.753	0.139	0.4342	-0.154
Mof_H 	H 	0.713	0.091	0.425	0.105
Mof_C 	C 	0.736	0.154	0.4609	0.033
Mof_C 	C 	0.796	0.226	0.4748	-0.092
Mof_H 	H 	0.786	0.237	0.4924	0.099
Mof_C 	C 	0.8729	0.2832	0.462	0.03
Mof_C 	C 	0.8889	0.2678	0.4353	-0.16
Mof_H 	H 	0.939	0.305	0.4268	0.12
Mof_C 	C 	0.6549	0.1139	0.4777	0.267
Mof_O 	O 	0.6497	0.1247	0.504	-0.389
Mof_O 	O 	0.6077	0.0387	0.4667	-0.373
Mof_N 	N 	0.8405	0.1602	0.397	-0.246
Mof_C 	C 	0.903	0.206	0.3792	0.221
Mof_O 	O 	0.94	0.284	0.3783	-0.239
Mof_H 	H 	0.8069	0.1069	0.3925	0.131
Mof_C 	C 	0.898	0.1684	0.3505	-0.048
Mof_C 	C 	0.9543	0.2189	0.33	0.191
Mof_C 	C 	0.9499	0.1849	0.3041	0.152
Mof_C 	C 	0.8895	0.1004	0.2986	0.05
Mof_C 	C 	0.8332	0.0499	0.3191	-0.243
Mof_C 	C 	0.8375	0.0839	0.345	-0.212
Mof_H 	H 	0.9949	0.2749	0.3337	-0.032
Mof_H 	H 	0.987	0.218	0.2906	-0.018
Mof_H 	H 	0.793	0.994	0.3154	0.106
Mof_H 	H 	0.8005	0.0505	0.3585	0.091
Mof_C 	C 	0.885	0.0642	0.271	-0.042
Mof_C 	C 	0.8784	0.1046	0.246	0.037
Mof_N 	N 	0.8709	0.0696	0.22132	-0.181
Mof_C 	C 	0.8687	0.989	0.2179	0.06
Mof_N 	N 	0.8756	0.9485	0.2426	-0.106
Mof_C 	C 	0.883	0.9834	0.2673	0.035
Mof_H 	H 	0.8871	0.9563	0.2828	0.017
Mof_H 	H 	0.8633	0.966	0.2007	0.036
Mof_H 	H 	0.8793	0.1558	0.247	0.031
Mof_C 	C 	0.9187	0.2203	0.3274	-0.21
Mof_C 	C 	0.9143	0.1863	0.3015	-0.246
Mof_C 	C 	0.869	0.0486	0.3217	0.154
Mof_C 	C 	0.8732	0.0826	0.3476	0.189
Mof_H 	H 	0.9351	0.2771	0.3293	0.115
Mof_H 	H 	0.928	0.221	0.2862	0.124
Mof_H 	H 	0.8528	0.9918	0.3198	-0.034
Mof_H 	H 	0.8593	0.0483	0.3629	-0.046
Mof_Cu	Cu	0.61307	0.82863	0.85503	0.914
Mof_C 	C 	0.58247	0.70583	0.80493	0.261
Mof_O 	O 	0.56167	0.71033	0.83033	-0.326
Mof_O 	O 	0.65387	0.76653	0.79473	-0.349
Mof_C 	C 	0.49507	0.52873	0.75473	0.181
Mof_C 	C 	0.41967	0.47233	0.76753	-0.154
Mof_H 	H 	0.37967	0.42433	0.75833	0.105
Mof_C 	C 	0.40267	0.48733	0.79423	0.033
Mof_C 	C 	0.46267	0.55933	0.80813	-0.092
Mof_H 	H 	0.45267	0.57033	0.82573	0.099
Mof_C 	C 	0.53957	0.61653	0.79533	0.03
Mof_C 	C 	0.55557	0.60113	0.76863	-0.16
Mof_H 	H 	0.60567	0.63833	0.76013	0.12
Mof_C 	C 	0.32157	0.44723	0.81103	0.267
Mof_O 	O 	0.31637	0.45803	0.83733	-0.389
Mof_O 	O 	0.27437	0.37203	0.80003	-0.373
Mof_N 	N 	0.50717	0.49353	0.73033	-0.246
Mof_C 	C 	0.56967	0.53933	0.71253	0.221
Mof_O 	O 	0.60667	0.61733	0.71163	-0.24
Mof_H 	H 	0.47357	0.44023	0.72583	0.131
Mof_C 	C 	0.56467	0.50173	0.68383	-0.049
Mof_C 	C 	0.62097	0.55223	0.66333	0.197
Mof_C 	C 	0.61657	0.51823	0.63743	0.157
Mof_C 	C 	0.55617	0.43373	0.63193	0.051
Mof_C 	C 	0.49987	0.38323	0.65243	-0.251
Mof_C 	C 	0.50417	0.41723	0.67833	-0.217
Mof_H 	H 	0.66157	0.60823	0.66703	-0.034
Mof_H 	H 	0.65367	0.55133	0.62393	-0.02
Mof_H 	H 	0.45967	0.32733	0.64873	0.11
Mof_H 	H 	0.46717	0.38383	0.69183	0.092
Mof_C 	C 	0.55167	0.39753	0.60433	-0.044
Mof_C 	C 	0.54507	0.43793	0.57933	0.038
Mof_N 	N 	0.53757	0.40293	0.55465	-0.182
Mof_C 	C 	0.53537	0.32233	0.55123	0.062
Mof_N 	N 	0.54227	0.28183	0.57593	-0.107
Mof_C 	C 	0.54967	0.31673	0.60063	0.036
Mof_H 	H 	0.55377	0.28963	0.61613	0.017
Mof_H 	H 	0.52997	0.29933	0.53403	0.036
Mof_H 	H 	0.54597	0.48913	0.58033	0.031
Mof_C 	C 	0.58537	0.55363	0.66073	-0.216
Mof_C 	C 	0.58097	0.51963	0.63483	-0.252
Mof_C 	C 	0.53567	0.38193	0.65503	0.158
Mof_C 	C 	0.53987	0.41593	0.68093	0.195
Mof_H 	H 	0.60177	0.61043	0.66263	0.116
Mof_H 	H 	0.59467	0.55433	0.61953	0.126
Mof_H 	H 	0.51947	0.32513	0.65313	-0.034
Mof_H 	H 	0.52597	0.38163	0.69623	-0.048
Mof_Cu	Cu	0.27973	0.16197	0.18837	0.914
Mof_C 	C 	0.24913	0.03917	0.13827	0.262
Mof_O 	O 	0.22833	0.04367	0.16367	-0.326
Mof_O 	O 	0.32053	0.09987	0.12807	-0.35
Mof_C 	C 	0.16173	0.86207	0.08807	0.18
Mof_C 	C 	0.08633	0.80567	0.10087	-0.153
Mof_H 	H 	0.04633	0.75767	0.09167	0.104
Mof_C 	C 	0.06933	0.82067	0.12757	0.031
Mof_C 	C 	0.12933	0.89267	0.14147	-0.09
Mof_H 	H 	0.11933	0.90367	0.15907	0.098
Mof_C 	C 	0.20623	0.94987	0.12867	0.028
Mof_C 	C 	0.22223	0.93447	0.10197	-0.158
Mof_H 	H 	0.27233	0.97167	0.09347	0.119
Mof_C 	C 	0.98823	0.78057	0.14437	0.268
Mof_O 	O 	0.98303	0.79137	0.17067	-0.389
Mof_O 	O 	0.94103	0.70537	0.13337	-0.373
Mof_N 	N 	0.17383	0.82687	0.06367	-0.246
Mof_C 	C 	0.23633	0.87267	0.04587	0.221
Mof_O 	O 	0.27333	0.95067	0.04497	-0.24
Mof_H 	H 	0.14023	0.77357	0.05917	0.131
Mof_C 	C 	0.23133	0.83507	0.01717	-0.049
Mof_C 	C 	0.28763	0.88557	0.99667	0.201
Mof_C 	C 	0.28323	0.85157	0.97077	0.161
Mof_C 	C 	0.22283	0.76707	0.96527	0.051
Mof_C 	C 	0.16653	0.71657	0.98577	-0.255
Mof_C 	C 	0.17083	0.75057	0.01167	-0.221
Mof_H 	H 	0.32823	0.94157	0.00037	-0.036
Mof_H 	H 	0.32033	0.88467	0.95727	-0.021
Mof_H 	H 	0.12633	0.66067	0.98207	0.111
Mof_H 	H 	0.13383	0.71717	0.02517	0.094
Mof_C 	C 	0.21833	0.73087	0.93767	-0.044
Mof_C 	C 	0.21173	0.77127	0.91267	0.038
Mof_N 	N 	0.20423	0.73627	0.88799	-0.182
Mof_C 	C 	0.20203	0.65567	0.88457	0.062
Mof_N 	N 	0.20893	0.61517	0.90927	-0.107
Mof_C 	C 	0.21633	0.65007	0.93397	0.037
Mof_H 	H 	0.22043	0.62297	0.94947	0.016
Mof_H 	H 	0.19663	0.63267	0.86737	0.036
Mof_H 	H 	0.21263	0.82247	0.91367	0.031
Mof_C 	C 	0.25203	0.88697	0.99407	-0.22
Mof_C 	C 	0.24763	0.85297	0.96817	-0.256
Mof_C 	C 	0.20233	0.71527	0.98837	0.162
Mof_C 	C 	0.20653	0.74927	0.01427	0.2
Mof_H 	H 	0.26843	0.94377	0.99597	0.118
Mof_H 	H 	0.26133	0.88767	0.95287	0.128
Mof_H 	H 	0.18613	0.65847	0.98647	-0.036
Mof_H 	H 	0.19263	0.71497	0.02957	-0.05
Mof_Cu	Cu	0.4511	0.5047	0.4783	0.914
Mof_C 	C 	0.5433	0.6275	0.5284	0.261
Mof_O 	O 	0.518	0.623	0.503	-0.326
Mof_O 	O 	0.554	0.5668	0.5386	-0.349
Mof_C 	C 	0.633	0.8046	0.5786	0.181
Mof_C 	C 	0.614	0.861	0.5658	-0.154
Mof_H 	H 	0.622	0.909	0.575	0.105
Mof_C 	C 	0.582	0.846	0.5391	0.033
Mof_C 	C 	0.57	0.774	0.5252	-0.092
Mof_H 	H 	0.549	0.763	0.5076	0.099
Mof_C 	C 	0.5897	0.7168	0.538	0.03
Mof_C 	C 	0.6211	0.7322	0.5647	-0.16
Mof_H 	H 	0.634	0.695	0.5732	0.12
Mof_C 	C 	0.541	0.8861	0.5223	0.267
Mof_O 	O 	0.525	0.8753	0.496	-0.389
Mof_O 	O 	0.569	0.9613	0.5333	-0.373
Mof_N 	N 	0.6803	0.8398	0.603	-0.246
Mof_C 	C 	0.697	0.794	0.6208	0.22
Mof_O 	O 	0.656	0.716	0.6217	-0.24
Mof_H 	H 	0.7	0.8931	0.6075	0.131
Mof_C 	C 	0.7296	0.8316	0.6495	-0.048
Mof_C 	C 	0.7354	0.7811	0.67	0.198
Mof_C 	C 	0.765	0.8151	0.6959	0.159
Mof_C 	C 	0.7891	0.8996	0.7014	0.049
Mof_C 	C 	0.7833	0.9501	0.6809	-0.25
Mof_C 	C 	0.7536	0.9161	0.655	-0.219
Mof_H 	H 	0.72	0.7251	0.6663	-0.034
Mof_H 	H 	0.769	0.782	0.7094	-0.021
Mof_H 	H 	0.799	0.006	0.6846	0.109
Mof_H 	H 	0.75	0.9495	0.6415	0.093
Mof_C 	C 	0.8208	0.9358	0.729	-0.041
Mof_C 	C 	0.7738	0.8954	0.754	0.037
Mof_N 	N 	0.8013	0.9304	0.77868	-0.181
Mof_C 	C 	0.8797	0.011	0.7821	0.06
Mof_N 	N 	0.9271	0.0515	0.7574	-0.107
Mof_C 	C 	0.8996	0.0166	0.7327	0.034
Mof_H 	H 	0.9308	0.0437	0.7172	0.017
Mof_H 	H 	0.8973	0.034	0.7993	0.036
Mof_H 	H 	0.7235	0.8442	0.753	0.031
Mof_C 	C 	0.6984	0.7797	0.6726	-0.217
Mof_C 	C 	0.728	0.8137	0.6985	-0.253
Mof_C 	C 	0.8204	0.9514	0.6783	0.161
Mof_C 	C 	0.7906	0.9174	0.6524	0.196
Mof_H 	H 	0.658	0.7229	0.6707	0.117
Mof_H 	H 	0.707	0.779	0.7138	0.126
Mof_H 	H 	0.861	0.0082	0.6802	-0.036
Mof_H 	H 	0.811	0.9517	0.6371	-0.048
Mof_Cu	Cu	0.11777	0.83803	0.81163	0.914
Mof_C 	C 	0.20997	0.96083	0.86173	0.262
Mof_O 	O 	0.18467	0.95633	0.83633	-0.326
Mof_O 	O 	0.22067	0.90013	0.87193	-0.35
Mof_C 	C 	0.29967	0.13793	0.91193	0.181
Mof_C 	C 	0.28067	0.19433	0.89913	-0.154
Mof_H 	H 	0.28867	0.24233	0.90833	0.104
Mof_C 	C 	0.24867	0.17933	0.87243	0.033
Mof_C 	C 	0.23667	0.10733	0.85853	-0.091
Mof_H 	H 	0.21567	0.09633	0.84093	0.098
Mof_C 	C 	0.25637	0.05013	0.87133	0.028
Mof_C 	C 	0.28777	0.06553	0.89803	-0.159
Mof_H 	H 	0.30067	0.02833	0.90653	0.12
Mof_C 	C 	0.20767	0.21943	0.85563	0.267
Mof_O 	O 	0.19167	0.20863	0.82933	-0.389
Mof_O 	O 	0.23567	0.29463	0.86663	-0.373
Mof_N 	N 	0.34697	0.17313	0.93633	-0.246
Mof_C 	C 	0.36367	0.12733	0.95413	0.221
Mof_O 	O 	0.32267	0.04933	0.95503	-0.24
Mof_H 	H 	0.36667	0.22643	0.94083	0.131
Mof_C 	C 	0.39627	0.16493	0.98283	-0.049
Mof_C 	C 	0.40207	0.11443	0.00333	0.201
Mof_C 	C 	0.43167	0.14843	0.02923	0.161
Mof_C 	C 	0.45577	0.23293	0.03473	0.051
Mof_C 	C 	0.44997	0.28343	0.01423	-0.255
Mof_C 	C 	0.42027	0.24943	0.98833	-0.221
Mof_H 	H 	0.38667	0.05843	0.99963	-0.035
Mof_H 	H 	0.43567	0.11533	0.04273	-0.021
Mof_H 	H 	0.46567	0.33933	0.01793	0.111
Mof_H 	H 	0.41667	0.28283	0.97483	0.094
Mof_C 	C 	0.48747	0.26913	0.06233	-0.044
Mof_C 	C 	0.44047	0.22873	0.08733	0.038
Mof_N 	N 	0.46797	0.26373	0.11201	-0.182
Mof_C 	C 	0.54637	0.34433	0.11543	0.062
Mof_N 	N 	0.59377	0.38483	0.09073	-0.107
Mof_C 	C 	0.56627	0.34993	0.06603	0.037
Mof_H 	H 	0.59747	0.37703	0.05053	0.016
Mof_H 	H 	0.56397	0.36733	0.13263	0.036
Mof_H 	H 	0.39017	0.17753	0.08633	0.031
Mof_C 	C 	0.36507	0.11303	0.00593	-0.22
Mof_C 	C 	0.39467	0.14703	0.03183	-0.256
Mof_C 	C 	0.48707	0.28473	0.01163	0.162
Mof_C 	C 	0.45727	0.25073	0.98573	0.199
Mof_H 	H 	0.32467	0.05623	0.00403	0.118
Mof_H 	H 	0.37367	0.11233	0.04713	0.128
Mof_H 	H 	0.52767	0.34153	0.01353	-0.036
Mof_H 	H 	0.47767	0.28503	0.97043	-0.05
Mof_Cu	Cu	0.78443	0.17137	0.14497	0.914
Mof_C 	C 	0.87663	0.29417	0.19507	0.261
Mof_O 	O 	0.85133	0.28967	0.16967	-0.326
Mof_O 	O 	0.88733	0.23347	0.20527	-0.349
Mof_C 	C 	0.96633	0.47127	0.24527	0.183
Mof_C 	C 	0.94733	0.52767	0.23247	-0.155
Mof_H 	H 	0.95533	0.57567	0.24167	0.105
Mof_C 	C 	0.91533	0.51267	0.20577	0.034
Mof_C 	C 	0.90333	0.44067	0.19187	-0.092
Mof_H 	H 	0.88233	0.42967	0.17427	0.099
Mof_C 	C 	0.92303	0.38347	0.20467	0.03
Mof_C 	C 	0.95443	0.39887	0.23137	-0.16
Mof_H 	H 	0.96733	0.36167	0.23987	0.121
Mof_C 	C 	0.87433	0.55277	0.18897	0.267
Mof_O 	O 	0.85833	0.54197	0.16267	-0.389
Mof_O 	O 	0.90233	0.62797	0.19997	-0.373
Mof_N 	N 	0.01363	0.50647	0.26967	-0.247
Mof_C 	C 	0.03033	0.46067	0.28747	0.219
Mof_O 	O 	0.98933	0.38267	0.28837	-0.238
Mof_H 	H 	0.03333	0.55977	0.27417	0.131
Mof_C 	C 	0.06293	0.49827	0.31617	-0.048
Mof_C 	C 	0.06873	0.44777	0.33667	0.178
Mof_C 	C 	0.09833	0.48177	0.36257	0.141
Mof_C 	C 	0.12243	0.56627	0.36807	0.051
Mof_C 	C 	0.11663	0.61677	0.34757	-0.237
Mof_C 	C 	0.08693	0.58277	0.32167	-0.203
Mof_H 	H 	0.05333	0.39177	0.33297	-0.029
Mof_H 	H 	0.10233	0.44867	0.37607	-0.015
Mof_H 	H 	0.13233	0.67267	0.35127	0.105
Mof_H 	H 	0.08333	0.61617	0.30817	0.087
Mof_C 	C 	0.15413	0.60247	0.39567	-0.044
Mof_C 	C 	0.10713	0.56207	0.42067	0.037
Mof_N 	N 	0.13463	0.59707	0.44535	-0.182
Mof_C 	C 	0.21303	0.67767	0.44877	0.062
Mof_N 	N 	0.26043	0.71817	0.42407	-0.107
Mof_C 	C 	0.23293	0.68327	0.39937	0.037
Mof_H 	H 	0.26413	0.71037	0.38387	0.017
Mof_H 	H 	0.23063	0.70067	0.46597	0.036
Mof_H 	H 	0.05683	0.51087	0.41967	0.03
Mof_C 	C 	0.03173	0.44637	0.33927	-0.198
Mof_C 	C 	0.06133	0.48037	0.36517	-0.235
Mof_C 	C 	0.15373	0.61807	0.34497	0.144
Mof_C 	C 	0.12393	0.58407	0.31907	0.181
Mof_H 	H 	0.99133	0.38957	0.33737	0.112
Mof_H 	H 	0.04033	0.44567	0.38047	0.12
Mof_H 	H 	0.19433	0.67487	0.34687	-0.029
Mof_H 	H 	0.14433	0.61837	0.30377	-0.043
Mof_Cu	Cu	0.0536	0.5489	0.4783	0.913
Mof_C 	C 	0.0842	0.4567	0.5284	0.261
Mof_O 	O 	0.105	0.482	0.503	-0.326
Mof_O 	O 	0.0128	0.446	0.5386	-0.349
Mof_C 	C 	0.1716	0.367	0.5786	0.182
Mof_C 	C 	0.247	0.386	0.5658	-0.154
Mof_H 	H 	0.287	0.378	0.575	0.105
Mof_C 	C 	0.264	0.418	0.5391	0.033
Mof_C 	C 	0.204	0.43	0.5252	-0.092
Mof_H 	H 	0.214	0.451	0.5076	0.099
Mof_C 	C 	0.1271	0.4103	0.538	0.03
Mof_C 	C 	0.1111	0.3789	0.5647	-0.16
Mof_H 	H 	0.061	0.366	0.5732	0.12
Mof_C 	C 	0.3451	0.459	0.5223	0.267
Mof_O 	O 	0.3503	0.475	0.496	-0.389
Mof_O 	O 	0.3923	0.431	0.5333	-0.373
Mof_N 	N 	0.1595	0.3197	0.603	-0.246
Mof_C 	C 	0.097	0.303	0.6208	0.221
Mof_O 	O 	0.06	0.344	0.6217	-0.239
Mof_H 	H 	0.1931	0.3	0.6075	0.131
Mof_C 	C 	0.102	0.2704	0.6495	-0.049
Mof_C 	C 	0.0457	0.2646	0.67	0.194
Mof_C 	C 	0.0501	0.235	0.6959	0.154
Mof_C 	C 	0.1105	0.2109	0.7014	0.051
Mof_C 	C 	0.1668	0.2167	0.6809	-0.248
Mof_C 	C 	0.1625	0.2464	0.655	-0.215
Mof_H 	H 	0.0051	0.28	0.6663	-0.033
Mof_H 	H 	0.013	0.231	0.7094	-0.019
Mof_H 	H 	0.207	0.201	0.6846	0.109
Mof_H 	H 	0.1995	0.25	0.6415	0.091
Mof_C 	C 	0.115	0.1792	0.729	-0.044
Mof_C 	C 	0.1216	0.2262	0.754	0.038
Mof_N 	N 	0.1291	0.1987	0.77868	-0.182
Mof_C 	C 	0.1313	0.1203	0.7821	0.062
Mof_N 	N 	0.1244	0.0729	0.7574	-0.107
Mof_C 	C 	0.117	0.1004	0.7327	0.037
Mof_H 	H 	0.1129	0.0692	0.7172	0.016
Mof_H 	H 	0.1367	0.1027	0.7993	0.036
Mof_H 	H 	0.1207	0.2765	0.753	0.031
Mof_C 	C 	0.0813	0.3016	0.6726	-0.213
Mof_C 	C 	0.0857	0.272	0.6985	-0.249
Mof_C 	C 	0.131	0.1796	0.6783	0.155
Mof_C 	C 	0.1268	0.2094	0.6524	0.193
Mof_H 	H 	0.0649	0.342	0.6707	0.116
Mof_H 	H 	0.072	0.293	0.7138	0.125
Mof_H 	H 	0.1472	0.139	0.6802	-0.034
Mof_H 	H 	0.1407	0.189	0.6371	-0.047
Mof_Cu	Cu	0.72027	0.88223	0.81163	0.914
Mof_C 	C 	0.75087	0.79003	0.86173	0.261
Mof_O 	O 	0.77167	0.81533	0.83633	-0.326
Mof_O 	O 	0.67947	0.77933	0.87193	-0.35
Mof_C 	C 	0.83827	0.70033	0.91193	0.181
Mof_C 	C 	0.91367	0.71933	0.89913	-0.153
Mof_H 	H 	0.95367	0.71133	0.90833	0.104
Mof_C 	C 	0.93067	0.75133	0.87243	0.032
Mof_C 	C 	0.87067	0.76333	0.85853	-0.091
Mof_H 	H 	0.88067	0.78433	0.84093	0.098
Mof_C 	C 	0.79377	0.74363	0.87133	0.029
Mof_C 	C 	0.77777	0.71223	0.89803	-0.159
Mof_H 	H 	0.72767	0.69933	0.90653	0.12
Mof_C 	C 	0.01177	0.79233	0.85563	0.268
Mof_O 	O 	0.01697	0.80833	0.82933	-0.389
Mof_O 	O 	0.05897	0.76433	0.86663	-0.373
Mof_N 	N 	0.82617	0.65303	0.93633	-0.246
Mof_C 	C 	0.76367	0.63633	0.95413	0.221
Mof_O 	O 	0.72667	0.67733	0.95503	-0.239
Mof_H 	H 	0.85977	0.63333	0.94083	0.131
Mof_C 	C 	0.76867	0.60373	0.98283	-0.049
Mof_C 	C 	0.71237	0.59793	0.00333	0.201
Mof_C 	C 	0.71677	0.56833	0.02923	0.161
Mof_C 	C 	0.77717	0.54423	0.03473	0.051
Mof_C 	C 	0.83347	0.55003	0.01423	-0.255
Mof_C 	C 	0.82917	0.57973	0.98833	-0.221
Mof_H 	H 	0.67177	0.61333	0.99963	-0.035
Mof_H 	H 	0.67967	0.56433	0.04273	-0.021
Mof_H 	H 	0.87367	0.53433	0.01793	0.111
Mof_H 	H 	0.86617	0.58333	0.97483	0.094
Mof_C 	C 	0.78167	0.51253	0.06233	-0.044
Mof_C 	C 	0.78827	0.55953	0.08733	0.038
Mof_N 	N 	0.79577	0.53203	0.11201	-0.182
Mof_C 	C 	0.79797	0.45363	0.11543	0.062
Mof_N 	N 	0.79107	0.40623	0.09073	-0.107
Mof_C 	C 	0.78367	0.43373	0.06603	0.037
Mof_H 	H 	0.77957	0.40253	0.05053	0.016
Mof_H 	H 	0.80337	0.43603	0.13263	0.036
Mof_H 	H 	0.78737	0.60983	0.08633	0.031
Mof_C 	C 	0.74797	0.63493	0.00593	-0.22
Mof_C 	C 	0.75237	0.60533	0.03183	-0.256
Mof_C 	C 	0.79767	0.51293	0.01163	0.162
Mof_C 	C 	0.79347	0.54273	0.98573	0.199
Mof_H 	H 	0.73157	0.67533	0.00403	0.118
Mof_H 	H 	0.73867	0.62633	0.04713	0.127
Mof_H 	H 	0.81387	0.47233	0.01353	-0.036
Mof_H 	H 	0.80737	0.52233	0.97043	-0.05
Mof_Cu	Cu	0.38693	0.21557	0.14497	0.914
Mof_C 	C 	0.41753	0.12337	0.19507	0.261
Mof_O 	O 	0.43833	0.14867	0.16967	-0.326
Mof_O 	O 	0.34613	0.11267	0.20527	-0.349
Mof_C 	C 	0.50493	0.03367	0.24527	0.183
Mof_C 	C 	0.58033	0.05267	0.23247	-0.155
Mof_H 	H 	0.62033	0.04467	0.24167	0.105
Mof_C 	C 	0.59733	0.08467	0.20577	0.034
Mof_C 	C 	0.53733	0.09667	0.19187	-0.092
Mof_H 	H 	0.54733	0.11767	0.17427	0.099
Mof_C 	C 	0.46043	0.07697	0.20467	0.03
Mof_C 	C 	0.44443	0.04557	0.23137	-0.16
Mof_H 	H 	0.39433	0.03267	0.23987	0.121
Mof_C 	C 	0.67843	0.12567	0.18897	0.267
Mof_O 	O 	0.68363	0.14167	0.16267	-0.389
Mof_O 	O 	0.72563	0.09767	0.19997	-0.373
Mof_N 	N 	0.49283	0.98637	0.26967	-0.247
Mof_C 	C 	0.43033	0.96967	0.28747	0.219
Mof_O 	O 	0.39333	0.01067	0.28837	-0.238
Mof_H 	H 	0.52643	0.96667	0.27417	0.131
Mof_C 	C 	0.43533	0.93707	0.31617	-0.048
Mof_C 	C 	0.37903	0.93127	0.33667	0.178
Mof_C 	C 	0.38343	0.90167	0.36257	0.14
Mof_C 	C 	0.44383	0.87757	0.36807	0.051
Mof_C 	C 	0.50013	0.88337	0.34757	-0.236
Mof_C 	C 	0.49583	0.91307	0.32167	-0.203
Mof_H 	H 	0.33843	0.94667	0.33297	-0.029
Mof_H 	H 	0.34633	0.89767	0.37607	-0.015
Mof_H 	H 	0.54033	0.86767	0.35127	0.105
Mof_H 	H 	0.53283	0.91667	0.30817	0.087
Mof_C 	C 	0.44833	0.84587	0.39567	-0.044
Mof_C 	C 	0.45493	0.89287	0.42067	0.038
Mof_N 	N 	0.46243	0.86537	0.44535	-0.182
Mof_C 	C 	0.46463	0.78697	0.44877	0.062
Mof_N 	N 	0.45773	0.73957	0.42407	-0.107
Mof_C 	C 	0.45033	0.76707	0.39937	0.037
Mof_H 	H 	0.44623	0.73587	0.38387	0.016
Mof_H 	H 	0.47003	0.76937	0.46597	0.036
Mof_H 	H 	0.45403	0.94317	0.41967	0.03
Mof_C 	C 	0.41463	0.96827	0.33927	-0.198
Mof_C 	C 	0.41903	0.93867	0.36517	-0.235
Mof_C 	C 	0.46433	0.84627	0.34497	0.143
Mof_C 	C 	0.46013	0.87607	0.31907	0.181
Mof_H 	H 	0.39823	0.00867	0.33737	0.112
Mof_H 	H 	0.40533	0.95967	0.38047	0.12
Mof_H 	H 	0.48053	0.80567	0.34687	-0.03
Mof_H 	H 	0.47403	0.85567	0.30377	-0.043
Mof_Cu	Cu	0.4953	0.9464	0.4783	0.913
Mof_C 	C 	0.3725	0.9158	0.5284	0.261
Mof_O 	O 	0.377	0.895	0.503	-0.326
Mof_O 	O 	0.4332	0.9872	0.5386	-0.349
Mof_C 	C 	0.1954	0.8284	0.5786	0.181
Mof_C 	C 	0.139	0.753	0.5658	-0.154
Mof_H 	H 	0.091	0.713	0.575	0.105
Mof_C 	C 	0.154	0.736	0.5391	0.033
Mof_C 	C 	0.226	0.796	0.5252	-0.092
Mof_H 	H 	0.237	0.786	0.5076	0.099
Mof_C 	C 	0.2832	0.8729	0.538	0.03
Mof_C 	C 	0.2678	0.8889	0.5647	-0.16
Mof_H 	H 	0.305	0.939	0.5732	0.12
Mof_C 	C 	0.1139	0.6549	0.5223	0.267
Mof_O 	O 	0.1247	0.6497	0.496	-0.389
Mof_O 	O 	0.0387	0.6077	0.5333	-0.373
Mof_N 	N 	0.1602	0.8405	0.603	-0.246
Mof_C 	C 	0.206	0.903	0.6208	0.221
Mof_O 	O 	0.284	0.94	0.6217	-0.239
Mof_H 	H 	0.1069	0.8069	0.6075	0.131
Mof_C 	C 	0.1684	0.898	0.6495	-0.048
Mof_C 	C 	0.2189	0.9543	0.67	0.191
Mof_C 	C 	0.1849	0.9499	0.6959	0.152
Mof_C 	C 	0.1004	0.8895	0.7014	0.05
Mof_C 	C 	0.0499	0.8332	0.6809	-0.243
Mof_C 	C 	0.0839	0.8375	0.655	-0.212
Mof_H 	H 	0.2749	0.9949	0.6663	-0.032
Mof_H 	H 	0.218	0.987	0.7094	-0.018
Mof_H 	H 	0.994	0.793	0.6846	0.106
Mof_H 	H 	0.0505	0.8005	0.6415	0.091
Mof_C 	C 	0.0642	0.885	0.729	-0.042
Mof_C 	C 	0.1046	0.8784	0.754	0.037
Mof_N 	N 	0.0696	0.8709	0.77868	-0.181
Mof_C 	C 	0.989	0.8687	0.7821	0.06
Mof_N 	N 	0.9485	0.8756	0.7574	-0.106
Mof_C 	C 	0.9834	0.883	0.7327	0.035
Mof_H 	H 	0.9563	0.8871	0.7172	0.017
Mof_H 	H 	0.966	0.8633	0.7993	0.036
Mof_H 	H 	0.1558	0.8793	0.753	0.031
Mof_C 	C 	0.2203	0.9187	0.6726	-0.21
Mof_C 	C 	0.1863	0.9143	0.6985	-0.246
Mof_C 	C 	0.0486	0.869	0.6783	0.154
Mof_C 	C 	0.0826	0.8732	0.6524	0.189
Mof_H 	H 	0.2771	0.9351	0.6707	0.115
Mof_H 	H 	0.221	0.928	0.7138	0.124
Mof_H 	H 	0.9918	0.8528	0.6802	-0.034
Mof_H 	H 	0.0483	0.8593	0.6371	-0.046
Mof_Cu	Cu	0.16197	0.27973	0.81163	0.914
Mof_C 	C 	0.03917	0.24913	0.86173	0.262
Mof_O 	O 	0.04367	0.22833	0.83633	-0.326
Mof_O 	O 	0.09987	0.32053	0.87193	-0.35
Mof_C 	C 	0.86207	0.16173	0.91193	0.18
Mof_C 	C 	0.80567	0.08633	0.89913	-0.153
Mof_H 	H 	0.75767	0.04633	0.90833	0.104
Mof_C 	C 	0.82067	0.06933	0.87243	0.031
Mof_C 	C 	0.89267	0.12933	0.85853	-0.09
Mof_H 	H 	0.90367	0.11933	0.84093	0.098
Mof_C 	C 	0.94987	0.20623	0.87133	0.028
Mof_C 	C 	0.93447	0.22223	0.89803	-0.158
Mof_H 	H 	0.97167	0.27233	0.90653	0.119
Mof_C 	C 	0.78057	0.98823	0.85563	0.268
Mof_O 	O 	0.79137	0.98303	0.82933	-0.389
Mof_O 	O 	0.70537	0.94103	0.86663	-0.373
Mof_N 	N 	0.82687	0.17383	0.93633	-0.246
Mof_C 	C 	0.87267	0.23633	0.95413	0.221
Mof_O 	O 	0.95067	0.27333	0.95503	-0.24
Mof_H 	H 	0.77357	0.14023	0.94083	0.131
Mof_C 	C 	0.83507	0.23133	0.98283	-0.049
Mof_C 	C 	0.88557	0.28763	0.00333	0.201
Mof_C 	C 	0.85157	0.28323	0.02923	0.161
Mof_C 	C 	0.76707	0.22283	0.03473	0.051
Mof_C 	C 	0.71657	0.16653	0.01423	-0.255
Mof_C 	C 	0.75057	0.17083	0.98833	-0.221
Mof_H 	H 	0.94157	0.32823	0.99963	-0.036
Mof_H 	H 	0.88467	0.32033	0.04273	-0.021
Mof_H 	H 	0.66067	0.12633	0.01793	0.111
Mof_H 	H 	0.71717	0.13383	0.97483	0.094
Mof_C 	C 	0.73087	0.21833	0.06233	-0.044
Mof_C 	C 	0.77127	0.21173	0.08733	0.038
Mof_N 	N 	0.73627	0.20423	0.11201	-0.182
Mof_C 	C 	0.65567	0.20203	0.11543	0.062
Mof_N 	N 	0.61517	0.20893	0.09073	-0.107
Mof_C 	C 	0.65007	0.21633	0.06603	0.037
Mof_H 	H 	0.62297	0.22043	0.05053	0.016
Mof_H 	H 	0.63267	0.19663	0.13263	0.036
Mof_H 	H 	0.82247	0.21263	0.08633	0.031
Mof_C 	C 	0.88697	0.25203	0.00593	-0.22
Mof_C 	C 	0.85297	0.24763	0.03183	-0.256
Mof_C 	C 	0.71527	0.20233	0.01163	0.162
Mof_C 	C 	0.74927	0.20653	0.98573	0.2
Mof_H 	H 	0.94377	0.26843	0.00403	0.118
Mof_H 	H 	0.88767	0.26133	0.04713	0.128
Mof_H 	H 	0.65847	0.18613	0.01353	-0.036
Mof_H 	H 	0.71497	0.19263	0.97043	-0.05
Mof_Cu	Cu	0.82863	0.61307	0.14497	0.914
Mof_C 	C 	0.70583	0.58247	0.19507	0.261
Mof_O 	O 	0.71033	0.56167	0.16967	-0.326
Mof_O 	O 	0.76653	0.65387	0.20527	-0.349
Mof_C 	C 	0.52873	0.49507	0.24527	0.181
Mof_C 	C 	0.47233	0.41967	0.23247	-0.154
Mof_H 	H 	0.42433	0.37967	0.24167	0.105
Mof_C 	C 	0.48733	0.40267	0.20577	0.033
Mof_C 	C 	0.55933	0.46267	0.19187	-0.092
Mof_H 	H 	0.57033	0.45267	0.17427	0.099
Mof_C 	C 	0.61653	0.53957	0.20467	0.03
Mof_C 	C 	0.60113	0.55557	0.23137	-0.16
Mof_H 	H 	0.63833	0.60567	0.23987	0.12
Mof_C 	C 	0.44723	0.32157	0.18897	0.267
Mof_O 	O 	0.45803	0.31637	0.16267	-0.389
Mof_O 	O 	0.37203	0.27437	0.19997	-0.373
Mof_N 	N 	0.49353	0.50717	0.26967	-0.246
Mof_C 	C 	0.53933	0.56967	0.28747	0.221
Mof_O 	O 	0.61733	0.60667	0.28837	-0.24
Mof_H 	H 	0.44023	0.47357	0.27417	0.131
Mof_C 	C 	0.50173	0.56467	0.31617	-0.049
Mof_C 	C 	0.55223	0.62097	0.33667	0.197
Mof_C 	C 	0.51823	0.61657	0.36257	0.157
Mof_C 	C 	0.43373	0.55617	0.36807	0.051
Mof_C 	C 	0.38323	0.49987	0.34757	-0.251
Mof_C 	C 	0.41723	0.50417	0.32167	-0.217
Mof_H 	H 	0.60823	0.66157	0.33297	-0.034
Mof_H 	H 	0.55133	0.65367	0.37607	-0.02
Mof_H 	H 	0.32733	0.45967	0.35127	0.11
Mof_H 	H 	0.38383	0.46717	0.30817	0.092
Mof_C 	C 	0.39753	0.55167	0.39567	-0.044
Mof_C 	C 	0.43793	0.54507	0.42067	0.038
Mof_N 	N 	0.40293	0.53757	0.44535	-0.182
Mof_C 	C 	0.32233	0.53537	0.44877	0.062
Mof_N 	N 	0.28183	0.54227	0.42407	-0.107
Mof_C 	C 	0.31673	0.54967	0.39937	0.036
Mof_H 	H 	0.28963	0.55377	0.38387	0.017
Mof_H 	H 	0.29933	0.52997	0.46597	0.036
Mof_H 	H 	0.48913	0.54597	0.41967	0.031
Mof_C 	C 	0.55363	0.58537	0.33927	-0.216
Mof_C 	C 	0.51963	0.58097	0.36517	-0.252
Mof_C 	C 	0.38193	0.53567	0.34497	0.158
Mof_C 	C 	0.41593	0.53987	0.31907	0.195
Mof_H 	H 	0.61043	0.60177	0.33737	0.116
Mof_H 	H 	0.55433	0.59467	0.38047	0.126
Mof_H 	H 	0.32513	0.51947	0.34687	-0.034
Mof_H 	H 	0.38163	0.52597	0.30377	-0.048
_end
