data_functionalizedCrystal
_audit_creation_method	'EQeq! by Chris Wilmer'
_symmetry_space_group_name_H-M	'P1'
_symmetry_Int_Tables_number	1
_symmetry_cell_setting	triclinic
loop_
_symmetry_equiv_pos_as_xyz
  x,y,z
_cell_length_a	6.3554
_cell_length_b	9.166
_cell_length_c	15.311
_cell_angle_alpha	90.27
_cell_angle_beta	91.338
_cell_angle_gamma	106.594
loop_
_atom_site_label
_atom_site_type_symbol
_atom_site_fract_x
_atom_site_fract_y
_atom_site_fract_z
_atom_site_charge
Mof_Fe	Fe	0.76532	0.03711	0.3823	1.054
Mof_Fe	Fe	0.74731	0.04156	0.1264	1.119
Mof_Fe	Fe	0.12952	0.6886	0.24959	1.089
Mof_P 	P 	0.65506	0.77644	0.27779	0.564
Mof_O 	O 	0.8264	0.7061	0.2421	-0.37
Mof_O 	O 	0.6806	0.8063	0.37748	-0.323
Mof_O 	O 	0.6928	0.9415	0.24361	-0.415
Mof_O 	O 	0.4322	0.6711	0.25099	-0.346
Mof_O 	O 	0.8419	0.2429	0.33639	-0.367
Mof_O 	O 	0.0224	0.4736	0.253	-0.4
Mof_P 	P 	0.8213	0.33615	0.25889	0.5
Mof_O 	O 	0.7365	0.254	0.1767	-0.099
Mof_O 	O 	0.269	0.2165	0.2386	-0.031
Mof_O 	O 	0.6165	0.3966	0.2721	-0.741
Mof_H 	H 	0.6832	0.4967	0.2612	0.353
Mof_H 	H 	0.5118	0.347	0.242	0.432
Mof_P 	P 	0.9725	0.3035	0.254	0.259
Mof_O 	O 	0.8463	0.233	0.1716	-0.316
Mof_O 	O 	0.197	0.257	0.2621	-0.101
Mof_P 	P 	0.3355	0.8747	0.07954	0.249
Mof_O 	O 	0.5515	0.8309	0.0683	-0.19
Mof_O 	O 	0.0718	0.1126	0.1796	-0.104
Mof_P 	P 	0.197	0.9066	0.07929	0.448
Mof_O 	O 	0.0426	0.9976	0.1083	-0.241
Mof_O 	O 	0.7959	0.8492	0.0772	-0.133
Mof_O 	O 	0.4255	0.0201	0.1087	-0.362
Mof_O 	O 	0.1819	0.8676	0.988	-0.346
Mof_O 	O 	0.164	0.7594	0.13311	-0.372
Mof_P 	P 	0.22401	0.94976	0.40192	0.607
Mof_O 	O 	0.1855	0.7949	0.3563	-0.389
Mof_O 	O 	0.4614	0.0478	0.3909	-0.341
Mof_O 	O 	0.0752	0.0387	0.3629	-0.325
Mof_O 	O 	0.1738	0.9152	0.49774	-0.364
Mof_Fe	Fe	0.23468	0.96289	0.6177	1.055
Mof_Fe	Fe	0.25269	0.95844	0.8736	1.12
Mof_Fe	Fe	0.87048	0.3114	0.75041	1.09
Mof_P 	P 	0.34494	0.22356	0.72221	0.565
Mof_O 	O 	0.1736	0.2939	0.7579	-0.37
Mof_O 	O 	0.3194	0.1937	0.62252	-0.323
Mof_O 	O 	0.3072	0.0585	0.75639	-0.415
Mof_O 	O 	0.5678	0.3289	0.74901	-0.346
Mof_O 	O 	0.1581	0.7571	0.66361	-0.367
Mof_O 	O 	0.9776	0.5264	0.747	-0.4
Mof_P 	P 	0.1787	0.66385	0.74111	0.5
Mof_O 	O 	0.2635	0.746	0.8233	-0.099
Mof_O 	O 	0.731	0.7835	0.7614	-0.031
Mof_O 	O 	0.3835	0.6034	0.7279	-0.741
Mof_H 	H 	0.3168	0.5033	0.7388	0.353
Mof_H 	H 	0.4882	0.653	0.758	0.432
Mof_P 	P 	0.0275	0.6965	0.746	0.259
Mof_O 	O 	0.1537	0.767	0.8284	-0.316
Mof_O 	O 	0.803	0.743	0.7379	-0.101
Mof_P 	P 	0.6645	0.1253	0.92046	0.249
Mof_O 	O 	0.4485	0.1691	0.9317	-0.19
Mof_O 	O 	0.9282	0.8874	0.8204	-0.104
Mof_P 	P 	0.803	0.0934	0.92071	0.448
Mof_O 	O 	0.9574	0.0024	0.8917	-0.241
Mof_O 	O 	0.2041	0.1508	0.9228	-0.133
Mof_O 	O 	0.5745	0.9799	0.8913	-0.362
Mof_O 	O 	0.8181	0.1324	0.012	-0.346
Mof_O 	O 	0.836	0.2406	0.86689	-0.372
Mof_P 	P 	0.77599	0.05024	0.59808	0.607
Mof_O 	O 	0.8145	0.2051	0.6437	-0.389
Mof_O 	O 	0.5386	0.9522	0.6091	-0.341
Mof_O 	O 	0.9248	0.9613	0.6371	-0.325
Mof_O 	O 	0.8262	0.0848	0.50226	-0.364
_end
