# CIF file generated by openbabel 3.1.0, see https://openbabel.org
data_I
_chemical_name_common 'image0'
_cell_length_a 10.9204
_cell_length_b 10.9603
_cell_length_c 11.0587
_cell_angle_alpha 83.328
_cell_angle_beta 87.023
_cell_angle_gamma 70.33
_space_group_name_H-M_alt 'P 1'
_space_group_name_Hall 'P 1'
loop_
    _symmetry_equiv_pos_as_xyz
    x,y,z
loop_
    _atom_site_label
    _atom_site_type_symbol
    _atom_site_fract_x
    _atom_site_fract_y
    _atom_site_fract_z
    _atom_site_occupancy
    Co1      Co       0.09325    0.89520    0.25067    1.000
    Co2      Co       0.85082    0.01647    0.48239    1.000
    Co3      Co       0.97085    0.86353    0.00176    1.000
    N1       N        0.80030    0.93710    0.33480    1.000
    N2       N        0.88150    0.93130    0.23920    1.000
    N3       N        0.83470    0.90310    0.14120    1.000
    N4       N        0.07570    0.17800    0.16320    1.000
    N5       N        0.09400    0.08520    0.25710    1.000
    N6       N        0.11420    0.12560    0.36090    1.000
    C1       C        0.69620    0.91060    0.29680    1.000
    C2       C        0.71830    0.88870    0.17340    1.000
    C3       C        0.62590    0.86120    0.10680    1.000
    H1       H        0.63990    0.84720    0.02330    1.000
    C4       C        0.51570    0.85550    0.16700    1.000
    H2       H        0.45240    0.83600    0.12440    1.000
    C5       C        0.49250    0.87770    0.29110    1.000
    C6       C        0.58100    0.90430    0.35790    1.000
    H3       H        0.56580    0.91780    0.44150    1.000
    C7       C        0.36450    0.87460    0.34710    1.000
    C8       C        0.08630    0.28550    0.20990    1.000
    C9       C        0.10810    0.25170    0.33540    1.000
    C10      C        0.12110    0.34060    0.41140    1.000
    H4       H        0.13680    0.31710    0.49600    1.000
    C11      C        0.11000    0.46280    0.35770    1.000
    H5       H        0.11610    0.52590    0.40700    1.000
    C12      C        0.08960    0.49860    0.23050    1.000
    C13      C        0.07770    0.41020    0.15610    1.000
    H6       H        0.06420    0.43330    0.07110    1.000
    C14      C        0.08190    0.63400    0.18000    1.000
    O1       O        0.10090    0.92990    0.06600    1.000
    H7       H        0.18700    0.88300    0.04700    1.000
    O2       O        0.04570    0.90010    0.42960    1.000
    H8       H        0.04600    0.81900    0.46700    1.000
    O3       O        0.33760    0.90970    0.45380    1.000
    O4       O        0.29440    0.83570    0.28550    1.000
    O5       O        0.04710    0.67110    0.06980    1.000
    O6       O        0.10790    0.70200    0.25250    1.000
    Co4      Co       0.90675    0.10480    0.74933    1.000
    Co5      Co       0.14918    0.98353    0.51761    1.000
    Co6      Co       0.02915    0.13647    0.99824    1.000
    N7       N        0.19970    0.06290    0.66520    1.000
    N8       N        0.11850    0.06870    0.76080    1.000
    N9       N        0.16530    0.09690    0.85880    1.000
    N10      N        0.92430    0.82200    0.83680    1.000
    N11      N        0.90600    0.91480    0.74290    1.000
    N12      N        0.88580    0.87440    0.63910    1.000
    C15      C        0.30380    0.08940    0.70320    1.000
    C16      C        0.28170    0.11130    0.82660    1.000
    C17      C        0.37410    0.13880    0.89320    1.000
    H9       H        0.36010    0.15280    0.97670    1.000
    C18      C        0.48430    0.14450    0.83300    1.000
    H10      H        0.54760    0.16400    0.87560    1.000
    C19      C        0.50750    0.12230    0.70890    1.000
    C20      C        0.41900    0.09570    0.64210    1.000
    H11      H        0.43420    0.08220    0.55850    1.000
    C21      C        0.63550    0.12540    0.65290    1.000
    C22      C        0.91370    0.71450    0.79010    1.000
    C23      C        0.89190    0.74830    0.66460    1.000
    C24      C        0.87890    0.65940    0.58860    1.000
    H12      H        0.86320    0.68290    0.50400    1.000
    C25      C        0.89000    0.53720    0.64230    1.000
    H13      H        0.88390    0.47410    0.59300    1.000
    C26      C        0.91040    0.50140    0.76950    1.000
    C27      C        0.92230    0.58980    0.84390    1.000
    H14      H        0.93580    0.56670    0.92890    1.000
    C28      C        0.91810    0.36600    0.82000    1.000
    O7       O        0.89910    0.07010    0.93400    1.000
    H15      H        0.81300    0.11700    0.95300    1.000
    O8       O        0.95430    0.09990    0.57040    1.000
    H16      H        0.95400    0.18100    0.53300    1.000
    O9       O        0.66240    0.09030    0.54620    1.000
    O10      O        0.70560    0.16430    0.71450    1.000
    O11      O        0.95290    0.32890    0.93020    1.000
    O12      O        0.89210    0.29800    0.74750    1.000
