data_functionalizedCrystal
_audit_creation_method	'EQeq! by Chris Wilmer'
_symmetry_space_group_name_H-M	'P1'
_symmetry_Int_Tables_number	1
_symmetry_cell_setting	triclinic
loop_
_symmetry_equiv_pos_as_xyz
  x,y,z
_cell_length_a	22.9463
_cell_length_b	22.9463
_cell_length_c	15.7127
_cell_angle_alpha	90
_cell_angle_beta	90
_cell_angle_gamma	120
loop_
_atom_site_label
_atom_site_type_symbol
_atom_site_fract_x
_atom_site_fract_y
_atom_site_fract_z
_atom_site_charge
Mof_N 	N 	0.9684	0.31614	0.42636	-0.314
Mof_C 	C 	0.99362	0.35906	0.49122	0.083
Mof_H 	H 	0.98745	0.396	0.49624	-0.048
Mof_N 	N 	0.02858	0.34581	0.54906	-0.279
Mof_C 	C 	0.99028	0.27002	0.44103	0.047
Mof_C 	C 	0.97942	0.21404	0.39599	-0.115
Mof_H 	H 	0.955	0.20175	0.34557	0.043
Mof_C 	C 	0.00652	0.17741	0.42855	-0.018
Mof_H 	H 	0.0005	0.1396	0.39924	0.027
Mof_C 	C 	0.04331	0.19539	0.50597	-0.031
Mof_H 	H 	0.06106	0.16932	0.52603	0.035
Mof_C 	C 	0.02682	0.28797	0.51787	0.042
Mof_C 	C 	0.05324	0.25034	0.55151	-0.101
Mof_H 	H 	0.07663	0.2619	0.60283	0.039
Mof_N 	N 	0.92084	0.41597	0.35053	-0.272
Mof_C 	C 	0.93823	0.47654	0.32264	0.117
Mof_H 	H 	0.96441	0.49411	0.2741	-0.052
Mof_N 	N 	0.91688	0.5112	0.3664	-0.314
Mof_C 	C 	0.88027	0.46841	0.43132	0.064
Mof_C 	C 	0.84537	0.4768	0.50129	-0.127
Mof_H 	H 	0.84488	0.51668	0.50854	0.047
Mof_C 	C 	0.88211	0.41005	0.42302	0.007
Mof_C 	C 	0.84848	0.35486	0.48205	-0.081
Mof_H 	H 	0.85011	0.31538	0.47604	0.021
Mof_C 	C 	0.81287	0.42516	0.55696	-0.004
Mof_H 	H 	0.78946	0.43022	0.60198	0.023
Mof_C 	C 	0.81356	0.3639	0.54876	-0.051
Mof_H 	H 	0.79057	0.32954	0.58797	0.04
Mof_Zn	Zn	0.93335	0.33251	0.3271	1.176
Mof_N 	N 	0.63507	0.64947	0.75969	-0.314
Mof_C 	C 	0.66029	0.69239	0.82455	0.082
Mof_H 	H 	0.65412	0.72933	0.82957	-0.049
Mof_N 	N 	0.69525	0.67914	0.88239	-0.28
Mof_C 	C 	0.65695	0.60335	0.77436	0.045
Mof_C 	C 	0.64609	0.54737	0.72932	-0.115
Mof_H 	H 	0.62167	0.53508	0.6789	0.043
Mof_C 	C 	0.67319	0.51074	0.76188	-0.019
Mof_H 	H 	0.66717	0.47293	0.73257	0.028
Mof_C 	C 	0.70998	0.52872	0.8393	-0.03
Mof_H 	H 	0.72773	0.50265	0.85936	0.035
Mof_C 	C 	0.69349	0.6213	0.8512	0.042
Mof_C 	C 	0.71991	0.58367	0.88484	-0.102
Mof_H 	H 	0.7433	0.59523	0.93616	0.04
Mof_N 	N 	0.58751	0.7493	0.68386	-0.272
Mof_C 	C 	0.6049	0.80987	0.65597	0.117
Mof_H 	H 	0.63108	0.82744	0.60743	-0.052
Mof_N 	N 	0.58355	0.84453	0.69973	-0.314
Mof_C 	C 	0.54694	0.80174	0.76465	0.064
Mof_C 	C 	0.51204	0.81013	0.83462	-0.127
Mof_H 	H 	0.51155	0.85001	0.84187	0.047
Mof_C 	C 	0.54878	0.74338	0.75635	0.007
Mof_C 	C 	0.51515	0.68819	0.81538	-0.081
Mof_H 	H 	0.51678	0.64871	0.80937	0.021
Mof_C 	C 	0.47954	0.75849	0.89029	-0.004
Mof_H 	H 	0.45613	0.76355	0.93531	0.023
Mof_C 	C 	0.48023	0.69723	0.88209	-0.051
Mof_H 	H 	0.45724	0.66287	0.9213	0.04
Mof_Zn	Zn	0.60002	0.66584	0.66043	1.176
Mof_N 	N 	0.30173	0.98281	0.09303	-0.312
Mof_C 	C 	0.32695	0.02573	0.15789	0.08
Mof_H 	H 	0.32078	0.06267	0.16291	-0.048
Mof_N 	N 	0.36191	0.01248	0.21573	-0.281
Mof_C 	C 	0.32361	0.93669	0.1077	0.045
Mof_C 	C 	0.31275	0.88071	0.06266	-0.114
Mof_H 	H 	0.28833	0.86842	0.01224	0.044
Mof_C 	C 	0.33985	0.84408	0.09522	-0.019
Mof_H 	H 	0.33383	0.80627	0.06591	0.028
Mof_C 	C 	0.37664	0.86206	0.17264	-0.029
Mof_H 	H 	0.39439	0.83599	0.1927	0.035
Mof_C 	C 	0.36015	0.95464	0.18454	0.043
Mof_C 	C 	0.38657	0.91701	0.21818	-0.103
Mof_H 	H 	0.40996	0.92857	0.2695	0.04
Mof_N 	N 	0.25417	0.08264	0.0172	-0.273
Mof_C 	C 	0.27156	0.14321	0.98931	0.119
Mof_H 	H 	0.29774	0.16078	0.94077	-0.053
Mof_N 	N 	0.25021	0.17787	0.03307	-0.314
Mof_C 	C 	0.2136	0.13508	0.09799	0.064
Mof_C 	C 	0.1787	0.14347	0.16796	-0.128
Mof_H 	H 	0.17821	0.18335	0.17521	0.047
Mof_C 	C 	0.21544	0.07672	0.08969	0.008
Mof_C 	C 	0.18181	0.02153	0.14872	-0.084
Mof_H 	H 	0.18344	0.98205	0.14271	0.024
Mof_C 	C 	0.1462	0.09183	0.22363	-0.003
Mof_H 	H 	0.12279	0.09689	0.26865	0.023
Mof_C 	C 	0.14689	0.03057	0.21543	-0.052
Mof_H 	H 	0.1239	0.99621	0.25464	0.042
Mof_Zn	Zn	0.26668	0.99918	0.99377	1.175
Mof_N 	N 	0.68386	0.65226	0.42636	-0.314
Mof_C 	C 	0.64094	0.63456	0.49122	0.082
Mof_H 	H 	0.604	0.59145	0.49624	-0.049
Mof_N 	N 	0.65419	0.68277	0.54906	-0.28
Mof_C 	C 	0.72998	0.72026	0.44103	0.045
Mof_C 	C 	0.78596	0.76538	0.39599	-0.115
Mof_H 	H 	0.79825	0.75325	0.34557	0.043
Mof_C 	C 	0.82259	0.82911	0.42855	-0.019
Mof_H 	H 	0.8604	0.8609	0.39924	0.028
Mof_C 	C 	0.80461	0.84792	0.50597	-0.03
Mof_H 	H 	0.83068	0.89174	0.52603	0.035
Mof_C 	C 	0.71203	0.73885	0.51787	0.042
Mof_C 	C 	0.74966	0.8029	0.55151	-0.102
Mof_H 	H 	0.7381	0.81473	0.60283	0.039
Mof_N 	N 	0.58403	0.50487	0.35053	-0.272
Mof_C 	C 	0.52346	0.46169	0.32264	0.117
Mof_H 	H 	0.50589	0.4703	0.2741	-0.052
Mof_N 	N 	0.4888	0.40568	0.3664	-0.314
Mof_C 	C 	0.53159	0.41186	0.43132	0.064
Mof_C 	C 	0.5232	0.36857	0.50129	-0.127
Mof_H 	H 	0.48332	0.3282	0.50854	0.047
Mof_C 	C 	0.58995	0.47206	0.42302	0.007
Mof_C 	C 	0.64514	0.49362	0.48205	-0.081
Mof_H 	H 	0.68462	0.53473	0.47604	0.021
Mof_C 	C 	0.57484	0.38771	0.55696	-0.004
Mof_H 	H 	0.56978	0.35924	0.60198	0.023
Mof_C 	C 	0.6361	0.44966	0.54876	-0.051
Mof_H 	H 	0.67046	0.46103	0.58797	0.04
Mof_Zn	Zn	0.66749	0.60084	0.3271	1.176
Mof_N 	N 	0.35053	0.98559	0.75969	-0.315
Mof_C 	C 	0.30761	0.96789	0.82455	0.08
Mof_H 	H 	0.27067	0.92478	0.82957	-0.049
Mof_N 	N 	0.32086	0.0161	0.88239	-0.279
Mof_C 	C 	0.39665	0.05359	0.77436	0.047
Mof_C 	C 	0.45263	0.09871	0.72932	-0.116
Mof_H 	H 	0.46492	0.08658	0.6789	0.043
Mof_C 	C 	0.48926	0.16244	0.76188	-0.018
Mof_H 	H 	0.52707	0.19423	0.73257	0.027
Mof_C 	C 	0.47128	0.18125	0.8393	-0.031
Mof_H 	H 	0.49735	0.22507	0.85936	0.035
Mof_C 	C 	0.3787	0.07218	0.8512	0.042
Mof_C 	C 	0.41633	0.13623	0.88484	-0.101
Mof_H 	H 	0.40477	0.14806	0.93616	0.04
Mof_N 	N 	0.2507	0.8382	0.68386	-0.272
Mof_C 	C 	0.19013	0.79502	0.65597	0.117
Mof_H 	H 	0.17256	0.80363	0.60743	-0.052
Mof_N 	N 	0.15547	0.73901	0.69973	-0.314
Mof_C 	C 	0.19826	0.74519	0.76465	0.064
Mof_C 	C 	0.18987	0.7019	0.83462	-0.128
Mof_H 	H 	0.14999	0.66153	0.84187	0.047
Mof_C 	C 	0.25662	0.80539	0.75635	0.007
Mof_C 	C 	0.31181	0.82695	0.81538	-0.082
Mof_H 	H 	0.35129	0.86806	0.80937	0.021
Mof_C 	C 	0.24151	0.72104	0.89029	-0.004
Mof_H 	H 	0.23645	0.69257	0.93531	0.023
Mof_C 	C 	0.30277	0.78299	0.88209	-0.051
Mof_H 	H 	0.33713	0.79436	0.9213	0.04
Mof_Zn	Zn	0.33416	0.93417	0.66043	1.176
Mof_N 	N 	0.01719	0.31893	0.09303	-0.313
Mof_C 	C 	0.97427	0.30123	0.15789	0.08
Mof_H 	H 	0.93733	0.25812	0.16291	-0.049
Mof_N 	N 	0.98752	0.34944	0.21573	-0.281
Mof_C 	C 	0.06331	0.38693	0.1077	0.045
Mof_C 	C 	0.11929	0.43205	0.06266	-0.114
Mof_H 	H 	0.13158	0.41992	0.01224	0.043
Mof_C 	C 	0.15592	0.49578	0.09522	-0.019
Mof_H 	H 	0.19373	0.52757	0.06591	0.028
Mof_C 	C 	0.13794	0.51459	0.17264	-0.029
Mof_H 	H 	0.16401	0.55841	0.1927	0.035
Mof_C 	C 	0.04536	0.40552	0.18454	0.043
Mof_C 	C 	0.08299	0.46957	0.21818	-0.103
Mof_H 	H 	0.07143	0.4814	0.2695	0.04
Mof_N 	N 	0.91736	0.17154	0.0172	-0.276
Mof_C 	C 	0.85679	0.12836	0.98931	0.126
Mof_H 	H 	0.83922	0.13697	0.94077	-0.054
Mof_N 	N 	0.82213	0.07235	0.03307	-0.317
Mof_C 	C 	0.86492	0.07853	0.09799	0.066
Mof_C 	C 	0.85653	0.03524	0.16796	-0.133
Mof_H 	H 	0.81665	0.99487	0.17521	0.05
Mof_C 	C 	0.92328	0.13873	0.08969	0.007
Mof_C 	C 	0.97847	0.16029	0.14872	-0.083
Mof_H 	H 	0.01795	0.2014	0.14271	0.023
Mof_C 	C 	0.90817	0.05438	0.22363	0
Mof_H 	H 	0.90311	0.02591	0.26865	0.021
Mof_C 	C 	0.96943	0.11633	0.21543	-0.054
Mof_H 	H 	0.00379	0.1277	0.25464	0.042
Mof_Zn	Zn	0.00082	0.26751	0.99377	1.175
Mof_N 	N 	0.34774	0.0316	0.42636	-0.315
Mof_C 	C 	0.36544	0.00638	0.49122	0.082
Mof_H 	H 	0.40855	0.01255	0.49624	-0.049
Mof_N 	N 	0.31723	0.97142	0.54906	-0.28
Mof_C 	C 	0.27974	0.00972	0.44103	0.045
Mof_C 	C 	0.23462	0.02058	0.39599	-0.116
Mof_H 	H 	0.24675	0.045	0.34557	0.043
Mof_C 	C 	0.17089	0.99348	0.42855	-0.018
Mof_H 	H 	0.1391	0.9995	0.39924	0.028
Mof_C 	C 	0.15208	0.95669	0.50597	-0.031
Mof_H 	H 	0.10826	0.93894	0.52603	0.035
Mof_C 	C 	0.26115	0.97318	0.51787	0.042
Mof_C 	C 	0.1971	0.94676	0.55151	-0.101
Mof_H 	H 	0.18527	0.92337	0.60283	0.039
Mof_N 	N 	0.49513	0.07916	0.35053	-0.272
Mof_C 	C 	0.53831	0.06177	0.32264	0.117
Mof_H 	H 	0.5297	0.03559	0.2741	-0.053
Mof_N 	N 	0.59432	0.08312	0.3664	-0.314
Mof_C 	C 	0.58814	0.11973	0.43132	0.064
Mof_C 	C 	0.63143	0.15463	0.50129	-0.127
Mof_H 	H 	0.6718	0.15512	0.50854	0.047
Mof_C 	C 	0.52794	0.11789	0.42302	0.007
Mof_C 	C 	0.50638	0.15152	0.48205	-0.081
Mof_H 	H 	0.46527	0.14989	0.47604	0.021
Mof_C 	C 	0.61229	0.18713	0.55696	-0.004
Mof_H 	H 	0.64076	0.21054	0.60198	0.023
Mof_C 	C 	0.55034	0.18644	0.54876	-0.051
Mof_H 	H 	0.53897	0.20943	0.58797	0.04
Mof_Zn	Zn	0.39916	0.06665	0.3271	1.175
Mof_N 	N 	0.01441	0.36493	0.75969	-0.315
Mof_C 	C 	0.03211	0.33971	0.82455	0.08
Mof_H 	H 	0.07522	0.34588	0.82957	-0.049
Mof_N 	N 	0.9839	0.30475	0.88239	-0.278
Mof_C 	C 	0.94641	0.34305	0.77436	0.047
Mof_C 	C 	0.90129	0.35391	0.72932	-0.116
Mof_H 	H 	0.91342	0.37833	0.6789	0.043
Mof_C 	C 	0.83756	0.32681	0.76188	-0.018
Mof_H 	H 	0.80577	0.33283	0.73257	0.028
Mof_C 	C 	0.81875	0.29002	0.8393	-0.03
Mof_H 	H 	0.77493	0.27227	0.85936	0.035
Mof_C 	C 	0.92782	0.30651	0.8512	0.042
Mof_C 	C 	0.86377	0.28009	0.88484	-0.101
Mof_H 	H 	0.85194	0.2567	0.93616	0.04
Mof_N 	N 	0.1618	0.41249	0.68386	-0.272
Mof_C 	C 	0.20498	0.3951	0.65597	0.117
Mof_H 	H 	0.19637	0.36892	0.60743	-0.052
Mof_N 	N 	0.26099	0.41645	0.69973	-0.314
Mof_C 	C 	0.25481	0.45306	0.76465	0.064
Mof_C 	C 	0.2981	0.48796	0.83462	-0.127
Mof_H 	H 	0.33847	0.48845	0.84187	0.047
Mof_C 	C 	0.19461	0.45122	0.75635	0.007
Mof_C 	C 	0.17305	0.48485	0.81538	-0.081
Mof_H 	H 	0.13194	0.48322	0.80937	0.021
Mof_C 	C 	0.27896	0.52046	0.89029	-0.004
Mof_H 	H 	0.30743	0.54387	0.93531	0.023
Mof_C 	C 	0.21701	0.51977	0.88209	-0.051
Mof_H 	H 	0.20564	0.54276	0.9213	0.04
Mof_Zn	Zn	0.06583	0.39998	0.66043	1.176
Mof_N 	N 	0.68107	0.69827	0.09303	-0.314
Mof_C 	C 	0.69877	0.67305	0.15789	0.082
Mof_H 	H 	0.74188	0.67922	0.16291	-0.049
Mof_N 	N 	0.65056	0.63809	0.21573	-0.28
Mof_C 	C 	0.61307	0.67639	0.1077	0.045
Mof_C 	C 	0.56795	0.68725	0.06266	-0.115
Mof_H 	H 	0.58008	0.71167	0.01224	0.043
Mof_C 	C 	0.50422	0.66015	0.09522	-0.019
Mof_H 	H 	0.47243	0.66617	0.06591	0.028
Mof_C 	C 	0.48541	0.62336	0.17264	-0.03
Mof_H 	H 	0.44159	0.60561	0.1927	0.035
Mof_C 	C 	0.59448	0.63985	0.18454	0.042
Mof_C 	C 	0.53043	0.61343	0.21818	-0.102
Mof_H 	H 	0.5186	0.59004	0.2695	0.039
Mof_N 	N 	0.82846	0.74583	0.0172	-0.272
Mof_C 	C 	0.87164	0.72844	0.98931	0.119
Mof_H 	H 	0.86303	0.70226	0.94077	-0.053
Mof_N 	N 	0.92765	0.74979	0.03307	-0.315
Mof_C 	C 	0.92147	0.7864	0.09799	0.066
Mof_C 	C 	0.96476	0.8213	0.16796	-0.133
Mof_H 	H 	0.00513	0.82179	0.17521	0.051
Mof_C 	C 	0.86127	0.78456	0.08969	0.006
Mof_C 	C 	0.83971	0.81819	0.14872	-0.079
Mof_H 	H 	0.7986	0.81656	0.14271	0.021
Mof_C 	C 	0.94562	0.8538	0.22363	0
Mof_H 	H 	0.97409	0.87721	0.26865	0.022
Mof_C 	C 	0.88367	0.85311	0.21543	-0.053
Mof_H 	H 	0.8723	0.8761	0.25464	0.041
Mof_Zn	Zn	0.73249	0.73332	0.99377	1.176
Mof_N 	N 	0.0316	0.68386	0.57364	-0.315
Mof_C 	C 	0.00638	0.64094	0.50878	0.082
Mof_H 	H 	0.01255	0.604	0.50376	-0.049
Mof_N 	N 	0.97142	0.65419	0.45094	-0.28
Mof_C 	C 	0.00972	0.72998	0.55897	0.046
Mof_C 	C 	0.02058	0.78596	0.60401	-0.116
Mof_H 	H 	0.045	0.79825	0.65443	0.043
Mof_C 	C 	0.99348	0.82259	0.57145	-0.018
Mof_H 	H 	0.9995	0.8604	0.60076	0.027
Mof_C 	C 	0.95669	0.80461	0.49403	-0.031
Mof_H 	H 	0.93894	0.83068	0.47397	0.035
Mof_C 	C 	0.97318	0.71203	0.48213	0.042
Mof_C 	C 	0.94676	0.74966	0.44849	-0.101
Mof_H 	H 	0.92337	0.7381	0.39717	0.039
Mof_N 	N 	0.07916	0.58403	0.64947	-0.272
Mof_C 	C 	0.06177	0.52346	0.67736	0.117
Mof_H 	H 	0.03559	0.50589	0.7259	-0.052
Mof_N 	N 	0.08312	0.4888	0.6336	-0.314
Mof_C 	C 	0.11973	0.53159	0.56868	0.064
Mof_C 	C 	0.15463	0.5232	0.49871	-0.127
Mof_H 	H 	0.15512	0.48332	0.49146	0.047
Mof_C 	C 	0.11789	0.58995	0.57698	0.007
Mof_C 	C 	0.15152	0.64514	0.51795	-0.081
Mof_H 	H 	0.14989	0.68462	0.52396	0.021
Mof_C 	C 	0.18713	0.57484	0.44304	-0.004
Mof_H 	H 	0.21054	0.56978	0.39802	0.023
Mof_C 	C 	0.18644	0.6361	0.45124	-0.051
Mof_H 	H 	0.20943	0.67046	0.41203	0.04
Mof_Zn	Zn	0.06665	0.66749	0.6729	1.176
Mof_N 	N 	0.69827	0.01719	0.90697	-0.312
Mof_C 	C 	0.67305	0.97427	0.84211	0.08
Mof_H 	H 	0.67922	0.93733	0.83709	-0.048
Mof_N 	N 	0.63809	0.98752	0.78427	-0.281
Mof_C 	C 	0.67639	0.06331	0.8923	0.045
Mof_C 	C 	0.68725	0.11929	0.93734	-0.114
Mof_H 	H 	0.71167	0.13158	0.98776	0.044
Mof_C 	C 	0.66015	0.15592	0.90478	-0.019
Mof_H 	H 	0.66617	0.19373	0.93409	0.028
Mof_C 	C 	0.62336	0.13794	0.82736	-0.029
Mof_H 	H 	0.60561	0.16401	0.8073	0.035
Mof_C 	C 	0.63985	0.04536	0.81546	0.043
Mof_C 	C 	0.61343	0.08299	0.78182	-0.103
Mof_H 	H 	0.59004	0.07143	0.7305	0.04
Mof_N 	N 	0.74583	0.91736	0.9828	-0.273
Mof_C 	C 	0.72844	0.85679	0.01069	0.119
Mof_H 	H 	0.70226	0.83922	0.05923	-0.053
Mof_N 	N 	0.74979	0.82213	0.96693	-0.314
Mof_C 	C 	0.7864	0.86492	0.90201	0.064
Mof_C 	C 	0.8213	0.85653	0.83204	-0.128
Mof_H 	H 	0.82179	0.81665	0.82479	0.047
Mof_C 	C 	0.78456	0.92328	0.91031	0.008
Mof_C 	C 	0.81819	0.97847	0.85128	-0.084
Mof_H 	H 	0.81656	0.01795	0.85729	0.024
Mof_C 	C 	0.8538	0.90817	0.77637	-0.003
Mof_H 	H 	0.87721	0.90311	0.73135	0.023
Mof_C 	C 	0.85311	0.96943	0.78457	-0.052
Mof_H 	H 	0.8761	0.00379	0.74536	0.042
Mof_Zn	Zn	0.73332	0.00082	0.00623	1.175
Mof_N 	N 	0.36493	0.35053	0.24031	-0.314
Mof_C 	C 	0.33971	0.30761	0.17545	0.082
Mof_H 	H 	0.34588	0.27067	0.17043	-0.049
Mof_N 	N 	0.30475	0.32086	0.11761	-0.28
Mof_C 	C 	0.34305	0.39665	0.22564	0.045
Mof_C 	C 	0.35391	0.45263	0.27068	-0.115
Mof_H 	H 	0.37833	0.46492	0.3211	0.043
Mof_C 	C 	0.32681	0.48926	0.23812	-0.019
Mof_H 	H 	0.33283	0.52707	0.26743	0.028
Mof_C 	C 	0.29002	0.47128	0.1607	-0.03
Mof_H 	H 	0.27227	0.49735	0.14064	0.035
Mof_C 	C 	0.30651	0.3787	0.1488	0.042
Mof_C 	C 	0.28009	0.41633	0.11516	-0.102
Mof_H 	H 	0.2567	0.40477	0.06384	0.04
Mof_N 	N 	0.41249	0.2507	0.31614	-0.272
Mof_C 	C 	0.3951	0.19013	0.34403	0.117
Mof_H 	H 	0.36892	0.17256	0.39257	-0.052
Mof_N 	N 	0.41645	0.15547	0.30027	-0.314
Mof_C 	C 	0.45306	0.19826	0.23535	0.064
Mof_C 	C 	0.48796	0.18987	0.16538	-0.127
Mof_H 	H 	0.48845	0.14999	0.15813	0.047
Mof_C 	C 	0.45122	0.25662	0.24365	0.007
Mof_C 	C 	0.48485	0.31181	0.18462	-0.081
Mof_H 	H 	0.48322	0.35129	0.19063	0.021
Mof_C 	C 	0.52046	0.24151	0.10971	-0.004
Mof_H 	H 	0.54387	0.23645	0.06469	0.023
Mof_C 	C 	0.51977	0.30277	0.11791	-0.051
Mof_H 	H 	0.54276	0.33713	0.0787	0.04
Mof_Zn	Zn	0.39998	0.33416	0.33957	1.176
Mof_N 	N 	0.31614	0.34774	0.57364	-0.314
Mof_C 	C 	0.35906	0.36544	0.50878	0.082
Mof_H 	H 	0.396	0.40855	0.50376	-0.049
Mof_N 	N 	0.34581	0.31723	0.45094	-0.28
Mof_C 	C 	0.27002	0.27974	0.55897	0.045
Mof_C 	C 	0.21404	0.23462	0.60401	-0.115
Mof_H 	H 	0.20175	0.24675	0.65443	0.043
Mof_C 	C 	0.17741	0.17089	0.57145	-0.019
Mof_H 	H 	0.1396	0.1391	0.60076	0.028
Mof_C 	C 	0.19539	0.15208	0.49403	-0.03
Mof_H 	H 	0.16932	0.10826	0.47397	0.035
Mof_C 	C 	0.28797	0.26115	0.48213	0.042
Mof_C 	C 	0.25034	0.1971	0.44849	-0.102
Mof_H 	H 	0.2619	0.18527	0.39717	0.039
Mof_N 	N 	0.41597	0.49513	0.64947	-0.272
Mof_C 	C 	0.47654	0.53831	0.67736	0.117
Mof_H 	H 	0.49411	0.5297	0.7259	-0.052
Mof_N 	N 	0.5112	0.59432	0.6336	-0.314
Mof_C 	C 	0.46841	0.58814	0.56868	0.064
Mof_C 	C 	0.4768	0.63143	0.49871	-0.127
Mof_H 	H 	0.51668	0.6718	0.49146	0.047
Mof_C 	C 	0.41005	0.52794	0.57698	0.007
Mof_C 	C 	0.35486	0.50638	0.51795	-0.081
Mof_H 	H 	0.31538	0.46527	0.52396	0.021
Mof_C 	C 	0.42516	0.61229	0.44304	-0.004
Mof_H 	H 	0.43022	0.64076	0.39802	0.023
Mof_C 	C 	0.3639	0.55034	0.45124	-0.051
Mof_H 	H 	0.32954	0.53897	0.41203	0.04
Mof_Zn	Zn	0.33251	0.39916	0.6729	1.176
Mof_N 	N 	0.98281	0.68107	0.90697	-0.313
Mof_C 	C 	0.02573	0.69877	0.84211	0.08
Mof_H 	H 	0.06267	0.74188	0.83709	-0.049
Mof_N 	N 	0.01248	0.65056	0.78427	-0.281
Mof_C 	C 	0.93669	0.61307	0.8923	0.045
Mof_C 	C 	0.88071	0.56795	0.93734	-0.114
Mof_H 	H 	0.86842	0.58008	0.98776	0.043
Mof_C 	C 	0.84408	0.50422	0.90478	-0.019
Mof_H 	H 	0.80627	0.47243	0.93409	0.028
Mof_C 	C 	0.86206	0.48541	0.82736	-0.029
Mof_H 	H 	0.83599	0.44159	0.8073	0.035
Mof_C 	C 	0.95464	0.59448	0.81546	0.043
Mof_C 	C 	0.91701	0.53043	0.78182	-0.103
Mof_H 	H 	0.92857	0.5186	0.7305	0.04
Mof_N 	N 	0.08264	0.82846	0.9828	-0.276
Mof_C 	C 	0.14321	0.87164	0.01069	0.126
Mof_H 	H 	0.16078	0.86303	0.05923	-0.054
Mof_N 	N 	0.17787	0.92765	0.96693	-0.317
Mof_C 	C 	0.13508	0.92147	0.90201	0.066
Mof_C 	C 	0.14347	0.96476	0.83204	-0.133
Mof_H 	H 	0.18335	0.00513	0.82479	0.05
Mof_C 	C 	0.07672	0.86127	0.91031	0.007
Mof_C 	C 	0.02153	0.83971	0.85128	-0.083
Mof_H 	H 	0.98205	0.7986	0.85729	0.023
Mof_C 	C 	0.09183	0.94562	0.77637	0
Mof_H 	H 	0.09689	0.97409	0.73135	0.021
Mof_C 	C 	0.03057	0.88367	0.78457	-0.054
Mof_H 	H 	0.99621	0.8723	0.74536	0.042
Mof_Zn	Zn	0.99918	0.73249	0.00623	1.175
Mof_N 	N 	0.64947	0.01441	0.24031	-0.315
Mof_C 	C 	0.69239	0.03211	0.17545	0.08
Mof_H 	H 	0.72933	0.07522	0.17043	-0.049
Mof_N 	N 	0.67914	0.9839	0.11761	-0.279
Mof_C 	C 	0.60335	0.94641	0.22564	0.047
Mof_C 	C 	0.54737	0.90129	0.27068	-0.116
Mof_H 	H 	0.53508	0.91342	0.3211	0.043
Mof_C 	C 	0.51074	0.83756	0.23812	-0.018
Mof_H 	H 	0.47293	0.80577	0.26743	0.027
Mof_C 	C 	0.52872	0.81875	0.1607	-0.031
Mof_H 	H 	0.50265	0.77493	0.14064	0.035
Mof_C 	C 	0.6213	0.92782	0.1488	0.042
Mof_C 	C 	0.58367	0.86377	0.11516	-0.101
Mof_H 	H 	0.59523	0.85194	0.06384	0.04
Mof_N 	N 	0.7493	0.1618	0.31614	-0.272
Mof_C 	C 	0.80987	0.20498	0.34403	0.117
Mof_H 	H 	0.82744	0.19637	0.39257	-0.052
Mof_N 	N 	0.84453	0.26099	0.30027	-0.314
Mof_C 	C 	0.80174	0.25481	0.23535	0.064
Mof_C 	C 	0.81013	0.2981	0.16538	-0.128
Mof_H 	H 	0.85001	0.33847	0.15813	0.047
Mof_C 	C 	0.74338	0.19461	0.24365	0.007
Mof_C 	C 	0.68819	0.17305	0.18462	-0.082
Mof_H 	H 	0.64871	0.13194	0.19063	0.021
Mof_C 	C 	0.75849	0.27896	0.10971	-0.004
Mof_H 	H 	0.76355	0.30743	0.06469	0.023
Mof_C 	C 	0.69723	0.21701	0.11791	-0.051
Mof_H 	H 	0.66287	0.20564	0.0787	0.04
Mof_Zn	Zn	0.66584	0.06583	0.33957	1.176
Mof_N 	N 	0.65226	0.9684	0.57364	-0.315
Mof_C 	C 	0.63456	0.99362	0.50878	0.082
Mof_H 	H 	0.59145	0.98745	0.50376	-0.049
Mof_N 	N 	0.68277	0.02858	0.45094	-0.28
Mof_C 	C 	0.72026	0.99028	0.55897	0.045
Mof_C 	C 	0.76538	0.97942	0.60401	-0.116
Mof_H 	H 	0.75325	0.955	0.65443	0.043
Mof_C 	C 	0.82911	0.00652	0.57145	-0.018
Mof_H 	H 	0.8609	0.0005	0.60076	0.028
Mof_C 	C 	0.84792	0.04331	0.49403	-0.031
Mof_H 	H 	0.89174	0.06106	0.47397	0.035
Mof_C 	C 	0.73885	0.02682	0.48213	0.042
Mof_C 	C 	0.8029	0.05324	0.44849	-0.101
Mof_H 	H 	0.81473	0.07663	0.39717	0.039
Mof_N 	N 	0.50487	0.92084	0.64947	-0.272
Mof_C 	C 	0.46169	0.93823	0.67736	0.117
Mof_H 	H 	0.4703	0.96441	0.7259	-0.053
Mof_N 	N 	0.40568	0.91688	0.6336	-0.314
Mof_C 	C 	0.41186	0.88027	0.56868	0.064
Mof_C 	C 	0.36857	0.84537	0.49871	-0.127
Mof_H 	H 	0.3282	0.84488	0.49146	0.047
Mof_C 	C 	0.47206	0.88211	0.57698	0.007
Mof_C 	C 	0.49362	0.84848	0.51795	-0.081
Mof_H 	H 	0.53473	0.85011	0.52396	0.021
Mof_C 	C 	0.38771	0.81287	0.44304	-0.004
Mof_H 	H 	0.35924	0.78946	0.39802	0.023
Mof_C 	C 	0.44966	0.81356	0.45124	-0.051
Mof_H 	H 	0.46103	0.79057	0.41203	0.04
Mof_Zn	Zn	0.60084	0.93335	0.6729	1.175
Mof_N 	N 	0.31893	0.30173	0.90697	-0.314
Mof_C 	C 	0.30123	0.32695	0.84211	0.082
Mof_H 	H 	0.25812	0.32078	0.83709	-0.049
Mof_N 	N 	0.34944	0.36191	0.78427	-0.28
Mof_C 	C 	0.38693	0.32361	0.8923	0.045
Mof_C 	C 	0.43205	0.31275	0.93734	-0.115
Mof_H 	H 	0.41992	0.28833	0.98776	0.043
Mof_C 	C 	0.49578	0.33985	0.90478	-0.019
Mof_H 	H 	0.52757	0.33383	0.93409	0.028
Mof_C 	C 	0.51459	0.37664	0.82736	-0.03
Mof_H 	H 	0.55841	0.39439	0.8073	0.035
Mof_C 	C 	0.40552	0.36015	0.81546	0.042
Mof_C 	C 	0.46957	0.38657	0.78182	-0.102
Mof_H 	H 	0.4814	0.40996	0.7305	0.039
Mof_N 	N 	0.17154	0.25417	0.9828	-0.272
Mof_C 	C 	0.12836	0.27156	0.01069	0.119
Mof_H 	H 	0.13697	0.29774	0.05923	-0.053
Mof_N 	N 	0.07235	0.25021	0.96693	-0.315
Mof_C 	C 	0.07853	0.2136	0.90201	0.066
Mof_C 	C 	0.03524	0.1787	0.83204	-0.133
Mof_H 	H 	0.99487	0.17821	0.82479	0.051
Mof_C 	C 	0.13873	0.21544	0.91031	0.006
Mof_C 	C 	0.16029	0.18181	0.85128	-0.079
Mof_H 	H 	0.2014	0.18344	0.85729	0.021
Mof_C 	C 	0.05438	0.1462	0.77637	0
Mof_H 	H 	0.02591	0.12279	0.73135	0.022
Mof_C 	C 	0.11633	0.14689	0.78457	-0.053
Mof_H 	H 	0.1277	0.1239	0.74536	0.041
Mof_Zn	Zn	0.26751	0.26668	0.00623	1.176
Mof_N 	N 	0.98559	0.63507	0.24031	-0.315
Mof_C 	C 	0.96789	0.66029	0.17545	0.08
Mof_H 	H 	0.92478	0.65412	0.17043	-0.049
Mof_N 	N 	0.0161	0.69525	0.11761	-0.278
Mof_C 	C 	0.05359	0.65695	0.22564	0.047
Mof_C 	C 	0.09871	0.64609	0.27068	-0.116
Mof_H 	H 	0.08658	0.62167	0.3211	0.043
Mof_C 	C 	0.16244	0.67319	0.23812	-0.018
Mof_H 	H 	0.19423	0.66717	0.26743	0.028
Mof_C 	C 	0.18125	0.70998	0.1607	-0.03
Mof_H 	H 	0.22507	0.72773	0.14064	0.035
Mof_C 	C 	0.07218	0.69349	0.1488	0.042
Mof_C 	C 	0.13623	0.71991	0.11516	-0.101
Mof_H 	H 	0.14806	0.7433	0.06384	0.04
Mof_N 	N 	0.8382	0.58751	0.31614	-0.272
Mof_C 	C 	0.79502	0.6049	0.34403	0.117
Mof_H 	H 	0.80363	0.63108	0.39257	-0.052
Mof_N 	N 	0.73901	0.58355	0.30027	-0.314
Mof_C 	C 	0.74519	0.54694	0.23535	0.064
Mof_C 	C 	0.7019	0.51204	0.16538	-0.127
Mof_H 	H 	0.66153	0.51155	0.15813	0.047
Mof_C 	C 	0.80539	0.54878	0.24365	0.007
Mof_C 	C 	0.82695	0.51515	0.18462	-0.081
Mof_H 	H 	0.86806	0.51678	0.19063	0.021
Mof_C 	C 	0.72104	0.47954	0.10971	-0.004
Mof_H 	H 	0.69257	0.45613	0.06469	0.023
Mof_C 	C 	0.78299	0.48023	0.11791	-0.051
Mof_H 	H 	0.79436	0.45724	0.0787	0.04
Mof_Zn	Zn	0.93417	0.60002	0.33957	1.176
_end
