# CIF file generated by openbabel 3.1.0, see https://openbabel.org
data_I
_chemical_name_common 'image0'
_cell_length_a 11.3407
_cell_length_b 11.3847
_cell_length_c 13.1908
_cell_angle_alpha 88.868
_cell_angle_beta 69.339
_cell_angle_gamma 85.726
_space_group_name_H-M_alt 'P 1'
_space_group_name_Hall 'P 1'
loop_
    _symmetry_equiv_pos_as_xyz
    x,y,z
loop_
    _atom_site_label
    _atom_site_type_symbol
    _atom_site_fract_x
    _atom_site_fract_y
    _atom_site_fract_z
    _atom_site_occupancy
    Co1      Co       0.99062    0.11658    0.25175    1.000
    O1       O        0.04550    0.97680    0.33300    1.000
    N1       N        0.12310    0.88690    0.27700    1.000
    C1       C        0.24780    0.88650    0.26120    1.000
    H1       H        0.28030    0.94690    0.29020    1.000
    C2       C        0.32600    0.79370    0.20070    1.000
    H2       H        0.41400    0.79160    0.18790    1.000
    C3       C        0.28170    0.70670    0.15970    1.000
    H3       H        0.33750    0.64420    0.11910    1.000
    C4       C        0.15290    0.70950    0.17740    1.000
    H4       H        0.12040    0.64850    0.14920    1.000
    C5       C        0.07160    0.80180    0.23660    1.000
    C6       C        0.93190    0.80650    0.26410    1.000
    C7       C        0.86270    0.71970    0.32270    1.000
    H5       H        0.90100    0.65800    0.35270    1.000
    C8       C        0.73460    0.72280    0.33810    1.000
    H6       H        0.68430    0.66240    0.37750    1.000
    C9       C        0.68290    0.81340    0.29600    1.000
    H7       H        0.59530    0.81790    0.30660    1.000
    C10      C        0.75840    0.89990    0.23720    1.000
    H8       H        0.72270    0.96280    0.20640    1.000
    N2       N        0.87840    0.89510    0.22420    1.000
    O2       O        0.94850    0.98000    0.16780    1.000
    O3       O        0.99870    0.81780    0.00110    1.000
    C11      C        0.03330    0.74120    0.92800    1.000
    O4       O        0.08460    0.75930    0.82770    1.000
    C12      C        0.01780    0.61550    0.96430    1.000
    C13      C        0.08490    0.52260    0.89750    1.000
    H9       H        0.14340    0.53720    0.82720    1.000
    C14      C        0.93420    0.59230    0.06560    1.000
    H10      H        0.88840    0.65600    0.11150    1.000
    O5       O        0.81650    0.00700    0.00960    1.000
    C15      C        0.77130    0.95780    0.94930    1.000
    O6       O        0.82860    0.89340    0.86840    1.000
    C16      C        0.63060    0.97700    0.97730    1.000
    C17      C        0.55870    0.05620    0.05970    1.000
    H11      H        0.59880    0.09490    0.10050    1.000
    C18      C        0.56900    0.92100    0.91750    1.000
    H12      H        0.61610    0.86720    0.86110    1.000
    O7       O        0.05100    0.24130    0.32550    1.000
    C19      C        0.01390    0.25940    0.42810    1.000
    O8       O        0.98490    0.18310    0.49950    1.000
    C20      C        0.00650    0.38540    0.46390    1.000
    C21      C        0.08470    0.46500    0.39850    1.000
    H13      H        0.14160    0.44200    0.32840    1.000
    C22      C        0.07970    0.57980    0.43610    1.000
    H14      H        0.13570    0.63410    0.39270    1.000
    O9       O        0.81410    0.00330    0.51510    1.000
    C23      C        0.75880    0.05060    0.45410    1.000
    O10      O        0.81210    0.11100    0.37050    1.000
    C24      C        0.62310    0.02730    0.48030    1.000
    C25      C        0.55490    0.08440    0.42460    1.000
    H15      H        0.59230    0.14250    0.37300    1.000
    C26      C        0.56930    0.94170    0.55700    1.000
    H16      H        0.61650    0.90210    0.59600    1.000
    Co2      Co       0.00938    0.88342    0.74825    1.000
    O11      O        0.95450    0.02320    0.66700    1.000
    N3       N        0.87690    0.11310    0.72300    1.000
    C27      C        0.75220    0.11350    0.73880    1.000
    H17      H        0.71970    0.05310    0.70980    1.000
    C28      C        0.67400    0.20630    0.79930    1.000
    H18      H        0.58600    0.20840    0.81210    1.000
    C29      C        0.71830    0.29330    0.84030    1.000
    H19      H        0.66250    0.35580    0.88090    1.000
    C30      C        0.84710    0.29050    0.82260    1.000
    H20      H        0.87960    0.35150    0.85080    1.000
    C31      C        0.92840    0.19820    0.76340    1.000
    C32      C        0.06810    0.19350    0.73590    1.000
    C33      C        0.13730    0.28030    0.67730    1.000
    H21      H        0.09900    0.34200    0.64730    1.000
    C34      C        0.26540    0.27720    0.66190    1.000
    H22      H        0.31570    0.33760    0.62250    1.000
    C35      C        0.31710    0.18660    0.70400    1.000
    H23      H        0.40470    0.18210    0.69340    1.000
    C36      C        0.24160    0.10010    0.76280    1.000
    H24      H        0.27730    0.03720    0.79360    1.000
    N4       N        0.12160    0.10490    0.77580    1.000
    O12      O        0.05150    0.02000    0.83220    1.000
    O13      O        0.00130    0.18220    0.99890    1.000
    C37      C        0.96670    0.25880    0.07200    1.000
    O14      O        0.91540    0.24070    0.17230    1.000
    C38      C        0.98220    0.38450    0.03570    1.000
    C39      C        0.91510    0.47740    0.10250    1.000
    H25      H        0.85660    0.46280    0.17280    1.000
    C40      C        0.06580    0.40770    0.93440    1.000
    H26      H        0.11160    0.34400    0.88850    1.000
    O15      O        0.18350    0.99300    0.99040    1.000
    C41      C        0.22870    0.04220    0.05070    1.000
    O16      O        0.17140    0.10660    0.13160    1.000
    C42      C        0.36940    0.02300    0.02270    1.000
    C43      C        0.44130    0.94380    0.94030    1.000
    H27      H        0.40120    0.90510    0.89950    1.000
    C44      C        0.43100    0.07900    0.08250    1.000
    H28      H        0.38390    0.13280    0.13890    1.000
    O17      O        0.94900    0.75870    0.67450    1.000
    C45      C        0.98610    0.74060    0.57190    1.000
    O18      O        0.01510    0.81690    0.50050    1.000
    C46      C        0.99350    0.61460    0.53610    1.000
    C47      C        0.91530    0.53500    0.60150    1.000
    H29      H        0.85840    0.55800    0.67160    1.000
    C48      C        0.92030    0.42020    0.56390    1.000
    H30      H        0.86430    0.36590    0.60730    1.000
    O19      O        0.18590    0.99670    0.48490    1.000
    C49      C        0.24120    0.94940    0.54590    1.000
    O20      O        0.18790    0.88900    0.62950    1.000
    C50      C        0.37690    0.97270    0.51970    1.000
    C51      C        0.44510    0.91560    0.57540    1.000
    H31      H        0.40770    0.85750    0.62700    1.000
    C52      C        0.43070    0.05830    0.44300    1.000
    H32      H        0.38350    0.09790    0.40400    1.000
    Co3      Co       0.00000    0.00000    0.50000    1.000
    Co4      Co       0.00000    0.00000    0.00000    1.000
