# CIF file generated by openbabel 3.1.0, see https://openbabel.org
data_I
_chemical_name_common 'image0'
_cell_length_a 10.051
_cell_length_b 17.77
_cell_length_c 17.9534
_cell_angle_alpha 67.25
_cell_angle_beta 74.928
_cell_angle_gamma 81.569
_space_group_name_H-M_alt 'P 1'
_space_group_name_Hall 'P 1'
loop_
    _symmetry_equiv_pos_as_xyz
    x,y,z
loop_
    _atom_site_label
    _atom_site_type_symbol
    _atom_site_fract_x
    _atom_site_fract_y
    _atom_site_fract_z
    _atom_site_occupancy
    Co1      Co       0.70228    0.43109    0.48700    1.000
    C1       C        0.94330    0.36698    0.48834    1.000
    C2       C        0.08690    0.33172    0.49231    1.000
    C3       C        0.13320    0.26144    0.47590    1.000
    H1       H        0.07430    0.23520    0.46270    1.000
    C4       C        0.26770    0.22972    0.47920    1.000
    C5       C        0.35620    0.27110    0.49560    1.000
    H2       H        0.44730    0.25140    0.49510    1.000
    C6       C        0.31150    0.34150    0.51279    1.000
    C7       C        0.17460    0.37131    0.51218    1.000
    H3       H        0.14230    0.41760    0.52510    1.000
    C8       C        0.31610    0.15142    0.46310    1.000
    C9       C        0.40790    0.38854    0.52785    1.000
    C10      C        0.74650    0.49740    0.29110    1.000
    H4       H        0.76550    0.55030    0.28230    1.000
    C11      C        0.70200    0.37350    0.34540    1.000
    H5       H        0.68200    0.32200    0.38550    1.000
    C12      C        0.75830    0.51360    0.14440    1.000
    C13      C        0.79660    0.46820    0.09380    1.000
    H6       H        0.80720    0.41160    0.11670    1.000
    C14      C        0.81860    0.50740    0.01030    1.000
    H7       H        0.84390    0.47680    0.97640    1.000
    C15      C        0.80430    0.59120    0.97470    1.000
    C16      C        0.76260    0.63580    0.02600    1.000
    H8       H        0.74860    0.69230    0.00330    1.000
    C17      C        0.74180    0.59660    0.11090    1.000
    H9       H        0.71670    0.62680    0.14520    1.000
    C18      C        0.90970    0.69940    0.84430    1.000
    C19      C        0.90340    0.74740    0.76280    1.000
    H10      H        0.84090    0.73640    0.73860    1.000
    C20      C        0.99000    0.81150    0.71770    1.000
    H11      H        0.98540    0.84340    0.66340    1.000
    C21      C        0.08190    0.82790    0.75270    1.000
    C22      C        0.08590    0.78280    0.83410    1.000
    H12      H        0.14570    0.79570    0.85870    1.000
    C23      C        0.00070    0.71850    0.87880    1.000
    H13      H        0.00510    0.68750    0.93340    1.000
    C24      C        0.25340    0.90400    0.62860    1.000
    H14      H        0.24750    0.87600    0.59540    1.000
    C25      C        0.30740    0.98260    0.67500    1.000
    H15      H        0.35260    0.02280    0.67830    1.000
    C26      C        0.79640    0.58740    0.84130    1.000
    C27      C        0.89390    0.57110    0.77900    1.000
    H16      H        0.98320    0.58800    0.76590    1.000
    C28      C        0.86050    0.53020    0.73590    1.000
    H17      H        0.92700    0.51940    0.69390    1.000
    C29      C        0.72910    0.50540    0.75480    1.000
    C30      C        0.63060    0.51940    0.81840    1.000
    H18      H        0.54180    0.50170    0.83190    1.000
    C31      C        0.66580    0.55950    0.86140    1.000
    H19      H        0.60040    0.56820    0.90500    1.000
    C32      C        0.75870    0.45964    0.63584    1.000
    H20      H        0.84730    0.47670    0.60790    1.000
    C33      C        0.56470    0.41020    0.67120    1.000
    H21      H        0.49080    0.38470    0.67050    1.000
    N1       N        0.72260    0.43716    0.36426    1.000
    N2       N        0.73920    0.47128    0.23212    1.000
    N3       N        0.71240    0.38974    0.26687    1.000
    N4       N        0.82910    0.63067    0.88665    1.000
    N5       N        0.17860    0.89019    0.70420    1.000
    N6       N        0.21220    0.94210    0.73500    1.000
    N7       N        0.33720    0.96249    0.60671    1.000
    N8       N        0.68050    0.42519    0.61040    1.000
    N9       N        0.69150    0.46622    0.70764    1.000
    N10      N        0.56510    0.43470    0.73122    1.000
    O1       O        0.84650    0.32115    0.50472    1.000
    O2       O        0.92080    0.44301    0.46885    1.000
    O3       O        0.23760    0.12202    0.43930    1.000
    O4       O        0.43140    0.12114    0.47670    1.000
    O5       O        0.36000    0.44917    0.54775    1.000
    O6       O        0.53280    0.36432    0.51821    1.000
    Co2      Co       0.29772    0.56891    0.51300    1.000
    C34      C        0.05670    0.63302    0.51166    1.000
    C35      C        0.91310    0.66828    0.50769    1.000
    C36      C        0.86680    0.73856    0.52410    1.000
    H22      H        0.92570    0.76480    0.53730    1.000
    C37      C        0.73230    0.77028    0.52080    1.000
    C38      C        0.64380    0.72890    0.50440    1.000
    H23      H        0.55270    0.74860    0.50490    1.000
    C39      C        0.68850    0.65850    0.48721    1.000
    C40      C        0.82540    0.62869    0.48782    1.000
    H24      H        0.85770    0.58240    0.47490    1.000
    C41      C        0.68390    0.84858    0.53690    1.000
    C42      C        0.59210    0.61146    0.47215    1.000
    C43      C        0.25350    0.50260    0.70890    1.000
    H25      H        0.23450    0.44970    0.71770    1.000
    C44      C        0.29800    0.62650    0.65460    1.000
    H26      H        0.31800    0.67800    0.61450    1.000
    C45      C        0.24170    0.48640    0.85560    1.000
    C46      C        0.20340    0.53180    0.90620    1.000
    H27      H        0.19280    0.58840    0.88330    1.000
    C47      C        0.18140    0.49260    0.98970    1.000
    H28      H        0.15610    0.52320    0.02360    1.000
    C48      C        0.19570    0.40880    0.02530    1.000
    C49      C        0.23740    0.36420    0.97400    1.000
    H29      H        0.25140    0.30770    0.99670    1.000
    C50      C        0.25820    0.40340    0.88910    1.000
    H30      H        0.28330    0.37320    0.85480    1.000
    C51      C        0.09030    0.30060    0.15570    1.000
    C52      C        0.09660    0.25260    0.23720    1.000
    H31      H        0.15910    0.26360    0.26140    1.000
    C53      C        0.01000    0.18850    0.28230    1.000
    H32      H        0.01460    0.15660    0.33660    1.000
    C54      C        0.91810    0.17210    0.24730    1.000
    C55      C        0.91410    0.21720    0.16590    1.000
    H33      H        0.85430    0.20430    0.14130    1.000
    C56      C        0.99930    0.28150    0.12120    1.000
    H34      H        0.99490    0.31250    0.06660    1.000
    C57      C        0.74660    0.09600    0.37140    1.000
    H35      H        0.75250    0.12400    0.40460    1.000
    C58      C        0.69260    0.01740    0.32500    1.000
    H36      H        0.64740    0.97720    0.32170    1.000
    C59      C        0.20360    0.41260    0.15870    1.000
    C60      C        0.10610    0.42890    0.22100    1.000
    H37      H        0.01680    0.41200    0.23410    1.000
    C61      C        0.13950    0.46980    0.26410    1.000
    H38      H        0.07300    0.48060    0.30610    1.000
    C62      C        0.27090    0.49460    0.24520    1.000
    C63      C        0.36940    0.48060    0.18160    1.000
    H39      H        0.45820    0.49830    0.16810    1.000
    C64      C        0.33420    0.44050    0.13860    1.000
    H40      H        0.39960    0.43180    0.09500    1.000
    C65      C        0.24130    0.54036    0.36416    1.000
    H41      H        0.15270    0.52330    0.39210    1.000
    C66      C        0.43530    0.58980    0.32880    1.000
    H42      H        0.50920    0.61530    0.32950    1.000
    N11      N        0.27740    0.56284    0.63574    1.000
    N12      N        0.26080    0.52872    0.76788    1.000
    N13      N        0.28760    0.61026    0.73313    1.000
    N14      N        0.17090    0.36933    0.11335    1.000
    N15      N        0.82140    0.10981    0.29580    1.000
    N16      N        0.78780    0.05790    0.26500    1.000
    N17      N        0.66280    0.03751    0.39329    1.000
    N18      N        0.31950    0.57481    0.38960    1.000
    N19      N        0.30850    0.53378    0.29236    1.000
    N20      N        0.43490    0.56530    0.26878    1.000
    O7       O        0.15350    0.67885    0.49528    1.000
    O8       O        0.07920    0.55699    0.53115    1.000
    O9       O        0.76240    0.87798    0.56070    1.000
    O10      O        0.56860    0.87886    0.52330    1.000
    O11      O        0.64000    0.55083    0.45225    1.000
    O12      O        0.46720    0.63568    0.48179    1.000
    Co3      Co       0.50000    0.00000    0.50000    1.000
