data_functionalizedCrystal
_audit_creation_method	'EQeq! by Chris Wilmer'
_symmetry_space_group_name_H-M	'P1'
_symmetry_Int_Tables_number	1
_symmetry_cell_setting	triclinic
loop_
_symmetry_equiv_pos_as_xyz
  x,y,z
_cell_length_a	10.3911
_cell_length_b	10.3911
_cell_length_c	8.9341
_cell_angle_alpha	90
_cell_angle_beta	90
_cell_angle_gamma	90
loop_
_atom_site_label
_atom_site_type_symbol
_atom_site_fract_x
_atom_site_fract_y
_atom_site_fract_z
_atom_site_charge
Mof_Co	Co	0.38965	0.62843	0.15941	1.186
Mof_P 	P 	0.40671	0.60919	0.79744	0.562
Mof_O 	O 	0.4369	0.6605	0.9531	-0.454
Mof_O 	O 	0.2715	0.5567	0.7887	-0.44
Mof_O 	O 	0.5008	0.5034	0.7521	-0.403
Mof_O 	O 	0.4256	0.7148	0.6812	-0.449
Mof_Co	Co	0.11035	0.87157	0.15941	1.183
Mof_P 	P 	0.09329	0.89081	0.79744	0.558
Mof_O 	O 	0.0631	0.8395	0.9531	-0.453
Mof_O 	O 	0.2285	0.9433	0.7887	-0.439
Mof_O 	O 	0.9992	0.9966	0.7521	-0.395
Mof_O 	O 	0.0744	0.7852	0.6812	-0.45
Mof_Co	Co	0.37157	0.88965	0.65941	1.187
Mof_P 	P 	0.39081	0.90671	0.29744	0.56
Mof_O 	O 	0.3395	0.9369	0.4531	-0.457
Mof_O 	O 	0.4433	0.7715	0.2887	-0.44
Mof_O 	O 	0.4966	0.0008	0.2521	-0.399
Mof_O 	O 	0.2852	0.9256	0.1812	-0.454
Mof_Co	Co	0.12843	0.61035	0.65941	1.187
Mof_P 	P 	0.10919	0.59329	0.29744	0.563
Mof_O 	O 	0.1605	0.5631	0.4531	-0.456
Mof_O 	O 	0.0567	0.7285	0.2887	-0.443
Mof_O 	O 	0.0034	0.4992	0.2521	-0.404
Mof_O 	O 	0.2148	0.5744	0.1812	-0.45
Mof_Co	Co	0.61035	0.37157	0.84059	1.186
Mof_P 	P 	0.59329	0.39081	0.20256	0.562
Mof_O 	O 	0.5631	0.3395	0.0469	-0.454
Mof_O 	O 	0.7285	0.4433	0.2113	-0.44
Mof_O 	O 	0.4992	0.4966	0.2479	-0.403
Mof_O 	O 	0.5744	0.2852	0.3188	-0.449
Mof_Co	Co	0.88965	0.12843	0.84059	1.183
Mof_P 	P 	0.90671	0.10919	0.20256	0.558
Mof_O 	O 	0.9369	0.1605	0.0469	-0.453
Mof_O 	O 	0.7715	0.0567	0.2113	-0.439
Mof_O 	O 	0.0008	0.0034	0.2479	-0.395
Mof_O 	O 	0.9256	0.2148	0.3188	-0.45
Mof_Co	Co	0.62843	0.11035	0.34059	1.187
Mof_P 	P 	0.60919	0.09329	0.70256	0.56
Mof_O 	O 	0.6605	0.0631	0.5469	-0.457
Mof_O 	O 	0.5567	0.2285	0.7113	-0.44
Mof_O 	O 	0.5034	0.9992	0.7479	-0.399
Mof_O 	O 	0.7148	0.0744	0.8188	-0.454
Mof_Co	Co	0.87157	0.38965	0.34059	1.187
Mof_P 	P 	0.89081	0.40671	0.70256	0.563
Mof_O 	O 	0.8395	0.4369	0.5469	-0.456
Mof_O 	O 	0.9433	0.2715	0.7113	-0.443
Mof_O 	O 	0.9966	0.5008	0.7479	-0.404
Mof_O 	O 	0.7852	0.4256	0.8188	-0.45
_end
