# CIF file generated by openbabel 3.1.0, see https://openbabel.org
data_I
_chemical_name_common 'image0'
_cell_length_a 29.106
_cell_length_b 29.106
_cell_length_c 23.417
_cell_angle_alpha 90
_cell_angle_beta 90
_cell_angle_gamma 120
_space_group_name_H-M_alt 'P 1'
_space_group_name_Hall 'P 1'
loop_
    _symmetry_equiv_pos_as_xyz
    x,y,z
loop_
    _atom_site_label
    _atom_site_type_symbol
    _atom_site_fract_x
    _atom_site_fract_y
    _atom_site_fract_z
    _atom_site_occupancy
    O1       O        0.43413    0.71377    0.98280    1.000
    O2       O        0.39683    0.62573    0.97310    1.000
    C1       C        0.43370    0.67040    0.98830    1.000
    C2       C        0.48200    0.67260    0.01420    1.000
    C3       C        0.52930    0.71930    0.02130    1.000
    H1       H        0.53100    0.75200    0.01290    1.000
    C4       C        0.57490    0.71950    0.04060    1.000
    H2       H        0.60720    0.75220    0.04440    1.000
    C5       C        0.57350    0.67290    0.05410    1.000
    C6       C        0.52460    0.62650    0.05250    1.000
    H3       H        0.52190    0.59440    0.06590    1.000
    C7       C        0.48020    0.62600    0.03190    1.000
    H4       H        0.44770    0.59330    0.02980    1.000
    C8       C        0.62260    0.67170    0.06960    1.000
    C9       C        0.62210    0.62330    0.06870    1.000
    H5       H        0.59080    0.59170    0.05780    1.000
    C10      C        0.71360    0.56840    0.08650    1.000
    H6       H        0.74680    0.60050    0.08860    1.000
    C11      C        0.71190    0.52020    0.08670    1.000
    H7       H        0.74440    0.51990    0.08930    1.000
    O3       O        0.10080    0.04710    0.31613    1.000
    O4       O        0.06350    0.95906    0.30643    1.000
    C12      C        0.10037    0.00373    0.32163    1.000
    C13      C        0.14867    0.00593    0.34753    1.000
    C14      C        0.19597    0.05263    0.35463    1.000
    H8       H        0.19767    0.08533    0.34623    1.000
    C15      C        0.24157    0.05283    0.37393    1.000
    H9       H        0.27387    0.08553    0.37773    1.000
    C16      C        0.24017    0.00623    0.38743    1.000
    C17      C        0.19127    0.95983    0.38583    1.000
    H10      H        0.18857    0.92773    0.39923    1.000
    C18      C        0.14687    0.95933    0.36523    1.000
    H11      H        0.11437    0.92663    0.36313    1.000
    C19      C        0.28927    0.00503    0.40293    1.000
    C20      C        0.28877    0.95663    0.40203    1.000
    H12      H        0.25747    0.92503    0.39113    1.000
    C21      C        0.38027    0.90173    0.41983    1.000
    H13      H        0.41347    0.93383    0.42193    1.000
    C22      C        0.37857    0.85353    0.42003    1.000
    H14      H        0.41107    0.85323    0.42263    1.000
    O5       O        0.76746    0.38044    0.64947    1.000
    O6       O        0.73016    0.29240    0.63977    1.000
    C23      C        0.76703    0.33707    0.65497    1.000
    C24      C        0.81533    0.33927    0.68087    1.000
    C25      C        0.86263    0.38597    0.68797    1.000
    H15      H        0.86433    0.41867    0.67957    1.000
    C26      C        0.90823    0.38617    0.70727    1.000
    H16      H        0.94053    0.41887    0.71107    1.000
    C27      C        0.90683    0.33957    0.72077    1.000
    C28      C        0.85793    0.29317    0.71917    1.000
    H17      H        0.85523    0.26107    0.73257    1.000
    C29      C        0.81353    0.29267    0.69857    1.000
    H18      H        0.78103    0.25997    0.69647    1.000
    C30      C        0.95593    0.33837    0.73627    1.000
    C31      C        0.95543    0.28997    0.73537    1.000
    H19      H        0.92413    0.25837    0.72447    1.000
    C32      C        0.04693    0.23507    0.75317    1.000
    H20      H        0.08013    0.26717    0.75527    1.000
    C33      C        0.04523    0.18687    0.75337    1.000
    H21      H        0.07773    0.18657    0.75597    1.000
    O7       O        0.28623    0.72036    0.98280    1.000
    O8       O        0.37427    0.77110    0.97310    1.000
    C34      C        0.32960    0.76330    0.98830    1.000
    C35      C        0.32740    0.80940    0.01420    1.000
    C36      C        0.28070    0.81000    0.02130    1.000
    H22      H        0.24800    0.77900    0.01290    1.000
    C37      C        0.28050    0.85540    0.04060    1.000
    H23      H        0.24780    0.85500    0.04440    1.000
    C38      C        0.32710    0.90060    0.05410    1.000
    C39      C        0.37350    0.89810    0.05250    1.000
    H24      H        0.40560    0.92750    0.06590    1.000
    C40      C        0.37400    0.85420    0.03190    1.000
    H25      H        0.40670    0.85440    0.02980    1.000
    C41      C        0.32830    0.95090    0.06960    1.000
    C42      C        0.37670    0.99880    0.06870    1.000
    H26      H        0.40830    0.99910    0.05780    1.000
    C43      C        0.43160    0.14520    0.08650    1.000
    H27      H        0.39950    0.14630    0.08860    1.000
    C44      C        0.47980    0.19170    0.08670    1.000
    H28      H        0.48010    0.22450    0.08930    1.000
    O9       O        0.95290    0.05369    0.31613    1.000
    O10      O        0.04094    0.10443    0.30643    1.000
    C45      C        0.99627    0.09663    0.32163    1.000
    C46      C        0.99407    0.14273    0.34753    1.000
    C47      C        0.94737    0.14333    0.35463    1.000
    H29      H        0.91467    0.11233    0.34623    1.000
    C48      C        0.94717    0.18873    0.37393    1.000
    H30      H        0.91447    0.18833    0.37773    1.000
    C49      C        0.99377    0.23393    0.38743    1.000
    C50      C        0.04017    0.23143    0.38583    1.000
    H31      H        0.07227    0.26083    0.39923    1.000
    C51      C        0.04067    0.18753    0.36523    1.000
    H32      H        0.07337    0.18773    0.36313    1.000
    C52      C        0.99497    0.28423    0.40293    1.000
    C53      C        0.04337    0.33213    0.40203    1.000
    H33      H        0.07497    0.33243    0.39113    1.000
    C54      C        0.09827    0.47853    0.41983    1.000
    H34      H        0.06617    0.47963    0.42193    1.000
    C55      C        0.14647    0.52503    0.42003    1.000
    H35      H        0.14677    0.55783    0.42263    1.000
    O11      O        0.61956    0.38703    0.64947    1.000
    O12      O        0.70760    0.43777    0.63977    1.000
    C56      C        0.66293    0.42997    0.65497    1.000
    C57      C        0.66073    0.47607    0.68087    1.000
    C58      C        0.61403    0.47667    0.68797    1.000
    H36      H        0.58133    0.44567    0.67957    1.000
    C59      C        0.61383    0.52207    0.70727    1.000
    H37      H        0.58113    0.52167    0.71107    1.000
    C60      C        0.66043    0.56727    0.72077    1.000
    C61      C        0.70683    0.56477    0.71917    1.000
    H38      H        0.73893    0.59417    0.73257    1.000
    C62      C        0.70733    0.52087    0.69857    1.000
    H39      H        0.74003    0.52107    0.69647    1.000
    C63      C        0.66163    0.61757    0.73627    1.000
    C64      C        0.71003    0.66547    0.73537    1.000
    H40      H        0.74163    0.66577    0.72447    1.000
    C65      C        0.76493    0.81187    0.75317    1.000
    H41      H        0.73283    0.81297    0.75527    1.000
    C66      C        0.81313    0.85837    0.75337    1.000
    H42      H        0.81343    0.89117    0.75597    1.000
    O13      O        0.27964    0.56587    0.98280    1.000
    O14      O        0.22890    0.60317    0.97310    1.000
    C67      C        0.23670    0.56630    0.98830    1.000
    C68      C        0.19060    0.51800    0.01420    1.000
    C69      C        0.19000    0.47070    0.02130    1.000
    H43      H        0.22100    0.46900    0.01290    1.000
    C70      C        0.14460    0.42510    0.04060    1.000
    H44      H        0.14500    0.39280    0.04440    1.000
    C71      C        0.09940    0.42650    0.05410    1.000
    C72      C        0.10190    0.47540    0.05250    1.000
    H45      H        0.07250    0.47810    0.06590    1.000
    C73      C        0.14580    0.51980    0.03190    1.000
    H46      H        0.14560    0.55230    0.02980    1.000
    C74      C        0.04910    0.37740    0.06960    1.000
    C75      C        0.00120    0.37790    0.06870    1.000
    H47      H        0.00090    0.40920    0.05780    1.000
    C76      C        0.85480    0.28640    0.08650    1.000
    H48      H        0.85370    0.25320    0.08860    1.000
    C77      C        0.80830    0.28810    0.08670    1.000
    H49      H        0.77550    0.25560    0.08930    1.000
    O15      O        0.94631    0.89920    0.31613    1.000
    O16      O        0.89557    0.93650    0.30643    1.000
    C78      C        0.90337    0.89963    0.32163    1.000
    C79      C        0.85727    0.85133    0.34753    1.000
    C80      C        0.85667    0.80403    0.35463    1.000
    H50      H        0.88767    0.80233    0.34623    1.000
    C81      C        0.81127    0.75843    0.37393    1.000
    H51      H        0.81167    0.72613    0.37773    1.000
    C82      C        0.76607    0.75983    0.38743    1.000
    C83      C        0.76857    0.80873    0.38583    1.000
    H52      H        0.73917    0.81143    0.39923    1.000
    C84      C        0.81247    0.85313    0.36523    1.000
    H53      H        0.81227    0.88563    0.36313    1.000
    C85      C        0.71577    0.71073    0.40293    1.000
    C86      C        0.66787    0.71123    0.40203    1.000
    H54      H        0.66757    0.74253    0.39113    1.000
    C87      C        0.52147    0.61973    0.41983    1.000
    H55      H        0.52037    0.58653    0.42193    1.000
    C88      C        0.47497    0.62143    0.42003    1.000
    H56      H        0.44217    0.58893    0.42263    1.000
    O17      O        0.61297    0.23254    0.64947    1.000
    O18      O        0.56223    0.26984    0.63977    1.000
    C89      C        0.57003    0.23297    0.65497    1.000
    C90      C        0.52393    0.18467    0.68087    1.000
    C91      C        0.52333    0.13737    0.68797    1.000
    H57      H        0.55433    0.13567    0.67957    1.000
    C92      C        0.47793    0.09177    0.70727    1.000
    H58      H        0.47833    0.05947    0.71107    1.000
    C93      C        0.43273    0.09317    0.72077    1.000
    C94      C        0.43523    0.14207    0.71917    1.000
    H59      H        0.40583    0.14477    0.73257    1.000
    C95      C        0.47913    0.18647    0.69857    1.000
    H60      H        0.47893    0.21897    0.69647    1.000
    C96      C        0.38243    0.04407    0.73627    1.000
    C97      C        0.33453    0.04457    0.73537    1.000
    H61      H        0.33423    0.07587    0.72447    1.000
    C98      C        0.18813    0.95307    0.75317    1.000
    H62      H        0.18703    0.91987    0.75527    1.000
    C99      C        0.14163    0.95477    0.75337    1.000
    H63      H        0.10883    0.92227    0.75597    1.000
    O19      O        0.71377    0.43413    0.51720    1.000
    O20      O        0.62573    0.39683    0.52690    1.000
    C100     C        0.67040    0.43370    0.51170    1.000
    C101     C        0.67260    0.48200    0.48580    1.000
    C102     C        0.71930    0.52930    0.47870    1.000
    H64      H        0.75200    0.53100    0.48710    1.000
    C103     C        0.71950    0.57490    0.45940    1.000
    H65      H        0.75220    0.60720    0.45560    1.000
    C104     C        0.67290    0.57350    0.44590    1.000
    C105     C        0.62650    0.52460    0.44750    1.000
    H66      H        0.59440    0.52190    0.43410    1.000
    C106     C        0.62600    0.48020    0.46810    1.000
    H67      H        0.59330    0.44770    0.47020    1.000
    C107     C        0.67170    0.62260    0.43040    1.000
    C108     C        0.62330    0.62210    0.43130    1.000
    H68      H        0.59170    0.59080    0.44220    1.000
    C109     C        0.56840    0.71360    0.41350    1.000
    H69      H        0.60050    0.74680    0.41140    1.000
    C110     C        0.52020    0.71190    0.41330    1.000
    H70      H        0.51990    0.74440    0.41070    1.000
    O21      O        0.38044    0.76746    0.85053    1.000
    O22      O        0.29240    0.73016    0.86023    1.000
    C111     C        0.33707    0.76703    0.84503    1.000
    C112     C        0.33927    0.81533    0.81913    1.000
    C113     C        0.38597    0.86263    0.81203    1.000
    H71      H        0.41867    0.86433    0.82043    1.000
    C114     C        0.38617    0.90823    0.79273    1.000
    H72      H        0.41887    0.94053    0.78893    1.000
    C115     C        0.33957    0.90683    0.77923    1.000
    C116     C        0.29317    0.85793    0.78083    1.000
    H73      H        0.26107    0.85523    0.76743    1.000
    C117     C        0.29267    0.81353    0.80143    1.000
    H74      H        0.25997    0.78103    0.80353    1.000
    C118     C        0.33837    0.95593    0.76373    1.000
    C119     C        0.28997    0.95543    0.76463    1.000
    H75      H        0.25837    0.92413    0.77553    1.000
    C120     C        0.23507    0.04693    0.74683    1.000
    H76      H        0.26717    0.08013    0.74473    1.000
    C121     C        0.18687    0.04523    0.74663    1.000
    H77      H        0.18657    0.07773    0.74403    1.000
    O23      O        0.04710    0.10080    0.18387    1.000
    O24      O        0.95906    0.06350    0.19357    1.000
    C122     C        0.00373    0.10037    0.17837    1.000
    C123     C        0.00593    0.14867    0.15247    1.000
    C124     C        0.05263    0.19597    0.14537    1.000
    H78      H        0.08533    0.19767    0.15377    1.000
    C125     C        0.05283    0.24157    0.12607    1.000
    H79      H        0.08553    0.27387    0.12227    1.000
    C126     C        0.00623    0.24017    0.11257    1.000
    C127     C        0.95983    0.19127    0.11417    1.000
    H80      H        0.92773    0.18857    0.10077    1.000
    C128     C        0.95933    0.14687    0.13477    1.000
    H81      H        0.92663    0.11437    0.13687    1.000
    C129     C        0.00503    0.28927    0.09707    1.000
    C130     C        0.95663    0.28877    0.09797    1.000
    H82      H        0.92503    0.25747    0.10887    1.000
    C131     C        0.90173    0.38027    0.08017    1.000
    H83      H        0.93383    0.41347    0.07807    1.000
    C132     C        0.85353    0.37857    0.07997    1.000
    H84      H        0.85323    0.41107    0.07737    1.000
    O25      O        0.72036    0.28623    0.51720    1.000
    O26      O        0.77110    0.37427    0.52690    1.000
    C133     C        0.76330    0.32960    0.51170    1.000
    C134     C        0.80940    0.32740    0.48580    1.000
    C135     C        0.81000    0.28070    0.47870    1.000
    H85      H        0.77900    0.24800    0.48710    1.000
    C136     C        0.85540    0.28050    0.45940    1.000
    H86      H        0.85500    0.24780    0.45560    1.000
    C137     C        0.90060    0.32710    0.44590    1.000
    C138     C        0.89810    0.37350    0.44750    1.000
    H87      H        0.92750    0.40560    0.43410    1.000
    C139     C        0.85420    0.37400    0.46810    1.000
    H88      H        0.85440    0.40670    0.47020    1.000
    C140     C        0.95090    0.32830    0.43040    1.000
    C141     C        0.99880    0.37670    0.43130    1.000
    H89      H        0.99910    0.40830    0.44220    1.000
    C142     C        0.14520    0.43160    0.41350    1.000
    H90      H        0.14630    0.39950    0.41140    1.000
    C143     C        0.19170    0.47980    0.41330    1.000
    H91      H        0.22450    0.48010    0.41070    1.000
    O27      O        0.38703    0.61956    0.85053    1.000
    O28      O        0.43777    0.70760    0.86023    1.000
    C144     C        0.42997    0.66293    0.84503    1.000
    C145     C        0.47607    0.66073    0.81913    1.000
    C146     C        0.47667    0.61403    0.81203    1.000
    H92      H        0.44567    0.58133    0.82043    1.000
    C147     C        0.52207    0.61383    0.79273    1.000
    H93      H        0.52167    0.58113    0.78893    1.000
    C148     C        0.56727    0.66043    0.77923    1.000
    C149     C        0.56477    0.70683    0.78083    1.000
    H94      H        0.59417    0.73893    0.76743    1.000
    C150     C        0.52087    0.70733    0.80143    1.000
    H95      H        0.52107    0.74003    0.80353    1.000
    C151     C        0.61757    0.66163    0.76373    1.000
    C152     C        0.66547    0.71003    0.76463    1.000
    H96      H        0.66577    0.74163    0.77553    1.000
    C153     C        0.81187    0.76493    0.74683    1.000
    H97      H        0.81297    0.73283    0.74473    1.000
    C154     C        0.85837    0.81313    0.74663    1.000
    H98      H        0.89117    0.81343    0.74403    1.000
    O29      O        0.05369    0.95290    0.18387    1.000
    O30      O        0.10443    0.04094    0.19357    1.000
    C155     C        0.09663    0.99627    0.17837    1.000
    C156     C        0.14273    0.99407    0.15247    1.000
    C157     C        0.14333    0.94737    0.14537    1.000
    H99      H        0.11233    0.91467    0.15377    1.000
    C158     C        0.18873    0.94717    0.12607    1.000
    H100     H        0.18833    0.91447    0.12227    1.000
    C159     C        0.23393    0.99377    0.11257    1.000
    C160     C        0.23143    0.04017    0.11417    1.000
    H101     H        0.26083    0.07227    0.10077    1.000
    C161     C        0.18753    0.04067    0.13477    1.000
    H102     H        0.18773    0.07337    0.13687    1.000
    C162     C        0.28423    0.99497    0.09707    1.000
    C163     C        0.33213    0.04337    0.09797    1.000
    H103     H        0.33243    0.07497    0.10887    1.000
    C164     C        0.47853    0.09827    0.08017    1.000
    H104     H        0.47963    0.06617    0.07807    1.000
    C165     C        0.52503    0.14647    0.07997    1.000
    H105     H        0.55783    0.14677    0.07737    1.000
    O31      O        0.56587    0.27964    0.51720    1.000
    O32      O        0.60317    0.22890    0.52690    1.000
    C166     C        0.56630    0.23670    0.51170    1.000
    C167     C        0.51800    0.19060    0.48580    1.000
    C168     C        0.47070    0.19000    0.47870    1.000
    H106     H        0.46900    0.22100    0.48710    1.000
    C169     C        0.42510    0.14460    0.45940    1.000
    H107     H        0.39280    0.14500    0.45560    1.000
    C170     C        0.42650    0.09940    0.44590    1.000
    C171     C        0.47540    0.10190    0.44750    1.000
    H108     H        0.47810    0.07250    0.43410    1.000
    C172     C        0.51980    0.14580    0.46810    1.000
    H109     H        0.55230    0.14560    0.47020    1.000
    C173     C        0.37740    0.04910    0.43040    1.000
    C174     C        0.37790    0.00120    0.43130    1.000
    H110     H        0.40920    0.00090    0.44220    1.000
    C175     C        0.28640    0.85480    0.41350    1.000
    H111     H        0.25320    0.85370    0.41140    1.000
    C176     C        0.28810    0.80830    0.41330    1.000
    H112     H        0.25560    0.77550    0.41070    1.000
    O33      O        0.23254    0.61297    0.85053    1.000
    O34      O        0.26984    0.56223    0.86023    1.000
    C177     C        0.23297    0.57003    0.84503    1.000
    C178     C        0.18467    0.52393    0.81913    1.000
    C179     C        0.13737    0.52333    0.81203    1.000
    H113     H        0.13567    0.55433    0.82043    1.000
    C180     C        0.09177    0.47793    0.79273    1.000
    H114     H        0.05947    0.47833    0.78893    1.000
    C181     C        0.09317    0.43273    0.77923    1.000
    C182     C        0.14207    0.43523    0.78083    1.000
    H115     H        0.14477    0.40583    0.76743    1.000
    C183     C        0.18647    0.47913    0.80143    1.000
    H116     H        0.21897    0.47893    0.80353    1.000
    C184     C        0.04407    0.38243    0.76373    1.000
    C185     C        0.04457    0.33453    0.76463    1.000
    H117     H        0.07587    0.33423    0.77553    1.000
    C186     C        0.95307    0.18813    0.74683    1.000
    H118     H        0.91987    0.18703    0.74473    1.000
    C187     C        0.95477    0.14163    0.74663    1.000
    H119     H        0.92227    0.10883    0.74403    1.000
    O35      O        0.89920    0.94631    0.18387    1.000
    O36      O        0.93650    0.89557    0.19357    1.000
    C188     C        0.89963    0.90337    0.17837    1.000
    C189     C        0.85133    0.85727    0.15247    1.000
    C190     C        0.80403    0.85667    0.14537    1.000
    H120     H        0.80233    0.88767    0.15377    1.000
    C191     C        0.75843    0.81127    0.12607    1.000
    H121     H        0.72613    0.81167    0.12227    1.000
    C192     C        0.75983    0.76607    0.11257    1.000
    C193     C        0.80873    0.76857    0.11417    1.000
    H122     H        0.81143    0.73917    0.10077    1.000
    C194     C        0.85313    0.81247    0.13477    1.000
    H123     H        0.88563    0.81227    0.13687    1.000
    C195     C        0.71073    0.71577    0.09707    1.000
    C196     C        0.71123    0.66787    0.09797    1.000
    H124     H        0.74253    0.66757    0.10887    1.000
    C197     C        0.61973    0.52147    0.08017    1.000
    H125     H        0.58653    0.52037    0.07807    1.000
    C198     C        0.62143    0.47497    0.07997    1.000
    H126     H        0.58893    0.44217    0.07737    1.000
    O37      O        0.56587    0.28623    0.01720    1.000
    O38      O        0.60317    0.37427    0.02690    1.000
    C199     C        0.56630    0.32960    0.01170    1.000
    C200     C        0.51800    0.32740    0.98580    1.000
    C201     C        0.47070    0.28070    0.97870    1.000
    H127     H        0.46900    0.24800    0.98710    1.000
    C202     C        0.42510    0.28050    0.95940    1.000
    H128     H        0.39280    0.24780    0.95560    1.000
    C203     C        0.42650    0.32710    0.94590    1.000
    C204     C        0.47540    0.37350    0.94750    1.000
    H129     H        0.47810    0.40560    0.93410    1.000
    C205     C        0.51980    0.37400    0.96810    1.000
    H130     H        0.55230    0.40670    0.97020    1.000
    C206     C        0.37740    0.32830    0.93040    1.000
    C207     C        0.37790    0.37670    0.93130    1.000
    H131     H        0.40920    0.40830    0.94220    1.000
    C208     C        0.28640    0.43160    0.91350    1.000
    H132     H        0.25320    0.39950    0.91140    1.000
    C209     C        0.28810    0.47980    0.91330    1.000
    H133     H        0.25560    0.48010    0.91070    1.000
    O39      O        0.23254    0.61956    0.35053    1.000
    O40      O        0.26984    0.70760    0.36023    1.000
    C210     C        0.23297    0.66293    0.34503    1.000
    C211     C        0.18467    0.66073    0.31913    1.000
    C212     C        0.13737    0.61403    0.31203    1.000
    H134     H        0.13567    0.58133    0.32043    1.000
    C213     C        0.09177    0.61383    0.29273    1.000
    H135     H        0.05947    0.58113    0.28893    1.000
    C214     C        0.09317    0.66043    0.27923    1.000
    C215     C        0.14207    0.70683    0.28083    1.000
    H136     H        0.14477    0.73893    0.26743    1.000
    C216     C        0.18647    0.70733    0.30143    1.000
    H137     H        0.21897    0.74003    0.30353    1.000
    C217     C        0.04407    0.66163    0.26373    1.000
    C218     C        0.04457    0.71003    0.26463    1.000
    H138     H        0.07587    0.74163    0.27553    1.000
    C219     C        0.95307    0.76493    0.24683    1.000
    H139     H        0.91987    0.73283    0.24473    1.000
    C220     C        0.95477    0.81313    0.24663    1.000
    H140     H        0.92227    0.81343    0.24403    1.000
    O41      O        0.89920    0.95290    0.68387    1.000
    O42      O        0.93650    0.04094    0.69357    1.000
    C221     C        0.89963    0.99627    0.67837    1.000
    C222     C        0.85133    0.99407    0.65247    1.000
    C223     C        0.80403    0.94737    0.64537    1.000
    H141     H        0.80233    0.91467    0.65377    1.000
    C224     C        0.75843    0.94717    0.62607    1.000
    H142     H        0.72613    0.91447    0.62227    1.000
    C225     C        0.75983    0.99377    0.61257    1.000
    C226     C        0.80873    0.04017    0.61417    1.000
    H143     H        0.81143    0.07227    0.60077    1.000
    C227     C        0.85313    0.04067    0.63477    1.000
    H144     H        0.88563    0.07337    0.63687    1.000
    C228     C        0.71073    0.99497    0.59707    1.000
    C229     C        0.71123    0.04337    0.59797    1.000
    H145     H        0.74253    0.07497    0.60887    1.000
    C230     C        0.61973    0.09827    0.58017    1.000
    H146     H        0.58653    0.06617    0.57807    1.000
    C231     C        0.62143    0.14647    0.57997    1.000
    H147     H        0.58893    0.14677    0.57737    1.000
    O43      O        0.71377    0.27964    0.01720    1.000
    O44      O        0.62573    0.22890    0.02690    1.000
    C232     C        0.67040    0.23670    0.01170    1.000
    C233     C        0.67260    0.19060    0.98580    1.000
    C234     C        0.71930    0.19000    0.97870    1.000
    H148     H        0.75200    0.22100    0.98710    1.000
    C235     C        0.71950    0.14460    0.95940    1.000
    H149     H        0.75220    0.14500    0.95560    1.000
    C236     C        0.67290    0.09940    0.94590    1.000
    C237     C        0.62650    0.10190    0.94750    1.000
    H150     H        0.59440    0.07250    0.93410    1.000
    C238     C        0.62600    0.14580    0.96810    1.000
    H151     H        0.59330    0.14560    0.97020    1.000
    C239     C        0.67170    0.04910    0.93040    1.000
    C240     C        0.62330    0.00120    0.93130    1.000
    H152     H        0.59170    0.00090    0.94220    1.000
    C241     C        0.56840    0.85480    0.91350    1.000
    H153     H        0.60050    0.85370    0.91140    1.000
    C242     C        0.52020    0.80830    0.91330    1.000
    H154     H        0.51990    0.77550    0.91070    1.000
    O45      O        0.38044    0.61297    0.35053    1.000
    O46      O        0.29240    0.56223    0.36023    1.000
    C243     C        0.33707    0.57003    0.34503    1.000
    C244     C        0.33927    0.52393    0.31913    1.000
    C245     C        0.38597    0.52333    0.31203    1.000
    H155     H        0.41867    0.55433    0.32043    1.000
    C246     C        0.38617    0.47793    0.29273    1.000
    H156     H        0.41887    0.47833    0.28893    1.000
    C247     C        0.33957    0.43273    0.27923    1.000
    C248     C        0.29317    0.43523    0.28083    1.000
    H157     H        0.26107    0.40583    0.26743    1.000
    C249     C        0.29267    0.47913    0.30143    1.000
    H158     H        0.25997    0.47893    0.30353    1.000
    C250     C        0.33837    0.38243    0.26373    1.000
    C251     C        0.28997    0.33453    0.26463    1.000
    H159     H        0.25837    0.33423    0.27553    1.000
    C252     C        0.23507    0.18813    0.24683    1.000
    H160     H        0.26717    0.18703    0.24473    1.000
    C253     C        0.18687    0.14163    0.24663    1.000
    H161     H        0.18657    0.10883    0.24403    1.000
    O47      O        0.04710    0.94631    0.68387    1.000
    O48      O        0.95906    0.89557    0.69357    1.000
    C254     C        0.00373    0.90337    0.67837    1.000
    C255     C        0.00593    0.85727    0.65247    1.000
    C256     C        0.05263    0.85667    0.64537    1.000
    H162     H        0.08533    0.88767    0.65377    1.000
    C257     C        0.05283    0.81127    0.62607    1.000
    H163     H        0.08553    0.81167    0.62227    1.000
    C258     C        0.00623    0.76607    0.61257    1.000
    C259     C        0.95983    0.76857    0.61417    1.000
    H164     H        0.92773    0.73917    0.60077    1.000
    C260     C        0.95933    0.81247    0.63477    1.000
    H165     H        0.92663    0.81227    0.63687    1.000
    C261     C        0.00503    0.71577    0.59707    1.000
    C262     C        0.95663    0.66787    0.59797    1.000
    H166     H        0.92503    0.66757    0.60887    1.000
    C263     C        0.90173    0.52147    0.58017    1.000
    H167     H        0.93383    0.52037    0.57807    1.000
    C264     C        0.85353    0.47497    0.57997    1.000
    H168     H        0.85323    0.44217    0.57737    1.000
    O49      O        0.72036    0.43413    0.01720    1.000
    O50      O        0.77110    0.39683    0.02690    1.000
    C265     C        0.76330    0.43370    0.01170    1.000
    C266     C        0.80940    0.48200    0.98580    1.000
    C267     C        0.81000    0.52930    0.97870    1.000
    H169     H        0.77900    0.53100    0.98710    1.000
    C268     C        0.85540    0.57490    0.95940    1.000
    H170     H        0.85500    0.60720    0.95560    1.000
    C269     C        0.90060    0.57350    0.94590    1.000
    C270     C        0.89810    0.52460    0.94750    1.000
    H171     H        0.92750    0.52190    0.93410    1.000
    C271     C        0.85420    0.48020    0.96810    1.000
    H172     H        0.85440    0.44770    0.97020    1.000
    C272     C        0.95090    0.62260    0.93040    1.000
    C273     C        0.99880    0.62210    0.93130    1.000
    H173     H        0.99910    0.59080    0.94220    1.000
    C274     C        0.14520    0.71360    0.91350    1.000
    H174     H        0.14630    0.74680    0.91140    1.000
    C275     C        0.19170    0.71190    0.91330    1.000
    H175     H        0.22450    0.74440    0.91070    1.000
    O51      O        0.38703    0.76746    0.35053    1.000
    O52      O        0.43777    0.73016    0.36023    1.000
    C276     C        0.42997    0.76703    0.34503    1.000
    C277     C        0.47607    0.81533    0.31913    1.000
    C278     C        0.47667    0.86263    0.31203    1.000
    H176     H        0.44567    0.86433    0.32043    1.000
    C279     C        0.52207    0.90823    0.29273    1.000
    H177     H        0.52167    0.94053    0.28893    1.000
    C280     C        0.56727    0.90683    0.27923    1.000
    C281     C        0.56477    0.85793    0.28083    1.000
    H178     H        0.59417    0.85523    0.26743    1.000
    C282     C        0.52087    0.81353    0.30143    1.000
    H179     H        0.52107    0.78103    0.30353    1.000
    C283     C        0.61757    0.95593    0.26373    1.000
    C284     C        0.66547    0.95543    0.26463    1.000
    H180     H        0.66577    0.92413    0.27553    1.000
    C285     C        0.81187    0.04693    0.24683    1.000
    H181     H        0.81297    0.08013    0.24473    1.000
    C286     C        0.85837    0.04523    0.24663    1.000
    H182     H        0.89117    0.07773    0.24403    1.000
    O53      O        0.05369    0.10080    0.68387    1.000
    O54      O        0.10443    0.06350    0.69357    1.000
    C287     C        0.09663    0.10037    0.67837    1.000
    C288     C        0.14273    0.14867    0.65247    1.000
    C289     C        0.14333    0.19597    0.64537    1.000
    H183     H        0.11233    0.19767    0.65377    1.000
    C290     C        0.18873    0.24157    0.62607    1.000
    H184     H        0.18833    0.27387    0.62227    1.000
    C291     C        0.23393    0.24017    0.61257    1.000
    C292     C        0.23143    0.19127    0.61417    1.000
    H185     H        0.26083    0.18857    0.60077    1.000
    C293     C        0.18753    0.14687    0.63477    1.000
    H186     H        0.18773    0.11437    0.63687    1.000
    C294     C        0.28423    0.28927    0.59707    1.000
    C295     C        0.33213    0.28877    0.59797    1.000
    H187     H        0.33243    0.25747    0.60887    1.000
    C296     C        0.47853    0.38027    0.58017    1.000
    H188     H        0.47963    0.41347    0.57807    1.000
    C297     C        0.52503    0.37857    0.57997    1.000
    H189     H        0.55783    0.41107    0.57737    1.000
    O55      O        0.28623    0.56587    0.48280    1.000
    O56      O        0.37427    0.60317    0.47310    1.000
    C298     C        0.32960    0.56630    0.48830    1.000
    C299     C        0.32740    0.51800    0.51420    1.000
    C300     C        0.28070    0.47070    0.52130    1.000
    H190     H        0.24800    0.46900    0.51290    1.000
    C301     C        0.28050    0.42510    0.54060    1.000
    H191     H        0.24780    0.39280    0.54440    1.000
    C302     C        0.32710    0.42650    0.55410    1.000
    C303     C        0.37350    0.47540    0.55250    1.000
    H192     H        0.40560    0.47810    0.56590    1.000
    C304     C        0.37400    0.51980    0.53190    1.000
    H193     H        0.40670    0.55230    0.52980    1.000
    C305     C        0.32830    0.37740    0.56960    1.000
    C306     C        0.37670    0.37790    0.56870    1.000
    H194     H        0.40830    0.40920    0.55780    1.000
    C307     C        0.43160    0.28640    0.58650    1.000
    H195     H        0.39950    0.25320    0.58860    1.000
    C308     C        0.47980    0.28810    0.58670    1.000
    H196     H        0.48010    0.25560    0.58930    1.000
    O57      O        0.95290    0.89920    0.81613    1.000
    O58      O        0.04094    0.93650    0.80643    1.000
    C309     C        0.99627    0.89963    0.82163    1.000
    C310     C        0.99407    0.85133    0.84753    1.000
    C311     C        0.94737    0.80403    0.85463    1.000
    H197     H        0.91467    0.80233    0.84623    1.000
    C312     C        0.94717    0.75843    0.87393    1.000
    H198     H        0.91447    0.72613    0.87773    1.000
    C313     C        0.99377    0.75983    0.88743    1.000
    C314     C        0.04017    0.80873    0.88583    1.000
    H199     H        0.07227    0.81143    0.89923    1.000
    C315     C        0.04067    0.85313    0.86523    1.000
    H200     H        0.07337    0.88563    0.86313    1.000
    C316     C        0.99497    0.71073    0.90293    1.000
    C317     C        0.04337    0.71123    0.90203    1.000
    H201     H        0.07497    0.74253    0.89113    1.000
    C318     C        0.09827    0.61973    0.91983    1.000
    H202     H        0.06617    0.58653    0.92193    1.000
    C319     C        0.14647    0.62143    0.92003    1.000
    H203     H        0.14677    0.58893    0.92263    1.000
    O59      O        0.61956    0.23254    0.14947    1.000
    O60      O        0.70760    0.26984    0.13977    1.000
    C320     C        0.66293    0.23297    0.15497    1.000
    C321     C        0.66073    0.18467    0.18087    1.000
    C322     C        0.61403    0.13737    0.18797    1.000
    H204     H        0.58133    0.13567    0.17957    1.000
    C323     C        0.61383    0.09177    0.20727    1.000
    H205     H        0.58113    0.05947    0.21107    1.000
    C324     C        0.66043    0.09317    0.22077    1.000
    C325     C        0.70683    0.14207    0.21917    1.000
    H206     H        0.73893    0.14477    0.23257    1.000
    C326     C        0.70733    0.18647    0.19857    1.000
    H207     H        0.74003    0.21897    0.19647    1.000
    C327     C        0.66163    0.04407    0.23627    1.000
    C328     C        0.71003    0.04457    0.23537    1.000
    H208     H        0.74163    0.07587    0.22447    1.000
    C329     C        0.76493    0.95307    0.25317    1.000
    H209     H        0.73283    0.91987    0.25527    1.000
    C330     C        0.81313    0.95477    0.25337    1.000
    H210     H        0.81343    0.92227    0.25597    1.000
    O61      O        0.27964    0.71377    0.48280    1.000
    O62      O        0.22890    0.62573    0.47310    1.000
    C331     C        0.23670    0.67040    0.48830    1.000
    C332     C        0.19060    0.67260    0.51420    1.000
    C333     C        0.19000    0.71930    0.52130    1.000
    H211     H        0.22100    0.75200    0.51290    1.000
    C334     C        0.14460    0.71950    0.54060    1.000
    H212     H        0.14500    0.75220    0.54440    1.000
    C335     C        0.09940    0.67290    0.55410    1.000
    C336     C        0.10190    0.62650    0.55250    1.000
    H213     H        0.07250    0.59440    0.56590    1.000
    C337     C        0.14580    0.62600    0.53190    1.000
    H214     H        0.14560    0.59330    0.52980    1.000
    C338     C        0.04910    0.67170    0.56960    1.000
    C339     C        0.00120    0.62330    0.56870    1.000
    H215     H        0.00090    0.59170    0.55780    1.000
    C340     C        0.85480    0.56840    0.58650    1.000
    H216     H        0.85370    0.60050    0.58860    1.000
    C341     C        0.80830    0.52020    0.58670    1.000
    H217     H        0.77550    0.51990    0.58930    1.000
    O63      O        0.94631    0.04710    0.81613    1.000
    O64      O        0.89557    0.95906    0.80643    1.000
    C342     C        0.90337    0.00373    0.82163    1.000
    C343     C        0.85727    0.00593    0.84753    1.000
    C344     C        0.85667    0.05263    0.85463    1.000
    H218     H        0.88767    0.08533    0.84623    1.000
    C345     C        0.81127    0.05283    0.87393    1.000
    H219     H        0.81167    0.08553    0.87773    1.000
    C346     C        0.76607    0.00623    0.88743    1.000
    C347     C        0.76857    0.95983    0.88583    1.000
    H220     H        0.73917    0.92773    0.89923    1.000
    C348     C        0.81247    0.95933    0.86523    1.000
    H221     H        0.81227    0.92663    0.86313    1.000
    C349     C        0.71577    0.00503    0.90293    1.000
    C350     C        0.66787    0.95663    0.90203    1.000
    H222     H        0.66757    0.92503    0.89113    1.000
    C351     C        0.52147    0.90173    0.91983    1.000
    H223     H        0.52037    0.93383    0.92193    1.000
    C352     C        0.47497    0.85353    0.92003    1.000
    H224     H        0.44217    0.85323    0.92263    1.000
    O65      O        0.61297    0.38044    0.14947    1.000
    O66      O        0.56223    0.29240    0.13977    1.000
    C353     C        0.57003    0.33707    0.15497    1.000
    C354     C        0.52393    0.33927    0.18087    1.000
    C355     C        0.52333    0.38597    0.18797    1.000
    H225     H        0.55433    0.41867    0.17957    1.000
    C356     C        0.47793    0.38617    0.20727    1.000
    H226     H        0.47833    0.41887    0.21107    1.000
    C357     C        0.43273    0.33957    0.22077    1.000
    C358     C        0.43523    0.29317    0.21917    1.000
    H227     H        0.40583    0.26107    0.23257    1.000
    C359     C        0.47913    0.29267    0.19857    1.000
    H228     H        0.47893    0.25997    0.19647    1.000
    C360     C        0.38243    0.33837    0.23627    1.000
    C361     C        0.33453    0.28997    0.23537    1.000
    H229     H        0.33423    0.25837    0.22447    1.000
    C362     C        0.18813    0.23507    0.25317    1.000
    H230     H        0.18703    0.26717    0.25527    1.000
    C363     C        0.14163    0.18687    0.25337    1.000
    H231     H        0.10883    0.18657    0.25597    1.000
    O67      O        0.43413    0.72036    0.48280    1.000
    O68      O        0.39683    0.77110    0.47310    1.000
    C364     C        0.43370    0.76330    0.48830    1.000
    C365     C        0.48200    0.80940    0.51420    1.000
    C366     C        0.52930    0.81000    0.52130    1.000
    H232     H        0.53100    0.77900    0.51290    1.000
    C367     C        0.57490    0.85540    0.54060    1.000
    H233     H        0.60720    0.85500    0.54440    1.000
    C368     C        0.57350    0.90060    0.55410    1.000
    C369     C        0.52460    0.89810    0.55250    1.000
    H234     H        0.52190    0.92750    0.56590    1.000
    C370     C        0.48020    0.85420    0.53190    1.000
    H235     H        0.44770    0.85440    0.52980    1.000
    C371     C        0.62260    0.95090    0.56960    1.000
    C372     C        0.62210    0.99880    0.56870    1.000
    H236     H        0.59080    0.99910    0.55780    1.000
    C373     C        0.71360    0.14520    0.58650    1.000
    H237     H        0.74680    0.14630    0.58860    1.000
    C374     C        0.71190    0.19170    0.58670    1.000
    H238     H        0.74440    0.22450    0.58930    1.000
    O69      O        0.10080    0.05369    0.81613    1.000
    O70      O        0.06350    0.10443    0.80643    1.000
    C375     C        0.10037    0.09663    0.82163    1.000
    C376     C        0.14867    0.14273    0.84753    1.000
    C377     C        0.19597    0.14333    0.85463    1.000
    H239     H        0.19767    0.11233    0.84623    1.000
    C378     C        0.24157    0.18873    0.87393    1.000
    H240     H        0.27387    0.18833    0.87773    1.000
    C379     C        0.24017    0.23393    0.88743    1.000
    C380     C        0.19127    0.23143    0.88583    1.000
    H241     H        0.18857    0.26083    0.89923    1.000
    C381     C        0.14687    0.18753    0.86523    1.000
    H242     H        0.11437    0.18773    0.86313    1.000
    C382     C        0.28927    0.28423    0.90293    1.000
    C383     C        0.28877    0.33213    0.90203    1.000
    H243     H        0.25747    0.33243    0.89113    1.000
    C384     C        0.38027    0.47853    0.91983    1.000
    H244     H        0.41347    0.47963    0.92193    1.000
    C385     C        0.37857    0.52503    0.92003    1.000
    H245     H        0.41107    0.55783    0.92263    1.000
    O71      O        0.76746    0.38703    0.14947    1.000
    O72      O        0.73016    0.43777    0.13977    1.000
    C386     C        0.76703    0.42997    0.15497    1.000
    C387     C        0.81533    0.47607    0.18087    1.000
    C388     C        0.86263    0.47667    0.18797    1.000
    H246     H        0.86433    0.44567    0.17957    1.000
    C389     C        0.90823    0.52207    0.20727    1.000
    H247     H        0.94053    0.52167    0.21107    1.000
    C390     C        0.90683    0.56727    0.22077    1.000
    C391     C        0.85793    0.56477    0.21917    1.000
    H248     H        0.85523    0.59417    0.23257    1.000
    C392     C        0.81353    0.52087    0.19857    1.000
    H249     H        0.78103    0.52107    0.19647    1.000
    C393     C        0.95593    0.61757    0.23627    1.000
    C394     C        0.95543    0.66547    0.23537    1.000
    H250     H        0.92413    0.66577    0.22447    1.000
    C395     C        0.04693    0.81187    0.25317    1.000
    H251     H        0.08013    0.81297    0.25527    1.000
    C396     C        0.04523    0.85837    0.25337    1.000
    H252     H        0.07773    0.89117    0.25597    1.000
    Ni1      Ni       0.66667    0.40217    0.08333    1.000
    N1       N        0.66667    0.47378    0.08333    1.000
    N2       N        0.66667    0.71778    0.08333    1.000
    C397     C        0.66667    0.62148    0.08333    1.000
    C398     C        0.66667    0.57008    0.08333    1.000
    Ni2      Ni       0.59783    0.26449    0.08333    1.000
    N3       N        0.52622    0.19288    0.08333    1.000
    N4       N        0.28222    0.94888    0.08333    1.000
    C399     C        0.37852    0.04518    0.08333    1.000
    C400     C        0.42992    0.09658    0.08333    1.000
    Ni3      Ni       0.73551    0.33333    0.08333    1.000
    N5       N        0.80712    0.33333    0.08333    1.000
    N6       N        0.05112    0.33333    0.08333    1.000
    C401     C        0.95482    0.33333    0.08333    1.000
    C402     C        0.90342    0.33333    0.08333    1.000
    Ni4      Ni       0.40217    0.66667    0.41667    1.000
    N7       N        0.47378    0.66667    0.41667    1.000
    N8       N        0.71778    0.66667    0.41667    1.000
    C403     C        0.62148    0.66667    0.41667    1.000
    C404     C        0.57008    0.66667    0.41667    1.000
    Ni5      Ni       0.06884    0.00000    0.75000    1.000
    N9       N        0.14045    0.00000    0.75000    1.000
    N10      N        0.38445    0.00000    0.75000    1.000
    C405     C        0.28815    0.00000    0.75000    1.000
    C406     C        0.23675    0.00000    0.75000    1.000
    Ni6      Ni       0.26449    0.59783    0.41667    1.000
    N11      N        0.19288    0.52622    0.41667    1.000
    N12      N        0.94888    0.28222    0.41667    1.000
    C407     C        0.04518    0.37852    0.41667    1.000
    C408     C        0.09658    0.42992    0.41667    1.000
    Ni7      Ni       0.93116    0.93116    0.75000    1.000
    N13      N        0.85955    0.85955    0.75000    1.000
    N14      N        0.61555    0.61555    0.75000    1.000
    C409     C        0.71185    0.71185    0.75000    1.000
    C410     C        0.76325    0.76325    0.75000    1.000
    Ni8      Ni       0.33333    0.73551    0.41667    1.000
    N15      N        0.33333    0.80712    0.41667    1.000
    N16      N        0.33333    0.05112    0.41667    1.000
    C411     C        0.33333    0.95482    0.41667    1.000
    C412     C        0.33333    0.90342    0.41667    1.000
    Ni9      Ni       0.00000    0.06884    0.75000    1.000
    N17      N        0.00000    0.14045    0.75000    1.000
    N18      N        0.00000    0.38445    0.75000    1.000
    C413     C        0.00000    0.28815    0.75000    1.000
    C414     C        0.00000    0.23675    0.75000    1.000
    Ni10     Ni       0.33333    0.59783    0.91667    1.000
    N19      N        0.33333    0.52622    0.91667    1.000
    N20      N        0.33333    0.28222    0.91667    1.000
    C415     C        0.33333    0.37852    0.91667    1.000
    C416     C        0.33333    0.42992    0.91667    1.000
    Ni11     Ni       0.00000    0.93116    0.25000    1.000
    N21      N        0.00000    0.85955    0.25000    1.000
    N22      N        0.00000    0.61555    0.25000    1.000
    C417     C        0.00000    0.71185    0.25000    1.000
    C418     C        0.00000    0.76325    0.25000    1.000
    Ni12     Ni       0.40217    0.73551    0.91667    1.000
    N23      N        0.47378    0.80712    0.91667    1.000
    N24      N        0.71778    0.05112    0.91667    1.000
    C419     C        0.62148    0.95482    0.91667    1.000
    C420     C        0.57008    0.90342    0.91667    1.000
    Ni13     Ni       0.06884    0.06884    0.25000    1.000
    N25      N        0.14045    0.14045    0.25000    1.000
    N26      N        0.38445    0.38445    0.25000    1.000
    C421     C        0.28815    0.28815    0.25000    1.000
    C422     C        0.23675    0.23675    0.25000    1.000
    Ni14     Ni       0.26449    0.66667    0.91667    1.000
    N27      N        0.19288    0.66667    0.91667    1.000
    N28      N        0.94888    0.66667    0.91667    1.000
    C423     C        0.04518    0.66667    0.91667    1.000
    C424     C        0.09658    0.66667    0.91667    1.000
    Ni15     Ni       0.93116    0.00000    0.25000    1.000
    N29      N        0.85955    0.00000    0.25000    1.000
    N30      N        0.61555    0.00000    0.25000    1.000
    C425     C        0.71185    0.00000    0.25000    1.000
    C426     C        0.76325    0.00000    0.25000    1.000
    Ni16     Ni       0.59783    0.33333    0.58333    1.000
    N31      N        0.52622    0.33333    0.58333    1.000
    N32      N        0.28222    0.33333    0.58333    1.000
    C427     C        0.37852    0.33333    0.58333    1.000
    C428     C        0.42992    0.33333    0.58333    1.000
    Ni17     Ni       0.73551    0.40217    0.58333    1.000
    N33      N        0.80712    0.47378    0.58333    1.000
    N34      N        0.05112    0.71778    0.58333    1.000
    C429     C        0.95482    0.62148    0.58333    1.000
    C430     C        0.90342    0.57008    0.58333    1.000
    Ni18     Ni       0.66667    0.26449    0.58333    1.000
    N35      N        0.66667    0.19288    0.58333    1.000
    N36      N        0.66667    0.94888    0.58333    1.000
    C431     C        0.66667    0.04518    0.58333    1.000
    C432     C        0.66667    0.09658    0.58333    1.000
    O73      O        0.66667    0.33333    0.08333    1.000
    O74      O        0.00000    0.00000    0.75000    1.000
    O75      O        0.33333    0.66667    0.41667    1.000
    O76      O        0.33333    0.66667    0.91667    1.000
    O77      O        0.00000    0.00000    0.25000    1.000
    O78      O        0.66667    0.33333    0.58333    1.000
    H253     H        0.66667    0.33333    0.12600    1.000
    H254     H        0.33333    0.66667    0.45933    1.000
    H255     H        0.00000    0.00000    0.79267    1.000
    H256     H        0.33333    0.66667    0.37400    1.000
    H257     H        0.00000    0.00000    0.70733    1.000
    H258     H        0.66667    0.33333    0.04067    1.000
    H259     H        0.33333    0.66667    0.87400    1.000
    H260     H        0.00000    0.00000    0.20733    1.000
    H261     H        0.66667    0.33333    0.54067    1.000
    H262     H        0.66667    0.33333    0.62600    1.000
    H263     H        0.33333    0.66667    0.95933    1.000
    H264     H        0.00000    0.00000    0.29267    1.000
