data_functionalizedCrystal
_audit_creation_method	'EQeq! by Chris Wilmer'
_symmetry_space_group_name_H-M	'P1'
_symmetry_Int_Tables_number	1
_symmetry_cell_setting	triclinic
loop_
_symmetry_equiv_pos_as_xyz
  x,y,z
_cell_length_a	5.534
_cell_length_b	13.436
_cell_length_c	20.891
_cell_angle_alpha	90
_cell_angle_beta	96.159
_cell_angle_gamma	90
loop_
_atom_site_label
_atom_site_type_symbol
_atom_site_fract_x
_atom_site_fract_y
_atom_site_fract_z
_atom_site_charge
Mof_Gd	Gd	0.62624	0.13165	0.97231	1.534
Mof_Gd	Gd	0.37376	0.63165	0.52769	1.534
Mof_Gd	Gd	0.37376	0.86835	0.02769	1.534
Mof_Gd	Gd	0.62624	0.36835	0.47231	1.534
Mof_P 	P 	0.9136	0.0223	0.08645	0.489
Mof_P 	P 	0.0864	0.5223	0.41355	0.488
Mof_P 	P 	0.0864	0.9777	0.91355	0.489
Mof_P 	P 	0.9136	0.4777	0.58645	0.488
Mof_H 	H 	0.7707	0.9738	0.1815	0.103
Mof_H 	H 	0.6791	0.0811	0.1633	0.081
Mof_H 	H 	0.7663	0.0966	0.2818	0.051
Mof_H 	H 	0.9059	0.9949	0.2882	0.045
Mof_H 	H 	0.0363	0.0981	0.3731	0.027
Mof_H 	H 	0.2515	0.0732	0.3327	0.038
Mof_H 	H 	0.9868	0.2535	0.3248	0.071
Mof_H 	H 	0.2269	0.304	0.2474	0.042
Mof_H 	H 	0.3684	0.2027	0.2528	0.049
Mof_H 	H 	0.079	0.1986	0.1618	0.048
Mof_H 	H 	0.8695	0.2207	0.205	0.043
Mof_H 	H 	0.2293	0.4738	0.3185	0.102
Mof_H 	H 	0.3209	0.5811	0.3367	0.081
Mof_H 	H 	0.2337	0.5966	0.2182	0.05
Mof_H 	H 	0.0941	0.4949	0.2118	0.044
Mof_H 	H 	0.9637	0.5981	0.1269	0.028
Mof_H 	H 	0.7485	0.5732	0.1673	0.038
Mof_H 	H 	0.0132	0.7535	0.1752	0.07
Mof_H 	H 	0.7731	0.804	0.2526	0.042
Mof_H 	H 	0.6316	0.7027	0.2472	0.049
Mof_H 	H 	0.921	0.6986	0.3382	0.047
Mof_H 	H 	0.1305	0.7207	0.295	0.042
Mof_H 	H 	0.2293	0.0262	0.8185	0.103
Mof_H 	H 	0.3209	0.9189	0.8367	0.081
Mof_H 	H 	0.2337	0.9034	0.7182	0.051
Mof_H 	H 	0.0941	0.0051	0.7118	0.045
Mof_H 	H 	0.9637	0.9019	0.6269	0.027
Mof_H 	H 	0.7485	0.9268	0.6673	0.038
Mof_H 	H 	0.0132	0.7465	0.6752	0.071
Mof_H 	H 	0.7731	0.696	0.7526	0.042
Mof_H 	H 	0.6316	0.7973	0.7472	0.049
Mof_H 	H 	0.921	0.8014	0.8382	0.048
Mof_H 	H 	0.1305	0.7793	0.795	0.043
Mof_H 	H 	0.7707	0.5262	0.6815	0.102
Mof_H 	H 	0.6791	0.4189	0.6633	0.081
Mof_H 	H 	0.7663	0.4034	0.7818	0.05
Mof_H 	H 	0.9059	0.5051	0.7882	0.044
Mof_H 	H 	0.0363	0.4019	0.8731	0.028
Mof_H 	H 	0.2515	0.4268	0.8327	0.038
Mof_H 	H 	0.9868	0.2465	0.8248	0.07
Mof_H 	H 	0.2269	0.196	0.7474	0.042
Mof_H 	H 	0.3684	0.2973	0.7528	0.049
Mof_H 	H 	0.079	0.3014	0.6618	0.047
Mof_H 	H 	0.8695	0.2793	0.705	0.042
Mof_C 	C 	0.821	0.0382	0.1667	-0.226
Mof_C 	C 	0.924	0.0656	0.2804	-0.079
Mof_C 	C 	0.098	0.1083	0.3318	-0.047
Mof_C 	C 	0.142	0.2195	0.3227	-0.134
Mof_C 	C 	0.211	0.2334	0.2557	-0.056
Mof_C 	C 	0.026	0.1883	0.2041	-0.073
Mof_C 	C 	0.322	0.264	0.3747	0.312
Mof_C 	C 	0.179	0.5382	0.3333	-0.225
Mof_C 	C 	0.076	0.5656	0.2196	-0.077
Mof_C 	C 	0.902	0.6083	0.1682	-0.049
Mof_C 	C 	0.858	0.7195	0.1773	-0.131
Mof_C 	C 	0.789	0.7334	0.2443	-0.058
Mof_C 	C 	0.974	0.6883	0.2959	-0.071
Mof_C 	C 	0.678	0.764	0.1253	0.312
Mof_C 	C 	0.179	0.9618	0.8333	-0.226
Mof_C 	C 	0.076	0.9344	0.7196	-0.079
Mof_C 	C 	0.902	0.8917	0.6682	-0.047
Mof_C 	C 	0.858	0.7805	0.6773	-0.134
Mof_C 	C 	0.789	0.7666	0.7443	-0.056
Mof_C 	C 	0.974	0.8117	0.7959	-0.073
Mof_C 	C 	0.678	0.736	0.6253	0.312
Mof_C 	C 	0.821	0.4618	0.6667	-0.225
Mof_C 	C 	0.924	0.4344	0.7804	-0.077
Mof_C 	C 	0.098	0.3917	0.8318	-0.049
Mof_C 	C 	0.142	0.2805	0.8227	-0.131
Mof_C 	C 	0.211	0.2666	0.7557	-0.058
Mof_C 	C 	0.026	0.3117	0.7041	-0.071
Mof_C 	C 	0.322	0.236	0.8747	0.312
Mof_N 	N 	0.0021	0.0799	0.2165	-0.065
Mof_N 	N 	0.9979	0.5799	0.2835	-0.066
Mof_N 	N 	0.9979	0.9201	0.7835	-0.065
Mof_N 	N 	0.0021	0.4201	0.7165	-0.066
Mof_O 	O 	0.6821	0.9813	0.0456	-0.545
Mof_O 	O 	0.9592	0.1224	0.0573	-0.448
Mof_O 	O 	0.1273	0.9536	0.0903	-0.441
Mof_O 	O 	0.2976	0.2478	0.4331	-0.429
Mof_O 	O 	0.4981	0.3169	0.3597	-0.389
Mof_O 	O 	0.3179	0.4813	0.4544	-0.545
Mof_O 	O 	0.0408	0.6224	0.4427	-0.449
Mof_O 	O 	0.8727	0.4536	0.4097	-0.44
Mof_O 	O 	0.7024	0.7478	0.0669	-0.428
Mof_O 	O 	0.5019	0.8169	0.1403	-0.389
Mof_O 	O 	0.3179	0.0187	0.9544	-0.545
Mof_O 	O 	0.0408	0.8776	0.9427	-0.448
Mof_O 	O 	0.8727	0.0464	0.9097	-0.441
Mof_O 	O 	0.7024	0.7522	0.5669	-0.429
Mof_O 	O 	0.5019	0.6831	0.6403	-0.389
Mof_O 	O 	0.6821	0.5187	0.5456	-0.545
Mof_O 	O 	0.9592	0.3776	0.5573	-0.449
Mof_O 	O 	0.1273	0.5464	0.5903	-0.44
Mof_O 	O 	0.2976	0.2522	0.9331	-0.428
Mof_O 	O 	0.4981	0.1831	0.8597	-0.389
_end
