data_functionalizedCrystal
_audit_creation_method	'EQeq! by Chris Wilmer'
_symmetry_space_group_name_H-M	'P1'
_symmetry_Int_Tables_number	1
_symmetry_cell_setting	triclinic
loop_
_symmetry_equiv_pos_as_xyz
  x,y,z
_cell_length_a	15.0393
_cell_length_b	15.0393
_cell_length_c	11.9587
_cell_angle_alpha	90
_cell_angle_beta	90
_cell_angle_gamma	90
loop_
_atom_site_label
_atom_site_type_symbol
_atom_site_fract_x
_atom_site_fract_y
_atom_site_fract_z
_atom_site_charge
Mof_C 	C 	0.7511	0.2551	0.56201	-0.024
Mof_C 	C 	0.7079	0.3213	0.5033	0.035
Mof_C 	C 	0.7093	0.3212	0.3878	-0.165
Mof_C 	C 	0.7539	0.2548	0.331	0.109
Mof_C 	C 	0.7971	0.1885	0.3897	-0.166
Mof_C 	C 	0.7957	0.1887	0.5052	0.037
Mof_H 	H 	0.6778	0.366	0.5415	0.033
Mof_H 	H 	0.7548	0.2547	0.2532	0.035
Mof_H 	H 	0.8248	0.144	0.5448	0.035
Mof_C 	C 	0.6654	0.3884	0.3282	0.425
Mof_O 	O 	0.65	0.4662	0.3716	-0.516
Mof_O 	O 	0.6379	0.377	0.2261	-0.477
Mof_C 	C 	0.8423	0.1211	0.3321	0.429
Mof_O 	O 	0.877	0.134	0.2338	-0.508
Mof_O 	O 	0.8523	0.0418	0.3736	-0.456
Mof_C 	C 	0.2489	0.7449	0.06201	-0.098
Mof_C 	C 	0.2921	0.6787	0.0033	0.155
Mof_C 	C 	0.2907	0.6788	0.8878	-0.269
Mof_C 	C 	0.2461	0.7452	0.831	0.201
Mof_C 	C 	0.2029	0.8115	0.8897	-0.277
Mof_C 	C 	0.2043	0.8113	0.0052	0.16
Mof_H 	H 	0.3222	0.634	0.0415	0.003
Mof_H 	H 	0.2452	0.7453	0.7532	0
Mof_H 	H 	0.1752	0.856	0.0448	-0.005
Mof_C 	C 	0.3346	0.6116	0.8282	0.462
Mof_O 	O 	0.35	0.5338	0.8716	-0.531
Mof_O 	O 	0.3621	0.623	0.7261	-0.49
Mof_C 	C 	0.1577	0.8789	0.8321	0.473
Mof_O 	O 	0.123	0.866	0.7338	-0.52
Mof_O 	O 	0.1477	0.9582	0.8736	-0.538
Mof_C 	C 	0.7449	0.7511	0.81201	-0.067
Mof_C 	C 	0.6787	0.7079	0.7533	0.063
Mof_C 	C 	0.6788	0.7093	0.6378	-0.19
Mof_C 	C 	0.7452	0.7539	0.581	0.133
Mof_C 	C 	0.8115	0.7971	0.6397	-0.204
Mof_C 	C 	0.8113	0.7957	0.7552	0.068
Mof_H 	H 	0.634	0.6778	0.7915	0.019
Mof_H 	H 	0.7453	0.7548	0.5032	0.018
Mof_H 	H 	0.856	0.8248	0.7948	0.004
Mof_C 	C 	0.6116	0.6654	0.5782	0.432
Mof_O 	O 	0.5338	0.65	0.6216	-0.519
Mof_O 	O 	0.623	0.6379	0.4761	-0.485
Mof_C 	C 	0.8789	0.8423	0.5821	0.443
Mof_O 	O 	0.866	0.877	0.4838	-0.534
Mof_O 	O 	0.9582	0.8523	0.6236	-0.53
Mof_C 	C 	0.2551	0.2489	0.31201	-0.023
Mof_C 	C 	0.3213	0.2921	0.2533	0.053
Mof_C 	C 	0.3212	0.2907	0.1378	-0.178
Mof_C 	C 	0.2548	0.2461	0.081	0.135
Mof_C 	C 	0.1885	0.2029	0.1397	-0.174
Mof_C 	C 	0.1887	0.2043	0.2552	0.054
Mof_H 	H 	0.366	0.3222	0.2915	0.032
Mof_H 	H 	0.2547	0.2452	0.0032	0.042
Mof_H 	H 	0.144	0.1752	0.2948	0.041
Mof_C 	C 	0.3884	0.3346	0.0782	0.469
Mof_O 	O 	0.4662	0.35	0.1216	-0.514
Mof_O 	O 	0.377	0.3621	0.9761	-0.513
Mof_C 	C 	0.1211	0.1577	0.0821	0.476
Mof_O 	O 	0.134	0.123	0.9838	-0.528
Mof_O 	O 	0.0418	0.1477	0.1236	-0.452
Mof_C 	C 	0.2489	0.2551	0.43799	-0.005
Mof_C 	C 	0.2921	0.3213	0.4967	0.031
Mof_C 	C 	0.2907	0.3212	0.6122	-0.156
Mof_C 	C 	0.2461	0.2548	0.669	0.108
Mof_C 	C 	0.2029	0.1885	0.6103	-0.151
Mof_C 	C 	0.2043	0.1887	0.4948	0.031
Mof_H 	H 	0.3222	0.366	0.4585	0.039
Mof_H 	H 	0.2452	0.2547	0.7468	0.034
Mof_H 	H 	0.1752	0.144	0.4552	0.049
Mof_C 	C 	0.3346	0.3884	0.6718	0.424
Mof_O 	O 	0.35	0.4662	0.6284	-0.51
Mof_O 	O 	0.3621	0.377	0.7739	-0.478
Mof_C 	C 	0.1577	0.1211	0.6679	0.429
Mof_O 	O 	0.123	0.134	0.7662	-0.491
Mof_O 	O 	0.1477	0.0418	0.6264	-0.448
Mof_C 	C 	0.7511	0.7449	0.93799	0.039
Mof_C 	C 	0.7079	0.6787	0.9967	-0.066
Mof_C 	C 	0.7093	0.6788	0.1122	-0.083
Mof_C 	C 	0.7539	0.7452	0.169	0.044
Mof_C 	C 	0.7971	0.8115	0.1103	-0.099
Mof_C 	C 	0.7957	0.8113	0.9948	-0.058
Mof_H 	H 	0.6778	0.634	0.9585	0.058
Mof_H 	H 	0.7548	0.7453	0.2468	0.05
Mof_H 	H 	0.8248	0.856	0.9552	0.043
Mof_C 	C 	0.6654	0.6116	0.1718	0.394
Mof_O 	O 	0.65	0.5338	0.1284	-0.503
Mof_O 	O 	0.6379	0.623	0.2739	-0.474
Mof_C 	C 	0.8423	0.8789	0.1679	0.406
Mof_O 	O 	0.877	0.866	0.2662	-0.524
Mof_O 	O 	0.8523	0.9582	0.1264	-0.516
Mof_C 	C 	0.2551	0.7511	0.18799	0.025
Mof_C 	C 	0.3213	0.7079	0.2467	0.006
Mof_C 	C 	0.3212	0.7093	0.3622	-0.146
Mof_C 	C 	0.2548	0.7539	0.419	0.093
Mof_C 	C 	0.1885	0.7971	0.3603	-0.147
Mof_C 	C 	0.1887	0.7957	0.2448	0.008
Mof_H 	H 	0.366	0.6778	0.2085	0.047
Mof_H 	H 	0.2547	0.7548	0.4968	0.038
Mof_H 	H 	0.144	0.8248	0.2052	0.049
Mof_C 	C 	0.3884	0.6654	0.4218	0.417
Mof_O 	O 	0.4662	0.65	0.3784	-0.513
Mof_O 	O 	0.377	0.6379	0.5239	-0.477
Mof_C 	C 	0.1211	0.8423	0.4179	0.422
Mof_O 	O 	0.134	0.877	0.5162	-0.508
Mof_O 	O 	0.0418	0.8523	0.3764	-0.454
Mof_C 	C 	0.7449	0.2489	0.68799	-0.01
Mof_C 	C 	0.6787	0.2921	0.7467	0.021
Mof_C 	C 	0.6788	0.2907	0.8622	-0.146
Mof_C 	C 	0.7452	0.2461	0.919	0.093
Mof_C 	C 	0.8115	0.2029	0.8603	-0.155
Mof_C 	C 	0.8113	0.2043	0.7448	0.026
Mof_H 	H 	0.634	0.3222	0.7085	0.041
Mof_H 	H 	0.7453	0.2452	0.9968	0.025
Mof_H 	H 	0.856	0.1752	0.7052	0.033
Mof_C 	C 	0.6116	0.3346	0.9218	0.385
Mof_O 	O 	0.5338	0.35	0.8784	-0.51
Mof_O 	O 	0.623	0.3621	0.0239	-0.448
Mof_C 	C 	0.8789	0.1577	0.9179	0.397
Mof_O 	O 	0.866	0.123	0.0162	-0.479
Mof_O 	O 	0.9582	0.1477	0.8764	-0.518
Mof_V 	V 	0.937	0.063	0.125	1.819
Mof_V 	V 	0.063	0.937	0.625	1.82
Mof_V 	V 	0.937	0.937	0.375	1.796
Mof_V 	V 	0.063	0.063	0.875	1.837
Mof_O 	O 	0.9818	2.3332e-33	0.25	-0.632
Mof_O 	O 	0.0182	4.66639e-33	0.75	-0.58
Mof_O 	O 	1.49069e-33	0.9818	0.5	-0.634
Mof_O 	O 	2.91649e-34	0.0182	-0	-0.553
Mof_V 	V 	0.557	0.557	0.375	1.796
Mof_V 	V 	0.443	0.443	0.875	1.792
Mof_V 	V 	0.443	0.557	0.625	1.796
Mof_V 	V 	0.557	0.443	0.125	1.797
Mof_O 	O 	0.4901	0.5	0.25	-0.604
Mof_O 	O 	0.5099	0.5	0.75	-0.611
Mof_O 	O 	0.5	0.4901	0.5	-0.606
Mof_O 	O 	0.5	0.5099	-0	-0.588
_end
