data_functionalizedCrystal
_audit_creation_method	'EQeq! by Chris Wilmer'
_symmetry_space_group_name_H-M	'P1'
_symmetry_Int_Tables_number	1
_symmetry_cell_setting	triclinic
loop_
_symmetry_equiv_pos_as_xyz
  x,y,z
_cell_length_a	26.0759
_cell_length_b	26.0759
_cell_length_c	26.0759
_cell_angle_alpha	90
_cell_angle_beta	90
_cell_angle_gamma	90
loop_
_atom_site_label
_atom_site_type_symbol
_atom_site_fract_x
_atom_site_fract_y
_atom_site_fract_z
_atom_site_charge
Mof_O 	O 	0.61453	0.05841	0.55512	-0.425
Mof_C 	C 	0.602	0.1389	0.6656	0.143
Mof_H 	H 	0.57237	0.12513	0.68004	-0.009
Mof_C 	C 	0.6252	0.1793	0.6889	-0.221
Mof_H 	H 	0.61124	0.19256	0.71895	0.108
Mof_O 	O 	0.38547	0.94159	0.55512	-0.384
Mof_C 	C 	0.398	0.8611	0.6656	0.131
Mof_H 	H 	0.42763	0.87487	0.68004	0.003
Mof_C 	C 	0.3748	0.8207	0.6889	-0.208
Mof_H 	H 	0.38876	0.80744	0.71895	0.105
Mof_O 	O 	0.38547	0.05841	0.44488	-0.425
Mof_C 	C 	0.398	0.1389	0.3344	0.143
Mof_H 	H 	0.42763	0.12513	0.31996	-0.009
Mof_C 	C 	0.3748	0.1793	0.3111	-0.221
Mof_H 	H 	0.38876	0.19256	0.28105	0.108
Mof_O 	O 	0.61453	0.94159	0.44488	-0.384
Mof_C 	C 	0.602	0.8611	0.3344	0.131
Mof_H 	H 	0.57237	0.87487	0.31996	0.003
Mof_C 	C 	0.6252	0.8207	0.3111	-0.207
Mof_H 	H 	0.61124	0.80744	0.28105	0.104
Mof_O 	O 	0.55512	0.61453	0.05841	-0.425
Mof_C 	C 	0.6656	0.602	0.1389	0.143
Mof_H 	H 	0.68004	0.57237	0.12513	-0.009
Mof_C 	C 	0.6889	0.6252	0.1793	-0.221
Mof_H 	H 	0.71895	0.61124	0.19256	0.108
Mof_O 	O 	0.55512	0.38547	0.94159	-0.384
Mof_C 	C 	0.6656	0.398	0.8611	0.131
Mof_H 	H 	0.68004	0.42763	0.87487	0.003
Mof_C 	C 	0.6889	0.3748	0.8207	-0.208
Mof_H 	H 	0.71895	0.38876	0.80744	0.105
Mof_O 	O 	0.44488	0.38547	0.05841	-0.424
Mof_C 	C 	0.3344	0.398	0.1389	0.144
Mof_H 	H 	0.31996	0.42763	0.12513	-0.008
Mof_C 	C 	0.3111	0.3748	0.1793	-0.22
Mof_H 	H 	0.28105	0.38876	0.19256	0.109
Mof_O 	O 	0.44488	0.61453	0.94159	-0.383
Mof_C 	C 	0.3344	0.602	0.8611	0.132
Mof_H 	H 	0.31996	0.57237	0.87487	0.004
Mof_C 	C 	0.3111	0.6252	0.8207	-0.206
Mof_H 	H 	0.28105	0.61124	0.80744	0.105
Mof_O 	O 	0.05841	0.55512	0.61453	-0.424
Mof_C 	C 	0.1389	0.6656	0.602	0.144
Mof_H 	H 	0.12513	0.68004	0.57237	-0.008
Mof_C 	C 	0.1793	0.6889	0.6252	-0.22
Mof_H 	H 	0.19256	0.71895	0.61124	0.109
Mof_O 	O 	0.94159	0.55512	0.38547	-0.383
Mof_C 	C 	0.8611	0.6656	0.398	0.132
Mof_H 	H 	0.87487	0.68004	0.42763	0.004
Mof_C 	C 	0.8207	0.6889	0.3748	-0.207
Mof_H 	H 	0.80744	0.71895	0.38876	0.106
Mof_O 	O 	0.05841	0.44488	0.38547	-0.424
Mof_C 	C 	0.1389	0.3344	0.398	0.144
Mof_H 	H 	0.12513	0.31996	0.42763	-0.008
Mof_C 	C 	0.1793	0.3111	0.3748	-0.22
Mof_H 	H 	0.19256	0.28105	0.38876	0.109
Mof_O 	O 	0.94159	0.44488	0.61453	-0.383
Mof_C 	C 	0.8611	0.3344	0.602	0.132
Mof_H 	H 	0.87487	0.31996	0.57237	0.004
Mof_C 	C 	0.8207	0.3111	0.6252	-0.206
Mof_H 	H 	0.80744	0.28105	0.61124	0.105
Mof_O 	O 	0.05841	0.61453	0.44488	-0.424
Mof_C 	C 	0.1389	0.602	0.3344	0.144
Mof_H 	H 	0.12513	0.57237	0.31996	-0.008
Mof_C 	C 	0.1793	0.6252	0.3111	-0.22
Mof_H 	H 	0.19256	0.61124	0.28105	0.108
Mof_O 	O 	0.94159	0.38547	0.44488	-0.383
Mof_C 	C 	0.8611	0.398	0.3344	0.132
Mof_H 	H 	0.87487	0.42763	0.31996	0.004
Mof_C 	C 	0.8207	0.3748	0.3111	-0.207
Mof_H 	H 	0.80744	0.38876	0.28105	0.105
Mof_O 	O 	0.05841	0.38547	0.55512	-0.424
Mof_C 	C 	0.1389	0.398	0.6656	0.144
Mof_H 	H 	0.12513	0.42763	0.68004	-0.008
Mof_C 	C 	0.1793	0.3748	0.6889	-0.22
Mof_H 	H 	0.19256	0.38876	0.71895	0.109
Mof_O 	O 	0.94159	0.61453	0.55512	-0.383
Mof_C 	C 	0.8611	0.602	0.6656	0.132
Mof_H 	H 	0.87487	0.57237	0.68004	0.004
Mof_C 	C 	0.8207	0.6252	0.6889	-0.206
Mof_H 	H 	0.80744	0.61124	0.71895	0.105
Mof_O 	O 	0.61453	0.55512	0.94159	-0.383
Mof_C 	C 	0.602	0.6656	0.8611	0.132
Mof_H 	H 	0.57237	0.68004	0.87487	0.004
Mof_C 	C 	0.6252	0.6889	0.8207	-0.206
Mof_H 	H 	0.61124	0.71895	0.80744	0.105
Mof_O 	O 	0.38547	0.55512	0.05841	-0.424
Mof_C 	C 	0.398	0.6656	0.1389	0.144
Mof_H 	H 	0.42763	0.68004	0.12513	-0.008
Mof_C 	C 	0.3748	0.6889	0.1793	-0.22
Mof_H 	H 	0.38876	0.71895	0.19256	0.109
Mof_O 	O 	0.38547	0.44488	0.94159	-0.383
Mof_C 	C 	0.398	0.3344	0.8611	0.132
Mof_H 	H 	0.42763	0.31996	0.87487	0.004
Mof_C 	C 	0.3748	0.3111	0.8207	-0.207
Mof_H 	H 	0.38876	0.28105	0.80744	0.105
Mof_O 	O 	0.61453	0.44488	0.05841	-0.424
Mof_C 	C 	0.602	0.3344	0.1389	0.144
Mof_H 	H 	0.57237	0.31996	0.12513	-0.008
Mof_C 	C 	0.6252	0.3111	0.1793	-0.22
Mof_H 	H 	0.61124	0.28105	0.19256	0.108
Mof_O 	O 	0.55512	0.05841	0.38547	-0.424
Mof_C 	C 	0.6656	0.1389	0.398	0.144
Mof_H 	H 	0.68004	0.12513	0.42763	-0.008
Mof_C 	C 	0.6889	0.1793	0.3748	-0.22
Mof_H 	H 	0.71895	0.19256	0.38876	0.109
Mof_O 	O 	0.55512	0.94159	0.61453	-0.383
Mof_C 	C 	0.6656	0.8611	0.602	0.132
Mof_H 	H 	0.68004	0.87487	0.57237	0.004
Mof_C 	C 	0.6889	0.8207	0.6252	-0.206
Mof_H 	H 	0.71895	0.80744	0.61124	0.105
Mof_O 	O 	0.44488	0.05841	0.61453	-0.424
Mof_C 	C 	0.3344	0.1389	0.602	0.144
Mof_H 	H 	0.31996	0.12513	0.57237	-0.008
Mof_C 	C 	0.3111	0.1793	0.6252	-0.22
Mof_H 	H 	0.28105	0.19256	0.61124	0.108
Mof_O 	O 	0.44488	0.94159	0.38547	-0.383
Mof_C 	C 	0.3344	0.8611	0.398	0.132
Mof_H 	H 	0.31996	0.87487	0.42763	0.004
Mof_C 	C 	0.3111	0.8207	0.3748	-0.207
Mof_H 	H 	0.28105	0.80744	0.38876	0.105
Mof_O 	O 	0.38547	0.94159	0.44488	-0.383
Mof_C 	C 	0.398	0.8611	0.3344	0.132
Mof_H 	H 	0.42763	0.87487	0.31996	0.004
Mof_C 	C 	0.3748	0.8207	0.3111	-0.207
Mof_H 	H 	0.38876	0.80744	0.28105	0.105
Mof_O 	O 	0.61453	0.05841	0.44488	-0.424
Mof_C 	C 	0.602	0.1389	0.3344	0.144
Mof_H 	H 	0.57237	0.12513	0.31996	-0.008
Mof_C 	C 	0.6252	0.1793	0.3111	-0.22
Mof_H 	H 	0.61124	0.19256	0.28105	0.108
Mof_O 	O 	0.61453	0.94159	0.55512	-0.383
Mof_C 	C 	0.602	0.8611	0.6656	0.132
Mof_H 	H 	0.57237	0.87487	0.68004	0.004
Mof_C 	C 	0.6252	0.8207	0.6889	-0.206
Mof_H 	H 	0.61124	0.80744	0.71895	0.105
Mof_O 	O 	0.38547	0.05841	0.55512	-0.424
Mof_C 	C 	0.398	0.1389	0.6656	0.144
Mof_H 	H 	0.42763	0.12513	0.68004	-0.008
Mof_C 	C 	0.3748	0.1793	0.6889	-0.22
Mof_H 	H 	0.38876	0.19256	0.71895	0.109
Mof_O 	O 	0.44488	0.38547	0.94159	-0.383
Mof_C 	C 	0.3344	0.398	0.8611	0.132
Mof_H 	H 	0.31996	0.42763	0.87487	0.004
Mof_C 	C 	0.3111	0.3748	0.8207	-0.207
Mof_H 	H 	0.28105	0.38876	0.80744	0.105
Mof_O 	O 	0.44488	0.61453	0.05841	-0.424
Mof_C 	C 	0.3344	0.602	0.1389	0.144
Mof_H 	H 	0.31996	0.57237	0.12513	-0.008
Mof_C 	C 	0.3111	0.6252	0.1793	-0.22
Mof_H 	H 	0.28105	0.61124	0.19256	0.108
Mof_O 	O 	0.55512	0.61453	0.94159	-0.383
Mof_C 	C 	0.6656	0.602	0.8611	0.132
Mof_H 	H 	0.68004	0.57237	0.87487	0.004
Mof_C 	C 	0.6889	0.6252	0.8207	-0.206
Mof_H 	H 	0.71895	0.61124	0.80744	0.105
Mof_O 	O 	0.55512	0.38547	0.05841	-0.424
Mof_C 	C 	0.6656	0.398	0.1389	0.144
Mof_H 	H 	0.68004	0.42763	0.12513	-0.008
Mof_C 	C 	0.6889	0.3748	0.1793	-0.22
Mof_H 	H 	0.71895	0.38876	0.19256	0.109
Mof_O 	O 	0.94159	0.44488	0.38547	-0.383
Mof_C 	C 	0.8611	0.3344	0.398	0.132
Mof_H 	H 	0.87487	0.31996	0.42763	0.004
Mof_C 	C 	0.8207	0.3111	0.3748	-0.207
Mof_H 	H 	0.80744	0.28105	0.38876	0.105
Mof_O 	O 	0.05841	0.44488	0.61453	-0.424
Mof_C 	C 	0.1389	0.3344	0.602	0.144
Mof_H 	H 	0.12513	0.31996	0.57237	-0.008
Mof_C 	C 	0.1793	0.3111	0.6252	-0.22
Mof_H 	H 	0.19256	0.28105	0.61124	0.108
Mof_O 	O 	0.94159	0.55512	0.61453	-0.383
Mof_C 	C 	0.8611	0.6656	0.602	0.132
Mof_H 	H 	0.87487	0.68004	0.57237	0.004
Mof_C 	C 	0.8207	0.6889	0.6252	-0.206
Mof_H 	H 	0.80744	0.71895	0.61124	0.105
Mof_O 	O 	0.05841	0.55512	0.38547	-0.424
Mof_C 	C 	0.1389	0.6656	0.398	0.144
Mof_H 	H 	0.12513	0.68004	0.42763	-0.008
Mof_C 	C 	0.1793	0.6889	0.3748	-0.22
Mof_H 	H 	0.19256	0.71895	0.38876	0.109
Mof_O 	O 	0.94159	0.38547	0.55512	-0.383
Mof_C 	C 	0.8611	0.398	0.6656	0.132
Mof_H 	H 	0.87487	0.42763	0.68004	0.004
Mof_C 	C 	0.8207	0.3748	0.6889	-0.207
Mof_H 	H 	0.80744	0.38876	0.71895	0.106
Mof_O 	O 	0.05841	0.61453	0.55512	-0.424
Mof_C 	C 	0.1389	0.602	0.6656	0.144
Mof_H 	H 	0.12513	0.57237	0.68004	-0.008
Mof_C 	C 	0.1793	0.6252	0.6889	-0.22
Mof_H 	H 	0.19256	0.61124	0.71895	0.109
Mof_O 	O 	0.94159	0.61453	0.44488	-0.383
Mof_C 	C 	0.8611	0.602	0.3344	0.132
Mof_H 	H 	0.87487	0.57237	0.31996	0.004
Mof_C 	C 	0.8207	0.6252	0.3111	-0.206
Mof_H 	H 	0.80744	0.61124	0.28105	0.105
Mof_O 	O 	0.05841	0.38547	0.44488	-0.424
Mof_C 	C 	0.1389	0.398	0.3344	0.144
Mof_H 	H 	0.12513	0.42763	0.31996	-0.008
Mof_C 	C 	0.1793	0.3748	0.3111	-0.22
Mof_H 	H 	0.19256	0.38876	0.28105	0.109
Mof_O 	O 	0.38547	0.44488	0.05841	-0.424
Mof_C 	C 	0.398	0.3344	0.1389	0.144
Mof_H 	H 	0.42763	0.31996	0.12513	-0.008
Mof_C 	C 	0.3748	0.3111	0.1793	-0.22
Mof_H 	H 	0.38876	0.28105	0.19256	0.109
Mof_O 	O 	0.61453	0.44488	0.94159	-0.383
Mof_C 	C 	0.602	0.3344	0.8611	0.132
Mof_H 	H 	0.57237	0.31996	0.87487	0.004
Mof_C 	C 	0.6252	0.3111	0.8207	-0.206
Mof_H 	H 	0.61124	0.28105	0.80744	0.105
Mof_O 	O 	0.61453	0.55512	0.05841	-0.424
Mof_C 	C 	0.602	0.6656	0.1389	0.144
Mof_H 	H 	0.57237	0.68004	0.12513	-0.008
Mof_C 	C 	0.6252	0.6889	0.1793	-0.22
Mof_H 	H 	0.61124	0.71895	0.19256	0.109
Mof_O 	O 	0.38547	0.55512	0.94159	-0.383
Mof_C 	C 	0.398	0.6656	0.8611	0.132
Mof_H 	H 	0.42763	0.68004	0.87487	0.004
Mof_C 	C 	0.3748	0.6889	0.8207	-0.207
Mof_H 	H 	0.38876	0.71895	0.80744	0.106
Mof_O 	O 	0.44488	0.94159	0.61453	-0.383
Mof_C 	C 	0.3344	0.8611	0.602	0.132
Mof_H 	H 	0.31996	0.87487	0.57237	0.004
Mof_C 	C 	0.3111	0.8207	0.6252	-0.206
Mof_H 	H 	0.28105	0.80744	0.61124	0.105
Mof_O 	O 	0.44488	0.05841	0.38547	-0.424
Mof_C 	C 	0.3344	0.1389	0.398	0.144
Mof_H 	H 	0.31996	0.12513	0.42763	-0.008
Mof_C 	C 	0.3111	0.1793	0.3748	-0.22
Mof_H 	H 	0.28105	0.19256	0.38876	0.109
Mof_O 	O 	0.55512	0.94159	0.38547	-0.383
Mof_C 	C 	0.6656	0.8611	0.398	0.132
Mof_H 	H 	0.68004	0.87487	0.42763	0.004
Mof_C 	C 	0.6889	0.8207	0.3748	-0.207
Mof_H 	H 	0.71895	0.80744	0.38876	0.106
Mof_O 	O 	0.55512	0.05841	0.61453	-0.424
Mof_C 	C 	0.6656	0.1389	0.602	0.144
Mof_H 	H 	0.68004	0.12513	0.57237	-0.008
Mof_C 	C 	0.6889	0.1793	0.6252	-0.22
Mof_H 	H 	0.71895	0.19256	0.61124	0.109
Mof_Mn	Mn	0.60644	0	0.5	0.79
Mof_Mn	Mn	0.39356	0	0.5	0.79
Mof_Mn	Mn	0.5	0.60644	-0	0.79
Mof_Mn	Mn	0.5	0.39356	-0	0.79
Mof_Mn	Mn	-3.4212e-33	0.5	0.60644	0.79
Mof_Mn	Mn	1.47561e-33	0.5	0.39356	0.79
Mof_Mn	Mn	1.8747e-33	0.60644	0.5	0.79
Mof_Mn	Mn	1.8747e-33	0.39356	0.5	0.79
Mof_Mn	Mn	0.60644	0.5	-0	0.79
Mof_Mn	Mn	0.39356	0.5	-0	0.79
Mof_Mn	Mn	0.5	0	0.39356	0.79
Mof_Mn	Mn	0.5	-5.69498e-33	0.60644	0.79
Mof_C 	C 	0.62115	0.1177	0.62115	-0.217
Mof_C 	C 	0.59514	0.07404	0.59514	0.454
Mof_C 	C 	0.6688	0.2008	0.6688	0.157
Mof_C 	C 	0.6929	0.2457	0.6929	-0.082
Mof_C 	C 	0.37885	0.8823	0.62115	-0.195
Mof_C 	C 	0.40486	0.92596	0.59514	0.447
Mof_C 	C 	0.3312	0.7992	0.6688	0.148
Mof_C 	C 	0.3071	0.7543	0.6929	-0.078
Mof_C 	C 	0.37885	0.1177	0.37885	-0.217
Mof_C 	C 	0.40486	0.07404	0.40486	0.454
Mof_C 	C 	0.3312	0.2008	0.3312	0.157
Mof_C 	C 	0.3071	0.2457	0.3071	-0.082
Mof_C 	C 	0.62115	0.8823	0.37885	-0.195
Mof_C 	C 	0.59514	0.92596	0.40486	0.447
Mof_C 	C 	0.6688	0.7992	0.3312	0.148
Mof_C 	C 	0.6929	0.7543	0.3071	-0.078
Mof_C 	C 	0.62115	0.62115	0.1177	-0.217
Mof_C 	C 	0.59514	0.59514	0.07404	0.454
Mof_C 	C 	0.6688	0.6688	0.2008	0.157
Mof_C 	C 	0.6929	0.6929	0.2457	-0.082
Mof_C 	C 	0.62115	0.37885	0.8823	-0.195
Mof_C 	C 	0.59514	0.40486	0.92596	0.447
Mof_C 	C 	0.6688	0.3312	0.7992	0.148
Mof_C 	C 	0.6929	0.3071	0.7543	-0.078
Mof_C 	C 	0.37885	0.37885	0.1177	-0.217
Mof_C 	C 	0.40486	0.40486	0.07404	0.454
Mof_C 	C 	0.3312	0.3312	0.2008	0.157
Mof_C 	C 	0.3071	0.3071	0.2457	-0.082
Mof_C 	C 	0.37885	0.62115	0.8823	-0.195
Mof_C 	C 	0.40486	0.59514	0.92596	0.447
Mof_C 	C 	0.3312	0.6688	0.7992	0.148
Mof_C 	C 	0.3071	0.6929	0.7543	-0.078
Mof_C 	C 	0.1177	0.62115	0.62115	-0.217
Mof_C 	C 	0.07404	0.59514	0.59514	0.454
Mof_C 	C 	0.2008	0.6688	0.6688	0.157
Mof_C 	C 	0.2457	0.6929	0.6929	-0.082
Mof_C 	C 	0.8823	0.62115	0.37885	-0.195
Mof_C 	C 	0.92596	0.59514	0.40486	0.447
Mof_C 	C 	0.7992	0.6688	0.3312	0.148
Mof_C 	C 	0.7543	0.6929	0.3071	-0.078
Mof_C 	C 	0.1177	0.37885	0.37885	-0.217
Mof_C 	C 	0.07404	0.40486	0.40486	0.454
Mof_C 	C 	0.2008	0.3312	0.3312	0.157
Mof_C 	C 	0.2457	0.3071	0.3071	-0.082
Mof_C 	C 	0.8823	0.37885	0.62115	-0.195
Mof_C 	C 	0.92596	0.40486	0.59514	0.447
Mof_C 	C 	0.7992	0.3312	0.6688	0.148
Mof_C 	C 	0.7543	0.3071	0.6929	-0.078
Mof_C 	C 	0.1177	0.62115	0.37885	-0.217
Mof_C 	C 	0.07404	0.59514	0.40486	0.454
Mof_C 	C 	0.2008	0.6688	0.3312	0.157
Mof_C 	C 	0.2457	0.6929	0.3071	-0.082
Mof_C 	C 	0.8823	0.37885	0.37885	-0.195
Mof_C 	C 	0.92596	0.40486	0.40486	0.447
Mof_C 	C 	0.7992	0.3312	0.3312	0.149
Mof_C 	C 	0.7543	0.3071	0.3071	-0.079
Mof_C 	C 	0.1177	0.37885	0.62115	-0.217
Mof_C 	C 	0.07404	0.40486	0.59514	0.454
Mof_C 	C 	0.2008	0.3312	0.6688	0.157
Mof_C 	C 	0.2457	0.3071	0.6929	-0.082
Mof_C 	C 	0.8823	0.62115	0.62115	-0.195
Mof_C 	C 	0.92596	0.59514	0.59514	0.447
Mof_C 	C 	0.7992	0.6688	0.6688	0.148
Mof_C 	C 	0.7543	0.6929	0.6929	-0.078
Mof_C 	C 	0.62115	0.62115	0.8823	-0.195
Mof_C 	C 	0.59514	0.59514	0.92596	0.447
Mof_C 	C 	0.6688	0.6688	0.7992	0.148
Mof_C 	C 	0.6929	0.6929	0.7543	-0.078
Mof_C 	C 	0.37885	0.62115	0.1177	-0.217
Mof_C 	C 	0.40486	0.59514	0.07404	0.454
Mof_C 	C 	0.3312	0.6688	0.2008	0.157
Mof_C 	C 	0.3071	0.6929	0.2457	-0.082
Mof_C 	C 	0.37885	0.37885	0.8823	-0.195
Mof_C 	C 	0.40486	0.40486	0.92596	0.447
Mof_C 	C 	0.3312	0.3312	0.7992	0.149
Mof_C 	C 	0.3071	0.3071	0.7543	-0.079
Mof_C 	C 	0.62115	0.37885	0.1177	-0.217
Mof_C 	C 	0.59514	0.40486	0.07404	0.454
Mof_C 	C 	0.6688	0.3312	0.2008	0.157
Mof_C 	C 	0.6929	0.3071	0.2457	-0.082
Mof_C 	C 	0.62115	0.1177	0.37885	-0.217
Mof_C 	C 	0.59514	0.07404	0.40486	0.454
Mof_C 	C 	0.6688	0.2008	0.3312	0.157
Mof_C 	C 	0.6929	0.2457	0.3071	-0.082
Mof_C 	C 	0.62115	0.8823	0.62115	-0.195
Mof_C 	C 	0.59514	0.92596	0.59514	0.447
Mof_C 	C 	0.6688	0.7992	0.6688	0.148
Mof_C 	C 	0.6929	0.7543	0.6929	-0.078
Mof_C 	C 	0.37885	0.1177	0.62115	-0.217
Mof_C 	C 	0.40486	0.07404	0.59514	0.454
Mof_C 	C 	0.3312	0.2008	0.6688	0.157
Mof_C 	C 	0.3071	0.2457	0.6929	-0.082
Mof_C 	C 	0.37885	0.8823	0.37885	-0.195
Mof_C 	C 	0.40486	0.92596	0.40486	0.447
Mof_C 	C 	0.3312	0.7992	0.3312	0.149
Mof_C 	C 	0.3071	0.7543	0.3071	-0.079
Mof_C 	C 	0.73457	0.26543	0.6704	0.036
Mof_C 	C 	0.26543	0.73457	0.6704	0.036
Mof_C 	C 	0.26543	0.26543	0.3296	0.038
Mof_C 	C 	0.73457	0.73457	0.3296	0.035
Mof_C 	C 	0.6704	0.73457	0.26543	0.036
Mof_C 	C 	0.6704	0.26543	0.73457	0.036
Mof_C 	C 	0.3296	0.26543	0.26543	0.038
Mof_C 	C 	0.3296	0.73457	0.73457	0.035
Mof_C 	C 	0.26543	0.6704	0.73457	0.036
Mof_C 	C 	0.73457	0.6704	0.26543	0.036
Mof_C 	C 	0.26543	0.3296	0.26543	0.038
Mof_C 	C 	0.73457	0.3296	0.73457	0.035
Mof_C 	C 	0.26543	0.73457	0.3296	0.036
Mof_C 	C 	0.73457	0.26543	0.3296	0.036
Mof_C 	C 	0.26543	0.26543	0.6704	0.037
Mof_C 	C 	0.73457	0.73457	0.6704	0.034
Mof_C 	C 	0.73457	0.6704	0.73457	0.034
Mof_C 	C 	0.26543	0.6704	0.26543	0.037
Mof_C 	C 	0.26543	0.3296	0.73457	0.036
Mof_C 	C 	0.73457	0.3296	0.26543	0.036
Mof_C 	C 	0.6704	0.26543	0.26543	0.037
Mof_C 	C 	0.6704	0.73457	0.73457	0.034
Mof_C 	C 	0.3296	0.26543	0.73457	0.036
Mof_C 	C 	0.3296	0.73457	0.26543	0.036
Mof_O 	O 	0.11453	0.55841	0.05512	-0.431
Mof_C 	C 	0.102	0.6389	0.1656	0.147
Mof_H 	H 	0.07237	0.62513	0.18004	-0.018
Mof_C 	C 	0.1252	0.6793	0.1889	-0.227
Mof_H 	H 	0.11124	0.69256	0.21895	0.105
Mof_O 	O 	0.88547	0.44159	0.05512	-0.421
Mof_C 	C 	0.898	0.3611	0.1656	0.137
Mof_H 	H 	0.92763	0.37487	0.18004	0.008
Mof_C 	C 	0.8748	0.3207	0.1889	-0.211
Mof_H 	H 	0.88876	0.30744	0.21895	0.111
Mof_O 	O 	0.88547	0.55841	0.94488	-0.376
Mof_C 	C 	0.898	0.6389	0.8344	0.131
Mof_H 	H 	0.92763	0.62513	0.81996	0.013
Mof_C 	C 	0.8748	0.6793	0.8111	-0.201
Mof_H 	H 	0.88876	0.69256	0.78105	0.112
Mof_O 	O 	0.11453	0.44159	0.94488	-0.386
Mof_C 	C 	0.102	0.3611	0.8344	0.137
Mof_H 	H 	0.07237	0.37487	0.81996	-0.013
Mof_C 	C 	0.1252	0.3207	0.8111	-0.215
Mof_H 	H 	0.11124	0.30744	0.78105	0.101
Mof_O 	O 	0.05512	0.11453	0.55841	-0.431
Mof_C 	C 	0.1656	0.102	0.6389	0.147
Mof_H 	H 	0.18004	0.07237	0.62513	-0.018
Mof_C 	C 	0.1889	0.1252	0.6793	-0.227
Mof_H 	H 	0.21895	0.11124	0.69256	0.105
Mof_O 	O 	0.05512	0.88547	0.44159	-0.421
Mof_C 	C 	0.1656	0.898	0.3611	0.137
Mof_H 	H 	0.18004	0.92763	0.37487	0.008
Mof_C 	C 	0.1889	0.8748	0.3207	-0.211
Mof_H 	H 	0.21895	0.88876	0.30744	0.111
Mof_O 	O 	0.94488	0.88547	0.55841	-0.376
Mof_C 	C 	0.8344	0.898	0.6389	0.131
Mof_H 	H 	0.81996	0.92763	0.62513	0.013
Mof_C 	C 	0.8111	0.8748	0.6793	-0.201
Mof_H 	H 	0.78105	0.88876	0.69256	0.112
Mof_O 	O 	0.94488	0.11453	0.44159	-0.386
Mof_C 	C 	0.8344	0.102	0.3611	0.137
Mof_H 	H 	0.81996	0.07237	0.37487	-0.013
Mof_C 	C 	0.8111	0.1252	0.3207	-0.215
Mof_H 	H 	0.78105	0.11124	0.30744	0.101
Mof_O 	O 	0.55841	0.05512	0.11453	-0.431
Mof_C 	C 	0.6389	0.1656	0.102	0.147
Mof_H 	H 	0.62513	0.18004	0.07237	-0.018
Mof_C 	C 	0.6793	0.1889	0.1252	-0.227
Mof_H 	H 	0.69256	0.21895	0.11124	0.105
Mof_O 	O 	0.44159	0.05512	0.88547	-0.421
Mof_C 	C 	0.3611	0.1656	0.898	0.137
Mof_H 	H 	0.37487	0.18004	0.92763	0.008
Mof_C 	C 	0.3207	0.1889	0.8748	-0.211
Mof_H 	H 	0.30744	0.21895	0.88876	0.111
Mof_O 	O 	0.55841	0.94488	0.88547	-0.376
Mof_C 	C 	0.6389	0.8344	0.898	0.131
Mof_H 	H 	0.62513	0.81996	0.92763	0.013
Mof_C 	C 	0.6793	0.8111	0.8748	-0.201
Mof_H 	H 	0.69256	0.78105	0.88876	0.112
Mof_O 	O 	0.44159	0.94488	0.11453	-0.386
Mof_C 	C 	0.3611	0.8344	0.102	0.137
Mof_H 	H 	0.37487	0.81996	0.07237	-0.013
Mof_C 	C 	0.3207	0.8111	0.1252	-0.215
Mof_H 	H 	0.30744	0.78105	0.11124	0.101
Mof_O 	O 	0.55841	0.11453	0.94488	-0.386
Mof_C 	C 	0.6389	0.102	0.8344	0.139
Mof_H 	H 	0.62513	0.07237	0.81996	-0.013
Mof_C 	C 	0.6793	0.1252	0.8111	-0.216
Mof_H 	H 	0.69256	0.11124	0.78105	0.103
Mof_O 	O 	0.44159	0.88547	0.94488	-0.376
Mof_C 	C 	0.3611	0.898	0.8344	0.129
Mof_H 	H 	0.37487	0.92763	0.81996	0.013
Mof_C 	C 	0.3207	0.8748	0.8111	-0.2
Mof_H 	H 	0.30744	0.88876	0.78105	0.11
Mof_O 	O 	0.55841	0.88547	0.05512	-0.421
Mof_C 	C 	0.6389	0.898	0.1656	0.139
Mof_H 	H 	0.62513	0.92763	0.18004	0.008
Mof_C 	C 	0.6793	0.8748	0.1889	-0.211
Mof_H 	H 	0.69256	0.88876	0.21895	0.113
Mof_O 	O 	0.44159	0.11453	0.05512	-0.431
Mof_C 	C 	0.3611	0.102	0.1656	0.145
Mof_H 	H 	0.37487	0.07237	0.18004	-0.018
Mof_C 	C 	0.3207	0.1252	0.1889	-0.226
Mof_H 	H 	0.30744	0.11124	0.21895	0.103
Mof_O 	O 	0.11453	0.05512	0.44159	-0.431
Mof_C 	C 	0.102	0.1656	0.3611	0.145
Mof_H 	H 	0.07237	0.18004	0.37487	-0.018
Mof_C 	C 	0.1252	0.1889	0.3207	-0.226
Mof_H 	H 	0.11124	0.21895	0.30744	0.103
Mof_O 	O 	0.88547	0.05512	0.55841	-0.421
Mof_C 	C 	0.898	0.1656	0.6389	0.139
Mof_H 	H 	0.92763	0.18004	0.62513	0.008
Mof_C 	C 	0.8748	0.1889	0.6793	-0.211
Mof_H 	H 	0.88876	0.21895	0.69256	0.113
Mof_O 	O 	0.88547	0.94488	0.44159	-0.376
Mof_C 	C 	0.898	0.8344	0.3611	0.129
Mof_H 	H 	0.92763	0.81996	0.37487	0.013
Mof_C 	C 	0.8748	0.8111	0.3207	-0.2
Mof_H 	H 	0.88876	0.78105	0.30744	0.11
Mof_O 	O 	0.11453	0.94488	0.55841	-0.386
Mof_C 	C 	0.102	0.8344	0.6389	0.139
Mof_H 	H 	0.07237	0.81996	0.62513	-0.013
Mof_C 	C 	0.1252	0.8111	0.6793	-0.216
Mof_H 	H 	0.11124	0.78105	0.69256	0.103
Mof_O 	O 	0.05512	0.55841	0.88547	-0.421
Mof_C 	C 	0.1656	0.6389	0.898	0.139
Mof_H 	H 	0.18004	0.62513	0.92763	0.008
Mof_C 	C 	0.1889	0.6793	0.8748	-0.211
Mof_H 	H 	0.21895	0.69256	0.88876	0.113
Mof_O 	O 	0.05512	0.44159	0.11453	-0.431
Mof_C 	C 	0.1656	0.3611	0.102	0.145
Mof_H 	H 	0.18004	0.37487	0.07237	-0.018
Mof_C 	C 	0.1889	0.3207	0.1252	-0.226
Mof_H 	H 	0.21895	0.30744	0.11124	0.103
Mof_O 	O 	0.94488	0.55841	0.11453	-0.386
Mof_C 	C 	0.8344	0.6389	0.102	0.139
Mof_H 	H 	0.81996	0.62513	0.07237	-0.013
Mof_C 	C 	0.8111	0.6793	0.1252	-0.216
Mof_H 	H 	0.78105	0.69256	0.11124	0.103
Mof_O 	O 	0.94488	0.44159	0.88547	-0.376
Mof_C 	C 	0.8344	0.3611	0.898	0.129
Mof_H 	H 	0.81996	0.37487	0.92763	0.013
Mof_C 	C 	0.8111	0.3207	0.8748	-0.2
Mof_H 	H 	0.78105	0.30744	0.88876	0.11
Mof_O 	O 	0.88547	0.44159	0.94488	-0.376
Mof_C 	C 	0.898	0.3611	0.8344	0.129
Mof_H 	H 	0.92763	0.37487	0.81996	0.013
Mof_C 	C 	0.8748	0.3207	0.8111	-0.2
Mof_H 	H 	0.88876	0.30744	0.78105	0.11
Mof_O 	O 	0.11453	0.55841	0.94488	-0.386
Mof_C 	C 	0.102	0.6389	0.8344	0.139
Mof_H 	H 	0.07237	0.62513	0.81996	-0.013
Mof_C 	C 	0.1252	0.6793	0.8111	-0.216
Mof_H 	H 	0.11124	0.69256	0.78105	0.103
Mof_O 	O 	0.11453	0.44159	0.05512	-0.431
Mof_C 	C 	0.102	0.3611	0.1656	0.145
Mof_H 	H 	0.07237	0.37487	0.18004	-0.018
Mof_C 	C 	0.1252	0.3207	0.1889	-0.226
Mof_H 	H 	0.11124	0.30744	0.21895	0.103
Mof_O 	O 	0.88547	0.55841	0.05512	-0.421
Mof_C 	C 	0.898	0.6389	0.1656	0.139
Mof_H 	H 	0.92763	0.62513	0.18004	0.008
Mof_C 	C 	0.8748	0.6793	0.1889	-0.211
Mof_H 	H 	0.88876	0.69256	0.21895	0.113
Mof_O 	O 	0.94488	0.88547	0.44159	-0.376
Mof_C 	C 	0.8344	0.898	0.3611	0.129
Mof_H 	H 	0.81996	0.92763	0.37487	0.013
Mof_C 	C 	0.8111	0.8748	0.3207	-0.2
Mof_H 	H 	0.78105	0.88876	0.30744	0.11
Mof_O 	O 	0.94488	0.11453	0.55841	-0.386
Mof_C 	C 	0.8344	0.102	0.6389	0.139
Mof_H 	H 	0.81996	0.07237	0.62513	-0.013
Mof_C 	C 	0.8111	0.1252	0.6793	-0.216
Mof_H 	H 	0.78105	0.11124	0.69256	0.103
Mof_O 	O 	0.05512	0.11453	0.44159	-0.431
Mof_C 	C 	0.1656	0.102	0.3611	0.145
Mof_H 	H 	0.18004	0.07237	0.37487	-0.018
Mof_C 	C 	0.1889	0.1252	0.3207	-0.226
Mof_H 	H 	0.21895	0.11124	0.30744	0.103
Mof_O 	O 	0.05512	0.88547	0.55841	-0.421
Mof_C 	C 	0.1656	0.898	0.6389	0.139
Mof_H 	H 	0.18004	0.92763	0.62513	0.008
Mof_C 	C 	0.1889	0.8748	0.6793	-0.211
Mof_H 	H 	0.21895	0.88876	0.69256	0.113
Mof_O 	O 	0.44159	0.94488	0.88547	-0.376
Mof_C 	C 	0.3611	0.8344	0.898	0.129
Mof_H 	H 	0.37487	0.81996	0.92763	0.013
Mof_C 	C 	0.3207	0.8111	0.8748	-0.2
Mof_H 	H 	0.30744	0.78105	0.88876	0.11
Mof_O 	O 	0.55841	0.94488	0.11453	-0.386
Mof_C 	C 	0.6389	0.8344	0.102	0.139
Mof_H 	H 	0.62513	0.81996	0.07237	-0.013
Mof_C 	C 	0.6793	0.8111	0.1252	-0.216
Mof_H 	H 	0.69256	0.78105	0.11124	0.103
Mof_O 	O 	0.44159	0.05512	0.11453	-0.431
Mof_C 	C 	0.3611	0.1656	0.102	0.145
Mof_H 	H 	0.37487	0.18004	0.07237	-0.018
Mof_C 	C 	0.3207	0.1889	0.1252	-0.226
Mof_H 	H 	0.30744	0.21895	0.11124	0.103
Mof_O 	O 	0.55841	0.05512	0.88547	-0.421
Mof_C 	C 	0.6389	0.1656	0.898	0.139
Mof_H 	H 	0.62513	0.18004	0.92763	0.008
Mof_C 	C 	0.6793	0.1889	0.8748	-0.211
Mof_H 	H 	0.69256	0.21895	0.88876	0.113
Mof_O 	O 	0.44159	0.88547	0.05512	-0.421
Mof_C 	C 	0.3611	0.898	0.1656	0.137
Mof_H 	H 	0.37487	0.92763	0.18004	0.008
Mof_C 	C 	0.3207	0.8748	0.1889	-0.211
Mof_H 	H 	0.30744	0.88876	0.21895	0.111
Mof_O 	O 	0.55841	0.11453	0.05512	-0.431
Mof_C 	C 	0.6389	0.102	0.1656	0.147
Mof_H 	H 	0.62513	0.07237	0.18004	-0.018
Mof_C 	C 	0.6793	0.1252	0.1889	-0.227
Mof_H 	H 	0.69256	0.11124	0.21895	0.105
Mof_O 	O 	0.44159	0.11453	0.94488	-0.386
Mof_C 	C 	0.3611	0.102	0.8344	0.137
Mof_H 	H 	0.37487	0.07237	0.81996	-0.013
Mof_C 	C 	0.3207	0.1252	0.8111	-0.215
Mof_H 	H 	0.30744	0.11124	0.78105	0.101
Mof_O 	O 	0.55841	0.88547	0.94488	-0.376
Mof_C 	C 	0.6389	0.898	0.8344	0.131
Mof_H 	H 	0.62513	0.92763	0.81996	0.013
Mof_C 	C 	0.6793	0.8748	0.8111	-0.201
Mof_H 	H 	0.69256	0.88876	0.78105	0.112
Mof_O 	O 	0.88547	0.94488	0.55841	-0.376
Mof_C 	C 	0.898	0.8344	0.6389	0.131
Mof_H 	H 	0.92763	0.81996	0.62513	0.013
Mof_C 	C 	0.8748	0.8111	0.6793	-0.201
Mof_H 	H 	0.88876	0.78105	0.69256	0.112
Mof_O 	O 	0.11453	0.94488	0.44159	-0.386
Mof_C 	C 	0.102	0.8344	0.3611	0.137
Mof_H 	H 	0.07237	0.81996	0.37487	-0.013
Mof_C 	C 	0.1252	0.8111	0.3207	-0.215
Mof_H 	H 	0.11124	0.78105	0.30744	0.101
Mof_O 	O 	0.11453	0.05512	0.55841	-0.431
Mof_C 	C 	0.102	0.1656	0.6389	0.147
Mof_H 	H 	0.07237	0.18004	0.62513	-0.018
Mof_C 	C 	0.1252	0.1889	0.6793	-0.227
Mof_H 	H 	0.11124	0.21895	0.69256	0.105
Mof_O 	O 	0.88547	0.05512	0.44159	-0.421
Mof_C 	C 	0.898	0.1656	0.3611	0.137
Mof_H 	H 	0.92763	0.18004	0.37487	0.008
Mof_C 	C 	0.8748	0.1889	0.3207	-0.211
Mof_H 	H 	0.88876	0.21895	0.30744	0.111
Mof_O 	O 	0.94488	0.44159	0.11453	-0.386
Mof_C 	C 	0.8344	0.3611	0.102	0.137
Mof_H 	H 	0.81996	0.37487	0.07237	-0.013
Mof_C 	C 	0.8111	0.3207	0.1252	-0.215
Mof_H 	H 	0.78105	0.30744	0.11124	0.101
Mof_O 	O 	0.94488	0.55841	0.88547	-0.376
Mof_C 	C 	0.8344	0.6389	0.898	0.131
Mof_H 	H 	0.81996	0.62513	0.92763	0.013
Mof_C 	C 	0.8111	0.6793	0.8748	-0.201
Mof_H 	H 	0.78105	0.69256	0.88876	0.112
Mof_O 	O 	0.05512	0.44159	0.88547	-0.421
Mof_C 	C 	0.1656	0.3611	0.898	0.137
Mof_H 	H 	0.18004	0.37487	0.92763	0.008
Mof_C 	C 	0.1889	0.3207	0.8748	-0.211
Mof_H 	H 	0.21895	0.30744	0.88876	0.111
Mof_O 	O 	0.05512	0.55841	0.11453	-0.431
Mof_C 	C 	0.1656	0.6389	0.102	0.147
Mof_H 	H 	0.18004	0.62513	0.07237	-0.018
Mof_C 	C 	0.1889	0.6793	0.1252	-0.227
Mof_H 	H 	0.21895	0.69256	0.11124	0.105
Mof_Mn	Mn	0.10644	0.5	-0	0.778
Mof_Mn	Mn	0.89356	0.5	-0	0.805
Mof_Mn	Mn	-3.82028e-33	0.10644	0.5	0.778
Mof_Mn	Mn	7.56968e-33	0.89356	0.5	0.805
Mof_Mn	Mn	0.5	0	0.10644	0.778
Mof_Mn	Mn	0.5	0	0.89356	0.805
Mof_Mn	Mn	0.5	0.10644	-0	0.778
Mof_Mn	Mn	0.5	0.89356	-0	0.805
Mof_Mn	Mn	0.10644	0	0.5	0.778
Mof_Mn	Mn	0.89356	0	0.5	0.805
Mof_Mn	Mn	3.35031e-33	0.5	0.89356	0.805
Mof_Mn	Mn	-1.02466e-33	0.5	0.10644	0.778
Mof_C 	C 	0.12115	0.6177	0.12115	-0.226
Mof_C 	C 	0.09514	0.57404	0.09514	0.459
Mof_C 	C 	0.1688	0.7008	0.1688	0.156
Mof_C 	C 	0.1929	0.7457	0.1929	-0.082
Mof_C 	C 	0.87885	0.3823	0.12115	-0.206
Mof_C 	C 	0.90486	0.42596	0.09514	0.45
Mof_C 	C 	0.8312	0.2992	0.1688	0.151
Mof_C 	C 	0.8071	0.2543	0.1929	-0.08
Mof_C 	C 	0.87885	0.6177	0.87885	-0.186
Mof_C 	C 	0.90486	0.57404	0.90486	0.443
Mof_C 	C 	0.8312	0.7008	0.8312	0.153
Mof_C 	C 	0.8071	0.7457	0.8071	-0.079
Mof_C 	C 	0.12115	0.3823	0.87885	-0.206
Mof_C 	C 	0.09514	0.42596	0.90486	0.45
Mof_C 	C 	0.1688	0.2992	0.8312	0.151
Mof_C 	C 	0.1929	0.2543	0.8071	-0.08
Mof_C 	C 	0.12115	0.12115	0.6177	-0.226
Mof_C 	C 	0.09514	0.09514	0.57404	0.459
Mof_C 	C 	0.1688	0.1688	0.7008	0.156
Mof_C 	C 	0.1929	0.1929	0.7457	-0.082
Mof_C 	C 	0.12115	0.87885	0.3823	-0.206
Mof_C 	C 	0.09514	0.90486	0.42596	0.45
Mof_C 	C 	0.1688	0.8312	0.2992	0.151
Mof_C 	C 	0.1929	0.8071	0.2543	-0.08
Mof_C 	C 	0.87885	0.87885	0.6177	-0.186
Mof_C 	C 	0.90486	0.90486	0.57404	0.443
Mof_C 	C 	0.8312	0.8312	0.7008	0.153
Mof_C 	C 	0.8071	0.8071	0.7457	-0.079
Mof_C 	C 	0.87885	0.12115	0.3823	-0.206
Mof_C 	C 	0.90486	0.09514	0.42596	0.45
Mof_C 	C 	0.8312	0.1688	0.2992	0.151
Mof_C 	C 	0.8071	0.1929	0.2543	-0.08
Mof_C 	C 	0.6177	0.12115	0.12115	-0.226
Mof_C 	C 	0.57404	0.09514	0.09514	0.459
Mof_C 	C 	0.7008	0.1688	0.1688	0.156
Mof_C 	C 	0.7457	0.1929	0.1929	-0.082
Mof_C 	C 	0.3823	0.12115	0.87885	-0.206
Mof_C 	C 	0.42596	0.09514	0.90486	0.45
Mof_C 	C 	0.2992	0.1688	0.8312	0.151
Mof_C 	C 	0.2543	0.1929	0.8071	-0.08
Mof_C 	C 	0.6177	0.87885	0.87885	-0.186
Mof_C 	C 	0.57404	0.90486	0.90486	0.443
Mof_C 	C 	0.7008	0.8312	0.8312	0.153
Mof_C 	C 	0.7457	0.8071	0.8071	-0.079
Mof_C 	C 	0.3823	0.87885	0.12115	-0.206
Mof_C 	C 	0.42596	0.90486	0.09514	0.45
Mof_C 	C 	0.2992	0.8312	0.1688	0.151
Mof_C 	C 	0.2543	0.8071	0.1929	-0.08
Mof_C 	C 	0.6177	0.12115	0.87885	-0.206
Mof_C 	C 	0.57404	0.09514	0.90486	0.451
Mof_C 	C 	0.7008	0.1688	0.8312	0.155
Mof_C 	C 	0.7457	0.1929	0.8071	-0.081
Mof_C 	C 	0.3823	0.87885	0.87885	-0.186
Mof_C 	C 	0.42596	0.90486	0.90486	0.443
Mof_C 	C 	0.2992	0.8312	0.8312	0.15
Mof_C 	C 	0.2543	0.8071	0.8071	-0.078
Mof_C 	C 	0.6177	0.87885	0.12115	-0.206
Mof_C 	C 	0.57404	0.90486	0.09514	0.451
Mof_C 	C 	0.7008	0.8312	0.1688	0.155
Mof_C 	C 	0.7457	0.8071	0.1929	-0.081
Mof_C 	C 	0.3823	0.12115	0.12115	-0.226
Mof_C 	C 	0.42596	0.09514	0.09514	0.458
Mof_C 	C 	0.2992	0.1688	0.1688	0.152
Mof_C 	C 	0.2543	0.1929	0.1929	-0.082
Mof_C 	C 	0.12115	0.12115	0.3823	-0.226
Mof_C 	C 	0.09514	0.09514	0.42596	0.458
Mof_C 	C 	0.1688	0.1688	0.2992	0.152
Mof_C 	C 	0.1929	0.1929	0.2543	-0.082
Mof_C 	C 	0.87885	0.12115	0.6177	-0.206
Mof_C 	C 	0.90486	0.09514	0.57404	0.451
Mof_C 	C 	0.8312	0.1688	0.7008	0.155
Mof_C 	C 	0.8071	0.1929	0.7457	-0.081
Mof_C 	C 	0.87885	0.87885	0.3823	-0.186
Mof_C 	C 	0.90486	0.90486	0.42596	0.443
Mof_C 	C 	0.8312	0.8312	0.2992	0.15
Mof_C 	C 	0.8071	0.8071	0.2543	-0.078
Mof_C 	C 	0.12115	0.87885	0.6177	-0.206
Mof_C 	C 	0.09514	0.90486	0.57404	0.451
Mof_C 	C 	0.1688	0.8312	0.7008	0.155
Mof_C 	C 	0.1929	0.8071	0.7457	-0.081
Mof_C 	C 	0.12115	0.6177	0.87885	-0.206
Mof_C 	C 	0.09514	0.57404	0.90486	0.451
Mof_C 	C 	0.1688	0.7008	0.8312	0.155
Mof_C 	C 	0.1929	0.7457	0.8071	-0.081
Mof_C 	C 	0.12115	0.3823	0.12115	-0.226
Mof_C 	C 	0.09514	0.42596	0.09514	0.458
Mof_C 	C 	0.1688	0.2992	0.1688	0.152
Mof_C 	C 	0.1929	0.2543	0.1929	-0.082
Mof_C 	C 	0.87885	0.6177	0.12115	-0.206
Mof_C 	C 	0.90486	0.57404	0.09514	0.451
Mof_C 	C 	0.8312	0.7008	0.1688	0.155
Mof_C 	C 	0.8071	0.7457	0.1929	-0.081
Mof_C 	C 	0.87885	0.3823	0.87885	-0.186
Mof_C 	C 	0.90486	0.42596	0.90486	0.443
Mof_C 	C 	0.8312	0.2992	0.8312	0.15
Mof_C 	C 	0.8071	0.2543	0.8071	-0.078
Mof_C 	C 	0.23457	0.76543	0.1704	0.031
Mof_C 	C 	0.76543	0.23457	0.1704	0.031
Mof_C 	C 	0.76543	0.76543	0.8296	0.045
Mof_C 	C 	0.23457	0.23457	0.8296	0.037
Mof_C 	C 	0.1704	0.23457	0.76543	0.031
Mof_C 	C 	0.1704	0.76543	0.23457	0.031
Mof_C 	C 	0.8296	0.76543	0.76543	0.045
Mof_C 	C 	0.8296	0.23457	0.23457	0.037
Mof_C 	C 	0.76543	0.1704	0.23457	0.031
Mof_C 	C 	0.23457	0.1704	0.76543	0.031
Mof_C 	C 	0.76543	0.8296	0.76543	0.045
Mof_C 	C 	0.23457	0.8296	0.23457	0.037
Mof_C 	C 	0.76543	0.23457	0.8296	0.041
Mof_C 	C 	0.23457	0.76543	0.8296	0.041
Mof_C 	C 	0.76543	0.76543	0.1704	0.036
Mof_C 	C 	0.23457	0.23457	0.1704	0.027
Mof_C 	C 	0.23457	0.1704	0.23457	0.027
Mof_C 	C 	0.76543	0.1704	0.76543	0.036
Mof_C 	C 	0.76543	0.8296	0.23457	0.041
Mof_C 	C 	0.23457	0.8296	0.76543	0.041
Mof_C 	C 	0.1704	0.76543	0.76543	0.036
Mof_C 	C 	0.1704	0.23457	0.23457	0.027
Mof_C 	C 	0.8296	0.76543	0.23457	0.041
Mof_C 	C 	0.8296	0.23457	0.76543	0.041
_end
