data_functionalizedCrystal
_audit_creation_method	'EQeq! by Chris Wilmer'
_symmetry_space_group_name_H-M	'P1'
_symmetry_Int_Tables_number	1
_symmetry_cell_setting	triclinic
loop_
_symmetry_equiv_pos_as_xyz
  x,y,z
_cell_length_a	9.8283
_cell_length_b	10.4362
_cell_length_c	11.076
_cell_angle_alpha	76.894
_cell_angle_beta	76.296
_cell_angle_gamma	65.999
loop_
_atom_site_label
_atom_site_type_symbol
_atom_site_fract_x
_atom_site_fract_y
_atom_site_fract_z
_atom_site_charge
Mof_Dy	Dy	0.94493	0.22808	0.82291	1.745
Mof_Dy	Dy	0.05507	0.77192	0.17709	1.745
Mof_H 	H 	0.3078	0.9222	0.5063	0.054
Mof_H 	H 	0.4552	0.1849	0.6049	0.05
Mof_H 	H 	0.4357	0.4149	0.709	0.04
Mof_H 	H 	0.74	0.5023	0.4238	0.052
Mof_H 	H 	0.6003	0.1182	0.821	0.039
Mof_H 	H 	0.6494	0.8596	0.1501	0.028
Mof_H 	H 	0.6922	0.0778	0.4937	0.053
Mof_H 	H 	0.5448	0.8151	0.3951	0.049
Mof_H 	H 	0.5643	0.5851	0.291	0.04
Mof_H 	H 	0.26	0.4977	0.5762	0.052
Mof_H 	H 	0.3997	0.8818	0.179	0.039
Mof_H 	H 	0.3506	0.1404	0.8499	0.028
Mof_C 	C 	0.3569	0.0651	0.5674	-0.055
Mof_C 	C 	0.3846	0.9535	0.5039	-0.034
Mof_C 	C 	0.4731	0.1106	0.5627	-0.027
Mof_C 	C 	0.2054	0.1316	0.6456	0.306
Mof_C 	C 	0.608	0.4486	0.5793	-0.064
Mof_C 	C 	0.4615	0.4487	0.6251	-0.027
Mof_C 	C 	0.6439	0.501	0.4544	-0.029
Mof_C 	C 	0.7236	0.3893	0.6651	0.309
Mof_C 	C 	0.6493	0.9861	0.983	-0.153
Mof_C 	C 	0.56	0.0708	0.8927	-0.007
Mof_C 	C 	0.5895	0.9159	0.0898	0.006
Mof_C 	C 	0.8096	0.9768	0.9669	0.47
Mof_C 	C 	0.6431	0.9349	0.4326	-0.055
Mof_C 	C 	0.6154	0.0465	0.4961	-0.034
Mof_C 	C 	0.5269	0.8894	0.4373	-0.027
Mof_C 	C 	0.7946	0.8684	0.3544	0.306
Mof_C 	C 	0.392	0.5514	0.4207	-0.064
Mof_C 	C 	0.5385	0.5513	0.3749	-0.027
Mof_C 	C 	0.3561	0.499	0.5456	-0.029
Mof_C 	C 	0.2764	0.6107	0.3349	0.309
Mof_C 	C 	0.3507	0.0139	0.017	-0.153
Mof_C 	C 	0.44	0.9292	0.1073	-0.007
Mof_C 	C 	0.4105	0.0841	0.9102	0.006
Mof_C 	C 	0.1904	0.0232	0.0331	0.47
Mof_O 	O 	0.17234	0.24758	0.68167	-0.408
Mof_O 	O 	0.1167	0.0647	0.67817	-0.386
Mof_O 	O 	0.6851	0.35	0.7796	-0.437
Mof_O 	O 	0.858	0.3768	0.62319	-0.398
Mof_O 	O 	0.85732	0.04738	0.8723	-0.522
Mof_O 	O 	0.884	0.8977	0.05058	-0.551
Mof_O 	O 	0.82766	0.75242	0.31833	-0.408
Mof_O 	O 	0.8833	0.9353	0.32183	-0.386
Mof_O 	O 	0.3149	0.65	0.2204	-0.437
Mof_O 	O 	0.142	0.6232	0.37681	-0.398
Mof_O 	O 	0.14268	0.95262	0.1277	-0.522
Mof_O 	O 	0.116	0.1023	0.94942	-0.551
_end
