data_functionalizedCrystal
_audit_creation_method	'EQeq! by Chris Wilmer'
_symmetry_space_group_name_H-M	'P1'
_symmetry_Int_Tables_number	1
_symmetry_cell_setting	triclinic
loop_
_symmetry_equiv_pos_as_xyz
  x,y,z
_cell_length_a	12.5738
_cell_length_b	12.5738
_cell_length_c	14.334
_cell_angle_alpha	90
_cell_angle_beta	90
_cell_angle_gamma	120
loop_
_atom_site_label
_atom_site_type_symbol
_atom_site_fract_x
_atom_site_fract_y
_atom_site_fract_z
_atom_site_charge
Mof_Mg	Mg	0.2061	0.4865	0.5	1.471
Mof_Mg	Mg	0.4865	0.2804	0.5	1.47
Mof_Mg	Mg	0.2804	0.7939	0.5	1.47
Mof_Mg	Mg	0.7939	0.5135	0.5	1.47
Mof_Mg	Mg	0.7196	0.2061	0.5	1.47
Mof_Mg	Mg	0.5135	0.7196	0.5	1.47
Mof_C 	C 	0.4899	0.8804	0.6471	0.429
Mof_C 	C 	0.3935	0.4819	0.9485	0.019
Mof_C 	C 	0.9116	0.3938	0.9486	0.032
Mof_C 	C 	0.4894	0.8803	0.353	0.428
Mof_C 	C 	0.708	0.5346	0.102	-0.065
Mof_C 	C 	0.5101	0.1196	0.3529	0.432
Mof_C 	C 	0.5001	0.4999	0.1021	-0.053
Mof_C 	C 	0.9077	0.3936	0.75	-0.137
Mof_C 	C 	0.6062	0.5178	0.9486	0.018
Mof_C 	C 	0.9116	0.3935	0.0515	0.006
Mof_C 	C 	0.4859	0.0922	0.2504	-0.149
Mof_C 	C 	0.3909	0.5106	0.353	0.429
Mof_C 	C 	0.4999	0.9998	0.8979	-0.024
Mof_C 	C 	0.9998	0.4999	0.1021	-0.024
Mof_C 	C 	0.0884	0.6062	0.0514	-0.001
Mof_C 	C 	0.8804	0.3905	0.3529	0.429
Mof_C 	C 	0.7081	0.5333	0.8004	0.036
Mof_C 	C 	0.6091	0.4894	0.647	0.429
Mof_C 	C 	0.1735	0.708	0.1018	-0.055
Mof_C 	C 	0.1744	0.7075	0.8005	0.039
Mof_C 	C 	0.0884	0.6065	0.9485	0.027
Mof_C 	C 	0.5002	2.57246e-32	0.7974	0.089
Mof_C 	C 	0.5106	0.1197	0.647	0.425
Mof_C 	C 	0.1748	0.7081	0.1996	0.028
Mof_C 	C 	0.4998	0.4998	0.7974	0.116
Mof_C 	C 	0.5178	0.9116	0.0514	0.032
Mof_C 	C 	0.0923	0.6064	0.25	-0.135
Mof_C 	C 	0.0002	0.5001	0.8979	-0.065
Mof_C 	C 	0.5001	0.0002	0.1021	-0.065
Mof_C 	C 	0.6065	0.5181	0.0515	0.019
Mof_C 	C 	0.3937	0.4859	0.7496	-0.149
Mof_C 	C 	0.5141	0.9078	0.7496	-0.13
Mof_C 	C 	0.6095	0.4899	0.3529	0.433
Mof_C 	C 	4.52969e-18	0.5002	0.7974	0.11
Mof_C 	C 	0.8256	0.2925	0.1995	0.028
Mof_C 	C 	0.5002	0.5002	0.2026	0.116
Mof_C 	C 	0.4654	0.1734	0.102	-0.07
Mof_C 	C 	0.7075	0.5331	0.1995	0.038
Mof_C 	C 	0.6063	0.5141	0.2504	-0.148
Mof_C 	C 	0.3936	0.4859	0.25	-0.145
Mof_C 	C 	0.292	0.4654	0.898	-0.066
Mof_C 	C 	0.5331	0.8256	0.8005	0.029
Mof_C 	C 	0.4859	0.0923	0.75	-0.136
Mof_C 	C 	0.8266	0.292	0.102	-0.056
Mof_C 	C 	0.292	0.4655	0.1018	-0.065
Mof_C 	C 	0.4822	0.0884	0.9486	-0.001
Mof_C 	C 	0.0922	0.6063	0.7496	-0.149
Mof_C 	C 	0.5333	0.8252	0.1996	0.036
Mof_C 	C 	0.4667	0.1748	0.8004	0.028
Mof_C 	C 	0.8252	0.2919	0.8004	0.036
Mof_C 	C 	0.5141	0.9077	0.25	-0.136
Mof_C 	C 	0.5346	0.8266	0.898	-0.056
Mof_C 	C 	0.9078	0.3937	0.2504	-0.13
Mof_C 	C 	0.5345	0.8265	0.1018	-0.067
Mof_C 	C 	0.1196	0.6095	0.6471	0.432
Mof_C 	C 	0.4669	0.1744	0.1995	0.039
Mof_C 	C 	0.6064	0.5141	0.75	-0.144
Mof_C 	C 	0.8265	0.292	0.8982	-0.068
Mof_C 	C 	0.4655	0.1735	0.8982	-0.056
Mof_C 	C 	0.4999	0.5001	0.8979	-0.053
Mof_C 	C 	0.5181	0.9116	0.9485	0.006
Mof_C 	C 	0.2925	0.4669	0.8005	0.038
Mof_C 	C 	0.1197	0.6091	0.353	0.424
Mof_C 	C 	0.3938	0.4822	0.0514	0.018
Mof_C 	C 	0.2919	0.4667	0.1996	0.035
Mof_C 	C 	0.3905	0.5101	0.6471	0.434
Mof_C 	C 	0.8803	0.3909	0.647	0.428
Mof_C 	C 	-5.7248e-17	0.4998	0.2026	0.089
Mof_C 	C 	0.4998	3.21558e-33	0.2026	0.11
Mof_C 	C 	0.708	0.5345	0.8982	-0.064
Mof_C 	C 	0.1734	0.708	0.898	-0.069
Mof_C 	C 	0.4819	0.0884	0.0515	0.026
Mof_O 	O 	0.4821	0.6044	0.3863	-0.499
Mof_O 	O 	0.6041	0.1222	0.3862	-0.501
Mof_O 	O 	0.8778	0.4819	0.3862	-0.495
Mof_O 	O 	0.1456	0.7069	0.6035	-0.498
Mof_O 	O 	0.1456	0.707	0.3966	-0.495
Mof_O 	O 	0.707	0.5614	0.6034	-0.494
Mof_O 	O 	0.7069	0.5613	0.3965	-0.496
Mof_O 	O 	0.8544	0.293	0.6034	-0.494
Mof_O 	O 	0.5613	0.8544	0.6035	-0.494
Mof_O 	O 	0.1222	0.5181	0.6138	-0.501
Mof_O 	O 	0.4387	0.1456	0.3965	-0.5
Mof_O 	O 	0.1223	0.5179	0.3863	-0.501
Mof_O 	O 	0.33333	0.66666	0.5001	-0.767
Mof_O 	O 	0.5179	0.3956	0.6137	-0.5
Mof_O 	O 	0.5614	0.8544	0.3966	-0.493
Mof_O 	O 	0.66667	0.33334	0.4999	-0.767
Mof_O 	O 	0.6044	0.1223	0.6137	-0.501
Mof_O 	O 	0.2931	0.4387	0.6035	-0.499
Mof_O 	O 	0.5181	0.3959	0.3862	-0.499
Mof_O 	O 	0.4386	0.1456	0.6034	-0.497
Mof_O 	O 	0.3959	0.8778	0.6138	-0.495
Mof_O 	O 	0.8544	0.2931	0.3965	-0.496
Mof_O 	O 	0.293	0.4386	0.3966	-0.497
Mof_O 	O 	0.3956	0.8777	0.3863	-0.497
Mof_O 	O 	0.8777	0.4821	0.6137	-0.496
Mof_O 	O 	0.4819	0.6041	0.6138	-0.499
Mof_H 	H 	0.79409	0.54977	0.06393	0.047
Mof_H 	H 	0.79435	0.54858	0.76251	0.038
Mof_H 	H 	0.24438	0.79399	0.06359	0.044
Mof_H 	H 	0.24579	0.79395	0.76306	0.036
Mof_H 	H 	0.24491	0.79327	0.23905	0.039
Mof_H 	H 	0.75548	0.20764	0.23925	0.038
Mof_H 	H 	0.4504	0.24332	0.06221	0.046
Mof_H 	H 	0.79236	0.54784	0.23925	0.038
Mof_H 	H 	0.20591	0.45023	0.93607	0.045
Mof_H 	H 	0.54816	0.75421	0.76306	0.038
Mof_H 	H 	0.75568	0.20591	0.06393	0.043
Mof_H 	H 	0.20601	0.45039	0.06359	0.044
Mof_H 	H 	0.54858	0.75423	0.23749	0.037
Mof_H 	H 	0.45142	0.24577	0.76251	0.037
Mof_H 	H 	0.75423	0.20565	0.76251	0.036
Mof_H 	H 	0.5496	0.75668	0.93779	0.044
Mof_H 	H 	0.54961	0.75562	0.06359	0.047
Mof_H 	H 	0.45216	0.24452	0.23925	0.035
Mof_H 	H 	0.75562	0.20601	0.93641	0.046
Mof_H 	H 	0.45039	0.24438	0.93641	0.043
Mof_H 	H 	0.20673	0.45164	0.23905	0.035
Mof_H 	H 	0.79399	0.54961	0.93641	0.047
Mof_H 	H 	0.24432	0.79409	0.93607	0.048
Mof_H 	H 	0.20605	0.45184	0.76306	0.035
_end
