# CIF file generated by openbabel 3.1.0, see https://openbabel.org
data_I
_chemical_name_common 'CERMIV_clean'
_cell_length_a 9.4003
_cell_length_b 9.4003
_cell_length_c 17.35
_cell_angle_alpha 90
_cell_angle_beta 90
_cell_angle_gamma 120
_space_group_name_H-M_alt 'P 1'
_space_group_name_Hall 'P 1'
loop_
    _symmetry_equiv_pos_as_xyz
    x,y,z
loop_
    _atom_site_label
    _atom_site_type_symbol
    _atom_site_fract_x
    _atom_site_fract_y
    _atom_site_fract_z
    _atom_site_occupancy
    Pr1      Pr       0.33333    0.66666    0.75000    1.000
    Pr2      Pr       0.66667    0.33334    0.25000    1.000
    Pr3      Pr       0.00000    0.00000    0.00000    1.000
    Pr4      Pr       0.00000    0.00000    0.50000    1.000
    H1       H        0.50150    0.67180    0.97410    1.000
    H2       H        0.57540    0.59550    0.91720    1.000
    H3       H        0.17030    0.49850    0.97410    1.000
    H4       H        0.02010    0.42460    0.91720    1.000
    H5       H        0.32820    0.82970    0.97410    1.000
    H6       H        0.40450    0.97990    0.91720    1.000
    H7       H        0.50150    0.67180    0.52590    1.000
    H8       H        0.57540    0.59550    0.58280    1.000
    H9       H        0.17030    0.49850    0.52590    1.000
    H10      H        0.02010    0.42460    0.58280    1.000
    H11      H        0.32820    0.82970    0.52590    1.000
    H12      H        0.40450    0.97990    0.58280    1.000
    H13      H        0.82970    0.32820    0.02590    1.000
    H14      H        0.97990    0.40450    0.08280    1.000
    H15      H        0.67180    0.50150    0.02590    1.000
    H16      H        0.59550    0.57540    0.08280    1.000
    H17      H        0.49850    0.17030    0.02590    1.000
    H18      H        0.42460    0.02010    0.08280    1.000
    H19      H        0.82970    0.32820    0.47410    1.000
    H20      H        0.97990    0.40450    0.41720    1.000
    H21      H        0.67180    0.50150    0.47410    1.000
    H22      H        0.59550    0.57540    0.41720    1.000
    H23      H        0.49850    0.17030    0.47410    1.000
    H24      H        0.42460    0.02010    0.41720    1.000
    C1       C        0.65160    0.83410    0.89390    1.000
    C2       C        0.60000    0.69290    0.94660    1.000
    C3       C        0.18250    0.34840    0.89390    1.000
    C4       C        0.09290    0.40000    0.94660    1.000
    C5       C        0.16590    0.81750    0.89390    1.000
    C6       C        0.30710    0.90710    0.94660    1.000
    C7       C        0.65160    0.83410    0.60610    1.000
    C8       C        0.60000    0.69290    0.55340    1.000
    C9       C        0.18250    0.34840    0.60610    1.000
    C10      C        0.09290    0.40000    0.55340    1.000
    C11      C        0.16590    0.81750    0.60610    1.000
    C12      C        0.30710    0.90710    0.55340    1.000
    C13      C        0.81750    0.16590    0.10610    1.000
    C14      C        0.90710    0.30710    0.05340    1.000
    C15      C        0.83410    0.65160    0.10610    1.000
    C16      C        0.69290    0.60000    0.05340    1.000
    C17      C        0.34840    0.18250    0.10610    1.000
    C18      C        0.40000    0.09290    0.05340    1.000
    C19      C        0.81750    0.16590    0.39390    1.000
    C20      C        0.90710    0.30710    0.44660    1.000
    C21      C        0.83410    0.65160    0.39390    1.000
    C22      C        0.69290    0.60000    0.44660    1.000
    C23      C        0.34840    0.18250    0.39390    1.000
    C24      C        0.40000    0.09290    0.44660    1.000
    O1       O        0.78920    0.96140    0.90350    1.000
    O2       O        0.55270    0.82310    0.84280    1.000
    O3       O        0.17220    0.21080    0.90350    1.000
    O4       O        0.27040    0.44730    0.84280    1.000
    O5       O        0.03860    0.82780    0.90350    1.000
    O6       O        0.17690    0.72960    0.84280    1.000
    O7       O        0.78920    0.96140    0.59650    1.000
    O8       O        0.55270    0.82310    0.65720    1.000
    O9       O        0.17220    0.21080    0.59650    1.000
    O10      O        0.27040    0.44730    0.65720    1.000
    O11      O        0.03860    0.82780    0.59650    1.000
    O12      O        0.17690    0.72960    0.65720    1.000
    O13      O        0.82780    0.03860    0.09650    1.000
    O14      O        0.72960    0.17690    0.15720    1.000
    O15      O        0.96140    0.78920    0.09650    1.000
    O16      O        0.82310    0.55270    0.15720    1.000
    O17      O        0.21080    0.17220    0.09650    1.000
    O18      O        0.44730    0.27040    0.15720    1.000
    O19      O        0.82780    0.03860    0.40350    1.000
    O20      O        0.72960    0.17690    0.34280    1.000
    O21      O        0.96140    0.78920    0.40350    1.000
    O22      O        0.82310    0.55270    0.34280    1.000
    O23      O        0.21080    0.17220    0.40350    1.000
    O24      O        0.44730    0.27040    0.34280    1.000
    O25      O        0.72850    0.72850    0.00000    1.000
    O26      O        0.00000    0.27150    0.00000    1.000
    O27      O        0.27150    0.00000    0.00000    1.000
    O28      O        0.72850    0.72850    0.50000    1.000
    O29      O        0.00000    0.27150    0.50000    1.000
    O30      O        0.27150    0.00000    0.50000    1.000
