# CIF file generated by openbabel 3.1.0, see https://openbabel.org
data_I
_chemical_name_common 'image0'
_cell_length_a 7.8121
_cell_length_b 7.9612
_cell_length_c 13.1728
_cell_angle_alpha 90
_cell_angle_beta 90
_cell_angle_gamma 90
_space_group_name_H-M_alt 'P 1'
_space_group_name_Hall 'P 1'
loop_
    _symmetry_equiv_pos_as_xyz
    x,y,z
loop_
    _atom_site_label
    _atom_site_type_symbol
    _atom_site_fract_x
    _atom_site_fract_y
    _atom_site_fract_z
    _atom_site_occupancy
    Mn1      Mn       0.55335    0.49461    0.08543    1.000
    C1       C        0.41580    0.22490    0.23529    1.000
    H1       H        0.52020    0.17360    0.22150    1.000
    C2       C        0.29310    0.77220    0.03257    1.000
    H2       H        0.35690    0.77910    0.97310    1.000
    C3       C        0.31190    0.27680    0.95870    1.000
    H3       H        0.23900    0.29520    0.01340    1.000
    O1       O        0.38550    0.36010    0.19145    1.000
    O2       O        0.31790    0.15170    0.29651    1.000
    O3       O        0.34230    0.67000    0.09459    1.000
    O4       O        0.16880    0.86830    0.03839    1.000
    O5       O        0.45110    0.35050    0.96043    1.000
    O6       O        0.25930    0.18000    0.89068    1.000
    Mn2      Mn       0.94665    0.50539    0.58543    1.000
    C4       C        0.08420    0.77510    0.73529    1.000
    H4       H        0.97980    0.82640    0.72150    1.000
    C5       C        0.20690    0.22780    0.53257    1.000
    H5       H        0.14310    0.22090    0.47310    1.000
    C6       C        0.18810    0.72320    0.45870    1.000
    H6       H        0.26100    0.70480    0.51340    1.000
    O7       O        0.11450    0.63990    0.69145    1.000
    O8       O        0.18210    0.84830    0.79651    1.000
    O9       O        0.15770    0.33000    0.59459    1.000
    O10      O        0.33120    0.13170    0.53839    1.000
    O11      O        0.04890    0.64950    0.46043    1.000
    O12      O        0.24070    0.82000    0.39068    1.000
    Mn3      Mn       0.44665    0.99461    0.41457    1.000
    C7       C        0.58420    0.72490    0.26471    1.000
    H7       H        0.47980    0.67360    0.27850    1.000
    C8       C        0.70690    0.27220    0.46743    1.000
    H8       H        0.64310    0.27910    0.52690    1.000
    C9       C        0.68810    0.77680    0.54130    1.000
    H9       H        0.76100    0.79520    0.48660    1.000
    O13      O        0.61450    0.86010    0.30855    1.000
    O14      O        0.68210    0.65170    0.20349    1.000
    O15      O        0.65770    0.17000    0.40541    1.000
    O16      O        0.83120    0.36830    0.46161    1.000
    O17      O        0.54890    0.85050    0.53957    1.000
    O18      O        0.74070    0.68000    0.60932    1.000
    Mn4      Mn       0.05335    0.00539    0.91457    1.000
    C10      C        0.91580    0.27510    0.76471    1.000
    H10      H        0.02020    0.32640    0.77850    1.000
    C11      C        0.79310    0.72780    0.96743    1.000
    H11      H        0.85690    0.72090    0.02690    1.000
    C12      C        0.81190    0.22320    0.04130    1.000
    H12      H        0.73900    0.20480    0.98660    1.000
    O19      O        0.88550    0.13990    0.80855    1.000
    O20      O        0.81790    0.34830    0.70349    1.000
    O21      O        0.84230    0.83000    0.90541    1.000
    O22      O        0.66880    0.63170    0.96161    1.000
    O23      O        0.95110    0.14950    0.03957    1.000
    O24      O        0.75930    0.32000    0.10932    1.000
