data_functionalizedCrystal
_audit_creation_method	'EQeq! by Chris Wilmer'
_symmetry_space_group_name_H-M	'P1'
_symmetry_Int_Tables_number	1
_symmetry_cell_setting	triclinic
loop_
_symmetry_equiv_pos_as_xyz
  x,y,z
_cell_length_a	13.74
_cell_length_b	27.03
_cell_length_c	13.647
_cell_angle_alpha	90
_cell_angle_beta	90
_cell_angle_gamma	90
loop_
_atom_site_label
_atom_site_type_symbol
_atom_site_fract_x
_atom_site_fract_y
_atom_site_fract_z
_atom_site_charge
Mof_Cd	Cd	0.83208	0.87481	0.99767	0.38
Mof_Cd	Cd	0.46977	0.80749	0.1368	0.277
Mof_Cd	Cd	0.22078	0.92325	0.89089	0.267
Mof_N 	N 	0.6807	0.849	0.0433	-0.134
Mof_C 	C 	0.6098	0.8329	0.0746	-0.009
Mof_N 	N 	0.8944	0.8566	0.154	-0.134
Mof_C 	C 	0.9215	0.8413	0.2237	0.003
Mof_N 	N 	0.9886	0.8973	0.948	-0.135
Mof_C 	C 	0.068	0.9031	0.9268	-0.015
Mof_N 	N 	0.7759	0.902	0.8427	-0.136
Mof_C 	C 	0.7561	0.9108	0.7658	-0
Mof_N 	N 	0.377	0.8667	0.0375	-0.138
Mof_C 	C 	0.3262	0.8864	0.9889	-0.003
Mof_N 	N 	0.7997	0.9552	0.0546	-0.134
Mof_C 	C 	0.7876	0.9955	0.0762	-0.004
Mof_N 	N 	0.8688	0.7962	0.943	-0.137
Mof_C 	C 	0.901	0.7614	0.917	-0.001
Mof_N 	N 	0.5464	0.984	0.2488	-0.092
Mof_C 	C 	0.5678	0.9489	0.1882	0.058
Mof_H 	H 	0.5953	0.9198	0.2115	0.013
Mof_C 	C 	0.55	0.9545	0.0881	-0.118
Mof_H 	H 	0.5663	0.9289	0.0458	0.075
Mof_C 	C 	0.5091	0.9968	0.0503	0.045
Mof_C 	C 	0.4892	0.0342	0.12	-0.119
Mof_H 	H 	0.4634	0.0643	0.0996	0.07
Mof_C 	C 	0.508	0.0262	0.2173	0.048
Mof_H 	H 	0.4929	0.0508	0.2624	0.015
Mof_C 	C 	0.5686	0.9778	0.3574	-0.366
Mof_H 	H 	0.5872	0.9441	0.37	0.14
Mof_H 	H 	0.5117	0.9858	0.395	0.143
Mof_H 	H 	0.6208	0.9995	0.3755	0.145
Mof_Cd	Cd	0.66792	0.12519	0.49767	0.38
Mof_Cd	Cd	0.03023	0.19251	0.6368	0.276
Mof_Cd	Cd	0.27922	0.07675	0.39089	0.266
Mof_N 	N 	0.8193	0.151	0.5433	-0.135
Mof_C 	C 	0.8902	0.1671	0.5746	-0.009
Mof_N 	N 	0.6056	0.1434	0.654	-0.135
Mof_C 	C 	0.5785	0.1587	0.7237	0.003
Mof_N 	N 	0.5114	0.1027	0.448	-0.135
Mof_C 	C 	0.432	0.0969	0.4268	-0.016
Mof_N 	N 	0.7241	0.098	0.3427	-0.136
Mof_C 	C 	0.7439	0.0892	0.2658	-0
Mof_N 	N 	0.123	0.1333	0.5375	-0.138
Mof_C 	C 	0.1738	0.1136	0.4889	-0.003
Mof_N 	N 	0.7003	0.0448	0.5546	-0.134
Mof_C 	C 	0.7124	0.0045	0.5762	-0.004
Mof_N 	N 	0.6312	0.2038	0.443	-0.137
Mof_C 	C 	0.599	0.2386	0.417	-0.001
Mof_N 	N 	0.9536	0.016	0.7488	-0.091
Mof_C 	C 	0.9322	0.0511	0.6882	0.058
Mof_H 	H 	0.9047	0.0802	0.7115	0.013
Mof_C 	C 	0.95	0.0455	0.5881	-0.118
Mof_H 	H 	0.9337	0.0711	0.5458	0.075
Mof_C 	C 	0.9909	0.0032	0.5503	0.044
Mof_C 	C 	0.0108	0.9658	0.62	-0.117
Mof_H 	H 	0.0366	0.9357	0.5996	0.069
Mof_C 	C 	0.992	0.9738	0.7173	0.046
Mof_H 	H 	0.0071	0.9492	0.7624	0.016
Mof_C 	C 	0.9314	0.0222	0.8574	-0.366
Mof_H 	H 	0.9128	0.0559	0.87	0.14
Mof_H 	H 	0.9883	0.0142	0.895	0.143
Mof_H 	H 	0.8792	0.0005	0.8755	0.145
Mof_Cd	Cd	0.16792	0.37481	0.50233	0.38
Mof_Cd	Cd	0.53023	0.30749	0.3632	0.276
Mof_Cd	Cd	0.77922	0.42325	0.60911	0.266
Mof_N 	N 	0.3193	0.349	0.4567	-0.135
Mof_C 	C 	0.3902	0.3329	0.4254	-0.009
Mof_N 	N 	0.1056	0.3566	0.346	-0.135
Mof_C 	C 	0.0785	0.3413	0.2763	0.002
Mof_N 	N 	0.0114	0.3973	0.552	-0.135
Mof_C 	C 	0.932	0.4031	0.5732	-0.016
Mof_N 	N 	0.2241	0.402	0.6573	-0.136
Mof_C 	C 	0.2439	0.4108	0.7342	-0
Mof_N 	N 	0.623	0.3667	0.4625	-0.138
Mof_C 	C 	0.6738	0.3864	0.5111	-0.003
Mof_N 	N 	0.2003	0.4552	0.4454	-0.134
Mof_C 	C 	0.2124	0.4955	0.4238	-0.004
Mof_N 	N 	0.1312	0.2962	0.557	-0.137
Mof_C 	C 	0.099	0.2614	0.583	-0.001
Mof_N 	N 	0.4536	0.484	0.2512	-0.092
Mof_C 	C 	0.4322	0.4489	0.3118	0.058
Mof_H 	H 	0.4047	0.4198	0.2885	0.013
Mof_C 	C 	0.45	0.4545	0.4119	-0.118
Mof_H 	H 	0.4337	0.4289	0.4542	0.075
Mof_C 	C 	0.4909	0.4968	0.4497	0.045
Mof_C 	C 	0.5108	0.5342	0.38	-0.119
Mof_H 	H 	0.5366	0.5643	0.4004	0.07
Mof_C 	C 	0.492	0.5262	0.2827	0.048
Mof_H 	H 	0.5071	0.5508	0.2376	0.015
Mof_C 	C 	0.4314	0.4778	0.1426	-0.365
Mof_H 	H 	0.4128	0.4441	0.13	0.139
Mof_H 	H 	0.4883	0.4858	0.105	0.142
Mof_H 	H 	0.3792	0.4995	0.1245	0.145
Mof_Cd	Cd	0.33208	0.62519	0.00233	0.38
Mof_Cd	Cd	0.96977	0.69251	0.8632	0.276
Mof_Cd	Cd	0.72078	0.57675	0.10911	0.266
Mof_N 	N 	0.1807	0.651	0.9567	-0.135
Mof_C 	C 	0.1098	0.6671	0.9254	-0.008
Mof_N 	N 	0.3944	0.6434	0.846	-0.135
Mof_C 	C 	0.4215	0.6587	0.7763	0.003
Mof_N 	N 	0.4886	0.6027	0.052	-0.135
Mof_C 	C 	0.568	0.5969	0.0732	-0.016
Mof_N 	N 	0.2759	0.598	0.1573	-0.136
Mof_C 	C 	0.2561	0.5892	0.2342	-0
Mof_N 	N 	0.877	0.6333	0.9625	-0.139
Mof_C 	C 	0.8262	0.6136	0.0111	-0.002
Mof_N 	N 	0.2997	0.5448	0.9454	-0.134
Mof_C 	C 	0.2876	0.5045	0.9238	-0.004
Mof_N 	N 	0.3688	0.7038	0.057	-0.137
Mof_C 	C 	0.401	0.7386	0.083	-0.001
Mof_N 	N 	0.0464	0.516	0.7512	-0.092
Mof_C 	C 	0.0678	0.5511	0.8118	0.059
Mof_H 	H 	0.0953	0.5802	0.7885	0.012
Mof_C 	C 	0.05	0.5455	0.9119	-0.119
Mof_H 	H 	0.0663	0.5711	0.9542	0.076
Mof_C 	C 	0.0091	0.5032	0.9497	0.046
Mof_C 	C 	0.9892	0.4658	0.88	-0.121
Mof_H 	H 	0.9634	0.4357	0.9004	0.071
Mof_C 	C 	0.008	0.4738	0.7827	0.051
Mof_H 	H 	0.9929	0.4492	0.7376	0.014
Mof_C 	C 	0.0686	0.5222	0.6426	-0.365
Mof_H 	H 	0.0872	0.5559	0.63	0.14
Mof_H 	H 	0.0117	0.5142	0.605	0.142
Mof_H 	H 	0.1208	0.5005	0.6245	0.145
Mof_Cd	Cd	0.16792	0.12519	0.00233	0.379
Mof_Cd	Cd	0.53023	0.19251	0.8632	0.276
Mof_Cd	Cd	0.77922	0.07675	0.10911	0.266
Mof_N 	N 	0.3193	0.151	0.9567	-0.135
Mof_C 	C 	0.3902	0.1671	0.9254	-0.009
Mof_N 	N 	0.1056	0.1434	0.846	-0.134
Mof_C 	C 	0.0785	0.1587	0.7763	0.003
Mof_N 	N 	0.0114	0.1027	0.052	-0.135
Mof_C 	C 	0.932	0.0969	0.0732	-0.015
Mof_N 	N 	0.2241	0.098	0.1573	-0.136
Mof_C 	C 	0.2439	0.0892	0.2342	-0
Mof_N 	N 	0.623	0.1333	0.9625	-0.138
Mof_C 	C 	0.6738	0.1136	0.0111	-0.003
Mof_N 	N 	0.2003	0.0448	0.9454	-0.134
Mof_C 	C 	0.2124	0.0045	0.9238	-0.004
Mof_N 	N 	0.1312	0.2038	0.057	-0.137
Mof_C 	C 	0.099	0.2386	0.083	-0.001
Mof_N 	N 	0.4536	0.016	0.7512	-0.092
Mof_C 	C 	0.4322	0.0511	0.8118	0.058
Mof_H 	H 	0.4047	0.0802	0.7885	0.013
Mof_C 	C 	0.45	0.0455	0.9119	-0.118
Mof_H 	H 	0.4337	0.0711	0.9542	0.075
Mof_C 	C 	0.4909	0.0032	0.9497	0.045
Mof_C 	C 	0.5108	0.9658	0.88	-0.119
Mof_H 	H 	0.5366	0.9357	0.9004	0.07
Mof_C 	C 	0.492	0.9738	0.7827	0.048
Mof_H 	H 	0.5071	0.9492	0.7376	0.015
Mof_C 	C 	0.4314	0.0222	0.6426	-0.366
Mof_H 	H 	0.4128	0.0559	0.63	0.14
Mof_H 	H 	0.4883	0.0142	0.605	0.143
Mof_H 	H 	0.3792	0.0005	0.6245	0.145
Mof_Cd	Cd	0.33208	0.87481	0.50233	0.38
Mof_Cd	Cd	0.96977	0.80749	0.3632	0.276
Mof_Cd	Cd	0.72078	0.92325	0.60911	0.266
Mof_N 	N 	0.1807	0.849	0.4567	-0.135
Mof_C 	C 	0.1098	0.8329	0.4254	-0.009
Mof_N 	N 	0.3944	0.8566	0.346	-0.135
Mof_C 	C 	0.4215	0.8413	0.2763	0.003
Mof_N 	N 	0.4886	0.8973	0.552	-0.135
Mof_C 	C 	0.568	0.9031	0.5732	-0.016
Mof_N 	N 	0.2759	0.902	0.6573	-0.136
Mof_C 	C 	0.2561	0.9108	0.7342	-0
Mof_N 	N 	0.877	0.8667	0.4625	-0.138
Mof_C 	C 	0.8262	0.8864	0.5111	-0.003
Mof_N 	N 	0.2997	0.9552	0.4454	-0.134
Mof_C 	C 	0.2876	0.9955	0.4238	-0.004
Mof_N 	N 	0.3688	0.7962	0.557	-0.137
Mof_C 	C 	0.401	0.7614	0.583	-0.001
Mof_N 	N 	0.0464	0.984	0.2512	-0.091
Mof_C 	C 	0.0678	0.9489	0.3118	0.058
Mof_H 	H 	0.0953	0.9198	0.2885	0.013
Mof_C 	C 	0.05	0.9545	0.4119	-0.118
Mof_H 	H 	0.0663	0.9289	0.4542	0.075
Mof_C 	C 	0.0091	0.9968	0.4497	0.044
Mof_C 	C 	0.9892	0.0342	0.38	-0.117
Mof_H 	H 	0.9634	0.0643	0.4004	0.069
Mof_C 	C 	0.008	0.0262	0.2827	0.046
Mof_H 	H 	0.9929	0.0508	0.2376	0.016
Mof_C 	C 	0.0686	0.9778	0.1426	-0.366
Mof_H 	H 	0.0872	0.9441	0.13	0.14
Mof_H 	H 	0.0117	0.9858	0.105	0.143
Mof_H 	H 	0.1208	0.9995	0.1245	0.145
Mof_Cd	Cd	0.83208	0.62519	0.49767	0.38
Mof_Cd	Cd	0.46977	0.69251	0.6368	0.276
Mof_Cd	Cd	0.22078	0.57675	0.39089	0.266
Mof_N 	N 	0.6807	0.651	0.5433	-0.135
Mof_C 	C 	0.6098	0.6671	0.5746	-0.009
Mof_N 	N 	0.8944	0.6434	0.654	-0.135
Mof_C 	C 	0.9215	0.6587	0.7237	0.002
Mof_N 	N 	0.9886	0.6027	0.448	-0.135
Mof_C 	C 	0.068	0.5969	0.4268	-0.016
Mof_N 	N 	0.7759	0.598	0.3427	-0.136
Mof_C 	C 	0.7561	0.5892	0.2658	-0
Mof_N 	N 	0.377	0.6333	0.5375	-0.138
Mof_C 	C 	0.3262	0.6136	0.4889	-0.003
Mof_N 	N 	0.7997	0.5448	0.5546	-0.134
Mof_C 	C 	0.7876	0.5045	0.5762	-0.004
Mof_N 	N 	0.8688	0.7038	0.443	-0.137
Mof_C 	C 	0.901	0.7386	0.417	-0.001
Mof_N 	N 	0.5464	0.516	0.7488	-0.092
Mof_C 	C 	0.5678	0.5511	0.6882	0.058
Mof_H 	H 	0.5953	0.5802	0.7115	0.013
Mof_C 	C 	0.55	0.5455	0.5881	-0.118
Mof_H 	H 	0.5663	0.5711	0.5458	0.075
Mof_C 	C 	0.5091	0.5032	0.5503	0.045
Mof_C 	C 	0.4892	0.4658	0.62	-0.119
Mof_H 	H 	0.4634	0.4357	0.5996	0.07
Mof_C 	C 	0.508	0.4738	0.7173	0.048
Mof_H 	H 	0.4929	0.4492	0.7624	0.015
Mof_C 	C 	0.5686	0.5222	0.8574	-0.365
Mof_H 	H 	0.5872	0.5559	0.87	0.139
Mof_H 	H 	0.5117	0.5142	0.895	0.142
Mof_H 	H 	0.6208	0.5005	0.8755	0.145
Mof_Cd	Cd	0.66792	0.37481	0.99767	0.38
Mof_Cd	Cd	0.03023	0.30749	0.1368	0.276
Mof_Cd	Cd	0.27922	0.42325	0.89089	0.266
Mof_N 	N 	0.8193	0.349	0.0433	-0.135
Mof_C 	C 	0.8902	0.3329	0.0746	-0.008
Mof_N 	N 	0.6056	0.3566	0.154	-0.135
Mof_C 	C 	0.5785	0.3413	0.2237	0.003
Mof_N 	N 	0.5114	0.3973	0.948	-0.135
Mof_C 	C 	0.432	0.4031	0.9268	-0.016
Mof_N 	N 	0.7241	0.402	0.8427	-0.136
Mof_C 	C 	0.7439	0.4108	0.7658	-0
Mof_N 	N 	0.123	0.3667	0.0375	-0.139
Mof_C 	C 	0.1738	0.3864	0.9889	-0.002
Mof_N 	N 	0.7003	0.4552	0.0546	-0.134
Mof_C 	C 	0.7124	0.4955	0.0762	-0.004
Mof_N 	N 	0.6312	0.2962	0.943	-0.137
Mof_C 	C 	0.599	0.2614	0.917	-0.001
Mof_N 	N 	0.9536	0.484	0.2488	-0.092
Mof_C 	C 	0.9322	0.4489	0.1882	0.059
Mof_H 	H 	0.9047	0.4198	0.2115	0.012
Mof_C 	C 	0.95	0.4545	0.0881	-0.119
Mof_H 	H 	0.9337	0.4289	0.0458	0.076
Mof_C 	C 	0.9909	0.4968	0.0503	0.046
Mof_C 	C 	0.0108	0.5342	0.12	-0.121
Mof_H 	H 	0.0366	0.5643	0.0996	0.071
Mof_C 	C 	0.992	0.5262	0.2173	0.051
Mof_H 	H 	0.0071	0.5508	0.2624	0.014
Mof_C 	C 	0.9314	0.4778	0.3574	-0.365
Mof_H 	H 	0.9128	0.4441	0.37	0.14
Mof_H 	H 	0.9883	0.4858	0.395	0.142
Mof_H 	H 	0.8792	0.4995	0.3755	0.145
_end
