data_functionalizedCrystal
_audit_creation_method	'EQeq! by Chris Wilmer'
_symmetry_space_group_name_H-M	'P1'
_symmetry_Int_Tables_number	1
_symmetry_cell_setting	triclinic
loop_
_symmetry_equiv_pos_as_xyz
  x,y,z
_cell_length_a	18.5896
_cell_length_b	18.5896
_cell_length_c	18.5896
_cell_angle_alpha	60
_cell_angle_beta	60
_cell_angle_gamma	60
loop_
_atom_site_label
_atom_site_type_symbol
_atom_site_fract_x
_atom_site_fract_y
_atom_site_fract_z
_atom_site_charge
Mof_Cu	Cu	1.25137e-17	0.42998	0.57002	0.798
Mof_Cu	Cu	0.42998	0	-0	0.681
Mof_Cu	Cu	0.57002	0	-0	0.694
Mof_Cu	Cu	-0	0.57002	0.42998	0.798
Mof_Cu	Cu	-0	0.57002	-0	0.694
Mof_Cu	Cu	0.42998	0	0.57002	0.798
Mof_Cu	Cu	0.57002	0	0.42998	0.798
Mof_Cu	Cu	-0	0.42998	-0	0.681
Mof_Cu	Cu	-0	0	0.42998	0.681
Mof_Cu	Cu	0.42998	0.57002	-0	0.799
Mof_Cu	Cu	0.57002	0.42998	-0	0.799
Mof_Cu	Cu	1.25137e-17	0	0.57002	0.695
Mof_H 	H 	0.9717	0.2711	0.4861	0.069
Mof_H 	H 	0.2711	0.9717	0.2711	0.045
Mof_H 	H 	0.4861	0.2711	0.9717	0.069
Mof_H 	H 	0.2711	0.4861	0.2711	-0.002
Mof_H 	H 	0.9717	0.4861	0.2711	0.069
Mof_H 	H 	0.2711	0.2711	0.4861	-0.002
Mof_H 	H 	0.4861	0.9717	0.2711	0.069
Mof_H 	H 	0.2711	0.2711	0.9717	0.045
Mof_H 	H 	0.9717	0.2711	0.2711	0.045
Mof_H 	H 	0.2711	0.4861	0.9717	0.069
Mof_H 	H 	0.4861	0.2711	0.2711	-0.002
Mof_H 	H 	0.2711	0.9717	0.4861	0.069
Mof_H 	H 	0.7289	0.0283	0.5139	0.021
Mof_H 	H 	0.0283	0.7289	0.7289	0.047
Mof_H 	H 	0.7289	0.5139	0.0283	0.021
Mof_H 	H 	0.5139	0.7289	0.7289	0.087
Mof_H 	H 	0.5139	0.0283	0.7289	0.021
Mof_H 	H 	0.7289	0.7289	0.5139	0.087
Mof_H 	H 	0.0283	0.5139	0.7289	0.021
Mof_H 	H 	0.7289	0.7289	0.0283	0.047
Mof_H 	H 	0.7289	0.0283	0.7289	0.047
Mof_H 	H 	0.5139	0.7289	0.0283	0.021
Mof_H 	H 	0.7289	0.5139	0.7289	0.087
Mof_H 	H 	0.0283	0.7289	0.5139	0.021
Mof_C 	C 	0.9701	0.3011	0.4277	0.061
Mof_C 	C 	0.3011	0.9701	0.3011	0.064
Mof_C 	C 	0.4277	0.3011	0.9701	0.061
Mof_C 	C 	0.3011	0.4277	0.3011	0.108
Mof_C 	C 	0.9701	0.4277	0.3011	0.061
Mof_C 	C 	0.3011	0.3011	0.4277	0.108
Mof_C 	C 	0.4277	0.9701	0.3011	0.061
Mof_C 	C 	0.3011	0.3011	0.9701	0.064
Mof_C 	C 	0.9701	0.3011	0.3011	0.064
Mof_C 	C 	0.3011	0.4277	0.9701	0.061
Mof_C 	C 	0.4277	0.3011	0.3011	0.108
Mof_C 	C 	0.3011	0.9701	0.4277	0.061
Mof_C 	C 	0.6989	0.0299	0.5723	0.084
Mof_C 	C 	0.0299	0.6989	0.6989	0.077
Mof_C 	C 	0.6989	0.5723	0.0299	0.084
Mof_C 	C 	0.5723	0.6989	0.6989	0.048
Mof_C 	C 	0.5723	0.0299	0.6989	0.084
Mof_C 	C 	0.6989	0.6989	0.5723	0.048
Mof_C 	C 	0.0299	0.5723	0.6989	0.084
Mof_C 	C 	0.6989	0.6989	0.0299	0.077
Mof_C 	C 	0.6989	0.0299	0.6989	0.077
Mof_C 	C 	0.5723	0.6989	0.0299	0.084
Mof_C 	C 	0.6989	0.5723	0.6989	0.048
Mof_C 	C 	0.0299	0.6989	0.5723	0.084
Mof_C 	C 	0.9693	0.3869	0.3869	-0.088
Mof_C 	C 	0.9774	0.4302	0.4302	0.362
Mof_C 	C 	0.3869	0.9693	0.2569	-0.105
Mof_C 	C 	0.4302	0.9774	0.1622	0.362
Mof_C 	C 	0.3869	0.2569	0.9693	-0.105
Mof_C 	C 	0.4302	0.1622	0.9774	0.362
Mof_C 	C 	0.2569	0.3869	0.3869	-0.199
Mof_C 	C 	0.1622	0.4302	0.4302	0.392
Mof_C 	C 	0.9693	0.3869	0.2569	-0.105
Mof_C 	C 	0.9774	0.4302	0.1622	0.362
Mof_C 	C 	0.3869	0.2569	0.3869	-0.199
Mof_C 	C 	0.4302	0.1622	0.4302	0.392
Mof_C 	C 	0.3869	0.9693	0.3869	-0.088
Mof_C 	C 	0.4302	0.9774	0.4302	0.362
Mof_C 	C 	0.2569	0.3869	0.9693	-0.105
Mof_C 	C 	0.1622	0.4302	0.9774	0.362
Mof_C 	C 	0.9693	0.2569	0.3869	-0.105
Mof_C 	C 	0.9774	0.1622	0.4302	0.362
Mof_C 	C 	0.3869	0.3869	0.9693	-0.088
Mof_C 	C 	0.4302	0.4302	0.9774	0.362
Mof_C 	C 	0.3869	0.3869	0.2569	-0.199
Mof_C 	C 	0.4302	0.4302	0.1622	0.392
Mof_C 	C 	0.2569	0.9693	0.3869	-0.105
Mof_C 	C 	0.1622	0.9774	0.4302	0.362
Mof_C 	C 	0.6131	0.0307	0.6131	-0.163
Mof_C 	C 	0.5698	0.0226	0.5698	0.386
Mof_C 	C 	0.0307	0.6131	0.7431	-0.138
Mof_C 	C 	0.0226	0.5698	0.8378	0.366
Mof_C 	C 	0.7431	0.6131	0.0307	-0.138
Mof_C 	C 	0.8378	0.5698	0.0226	0.366
Mof_C 	C 	0.6131	0.7431	0.6131	-0.062
Mof_C 	C 	0.5698	0.8378	0.5698	0.358
Mof_C 	C 	0.6131	0.0307	0.7431	-0.138
Mof_C 	C 	0.5698	0.0226	0.8378	0.366
Mof_C 	C 	0.7431	0.6131	0.6131	-0.062
Mof_C 	C 	0.8378	0.5698	0.5698	0.358
Mof_C 	C 	0.0307	0.6131	0.6131	-0.163
Mof_C 	C 	0.0226	0.5698	0.5698	0.386
Mof_C 	C 	0.6131	0.7431	0.0307	-0.138
Mof_C 	C 	0.5698	0.8378	0.0226	0.366
Mof_C 	C 	0.7431	0.0307	0.6131	-0.138
Mof_C 	C 	0.8378	0.0226	0.5698	0.366
Mof_C 	C 	0.6131	0.6131	0.0307	-0.163
Mof_C 	C 	0.5698	0.5698	0.0226	0.386
Mof_C 	C 	0.6131	0.6131	0.7431	-0.062
Mof_C 	C 	0.5698	0.5698	0.8378	0.358
Mof_C 	C 	0.0307	0.7431	0.6131	-0.138
Mof_C 	C 	0.0226	0.8378	0.5698	0.366
Mof_O 	O 	0.97993	0.38711	0.50695	-0.295
Mof_O 	O 	0.38711	0.97993	0.12601	-0.356
Mof_O 	O 	0.50695	0.12601	0.97993	-0.337
Mof_O 	O 	0.12601	0.50695	0.38711	-0.478
Mof_O 	O 	0.97993	0.50695	0.12601	-0.337
Mof_O 	O 	0.38711	0.12601	0.50695	-0.478
Mof_O 	O 	0.50695	0.97993	0.38711	-0.295
Mof_O 	O 	0.12601	0.38711	0.97993	-0.356
Mof_O 	O 	0.97993	0.12601	0.38711	-0.356
Mof_O 	O 	0.38711	0.50695	0.97993	-0.295
Mof_O 	O 	0.50695	0.38711	0.12601	-0.478
Mof_O 	O 	0.12601	0.97993	0.50695	-0.337
Mof_O 	O 	0.61289	0.02007	0.49305	-0.466
Mof_O 	O 	0.02007	0.61289	0.87399	-0.349
Mof_O 	O 	0.87399	0.49305	0.02007	-0.369
Mof_O 	O 	0.49305	0.87399	0.61289	-0.286
Mof_O 	O 	0.49305	0.02007	0.87399	-0.369
Mof_O 	O 	0.87399	0.61289	0.49305	-0.286
Mof_O 	O 	0.02007	0.49305	0.61289	-0.466
Mof_O 	O 	0.61289	0.87399	0.02007	-0.349
Mof_O 	O 	0.87399	0.02007	0.61289	-0.349
Mof_O 	O 	0.49305	0.61289	0.02007	-0.466
Mof_O 	O 	0.61289	0.49305	0.87399	-0.286
Mof_O 	O 	0.02007	0.87399	0.49305	-0.369
Mof_O 	O 	0.02007	0.61289	0.49305	-0.466
Mof_O 	O 	0.61289	0.02007	0.87399	-0.349
Mof_O 	O 	0.49305	0.87399	0.02007	-0.369
Mof_O 	O 	0.87399	0.49305	0.61289	-0.286
Mof_O 	O 	0.02007	0.49305	0.87399	-0.369
Mof_O 	O 	0.61289	0.87399	0.49305	-0.286
Mof_O 	O 	0.49305	0.02007	0.61289	-0.466
Mof_O 	O 	0.87399	0.61289	0.02007	-0.349
Mof_O 	O 	0.02007	0.87399	0.61289	-0.349
Mof_O 	O 	0.61289	0.49305	0.02007	-0.466
Mof_O 	O 	0.49305	0.61289	0.87399	-0.286
Mof_O 	O 	0.87399	0.02007	0.49305	-0.369
Mof_O 	O 	0.38711	0.97993	0.50695	-0.295
Mof_O 	O 	0.97993	0.38711	0.12601	-0.356
Mof_O 	O 	0.12601	0.50695	0.97993	-0.337
Mof_O 	O 	0.50695	0.12601	0.38711	-0.478
Mof_O 	O 	0.50695	0.97993	0.12601	-0.337
Mof_O 	O 	0.12601	0.38711	0.50695	-0.478
Mof_O 	O 	0.97993	0.50695	0.38711	-0.295
Mof_O 	O 	0.38711	0.12601	0.97993	-0.356
Mof_O 	O 	0.12601	0.97993	0.38711	-0.356
Mof_O 	O 	0.50695	0.38711	0.97993	-0.295
Mof_O 	O 	0.38711	0.50695	0.12601	-0.478
Mof_O 	O 	0.97993	0.12601	0.50695	-0.337
_end
