data_functionalizedCrystal
_audit_creation_method	'EQeq! by Chris Wilmer'
_symmetry_space_group_name_H-M	'P1'
_symmetry_Int_Tables_number	1
_symmetry_cell_setting	triclinic
loop_
_symmetry_equiv_pos_as_xyz
  x,y,z
_cell_length_a	14.3634
_cell_length_b	15.9165
_cell_length_c	17.4598
_cell_angle_alpha	68.162
_cell_angle_beta	66.272
_cell_angle_gamma	64.6
loop_
_atom_site_label
_atom_site_type_symbol
_atom_site_fract_x
_atom_site_fract_y
_atom_site_fract_z
_atom_site_charge
Mof_Fe	Fe	0.5	1.77439e-17	0.5	0.643
Mof_Fe	Fe	-0	0.5	-0	0.634
Mof_Cu	Cu	0.73643	0.20126	0.37759	0.897
Mof_Cu	Cu	0.83463	0.79495	0.10709	0.9
Mof_Cu	Cu	0.19291	0.24619	0.38841	0.894
Mof_Cu	Cu	0.64939	0.84857	0.25071	0.894
Mof_Cu	Cu	0.73488	0.36293	0.24126	0.893
Mof_Cu	Cu	0.18883	0.29928	0.21765	0.893
Mof_Cu	Cu	0.26357	0.79874	0.62241	0.899
Mof_Cu	Cu	0.16537	0.20505	0.89291	0.902
Mof_Cu	Cu	0.80709	0.75381	0.61159	0.895
Mof_Cu	Cu	0.35061	0.15143	0.74929	0.892
Mof_Cu	Cu	0.26512	0.63707	0.75874	0.894
Mof_Cu	Cu	0.81117	0.70072	0.78235	0.895
Mof_H 	H 	0.9959	0.2045	0.282	-0.102
Mof_H 	H 	0.9558	0.2348	0.1997	-0.12
Mof_H 	H 	0.9223	0.9605	0.3195	0.135
Mof_H 	H 	0.7951	0.9935	0.3647	0.128
Mof_H 	H 	0.8437	0.0497	0.2691	0.103
Mof_H 	H 	0.8719	0.8075	0.2646	-0.044
Mof_H 	H 	0.842	0.9222	0.2415	-0.031
Mof_H 	H 	0.1275	0.6833	0.1164	0.147
Mof_H 	H 	0.0695	0.6518	0.0755	0.116
Mof_H 	H 	0.0278	0.6461	0.1766	0.11
Mof_H 	H 	0.0217	0.4352	0.4485	0.079
Mof_H 	H 	0.1043	0.4935	0.4126	0.078
Mof_H 	H 	0.0395	0.4965	0.3035	-0.009
Mof_H 	H 	0.1687	0.4589	0.2799	-0.011
Mof_H 	H 	0.1297	0.3645	0.5622	0.075
Mof_H 	H 	0.2069	0.2585	0.5531	0.077
Mof_H 	H 	0.0428	0.243	0.6311	-0.014
Mof_H 	H 	0.9829	0.3371	0.5698	-0.004
Mof_H 	H 	0.3025	0.3882	0.35	0.102
Mof_H 	H 	0.3361	0.3043	0.4298	0.104
Mof_H 	H 	0.2731	0.4122	0.4398	0.119
Mof_H 	H 	0.4693	0.86	0.1876	0.076
Mof_H 	H 	0.4782	0.7491	0.2214	0.084
Mof_H 	H 	0.6636	0.701	0.16	-0.039
Mof_H 	H 	0.613	0.7837	0.0865	-0.025
Mof_H 	H 	0.5058	0.6675	0.3806	0.077
Mof_H 	H 	0.6094	0.6457	0.2995	0.073
Mof_H 	H 	0.5983	0.7175	0.4311	-0.017
Mof_H 	H 	0.661	0.6086	0.4233	-0.015
Mof_H 	H 	0.4376	0.8382	0.3984	0.11
Mof_H 	H 	0.3749	0.8095	0.3594	0.111
Mof_H 	H 	0.4022	0.9073	0.3139	0.101
Mof_H 	H 	0.5123	0.5117	0.3034	0.077
Mof_H 	H 	0.4401	0.4776	0.2786	0.096
Mof_H 	H 	0.5211	0.3163	0.3424	-0.028
Mof_H 	H 	0.4823	0.3761	0.4124	-0.012
Mof_H 	H 	0.5301	0.3535	0.2046	0.086
Mof_H 	H 	0.5394	0.4366	0.1177	0.114
Mof_H 	H 	0.7292	0.3586	0.0721	-0.003
Mof_H 	H 	0.6662	0.2886	0.0879	0.004
Mof_H 	H 	0.6616	0.5268	0.0903	0.12
Mof_H 	H 	0.5353	0.5752	0.1312	0.143
Mof_H 	H 	0.6201	0.572	0.1708	0.102
Mof_H 	H 	0.4046	0.1469	0.2184	0.067
Mof_H 	H 	0.4009	0.074	0.1772	0.068
Mof_H 	H 	0.2392	0.0648	0.2751	-0.019
Mof_H 	H 	0.308	0.0579	0.3317	-0.026
Mof_H 	H 	0.4398	0.2168	0.0413	0.077
Mof_H 	H 	0.3413	0.3151	0.0342	0.072
Mof_H 	H 	0.4799	0.2493	0.1379	-0.011
Mof_H 	H 	0.4566	0.3488	0.0673	0.013
Mof_H 	H 	0.2065	0.1472	0.1455	0.091
Mof_H 	H 	0.3142	0.1362	0.0663	0.104
Mof_H 	H 	0.2176	0.2361	0.0641	0.095
Mof_H 	H 	0.7569	0.1925	0.5424	0.154
Mof_H 	H 	0.8372	0.9287	0.9362	0.187
Mof_H 	H 	0.0194	0.1824	0.5361	0.161
Mof_H 	H 	0.8058	0.6673	0.3284	0.159
Mof_H 	H 	0.7615	0.186	0.1924	0.149
Mof_H 	H 	0.3439	0.3901	0.2031	0.183
Mof_H 	H 	0.0184	0.8495	0.1657	0.093
Mof_H 	H 	0.9467	0.9236	0.1028	0.105
Mof_H 	H 	0.1046	0.8228	0.0002	0.153
Mof_H 	H 	0.062	0.7577	0.9809	0.159
Mof_H 	H 	0.791	0.0072	0.5172	0.019
Mof_H 	H 	0.8794	0.0113	0.5487	0.022
Mof_H 	H 	0.9318	0.1212	0.2246	0.159
Mof_H 	H 	0.0199	0.0842	0.2735	0.157
Mof_H 	H 	0.9539	0.9672	0.4214	0.063
Mof_H 	H 	0.9689	0.0648	0.4125	0.069
Mof_H 	H 	0.0225	0.8913	0.8955	-0.107
Mof_H 	H 	0.9804	0.9487	0.9678	-0.085
Mof_H 	H 	0.0041	0.7955	0.718	-0.131
Mof_H 	H 	0.0442	0.7652	0.8003	-0.148
Mof_H 	H 	0.0777	0.0395	0.6805	0.066
Mof_H 	H 	0.2049	0.0065	0.6353	0.057
Mof_H 	H 	0.1563	0.9503	0.7309	0.059
Mof_H 	H 	0.1281	0.1925	0.7354	-0.05
Mof_H 	H 	0.158	0.0778	0.7585	-0.04
Mof_H 	H 	0.8725	0.3167	0.8836	0.149
Mof_H 	H 	0.9305	0.3482	0.9245	0.124
Mof_H 	H 	0.9722	0.3539	0.8234	0.113
Mof_H 	H 	0.9783	0.5648	0.5515	0.085
Mof_H 	H 	0.8957	0.5065	0.5874	0.081
Mof_H 	H 	0.9605	0.5035	0.6965	-0.005
Mof_H 	H 	0.8313	0.5411	0.7201	-0.01
Mof_H 	H 	0.8703	0.6355	0.4378	0.082
Mof_H 	H 	0.7931	0.7415	0.4469	0.081
Mof_H 	H 	0.9572	0.757	0.3689	-0.021
Mof_H 	H 	0.0171	0.6629	0.4302	-0.024
Mof_H 	H 	0.6975	0.6118	0.65	0.102
Mof_H 	H 	0.6639	0.6957	0.5702	0.104
Mof_H 	H 	0.7269	0.5878	0.5602	0.12
Mof_H 	H 	0.5307	0.14	0.8124	0.072
Mof_H 	H 	0.5218	0.2509	0.7786	0.083
Mof_H 	H 	0.3364	0.299	0.84	-0.035
Mof_H 	H 	0.387	0.2163	0.9135	-0.017
Mof_H 	H 	0.4942	0.3325	0.6194	0.077
Mof_H 	H 	0.3906	0.3543	0.7005	0.073
Mof_H 	H 	0.4017	0.2825	0.5689	-0.016
Mof_H 	H 	0.339	0.3914	0.5767	-0.015
Mof_H 	H 	0.5624	0.1618	0.6016	0.106
Mof_H 	H 	0.6251	0.1905	0.6406	0.108
Mof_H 	H 	0.5978	0.0927	0.6861	0.092
Mof_H 	H 	0.4877	0.4883	0.6966	0.077
Mof_H 	H 	0.5599	0.5224	0.7214	0.097
Mof_H 	H 	0.4789	0.6837	0.6576	-0.028
Mof_H 	H 	0.5177	0.6239	0.5876	-0.012
Mof_H 	H 	0.4699	0.6465	0.7954	0.086
Mof_H 	H 	0.4606	0.5634	0.8823	0.117
Mof_H 	H 	0.2708	0.6414	0.9279	0.004
Mof_H 	H 	0.3338	0.7114	0.9121	0.012
Mof_H 	H 	0.3384	0.4732	0.9097	0.129
Mof_H 	H 	0.4647	0.4248	0.8688	0.149
Mof_H 	H 	0.3799	0.428	0.8292	0.106
Mof_H 	H 	0.5954	0.8531	0.7816	0.071
Mof_H 	H 	0.5991	0.926	0.8228	0.077
Mof_H 	H 	0.7608	0.9352	0.7249	-0.009
Mof_H 	H 	0.692	0.9421	0.6683	-0.015
Mof_H 	H 	0.5602	0.7832	0.9587	0.088
Mof_H 	H 	0.6587	0.6849	0.9658	0.082
Mof_H 	H 	0.5201	0.7507	0.8621	-0.008
Mof_H 	H 	0.5434	0.6512	0.9327	0.019
Mof_H 	H 	0.7935	0.8528	0.8545	0.101
Mof_H 	H 	0.6858	0.8638	0.9337	0.118
Mof_H 	H 	0.7824	0.7639	0.9359	0.108
Mof_H 	H 	0.2431	0.8075	0.4576	0.151
Mof_H 	H 	0.1628	0.0713	0.0638	0.163
Mof_H 	H 	0.9806	0.8176	0.4639	0.167
Mof_H 	H 	0.1942	0.3327	0.6716	0.157
Mof_H 	H 	0.2385	0.814	0.8076	0.155
Mof_H 	H 	0.6561	0.6099	0.7969	0.183
Mof_H 	H 	0.9816	0.1505	0.8343	0.11
Mof_H 	H 	0.0533	0.0764	0.8972	0.108
Mof_H 	H 	0.8954	0.1772	0.9998	0.099
Mof_H 	H 	0.938	0.2423	0.0191	0.079
Mof_H 	H 	0.209	0.9928	0.4828	0.045
Mof_H 	H 	0.1206	0.9887	0.4513	0.044
Mof_H 	H 	0.0682	0.8788	0.7754	0.19
Mof_H 	H 	0.9801	0.9158	0.7265	0.201
Mof_H 	H 	0.0461	0.0328	0.5786	0.017
Mof_H 	H 	0.0311	0.9352	0.5875	0.045
Mof_H 	H 	0.9775	0.1087	0.1045	-0.04
Mof_H 	H 	0.0196	0.0513	0.0322	-0.044
Mof_C 	C 	0.578	0.0879	0.4508	-0.11
Mof_C 	C 	0.9252	0.6138	0.0406	-0.104
Mof_C 	C 	0.3834	0.0917	0.4558	-0.107
Mof_C 	C 	0.5647	0.9485	0.3999	-0.089
Mof_C 	C 	0.8958	0.4447	0.0851	-0.099
Mof_C 	C 	0.0805	0.444	0.0805	-0.112
Mof_C 	C 	0.9389	0.2062	0.2626	0.461
Mof_C 	C 	0.856	0.0157	0.3256	-0.348
Mof_C 	C 	0.8617	0.867	0.2181	0.178
Mof_C 	C 	0.0584	0.6823	0.1194	-0.333
Mof_C 	C 	0.0942	0.4368	0.4104	-0.174
Mof_C 	C 	0.1025	0.4445	0.3203	0.104
Mof_C 	C 	0.1456	0.3128	0.5358	-0.177
Mof_C 	C 	0.0491	0.2806	0.5707	0.122
Mof_C 	C 	0.281	0.3645	0.4128	-0.312
Mof_C 	C 	0.515	0.7947	0.2098	-0.2
Mof_C 	C 	0.6227	0.7699	0.1434	0.146
Mof_C 	C 	0.5687	0.6875	0.3404	-0.184
Mof_C 	C 	0.6388	0.6759	0.39	0.128
Mof_C 	C 	0.4279	0.8404	0.3452	-0.299
Mof_C 	C 	0.5115	0.4595	0.2862	-0.197
Mof_C 	C 	0.5326	0.3659	0.3554	0.122
Mof_C 	C 	0.5773	0.3904	0.1608	-0.188
Mof_C 	C 	0.6819	0.3221	0.1166	0.119
Mof_C 	C 	0.6044	0.5373	0.1439	-0.327
Mof_C 	C 	0.3565	0.129	0.2042	-0.19
Mof_C 	C 	0.2733	0.1003	0.2856	0.119
Mof_C 	C 	0.3795	0.2622	0.0745	-0.177
Mof_C 	C 	0.4233	0.3018	0.113	0.123
Mof_C 	C 	0.2564	0.1801	0.1012	-0.292
Mof_C 	C 	0.957	0.8614	0.1461	-0.229
Mof_C 	C 	0.0386	0.8124	0.0062	-0.427
Mof_C 	C 	0.8414	0.0413	0.504	0.007
Mof_C 	C 	0.9449	0.1254	0.2743	-0.499
Mof_C 	C 	0.9152	0.0354	0.423	-0.118
Mof_C 	C 	0.9836	0.8905	0.9571	0.411
Mof_C 	C 	0.422	0.9121	0.5492	-0.094
Mof_C 	C 	0.0748	0.3862	0.9594	-0.095
Mof_C 	C 	0.6166	0.9083	0.5442	-0.094
Mof_C 	C 	0.4353	0.0515	0.6001	-0.102
Mof_C 	C 	0.1042	0.5553	0.9149	-0.093
Mof_C 	C 	0.9195	0.556	0.9195	-0.091
Mof_C 	C 	0.0611	0.7938	0.7374	0.547
Mof_C 	C 	0.144	0.9843	0.6744	-0.168
Mof_C 	C 	0.1383	0.133	0.7819	0.195
Mof_C 	C 	0.9416	0.3177	0.8806	-0.326
Mof_C 	C 	0.9058	0.5632	0.5896	-0.177
Mof_C 	C 	0.8975	0.5555	0.6797	0.104
Mof_C 	C 	0.8544	0.6872	0.4642	-0.192
Mof_C 	C 	0.9509	0.7194	0.4293	0.156
Mof_C 	C 	0.719	0.6355	0.5872	-0.314
Mof_C 	C 	0.485	0.2053	0.7902	-0.196
Mof_C 	C 	0.3773	0.2301	0.8566	0.14
Mof_C 	C 	0.4313	0.3125	0.6596	-0.183
Mof_C 	C 	0.3612	0.3241	0.61	0.127
Mof_C 	C 	0.5721	0.1596	0.6548	-0.291
Mof_C 	C 	0.4885	0.5405	0.7138	-0.197
Mof_C 	C 	0.4674	0.6341	0.6446	0.122
Mof_C 	C 	0.4227	0.6096	0.8392	-0.186
Mof_C 	C 	0.3181	0.6779	0.8834	0.115
Mof_C 	C 	0.3956	0.4627	0.8561	-0.336
Mof_C 	C 	0.6435	0.871	0.7958	-0.191
Mof_C 	C 	0.7267	0.8997	0.7144	0.114
Mof_C 	C 	0.6205	0.7378	0.9255	-0.183
Mof_C 	C 	0.5767	0.6982	0.887	0.123
Mof_C 	C 	0.7436	0.8199	0.8988	-0.31
Mof_C 	C 	0.043	0.1386	0.8539	-0.258
Mof_C 	C 	0.9614	0.1876	0.9938	-0.204
Mof_C 	C 	0.1586	0.9587	0.496	-0.047
Mof_C 	C 	0.0551	0.8746	0.7257	-0.594
Mof_C 	C 	0.0848	0.9646	0.577	-0.026
Mof_C 	C 	0.0164	0.1095	0.0429	0.194
Mof_N 	N 	0.6287	0.1394	0.4228	-0.199
Mof_N 	N 	0.8807	0.6824	0.0653	-0.202
Mof_N 	N 	0.3104	0.1463	0.4312	-0.199
Mof_N 	N 	0.5994	0.9142	0.3418	-0.198
Mof_N 	N 	0.8351	0.4099	0.1412	-0.201
Mof_N 	N 	0.1286	0.4029	0.1304	-0.191
Mof_N 	N 	0.8663	0.0801	0.3608	-0.086
Mof_N 	N 	0.984	0.7808	0.1037	-0.081
Mof_N 	N 	0.1776	0.348	0.4411	-0.113
Mof_N 	N 	0.5302	0.7901	0.2915	-0.115
Mof_N 	N 	0.5985	0.4439	0.2035	-0.11
Mof_N 	N 	0.3031	0.2113	0.1428	-0.12
Mof_N 	N 	0.3713	0.8606	0.5772	-0.199
Mof_N 	N 	0.1193	0.3176	0.9347	-0.201
Mof_N 	N 	0.6896	0.8537	0.5688	-0.2
Mof_N 	N 	0.4006	0.0858	0.6582	-0.198
Mof_N 	N 	0.1649	0.5901	0.8588	-0.202
Mof_N 	N 	0.8714	0.5971	0.8696	-0.192
Mof_N 	N 	0.1337	0.9199	0.6392	-0.112
Mof_N 	N 	0.016	0.2192	0.8963	-0.108
Mof_N 	N 	0.8224	0.652	0.5589	-0.11
Mof_N 	N 	0.4698	0.2099	0.7085	-0.117
Mof_N 	N 	0.4015	0.5561	0.7965	-0.109
Mof_N 	N 	0.6969	0.7887	0.8572	-0.116
Mof_O 	O 	0.8395	0.269	0.3032	-0.503
Mof_O 	O 	0.774	0.1567	0.5027	-0.369
Mof_O 	O 	0.7827	0.8788	0.1833	-0.46
Mof_O 	O 	0.8814	0.8927	0.9737	-0.468
Mof_O 	O 	0.1059	0.3537	0.318	-0.441
Mof_O 	O 	0.06	0.2236	0.5196	-0.39
Mof_O 	O 	0.6787	0.8263	0.1395	-0.463
Mof_O 	O 	0.7318	0.701	0.3323	-0.41
Mof_O 	O 	0.6405	0.3354	0.3568	-0.452
Mof_O 	O 	0.7347	0.254	0.1794	-0.409
Mof_O 	O 	0.1939	0.1845	0.3118	-0.46
Mof_O 	O 	0.3395	0.3477	0.1791	-0.4
Mof_O 	O 	0.1605	0.731	0.6968	-0.52
Mof_O 	O 	0.226	0.8433	0.4973	-0.361
Mof_O 	O 	0.2173	0.1212	0.8167	-0.464
Mof_O 	O 	0.1186	0.1073	0.0263	-0.431
Mof_O 	O 	0.8941	0.6463	0.682	-0.438
Mof_O 	O 	0.94	0.7764	0.4804	-0.395
Mof_O 	O 	0.3213	0.1737	0.8605	-0.46
Mof_O 	O 	0.2682	0.299	0.6677	-0.41
Mof_O 	O 	0.3595	0.6646	0.6432	-0.451
Mof_O 	O 	0.2653	0.746	0.8206	-0.408
Mof_O 	O 	0.8061	0.8155	0.6882	-0.454
Mof_O 	O 	0.6605	0.6523	0.8209	-0.399
Mof_N 	N 	0.3402	0.5796	0.1106	0.059
Mof_O 	O 	0.3066	0.5407	0.1879	-0.163
Mof_O 	O 	0.3556	0.6553	0.0902	-0.155
Mof_O 	O 	0.3609	0.5379	0.0576	-0.147
Mof_N 	N 	0.6598	0.4204	0.8894	0.057
Mof_O 	O 	0.6934	0.4593	0.8121	-0.162
Mof_O 	O 	0.6444	0.3447	0.9098	-0.146
Mof_O 	O 	0.6391	0.4621	0.9424	-0.135
_end
