data_functionalizedCrystal
_audit_creation_method	'EQeq! by Chris Wilmer'
_symmetry_space_group_name_H-M	'P1'
_symmetry_Int_Tables_number	1
_symmetry_cell_setting	triclinic
loop_
_symmetry_equiv_pos_as_xyz
  x,y,z
_cell_length_a	50.9199
_cell_length_b	50.9199
_cell_length_c	50.9199
_cell_angle_alpha	90
_cell_angle_beta	90
_cell_angle_gamma	90
loop_
_atom_site_label
_atom_site_type_symbol
_atom_site_fract_x
_atom_site_fract_y
_atom_site_fract_z
_atom_site_charge
Mof_O 	O 	0.8891	0.09992	0.0344	-0.571
Mof_O 	O 	0.9235	0.1187	0.0198	-0.436
Mof_O 	O 	0.0098	0.0572	0.087	-0.42
Mof_O 	O 	0.83718	0.10754	0.01264	-0.469
Mof_O 	O 	0.84296	0.12835	0.97491	-0.521
Mof_O 	O 	0.71539	0.07914	0.00325	-0.365
Mof_O 	O 	0.63827	0.07078	0.03998	-0.376
Mof_C 	C 	0.9134	0.1041	0.035	0.415
Mof_C 	C 	0.9286	0.0878	0.0552	-0.155
Mof_C 	C 	0.9553	0.0906	0.0559	0.129
Mof_C 	C 	0.8289	0.1165	0.991	0.321
Mof_C 	C 	0.8004	0.111	0.9836	-0.107
Mof_C 	C 	0.783	0.09952	0.0014	0.118
Mof_O 	O 	0.8891	0.59992	0.5344	-0.571
Mof_O 	O 	0.9235	0.6187	0.5198	-0.436
Mof_O 	O 	0.0098	0.5572	0.587	-0.42
Mof_O 	O 	0.83718	0.60754	0.51264	-0.468
Mof_O 	O 	0.84296	0.62835	0.47491	-0.522
Mof_O 	O 	0.71539	0.57914	0.50325	-0.365
Mof_O 	O 	0.63827	0.57078	0.53998	-0.376
Mof_C 	C 	0.9134	0.6041	0.535	0.415
Mof_C 	C 	0.9286	0.5878	0.5552	-0.155
Mof_C 	C 	0.9553	0.5906	0.5559	0.129
Mof_C 	C 	0.8289	0.6165	0.491	0.32
Mof_C 	C 	0.8004	0.611	0.4836	-0.109
Mof_C 	C 	0.783	0.59952	0.5014	0.122
Mof_O 	O 	0.3891	0.09992	0.5344	-0.571
Mof_O 	O 	0.4235	0.1187	0.5198	-0.436
Mof_O 	O 	0.5098	0.0572	0.587	-0.419
Mof_O 	O 	0.33718	0.10754	0.51264	-0.468
Mof_O 	O 	0.34296	0.12835	0.47491	-0.522
Mof_O 	O 	0.21539	0.07914	0.50325	-0.365
Mof_O 	O 	0.13827	0.07078	0.53998	-0.376
Mof_C 	C 	0.4134	0.1041	0.535	0.415
Mof_C 	C 	0.4286	0.0878	0.5552	-0.155
Mof_C 	C 	0.4553	0.0906	0.5559	0.128
Mof_C 	C 	0.3289	0.1165	0.491	0.32
Mof_C 	C 	0.3004	0.111	0.4836	-0.109
Mof_C 	C 	0.283	0.09952	0.5014	0.122
Mof_O 	O 	0.3891	0.59992	0.0344	-0.571
Mof_O 	O 	0.4235	0.6187	0.0198	-0.436
Mof_O 	O 	0.5098	0.5572	0.087	-0.419
Mof_O 	O 	0.33718	0.60754	0.01264	-0.469
Mof_O 	O 	0.34296	0.62835	0.97491	-0.521
Mof_O 	O 	0.21539	0.57914	0.00325	-0.365
Mof_O 	O 	0.13827	0.57078	0.03998	-0.376
Mof_C 	C 	0.4134	0.6041	0.035	0.415
Mof_C 	C 	0.4286	0.5878	0.0552	-0.155
Mof_C 	C 	0.4553	0.5906	0.0559	0.128
Mof_C 	C 	0.3289	0.6165	0.991	0.321
Mof_C 	C 	0.3004	0.611	0.9836	-0.107
Mof_C 	C 	0.283	0.59952	0.0014	0.118
Mof_O 	O 	0.8609	0.15008	0.5344	-0.572
Mof_O 	O 	0.8265	0.1313	0.5198	-0.437
Mof_O 	O 	0.7402	0.1928	0.587	-0.42
Mof_O 	O 	0.91282	0.14246	0.51264	-0.469
Mof_O 	O 	0.90704	0.12165	0.47491	-0.523
Mof_O 	O 	0.03461	0.17086	0.50325	-0.365
Mof_O 	O 	0.11173	0.17922	0.53998	-0.377
Mof_C 	C 	0.8366	0.1459	0.535	0.414
Mof_C 	C 	0.8214	0.1622	0.5552	-0.156
Mof_C 	C 	0.7947	0.1594	0.5559	0.127
Mof_C 	C 	0.9211	0.1335	0.491	0.319
Mof_C 	C 	0.9496	0.139	0.4836	-0.109
Mof_C 	C 	0.967	0.15048	0.5014	0.12
Mof_O 	O 	0.8609	0.65008	0.0344	-0.572
Mof_O 	O 	0.8265	0.6313	0.0198	-0.437
Mof_O 	O 	0.7402	0.6928	0.087	-0.42
Mof_O 	O 	0.91282	0.64246	0.01264	-0.47
Mof_O 	O 	0.90704	0.62165	0.97491	-0.522
Mof_O 	O 	0.03461	0.67086	0.00325	-0.365
Mof_O 	O 	0.11173	0.67922	0.03998	-0.377
Mof_C 	C 	0.8366	0.6459	0.035	0.414
Mof_C 	C 	0.8214	0.6622	0.0552	-0.156
Mof_C 	C 	0.7947	0.6594	0.0559	0.127
Mof_C 	C 	0.9211	0.6335	0.991	0.32
Mof_C 	C 	0.9496	0.639	0.9836	-0.107
Mof_C 	C 	0.967	0.65048	0.0014	0.116
Mof_O 	O 	0.3609	0.15008	0.0344	-0.572
Mof_O 	O 	0.3265	0.1313	0.0198	-0.437
Mof_O 	O 	0.2402	0.1928	0.087	-0.42
Mof_O 	O 	0.41282	0.14246	0.01264	-0.47
Mof_O 	O 	0.40704	0.12165	0.97491	-0.522
Mof_O 	O 	0.53461	0.17086	0.00325	-0.366
Mof_O 	O 	0.61173	0.17922	0.03998	-0.377
Mof_C 	C 	0.3366	0.1459	0.035	0.414
Mof_C 	C 	0.3214	0.1622	0.0552	-0.156
Mof_C 	C 	0.2947	0.1594	0.0559	0.127
Mof_C 	C 	0.4211	0.1335	0.991	0.32
Mof_C 	C 	0.4496	0.139	0.9836	-0.108
Mof_C 	C 	0.467	0.15048	0.0014	0.117
Mof_O 	O 	0.3609	0.65008	0.5344	-0.572
Mof_O 	O 	0.3265	0.6313	0.5198	-0.437
Mof_O 	O 	0.2402	0.6928	0.587	-0.42
Mof_O 	O 	0.41282	0.64246	0.51264	-0.469
Mof_O 	O 	0.40704	0.62165	0.47491	-0.523
Mof_O 	O 	0.53461	0.67086	0.50325	-0.366
Mof_O 	O 	0.61173	0.67922	0.53998	-0.377
Mof_C 	C 	0.3366	0.6459	0.535	0.414
Mof_C 	C 	0.3214	0.6622	0.5552	-0.156
Mof_C 	C 	0.2947	0.6594	0.5559	0.127
Mof_C 	C 	0.4211	0.6335	0.491	0.319
Mof_C 	C 	0.4496	0.639	0.4836	-0.11
Mof_C 	C 	0.467	0.65048	0.5014	0.121
Mof_O 	O 	0.3609	0.59992	0.7156	-0.572
Mof_O 	O 	0.3265	0.6187	0.7302	-0.437
Mof_O 	O 	0.2402	0.5572	0.663	-0.42
Mof_O 	O 	0.41282	0.60754	0.73736	-0.469
Mof_O 	O 	0.40704	0.62835	0.77509	-0.523
Mof_O 	O 	0.53461	0.57914	0.74675	-0.366
Mof_O 	O 	0.61173	0.57078	0.71002	-0.377
Mof_C 	C 	0.3366	0.6041	0.715	0.414
Mof_C 	C 	0.3214	0.5878	0.6948	-0.156
Mof_C 	C 	0.2947	0.5906	0.6941	0.127
Mof_C 	C 	0.4211	0.6165	0.759	0.319
Mof_C 	C 	0.4496	0.611	0.7664	-0.11
Mof_C 	C 	0.467	0.59952	0.7486	0.121
Mof_O 	O 	0.3609	0.09992	0.2156	-0.572
Mof_O 	O 	0.3265	0.1187	0.2302	-0.437
Mof_O 	O 	0.2402	0.0572	0.163	-0.42
Mof_O 	O 	0.41282	0.10754	0.23736	-0.469
Mof_O 	O 	0.40704	0.12835	0.27509	-0.523
Mof_O 	O 	0.53461	0.07914	0.24675	-0.366
Mof_O 	O 	0.61173	0.07078	0.21002	-0.377
Mof_C 	C 	0.3366	0.1041	0.215	0.414
Mof_C 	C 	0.3214	0.0878	0.1948	-0.156
Mof_C 	C 	0.2947	0.0906	0.1941	0.127
Mof_C 	C 	0.4211	0.1165	0.259	0.319
Mof_C 	C 	0.4496	0.111	0.2664	-0.11
Mof_C 	C 	0.467	0.09952	0.2486	0.121
Mof_O 	O 	0.8609	0.59992	0.2156	-0.572
Mof_O 	O 	0.8265	0.6187	0.2302	-0.437
Mof_O 	O 	0.7402	0.5572	0.163	-0.42
Mof_O 	O 	0.91282	0.60754	0.23736	-0.469
Mof_O 	O 	0.90704	0.62835	0.27509	-0.523
Mof_O 	O 	0.03461	0.57914	0.24675	-0.365
Mof_O 	O 	0.11173	0.57078	0.21002	-0.377
Mof_C 	C 	0.8366	0.6041	0.215	0.414
Mof_C 	C 	0.8214	0.5878	0.1948	-0.156
Mof_C 	C 	0.7947	0.5906	0.1941	0.127
Mof_C 	C 	0.9211	0.6165	0.259	0.319
Mof_C 	C 	0.9496	0.611	0.2664	-0.109
Mof_C 	C 	0.967	0.59952	0.2486	0.12
Mof_O 	O 	0.8609	0.09992	0.7156	-0.572
Mof_O 	O 	0.8265	0.1187	0.7302	-0.437
Mof_O 	O 	0.7402	0.0572	0.663	-0.42
Mof_O 	O 	0.91282	0.10754	0.73736	-0.469
Mof_O 	O 	0.90704	0.12835	0.77509	-0.523
Mof_O 	O 	0.03461	0.07914	0.74675	-0.365
Mof_O 	O 	0.11173	0.07078	0.71002	-0.377
Mof_C 	C 	0.8366	0.1041	0.715	0.414
Mof_C 	C 	0.8214	0.0878	0.6948	-0.156
Mof_C 	C 	0.7947	0.0906	0.6941	0.127
Mof_C 	C 	0.9211	0.1165	0.759	0.319
Mof_C 	C 	0.9496	0.111	0.7664	-0.109
Mof_C 	C 	0.967	0.09952	0.7486	0.12
Mof_O 	O 	0.3891	0.65008	0.2156	-0.572
Mof_O 	O 	0.4235	0.6313	0.2302	-0.437
Mof_O 	O 	0.5098	0.6928	0.163	-0.42
Mof_O 	O 	0.33718	0.64246	0.23736	-0.469
Mof_O 	O 	0.34296	0.62165	0.27509	-0.523
Mof_O 	O 	0.21539	0.67086	0.24675	-0.366
Mof_O 	O 	0.13827	0.67922	0.21002	-0.377
Mof_C 	C 	0.4134	0.6459	0.215	0.414
Mof_C 	C 	0.4286	0.6622	0.1948	-0.156
Mof_C 	C 	0.4553	0.6594	0.1941	0.127
Mof_C 	C 	0.3289	0.6335	0.259	0.319
Mof_C 	C 	0.3004	0.639	0.2664	-0.11
Mof_C 	C 	0.283	0.65048	0.2486	0.121
Mof_O 	O 	0.3891	0.15008	0.7156	-0.572
Mof_O 	O 	0.4235	0.1313	0.7302	-0.437
Mof_O 	O 	0.5098	0.1928	0.663	-0.42
Mof_O 	O 	0.33718	0.14246	0.73736	-0.469
Mof_O 	O 	0.34296	0.12165	0.77509	-0.523
Mof_O 	O 	0.21539	0.17086	0.74675	-0.366
Mof_O 	O 	0.13827	0.17922	0.71002	-0.377
Mof_C 	C 	0.4134	0.1459	0.715	0.414
Mof_C 	C 	0.4286	0.1622	0.6948	-0.156
Mof_C 	C 	0.4553	0.1594	0.6941	0.127
Mof_C 	C 	0.3289	0.1335	0.759	0.319
Mof_C 	C 	0.3004	0.139	0.7664	-0.11
Mof_C 	C 	0.283	0.15048	0.7486	0.121
Mof_O 	O 	0.8891	0.65008	0.7156	-0.572
Mof_O 	O 	0.9235	0.6313	0.7302	-0.437
Mof_O 	O 	0.0098	0.6928	0.663	-0.421
Mof_O 	O 	0.83718	0.64246	0.73736	-0.469
Mof_O 	O 	0.84296	0.62165	0.77509	-0.523
Mof_O 	O 	0.71539	0.67086	0.74675	-0.366
Mof_O 	O 	0.63827	0.67922	0.71002	-0.377
Mof_C 	C 	0.9134	0.6459	0.715	0.414
Mof_C 	C 	0.9286	0.6622	0.6948	-0.156
Mof_C 	C 	0.9553	0.6594	0.6941	0.128
Mof_C 	C 	0.8289	0.6335	0.759	0.319
Mof_C 	C 	0.8004	0.639	0.7664	-0.11
Mof_C 	C 	0.783	0.65048	0.7486	0.121
Mof_O 	O 	0.8891	0.15008	0.2156	-0.572
Mof_O 	O 	0.9235	0.1313	0.2302	-0.437
Mof_O 	O 	0.0098	0.1928	0.163	-0.421
Mof_O 	O 	0.83718	0.14246	0.23736	-0.469
Mof_O 	O 	0.84296	0.12165	0.27509	-0.523
Mof_O 	O 	0.71539	0.17086	0.24675	-0.366
Mof_O 	O 	0.63827	0.17922	0.21002	-0.377
Mof_C 	C 	0.9134	0.1459	0.215	0.414
Mof_C 	C 	0.9286	0.1622	0.1948	-0.156
Mof_C 	C 	0.9553	0.1594	0.1941	0.128
Mof_C 	C 	0.8289	0.1335	0.259	0.319
Mof_C 	C 	0.8004	0.139	0.2664	-0.11
Mof_C 	C 	0.783	0.15048	0.2486	0.121
Mof_O 	O 	0.0344	0.8891	0.09992	-0.572
Mof_O 	O 	0.0198	0.9235	0.1187	-0.437
Mof_O 	O 	0.087	0.0098	0.0572	-0.421
Mof_O 	O 	0.01264	0.83718	0.10754	-0.47
Mof_O 	O 	0.97491	0.84296	0.12835	-0.522
Mof_O 	O 	0.00325	0.71539	0.07914	-0.366
Mof_O 	O 	0.03998	0.63827	0.07078	-0.377
Mof_C 	C 	0.035	0.9134	0.1041	0.414
Mof_C 	C 	0.0552	0.9286	0.0878	-0.156
Mof_C 	C 	0.0559	0.9553	0.0906	0.128
Mof_C 	C 	0.991	0.8289	0.1165	0.32
Mof_C 	C 	0.9836	0.8004	0.111	-0.108
Mof_C 	C 	0.0014	0.783	0.09952	0.117
Mof_O 	O 	0.0344	0.3891	0.59992	-0.572
Mof_O 	O 	0.0198	0.4235	0.6187	-0.437
Mof_O 	O 	0.087	0.5098	0.5572	-0.42
Mof_O 	O 	0.01264	0.33718	0.60754	-0.47
Mof_O 	O 	0.97491	0.34296	0.62835	-0.522
Mof_O 	O 	0.00325	0.21539	0.57914	-0.366
Mof_O 	O 	0.03998	0.13827	0.57078	-0.377
Mof_C 	C 	0.035	0.4134	0.6041	0.414
Mof_C 	C 	0.0552	0.4286	0.5878	-0.156
Mof_C 	C 	0.0559	0.4553	0.5906	0.127
Mof_C 	C 	0.991	0.3289	0.6165	0.32
Mof_C 	C 	0.9836	0.3004	0.611	-0.108
Mof_C 	C 	0.0014	0.283	0.59952	0.117
Mof_O 	O 	0.5344	0.8891	0.59992	-0.572
Mof_O 	O 	0.5198	0.9235	0.6187	-0.437
Mof_O 	O 	0.587	0.0098	0.5572	-0.421
Mof_O 	O 	0.51264	0.83718	0.60754	-0.469
Mof_O 	O 	0.47491	0.84296	0.62835	-0.523
Mof_O 	O 	0.50325	0.71539	0.57914	-0.366
Mof_O 	O 	0.53998	0.63827	0.57078	-0.377
Mof_C 	C 	0.535	0.9134	0.6041	0.414
Mof_C 	C 	0.5552	0.9286	0.5878	-0.156
Mof_C 	C 	0.5559	0.9553	0.5906	0.128
Mof_C 	C 	0.491	0.8289	0.6165	0.319
Mof_C 	C 	0.4836	0.8004	0.611	-0.11
Mof_C 	C 	0.5014	0.783	0.59952	0.121
Mof_O 	O 	0.5344	0.3891	0.09992	-0.572
Mof_O 	O 	0.5198	0.4235	0.1187	-0.437
Mof_O 	O 	0.587	0.5098	0.0572	-0.42
Mof_O 	O 	0.51264	0.33718	0.10754	-0.469
Mof_O 	O 	0.47491	0.34296	0.12835	-0.523
Mof_O 	O 	0.50325	0.21539	0.07914	-0.366
Mof_O 	O 	0.53998	0.13827	0.07078	-0.377
Mof_C 	C 	0.535	0.4134	0.1041	0.414
Mof_C 	C 	0.5552	0.4286	0.0878	-0.156
Mof_C 	C 	0.5559	0.4553	0.0906	0.127
Mof_C 	C 	0.491	0.3289	0.1165	0.319
Mof_C 	C 	0.4836	0.3004	0.111	-0.11
Mof_C 	C 	0.5014	0.283	0.09952	0.121
Mof_O 	O 	0.5344	0.8609	0.15008	-0.572
Mof_O 	O 	0.5198	0.8265	0.1313	-0.437
Mof_O 	O 	0.587	0.7402	0.1928	-0.42
Mof_O 	O 	0.51264	0.91282	0.14246	-0.469
Mof_O 	O 	0.47491	0.90704	0.12165	-0.523
Mof_O 	O 	0.50325	0.03461	0.17086	-0.365
Mof_O 	O 	0.53998	0.11173	0.17922	-0.377
Mof_C 	C 	0.535	0.8366	0.1459	0.414
Mof_C 	C 	0.5552	0.8214	0.1622	-0.156
Mof_C 	C 	0.5559	0.7947	0.1594	0.127
Mof_C 	C 	0.491	0.9211	0.1335	0.319
Mof_C 	C 	0.4836	0.9496	0.139	-0.109
Mof_C 	C 	0.5014	0.967	0.15048	0.12
Mof_O 	O 	0.5344	0.3609	0.65008	-0.572
Mof_O 	O 	0.5198	0.3265	0.6313	-0.437
Mof_O 	O 	0.587	0.2402	0.6928	-0.42
Mof_O 	O 	0.51264	0.41282	0.64246	-0.469
Mof_O 	O 	0.47491	0.40704	0.62165	-0.523
Mof_O 	O 	0.50325	0.53461	0.67086	-0.366
Mof_O 	O 	0.53998	0.61173	0.67922	-0.377
Mof_C 	C 	0.535	0.3366	0.6459	0.414
Mof_C 	C 	0.5552	0.3214	0.6622	-0.156
Mof_C 	C 	0.5559	0.2947	0.6594	0.127
Mof_C 	C 	0.491	0.4211	0.6335	0.319
Mof_C 	C 	0.4836	0.4496	0.639	-0.11
Mof_C 	C 	0.5014	0.467	0.65048	0.121
Mof_O 	O 	0.0344	0.8609	0.65008	-0.572
Mof_O 	O 	0.0198	0.8265	0.6313	-0.437
Mof_O 	O 	0.087	0.7402	0.6928	-0.42
Mof_O 	O 	0.01264	0.91282	0.64246	-0.47
Mof_O 	O 	0.97491	0.90704	0.62165	-0.522
Mof_O 	O 	0.00325	0.03461	0.67086	-0.365
Mof_O 	O 	0.03998	0.11173	0.67922	-0.377
Mof_C 	C 	0.035	0.8366	0.6459	0.414
Mof_C 	C 	0.0552	0.8214	0.6622	-0.156
Mof_C 	C 	0.0559	0.7947	0.6594	0.127
Mof_C 	C 	0.991	0.9211	0.6335	0.32
Mof_C 	C 	0.9836	0.9496	0.639	-0.107
Mof_C 	C 	0.0014	0.967	0.65048	0.116
Mof_O 	O 	0.0344	0.3609	0.15008	-0.572
Mof_O 	O 	0.0198	0.3265	0.1313	-0.437
Mof_O 	O 	0.087	0.2402	0.1928	-0.42
Mof_O 	O 	0.01264	0.41282	0.14246	-0.47
Mof_O 	O 	0.97491	0.40704	0.12165	-0.522
Mof_O 	O 	0.00325	0.53461	0.17086	-0.366
Mof_O 	O 	0.03998	0.61173	0.17922	-0.377
Mof_C 	C 	0.035	0.3366	0.1459	0.414
Mof_C 	C 	0.0552	0.3214	0.1622	-0.156
Mof_C 	C 	0.0559	0.2947	0.1594	0.127
Mof_C 	C 	0.991	0.4211	0.1335	0.32
Mof_C 	C 	0.9836	0.4496	0.139	-0.108
Mof_C 	C 	0.0014	0.467	0.15048	0.117
Mof_O 	O 	0.7156	0.3609	0.59992	-0.572
Mof_O 	O 	0.7302	0.3265	0.6187	-0.437
Mof_O 	O 	0.663	0.2402	0.5572	-0.42
Mof_O 	O 	0.73736	0.41282	0.60754	-0.469
Mof_O 	O 	0.77509	0.40704	0.62835	-0.523
Mof_O 	O 	0.74675	0.53461	0.57914	-0.366
Mof_O 	O 	0.71002	0.61173	0.57078	-0.377
Mof_C 	C 	0.715	0.3366	0.6041	0.414
Mof_C 	C 	0.6948	0.3214	0.5878	-0.156
Mof_C 	C 	0.6941	0.2947	0.5906	0.127
Mof_C 	C 	0.759	0.4211	0.6165	0.319
Mof_C 	C 	0.7664	0.4496	0.611	-0.11
Mof_C 	C 	0.7486	0.467	0.59952	0.121
Mof_O 	O 	0.7156	0.8609	0.09992	-0.572
Mof_O 	O 	0.7302	0.8265	0.1187	-0.437
Mof_O 	O 	0.663	0.7402	0.0572	-0.42
Mof_O 	O 	0.73736	0.91282	0.10754	-0.469
Mof_O 	O 	0.77509	0.90704	0.12835	-0.523
Mof_O 	O 	0.74675	0.03461	0.07914	-0.365
Mof_O 	O 	0.71002	0.11173	0.07078	-0.377
Mof_C 	C 	0.715	0.8366	0.1041	0.414
Mof_C 	C 	0.6948	0.8214	0.0878	-0.156
Mof_C 	C 	0.6941	0.7947	0.0906	0.127
Mof_C 	C 	0.759	0.9211	0.1165	0.319
Mof_C 	C 	0.7664	0.9496	0.111	-0.109
Mof_C 	C 	0.7486	0.967	0.09952	0.12
Mof_O 	O 	0.2156	0.3609	0.09992	-0.572
Mof_O 	O 	0.2302	0.3265	0.1187	-0.437
Mof_O 	O 	0.163	0.2402	0.0572	-0.42
Mof_O 	O 	0.23736	0.41282	0.10754	-0.469
Mof_O 	O 	0.27509	0.40704	0.12835	-0.523
Mof_O 	O 	0.24675	0.53461	0.07914	-0.366
Mof_O 	O 	0.21002	0.61173	0.07078	-0.377
Mof_C 	C 	0.215	0.3366	0.1041	0.414
Mof_C 	C 	0.1948	0.3214	0.0878	-0.156
Mof_C 	C 	0.1941	0.2947	0.0906	0.127
Mof_C 	C 	0.259	0.4211	0.1165	0.319
Mof_C 	C 	0.2664	0.4496	0.111	-0.11
Mof_C 	C 	0.2486	0.467	0.09952	0.121
Mof_O 	O 	0.2156	0.8609	0.59992	-0.572
Mof_O 	O 	0.2302	0.8265	0.6187	-0.437
Mof_O 	O 	0.163	0.7402	0.5572	-0.42
Mof_O 	O 	0.23736	0.91282	0.60754	-0.469
Mof_O 	O 	0.27509	0.90704	0.62835	-0.523
Mof_O 	O 	0.24675	0.03461	0.57914	-0.365
Mof_O 	O 	0.21002	0.11173	0.57078	-0.377
Mof_C 	C 	0.215	0.8366	0.6041	0.414
Mof_C 	C 	0.1948	0.8214	0.5878	-0.156
Mof_C 	C 	0.1941	0.7947	0.5906	0.127
Mof_C 	C 	0.259	0.9211	0.6165	0.319
Mof_C 	C 	0.2664	0.9496	0.611	-0.109
Mof_C 	C 	0.2486	0.967	0.59952	0.12
Mof_O 	O 	0.2156	0.3891	0.65008	-0.572
Mof_O 	O 	0.2302	0.4235	0.6313	-0.437
Mof_O 	O 	0.163	0.5098	0.6928	-0.42
Mof_O 	O 	0.23736	0.33718	0.64246	-0.469
Mof_O 	O 	0.27509	0.34296	0.62165	-0.523
Mof_O 	O 	0.24675	0.21539	0.67086	-0.366
Mof_O 	O 	0.21002	0.13827	0.67922	-0.377
Mof_C 	C 	0.215	0.4134	0.6459	0.414
Mof_C 	C 	0.1948	0.4286	0.6622	-0.156
Mof_C 	C 	0.1941	0.4553	0.6594	0.127
Mof_C 	C 	0.259	0.3289	0.6335	0.319
Mof_C 	C 	0.2664	0.3004	0.639	-0.11
Mof_C 	C 	0.2486	0.283	0.65048	0.121
Mof_O 	O 	0.2156	0.8891	0.15008	-0.572
Mof_O 	O 	0.2302	0.9235	0.1313	-0.437
Mof_O 	O 	0.163	0.0098	0.1928	-0.421
Mof_O 	O 	0.23736	0.83718	0.14246	-0.469
Mof_O 	O 	0.27509	0.84296	0.12165	-0.523
Mof_O 	O 	0.24675	0.71539	0.17086	-0.366
Mof_O 	O 	0.21002	0.63827	0.17922	-0.377
Mof_C 	C 	0.215	0.9134	0.1459	0.414
Mof_C 	C 	0.1948	0.9286	0.1622	-0.156
Mof_C 	C 	0.1941	0.9553	0.1594	0.128
Mof_C 	C 	0.259	0.8289	0.1335	0.319
Mof_C 	C 	0.2664	0.8004	0.139	-0.11
Mof_C 	C 	0.2486	0.783	0.15048	0.121
Mof_O 	O 	0.7156	0.3891	0.15008	-0.572
Mof_O 	O 	0.7302	0.4235	0.1313	-0.437
Mof_O 	O 	0.663	0.5098	0.1928	-0.42
Mof_O 	O 	0.73736	0.33718	0.14246	-0.469
Mof_O 	O 	0.77509	0.34296	0.12165	-0.523
Mof_O 	O 	0.74675	0.21539	0.17086	-0.366
Mof_O 	O 	0.71002	0.13827	0.17922	-0.377
Mof_C 	C 	0.715	0.4134	0.1459	0.414
Mof_C 	C 	0.6948	0.4286	0.1622	-0.156
Mof_C 	C 	0.6941	0.4553	0.1594	0.127
Mof_C 	C 	0.759	0.3289	0.1335	0.319
Mof_C 	C 	0.7664	0.3004	0.139	-0.11
Mof_C 	C 	0.7486	0.283	0.15048	0.121
Mof_O 	O 	0.7156	0.8891	0.65008	-0.572
Mof_O 	O 	0.7302	0.9235	0.6313	-0.437
Mof_O 	O 	0.663	0.0098	0.6928	-0.421
Mof_O 	O 	0.73736	0.83718	0.64246	-0.469
Mof_O 	O 	0.77509	0.84296	0.62165	-0.523
Mof_O 	O 	0.74675	0.71539	0.67086	-0.366
Mof_O 	O 	0.71002	0.63827	0.67922	-0.377
Mof_C 	C 	0.715	0.9134	0.6459	0.414
Mof_C 	C 	0.6948	0.9286	0.6622	-0.156
Mof_C 	C 	0.6941	0.9553	0.6594	0.128
Mof_C 	C 	0.759	0.8289	0.6335	0.319
Mof_C 	C 	0.7664	0.8004	0.639	-0.11
Mof_C 	C 	0.7486	0.783	0.65048	0.121
Mof_O 	O 	0.09992	0.0344	0.8891	-0.572
Mof_O 	O 	0.1187	0.0198	0.9235	-0.437
Mof_O 	O 	0.0572	0.087	0.0098	-0.421
Mof_O 	O 	0.10754	0.01264	0.83718	-0.47
Mof_O 	O 	0.12835	0.97491	0.84296	-0.522
Mof_O 	O 	0.07914	0.00325	0.71539	-0.366
Mof_O 	O 	0.07078	0.03998	0.63827	-0.377
Mof_C 	C 	0.1041	0.035	0.9134	0.414
Mof_C 	C 	0.0878	0.0552	0.9286	-0.156
Mof_C 	C 	0.0906	0.0559	0.9553	0.128
Mof_C 	C 	0.1165	0.991	0.8289	0.32
Mof_C 	C 	0.111	0.9836	0.8004	-0.108
Mof_C 	C 	0.09952	0.0014	0.783	0.117
Mof_O 	O 	0.09992	0.5344	0.3891	-0.572
Mof_O 	O 	0.1187	0.5198	0.4235	-0.437
Mof_O 	O 	0.0572	0.587	0.5098	-0.42
Mof_O 	O 	0.10754	0.51264	0.33718	-0.469
Mof_O 	O 	0.12835	0.47491	0.34296	-0.523
Mof_O 	O 	0.07914	0.50325	0.21539	-0.366
Mof_O 	O 	0.07078	0.53998	0.13827	-0.377
Mof_C 	C 	0.1041	0.535	0.4134	0.414
Mof_C 	C 	0.0878	0.5552	0.4286	-0.156
Mof_C 	C 	0.0906	0.5559	0.4553	0.127
Mof_C 	C 	0.1165	0.491	0.3289	0.319
Mof_C 	C 	0.111	0.4836	0.3004	-0.11
Mof_C 	C 	0.09952	0.5014	0.283	0.121
Mof_O 	O 	0.59992	0.0344	0.3891	-0.572
Mof_O 	O 	0.6187	0.0198	0.4235	-0.437
Mof_O 	O 	0.5572	0.087	0.5098	-0.42
Mof_O 	O 	0.60754	0.01264	0.33718	-0.47
Mof_O 	O 	0.62835	0.97491	0.34296	-0.522
Mof_O 	O 	0.57914	0.00325	0.21539	-0.366
Mof_O 	O 	0.57078	0.03998	0.13827	-0.377
Mof_C 	C 	0.6041	0.035	0.4134	0.414
Mof_C 	C 	0.5878	0.0552	0.4286	-0.156
Mof_C 	C 	0.5906	0.0559	0.4553	0.127
Mof_C 	C 	0.6165	0.991	0.3289	0.32
Mof_C 	C 	0.611	0.9836	0.3004	-0.108
Mof_C 	C 	0.59952	0.0014	0.283	0.117
Mof_O 	O 	0.59992	0.5344	0.8891	-0.572
Mof_O 	O 	0.6187	0.5198	0.9235	-0.437
Mof_O 	O 	0.5572	0.587	0.0098	-0.421
Mof_O 	O 	0.60754	0.51264	0.83718	-0.469
Mof_O 	O 	0.62835	0.47491	0.84296	-0.523
Mof_O 	O 	0.57914	0.50325	0.71539	-0.366
Mof_O 	O 	0.57078	0.53998	0.63827	-0.377
Mof_C 	C 	0.6041	0.535	0.9134	0.414
Mof_C 	C 	0.5878	0.5552	0.9286	-0.156
Mof_C 	C 	0.5906	0.5559	0.9553	0.128
Mof_C 	C 	0.6165	0.491	0.8289	0.319
Mof_C 	C 	0.611	0.4836	0.8004	-0.11
Mof_C 	C 	0.59952	0.5014	0.783	0.121
Mof_O 	O 	0.15008	0.5344	0.8609	-0.572
Mof_O 	O 	0.1313	0.5198	0.8265	-0.437
Mof_O 	O 	0.1928	0.587	0.7402	-0.42
Mof_O 	O 	0.14246	0.51264	0.91282	-0.469
Mof_O 	O 	0.12165	0.47491	0.90704	-0.523
Mof_O 	O 	0.17086	0.50325	0.03461	-0.365
Mof_O 	O 	0.17922	0.53998	0.11173	-0.377
Mof_C 	C 	0.1459	0.535	0.8366	0.414
Mof_C 	C 	0.1622	0.5552	0.8214	-0.156
Mof_C 	C 	0.1594	0.5559	0.7947	0.127
Mof_C 	C 	0.1335	0.491	0.9211	0.319
Mof_C 	C 	0.139	0.4836	0.9496	-0.109
Mof_C 	C 	0.15048	0.5014	0.967	0.12
Mof_O 	O 	0.15008	0.0344	0.3609	-0.572
Mof_O 	O 	0.1313	0.0198	0.3265	-0.437
Mof_O 	O 	0.1928	0.087	0.2402	-0.42
Mof_O 	O 	0.14246	0.01264	0.41282	-0.47
Mof_O 	O 	0.12165	0.97491	0.40704	-0.522
Mof_O 	O 	0.17086	0.00325	0.53461	-0.366
Mof_O 	O 	0.17922	0.03998	0.61173	-0.377
Mof_C 	C 	0.1459	0.035	0.3366	0.414
Mof_C 	C 	0.1622	0.0552	0.3214	-0.156
Mof_C 	C 	0.1594	0.0559	0.2947	0.127
Mof_C 	C 	0.1335	0.991	0.4211	0.32
Mof_C 	C 	0.139	0.9836	0.4496	-0.108
Mof_C 	C 	0.15048	0.0014	0.467	0.117
Mof_O 	O 	0.65008	0.5344	0.3609	-0.572
Mof_O 	O 	0.6313	0.5198	0.3265	-0.437
Mof_O 	O 	0.6928	0.587	0.2402	-0.42
Mof_O 	O 	0.64246	0.51264	0.41282	-0.469
Mof_O 	O 	0.62165	0.47491	0.40704	-0.523
Mof_O 	O 	0.67086	0.50325	0.53461	-0.366
Mof_O 	O 	0.67922	0.53998	0.61173	-0.377
Mof_C 	C 	0.6459	0.535	0.3366	0.414
Mof_C 	C 	0.6622	0.5552	0.3214	-0.156
Mof_C 	C 	0.6594	0.5559	0.2947	0.127
Mof_C 	C 	0.6335	0.491	0.4211	0.319
Mof_C 	C 	0.639	0.4836	0.4496	-0.11
Mof_C 	C 	0.65048	0.5014	0.467	0.121
Mof_O 	O 	0.65008	0.0344	0.8609	-0.572
Mof_O 	O 	0.6313	0.0198	0.8265	-0.437
Mof_O 	O 	0.6928	0.087	0.7402	-0.42
Mof_O 	O 	0.64246	0.01264	0.91282	-0.47
Mof_O 	O 	0.62165	0.97491	0.90704	-0.522
Mof_O 	O 	0.67086	0.00325	0.03461	-0.365
Mof_O 	O 	0.67922	0.03998	0.11173	-0.377
Mof_C 	C 	0.6459	0.035	0.8366	0.414
Mof_C 	C 	0.6622	0.0552	0.8214	-0.156
Mof_C 	C 	0.6594	0.0559	0.7947	0.127
Mof_C 	C 	0.6335	0.991	0.9211	0.32
Mof_C 	C 	0.639	0.9836	0.9496	-0.107
Mof_C 	C 	0.65048	0.0014	0.967	0.116
Mof_O 	O 	0.59992	0.7156	0.3609	-0.572
Mof_O 	O 	0.6187	0.7302	0.3265	-0.437
Mof_O 	O 	0.5572	0.663	0.2402	-0.42
Mof_O 	O 	0.60754	0.73736	0.41282	-0.469
Mof_O 	O 	0.62835	0.77509	0.40704	-0.523
Mof_O 	O 	0.57914	0.74675	0.53461	-0.366
Mof_O 	O 	0.57078	0.71002	0.61173	-0.377
Mof_C 	C 	0.6041	0.715	0.3366	0.414
Mof_C 	C 	0.5878	0.6948	0.3214	-0.156
Mof_C 	C 	0.5906	0.6941	0.2947	0.127
Mof_C 	C 	0.6165	0.759	0.4211	0.319
Mof_C 	C 	0.611	0.7664	0.4496	-0.11
Mof_C 	C 	0.59952	0.7486	0.467	0.121
Mof_O 	O 	0.59992	0.2156	0.8609	-0.572
Mof_O 	O 	0.6187	0.2302	0.8265	-0.437
Mof_O 	O 	0.5572	0.163	0.7402	-0.42
Mof_O 	O 	0.60754	0.23736	0.91282	-0.469
Mof_O 	O 	0.62835	0.27509	0.90704	-0.523
Mof_O 	O 	0.57914	0.24675	0.03461	-0.365
Mof_O 	O 	0.57078	0.21002	0.11173	-0.377
Mof_C 	C 	0.6041	0.215	0.8366	0.414
Mof_C 	C 	0.5878	0.1948	0.8214	-0.156
Mof_C 	C 	0.5906	0.1941	0.7947	0.127
Mof_C 	C 	0.6165	0.259	0.9211	0.319
Mof_C 	C 	0.611	0.2664	0.9496	-0.109
Mof_C 	C 	0.59952	0.2486	0.967	0.12
Mof_O 	O 	0.09992	0.7156	0.8609	-0.572
Mof_O 	O 	0.1187	0.7302	0.8265	-0.437
Mof_O 	O 	0.0572	0.663	0.7402	-0.42
Mof_O 	O 	0.10754	0.73736	0.91282	-0.469
Mof_O 	O 	0.12835	0.77509	0.90704	-0.523
Mof_O 	O 	0.07914	0.74675	0.03461	-0.365
Mof_O 	O 	0.07078	0.71002	0.11173	-0.377
Mof_C 	C 	0.1041	0.715	0.8366	0.414
Mof_C 	C 	0.0878	0.6948	0.8214	-0.156
Mof_C 	C 	0.0906	0.6941	0.7947	0.127
Mof_C 	C 	0.1165	0.759	0.9211	0.319
Mof_C 	C 	0.111	0.7664	0.9496	-0.109
Mof_C 	C 	0.09952	0.7486	0.967	0.12
Mof_O 	O 	0.09992	0.2156	0.3609	-0.572
Mof_O 	O 	0.1187	0.2302	0.3265	-0.437
Mof_O 	O 	0.0572	0.163	0.2402	-0.42
Mof_O 	O 	0.10754	0.23736	0.41282	-0.469
Mof_O 	O 	0.12835	0.27509	0.40704	-0.523
Mof_O 	O 	0.07914	0.24675	0.53461	-0.366
Mof_O 	O 	0.07078	0.21002	0.61173	-0.377
Mof_C 	C 	0.1041	0.215	0.3366	0.414
Mof_C 	C 	0.0878	0.1948	0.3214	-0.156
Mof_C 	C 	0.0906	0.1941	0.2947	0.127
Mof_C 	C 	0.1165	0.259	0.4211	0.319
Mof_C 	C 	0.111	0.2664	0.4496	-0.11
Mof_C 	C 	0.09952	0.2486	0.467	0.121
Mof_O 	O 	0.65008	0.2156	0.3891	-0.572
Mof_O 	O 	0.6313	0.2302	0.4235	-0.437
Mof_O 	O 	0.6928	0.163	0.5098	-0.42
Mof_O 	O 	0.64246	0.23736	0.33718	-0.469
Mof_O 	O 	0.62165	0.27509	0.34296	-0.523
Mof_O 	O 	0.67086	0.24675	0.21539	-0.366
Mof_O 	O 	0.67922	0.21002	0.13827	-0.377
Mof_C 	C 	0.6459	0.215	0.4134	0.414
Mof_C 	C 	0.6622	0.1948	0.4286	-0.156
Mof_C 	C 	0.6594	0.1941	0.4553	0.127
Mof_C 	C 	0.6335	0.259	0.3289	0.319
Mof_C 	C 	0.639	0.2664	0.3004	-0.11
Mof_C 	C 	0.65048	0.2486	0.283	0.121
Mof_O 	O 	0.65008	0.7156	0.8891	-0.572
Mof_O 	O 	0.6313	0.7302	0.9235	-0.437
Mof_O 	O 	0.6928	0.663	0.0098	-0.421
Mof_O 	O 	0.64246	0.73736	0.83718	-0.469
Mof_O 	O 	0.62165	0.77509	0.84296	-0.523
Mof_O 	O 	0.67086	0.74675	0.71539	-0.366
Mof_O 	O 	0.67922	0.71002	0.63827	-0.377
Mof_C 	C 	0.6459	0.715	0.9134	0.414
Mof_C 	C 	0.6622	0.6948	0.9286	-0.156
Mof_C 	C 	0.6594	0.6941	0.9553	0.128
Mof_C 	C 	0.6335	0.759	0.8289	0.319
Mof_C 	C 	0.639	0.7664	0.8004	-0.11
Mof_C 	C 	0.65048	0.7486	0.783	0.121
Mof_O 	O 	0.15008	0.2156	0.8891	-0.572
Mof_O 	O 	0.1313	0.2302	0.9235	-0.437
Mof_O 	O 	0.1928	0.163	0.0098	-0.421
Mof_O 	O 	0.14246	0.23736	0.83718	-0.469
Mof_O 	O 	0.12165	0.27509	0.84296	-0.523
Mof_O 	O 	0.17086	0.24675	0.71539	-0.366
Mof_O 	O 	0.17922	0.21002	0.63827	-0.377
Mof_C 	C 	0.1459	0.215	0.9134	0.414
Mof_C 	C 	0.1622	0.1948	0.9286	-0.156
Mof_C 	C 	0.1594	0.1941	0.9553	0.128
Mof_C 	C 	0.1335	0.259	0.8289	0.319
Mof_C 	C 	0.139	0.2664	0.8004	-0.11
Mof_C 	C 	0.15048	0.2486	0.783	0.121
Mof_O 	O 	0.15008	0.7156	0.3891	-0.572
Mof_O 	O 	0.1313	0.7302	0.4235	-0.437
Mof_O 	O 	0.1928	0.663	0.5098	-0.42
Mof_O 	O 	0.14246	0.73736	0.33718	-0.469
Mof_O 	O 	0.12165	0.77509	0.34296	-0.523
Mof_O 	O 	0.17086	0.74675	0.21539	-0.366
Mof_O 	O 	0.17922	0.71002	0.13827	-0.377
Mof_C 	C 	0.1459	0.715	0.4134	0.414
Mof_C 	C 	0.1622	0.6948	0.4286	-0.156
Mof_C 	C 	0.1594	0.6941	0.4553	0.127
Mof_C 	C 	0.1335	0.759	0.3289	0.319
Mof_C 	C 	0.139	0.7664	0.3004	-0.11
Mof_C 	C 	0.15048	0.7486	0.283	0.121
Mof_O 	O 	0.84992	0.1391	0.4656	-0.572
Mof_O 	O 	0.8687	0.1735	0.4802	-0.437
Mof_O 	O 	0.8072	0.2598	0.413	-0.42
Mof_O 	O 	0.85754	0.08718	0.48736	-0.469
Mof_O 	O 	0.87835	0.09296	0.52509	-0.523
Mof_O 	O 	0.82914	0.96539	0.49675	-0.366
Mof_O 	O 	0.82078	0.88827	0.46002	-0.377
Mof_C 	C 	0.8541	0.1634	0.465	0.414
Mof_C 	C 	0.8378	0.1786	0.4448	-0.156
Mof_C 	C 	0.8406	0.2053	0.4441	0.127
Mof_C 	C 	0.8665	0.0789	0.509	0.319
Mof_C 	C 	0.861	0.0504	0.5164	-0.111
Mof_C 	C 	0.84952	0.033	0.4986	0.121
Mof_O 	O 	0.84992	0.6391	0.9656	-0.571
Mof_O 	O 	0.8687	0.6735	0.9802	-0.436
Mof_O 	O 	0.8072	0.7598	0.913	-0.419
Mof_O 	O 	0.85754	0.58718	0.98736	-0.467
Mof_O 	O 	0.87835	0.59296	0.02509	-0.522
Mof_O 	O 	0.82914	0.46539	0.99675	-0.366
Mof_O 	O 	0.82078	0.38827	0.96002	-0.377
Mof_C 	C 	0.8541	0.6634	0.965	0.414
Mof_C 	C 	0.8378	0.6786	0.9448	-0.155
Mof_C 	C 	0.8406	0.7053	0.9441	0.128
Mof_C 	C 	0.8665	0.5789	0.009	0.318
Mof_C 	C 	0.861	0.5504	0.0164	-0.112
Mof_C 	C 	0.84952	0.533	0.9986	0.124
Mof_O 	O 	0.34992	0.1391	0.9656	-0.571
Mof_O 	O 	0.3687	0.1735	0.9802	-0.436
Mof_O 	O 	0.3072	0.2598	0.913	-0.419
Mof_O 	O 	0.35754	0.08718	0.98736	-0.467
Mof_O 	O 	0.37835	0.09296	0.02509	-0.522
Mof_O 	O 	0.32914	0.96539	0.99675	-0.366
Mof_O 	O 	0.32078	0.88827	0.96002	-0.377
Mof_C 	C 	0.3541	0.1634	0.965	0.414
Mof_C 	C 	0.3378	0.1786	0.9448	-0.155
Mof_C 	C 	0.3406	0.2053	0.9441	0.127
Mof_C 	C 	0.3665	0.0789	0.009	0.318
Mof_C 	C 	0.361	0.0504	0.0164	-0.113
Mof_C 	C 	0.34952	0.033	0.9986	0.125
Mof_O 	O 	0.34992	0.6391	0.4656	-0.572
Mof_O 	O 	0.3687	0.6735	0.4802	-0.437
Mof_O 	O 	0.3072	0.7598	0.413	-0.42
Mof_O 	O 	0.35754	0.58718	0.48736	-0.469
Mof_O 	O 	0.37835	0.59296	0.52509	-0.523
Mof_O 	O 	0.32914	0.46539	0.49675	-0.366
Mof_O 	O 	0.32078	0.38827	0.46002	-0.377
Mof_C 	C 	0.3541	0.6634	0.465	0.414
Mof_C 	C 	0.3378	0.6786	0.4448	-0.156
Mof_C 	C 	0.3406	0.7053	0.4441	0.127
Mof_C 	C 	0.3665	0.5789	0.509	0.319
Mof_C 	C 	0.361	0.5504	0.5164	-0.11
Mof_C 	C 	0.34952	0.533	0.4986	0.121
Mof_O 	O 	0.90008	0.1109	0.9656	-0.571
Mof_O 	O 	0.8813	0.0765	0.9802	-0.436
Mof_O 	O 	0.9428	0.9902	0.913	-0.417
Mof_O 	O 	0.89246	0.16282	0.98736	-0.467
Mof_O 	O 	0.87165	0.15704	0.02509	-0.522
Mof_O 	O 	0.92086	0.28461	0.99675	-0.366
Mof_O 	O 	0.92922	0.36173	0.96002	-0.377
Mof_C 	C 	0.8959	0.0866	0.965	0.414
Mof_C 	C 	0.9122	0.0714	0.9448	-0.155
Mof_C 	C 	0.9094	0.0447	0.9441	0.127
Mof_C 	C 	0.8835	0.1711	0.009	0.318
Mof_C 	C 	0.889	0.1996	0.0164	-0.112
Mof_C 	C 	0.90048	0.217	0.9986	0.124
Mof_O 	O 	0.90008	0.6109	0.4656	-0.572
Mof_O 	O 	0.8813	0.5765	0.4802	-0.437
Mof_O 	O 	0.9428	0.4902	0.413	-0.419
Mof_O 	O 	0.89246	0.66282	0.48736	-0.469
Mof_O 	O 	0.87165	0.65704	0.52509	-0.523
Mof_O 	O 	0.92086	0.78461	0.49675	-0.366
Mof_O 	O 	0.92922	0.86173	0.46002	-0.377
Mof_C 	C 	0.8959	0.5866	0.465	0.414
Mof_C 	C 	0.9122	0.5714	0.4448	-0.156
Mof_C 	C 	0.9094	0.5447	0.4441	0.127
Mof_C 	C 	0.8835	0.6711	0.509	0.319
Mof_C 	C 	0.889	0.6996	0.5164	-0.11
Mof_C 	C 	0.90048	0.717	0.4986	0.121
Mof_O 	O 	0.40008	0.1109	0.4656	-0.572
Mof_O 	O 	0.3813	0.0765	0.4802	-0.437
Mof_O 	O 	0.4428	0.9902	0.413	-0.418
Mof_O 	O 	0.39246	0.16282	0.48736	-0.469
Mof_O 	O 	0.37165	0.15704	0.52509	-0.523
Mof_O 	O 	0.42086	0.28461	0.49675	-0.366
Mof_O 	O 	0.42922	0.36173	0.46002	-0.377
Mof_C 	C 	0.3959	0.0866	0.465	0.414
Mof_C 	C 	0.4122	0.0714	0.4448	-0.155
Mof_C 	C 	0.4094	0.0447	0.4441	0.127
Mof_C 	C 	0.3835	0.1711	0.509	0.319
Mof_C 	C 	0.389	0.1996	0.5164	-0.11
Mof_C 	C 	0.40048	0.217	0.4986	0.121
Mof_O 	O 	0.40008	0.6109	0.9656	-0.571
Mof_O 	O 	0.3813	0.5765	0.9802	-0.436
Mof_O 	O 	0.4428	0.4902	0.913	-0.419
Mof_O 	O 	0.39246	0.66282	0.98736	-0.467
Mof_O 	O 	0.37165	0.65704	0.02509	-0.522
Mof_O 	O 	0.42086	0.78461	0.99675	-0.366
Mof_O 	O 	0.42922	0.86173	0.96002	-0.377
Mof_C 	C 	0.3959	0.5866	0.965	0.414
Mof_C 	C 	0.4122	0.5714	0.9448	-0.155
Mof_C 	C 	0.4094	0.5447	0.9441	0.127
Mof_C 	C 	0.3835	0.6711	0.009	0.318
Mof_C 	C 	0.389	0.6996	0.0164	-0.112
Mof_C 	C 	0.40048	0.717	0.9986	0.124
Mof_O 	O 	0.34992	0.6109	0.7844	-0.572
Mof_O 	O 	0.3687	0.5765	0.7698	-0.437
Mof_O 	O 	0.3072	0.4902	0.837	-0.419
Mof_O 	O 	0.35754	0.66282	0.76264	-0.469
Mof_O 	O 	0.37835	0.65704	0.72491	-0.523
Mof_O 	O 	0.32914	0.78461	0.75325	-0.366
Mof_O 	O 	0.32078	0.86173	0.78998	-0.377
Mof_C 	C 	0.3541	0.5866	0.785	0.414
Mof_C 	C 	0.3378	0.5714	0.8052	-0.156
Mof_C 	C 	0.3406	0.5447	0.8059	0.127
Mof_C 	C 	0.3665	0.6711	0.741	0.319
Mof_C 	C 	0.361	0.6996	0.7336	-0.11
Mof_C 	C 	0.34952	0.717	0.7514	0.121
Mof_O 	O 	0.34992	0.1109	0.2844	-0.572
Mof_O 	O 	0.3687	0.0765	0.2698	-0.437
Mof_O 	O 	0.3072	0.9902	0.337	-0.418
Mof_O 	O 	0.35754	0.16282	0.26264	-0.469
Mof_O 	O 	0.37835	0.15704	0.22491	-0.523
Mof_O 	O 	0.32914	0.28461	0.25325	-0.366
Mof_O 	O 	0.32078	0.36173	0.28998	-0.377
Mof_C 	C 	0.3541	0.0866	0.285	0.414
Mof_C 	C 	0.3378	0.0714	0.3052	-0.155
Mof_C 	C 	0.3406	0.0447	0.3059	0.127
Mof_C 	C 	0.3665	0.1711	0.241	0.319
Mof_C 	C 	0.361	0.1996	0.2336	-0.11
Mof_C 	C 	0.34952	0.217	0.2514	0.121
Mof_O 	O 	0.84992	0.6109	0.2844	-0.572
Mof_O 	O 	0.8687	0.5765	0.2698	-0.437
Mof_O 	O 	0.8072	0.4902	0.337	-0.42
Mof_O 	O 	0.85754	0.66282	0.26264	-0.469
Mof_O 	O 	0.87835	0.65704	0.22491	-0.523
Mof_O 	O 	0.82914	0.78461	0.25325	-0.366
Mof_O 	O 	0.82078	0.86173	0.28998	-0.377
Mof_C 	C 	0.8541	0.5866	0.285	0.414
Mof_C 	C 	0.8378	0.5714	0.3052	-0.156
Mof_C 	C 	0.8406	0.5447	0.3059	0.127
Mof_C 	C 	0.8665	0.6711	0.241	0.319
Mof_C 	C 	0.861	0.6996	0.2336	-0.11
Mof_C 	C 	0.84952	0.717	0.2514	0.121
Mof_O 	O 	0.84992	0.1109	0.7844	-0.572
Mof_O 	O 	0.8687	0.0765	0.7698	-0.437
Mof_O 	O 	0.8072	0.9902	0.837	-0.418
Mof_O 	O 	0.85754	0.16282	0.76264	-0.469
Mof_O 	O 	0.87835	0.15704	0.72491	-0.523
Mof_O 	O 	0.82914	0.28461	0.75325	-0.366
Mof_O 	O 	0.82078	0.36173	0.78998	-0.377
Mof_C 	C 	0.8541	0.0866	0.785	0.414
Mof_C 	C 	0.8378	0.0714	0.8052	-0.155
Mof_C 	C 	0.8406	0.0447	0.8059	0.127
Mof_C 	C 	0.8665	0.1711	0.741	0.319
Mof_C 	C 	0.861	0.1996	0.7336	-0.11
Mof_C 	C 	0.84952	0.217	0.7514	0.121
Mof_O 	O 	0.40008	0.6391	0.2844	-0.572
Mof_O 	O 	0.3813	0.6735	0.2698	-0.437
Mof_O 	O 	0.4428	0.7598	0.337	-0.42
Mof_O 	O 	0.39246	0.58718	0.26264	-0.469
Mof_O 	O 	0.37165	0.59296	0.22491	-0.523
Mof_O 	O 	0.42086	0.46539	0.25325	-0.366
Mof_O 	O 	0.42922	0.38827	0.28998	-0.377
Mof_C 	C 	0.3959	0.6634	0.285	0.414
Mof_C 	C 	0.4122	0.6786	0.3052	-0.156
Mof_C 	C 	0.4094	0.7053	0.3059	0.127
Mof_C 	C 	0.3835	0.5789	0.241	0.319
Mof_C 	C 	0.389	0.5504	0.2336	-0.11
Mof_C 	C 	0.40048	0.533	0.2514	0.121
Mof_O 	O 	0.40008	0.1391	0.7844	-0.572
Mof_O 	O 	0.3813	0.1735	0.7698	-0.437
Mof_O 	O 	0.4428	0.2598	0.837	-0.419
Mof_O 	O 	0.39246	0.08718	0.76264	-0.469
Mof_O 	O 	0.37165	0.09296	0.72491	-0.523
Mof_O 	O 	0.42086	0.96539	0.75325	-0.366
Mof_O 	O 	0.42922	0.88827	0.78998	-0.377
Mof_C 	C 	0.3959	0.1634	0.785	0.414
Mof_C 	C 	0.4122	0.1786	0.8052	-0.156
Mof_C 	C 	0.4094	0.2053	0.8059	0.127
Mof_C 	C 	0.3835	0.0789	0.741	0.319
Mof_C 	C 	0.389	0.0504	0.7336	-0.111
Mof_C 	C 	0.40048	0.033	0.7514	0.121
Mof_O 	O 	0.90008	0.6391	0.7844	-0.572
Mof_O 	O 	0.8813	0.6735	0.7698	-0.437
Mof_O 	O 	0.9428	0.7598	0.837	-0.419
Mof_O 	O 	0.89246	0.58718	0.76264	-0.469
Mof_O 	O 	0.87165	0.59296	0.72491	-0.523
Mof_O 	O 	0.92086	0.46539	0.75325	-0.366
Mof_O 	O 	0.92922	0.38827	0.78998	-0.377
Mof_C 	C 	0.8959	0.6634	0.785	0.414
Mof_C 	C 	0.9122	0.6786	0.8052	-0.156
Mof_C 	C 	0.9094	0.7053	0.8059	0.127
Mof_C 	C 	0.8835	0.5789	0.741	0.319
Mof_C 	C 	0.889	0.5504	0.7336	-0.11
Mof_C 	C 	0.90048	0.533	0.7514	0.121
Mof_O 	O 	0.90008	0.1391	0.2844	-0.572
Mof_O 	O 	0.8813	0.1735	0.2698	-0.437
Mof_O 	O 	0.9428	0.2598	0.337	-0.419
Mof_O 	O 	0.89246	0.08718	0.26264	-0.469
Mof_O 	O 	0.87165	0.09296	0.22491	-0.523
Mof_O 	O 	0.92086	0.96539	0.25325	-0.366
Mof_O 	O 	0.92922	0.88827	0.28998	-0.377
Mof_C 	C 	0.8959	0.1634	0.285	0.414
Mof_C 	C 	0.9122	0.1786	0.3052	-0.156
Mof_C 	C 	0.9094	0.2053	0.3059	0.127
Mof_C 	C 	0.8835	0.0789	0.241	0.319
Mof_C 	C 	0.889	0.0504	0.2336	-0.111
Mof_C 	C 	0.90048	0.033	0.2514	0.121
Mof_O 	O 	0.6391	0.2844	0.40008	-0.572
Mof_O 	O 	0.6735	0.2698	0.3813	-0.437
Mof_O 	O 	0.7598	0.337	0.4428	-0.42
Mof_O 	O 	0.58718	0.26264	0.39246	-0.469
Mof_O 	O 	0.59296	0.22491	0.37165	-0.523
Mof_O 	O 	0.46539	0.25325	0.42086	-0.366
Mof_O 	O 	0.38827	0.28998	0.42922	-0.377
Mof_C 	C 	0.6634	0.285	0.3959	0.414
Mof_C 	C 	0.6786	0.3052	0.4122	-0.156
Mof_C 	C 	0.7053	0.3059	0.4094	0.127
Mof_C 	C 	0.5789	0.241	0.3835	0.319
Mof_C 	C 	0.5504	0.2336	0.389	-0.11
Mof_C 	C 	0.533	0.2514	0.40048	0.121
Mof_O 	O 	0.6391	0.7844	0.90008	-0.572
Mof_O 	O 	0.6735	0.7698	0.8813	-0.437
Mof_O 	O 	0.7598	0.837	0.9428	-0.419
Mof_O 	O 	0.58718	0.76264	0.89246	-0.469
Mof_O 	O 	0.59296	0.72491	0.87165	-0.523
Mof_O 	O 	0.46539	0.75325	0.92086	-0.366
Mof_O 	O 	0.38827	0.78998	0.92922	-0.377
Mof_C 	C 	0.6634	0.785	0.8959	0.414
Mof_C 	C 	0.6786	0.8052	0.9122	-0.156
Mof_C 	C 	0.7053	0.8059	0.9094	0.127
Mof_C 	C 	0.5789	0.741	0.8835	0.319
Mof_C 	C 	0.5504	0.7336	0.889	-0.11
Mof_C 	C 	0.533	0.7514	0.90048	0.121
Mof_O 	O 	0.1391	0.2844	0.90008	-0.572
Mof_O 	O 	0.1735	0.2698	0.8813	-0.437
Mof_O 	O 	0.2598	0.337	0.9428	-0.419
Mof_O 	O 	0.08718	0.26264	0.89246	-0.469
Mof_O 	O 	0.09296	0.22491	0.87165	-0.523
Mof_O 	O 	0.96539	0.25325	0.92086	-0.366
Mof_O 	O 	0.88827	0.28998	0.92922	-0.377
Mof_C 	C 	0.1634	0.285	0.8959	0.414
Mof_C 	C 	0.1786	0.3052	0.9122	-0.156
Mof_C 	C 	0.2053	0.3059	0.9094	0.127
Mof_C 	C 	0.0789	0.241	0.8835	0.319
Mof_C 	C 	0.0504	0.2336	0.889	-0.111
Mof_C 	C 	0.033	0.2514	0.90048	0.121
Mof_O 	O 	0.1391	0.7844	0.40008	-0.572
Mof_O 	O 	0.1735	0.7698	0.3813	-0.437
Mof_O 	O 	0.2598	0.837	0.4428	-0.419
Mof_O 	O 	0.08718	0.76264	0.39246	-0.469
Mof_O 	O 	0.09296	0.72491	0.37165	-0.523
Mof_O 	O 	0.96539	0.75325	0.42086	-0.366
Mof_O 	O 	0.88827	0.78998	0.42922	-0.377
Mof_C 	C 	0.1634	0.785	0.3959	0.414
Mof_C 	C 	0.1786	0.8052	0.4122	-0.156
Mof_C 	C 	0.2053	0.8059	0.4094	0.127
Mof_C 	C 	0.0789	0.741	0.3835	0.319
Mof_C 	C 	0.0504	0.7336	0.389	-0.111
Mof_C 	C 	0.033	0.7514	0.40048	0.121
Mof_O 	O 	0.6109	0.7844	0.34992	-0.572
Mof_O 	O 	0.5765	0.7698	0.3687	-0.437
Mof_O 	O 	0.4902	0.837	0.3072	-0.419
Mof_O 	O 	0.66282	0.76264	0.35754	-0.469
Mof_O 	O 	0.65704	0.72491	0.37835	-0.523
Mof_O 	O 	0.78461	0.75325	0.32914	-0.366
Mof_O 	O 	0.86173	0.78998	0.32078	-0.377
Mof_C 	C 	0.5866	0.785	0.3541	0.414
Mof_C 	C 	0.5714	0.8052	0.3378	-0.156
Mof_C 	C 	0.5447	0.8059	0.3406	0.127
Mof_C 	C 	0.6711	0.741	0.3665	0.319
Mof_C 	C 	0.6996	0.7336	0.361	-0.11
Mof_C 	C 	0.717	0.7514	0.34952	0.121
Mof_O 	O 	0.6109	0.2844	0.84992	-0.572
Mof_O 	O 	0.5765	0.2698	0.8687	-0.437
Mof_O 	O 	0.4902	0.337	0.8072	-0.42
Mof_O 	O 	0.66282	0.26264	0.85754	-0.469
Mof_O 	O 	0.65704	0.22491	0.87835	-0.523
Mof_O 	O 	0.78461	0.25325	0.82914	-0.366
Mof_O 	O 	0.86173	0.28998	0.82078	-0.377
Mof_C 	C 	0.5866	0.285	0.8541	0.414
Mof_C 	C 	0.5714	0.3052	0.8378	-0.156
Mof_C 	C 	0.5447	0.3059	0.8406	0.127
Mof_C 	C 	0.6711	0.241	0.8665	0.319
Mof_C 	C 	0.6996	0.2336	0.861	-0.11
Mof_C 	C 	0.717	0.2514	0.84952	0.121
Mof_O 	O 	0.1109	0.7844	0.84992	-0.572
Mof_O 	O 	0.0765	0.7698	0.8687	-0.437
Mof_O 	O 	0.9902	0.837	0.8072	-0.418
Mof_O 	O 	0.16282	0.76264	0.85754	-0.469
Mof_O 	O 	0.15704	0.72491	0.87835	-0.523
Mof_O 	O 	0.28461	0.75325	0.82914	-0.366
Mof_O 	O 	0.36173	0.78998	0.82078	-0.377
Mof_C 	C 	0.0866	0.785	0.8541	0.414
Mof_C 	C 	0.0714	0.8052	0.8378	-0.155
Mof_C 	C 	0.0447	0.8059	0.8406	0.127
Mof_C 	C 	0.1711	0.741	0.8665	0.319
Mof_C 	C 	0.1996	0.7336	0.861	-0.11
Mof_C 	C 	0.217	0.7514	0.84952	0.121
Mof_O 	O 	0.1109	0.2844	0.34992	-0.572
Mof_O 	O 	0.0765	0.2698	0.3687	-0.437
Mof_O 	O 	0.9902	0.337	0.3072	-0.418
Mof_O 	O 	0.16282	0.26264	0.35754	-0.469
Mof_O 	O 	0.15704	0.22491	0.37835	-0.523
Mof_O 	O 	0.28461	0.25325	0.32914	-0.366
Mof_O 	O 	0.36173	0.28998	0.32078	-0.377
Mof_C 	C 	0.0866	0.285	0.3541	0.414
Mof_C 	C 	0.0714	0.3052	0.3378	-0.155
Mof_C 	C 	0.0447	0.3059	0.3406	0.127
Mof_C 	C 	0.1711	0.241	0.3665	0.319
Mof_C 	C 	0.1996	0.2336	0.361	-0.11
Mof_C 	C 	0.217	0.2514	0.34952	0.121
Mof_O 	O 	0.1109	0.9656	0.90008	-0.571
Mof_O 	O 	0.0765	0.9802	0.8813	-0.436
Mof_O 	O 	0.9902	0.913	0.9428	-0.417
Mof_O 	O 	0.16282	0.98736	0.89246	-0.467
Mof_O 	O 	0.15704	0.02509	0.87165	-0.522
Mof_O 	O 	0.28461	0.99675	0.92086	-0.366
Mof_O 	O 	0.36173	0.96002	0.92922	-0.377
Mof_C 	C 	0.0866	0.965	0.8959	0.414
Mof_C 	C 	0.0714	0.9448	0.9122	-0.155
Mof_C 	C 	0.0447	0.9441	0.9094	0.127
Mof_C 	C 	0.1711	0.009	0.8835	0.318
Mof_C 	C 	0.1996	0.0164	0.889	-0.112
Mof_C 	C 	0.217	0.9986	0.90048	0.124
Mof_O 	O 	0.1109	0.4656	0.40008	-0.572
Mof_O 	O 	0.0765	0.4802	0.3813	-0.437
Mof_O 	O 	0.9902	0.413	0.4428	-0.418
Mof_O 	O 	0.16282	0.48736	0.39246	-0.469
Mof_O 	O 	0.15704	0.52509	0.37165	-0.523
Mof_O 	O 	0.28461	0.49675	0.42086	-0.366
Mof_O 	O 	0.36173	0.46002	0.42922	-0.377
Mof_C 	C 	0.0866	0.465	0.3959	0.414
Mof_C 	C 	0.0714	0.4448	0.4122	-0.155
Mof_C 	C 	0.0447	0.4441	0.4094	0.127
Mof_C 	C 	0.1711	0.509	0.3835	0.319
Mof_C 	C 	0.1996	0.5164	0.389	-0.11
Mof_C 	C 	0.217	0.4986	0.40048	0.121
Mof_O 	O 	0.6109	0.9656	0.40008	-0.571
Mof_O 	O 	0.5765	0.9802	0.3813	-0.436
Mof_O 	O 	0.4902	0.913	0.4428	-0.419
Mof_O 	O 	0.66282	0.98736	0.39246	-0.467
Mof_O 	O 	0.65704	0.02509	0.37165	-0.522
Mof_O 	O 	0.78461	0.99675	0.42086	-0.366
Mof_O 	O 	0.86173	0.96002	0.42922	-0.377
Mof_C 	C 	0.5866	0.965	0.3959	0.414
Mof_C 	C 	0.5714	0.9448	0.4122	-0.155
Mof_C 	C 	0.5447	0.9441	0.4094	0.127
Mof_C 	C 	0.6711	0.009	0.3835	0.318
Mof_C 	C 	0.6996	0.0164	0.389	-0.112
Mof_C 	C 	0.717	0.9986	0.40048	0.124
Mof_O 	O 	0.6109	0.4656	0.90008	-0.572
Mof_O 	O 	0.5765	0.4802	0.8813	-0.437
Mof_O 	O 	0.4902	0.413	0.9428	-0.419
Mof_O 	O 	0.66282	0.48736	0.89246	-0.469
Mof_O 	O 	0.65704	0.52509	0.87165	-0.523
Mof_O 	O 	0.78461	0.49675	0.92086	-0.366
Mof_O 	O 	0.86173	0.46002	0.92922	-0.377
Mof_C 	C 	0.5866	0.465	0.8959	0.414
Mof_C 	C 	0.5714	0.4448	0.9122	-0.156
Mof_C 	C 	0.5447	0.4441	0.9094	0.127
Mof_C 	C 	0.6711	0.509	0.8835	0.319
Mof_C 	C 	0.6996	0.5164	0.889	-0.11
Mof_C 	C 	0.717	0.4986	0.90048	0.121
Mof_O 	O 	0.1391	0.4656	0.84992	-0.572
Mof_O 	O 	0.1735	0.4802	0.8687	-0.437
Mof_O 	O 	0.2598	0.413	0.8072	-0.42
Mof_O 	O 	0.08718	0.48736	0.85754	-0.469
Mof_O 	O 	0.09296	0.52509	0.87835	-0.523
Mof_O 	O 	0.96539	0.49675	0.82914	-0.366
Mof_O 	O 	0.88827	0.46002	0.82078	-0.377
Mof_C 	C 	0.1634	0.465	0.8541	0.414
Mof_C 	C 	0.1786	0.4448	0.8378	-0.156
Mof_C 	C 	0.2053	0.4441	0.8406	0.127
Mof_C 	C 	0.0789	0.509	0.8665	0.319
Mof_C 	C 	0.0504	0.5164	0.861	-0.111
Mof_C 	C 	0.033	0.4986	0.84952	0.121
Mof_O 	O 	0.1391	0.9656	0.34992	-0.571
Mof_O 	O 	0.1735	0.9802	0.3687	-0.436
Mof_O 	O 	0.2598	0.913	0.3072	-0.419
Mof_O 	O 	0.08718	0.98736	0.35754	-0.467
Mof_O 	O 	0.09296	0.02509	0.37835	-0.522
Mof_O 	O 	0.96539	0.99675	0.32914	-0.366
Mof_O 	O 	0.88827	0.96002	0.32078	-0.377
Mof_C 	C 	0.1634	0.965	0.3541	0.414
Mof_C 	C 	0.1786	0.9448	0.3378	-0.155
Mof_C 	C 	0.2053	0.9441	0.3406	0.127
Mof_C 	C 	0.0789	0.009	0.3665	0.318
Mof_C 	C 	0.0504	0.0164	0.361	-0.113
Mof_C 	C 	0.033	0.9986	0.34952	0.125
Mof_O 	O 	0.6391	0.4656	0.34992	-0.572
Mof_O 	O 	0.6735	0.4802	0.3687	-0.437
Mof_O 	O 	0.7598	0.413	0.3072	-0.42
Mof_O 	O 	0.58718	0.48736	0.35754	-0.469
Mof_O 	O 	0.59296	0.52509	0.37835	-0.523
Mof_O 	O 	0.46539	0.49675	0.32914	-0.366
Mof_O 	O 	0.38827	0.46002	0.32078	-0.377
Mof_C 	C 	0.6634	0.465	0.3541	0.414
Mof_C 	C 	0.6786	0.4448	0.3378	-0.156
Mof_C 	C 	0.7053	0.4441	0.3406	0.127
Mof_C 	C 	0.5789	0.509	0.3665	0.319
Mof_C 	C 	0.5504	0.5164	0.361	-0.11
Mof_C 	C 	0.533	0.4986	0.34952	0.121
Mof_O 	O 	0.6391	0.9656	0.84992	-0.571
Mof_O 	O 	0.6735	0.9802	0.8687	-0.436
Mof_O 	O 	0.7598	0.913	0.8072	-0.419
Mof_O 	O 	0.58718	0.98736	0.85754	-0.467
Mof_O 	O 	0.59296	0.02509	0.87835	-0.522
Mof_O 	O 	0.46539	0.99675	0.82914	-0.366
Mof_O 	O 	0.38827	0.96002	0.82078	-0.377
Mof_C 	C 	0.6634	0.965	0.8541	0.414
Mof_C 	C 	0.6786	0.9448	0.8378	-0.155
Mof_C 	C 	0.7053	0.9441	0.8406	0.128
Mof_C 	C 	0.5789	0.009	0.8665	0.318
Mof_C 	C 	0.5504	0.0164	0.861	-0.112
Mof_C 	C 	0.533	0.9986	0.84952	0.124
Mof_O 	O 	0.7844	0.34992	0.6109	-0.572
Mof_O 	O 	0.7698	0.3687	0.5765	-0.437
Mof_O 	O 	0.837	0.3072	0.4902	-0.419
Mof_O 	O 	0.76264	0.35754	0.66282	-0.469
Mof_O 	O 	0.72491	0.37835	0.65704	-0.523
Mof_O 	O 	0.75325	0.32914	0.78461	-0.366
Mof_O 	O 	0.78998	0.32078	0.86173	-0.377
Mof_C 	C 	0.785	0.3541	0.5866	0.414
Mof_C 	C 	0.8052	0.3378	0.5714	-0.156
Mof_C 	C 	0.8059	0.3406	0.5447	0.127
Mof_C 	C 	0.741	0.3665	0.6711	0.319
Mof_C 	C 	0.7336	0.361	0.6996	-0.11
Mof_C 	C 	0.7514	0.34952	0.717	0.121
Mof_O 	O 	0.7844	0.84992	0.1109	-0.572
Mof_O 	O 	0.7698	0.8687	0.0765	-0.437
Mof_O 	O 	0.837	0.8072	0.9902	-0.418
Mof_O 	O 	0.76264	0.85754	0.16282	-0.469
Mof_O 	O 	0.72491	0.87835	0.15704	-0.523
Mof_O 	O 	0.75325	0.82914	0.28461	-0.366
Mof_O 	O 	0.78998	0.82078	0.36173	-0.377
Mof_C 	C 	0.785	0.8541	0.0866	0.414
Mof_C 	C 	0.8052	0.8378	0.0714	-0.155
Mof_C 	C 	0.8059	0.8406	0.0447	0.127
Mof_C 	C 	0.741	0.8665	0.1711	0.319
Mof_C 	C 	0.7336	0.861	0.1996	-0.11
Mof_C 	C 	0.7514	0.84952	0.217	0.121
Mof_O 	O 	0.2844	0.34992	0.1109	-0.572
Mof_O 	O 	0.2698	0.3687	0.0765	-0.437
Mof_O 	O 	0.337	0.3072	0.9902	-0.418
Mof_O 	O 	0.26264	0.35754	0.16282	-0.469
Mof_O 	O 	0.22491	0.37835	0.15704	-0.523
Mof_O 	O 	0.25325	0.32914	0.28461	-0.366
Mof_O 	O 	0.28998	0.32078	0.36173	-0.377
Mof_C 	C 	0.285	0.3541	0.0866	0.414
Mof_C 	C 	0.3052	0.3378	0.0714	-0.155
Mof_C 	C 	0.3059	0.3406	0.0447	0.127
Mof_C 	C 	0.241	0.3665	0.1711	0.319
Mof_C 	C 	0.2336	0.361	0.1996	-0.11
Mof_C 	C 	0.2514	0.34952	0.217	0.121
Mof_O 	O 	0.2844	0.84992	0.6109	-0.572
Mof_O 	O 	0.2698	0.8687	0.5765	-0.437
Mof_O 	O 	0.337	0.8072	0.4902	-0.42
Mof_O 	O 	0.26264	0.85754	0.66282	-0.469
Mof_O 	O 	0.22491	0.87835	0.65704	-0.523
Mof_O 	O 	0.25325	0.82914	0.78461	-0.366
Mof_O 	O 	0.28998	0.82078	0.86173	-0.377
Mof_C 	C 	0.285	0.8541	0.5866	0.414
Mof_C 	C 	0.3052	0.8378	0.5714	-0.156
Mof_C 	C 	0.3059	0.8406	0.5447	0.127
Mof_C 	C 	0.241	0.8665	0.6711	0.319
Mof_C 	C 	0.2336	0.861	0.6996	-0.11
Mof_C 	C 	0.2514	0.84952	0.717	0.121
Mof_O 	O 	0.2844	0.40008	0.6391	-0.572
Mof_O 	O 	0.2698	0.3813	0.6735	-0.437
Mof_O 	O 	0.337	0.4428	0.7598	-0.42
Mof_O 	O 	0.26264	0.39246	0.58718	-0.469
Mof_O 	O 	0.22491	0.37165	0.59296	-0.523
Mof_O 	O 	0.25325	0.42086	0.46539	-0.366
Mof_O 	O 	0.28998	0.42922	0.38827	-0.377
Mof_C 	C 	0.285	0.3959	0.6634	0.414
Mof_C 	C 	0.3052	0.4122	0.6786	-0.156
Mof_C 	C 	0.3059	0.4094	0.7053	0.127
Mof_C 	C 	0.241	0.3835	0.5789	0.319
Mof_C 	C 	0.2336	0.389	0.5504	-0.11
Mof_C 	C 	0.2514	0.40048	0.533	0.121
Mof_O 	O 	0.2844	0.90008	0.1391	-0.572
Mof_O 	O 	0.2698	0.8813	0.1735	-0.437
Mof_O 	O 	0.337	0.9428	0.2598	-0.419
Mof_O 	O 	0.26264	0.89246	0.08718	-0.469
Mof_O 	O 	0.22491	0.87165	0.09296	-0.523
Mof_O 	O 	0.25325	0.92086	0.96539	-0.366
Mof_O 	O 	0.28998	0.92922	0.88827	-0.377
Mof_C 	C 	0.285	0.8959	0.1634	0.414
Mof_C 	C 	0.3052	0.9122	0.1786	-0.156
Mof_C 	C 	0.3059	0.9094	0.2053	0.127
Mof_C 	C 	0.241	0.8835	0.0789	0.319
Mof_C 	C 	0.2336	0.889	0.0504	-0.111
Mof_C 	C 	0.2514	0.90048	0.033	0.121
Mof_O 	O 	0.7844	0.40008	0.1391	-0.572
Mof_O 	O 	0.7698	0.3813	0.1735	-0.437
Mof_O 	O 	0.837	0.4428	0.2598	-0.419
Mof_O 	O 	0.76264	0.39246	0.08718	-0.469
Mof_O 	O 	0.72491	0.37165	0.09296	-0.523
Mof_O 	O 	0.75325	0.42086	0.96539	-0.366
Mof_O 	O 	0.78998	0.42922	0.88827	-0.377
Mof_C 	C 	0.785	0.3959	0.1634	0.414
Mof_C 	C 	0.8052	0.4122	0.1786	-0.156
Mof_C 	C 	0.8059	0.4094	0.2053	0.127
Mof_C 	C 	0.741	0.3835	0.0789	0.319
Mof_C 	C 	0.7336	0.389	0.0504	-0.111
Mof_C 	C 	0.7514	0.40048	0.033	0.121
Mof_O 	O 	0.7844	0.90008	0.6391	-0.572
Mof_O 	O 	0.7698	0.8813	0.6735	-0.437
Mof_O 	O 	0.837	0.9428	0.7598	-0.419
Mof_O 	O 	0.76264	0.89246	0.58718	-0.469
Mof_O 	O 	0.72491	0.87165	0.59296	-0.523
Mof_O 	O 	0.75325	0.92086	0.46539	-0.366
Mof_O 	O 	0.78998	0.92922	0.38827	-0.377
Mof_C 	C 	0.785	0.8959	0.6634	0.414
Mof_C 	C 	0.8052	0.9122	0.6786	-0.156
Mof_C 	C 	0.8059	0.9094	0.7053	0.127
Mof_C 	C 	0.741	0.8835	0.5789	0.319
Mof_C 	C 	0.7336	0.889	0.5504	-0.11
Mof_C 	C 	0.7514	0.90048	0.533	0.121
Mof_O 	O 	0.4656	0.84992	0.1391	-0.572
Mof_O 	O 	0.4802	0.8687	0.1735	-0.437
Mof_O 	O 	0.413	0.8072	0.2598	-0.42
Mof_O 	O 	0.48736	0.85754	0.08718	-0.469
Mof_O 	O 	0.52509	0.87835	0.09296	-0.523
Mof_O 	O 	0.49675	0.82914	0.96539	-0.366
Mof_O 	O 	0.46002	0.82078	0.88827	-0.377
Mof_C 	C 	0.465	0.8541	0.1634	0.414
Mof_C 	C 	0.4448	0.8378	0.1786	-0.156
Mof_C 	C 	0.4441	0.8406	0.2053	0.127
Mof_C 	C 	0.509	0.8665	0.0789	0.319
Mof_C 	C 	0.5164	0.861	0.0504	-0.111
Mof_C 	C 	0.4986	0.84952	0.033	0.121
Mof_O 	O 	0.4656	0.34992	0.6391	-0.572
Mof_O 	O 	0.4802	0.3687	0.6735	-0.437
Mof_O 	O 	0.413	0.3072	0.7598	-0.42
Mof_O 	O 	0.48736	0.35754	0.58718	-0.469
Mof_O 	O 	0.52509	0.37835	0.59296	-0.523
Mof_O 	O 	0.49675	0.32914	0.46539	-0.366
Mof_O 	O 	0.46002	0.32078	0.38827	-0.377
Mof_C 	C 	0.465	0.3541	0.6634	0.414
Mof_C 	C 	0.4448	0.3378	0.6786	-0.156
Mof_C 	C 	0.4441	0.3406	0.7053	0.127
Mof_C 	C 	0.509	0.3665	0.5789	0.319
Mof_C 	C 	0.5164	0.361	0.5504	-0.11
Mof_C 	C 	0.4986	0.34952	0.533	0.121
Mof_O 	O 	0.9656	0.84992	0.6391	-0.571
Mof_O 	O 	0.9802	0.8687	0.6735	-0.436
Mof_O 	O 	0.913	0.8072	0.7598	-0.419
Mof_O 	O 	0.98736	0.85754	0.58718	-0.467
Mof_O 	O 	0.02509	0.87835	0.59296	-0.522
Mof_O 	O 	0.99675	0.82914	0.46539	-0.366
Mof_O 	O 	0.96002	0.82078	0.38827	-0.377
Mof_C 	C 	0.965	0.8541	0.6634	0.414
Mof_C 	C 	0.9448	0.8378	0.6786	-0.155
Mof_C 	C 	0.9441	0.8406	0.7053	0.128
Mof_C 	C 	0.009	0.8665	0.5789	0.318
Mof_C 	C 	0.0164	0.861	0.5504	-0.112
Mof_C 	C 	0.9986	0.84952	0.533	0.124
Mof_O 	O 	0.9656	0.34992	0.1391	-0.571
Mof_O 	O 	0.9802	0.3687	0.1735	-0.436
Mof_O 	O 	0.913	0.3072	0.2598	-0.419
Mof_O 	O 	0.98736	0.35754	0.08718	-0.467
Mof_O 	O 	0.02509	0.37835	0.09296	-0.522
Mof_O 	O 	0.99675	0.32914	0.96539	-0.366
Mof_O 	O 	0.96002	0.32078	0.88827	-0.377
Mof_C 	C 	0.965	0.3541	0.1634	0.414
Mof_C 	C 	0.9448	0.3378	0.1786	-0.155
Mof_C 	C 	0.9441	0.3406	0.2053	0.127
Mof_C 	C 	0.009	0.3665	0.0789	0.318
Mof_C 	C 	0.0164	0.361	0.0504	-0.113
Mof_C 	C 	0.9986	0.34952	0.033	0.125
Mof_O 	O 	0.9656	0.90008	0.1109	-0.571
Mof_O 	O 	0.9802	0.8813	0.0765	-0.436
Mof_O 	O 	0.913	0.9428	0.9902	-0.417
Mof_O 	O 	0.98736	0.89246	0.16282	-0.467
Mof_O 	O 	0.02509	0.87165	0.15704	-0.522
Mof_O 	O 	0.99675	0.92086	0.28461	-0.366
Mof_O 	O 	0.96002	0.92922	0.36173	-0.377
Mof_C 	C 	0.965	0.8959	0.0866	0.414
Mof_C 	C 	0.9448	0.9122	0.0714	-0.155
Mof_C 	C 	0.9441	0.9094	0.0447	0.127
Mof_C 	C 	0.009	0.8835	0.1711	0.318
Mof_C 	C 	0.0164	0.889	0.1996	-0.112
Mof_C 	C 	0.9986	0.90048	0.217	0.124
Mof_O 	O 	0.9656	0.40008	0.6109	-0.571
Mof_O 	O 	0.9802	0.3813	0.5765	-0.436
Mof_O 	O 	0.913	0.4428	0.4902	-0.419
Mof_O 	O 	0.98736	0.39246	0.66282	-0.467
Mof_O 	O 	0.02509	0.37165	0.65704	-0.522
Mof_O 	O 	0.99675	0.42086	0.78461	-0.366
Mof_O 	O 	0.96002	0.42922	0.86173	-0.377
Mof_C 	C 	0.965	0.3959	0.5866	0.414
Mof_C 	C 	0.9448	0.4122	0.5714	-0.155
Mof_C 	C 	0.9441	0.4094	0.5447	0.127
Mof_C 	C 	0.009	0.3835	0.6711	0.318
Mof_C 	C 	0.0164	0.389	0.6996	-0.112
Mof_C 	C 	0.9986	0.40048	0.717	0.124
Mof_O 	O 	0.4656	0.90008	0.6109	-0.572
Mof_O 	O 	0.4802	0.8813	0.5765	-0.437
Mof_O 	O 	0.413	0.9428	0.4902	-0.419
Mof_O 	O 	0.48736	0.89246	0.66282	-0.469
Mof_O 	O 	0.52509	0.87165	0.65704	-0.523
Mof_O 	O 	0.49675	0.92086	0.78461	-0.366
Mof_O 	O 	0.46002	0.92922	0.86173	-0.377
Mof_C 	C 	0.465	0.8959	0.5866	0.414
Mof_C 	C 	0.4448	0.9122	0.5714	-0.156
Mof_C 	C 	0.4441	0.9094	0.5447	0.127
Mof_C 	C 	0.509	0.8835	0.6711	0.319
Mof_C 	C 	0.5164	0.889	0.6996	-0.11
Mof_C 	C 	0.4986	0.90048	0.717	0.121
Mof_O 	O 	0.4656	0.40008	0.1109	-0.572
Mof_O 	O 	0.4802	0.3813	0.0765	-0.437
Mof_O 	O 	0.413	0.4428	0.9902	-0.418
Mof_O 	O 	0.48736	0.39246	0.16282	-0.469
Mof_O 	O 	0.52509	0.37165	0.15704	-0.523
Mof_O 	O 	0.49675	0.42086	0.28461	-0.366
Mof_O 	O 	0.46002	0.42922	0.36173	-0.377
Mof_C 	C 	0.465	0.3959	0.0866	0.414
Mof_C 	C 	0.4448	0.4122	0.0714	-0.155
Mof_C 	C 	0.4441	0.4094	0.0447	0.127
Mof_C 	C 	0.509	0.3835	0.1711	0.319
Mof_C 	C 	0.5164	0.389	0.1996	-0.11
Mof_C 	C 	0.4986	0.40048	0.217	0.121
Mof_O 	O 	0.1109	0.90008	0.9656	-0.571
Mof_O 	O 	0.0765	0.8813	0.9802	-0.436
Mof_O 	O 	0.9902	0.9428	0.913	-0.417
Mof_O 	O 	0.16282	0.89246	0.98736	-0.467
Mof_O 	O 	0.15704	0.87165	0.02509	-0.522
Mof_O 	O 	0.28461	0.92086	0.99675	-0.366
Mof_O 	O 	0.36173	0.92922	0.96002	-0.377
Mof_C 	C 	0.0866	0.8959	0.965	0.414
Mof_C 	C 	0.0714	0.9122	0.9448	-0.155
Mof_C 	C 	0.0447	0.9094	0.9441	0.127
Mof_C 	C 	0.1711	0.8835	0.009	0.318
Mof_C 	C 	0.1996	0.889	0.0164	-0.112
Mof_C 	C 	0.217	0.90048	0.9986	0.124
Mof_O 	O 	0.1109	0.40008	0.4656	-0.572
Mof_O 	O 	0.0765	0.3813	0.4802	-0.437
Mof_O 	O 	0.9902	0.4428	0.413	-0.418
Mof_O 	O 	0.16282	0.39246	0.48736	-0.469
Mof_O 	O 	0.15704	0.37165	0.52509	-0.523
Mof_O 	O 	0.28461	0.42086	0.49675	-0.366
Mof_O 	O 	0.36173	0.42922	0.46002	-0.377
Mof_C 	C 	0.0866	0.3959	0.465	0.414
Mof_C 	C 	0.0714	0.4122	0.4448	-0.155
Mof_C 	C 	0.0447	0.4094	0.4441	0.127
Mof_C 	C 	0.1711	0.3835	0.509	0.319
Mof_C 	C 	0.1996	0.389	0.5164	-0.11
Mof_C 	C 	0.217	0.40048	0.4986	0.121
Mof_O 	O 	0.6109	0.90008	0.4656	-0.572
Mof_O 	O 	0.5765	0.8813	0.4802	-0.437
Mof_O 	O 	0.4902	0.9428	0.413	-0.419
Mof_O 	O 	0.66282	0.89246	0.48736	-0.469
Mof_O 	O 	0.65704	0.87165	0.52509	-0.523
Mof_O 	O 	0.78461	0.92086	0.49675	-0.366
Mof_O 	O 	0.86173	0.92922	0.46002	-0.377
Mof_C 	C 	0.5866	0.8959	0.465	0.414
Mof_C 	C 	0.5714	0.9122	0.4448	-0.156
Mof_C 	C 	0.5447	0.9094	0.4441	0.127
Mof_C 	C 	0.6711	0.8835	0.509	0.319
Mof_C 	C 	0.6996	0.889	0.5164	-0.11
Mof_C 	C 	0.717	0.90048	0.4986	0.121
Mof_O 	O 	0.6109	0.40008	0.9656	-0.571
Mof_O 	O 	0.5765	0.3813	0.9802	-0.436
Mof_O 	O 	0.4902	0.4428	0.913	-0.419
Mof_O 	O 	0.66282	0.39246	0.98736	-0.467
Mof_O 	O 	0.65704	0.37165	0.02509	-0.522
Mof_O 	O 	0.78461	0.42086	0.99675	-0.366
Mof_O 	O 	0.86173	0.42922	0.96002	-0.377
Mof_C 	C 	0.5866	0.3959	0.965	0.414
Mof_C 	C 	0.5714	0.4122	0.9448	-0.155
Mof_C 	C 	0.5447	0.4094	0.9441	0.127
Mof_C 	C 	0.6711	0.3835	0.009	0.318
Mof_C 	C 	0.6996	0.389	0.0164	-0.112
Mof_C 	C 	0.717	0.40048	0.9986	0.124
Mof_O 	O 	0.1391	0.84992	0.4656	-0.572
Mof_O 	O 	0.1735	0.8687	0.4802	-0.437
Mof_O 	O 	0.2598	0.8072	0.413	-0.42
Mof_O 	O 	0.08718	0.85754	0.48736	-0.469
Mof_O 	O 	0.09296	0.87835	0.52509	-0.523
Mof_O 	O 	0.96539	0.82914	0.49675	-0.366
Mof_O 	O 	0.88827	0.82078	0.46002	-0.377
Mof_C 	C 	0.1634	0.8541	0.465	0.414
Mof_C 	C 	0.1786	0.8378	0.4448	-0.156
Mof_C 	C 	0.2053	0.8406	0.4441	0.127
Mof_C 	C 	0.0789	0.8665	0.509	0.319
Mof_C 	C 	0.0504	0.861	0.5164	-0.111
Mof_C 	C 	0.033	0.84952	0.4986	0.121
Mof_O 	O 	0.1391	0.34992	0.9656	-0.571
Mof_O 	O 	0.1735	0.3687	0.9802	-0.436
Mof_O 	O 	0.2598	0.3072	0.913	-0.419
Mof_O 	O 	0.08718	0.35754	0.98736	-0.467
Mof_O 	O 	0.09296	0.37835	0.02509	-0.522
Mof_O 	O 	0.96539	0.32914	0.99675	-0.366
Mof_O 	O 	0.88827	0.32078	0.96002	-0.377
Mof_C 	C 	0.1634	0.3541	0.965	0.414
Mof_C 	C 	0.1786	0.3378	0.9448	-0.155
Mof_C 	C 	0.2053	0.3406	0.9441	0.127
Mof_C 	C 	0.0789	0.3665	0.009	0.318
Mof_C 	C 	0.0504	0.361	0.0164	-0.113
Mof_C 	C 	0.033	0.34952	0.9986	0.125
Mof_O 	O 	0.6391	0.84992	0.9656	-0.571
Mof_O 	O 	0.6735	0.8687	0.9802	-0.436
Mof_O 	O 	0.7598	0.8072	0.913	-0.419
Mof_O 	O 	0.58718	0.85754	0.98736	-0.467
Mof_O 	O 	0.59296	0.87835	0.02509	-0.522
Mof_O 	O 	0.46539	0.82914	0.99675	-0.366
Mof_O 	O 	0.38827	0.82078	0.96002	-0.377
Mof_C 	C 	0.6634	0.8541	0.965	0.414
Mof_C 	C 	0.6786	0.8378	0.9448	-0.155
Mof_C 	C 	0.7053	0.8406	0.9441	0.128
Mof_C 	C 	0.5789	0.8665	0.009	0.318
Mof_C 	C 	0.5504	0.861	0.0164	-0.112
Mof_C 	C 	0.533	0.84952	0.9986	0.124
Mof_O 	O 	0.6391	0.34992	0.4656	-0.572
Mof_O 	O 	0.6735	0.3687	0.4802	-0.437
Mof_O 	O 	0.7598	0.3072	0.413	-0.42
Mof_O 	O 	0.58718	0.35754	0.48736	-0.469
Mof_O 	O 	0.59296	0.37835	0.52509	-0.523
Mof_O 	O 	0.46539	0.32914	0.49675	-0.366
Mof_O 	O 	0.38827	0.32078	0.46002	-0.377
Mof_C 	C 	0.6634	0.3541	0.465	0.414
Mof_C 	C 	0.6786	0.3378	0.4448	-0.156
Mof_C 	C 	0.7053	0.3406	0.4441	0.127
Mof_C 	C 	0.5789	0.3665	0.509	0.319
Mof_C 	C 	0.5504	0.361	0.5164	-0.11
Mof_C 	C 	0.533	0.34952	0.4986	0.121
Mof_O 	O 	0.6391	0.40008	0.2844	-0.572
Mof_O 	O 	0.6735	0.3813	0.2698	-0.437
Mof_O 	O 	0.7598	0.4428	0.337	-0.42
Mof_O 	O 	0.58718	0.39246	0.26264	-0.469
Mof_O 	O 	0.59296	0.37165	0.22491	-0.523
Mof_O 	O 	0.46539	0.42086	0.25325	-0.366
Mof_O 	O 	0.38827	0.42922	0.28998	-0.377
Mof_C 	C 	0.6634	0.3959	0.285	0.414
Mof_C 	C 	0.6786	0.4122	0.3052	-0.156
Mof_C 	C 	0.7053	0.4094	0.3059	0.127
Mof_C 	C 	0.5789	0.3835	0.241	0.319
Mof_C 	C 	0.5504	0.389	0.2336	-0.11
Mof_C 	C 	0.533	0.40048	0.2514	0.121
Mof_O 	O 	0.6391	0.90008	0.7844	-0.572
Mof_O 	O 	0.6735	0.8813	0.7698	-0.437
Mof_O 	O 	0.7598	0.9428	0.837	-0.419
Mof_O 	O 	0.58718	0.89246	0.76264	-0.469
Mof_O 	O 	0.59296	0.87165	0.72491	-0.523
Mof_O 	O 	0.46539	0.92086	0.75325	-0.366
Mof_O 	O 	0.38827	0.92922	0.78998	-0.377
Mof_C 	C 	0.6634	0.8959	0.785	0.414
Mof_C 	C 	0.6786	0.9122	0.8052	-0.156
Mof_C 	C 	0.7053	0.9094	0.8059	0.127
Mof_C 	C 	0.5789	0.8835	0.741	0.319
Mof_C 	C 	0.5504	0.889	0.7336	-0.11
Mof_C 	C 	0.533	0.90048	0.7514	0.121
Mof_O 	O 	0.1391	0.40008	0.7844	-0.572
Mof_O 	O 	0.1735	0.3813	0.7698	-0.437
Mof_O 	O 	0.2598	0.4428	0.837	-0.419
Mof_O 	O 	0.08718	0.39246	0.76264	-0.469
Mof_O 	O 	0.09296	0.37165	0.72491	-0.523
Mof_O 	O 	0.96539	0.42086	0.75325	-0.366
Mof_O 	O 	0.88827	0.42922	0.78998	-0.377
Mof_C 	C 	0.1634	0.3959	0.785	0.414
Mof_C 	C 	0.1786	0.4122	0.8052	-0.156
Mof_C 	C 	0.2053	0.4094	0.8059	0.127
Mof_C 	C 	0.0789	0.3835	0.741	0.319
Mof_C 	C 	0.0504	0.389	0.7336	-0.111
Mof_C 	C 	0.033	0.40048	0.7514	0.121
Mof_O 	O 	0.1391	0.90008	0.2844	-0.572
Mof_O 	O 	0.1735	0.8813	0.2698	-0.437
Mof_O 	O 	0.2598	0.9428	0.337	-0.419
Mof_O 	O 	0.08718	0.89246	0.26264	-0.469
Mof_O 	O 	0.09296	0.87165	0.22491	-0.523
Mof_O 	O 	0.96539	0.92086	0.25325	-0.366
Mof_O 	O 	0.88827	0.92922	0.28998	-0.377
Mof_C 	C 	0.1634	0.8959	0.285	0.414
Mof_C 	C 	0.1786	0.9122	0.3052	-0.156
Mof_C 	C 	0.2053	0.9094	0.3059	0.127
Mof_C 	C 	0.0789	0.8835	0.241	0.319
Mof_C 	C 	0.0504	0.889	0.2336	-0.111
Mof_C 	C 	0.033	0.90048	0.2514	0.121
Mof_O 	O 	0.6109	0.34992	0.7844	-0.572
Mof_O 	O 	0.5765	0.3687	0.7698	-0.437
Mof_O 	O 	0.4902	0.3072	0.837	-0.419
Mof_O 	O 	0.66282	0.35754	0.76264	-0.469
Mof_O 	O 	0.65704	0.37835	0.72491	-0.523
Mof_O 	O 	0.78461	0.32914	0.75325	-0.366
Mof_O 	O 	0.86173	0.32078	0.78998	-0.377
Mof_C 	C 	0.5866	0.3541	0.785	0.414
Mof_C 	C 	0.5714	0.3378	0.8052	-0.156
Mof_C 	C 	0.5447	0.3406	0.8059	0.127
Mof_C 	C 	0.6711	0.3665	0.741	0.319
Mof_C 	C 	0.6996	0.361	0.7336	-0.11
Mof_C 	C 	0.717	0.34952	0.7514	0.121
Mof_O 	O 	0.6109	0.84992	0.2844	-0.572
Mof_O 	O 	0.5765	0.8687	0.2698	-0.437
Mof_O 	O 	0.4902	0.8072	0.337	-0.42
Mof_O 	O 	0.66282	0.85754	0.26264	-0.469
Mof_O 	O 	0.65704	0.87835	0.22491	-0.523
Mof_O 	O 	0.78461	0.82914	0.25325	-0.366
Mof_O 	O 	0.86173	0.82078	0.28998	-0.377
Mof_C 	C 	0.5866	0.8541	0.285	0.414
Mof_C 	C 	0.5714	0.8378	0.3052	-0.156
Mof_C 	C 	0.5447	0.8406	0.3059	0.127
Mof_C 	C 	0.6711	0.8665	0.241	0.319
Mof_C 	C 	0.6996	0.861	0.2336	-0.11
Mof_C 	C 	0.717	0.84952	0.2514	0.121
Mof_O 	O 	0.1109	0.34992	0.2844	-0.572
Mof_O 	O 	0.0765	0.3687	0.2698	-0.437
Mof_O 	O 	0.9902	0.3072	0.337	-0.418
Mof_O 	O 	0.16282	0.35754	0.26264	-0.469
Mof_O 	O 	0.15704	0.37835	0.22491	-0.523
Mof_O 	O 	0.28461	0.32914	0.25325	-0.366
Mof_O 	O 	0.36173	0.32078	0.28998	-0.377
Mof_C 	C 	0.0866	0.3541	0.285	0.414
Mof_C 	C 	0.0714	0.3378	0.3052	-0.155
Mof_C 	C 	0.0447	0.3406	0.3059	0.127
Mof_C 	C 	0.1711	0.3665	0.241	0.319
Mof_C 	C 	0.1996	0.361	0.2336	-0.11
Mof_C 	C 	0.217	0.34952	0.2514	0.121
Mof_O 	O 	0.1109	0.84992	0.7844	-0.572
Mof_O 	O 	0.0765	0.8687	0.7698	-0.437
Mof_O 	O 	0.9902	0.8072	0.837	-0.418
Mof_O 	O 	0.16282	0.85754	0.76264	-0.469
Mof_O 	O 	0.15704	0.87835	0.72491	-0.523
Mof_O 	O 	0.28461	0.82914	0.75325	-0.366
Mof_O 	O 	0.36173	0.82078	0.78998	-0.377
Mof_C 	C 	0.0866	0.8541	0.785	0.414
Mof_C 	C 	0.0714	0.8378	0.8052	-0.155
Mof_C 	C 	0.0447	0.8406	0.8059	0.127
Mof_C 	C 	0.1711	0.8665	0.741	0.319
Mof_C 	C 	0.1996	0.861	0.7336	-0.11
Mof_C 	C 	0.217	0.84952	0.7514	0.121
Mof_O 	O 	0.9656	0.1109	0.90008	-0.571
Mof_O 	O 	0.9802	0.0765	0.8813	-0.436
Mof_O 	O 	0.913	0.9902	0.9428	-0.417
Mof_O 	O 	0.98736	0.16282	0.89246	-0.467
Mof_O 	O 	0.02509	0.15704	0.87165	-0.522
Mof_O 	O 	0.99675	0.28461	0.92086	-0.366
Mof_O 	O 	0.96002	0.36173	0.92922	-0.377
Mof_C 	C 	0.965	0.0866	0.8959	0.414
Mof_C 	C 	0.9448	0.0714	0.9122	-0.155
Mof_C 	C 	0.9441	0.0447	0.9094	0.127
Mof_C 	C 	0.009	0.1711	0.8835	0.318
Mof_C 	C 	0.0164	0.1996	0.889	-0.112
Mof_C 	C 	0.9986	0.217	0.90048	0.124
Mof_O 	O 	0.9656	0.6109	0.40008	-0.571
Mof_O 	O 	0.9802	0.5765	0.3813	-0.436
Mof_O 	O 	0.913	0.4902	0.4428	-0.419
Mof_O 	O 	0.98736	0.66282	0.39246	-0.467
Mof_O 	O 	0.02509	0.65704	0.37165	-0.522
Mof_O 	O 	0.99675	0.78461	0.42086	-0.366
Mof_O 	O 	0.96002	0.86173	0.42922	-0.377
Mof_C 	C 	0.965	0.5866	0.3959	0.414
Mof_C 	C 	0.9448	0.5714	0.4122	-0.155
Mof_C 	C 	0.9441	0.5447	0.4094	0.127
Mof_C 	C 	0.009	0.6711	0.3835	0.318
Mof_C 	C 	0.0164	0.6996	0.389	-0.112
Mof_C 	C 	0.9986	0.717	0.40048	0.124
Mof_O 	O 	0.4656	0.1109	0.40008	-0.572
Mof_O 	O 	0.4802	0.0765	0.3813	-0.437
Mof_O 	O 	0.413	0.9902	0.4428	-0.418
Mof_O 	O 	0.48736	0.16282	0.39246	-0.469
Mof_O 	O 	0.52509	0.15704	0.37165	-0.523
Mof_O 	O 	0.49675	0.28461	0.42086	-0.366
Mof_O 	O 	0.46002	0.36173	0.42922	-0.377
Mof_C 	C 	0.465	0.0866	0.3959	0.414
Mof_C 	C 	0.4448	0.0714	0.4122	-0.155
Mof_C 	C 	0.4441	0.0447	0.4094	0.127
Mof_C 	C 	0.509	0.1711	0.3835	0.319
Mof_C 	C 	0.5164	0.1996	0.389	-0.11
Mof_C 	C 	0.4986	0.217	0.40048	0.121
Mof_O 	O 	0.4656	0.6109	0.90008	-0.572
Mof_O 	O 	0.4802	0.5765	0.8813	-0.437
Mof_O 	O 	0.413	0.4902	0.9428	-0.419
Mof_O 	O 	0.48736	0.66282	0.89246	-0.469
Mof_O 	O 	0.52509	0.65704	0.87165	-0.523
Mof_O 	O 	0.49675	0.78461	0.92086	-0.366
Mof_O 	O 	0.46002	0.86173	0.92922	-0.377
Mof_C 	C 	0.465	0.5866	0.8959	0.414
Mof_C 	C 	0.4448	0.5714	0.9122	-0.156
Mof_C 	C 	0.4441	0.5447	0.9094	0.127
Mof_C 	C 	0.509	0.6711	0.8835	0.319
Mof_C 	C 	0.5164	0.6996	0.889	-0.11
Mof_C 	C 	0.4986	0.717	0.90048	0.121
Mof_O 	O 	0.4656	0.1391	0.84992	-0.572
Mof_O 	O 	0.4802	0.1735	0.8687	-0.437
Mof_O 	O 	0.413	0.2598	0.8072	-0.42
Mof_O 	O 	0.48736	0.08718	0.85754	-0.469
Mof_O 	O 	0.52509	0.09296	0.87835	-0.523
Mof_O 	O 	0.49675	0.96539	0.82914	-0.366
Mof_O 	O 	0.46002	0.88827	0.82078	-0.377
Mof_C 	C 	0.465	0.1634	0.8541	0.414
Mof_C 	C 	0.4448	0.1786	0.8378	-0.156
Mof_C 	C 	0.4441	0.2053	0.8406	0.127
Mof_C 	C 	0.509	0.0789	0.8665	0.319
Mof_C 	C 	0.5164	0.0504	0.861	-0.111
Mof_C 	C 	0.4986	0.033	0.84952	0.121
Mof_O 	O 	0.4656	0.6391	0.34992	-0.572
Mof_O 	O 	0.4802	0.6735	0.3687	-0.437
Mof_O 	O 	0.413	0.7598	0.3072	-0.42
Mof_O 	O 	0.48736	0.58718	0.35754	-0.469
Mof_O 	O 	0.52509	0.59296	0.37835	-0.523
Mof_O 	O 	0.49675	0.46539	0.32914	-0.366
Mof_O 	O 	0.46002	0.38827	0.32078	-0.377
Mof_C 	C 	0.465	0.6634	0.3541	0.414
Mof_C 	C 	0.4448	0.6786	0.3378	-0.156
Mof_C 	C 	0.4441	0.7053	0.3406	0.127
Mof_C 	C 	0.509	0.5789	0.3665	0.319
Mof_C 	C 	0.5164	0.5504	0.361	-0.11
Mof_C 	C 	0.4986	0.533	0.34952	0.121
Mof_O 	O 	0.9656	0.1391	0.34992	-0.571
Mof_O 	O 	0.9802	0.1735	0.3687	-0.436
Mof_O 	O 	0.913	0.2598	0.3072	-0.419
Mof_O 	O 	0.98736	0.08718	0.35754	-0.467
Mof_O 	O 	0.02509	0.09296	0.37835	-0.522
Mof_O 	O 	0.99675	0.96539	0.32914	-0.366
Mof_O 	O 	0.96002	0.88827	0.32078	-0.377
Mof_C 	C 	0.965	0.1634	0.3541	0.414
Mof_C 	C 	0.9448	0.1786	0.3378	-0.155
Mof_C 	C 	0.9441	0.2053	0.3406	0.127
Mof_C 	C 	0.009	0.0789	0.3665	0.318
Mof_C 	C 	0.0164	0.0504	0.361	-0.113
Mof_C 	C 	0.9986	0.033	0.34952	0.125
Mof_O 	O 	0.9656	0.6391	0.84992	-0.571
Mof_O 	O 	0.9802	0.6735	0.8687	-0.436
Mof_O 	O 	0.913	0.7598	0.8072	-0.419
Mof_O 	O 	0.98736	0.58718	0.85754	-0.467
Mof_O 	O 	0.02509	0.59296	0.87835	-0.522
Mof_O 	O 	0.99675	0.46539	0.82914	-0.366
Mof_O 	O 	0.96002	0.38827	0.82078	-0.377
Mof_C 	C 	0.965	0.6634	0.8541	0.414
Mof_C 	C 	0.9448	0.6786	0.8378	-0.155
Mof_C 	C 	0.9441	0.7053	0.8406	0.128
Mof_C 	C 	0.009	0.5789	0.8665	0.318
Mof_C 	C 	0.0164	0.5504	0.861	-0.112
Mof_C 	C 	0.9986	0.533	0.84952	0.124
Mof_O 	O 	0.2844	0.6391	0.40008	-0.572
Mof_O 	O 	0.2698	0.6735	0.3813	-0.437
Mof_O 	O 	0.337	0.7598	0.4428	-0.42
Mof_O 	O 	0.26264	0.58718	0.39246	-0.469
Mof_O 	O 	0.22491	0.59296	0.37165	-0.523
Mof_O 	O 	0.25325	0.46539	0.42086	-0.366
Mof_O 	O 	0.28998	0.38827	0.42922	-0.377
Mof_C 	C 	0.285	0.6634	0.3959	0.414
Mof_C 	C 	0.3052	0.6786	0.4122	-0.156
Mof_C 	C 	0.3059	0.7053	0.4094	0.127
Mof_C 	C 	0.241	0.5789	0.3835	0.319
Mof_C 	C 	0.2336	0.5504	0.389	-0.11
Mof_C 	C 	0.2514	0.533	0.40048	0.121
Mof_O 	O 	0.2844	0.1391	0.90008	-0.572
Mof_O 	O 	0.2698	0.1735	0.8813	-0.437
Mof_O 	O 	0.337	0.2598	0.9428	-0.419
Mof_O 	O 	0.26264	0.08718	0.89246	-0.469
Mof_O 	O 	0.22491	0.09296	0.87165	-0.523
Mof_O 	O 	0.25325	0.96539	0.92086	-0.366
Mof_O 	O 	0.28998	0.88827	0.92922	-0.377
Mof_C 	C 	0.285	0.1634	0.8959	0.414
Mof_C 	C 	0.3052	0.1786	0.9122	-0.156
Mof_C 	C 	0.3059	0.2053	0.9094	0.127
Mof_C 	C 	0.241	0.0789	0.8835	0.319
Mof_C 	C 	0.2336	0.0504	0.889	-0.111
Mof_C 	C 	0.2514	0.033	0.90048	0.121
Mof_O 	O 	0.7844	0.6391	0.90008	-0.572
Mof_O 	O 	0.7698	0.6735	0.8813	-0.437
Mof_O 	O 	0.837	0.7598	0.9428	-0.419
Mof_O 	O 	0.76264	0.58718	0.89246	-0.469
Mof_O 	O 	0.72491	0.59296	0.87165	-0.523
Mof_O 	O 	0.75325	0.46539	0.92086	-0.366
Mof_O 	O 	0.78998	0.38827	0.92922	-0.377
Mof_C 	C 	0.785	0.6634	0.8959	0.414
Mof_C 	C 	0.8052	0.6786	0.9122	-0.156
Mof_C 	C 	0.8059	0.7053	0.9094	0.127
Mof_C 	C 	0.741	0.5789	0.8835	0.319
Mof_C 	C 	0.7336	0.5504	0.889	-0.11
Mof_C 	C 	0.7514	0.533	0.90048	0.121
Mof_O 	O 	0.7844	0.1391	0.40008	-0.572
Mof_O 	O 	0.7698	0.1735	0.3813	-0.437
Mof_O 	O 	0.837	0.2598	0.4428	-0.419
Mof_O 	O 	0.76264	0.08718	0.39246	-0.469
Mof_O 	O 	0.72491	0.09296	0.37165	-0.523
Mof_O 	O 	0.75325	0.96539	0.42086	-0.366
Mof_O 	O 	0.78998	0.88827	0.42922	-0.377
Mof_C 	C 	0.785	0.1634	0.3959	0.414
Mof_C 	C 	0.8052	0.1786	0.4122	-0.156
Mof_C 	C 	0.8059	0.2053	0.4094	0.127
Mof_C 	C 	0.741	0.0789	0.3835	0.319
Mof_C 	C 	0.7336	0.0504	0.389	-0.111
Mof_C 	C 	0.7514	0.033	0.40048	0.121
Mof_O 	O 	0.7844	0.6109	0.34992	-0.572
Mof_O 	O 	0.7698	0.5765	0.3687	-0.437
Mof_O 	O 	0.837	0.4902	0.3072	-0.419
Mof_O 	O 	0.76264	0.66282	0.35754	-0.469
Mof_O 	O 	0.72491	0.65704	0.37835	-0.523
Mof_O 	O 	0.75325	0.78461	0.32914	-0.366
Mof_O 	O 	0.78998	0.86173	0.32078	-0.377
Mof_C 	C 	0.785	0.5866	0.3541	0.414
Mof_C 	C 	0.8052	0.5714	0.3378	-0.156
Mof_C 	C 	0.8059	0.5447	0.3406	0.127
Mof_C 	C 	0.741	0.6711	0.3665	0.319
Mof_C 	C 	0.7336	0.6996	0.361	-0.11
Mof_C 	C 	0.7514	0.717	0.34952	0.121
Mof_O 	O 	0.7844	0.1109	0.84992	-0.572
Mof_O 	O 	0.7698	0.0765	0.8687	-0.437
Mof_O 	O 	0.837	0.9902	0.8072	-0.418
Mof_O 	O 	0.76264	0.16282	0.85754	-0.469
Mof_O 	O 	0.72491	0.15704	0.87835	-0.523
Mof_O 	O 	0.75325	0.28461	0.82914	-0.366
Mof_O 	O 	0.78998	0.36173	0.82078	-0.377
Mof_C 	C 	0.785	0.0866	0.8541	0.414
Mof_C 	C 	0.8052	0.0714	0.8378	-0.155
Mof_C 	C 	0.8059	0.0447	0.8406	0.127
Mof_C 	C 	0.741	0.1711	0.8665	0.319
Mof_C 	C 	0.7336	0.1996	0.861	-0.11
Mof_C 	C 	0.7514	0.217	0.84952	0.121
Mof_O 	O 	0.2844	0.6109	0.84992	-0.572
Mof_O 	O 	0.2698	0.5765	0.8687	-0.437
Mof_O 	O 	0.337	0.4902	0.8072	-0.42
Mof_O 	O 	0.26264	0.66282	0.85754	-0.469
Mof_O 	O 	0.22491	0.65704	0.87835	-0.523
Mof_O 	O 	0.25325	0.78461	0.82914	-0.366
Mof_O 	O 	0.28998	0.86173	0.82078	-0.377
Mof_C 	C 	0.285	0.5866	0.8541	0.414
Mof_C 	C 	0.3052	0.5714	0.8378	-0.156
Mof_C 	C 	0.3059	0.5447	0.8406	0.127
Mof_C 	C 	0.241	0.6711	0.8665	0.319
Mof_C 	C 	0.2336	0.6996	0.861	-0.11
Mof_C 	C 	0.2514	0.717	0.84952	0.121
Mof_O 	O 	0.2844	0.1109	0.34992	-0.572
Mof_O 	O 	0.2698	0.0765	0.3687	-0.437
Mof_O 	O 	0.337	0.9902	0.3072	-0.418
Mof_O 	O 	0.26264	0.16282	0.35754	-0.469
Mof_O 	O 	0.22491	0.15704	0.37835	-0.523
Mof_O 	O 	0.25325	0.28461	0.32914	-0.366
Mof_O 	O 	0.28998	0.36173	0.32078	-0.377
Mof_C 	C 	0.285	0.0866	0.3541	0.414
Mof_C 	C 	0.3052	0.0714	0.3378	-0.155
Mof_C 	C 	0.3059	0.0447	0.3406	0.127
Mof_C 	C 	0.241	0.1711	0.3665	0.319
Mof_C 	C 	0.2336	0.1996	0.361	-0.11
Mof_C 	C 	0.2514	0.217	0.34952	0.121
Mof_O 	O 	0.90008	0.9656	0.1109	-0.571
Mof_O 	O 	0.8813	0.9802	0.0765	-0.436
Mof_O 	O 	0.9428	0.913	0.9902	-0.417
Mof_O 	O 	0.89246	0.98736	0.16282	-0.467
Mof_O 	O 	0.87165	0.02509	0.15704	-0.522
Mof_O 	O 	0.92086	0.99675	0.28461	-0.366
Mof_O 	O 	0.92922	0.96002	0.36173	-0.377
Mof_C 	C 	0.8959	0.965	0.0866	0.414
Mof_C 	C 	0.9122	0.9448	0.0714	-0.155
Mof_C 	C 	0.9094	0.9441	0.0447	0.127
Mof_C 	C 	0.8835	0.009	0.1711	0.318
Mof_C 	C 	0.889	0.0164	0.1996	-0.112
Mof_C 	C 	0.90048	0.9986	0.217	0.124
Mof_O 	O 	0.90008	0.4656	0.6109	-0.572
Mof_O 	O 	0.8813	0.4802	0.5765	-0.437
Mof_O 	O 	0.9428	0.413	0.4902	-0.419
Mof_O 	O 	0.89246	0.48736	0.66282	-0.469
Mof_O 	O 	0.87165	0.52509	0.65704	-0.523
Mof_O 	O 	0.92086	0.49675	0.78461	-0.366
Mof_O 	O 	0.92922	0.46002	0.86173	-0.377
Mof_C 	C 	0.8959	0.465	0.5866	0.414
Mof_C 	C 	0.9122	0.4448	0.5714	-0.156
Mof_C 	C 	0.9094	0.4441	0.5447	0.127
Mof_C 	C 	0.8835	0.509	0.6711	0.319
Mof_C 	C 	0.889	0.5164	0.6996	-0.11
Mof_C 	C 	0.90048	0.4986	0.717	0.121
Mof_O 	O 	0.40008	0.9656	0.6109	-0.571
Mof_O 	O 	0.3813	0.9802	0.5765	-0.436
Mof_O 	O 	0.4428	0.913	0.4902	-0.419
Mof_O 	O 	0.39246	0.98736	0.66282	-0.467
Mof_O 	O 	0.37165	0.02509	0.65704	-0.522
Mof_O 	O 	0.42086	0.99675	0.78461	-0.366
Mof_O 	O 	0.42922	0.96002	0.86173	-0.377
Mof_C 	C 	0.3959	0.965	0.5866	0.414
Mof_C 	C 	0.4122	0.9448	0.5714	-0.155
Mof_C 	C 	0.4094	0.9441	0.5447	0.127
Mof_C 	C 	0.3835	0.009	0.6711	0.318
Mof_C 	C 	0.389	0.0164	0.6996	-0.112
Mof_C 	C 	0.40048	0.9986	0.717	0.124
Mof_O 	O 	0.40008	0.4656	0.1109	-0.572
Mof_O 	O 	0.3813	0.4802	0.0765	-0.437
Mof_O 	O 	0.4428	0.413	0.9902	-0.418
Mof_O 	O 	0.39246	0.48736	0.16282	-0.469
Mof_O 	O 	0.37165	0.52509	0.15704	-0.523
Mof_O 	O 	0.42086	0.49675	0.28461	-0.366
Mof_O 	O 	0.42922	0.46002	0.36173	-0.377
Mof_C 	C 	0.3959	0.465	0.0866	0.414
Mof_C 	C 	0.4122	0.4448	0.0714	-0.155
Mof_C 	C 	0.4094	0.4441	0.0447	0.127
Mof_C 	C 	0.3835	0.509	0.1711	0.319
Mof_C 	C 	0.389	0.5164	0.1996	-0.11
Mof_C 	C 	0.40048	0.4986	0.217	0.121
Mof_O 	O 	0.84992	0.4656	0.1391	-0.572
Mof_O 	O 	0.8687	0.4802	0.1735	-0.437
Mof_O 	O 	0.8072	0.413	0.2598	-0.42
Mof_O 	O 	0.85754	0.48736	0.08718	-0.469
Mof_O 	O 	0.87835	0.52509	0.09296	-0.523
Mof_O 	O 	0.82914	0.49675	0.96539	-0.366
Mof_O 	O 	0.82078	0.46002	0.88827	-0.377
Mof_C 	C 	0.8541	0.465	0.1634	0.414
Mof_C 	C 	0.8378	0.4448	0.1786	-0.156
Mof_C 	C 	0.8406	0.4441	0.2053	0.127
Mof_C 	C 	0.8665	0.509	0.0789	0.319
Mof_C 	C 	0.861	0.5164	0.0504	-0.111
Mof_C 	C 	0.84952	0.4986	0.033	0.121
Mof_O 	O 	0.84992	0.9656	0.6391	-0.571
Mof_O 	O 	0.8687	0.9802	0.6735	-0.436
Mof_O 	O 	0.8072	0.913	0.7598	-0.419
Mof_O 	O 	0.85754	0.98736	0.58718	-0.467
Mof_O 	O 	0.87835	0.02509	0.59296	-0.522
Mof_O 	O 	0.82914	0.99675	0.46539	-0.366
Mof_O 	O 	0.82078	0.96002	0.38827	-0.377
Mof_C 	C 	0.8541	0.965	0.6634	0.414
Mof_C 	C 	0.8378	0.9448	0.6786	-0.155
Mof_C 	C 	0.8406	0.9441	0.7053	0.128
Mof_C 	C 	0.8665	0.009	0.5789	0.318
Mof_C 	C 	0.861	0.0164	0.5504	-0.112
Mof_C 	C 	0.84952	0.9986	0.533	0.124
Mof_O 	O 	0.34992	0.4656	0.6391	-0.572
Mof_O 	O 	0.3687	0.4802	0.6735	-0.437
Mof_O 	O 	0.3072	0.413	0.7598	-0.42
Mof_O 	O 	0.35754	0.48736	0.58718	-0.469
Mof_O 	O 	0.37835	0.52509	0.59296	-0.523
Mof_O 	O 	0.32914	0.49675	0.46539	-0.366
Mof_O 	O 	0.32078	0.46002	0.38827	-0.377
Mof_C 	C 	0.3541	0.465	0.6634	0.414
Mof_C 	C 	0.3378	0.4448	0.6786	-0.156
Mof_C 	C 	0.3406	0.4441	0.7053	0.127
Mof_C 	C 	0.3665	0.509	0.5789	0.319
Mof_C 	C 	0.361	0.5164	0.5504	-0.11
Mof_C 	C 	0.34952	0.4986	0.533	0.121
Mof_O 	O 	0.34992	0.9656	0.1391	-0.571
Mof_O 	O 	0.3687	0.9802	0.1735	-0.436
Mof_O 	O 	0.3072	0.913	0.2598	-0.419
Mof_O 	O 	0.35754	0.98736	0.08718	-0.467
Mof_O 	O 	0.37835	0.02509	0.09296	-0.522
Mof_O 	O 	0.32914	0.99675	0.96539	-0.366
Mof_O 	O 	0.32078	0.96002	0.88827	-0.377
Mof_C 	C 	0.3541	0.965	0.1634	0.414
Mof_C 	C 	0.3378	0.9448	0.1786	-0.155
Mof_C 	C 	0.3406	0.9441	0.2053	0.127
Mof_C 	C 	0.3665	0.009	0.0789	0.318
Mof_C 	C 	0.361	0.0164	0.0504	-0.113
Mof_C 	C 	0.34952	0.9986	0.033	0.125
Mof_O 	O 	0.40008	0.2844	0.6391	-0.572
Mof_O 	O 	0.3813	0.2698	0.6735	-0.437
Mof_O 	O 	0.4428	0.337	0.7598	-0.42
Mof_O 	O 	0.39246	0.26264	0.58718	-0.469
Mof_O 	O 	0.37165	0.22491	0.59296	-0.523
Mof_O 	O 	0.42086	0.25325	0.46539	-0.366
Mof_O 	O 	0.42922	0.28998	0.38827	-0.377
Mof_C 	C 	0.3959	0.285	0.6634	0.414
Mof_C 	C 	0.4122	0.3052	0.6786	-0.156
Mof_C 	C 	0.4094	0.3059	0.7053	0.127
Mof_C 	C 	0.3835	0.241	0.5789	0.319
Mof_C 	C 	0.389	0.2336	0.5504	-0.11
Mof_C 	C 	0.40048	0.2514	0.533	0.121
Mof_O 	O 	0.40008	0.7844	0.1391	-0.572
Mof_O 	O 	0.3813	0.7698	0.1735	-0.437
Mof_O 	O 	0.4428	0.837	0.2598	-0.419
Mof_O 	O 	0.39246	0.76264	0.08718	-0.469
Mof_O 	O 	0.37165	0.72491	0.09296	-0.523
Mof_O 	O 	0.42086	0.75325	0.96539	-0.366
Mof_O 	O 	0.42922	0.78998	0.88827	-0.377
Mof_C 	C 	0.3959	0.785	0.1634	0.414
Mof_C 	C 	0.4122	0.8052	0.1786	-0.156
Mof_C 	C 	0.4094	0.8059	0.2053	0.127
Mof_C 	C 	0.3835	0.741	0.0789	0.319
Mof_C 	C 	0.389	0.7336	0.0504	-0.111
Mof_C 	C 	0.40048	0.7514	0.033	0.121
Mof_O 	O 	0.90008	0.2844	0.1391	-0.572
Mof_O 	O 	0.8813	0.2698	0.1735	-0.437
Mof_O 	O 	0.9428	0.337	0.2598	-0.419
Mof_O 	O 	0.89246	0.26264	0.08718	-0.469
Mof_O 	O 	0.87165	0.22491	0.09296	-0.523
Mof_O 	O 	0.92086	0.25325	0.96539	-0.366
Mof_O 	O 	0.92922	0.28998	0.88827	-0.377
Mof_C 	C 	0.8959	0.285	0.1634	0.414
Mof_C 	C 	0.9122	0.3052	0.1786	-0.156
Mof_C 	C 	0.9094	0.3059	0.2053	0.127
Mof_C 	C 	0.8835	0.241	0.0789	0.319
Mof_C 	C 	0.889	0.2336	0.0504	-0.111
Mof_C 	C 	0.90048	0.2514	0.033	0.121
Mof_O 	O 	0.90008	0.7844	0.6391	-0.572
Mof_O 	O 	0.8813	0.7698	0.6735	-0.437
Mof_O 	O 	0.9428	0.837	0.7598	-0.419
Mof_O 	O 	0.89246	0.76264	0.58718	-0.469
Mof_O 	O 	0.87165	0.72491	0.59296	-0.523
Mof_O 	O 	0.92086	0.75325	0.46539	-0.366
Mof_O 	O 	0.92922	0.78998	0.38827	-0.377
Mof_C 	C 	0.8959	0.785	0.6634	0.414
Mof_C 	C 	0.9122	0.8052	0.6786	-0.156
Mof_C 	C 	0.9094	0.8059	0.7053	0.127
Mof_C 	C 	0.8835	0.741	0.5789	0.319
Mof_C 	C 	0.889	0.7336	0.5504	-0.11
Mof_C 	C 	0.90048	0.7514	0.533	0.121
Mof_O 	O 	0.34992	0.7844	0.6109	-0.572
Mof_O 	O 	0.3687	0.7698	0.5765	-0.437
Mof_O 	O 	0.3072	0.837	0.4902	-0.419
Mof_O 	O 	0.35754	0.76264	0.66282	-0.469
Mof_O 	O 	0.37835	0.72491	0.65704	-0.523
Mof_O 	O 	0.32914	0.75325	0.78461	-0.366
Mof_O 	O 	0.32078	0.78998	0.86173	-0.377
Mof_C 	C 	0.3541	0.785	0.5866	0.414
Mof_C 	C 	0.3378	0.8052	0.5714	-0.156
Mof_C 	C 	0.3406	0.8059	0.5447	0.127
Mof_C 	C 	0.3665	0.741	0.6711	0.319
Mof_C 	C 	0.361	0.7336	0.6996	-0.11
Mof_C 	C 	0.34952	0.7514	0.717	0.121
Mof_O 	O 	0.34992	0.2844	0.1109	-0.572
Mof_O 	O 	0.3687	0.2698	0.0765	-0.437
Mof_O 	O 	0.3072	0.337	0.9902	-0.418
Mof_O 	O 	0.35754	0.26264	0.16282	-0.469
Mof_O 	O 	0.37835	0.22491	0.15704	-0.523
Mof_O 	O 	0.32914	0.25325	0.28461	-0.366
Mof_O 	O 	0.32078	0.28998	0.36173	-0.377
Mof_C 	C 	0.3541	0.285	0.0866	0.414
Mof_C 	C 	0.3378	0.3052	0.0714	-0.155
Mof_C 	C 	0.3406	0.3059	0.0447	0.127
Mof_C 	C 	0.3665	0.241	0.1711	0.319
Mof_C 	C 	0.361	0.2336	0.1996	-0.11
Mof_C 	C 	0.34952	0.2514	0.217	0.121
Mof_O 	O 	0.84992	0.7844	0.1109	-0.572
Mof_O 	O 	0.8687	0.7698	0.0765	-0.437
Mof_O 	O 	0.8072	0.837	0.9902	-0.418
Mof_O 	O 	0.85754	0.76264	0.16282	-0.469
Mof_O 	O 	0.87835	0.72491	0.15704	-0.523
Mof_O 	O 	0.82914	0.75325	0.28461	-0.366
Mof_O 	O 	0.82078	0.78998	0.36173	-0.377
Mof_C 	C 	0.8541	0.785	0.0866	0.414
Mof_C 	C 	0.8378	0.8052	0.0714	-0.155
Mof_C 	C 	0.8406	0.8059	0.0447	0.127
Mof_C 	C 	0.8665	0.741	0.1711	0.319
Mof_C 	C 	0.861	0.7336	0.1996	-0.11
Mof_C 	C 	0.84952	0.7514	0.217	0.121
Mof_O 	O 	0.84992	0.2844	0.6109	-0.572
Mof_O 	O 	0.8687	0.2698	0.5765	-0.437
Mof_O 	O 	0.8072	0.337	0.4902	-0.42
Mof_O 	O 	0.85754	0.26264	0.66282	-0.469
Mof_O 	O 	0.87835	0.22491	0.65704	-0.523
Mof_O 	O 	0.82914	0.25325	0.78461	-0.366
Mof_O 	O 	0.82078	0.28998	0.86173	-0.377
Mof_C 	C 	0.8541	0.285	0.5866	0.414
Mof_C 	C 	0.8378	0.3052	0.5714	-0.156
Mof_C 	C 	0.8406	0.3059	0.5447	0.127
Mof_C 	C 	0.8665	0.241	0.6711	0.319
Mof_C 	C 	0.861	0.2336	0.6996	-0.11
Mof_C 	C 	0.84952	0.2514	0.717	0.121
Mof_O 	O 	0.15008	0.8609	0.5344	-0.572
Mof_O 	O 	0.1313	0.8265	0.5198	-0.437
Mof_O 	O 	0.1928	0.7402	0.587	-0.42
Mof_O 	O 	0.14246	0.91282	0.51264	-0.469
Mof_O 	O 	0.12165	0.90704	0.47491	-0.523
Mof_O 	O 	0.17086	0.03461	0.50325	-0.365
Mof_O 	O 	0.17922	0.11173	0.53998	-0.377
Mof_C 	C 	0.1459	0.8366	0.535	0.414
Mof_C 	C 	0.1622	0.8214	0.5552	-0.156
Mof_C 	C 	0.1594	0.7947	0.5559	0.127
Mof_C 	C 	0.1335	0.9211	0.491	0.319
Mof_C 	C 	0.139	0.9496	0.4836	-0.109
Mof_C 	C 	0.15048	0.967	0.5014	0.12
Mof_O 	O 	0.15008	0.3609	0.0344	-0.572
Mof_O 	O 	0.1313	0.3265	0.0198	-0.437
Mof_O 	O 	0.1928	0.2402	0.087	-0.42
Mof_O 	O 	0.14246	0.41282	0.01264	-0.47
Mof_O 	O 	0.12165	0.40704	0.97491	-0.522
Mof_O 	O 	0.17086	0.53461	0.00325	-0.366
Mof_O 	O 	0.17922	0.61173	0.03998	-0.377
Mof_C 	C 	0.1459	0.3366	0.035	0.414
Mof_C 	C 	0.1622	0.3214	0.0552	-0.156
Mof_C 	C 	0.1594	0.2947	0.0559	0.127
Mof_C 	C 	0.1335	0.4211	0.991	0.32
Mof_C 	C 	0.139	0.4496	0.9836	-0.108
Mof_C 	C 	0.15048	0.467	0.0014	0.117
Mof_O 	O 	0.65008	0.8609	0.0344	-0.572
Mof_O 	O 	0.6313	0.8265	0.0198	-0.437
Mof_O 	O 	0.6928	0.7402	0.087	-0.42
Mof_O 	O 	0.64246	0.91282	0.01264	-0.47
Mof_O 	O 	0.62165	0.90704	0.97491	-0.522
Mof_O 	O 	0.67086	0.03461	0.00325	-0.365
Mof_O 	O 	0.67922	0.11173	0.03998	-0.377
Mof_C 	C 	0.6459	0.8366	0.035	0.414
Mof_C 	C 	0.6622	0.8214	0.0552	-0.156
Mof_C 	C 	0.6594	0.7947	0.0559	0.127
Mof_C 	C 	0.6335	0.9211	0.991	0.32
Mof_C 	C 	0.639	0.9496	0.9836	-0.107
Mof_C 	C 	0.65048	0.967	0.0014	0.116
Mof_O 	O 	0.65008	0.3609	0.5344	-0.572
Mof_O 	O 	0.6313	0.3265	0.5198	-0.437
Mof_O 	O 	0.6928	0.2402	0.587	-0.42
Mof_O 	O 	0.64246	0.41282	0.51264	-0.469
Mof_O 	O 	0.62165	0.40704	0.47491	-0.523
Mof_O 	O 	0.67086	0.53461	0.50325	-0.366
Mof_O 	O 	0.67922	0.61173	0.53998	-0.377
Mof_C 	C 	0.6459	0.3366	0.535	0.414
Mof_C 	C 	0.6622	0.3214	0.5552	-0.156
Mof_C 	C 	0.6594	0.2947	0.5559	0.127
Mof_C 	C 	0.6335	0.4211	0.491	0.319
Mof_C 	C 	0.639	0.4496	0.4836	-0.11
Mof_C 	C 	0.65048	0.467	0.5014	0.121
Mof_O 	O 	0.09992	0.8891	0.0344	-0.572
Mof_O 	O 	0.1187	0.9235	0.0198	-0.437
Mof_O 	O 	0.0572	0.0098	0.087	-0.421
Mof_O 	O 	0.10754	0.83718	0.01264	-0.47
Mof_O 	O 	0.12835	0.84296	0.97491	-0.522
Mof_O 	O 	0.07914	0.71539	0.00325	-0.366
Mof_O 	O 	0.07078	0.63827	0.03998	-0.377
Mof_C 	C 	0.1041	0.9134	0.035	0.414
Mof_C 	C 	0.0878	0.9286	0.0552	-0.156
Mof_C 	C 	0.0906	0.9553	0.0559	0.128
Mof_C 	C 	0.1165	0.8289	0.991	0.32
Mof_C 	C 	0.111	0.8004	0.9836	-0.108
Mof_C 	C 	0.09952	0.783	0.0014	0.117
Mof_O 	O 	0.09992	0.3891	0.5344	-0.572
Mof_O 	O 	0.1187	0.4235	0.5198	-0.437
Mof_O 	O 	0.0572	0.5098	0.587	-0.42
Mof_O 	O 	0.10754	0.33718	0.51264	-0.469
Mof_O 	O 	0.12835	0.34296	0.47491	-0.523
Mof_O 	O 	0.07914	0.21539	0.50325	-0.366
Mof_O 	O 	0.07078	0.13827	0.53998	-0.377
Mof_C 	C 	0.1041	0.4134	0.535	0.414
Mof_C 	C 	0.0878	0.4286	0.5552	-0.156
Mof_C 	C 	0.0906	0.4553	0.5559	0.127
Mof_C 	C 	0.1165	0.3289	0.491	0.319
Mof_C 	C 	0.111	0.3004	0.4836	-0.11
Mof_C 	C 	0.09952	0.283	0.5014	0.121
Mof_O 	O 	0.59992	0.8891	0.5344	-0.572
Mof_O 	O 	0.6187	0.9235	0.5198	-0.437
Mof_O 	O 	0.5572	0.0098	0.587	-0.421
Mof_O 	O 	0.60754	0.83718	0.51264	-0.469
Mof_O 	O 	0.62835	0.84296	0.47491	-0.523
Mof_O 	O 	0.57914	0.71539	0.50325	-0.366
Mof_O 	O 	0.57078	0.63827	0.53998	-0.377
Mof_C 	C 	0.6041	0.9134	0.535	0.414
Mof_C 	C 	0.5878	0.9286	0.5552	-0.156
Mof_C 	C 	0.5906	0.9553	0.5559	0.128
Mof_C 	C 	0.6165	0.8289	0.491	0.319
Mof_C 	C 	0.611	0.8004	0.4836	-0.11
Mof_C 	C 	0.59952	0.783	0.5014	0.121
Mof_O 	O 	0.59992	0.3891	0.0344	-0.572
Mof_O 	O 	0.6187	0.4235	0.0198	-0.437
Mof_O 	O 	0.5572	0.5098	0.087	-0.42
Mof_O 	O 	0.60754	0.33718	0.01264	-0.47
Mof_O 	O 	0.62835	0.34296	0.97491	-0.522
Mof_O 	O 	0.57914	0.21539	0.00325	-0.366
Mof_O 	O 	0.57078	0.13827	0.03998	-0.377
Mof_C 	C 	0.6041	0.4134	0.035	0.414
Mof_C 	C 	0.5878	0.4286	0.0552	-0.156
Mof_C 	C 	0.5906	0.4553	0.0559	0.127
Mof_C 	C 	0.6165	0.3289	0.991	0.32
Mof_C 	C 	0.611	0.3004	0.9836	-0.108
Mof_C 	C 	0.59952	0.283	0.0014	0.117
Mof_O 	O 	0.65008	0.3891	0.2156	-0.572
Mof_O 	O 	0.6313	0.4235	0.2302	-0.437
Mof_O 	O 	0.6928	0.5098	0.163	-0.42
Mof_O 	O 	0.64246	0.33718	0.23736	-0.469
Mof_O 	O 	0.62165	0.34296	0.27509	-0.523
Mof_O 	O 	0.67086	0.21539	0.24675	-0.366
Mof_O 	O 	0.67922	0.13827	0.21002	-0.377
Mof_C 	C 	0.6459	0.4134	0.215	0.414
Mof_C 	C 	0.6622	0.4286	0.1948	-0.156
Mof_C 	C 	0.6594	0.4553	0.1941	0.127
Mof_C 	C 	0.6335	0.3289	0.259	0.319
Mof_C 	C 	0.639	0.3004	0.2664	-0.11
Mof_C 	C 	0.65048	0.283	0.2486	0.121
Mof_O 	O 	0.65008	0.8891	0.7156	-0.572
Mof_O 	O 	0.6313	0.9235	0.7302	-0.437
Mof_O 	O 	0.6928	0.0098	0.663	-0.421
Mof_O 	O 	0.64246	0.83718	0.73736	-0.469
Mof_O 	O 	0.62165	0.84296	0.77509	-0.523
Mof_O 	O 	0.67086	0.71539	0.74675	-0.366
Mof_O 	O 	0.67922	0.63827	0.71002	-0.377
Mof_C 	C 	0.6459	0.9134	0.715	0.414
Mof_C 	C 	0.6622	0.9286	0.6948	-0.156
Mof_C 	C 	0.6594	0.9553	0.6941	0.128
Mof_C 	C 	0.6335	0.8289	0.759	0.319
Mof_C 	C 	0.639	0.8004	0.7664	-0.11
Mof_C 	C 	0.65048	0.783	0.7486	0.121
Mof_O 	O 	0.15008	0.3891	0.7156	-0.572
Mof_O 	O 	0.1313	0.4235	0.7302	-0.437
Mof_O 	O 	0.1928	0.5098	0.663	-0.42
Mof_O 	O 	0.14246	0.33718	0.73736	-0.469
Mof_O 	O 	0.12165	0.34296	0.77509	-0.523
Mof_O 	O 	0.17086	0.21539	0.74675	-0.366
Mof_O 	O 	0.17922	0.13827	0.71002	-0.377
Mof_C 	C 	0.1459	0.4134	0.715	0.414
Mof_C 	C 	0.1622	0.4286	0.6948	-0.156
Mof_C 	C 	0.1594	0.4553	0.6941	0.127
Mof_C 	C 	0.1335	0.3289	0.759	0.319
Mof_C 	C 	0.139	0.3004	0.7664	-0.11
Mof_C 	C 	0.15048	0.283	0.7486	0.121
Mof_O 	O 	0.15008	0.8891	0.2156	-0.572
Mof_O 	O 	0.1313	0.9235	0.2302	-0.437
Mof_O 	O 	0.1928	0.0098	0.163	-0.421
Mof_O 	O 	0.14246	0.83718	0.23736	-0.469
Mof_O 	O 	0.12165	0.84296	0.27509	-0.523
Mof_O 	O 	0.17086	0.71539	0.24675	-0.366
Mof_O 	O 	0.17922	0.63827	0.21002	-0.377
Mof_C 	C 	0.1459	0.9134	0.215	0.414
Mof_C 	C 	0.1622	0.9286	0.1948	-0.156
Mof_C 	C 	0.1594	0.9553	0.1941	0.128
Mof_C 	C 	0.1335	0.8289	0.259	0.319
Mof_C 	C 	0.139	0.8004	0.2664	-0.11
Mof_C 	C 	0.15048	0.783	0.2486	0.121
Mof_O 	O 	0.59992	0.3609	0.7156	-0.572
Mof_O 	O 	0.6187	0.3265	0.7302	-0.437
Mof_O 	O 	0.5572	0.2402	0.663	-0.42
Mof_O 	O 	0.60754	0.41282	0.73736	-0.469
Mof_O 	O 	0.62835	0.40704	0.77509	-0.523
Mof_O 	O 	0.57914	0.53461	0.74675	-0.366
Mof_O 	O 	0.57078	0.61173	0.71002	-0.377
Mof_C 	C 	0.6041	0.3366	0.715	0.414
Mof_C 	C 	0.5878	0.3214	0.6948	-0.156
Mof_C 	C 	0.5906	0.2947	0.6941	0.127
Mof_C 	C 	0.6165	0.4211	0.759	0.319
Mof_C 	C 	0.611	0.4496	0.7664	-0.11
Mof_C 	C 	0.59952	0.467	0.7486	0.121
Mof_O 	O 	0.59992	0.8609	0.2156	-0.572
Mof_O 	O 	0.6187	0.8265	0.2302	-0.437
Mof_O 	O 	0.5572	0.7402	0.163	-0.42
Mof_O 	O 	0.60754	0.91282	0.23736	-0.469
Mof_O 	O 	0.62835	0.90704	0.27509	-0.523
Mof_O 	O 	0.57914	0.03461	0.24675	-0.365
Mof_O 	O 	0.57078	0.11173	0.21002	-0.377
Mof_C 	C 	0.6041	0.8366	0.215	0.414
Mof_C 	C 	0.5878	0.8214	0.1948	-0.156
Mof_C 	C 	0.5906	0.7947	0.1941	0.127
Mof_C 	C 	0.6165	0.9211	0.259	0.319
Mof_C 	C 	0.611	0.9496	0.2664	-0.109
Mof_C 	C 	0.59952	0.967	0.2486	0.12
Mof_O 	O 	0.09992	0.3609	0.2156	-0.572
Mof_O 	O 	0.1187	0.3265	0.2302	-0.437
Mof_O 	O 	0.0572	0.2402	0.163	-0.42
Mof_O 	O 	0.10754	0.41282	0.23736	-0.469
Mof_O 	O 	0.12835	0.40704	0.27509	-0.523
Mof_O 	O 	0.07914	0.53461	0.24675	-0.366
Mof_O 	O 	0.07078	0.61173	0.21002	-0.377
Mof_C 	C 	0.1041	0.3366	0.215	0.414
Mof_C 	C 	0.0878	0.3214	0.1948	-0.156
Mof_C 	C 	0.0906	0.2947	0.1941	0.127
Mof_C 	C 	0.1165	0.4211	0.259	0.319
Mof_C 	C 	0.111	0.4496	0.2664	-0.11
Mof_C 	C 	0.09952	0.467	0.2486	0.121
Mof_O 	O 	0.09992	0.8609	0.7156	-0.572
Mof_O 	O 	0.1187	0.8265	0.7302	-0.437
Mof_O 	O 	0.0572	0.7402	0.663	-0.42
Mof_O 	O 	0.10754	0.91282	0.73736	-0.469
Mof_O 	O 	0.12835	0.90704	0.77509	-0.523
Mof_O 	O 	0.07914	0.03461	0.74675	-0.365
Mof_O 	O 	0.07078	0.11173	0.71002	-0.377
Mof_C 	C 	0.1041	0.8366	0.715	0.414
Mof_C 	C 	0.0878	0.8214	0.6948	-0.156
Mof_C 	C 	0.0906	0.7947	0.6941	0.127
Mof_C 	C 	0.1165	0.9211	0.759	0.319
Mof_C 	C 	0.111	0.9496	0.7664	-0.109
Mof_C 	C 	0.09952	0.967	0.7486	0.12
Mof_O 	O 	0.3609	0.7156	0.59992	-0.572
Mof_O 	O 	0.3265	0.7302	0.6187	-0.437
Mof_O 	O 	0.2402	0.663	0.5572	-0.42
Mof_O 	O 	0.41282	0.73736	0.60754	-0.469
Mof_O 	O 	0.40704	0.77509	0.62835	-0.523
Mof_O 	O 	0.53461	0.74675	0.57914	-0.366
Mof_O 	O 	0.61173	0.71002	0.57078	-0.377
Mof_C 	C 	0.3366	0.715	0.6041	0.414
Mof_C 	C 	0.3214	0.6948	0.5878	-0.156
Mof_C 	C 	0.2947	0.6941	0.5906	0.127
Mof_C 	C 	0.4211	0.759	0.6165	0.319
Mof_C 	C 	0.4496	0.7664	0.611	-0.11
Mof_C 	C 	0.467	0.7486	0.59952	0.121
Mof_O 	O 	0.3609	0.2156	0.09992	-0.572
Mof_O 	O 	0.3265	0.2302	0.1187	-0.437
Mof_O 	O 	0.2402	0.163	0.0572	-0.42
Mof_O 	O 	0.41282	0.23736	0.10754	-0.469
Mof_O 	O 	0.40704	0.27509	0.12835	-0.523
Mof_O 	O 	0.53461	0.24675	0.07914	-0.366
Mof_O 	O 	0.61173	0.21002	0.07078	-0.377
Mof_C 	C 	0.3366	0.215	0.1041	0.414
Mof_C 	C 	0.3214	0.1948	0.0878	-0.156
Mof_C 	C 	0.2947	0.1941	0.0906	0.127
Mof_C 	C 	0.4211	0.259	0.1165	0.319
Mof_C 	C 	0.4496	0.2664	0.111	-0.11
Mof_C 	C 	0.467	0.2486	0.09952	0.121
Mof_O 	O 	0.8609	0.7156	0.09992	-0.572
Mof_O 	O 	0.8265	0.7302	0.1187	-0.437
Mof_O 	O 	0.7402	0.663	0.0572	-0.42
Mof_O 	O 	0.91282	0.73736	0.10754	-0.469
Mof_O 	O 	0.90704	0.77509	0.12835	-0.523
Mof_O 	O 	0.03461	0.74675	0.07914	-0.365
Mof_O 	O 	0.11173	0.71002	0.07078	-0.377
Mof_C 	C 	0.8366	0.715	0.1041	0.414
Mof_C 	C 	0.8214	0.6948	0.0878	-0.156
Mof_C 	C 	0.7947	0.6941	0.0906	0.127
Mof_C 	C 	0.9211	0.759	0.1165	0.319
Mof_C 	C 	0.9496	0.7664	0.111	-0.109
Mof_C 	C 	0.967	0.7486	0.09952	0.12
Mof_O 	O 	0.8609	0.2156	0.59992	-0.572
Mof_O 	O 	0.8265	0.2302	0.6187	-0.437
Mof_O 	O 	0.7402	0.163	0.5572	-0.42
Mof_O 	O 	0.91282	0.23736	0.60754	-0.469
Mof_O 	O 	0.90704	0.27509	0.62835	-0.523
Mof_O 	O 	0.03461	0.24675	0.57914	-0.365
Mof_O 	O 	0.11173	0.21002	0.57078	-0.377
Mof_C 	C 	0.8366	0.215	0.6041	0.414
Mof_C 	C 	0.8214	0.1948	0.5878	-0.156
Mof_C 	C 	0.7947	0.1941	0.5906	0.127
Mof_C 	C 	0.9211	0.259	0.6165	0.319
Mof_C 	C 	0.9496	0.2664	0.611	-0.109
Mof_C 	C 	0.967	0.2486	0.59952	0.12
Mof_O 	O 	0.3891	0.2156	0.65008	-0.572
Mof_O 	O 	0.4235	0.2302	0.6313	-0.437
Mof_O 	O 	0.5098	0.163	0.6928	-0.42
Mof_O 	O 	0.33718	0.23736	0.64246	-0.469
Mof_O 	O 	0.34296	0.27509	0.62165	-0.523
Mof_O 	O 	0.21539	0.24675	0.67086	-0.366
Mof_O 	O 	0.13827	0.21002	0.67922	-0.377
Mof_C 	C 	0.4134	0.215	0.6459	0.414
Mof_C 	C 	0.4286	0.1948	0.6622	-0.156
Mof_C 	C 	0.4553	0.1941	0.6594	0.127
Mof_C 	C 	0.3289	0.259	0.6335	0.319
Mof_C 	C 	0.3004	0.2664	0.639	-0.11
Mof_C 	C 	0.283	0.2486	0.65048	0.121
Mof_O 	O 	0.3891	0.7156	0.15008	-0.572
Mof_O 	O 	0.4235	0.7302	0.1313	-0.437
Mof_O 	O 	0.5098	0.663	0.1928	-0.42
Mof_O 	O 	0.33718	0.73736	0.14246	-0.469
Mof_O 	O 	0.34296	0.77509	0.12165	-0.523
Mof_O 	O 	0.21539	0.74675	0.17086	-0.366
Mof_O 	O 	0.13827	0.71002	0.17922	-0.377
Mof_C 	C 	0.4134	0.715	0.1459	0.414
Mof_C 	C 	0.4286	0.6948	0.1622	-0.156
Mof_C 	C 	0.4553	0.6941	0.1594	0.127
Mof_C 	C 	0.3289	0.759	0.1335	0.319
Mof_C 	C 	0.3004	0.7664	0.139	-0.11
Mof_C 	C 	0.283	0.7486	0.15048	0.121
Mof_O 	O 	0.8891	0.2156	0.15008	-0.572
Mof_O 	O 	0.9235	0.2302	0.1313	-0.437
Mof_O 	O 	0.0098	0.163	0.1928	-0.421
Mof_O 	O 	0.83718	0.23736	0.14246	-0.469
Mof_O 	O 	0.84296	0.27509	0.12165	-0.523
Mof_O 	O 	0.71539	0.24675	0.17086	-0.366
Mof_O 	O 	0.63827	0.21002	0.17922	-0.377
Mof_C 	C 	0.9134	0.215	0.1459	0.414
Mof_C 	C 	0.9286	0.1948	0.1622	-0.156
Mof_C 	C 	0.9553	0.1941	0.1594	0.128
Mof_C 	C 	0.8289	0.259	0.1335	0.319
Mof_C 	C 	0.8004	0.2664	0.139	-0.11
Mof_C 	C 	0.783	0.2486	0.15048	0.121
Mof_O 	O 	0.8891	0.7156	0.65008	-0.572
Mof_O 	O 	0.9235	0.7302	0.6313	-0.437
Mof_O 	O 	0.0098	0.663	0.6928	-0.421
Mof_O 	O 	0.83718	0.73736	0.64246	-0.469
Mof_O 	O 	0.84296	0.77509	0.62165	-0.523
Mof_O 	O 	0.71539	0.74675	0.67086	-0.366
Mof_O 	O 	0.63827	0.71002	0.67922	-0.377
Mof_C 	C 	0.9134	0.715	0.6459	0.414
Mof_C 	C 	0.9286	0.6948	0.6622	-0.156
Mof_C 	C 	0.9553	0.6941	0.6594	0.128
Mof_C 	C 	0.8289	0.759	0.6335	0.319
Mof_C 	C 	0.8004	0.7664	0.639	-0.11
Mof_C 	C 	0.783	0.7486	0.65048	0.121
Mof_O 	O 	0.8891	0.0344	0.09992	-0.572
Mof_O 	O 	0.9235	0.0198	0.1187	-0.437
Mof_O 	O 	0.0098	0.087	0.0572	-0.421
Mof_O 	O 	0.83718	0.01264	0.10754	-0.47
Mof_O 	O 	0.84296	0.97491	0.12835	-0.522
Mof_O 	O 	0.71539	0.00325	0.07914	-0.366
Mof_O 	O 	0.63827	0.03998	0.07078	-0.377
Mof_C 	C 	0.9134	0.035	0.1041	0.414
Mof_C 	C 	0.9286	0.0552	0.0878	-0.156
Mof_C 	C 	0.9553	0.0559	0.0906	0.128
Mof_C 	C 	0.8289	0.991	0.1165	0.32
Mof_C 	C 	0.8004	0.9836	0.111	-0.108
Mof_C 	C 	0.783	0.0014	0.09952	0.117
Mof_O 	O 	0.8891	0.5344	0.59992	-0.572
Mof_O 	O 	0.9235	0.5198	0.6187	-0.437
Mof_O 	O 	0.0098	0.587	0.5572	-0.421
Mof_O 	O 	0.83718	0.51264	0.60754	-0.469
Mof_O 	O 	0.84296	0.47491	0.62835	-0.523
Mof_O 	O 	0.71539	0.50325	0.57914	-0.366
Mof_O 	O 	0.63827	0.53998	0.57078	-0.377
Mof_C 	C 	0.9134	0.535	0.6041	0.414
Mof_C 	C 	0.9286	0.5552	0.5878	-0.156
Mof_C 	C 	0.9553	0.5559	0.5906	0.128
Mof_C 	C 	0.8289	0.491	0.6165	0.319
Mof_C 	C 	0.8004	0.4836	0.611	-0.11
Mof_C 	C 	0.783	0.5014	0.59952	0.121
Mof_O 	O 	0.3891	0.0344	0.59992	-0.572
Mof_O 	O 	0.4235	0.0198	0.6187	-0.437
Mof_O 	O 	0.5098	0.087	0.5572	-0.42
Mof_O 	O 	0.33718	0.01264	0.60754	-0.47
Mof_O 	O 	0.34296	0.97491	0.62835	-0.522
Mof_O 	O 	0.21539	0.00325	0.57914	-0.366
Mof_O 	O 	0.13827	0.03998	0.57078	-0.377
Mof_C 	C 	0.4134	0.035	0.6041	0.414
Mof_C 	C 	0.4286	0.0552	0.5878	-0.156
Mof_C 	C 	0.4553	0.0559	0.5906	0.127
Mof_C 	C 	0.3289	0.991	0.6165	0.32
Mof_C 	C 	0.3004	0.9836	0.611	-0.108
Mof_C 	C 	0.283	0.0014	0.59952	0.117
Mof_O 	O 	0.3891	0.5344	0.09992	-0.572
Mof_O 	O 	0.4235	0.5198	0.1187	-0.437
Mof_O 	O 	0.5098	0.587	0.0572	-0.42
Mof_O 	O 	0.33718	0.51264	0.10754	-0.469
Mof_O 	O 	0.34296	0.47491	0.12835	-0.523
Mof_O 	O 	0.21539	0.50325	0.07914	-0.366
Mof_O 	O 	0.13827	0.53998	0.07078	-0.377
Mof_C 	C 	0.4134	0.535	0.1041	0.414
Mof_C 	C 	0.4286	0.5552	0.0878	-0.156
Mof_C 	C 	0.4553	0.5559	0.0906	0.127
Mof_C 	C 	0.3289	0.491	0.1165	0.319
Mof_C 	C 	0.3004	0.4836	0.111	-0.11
Mof_C 	C 	0.283	0.5014	0.09952	0.121
Mof_O 	O 	0.8609	0.5344	0.15008	-0.572
Mof_O 	O 	0.8265	0.5198	0.1313	-0.437
Mof_O 	O 	0.7402	0.587	0.1928	-0.42
Mof_O 	O 	0.91282	0.51264	0.14246	-0.469
Mof_O 	O 	0.90704	0.47491	0.12165	-0.523
Mof_O 	O 	0.03461	0.50325	0.17086	-0.365
Mof_O 	O 	0.11173	0.53998	0.17922	-0.377
Mof_C 	C 	0.8366	0.535	0.1459	0.414
Mof_C 	C 	0.8214	0.5552	0.1622	-0.156
Mof_C 	C 	0.7947	0.5559	0.1594	0.127
Mof_C 	C 	0.9211	0.491	0.1335	0.319
Mof_C 	C 	0.9496	0.4836	0.139	-0.109
Mof_C 	C 	0.967	0.5014	0.15048	0.12
Mof_O 	O 	0.8609	0.0344	0.65008	-0.572
Mof_O 	O 	0.8265	0.0198	0.6313	-0.437
Mof_O 	O 	0.7402	0.087	0.6928	-0.42
Mof_O 	O 	0.91282	0.01264	0.64246	-0.47
Mof_O 	O 	0.90704	0.97491	0.62165	-0.522
Mof_O 	O 	0.03461	0.00325	0.67086	-0.365
Mof_O 	O 	0.11173	0.03998	0.67922	-0.377
Mof_C 	C 	0.8366	0.035	0.6459	0.414
Mof_C 	C 	0.8214	0.0552	0.6622	-0.156
Mof_C 	C 	0.7947	0.0559	0.6594	0.127
Mof_C 	C 	0.9211	0.991	0.6335	0.32
Mof_C 	C 	0.9496	0.9836	0.639	-0.107
Mof_C 	C 	0.967	0.0014	0.65048	0.116
Mof_O 	O 	0.3609	0.5344	0.65008	-0.572
Mof_O 	O 	0.3265	0.5198	0.6313	-0.437
Mof_O 	O 	0.2402	0.587	0.6928	-0.42
Mof_O 	O 	0.41282	0.51264	0.64246	-0.469
Mof_O 	O 	0.40704	0.47491	0.62165	-0.523
Mof_O 	O 	0.53461	0.50325	0.67086	-0.366
Mof_O 	O 	0.61173	0.53998	0.67922	-0.377
Mof_C 	C 	0.3366	0.535	0.6459	0.414
Mof_C 	C 	0.3214	0.5552	0.6622	-0.156
Mof_C 	C 	0.2947	0.5559	0.6594	0.127
Mof_C 	C 	0.4211	0.491	0.6335	0.319
Mof_C 	C 	0.4496	0.4836	0.639	-0.11
Mof_C 	C 	0.467	0.5014	0.65048	0.121
Mof_O 	O 	0.3609	0.0344	0.15008	-0.572
Mof_O 	O 	0.3265	0.0198	0.1313	-0.437
Mof_O 	O 	0.2402	0.087	0.1928	-0.42
Mof_O 	O 	0.41282	0.01264	0.14246	-0.47
Mof_O 	O 	0.40704	0.97491	0.12165	-0.522
Mof_O 	O 	0.53461	0.00325	0.17086	-0.366
Mof_O 	O 	0.61173	0.03998	0.17922	-0.377
Mof_C 	C 	0.3366	0.035	0.1459	0.414
Mof_C 	C 	0.3214	0.0552	0.1622	-0.156
Mof_C 	C 	0.2947	0.0559	0.1594	0.127
Mof_C 	C 	0.4211	0.991	0.1335	0.32
Mof_C 	C 	0.4496	0.9836	0.139	-0.108
Mof_C 	C 	0.467	0.0014	0.15048	0.117
Mof_O 	O 	0.2156	0.65008	0.3891	-0.572
Mof_O 	O 	0.2302	0.6313	0.4235	-0.437
Mof_O 	O 	0.163	0.6928	0.5098	-0.42
Mof_O 	O 	0.23736	0.64246	0.33718	-0.469
Mof_O 	O 	0.27509	0.62165	0.34296	-0.523
Mof_O 	O 	0.24675	0.67086	0.21539	-0.366
Mof_O 	O 	0.21002	0.67922	0.13827	-0.377
Mof_C 	C 	0.215	0.6459	0.4134	0.414
Mof_C 	C 	0.1948	0.6622	0.4286	-0.156
Mof_C 	C 	0.1941	0.6594	0.4553	0.127
Mof_C 	C 	0.259	0.6335	0.3289	0.319
Mof_C 	C 	0.2664	0.639	0.3004	-0.11
Mof_C 	C 	0.2486	0.65048	0.283	0.121
Mof_O 	O 	0.2156	0.15008	0.8891	-0.572
Mof_O 	O 	0.2302	0.1313	0.9235	-0.437
Mof_O 	O 	0.163	0.1928	0.0098	-0.421
Mof_O 	O 	0.23736	0.14246	0.83718	-0.469
Mof_O 	O 	0.27509	0.12165	0.84296	-0.523
Mof_O 	O 	0.24675	0.17086	0.71539	-0.366
Mof_O 	O 	0.21002	0.17922	0.63827	-0.377
Mof_C 	C 	0.215	0.1459	0.9134	0.414
Mof_C 	C 	0.1948	0.1622	0.9286	-0.156
Mof_C 	C 	0.1941	0.1594	0.9553	0.128
Mof_C 	C 	0.259	0.1335	0.8289	0.319
Mof_C 	C 	0.2664	0.139	0.8004	-0.11
Mof_C 	C 	0.2486	0.15048	0.783	0.121
Mof_O 	O 	0.7156	0.65008	0.8891	-0.572
Mof_O 	O 	0.7302	0.6313	0.9235	-0.437
Mof_O 	O 	0.663	0.6928	0.0098	-0.421
Mof_O 	O 	0.73736	0.64246	0.83718	-0.469
Mof_O 	O 	0.77509	0.62165	0.84296	-0.523
Mof_O 	O 	0.74675	0.67086	0.71539	-0.366
Mof_O 	O 	0.71002	0.67922	0.63827	-0.377
Mof_C 	C 	0.715	0.6459	0.9134	0.414
Mof_C 	C 	0.6948	0.6622	0.9286	-0.156
Mof_C 	C 	0.6941	0.6594	0.9553	0.128
Mof_C 	C 	0.759	0.6335	0.8289	0.319
Mof_C 	C 	0.7664	0.639	0.8004	-0.11
Mof_C 	C 	0.7486	0.65048	0.783	0.121
Mof_O 	O 	0.7156	0.15008	0.3891	-0.572
Mof_O 	O 	0.7302	0.1313	0.4235	-0.437
Mof_O 	O 	0.663	0.1928	0.5098	-0.42
Mof_O 	O 	0.73736	0.14246	0.33718	-0.469
Mof_O 	O 	0.77509	0.12165	0.34296	-0.523
Mof_O 	O 	0.74675	0.17086	0.21539	-0.366
Mof_O 	O 	0.71002	0.17922	0.13827	-0.377
Mof_C 	C 	0.715	0.1459	0.4134	0.414
Mof_C 	C 	0.6948	0.1622	0.4286	-0.156
Mof_C 	C 	0.6941	0.1594	0.4553	0.127
Mof_C 	C 	0.759	0.1335	0.3289	0.319
Mof_C 	C 	0.7664	0.139	0.3004	-0.11
Mof_C 	C 	0.7486	0.15048	0.283	0.121
Mof_O 	O 	0.7156	0.59992	0.3609	-0.572
Mof_O 	O 	0.7302	0.6187	0.3265	-0.437
Mof_O 	O 	0.663	0.5572	0.2402	-0.42
Mof_O 	O 	0.73736	0.60754	0.41282	-0.469
Mof_O 	O 	0.77509	0.62835	0.40704	-0.523
Mof_O 	O 	0.74675	0.57914	0.53461	-0.366
Mof_O 	O 	0.71002	0.57078	0.61173	-0.377
Mof_C 	C 	0.715	0.6041	0.3366	0.414
Mof_C 	C 	0.6948	0.5878	0.3214	-0.156
Mof_C 	C 	0.6941	0.5906	0.2947	0.127
Mof_C 	C 	0.759	0.6165	0.4211	0.319
Mof_C 	C 	0.7664	0.611	0.4496	-0.11
Mof_C 	C 	0.7486	0.59952	0.467	0.121
Mof_O 	O 	0.7156	0.09992	0.8609	-0.572
Mof_O 	O 	0.7302	0.1187	0.8265	-0.437
Mof_O 	O 	0.663	0.0572	0.7402	-0.42
Mof_O 	O 	0.73736	0.10754	0.91282	-0.469
Mof_O 	O 	0.77509	0.12835	0.90704	-0.523
Mof_O 	O 	0.74675	0.07914	0.03461	-0.365
Mof_O 	O 	0.71002	0.07078	0.11173	-0.377
Mof_C 	C 	0.715	0.1041	0.8366	0.414
Mof_C 	C 	0.6948	0.0878	0.8214	-0.156
Mof_C 	C 	0.6941	0.0906	0.7947	0.127
Mof_C 	C 	0.759	0.1165	0.9211	0.319
Mof_C 	C 	0.7664	0.111	0.9496	-0.109
Mof_C 	C 	0.7486	0.09952	0.967	0.12
Mof_O 	O 	0.2156	0.59992	0.8609	-0.572
Mof_O 	O 	0.2302	0.6187	0.8265	-0.437
Mof_O 	O 	0.163	0.5572	0.7402	-0.42
Mof_O 	O 	0.23736	0.60754	0.91282	-0.469
Mof_O 	O 	0.27509	0.62835	0.90704	-0.523
Mof_O 	O 	0.24675	0.57914	0.03461	-0.365
Mof_O 	O 	0.21002	0.57078	0.11173	-0.377
Mof_C 	C 	0.215	0.6041	0.8366	0.414
Mof_C 	C 	0.1948	0.5878	0.8214	-0.156
Mof_C 	C 	0.1941	0.5906	0.7947	0.127
Mof_C 	C 	0.259	0.6165	0.9211	0.319
Mof_C 	C 	0.2664	0.611	0.9496	-0.109
Mof_C 	C 	0.2486	0.59952	0.967	0.12
Mof_O 	O 	0.2156	0.09992	0.3609	-0.572
Mof_O 	O 	0.2302	0.1187	0.3265	-0.437
Mof_O 	O 	0.163	0.0572	0.2402	-0.42
Mof_O 	O 	0.23736	0.10754	0.41282	-0.469
Mof_O 	O 	0.27509	0.12835	0.40704	-0.523
Mof_O 	O 	0.24675	0.07914	0.53461	-0.366
Mof_O 	O 	0.21002	0.07078	0.61173	-0.377
Mof_C 	C 	0.215	0.1041	0.3366	0.414
Mof_C 	C 	0.1948	0.0878	0.3214	-0.156
Mof_C 	C 	0.1941	0.0906	0.2947	0.127
Mof_C 	C 	0.259	0.1165	0.4211	0.319
Mof_C 	C 	0.2664	0.111	0.4496	-0.11
Mof_C 	C 	0.2486	0.09952	0.467	0.121
Mof_O 	O 	0.5344	0.15008	0.8609	-0.572
Mof_O 	O 	0.5198	0.1313	0.8265	-0.437
Mof_O 	O 	0.587	0.1928	0.7402	-0.42
Mof_O 	O 	0.51264	0.14246	0.91282	-0.469
Mof_O 	O 	0.47491	0.12165	0.90704	-0.523
Mof_O 	O 	0.50325	0.17086	0.03461	-0.365
Mof_O 	O 	0.53998	0.17922	0.11173	-0.377
Mof_C 	C 	0.535	0.1459	0.8366	0.414
Mof_C 	C 	0.5552	0.1622	0.8214	-0.156
Mof_C 	C 	0.5559	0.1594	0.7947	0.127
Mof_C 	C 	0.491	0.1335	0.9211	0.319
Mof_C 	C 	0.4836	0.139	0.9496	-0.109
Mof_C 	C 	0.5014	0.15048	0.967	0.12
Mof_O 	O 	0.5344	0.65008	0.3609	-0.572
Mof_O 	O 	0.5198	0.6313	0.3265	-0.437
Mof_O 	O 	0.587	0.6928	0.2402	-0.42
Mof_O 	O 	0.51264	0.64246	0.41282	-0.469
Mof_O 	O 	0.47491	0.62165	0.40704	-0.523
Mof_O 	O 	0.50325	0.67086	0.53461	-0.366
Mof_O 	O 	0.53998	0.67922	0.61173	-0.377
Mof_C 	C 	0.535	0.6459	0.3366	0.414
Mof_C 	C 	0.5552	0.6622	0.3214	-0.156
Mof_C 	C 	0.5559	0.6594	0.2947	0.127
Mof_C 	C 	0.491	0.6335	0.4211	0.319
Mof_C 	C 	0.4836	0.639	0.4496	-0.11
Mof_C 	C 	0.5014	0.65048	0.467	0.121
Mof_O 	O 	0.0344	0.15008	0.3609	-0.572
Mof_O 	O 	0.0198	0.1313	0.3265	-0.437
Mof_O 	O 	0.087	0.1928	0.2402	-0.42
Mof_O 	O 	0.01264	0.14246	0.41282	-0.47
Mof_O 	O 	0.97491	0.12165	0.40704	-0.522
Mof_O 	O 	0.00325	0.17086	0.53461	-0.366
Mof_O 	O 	0.03998	0.17922	0.61173	-0.377
Mof_C 	C 	0.035	0.1459	0.3366	0.414
Mof_C 	C 	0.0552	0.1622	0.3214	-0.156
Mof_C 	C 	0.0559	0.1594	0.2947	0.127
Mof_C 	C 	0.991	0.1335	0.4211	0.32
Mof_C 	C 	0.9836	0.139	0.4496	-0.108
Mof_C 	C 	0.0014	0.15048	0.467	0.117
Mof_O 	O 	0.0344	0.65008	0.8609	-0.572
Mof_O 	O 	0.0198	0.6313	0.8265	-0.437
Mof_O 	O 	0.087	0.6928	0.7402	-0.42
Mof_O 	O 	0.01264	0.64246	0.91282	-0.47
Mof_O 	O 	0.97491	0.62165	0.90704	-0.522
Mof_O 	O 	0.00325	0.67086	0.03461	-0.365
Mof_O 	O 	0.03998	0.67922	0.11173	-0.377
Mof_C 	C 	0.035	0.6459	0.8366	0.414
Mof_C 	C 	0.0552	0.6622	0.8214	-0.156
Mof_C 	C 	0.0559	0.6594	0.7947	0.127
Mof_C 	C 	0.991	0.6335	0.9211	0.32
Mof_C 	C 	0.9836	0.639	0.9496	-0.107
Mof_C 	C 	0.0014	0.65048	0.967	0.116
Mof_O 	O 	0.0344	0.09992	0.8891	-0.572
Mof_O 	O 	0.0198	0.1187	0.9235	-0.437
Mof_O 	O 	0.087	0.0572	0.0098	-0.421
Mof_O 	O 	0.01264	0.10754	0.83718	-0.47
Mof_O 	O 	0.97491	0.12835	0.84296	-0.522
Mof_O 	O 	0.00325	0.07914	0.71539	-0.366
Mof_O 	O 	0.03998	0.07078	0.63827	-0.377
Mof_C 	C 	0.035	0.1041	0.9134	0.414
Mof_C 	C 	0.0552	0.0878	0.9286	-0.156
Mof_C 	C 	0.0559	0.0906	0.9553	0.128
Mof_C 	C 	0.991	0.1165	0.8289	0.32
Mof_C 	C 	0.9836	0.111	0.8004	-0.108
Mof_C 	C 	0.0014	0.09952	0.783	0.117
Mof_O 	O 	0.0344	0.59992	0.3891	-0.572
Mof_O 	O 	0.0198	0.6187	0.4235	-0.437
Mof_O 	O 	0.087	0.5572	0.5098	-0.42
Mof_O 	O 	0.01264	0.60754	0.33718	-0.47
Mof_O 	O 	0.97491	0.62835	0.34296	-0.522
Mof_O 	O 	0.00325	0.57914	0.21539	-0.366
Mof_O 	O 	0.03998	0.57078	0.13827	-0.377
Mof_C 	C 	0.035	0.6041	0.4134	0.414
Mof_C 	C 	0.0552	0.5878	0.4286	-0.156
Mof_C 	C 	0.0559	0.5906	0.4553	0.127
Mof_C 	C 	0.991	0.6165	0.3289	0.32
Mof_C 	C 	0.9836	0.611	0.3004	-0.108
Mof_C 	C 	0.0014	0.59952	0.283	0.117
Mof_O 	O 	0.5344	0.09992	0.3891	-0.572
Mof_O 	O 	0.5198	0.1187	0.4235	-0.437
Mof_O 	O 	0.587	0.0572	0.5098	-0.42
Mof_O 	O 	0.51264	0.10754	0.33718	-0.469
Mof_O 	O 	0.47491	0.12835	0.34296	-0.523
Mof_O 	O 	0.50325	0.07914	0.21539	-0.366
Mof_O 	O 	0.53998	0.07078	0.13827	-0.377
Mof_C 	C 	0.535	0.1041	0.4134	0.414
Mof_C 	C 	0.5552	0.0878	0.4286	-0.156
Mof_C 	C 	0.5559	0.0906	0.4553	0.127
Mof_C 	C 	0.491	0.1165	0.3289	0.319
Mof_C 	C 	0.4836	0.111	0.3004	-0.11
Mof_C 	C 	0.5014	0.09952	0.283	0.121
Mof_O 	O 	0.5344	0.59992	0.8891	-0.572
Mof_O 	O 	0.5198	0.6187	0.9235	-0.437
Mof_O 	O 	0.587	0.5572	0.0098	-0.421
Mof_O 	O 	0.51264	0.60754	0.83718	-0.469
Mof_O 	O 	0.47491	0.62835	0.84296	-0.523
Mof_O 	O 	0.50325	0.57914	0.71539	-0.366
Mof_O 	O 	0.53998	0.57078	0.63827	-0.377
Mof_C 	C 	0.535	0.6041	0.9134	0.414
Mof_C 	C 	0.5552	0.5878	0.9286	-0.156
Mof_C 	C 	0.5559	0.5906	0.9553	0.128
Mof_C 	C 	0.491	0.6165	0.8289	0.319
Mof_C 	C 	0.4836	0.611	0.8004	-0.11
Mof_C 	C 	0.5014	0.59952	0.783	0.121
Mof_In	In	0.87796	0.12204	-0	2.542
Mof_In	In	0.87796	0.62204	0.5	2.547
Mof_In	In	0.37796	0.12204	0.5	2.547
Mof_In	In	0.37796	0.62204	-0	2.542
Mof_In	In	0.87204	0.12796	0.5	2.547
Mof_In	In	0.87204	0.62796	-0	2.542
Mof_In	In	0.37204	0.12796	-0	2.542
Mof_In	In	0.37204	0.62796	0.5	2.547
Mof_In	In	0.37204	0.62204	0.75	2.547
Mof_In	In	0.37204	0.12204	0.25	2.547
Mof_In	In	0.87204	0.62204	0.25	2.547
Mof_In	In	0.87204	0.12204	0.75	2.547
Mof_In	In	0.37796	0.62796	0.25	2.547
Mof_In	In	0.37796	0.12796	0.75	2.547
Mof_In	In	0.87796	0.62796	0.75	2.547
Mof_In	In	0.87796	0.12796	0.25	2.547
Mof_In	In	4.57577e-34	0.87796	0.12204	2.542
Mof_In	In	-9.90452e-33	0.37796	0.62204	2.542
Mof_In	In	0.5	0.87796	0.62204	2.547
Mof_In	In	0.5	0.37796	0.12204	2.547
Mof_In	In	0.5	0.87204	0.12796	2.547
Mof_In	In	0.5	0.37204	0.62796	2.547
Mof_In	In	8.47287e-33	0.87204	0.62796	2.542
Mof_In	In	-4.10903e-33	0.37204	0.12796	2.542
Mof_In	In	0.75	0.37204	0.62204	2.547
Mof_In	In	0.75	0.87204	0.12204	2.547
Mof_In	In	0.25	0.37204	0.12204	2.547
Mof_In	In	0.25	0.87204	0.62204	2.547
Mof_In	In	0.25	0.37796	0.62796	2.547
Mof_In	In	0.25	0.87796	0.12796	2.547
Mof_In	In	0.75	0.37796	0.12796	2.547
Mof_In	In	0.75	0.87796	0.62796	2.547
Mof_In	In	0.12204	-6.1184e-33	0.87796	2.542
Mof_In	In	0.12204	0.5	0.37796	2.547
Mof_In	In	0.62204	0	0.37796	2.542
Mof_In	In	0.62204	0.5	0.87796	2.547
Mof_In	In	0.12796	0.5	0.87204	2.547
Mof_In	In	0.12796	-3.0592e-33	0.37204	2.542
Mof_In	In	0.62796	0.5	0.37204	2.547
Mof_In	In	0.62796	0	0.87204	2.542
Mof_In	In	0.62204	0.75	0.37204	2.547
Mof_In	In	0.62204	0.25	0.87204	2.547
Mof_In	In	0.12204	0.75	0.87204	2.547
Mof_In	In	0.12204	0.25	0.37204	2.547
Mof_In	In	0.62796	0.25	0.37796	2.547
Mof_In	In	0.62796	0.75	0.87796	2.547
Mof_In	In	0.12796	0.25	0.87796	2.547
Mof_In	In	0.12796	0.75	0.37796	2.547
Mof_In	In	0.12204	0.87796	-0	2.542
Mof_In	In	0.12204	0.37796	0.5	2.547
Mof_In	In	0.62204	0.87796	0.5	2.547
Mof_In	In	0.62204	0.37796	-0	2.542
Mof_In	In	0.12796	0.87204	0.5	2.547
Mof_In	In	0.12796	0.37204	-0	2.542
Mof_In	In	0.62796	0.87204	-0	2.542
Mof_In	In	0.62796	0.37204	0.5	2.547
Mof_In	In	0.62796	0.37796	0.25	2.547
Mof_In	In	0.62796	0.87796	0.75	2.547
Mof_In	In	0.12796	0.37796	0.75	2.547
Mof_In	In	0.12796	0.87796	0.25	2.547
Mof_In	In	0.62204	0.37204	0.75	2.547
Mof_In	In	0.62204	0.87204	0.25	2.547
Mof_In	In	0.12204	0.37204	0.25	2.547
Mof_In	In	0.12204	0.87204	0.75	2.547
Mof_In	In	3.29182e-33	0.12204	0.87796	2.542
Mof_In	In	-4.70128e-33	0.62204	0.37796	2.542
Mof_In	In	0.5	0.12204	0.37796	2.547
Mof_In	In	0.5	0.62204	0.87796	2.547
Mof_In	In	0.5	0.12796	0.87204	2.547
Mof_In	In	0.5	0.62796	0.37204	2.547
Mof_In	In	-4.72347e-33	0.12796	0.37204	2.542
Mof_In	In	9.38802e-33	0.62796	0.87204	2.542
Mof_In	In	0.25	0.62796	0.37796	2.547
Mof_In	In	0.25	0.12796	0.87796	2.547
Mof_In	In	0.75	0.62796	0.87796	2.547
Mof_In	In	0.75	0.12796	0.37796	2.547
Mof_In	In	0.75	0.62204	0.37204	2.547
Mof_In	In	0.75	0.12204	0.87204	2.547
Mof_In	In	0.25	0.62204	0.87204	2.547
Mof_In	In	0.25	0.12204	0.37204	2.547
Mof_In	In	0.87796	1.5296e-33	0.12204	2.542
Mof_In	In	0.87796	0.5	0.62204	2.547
Mof_In	In	0.37796	-6.1184e-33	0.62204	2.542
Mof_In	In	0.37796	0.5	0.12204	2.547
Mof_In	In	0.87204	0.5	0.12796	2.547
Mof_In	In	0.87204	0	0.62796	2.542
Mof_In	In	0.37204	0.5	0.62796	2.547
Mof_In	In	0.37204	0	0.12796	2.542
Mof_In	In	0.37796	0.25	0.62796	2.547
Mof_In	In	0.37796	0.75	0.12796	2.547
Mof_In	In	0.87796	0.25	0.12796	2.547
Mof_In	In	0.87796	0.75	0.62796	2.547
Mof_In	In	0.37204	0.75	0.62204	2.547
Mof_In	In	0.37204	0.25	0.12204	2.547
Mof_In	In	0.87204	0.75	0.12204	2.547
Mof_In	In	0.87204	0.25	0.62204	2.547
Mof_Mn	Mn	0.67698	0.07302	0.0228	0.944
Mof_Mn	Mn	0.67698	0.57302	0.5228	0.945
Mof_Mn	Mn	0.07302	0.17698	0.5228	0.945
Mof_Mn	Mn	0.57302	0.17698	0.0228	0.945
Mof_Mn	Mn	0.57302	0.67698	0.5228	0.945
Mof_Mn	Mn	0.57302	0.57302	0.7272	0.945
Mof_Mn	Mn	0.57302	0.07302	0.2272	0.945
Mof_Mn	Mn	0.07302	0.57302	0.2272	0.945
Mof_Mn	Mn	0.07302	0.07302	0.7272	0.945
Mof_Mn	Mn	0.17698	0.67698	0.2272	0.945
Mof_Mn	Mn	0.17698	0.17698	0.7272	0.945
Mof_Mn	Mn	0.0228	0.67698	0.07302	0.944
Mof_Mn	Mn	0.0228	0.17698	0.57302	0.945
Mof_Mn	Mn	0.5228	0.67698	0.57302	0.945
Mof_Mn	Mn	0.5228	0.07302	0.17698	0.945
Mof_Mn	Mn	0.5228	0.57302	0.67698	0.945
Mof_Mn	Mn	0.7272	0.57302	0.57302	0.945
Mof_Mn	Mn	0.7272	0.07302	0.07302	0.945
Mof_Mn	Mn	0.2272	0.57302	0.07302	0.945
Mof_Mn	Mn	0.2272	0.07302	0.57302	0.945
Mof_Mn	Mn	0.2272	0.17698	0.67698	0.945
Mof_Mn	Mn	0.7272	0.17698	0.17698	0.945
Mof_Mn	Mn	0.07302	0.0228	0.67698	0.944
Mof_Mn	Mn	0.57302	0.0228	0.17698	0.945
Mof_Mn	Mn	0.57302	0.5228	0.67698	0.945
Mof_Mn	Mn	0.17698	0.5228	0.07302	0.945
Mof_Mn	Mn	0.17698	0.0228	0.57302	0.945
Mof_Mn	Mn	0.67698	0.5228	0.57302	0.945
Mof_Mn	Mn	0.57302	0.7272	0.57302	0.945
Mof_Mn	Mn	0.57302	0.2272	0.07302	0.945
Mof_Mn	Mn	0.07302	0.7272	0.07302	0.945
Mof_Mn	Mn	0.07302	0.2272	0.57302	0.945
Mof_Mn	Mn	0.67698	0.2272	0.17698	0.945
Mof_Mn	Mn	0.67698	0.7272	0.67698	0.945
Mof_Mn	Mn	0.17698	0.7272	0.17698	0.945
Mof_Mn	Mn	0.82302	0.92698	0.4772	0.945
Mof_Mn	Mn	0.82302	0.42698	0.9772	0.946
Mof_Mn	Mn	0.92698	0.32302	0.9772	0.946
Mof_Mn	Mn	0.42698	0.32302	0.4772	0.945
Mof_Mn	Mn	0.32302	0.82302	0.7728	0.945
Mof_Mn	Mn	0.32302	0.32302	0.2728	0.945
Mof_Mn	Mn	0.42698	0.42698	0.2728	0.945
Mof_Mn	Mn	0.42698	0.92698	0.7728	0.945
Mof_Mn	Mn	0.92698	0.42698	0.7728	0.945
Mof_Mn	Mn	0.92698	0.92698	0.2728	0.945
Mof_Mn	Mn	0.42698	0.2728	0.42698	0.945
Mof_Mn	Mn	0.42698	0.7728	0.92698	0.945
Mof_Mn	Mn	0.92698	0.2728	0.92698	0.945
Mof_Mn	Mn	0.92698	0.7728	0.42698	0.945
Mof_Mn	Mn	0.82302	0.7728	0.32302	0.945
Mof_Mn	Mn	0.82302	0.2728	0.82302	0.945
Mof_Mn	Mn	0.32302	0.2728	0.32302	0.945
Mof_Mn	Mn	0.32302	0.9772	0.92698	0.946
Mof_Mn	Mn	0.32302	0.4772	0.42698	0.945
Mof_Mn	Mn	0.92698	0.4772	0.82302	0.945
Mof_Mn	Mn	0.42698	0.4772	0.32302	0.945
Mof_Mn	Mn	0.7728	0.32302	0.82302	0.945
Mof_Mn	Mn	0.2728	0.32302	0.32302	0.945
Mof_Mn	Mn	0.2728	0.42698	0.42698	0.945
Mof_Mn	Mn	0.2728	0.92698	0.92698	0.945
Mof_Mn	Mn	0.7728	0.42698	0.92698	0.945
Mof_Mn	Mn	0.7728	0.92698	0.42698	0.945
Mof_Mn	Mn	0.4772	0.82302	0.92698	0.945
Mof_Mn	Mn	0.4772	0.32302	0.42698	0.945
Mof_Mn	Mn	0.9772	0.92698	0.32302	0.946
Mof_Mn	Mn	0.9772	0.42698	0.82302	0.946
Mof_Mn	Mn	0.32302	0.92698	0.9772	0.946
Mof_Mn	Mn	0.32302	0.42698	0.4772	0.945
Mof_Mn	Mn	0.92698	0.82302	0.4772	0.945
Mof_Mn	Mn	0.42698	0.82302	0.9772	0.946
Mof_Mn	Mn	0.82302	0.32302	0.7728	0.945
Mof_Mn	Mn	0.82302	0.82302	0.2728	0.945
Mof_Mn	Mn	0.9772	0.32302	0.92698	0.946
Mof_Mn	Mn	0.9772	0.82302	0.42698	0.946
Mof_Mn	Mn	0.4772	0.92698	0.82302	0.945
Mof_Mn	Mn	0.4772	0.42698	0.32302	0.945
Mof_Mn	Mn	0.7728	0.82302	0.32302	0.945
Mof_Mn	Mn	0.2728	0.82302	0.82302	0.945
Mof_Mn	Mn	0.92698	0.9772	0.32302	0.946
Mof_Mn	Mn	0.42698	0.9772	0.82302	0.946
Mof_Mn	Mn	0.82302	0.4772	0.92698	0.945
Mof_Mn	Mn	0.82302	0.9772	0.42698	0.946
Mof_Mn	Mn	0.32302	0.7728	0.82302	0.945
Mof_Mn	Mn	0.17698	0.07302	0.5228	0.945
Mof_Mn	Mn	0.17698	0.57302	0.0228	0.945
Mof_Mn	Mn	0.07302	0.67698	0.0228	0.944
Mof_Mn	Mn	0.67698	0.17698	0.2272	0.945
Mof_Mn	Mn	0.67698	0.67698	0.7272	0.945
Mof_Mn	Mn	0.17698	0.2272	0.67698	0.945
Mof_Mn	Mn	0.67698	0.0228	0.07302	0.944
Mof_Mn	Mn	0.07302	0.5228	0.17698	0.945
Mof_Mn	Mn	0.2272	0.67698	0.17698	0.945
Mof_Mn	Mn	0.7272	0.67698	0.67698	0.945
Mof_Mn	Mn	0.5228	0.17698	0.07302	0.945
Mof_Mn	Mn	0.0228	0.07302	0.67698	0.944
Mof_Mn	Mn	0.0228	0.57302	0.17698	0.945
Mof_Mn	Mn	0.04022	0.04022	0.09323	0.502
Mof_O 	O 	0.0356	0.0356	0.1216	-0.324
Mof_O 	O 	0.0687	0.0687	0.1061	-0.445
Mof_Mn	Mn	0.05354	0.05354	0.0949	0.701
Mof_Mn	Mn	0.04022	0.54022	0.59323	0.502
Mof_O 	O 	0.0356	0.5356	0.6216	-0.323
Mof_O 	O 	0.0687	0.5687	0.6061	-0.444
Mof_Mn	Mn	0.05354	0.55354	0.5949	0.7
Mof_Mn	Mn	0.54022	0.04022	0.59323	0.502
Mof_O 	O 	0.5356	0.0356	0.6216	-0.323
Mof_O 	O 	0.5687	0.0687	0.6061	-0.444
Mof_Mn	Mn	0.55354	0.05354	0.5949	0.7
Mof_Mn	Mn	0.54022	0.54022	0.09323	0.503
Mof_O 	O 	0.5356	0.5356	0.1216	-0.323
Mof_O 	O 	0.5687	0.5687	0.1061	-0.444
Mof_Mn	Mn	0.55354	0.55354	0.0949	0.7
Mof_Mn	Mn	0.70978	0.20978	0.59323	0.503
Mof_O 	O 	0.7144	0.2144	0.6216	-0.323
Mof_O 	O 	0.6813	0.1813	0.6061	-0.444
Mof_Mn	Mn	0.69646	0.19646	0.5949	0.7
Mof_Mn	Mn	0.70978	0.70978	0.09323	0.503
Mof_O 	O 	0.7144	0.7144	0.1216	-0.323
Mof_O 	O 	0.6813	0.6813	0.1061	-0.444
Mof_Mn	Mn	0.69646	0.69646	0.0949	0.7
Mof_Mn	Mn	0.20978	0.54022	0.65677	0.503
Mof_O 	O 	0.2144	0.5356	0.6284	-0.323
Mof_O 	O 	0.1813	0.5687	0.6439	-0.444
Mof_Mn	Mn	0.19646	0.55354	0.6551	0.7
Mof_Mn	Mn	0.20978	0.04022	0.15677	0.502
Mof_O 	O 	0.2144	0.0356	0.1284	-0.324
Mof_O 	O 	0.1813	0.0687	0.1439	-0.444
Mof_Mn	Mn	0.19646	0.05354	0.1551	0.7
Mof_Mn	Mn	0.54022	0.70978	0.15677	0.503
Mof_O 	O 	0.5356	0.7144	0.1284	-0.323
Mof_O 	O 	0.5687	0.6813	0.1439	-0.444
Mof_Mn	Mn	0.55354	0.69646	0.1551	0.7
Mof_Mn	Mn	0.04022	0.70978	0.65677	0.502
Mof_O 	O 	0.0356	0.7144	0.6284	-0.323
Mof_O 	O 	0.0687	0.6813	0.6439	-0.444
Mof_Mn	Mn	0.05354	0.69646	0.6551	0.7
Mof_Mn	Mn	0.09323	0.04022	0.04022	0.502
Mof_O 	O 	0.1216	0.0356	0.0356	-0.324
Mof_O 	O 	0.1061	0.0687	0.0687	-0.445
Mof_Mn	Mn	0.0949	0.05354	0.05354	0.701
Mof_Mn	Mn	0.09323	0.54022	0.54022	0.503
Mof_O 	O 	0.1216	0.5356	0.5356	-0.323
Mof_O 	O 	0.1061	0.5687	0.5687	-0.444
Mof_Mn	Mn	0.0949	0.55354	0.55354	0.7
Mof_Mn	Mn	0.59323	0.04022	0.54022	0.502
Mof_O 	O 	0.6216	0.0356	0.5356	-0.323
Mof_O 	O 	0.6061	0.0687	0.5687	-0.444
Mof_Mn	Mn	0.5949	0.05354	0.55354	0.7
Mof_Mn	Mn	0.59323	0.54022	0.04022	0.502
Mof_O 	O 	0.6216	0.5356	0.0356	-0.323
Mof_O 	O 	0.6061	0.5687	0.0687	-0.444
Mof_Mn	Mn	0.5949	0.55354	0.05354	0.7
Mof_Mn	Mn	0.59323	0.70978	0.20978	0.503
Mof_O 	O 	0.6216	0.7144	0.2144	-0.323
Mof_O 	O 	0.6061	0.6813	0.1813	-0.444
Mof_Mn	Mn	0.5949	0.69646	0.19646	0.7
Mof_Mn	Mn	0.09323	0.70978	0.70978	0.503
Mof_O 	O 	0.1216	0.7144	0.7144	-0.323
Mof_O 	O 	0.1061	0.6813	0.6813	-0.444
Mof_Mn	Mn	0.0949	0.69646	0.69646	0.7
Mof_Mn	Mn	0.65677	0.20978	0.54022	0.503
Mof_O 	O 	0.6284	0.2144	0.5356	-0.323
Mof_O 	O 	0.6439	0.1813	0.5687	-0.444
Mof_Mn	Mn	0.6551	0.19646	0.55354	0.7
Mof_Mn	Mn	0.65677	0.70978	0.04022	0.502
Mof_O 	O 	0.6284	0.7144	0.0356	-0.323
Mof_O 	O 	0.6439	0.6813	0.0687	-0.444
Mof_Mn	Mn	0.6551	0.69646	0.05354	0.7
Mof_Mn	Mn	0.15677	0.54022	0.70978	0.503
Mof_O 	O 	0.1284	0.5356	0.7144	-0.323
Mof_O 	O 	0.1439	0.5687	0.6813	-0.444
Mof_Mn	Mn	0.1551	0.55354	0.69646	0.7
Mof_Mn	Mn	0.15677	0.04022	0.20978	0.502
Mof_O 	O 	0.1284	0.0356	0.2144	-0.324
Mof_O 	O 	0.1439	0.0687	0.1813	-0.444
Mof_Mn	Mn	0.1551	0.05354	0.19646	0.7
Mof_Mn	Mn	0.04022	0.09323	0.04022	0.502
Mof_O 	O 	0.0356	0.1216	0.0356	-0.324
Mof_O 	O 	0.0687	0.1061	0.0687	-0.445
Mof_Mn	Mn	0.05354	0.0949	0.05354	0.701
Mof_Mn	Mn	0.04022	0.59323	0.54022	0.502
Mof_O 	O 	0.0356	0.6216	0.5356	-0.323
Mof_O 	O 	0.0687	0.6061	0.5687	-0.444
Mof_Mn	Mn	0.05354	0.5949	0.55354	0.7
Mof_Mn	Mn	0.54022	0.09323	0.54022	0.503
Mof_O 	O 	0.5356	0.1216	0.5356	-0.323
Mof_O 	O 	0.5687	0.1061	0.5687	-0.444
Mof_Mn	Mn	0.55354	0.0949	0.55354	0.7
Mof_Mn	Mn	0.54022	0.59323	0.04022	0.502
Mof_O 	O 	0.5356	0.6216	0.0356	-0.323
Mof_O 	O 	0.5687	0.6061	0.0687	-0.444
Mof_Mn	Mn	0.55354	0.5949	0.05354	0.7
Mof_Mn	Mn	0.20978	0.59323	0.70978	0.503
Mof_O 	O 	0.2144	0.6216	0.7144	-0.323
Mof_O 	O 	0.1813	0.6061	0.6813	-0.444
Mof_Mn	Mn	0.19646	0.5949	0.69646	0.7
Mof_Mn	Mn	0.20978	0.09323	0.20978	0.503
Mof_O 	O 	0.2144	0.1216	0.2144	-0.323
Mof_O 	O 	0.1813	0.1061	0.1813	-0.444
Mof_Mn	Mn	0.19646	0.0949	0.19646	0.7
Mof_Mn	Mn	0.54022	0.65677	0.20978	0.503
Mof_O 	O 	0.5356	0.6284	0.2144	-0.323
Mof_O 	O 	0.5687	0.6439	0.1813	-0.444
Mof_Mn	Mn	0.55354	0.6551	0.19646	0.7
Mof_Mn	Mn	0.04022	0.65677	0.70978	0.502
Mof_O 	O 	0.0356	0.6284	0.7144	-0.323
Mof_O 	O 	0.0687	0.6439	0.6813	-0.444
Mof_Mn	Mn	0.05354	0.6551	0.69646	0.7
Mof_Mn	Mn	0.70978	0.15677	0.54022	0.503
Mof_O 	O 	0.7144	0.1284	0.5356	-0.323
Mof_O 	O 	0.6813	0.1439	0.5687	-0.444
Mof_Mn	Mn	0.69646	0.1551	0.55354	0.7
Mof_Mn	Mn	0.70978	0.65677	0.04022	0.502
Mof_O 	O 	0.7144	0.6284	0.0356	-0.323
Mof_O 	O 	0.6813	0.6439	0.0687	-0.444
Mof_Mn	Mn	0.69646	0.6551	0.05354	0.7
Mof_Mn	Mn	0.79022	0.29022	0.40677	0.503
Mof_O 	O 	0.7856	0.2856	0.3784	-0.323
Mof_O 	O 	0.8187	0.3187	0.3939	-0.444
Mof_Mn	Mn	0.80354	0.30354	0.4051	0.7
Mof_Mn	Mn	0.79022	0.79022	0.90677	0.503
Mof_O 	O 	0.7856	0.7856	0.8784	-0.323
Mof_O 	O 	0.8187	0.8187	0.8939	-0.444
Mof_Mn	Mn	0.80354	0.80354	0.9051	0.7
Mof_Mn	Mn	0.95978	0.95978	0.90677	0.504
Mof_O 	O 	0.9644	0.9644	0.8784	-0.323
Mof_O 	O 	0.9313	0.9313	0.8939	-0.443
Mof_Mn	Mn	0.94646	0.94646	0.9051	0.698
Mof_Mn	Mn	0.95978	0.45978	0.40677	0.504
Mof_O 	O 	0.9644	0.4644	0.3784	-0.323
Mof_O 	O 	0.9313	0.4313	0.3939	-0.444
Mof_Mn	Mn	0.94646	0.44646	0.4051	0.699
Mof_Mn	Mn	0.45978	0.95978	0.40677	0.504
Mof_O 	O 	0.4644	0.9644	0.3784	-0.323
Mof_O 	O 	0.4313	0.9313	0.3939	-0.444
Mof_Mn	Mn	0.44646	0.94646	0.4051	0.699
Mof_Mn	Mn	0.45978	0.45978	0.90677	0.503
Mof_O 	O 	0.4644	0.4644	0.8784	-0.323
Mof_O 	O 	0.4313	0.4313	0.8939	-0.444
Mof_Mn	Mn	0.44646	0.44646	0.9051	0.7
Mof_Mn	Mn	0.29022	0.45978	0.84323	0.503
Mof_O 	O 	0.2856	0.4644	0.8716	-0.323
Mof_O 	O 	0.3187	0.4313	0.8561	-0.444
Mof_Mn	Mn	0.30354	0.44646	0.8449	0.7
Mof_Mn	Mn	0.29022	0.95978	0.34323	0.504
Mof_O 	O 	0.2856	0.9644	0.3716	-0.323
Mof_O 	O 	0.3187	0.9313	0.3561	-0.444
Mof_Mn	Mn	0.30354	0.94646	0.3449	0.699
Mof_Mn	Mn	0.45978	0.79022	0.34323	0.503
Mof_O 	O 	0.4644	0.7856	0.3716	-0.323
Mof_O 	O 	0.4313	0.8187	0.3561	-0.444
Mof_Mn	Mn	0.44646	0.80354	0.3449	0.7
Mof_Mn	Mn	0.95978	0.79022	0.84323	0.504
Mof_O 	O 	0.9644	0.7856	0.8716	-0.323
Mof_O 	O 	0.9313	0.8187	0.8561	-0.444
Mof_Mn	Mn	0.94646	0.80354	0.8449	0.699
Mof_Mn	Mn	0.79022	0.34323	0.45978	0.503
Mof_O 	O 	0.7856	0.3716	0.4644	-0.323
Mof_O 	O 	0.8187	0.3561	0.4313	-0.444
Mof_Mn	Mn	0.80354	0.3449	0.44646	0.7
Mof_Mn	Mn	0.79022	0.84323	0.95978	0.504
Mof_O 	O 	0.7856	0.8716	0.9644	-0.323
Mof_O 	O 	0.8187	0.8561	0.9313	-0.444
Mof_Mn	Mn	0.80354	0.8449	0.94646	0.699
Mof_Mn	Mn	0.45978	0.84323	0.29022	0.503
Mof_O 	O 	0.4644	0.8716	0.2856	-0.323
Mof_O 	O 	0.4313	0.8561	0.3187	-0.444
Mof_Mn	Mn	0.44646	0.8449	0.30354	0.7
Mof_Mn	Mn	0.95978	0.84323	0.79022	0.504
Mof_O 	O 	0.9644	0.8716	0.7856	-0.323
Mof_O 	O 	0.9313	0.8561	0.8187	-0.444
Mof_Mn	Mn	0.94646	0.8449	0.80354	0.699
Mof_Mn	Mn	0.95978	0.90677	0.95978	0.504
Mof_O 	O 	0.9644	0.8784	0.9644	-0.323
Mof_O 	O 	0.9313	0.8939	0.9313	-0.443
Mof_Mn	Mn	0.94646	0.9051	0.94646	0.698
Mof_Mn	Mn	0.95978	0.40677	0.45978	0.504
Mof_O 	O 	0.9644	0.3784	0.4644	-0.323
Mof_O 	O 	0.9313	0.3939	0.4313	-0.444
Mof_Mn	Mn	0.94646	0.4051	0.44646	0.699
Mof_Mn	Mn	0.45978	0.90677	0.45978	0.503
Mof_O 	O 	0.4644	0.8784	0.4644	-0.323
Mof_O 	O 	0.4313	0.8939	0.4313	-0.444
Mof_Mn	Mn	0.44646	0.9051	0.44646	0.7
Mof_Mn	Mn	0.45978	0.40677	0.95978	0.504
Mof_O 	O 	0.4644	0.3784	0.9644	-0.323
Mof_O 	O 	0.4313	0.3939	0.9313	-0.444
Mof_Mn	Mn	0.44646	0.4051	0.94646	0.699
Mof_Mn	Mn	0.29022	0.40677	0.79022	0.503
Mof_O 	O 	0.2856	0.3784	0.7856	-0.323
Mof_O 	O 	0.3187	0.3939	0.8187	-0.444
Mof_Mn	Mn	0.30354	0.4051	0.80354	0.7
Mof_Mn	Mn	0.29022	0.90677	0.29022	0.503
Mof_O 	O 	0.2856	0.8784	0.2856	-0.323
Mof_O 	O 	0.3187	0.8939	0.3187	-0.444
Mof_Mn	Mn	0.30354	0.9051	0.30354	0.7
Mof_Mn	Mn	0.84323	0.29022	0.45978	0.503
Mof_O 	O 	0.8716	0.2856	0.4644	-0.323
Mof_O 	O 	0.8561	0.3187	0.4313	-0.444
Mof_Mn	Mn	0.8449	0.30354	0.44646	0.7
Mof_Mn	Mn	0.84323	0.79022	0.95978	0.504
Mof_O 	O 	0.8716	0.7856	0.9644	-0.323
Mof_O 	O 	0.8561	0.8187	0.9313	-0.444
Mof_Mn	Mn	0.8449	0.80354	0.94646	0.699
Mof_Mn	Mn	0.34323	0.45978	0.79022	0.503
Mof_O 	O 	0.3716	0.4644	0.7856	-0.323
Mof_O 	O 	0.3561	0.4313	0.8187	-0.444
Mof_Mn	Mn	0.3449	0.44646	0.80354	0.7
Mof_Mn	Mn	0.34323	0.95978	0.29022	0.504
Mof_O 	O 	0.3716	0.9644	0.2856	-0.323
Mof_O 	O 	0.3561	0.9313	0.3187	-0.444
Mof_Mn	Mn	0.3449	0.94646	0.30354	0.699
Mof_Mn	Mn	0.40677	0.79022	0.29022	0.503
Mof_O 	O 	0.3784	0.7856	0.2856	-0.323
Mof_O 	O 	0.3939	0.8187	0.3187	-0.444
Mof_Mn	Mn	0.4051	0.80354	0.30354	0.7
Mof_Mn	Mn	0.90677	0.79022	0.79022	0.503
Mof_O 	O 	0.8784	0.7856	0.7856	-0.323
Mof_O 	O 	0.8939	0.8187	0.8187	-0.444
Mof_Mn	Mn	0.9051	0.80354	0.80354	0.7
Mof_Mn	Mn	0.90677	0.95978	0.95978	0.504
Mof_O 	O 	0.8784	0.9644	0.9644	-0.323
Mof_O 	O 	0.8939	0.9313	0.9313	-0.443
Mof_Mn	Mn	0.9051	0.94646	0.94646	0.698
Mof_Mn	Mn	0.90677	0.45978	0.45978	0.503
Mof_O 	O 	0.8784	0.4644	0.4644	-0.323
Mof_O 	O 	0.8939	0.4313	0.4313	-0.444
Mof_Mn	Mn	0.9051	0.44646	0.44646	0.7
Mof_Mn	Mn	0.40677	0.95978	0.45978	0.504
Mof_O 	O 	0.3784	0.9644	0.4644	-0.323
Mof_O 	O 	0.3939	0.9313	0.4313	-0.444
Mof_Mn	Mn	0.4051	0.94646	0.44646	0.699
Mof_Mn	Mn	0.40677	0.45978	0.95978	0.504
Mof_O 	O 	0.3784	0.4644	0.9644	-0.323
Mof_O 	O 	0.3939	0.4313	0.9313	-0.444
Mof_Mn	Mn	0.4051	0.44646	0.94646	0.699
Mof_Mn	Mn	0.29022	0.79022	0.40677	0.503
Mof_O 	O 	0.2856	0.7856	0.3784	-0.323
Mof_O 	O 	0.3187	0.8187	0.3939	-0.444
Mof_Mn	Mn	0.30354	0.80354	0.4051	0.7
Mof_Mn	Mn	0.29022	0.29022	0.90677	0.503
Mof_O 	O 	0.2856	0.2856	0.8784	-0.323
Mof_O 	O 	0.3187	0.3187	0.8939	-0.444
Mof_Mn	Mn	0.30354	0.30354	0.9051	0.7
Mof_Mn	Mn	0.79022	0.45978	0.34323	0.503
Mof_O 	O 	0.7856	0.4644	0.3716	-0.323
Mof_O 	O 	0.8187	0.4313	0.3561	-0.444
Mof_Mn	Mn	0.80354	0.44646	0.3449	0.7
Mof_Mn	Mn	0.79022	0.95978	0.84323	0.504
Mof_O 	O 	0.7856	0.9644	0.8716	-0.323
Mof_O 	O 	0.8187	0.9313	0.8561	-0.444
Mof_Mn	Mn	0.80354	0.94646	0.8449	0.699
Mof_Mn	Mn	0.45978	0.29022	0.84323	0.503
Mof_O 	O 	0.4644	0.2856	0.8716	-0.323
Mof_O 	O 	0.4313	0.3187	0.8561	-0.444
Mof_Mn	Mn	0.44646	0.30354	0.8449	0.7
Mof_Mn	Mn	0.95978	0.29022	0.34323	0.504
Mof_O 	O 	0.9644	0.2856	0.3716	-0.323
Mof_O 	O 	0.9313	0.3187	0.3561	-0.444
Mof_Mn	Mn	0.94646	0.30354	0.3449	0.699
Mof_Mn	Mn	0.40677	0.29022	0.79022	0.503
Mof_O 	O 	0.3784	0.2856	0.7856	-0.323
Mof_O 	O 	0.3939	0.3187	0.8187	-0.444
Mof_Mn	Mn	0.4051	0.30354	0.80354	0.7
Mof_Mn	Mn	0.90677	0.29022	0.29022	0.503
Mof_O 	O 	0.8784	0.2856	0.2856	-0.323
Mof_O 	O 	0.8939	0.3187	0.3187	-0.444
Mof_Mn	Mn	0.9051	0.30354	0.30354	0.7
Mof_Mn	Mn	0.34323	0.79022	0.45978	0.503
Mof_O 	O 	0.3716	0.7856	0.4644	-0.323
Mof_O 	O 	0.3561	0.8187	0.4313	-0.444
Mof_Mn	Mn	0.3449	0.80354	0.44646	0.7
Mof_Mn	Mn	0.34323	0.29022	0.95978	0.504
Mof_O 	O 	0.3716	0.2856	0.9644	-0.323
Mof_O 	O 	0.3561	0.3187	0.9313	-0.444
Mof_Mn	Mn	0.3449	0.30354	0.94646	0.699
Mof_Mn	Mn	0.84323	0.45978	0.29022	0.503
Mof_O 	O 	0.8716	0.4644	0.2856	-0.323
Mof_O 	O 	0.8561	0.4313	0.3187	-0.444
Mof_Mn	Mn	0.8449	0.44646	0.30354	0.7
Mof_Mn	Mn	0.84323	0.95978	0.79022	0.504
Mof_O 	O 	0.8716	0.9644	0.7856	-0.323
Mof_O 	O 	0.8561	0.9313	0.8187	-0.444
Mof_Mn	Mn	0.8449	0.94646	0.80354	0.699
Mof_Mn	Mn	0.79022	0.40677	0.29022	0.503
Mof_O 	O 	0.7856	0.3784	0.2856	-0.323
Mof_O 	O 	0.8187	0.3939	0.3187	-0.444
Mof_Mn	Mn	0.80354	0.4051	0.30354	0.7
Mof_Mn	Mn	0.79022	0.90677	0.79022	0.503
Mof_O 	O 	0.7856	0.8784	0.7856	-0.323
Mof_O 	O 	0.8187	0.8939	0.8187	-0.444
Mof_Mn	Mn	0.80354	0.9051	0.80354	0.7
Mof_Mn	Mn	0.45978	0.34323	0.79022	0.503
Mof_O 	O 	0.4644	0.3716	0.7856	-0.323
Mof_O 	O 	0.4313	0.3561	0.8187	-0.444
Mof_Mn	Mn	0.44646	0.3449	0.80354	0.7
Mof_Mn	Mn	0.95978	0.34323	0.29022	0.504
Mof_O 	O 	0.9644	0.3716	0.2856	-0.323
Mof_O 	O 	0.9313	0.3561	0.3187	-0.444
Mof_Mn	Mn	0.94646	0.3449	0.30354	0.699
Mof_Mn	Mn	0.29022	0.84323	0.45978	0.503
Mof_O 	O 	0.2856	0.8716	0.4644	-0.323
Mof_O 	O 	0.3187	0.8561	0.4313	-0.444
Mof_Mn	Mn	0.30354	0.8449	0.44646	0.7
Mof_Mn	Mn	0.29022	0.34323	0.95978	0.504
Mof_O 	O 	0.2856	0.3716	0.9644	-0.323
Mof_O 	O 	0.3187	0.3561	0.9313	-0.444
Mof_Mn	Mn	0.30354	0.3449	0.94646	0.699
Mof_Mn	Mn	0.20978	0.70978	0.59323	0.503
Mof_O 	O 	0.2144	0.7144	0.6216	-0.323
Mof_O 	O 	0.1813	0.6813	0.6061	-0.444
Mof_Mn	Mn	0.19646	0.69646	0.5949	0.7
Mof_Mn	Mn	0.20978	0.20978	0.09323	0.503
Mof_O 	O 	0.2144	0.2144	0.1216	-0.323
Mof_O 	O 	0.1813	0.1813	0.1061	-0.444
Mof_Mn	Mn	0.19646	0.19646	0.0949	0.7
Mof_Mn	Mn	0.70978	0.54022	0.15677	0.503
Mof_O 	O 	0.7144	0.5356	0.1284	-0.323
Mof_O 	O 	0.6813	0.5687	0.1439	-0.444
Mof_Mn	Mn	0.69646	0.55354	0.1551	0.7
Mof_Mn	Mn	0.70978	0.04022	0.65677	0.502
Mof_O 	O 	0.7144	0.0356	0.6284	-0.323
Mof_O 	O 	0.6813	0.0687	0.6439	-0.444
Mof_Mn	Mn	0.69646	0.05354	0.6551	0.7
Mof_Mn	Mn	0.54022	0.20978	0.65677	0.503
Mof_O 	O 	0.5356	0.2144	0.6284	-0.323
Mof_O 	O 	0.5687	0.1813	0.6439	-0.444
Mof_Mn	Mn	0.55354	0.19646	0.6551	0.7
Mof_Mn	Mn	0.04022	0.20978	0.15677	0.502
Mof_O 	O 	0.0356	0.2144	0.1284	-0.324
Mof_O 	O 	0.0687	0.1813	0.1439	-0.444
Mof_Mn	Mn	0.05354	0.19646	0.1551	0.7
Mof_Mn	Mn	0.20978	0.65677	0.54022	0.503
Mof_O 	O 	0.2144	0.6284	0.5356	-0.323
Mof_O 	O 	0.1813	0.6439	0.5687	-0.444
Mof_Mn	Mn	0.19646	0.6551	0.55354	0.7
Mof_Mn	Mn	0.20978	0.15677	0.04022	0.502
Mof_O 	O 	0.2144	0.1284	0.0356	-0.324
Mof_O 	O 	0.1813	0.1439	0.0687	-0.444
Mof_Mn	Mn	0.19646	0.1551	0.05354	0.7
Mof_Mn	Mn	0.54022	0.15677	0.70978	0.503
Mof_O 	O 	0.5356	0.1284	0.7144	-0.323
Mof_O 	O 	0.5687	0.1439	0.6813	-0.444
Mof_Mn	Mn	0.55354	0.1551	0.69646	0.7
Mof_Mn	Mn	0.04022	0.15677	0.20978	0.502
Mof_O 	O 	0.0356	0.1284	0.2144	-0.324
Mof_O 	O 	0.0687	0.1439	0.1813	-0.444
Mof_Mn	Mn	0.05354	0.1551	0.19646	0.7
Mof_Mn	Mn	0.70978	0.59323	0.20978	0.503
Mof_O 	O 	0.7144	0.6216	0.2144	-0.323
Mof_O 	O 	0.6813	0.6061	0.1813	-0.444
Mof_Mn	Mn	0.69646	0.5949	0.19646	0.7
Mof_Mn	Mn	0.70978	0.09323	0.70978	0.503
Mof_O 	O 	0.7144	0.1216	0.7144	-0.323
Mof_O 	O 	0.6813	0.1061	0.6813	-0.444
Mof_Mn	Mn	0.69646	0.0949	0.69646	0.7
Mof_Mn	Mn	0.15677	0.70978	0.54022	0.503
Mof_O 	O 	0.1284	0.7144	0.5356	-0.323
Mof_O 	O 	0.1439	0.6813	0.5687	-0.444
Mof_Mn	Mn	0.1551	0.69646	0.55354	0.7
Mof_Mn	Mn	0.15677	0.20978	0.04022	0.502
Mof_O 	O 	0.1284	0.2144	0.0356	-0.324
Mof_O 	O 	0.1439	0.1813	0.0687	-0.444
Mof_Mn	Mn	0.1551	0.19646	0.05354	0.7
Mof_Mn	Mn	0.65677	0.54022	0.20978	0.503
Mof_O 	O 	0.6284	0.5356	0.2144	-0.323
Mof_O 	O 	0.6439	0.5687	0.1813	-0.444
Mof_Mn	Mn	0.6551	0.55354	0.19646	0.7
Mof_Mn	Mn	0.65677	0.04022	0.70978	0.502
Mof_O 	O 	0.6284	0.0356	0.7144	-0.323
Mof_O 	O 	0.6439	0.0687	0.6813	-0.444
Mof_Mn	Mn	0.6551	0.05354	0.69646	0.7
Mof_Mn	Mn	0.59323	0.20978	0.70978	0.503
Mof_O 	O 	0.6216	0.2144	0.7144	-0.323
Mof_O 	O 	0.6061	0.1813	0.6813	-0.444
Mof_Mn	Mn	0.5949	0.19646	0.69646	0.7
Mof_Mn	Mn	0.09323	0.20978	0.20978	0.503
Mof_O 	O 	0.1216	0.2144	0.2144	-0.323
Mof_O 	O 	0.1061	0.1813	0.1813	-0.444
Mof_Mn	Mn	0.0949	0.19646	0.19646	0.7
Mof_O 	O 	0.69688	0.05312	0.05312	-0.458
Mof_O 	O 	0.05312	0.19688	0.55312	-0.458
Mof_O 	O 	0.55312	0.55312	0.69688	-0.458
Mof_O 	O 	0.19688	0.69688	0.19688	-0.458
Mof_O 	O 	0.05312	0.69688	0.05312	-0.458
Mof_O 	O 	0.55312	0.05312	0.19688	-0.458
Mof_O 	O 	0.69688	0.55312	0.55312	-0.458
Mof_O 	O 	0.19688	0.19688	0.69688	-0.458
Mof_O 	O 	0.05312	0.05312	0.69688	-0.458
Mof_O 	O 	0.19688	0.55312	0.05312	-0.458
Mof_O 	O 	0.55312	0.69688	0.55312	-0.458
Mof_O 	O 	0.69688	0.19688	0.19688	-0.458
Mof_O 	O 	0.69688	0.69688	0.69688	-0.458
Mof_O 	O 	0.80312	0.94688	0.44688	-0.458
Mof_O 	O 	0.94688	0.30312	0.94688	-0.458
Mof_O 	O 	0.30312	0.80312	0.80312	-0.458
Mof_O 	O 	0.30312	0.30312	0.30312	-0.458
Mof_O 	O 	0.44688	0.44688	0.30312	-0.458
Mof_O 	O 	0.44688	0.30312	0.44688	-0.458
Mof_O 	O 	0.80312	0.80312	0.30312	-0.458
Mof_O 	O 	0.30312	0.94688	0.94688	-0.458
Mof_O 	O 	0.94688	0.44688	0.80312	-0.458
Mof_O 	O 	0.80312	0.30312	0.80312	-0.458
Mof_O 	O 	0.30312	0.44688	0.44688	-0.458
Mof_O 	O 	0.44688	0.80312	0.94688	-0.458
Mof_O 	O 	0.94688	0.94688	0.30312	-0.458
Mof_O 	O 	0.94688	0.80312	0.44688	-0.458
Mof_O 	O 	0.44688	0.94688	0.80312	-0.458
Mof_O 	O 	0.80312	0.44688	0.94688	-0.458
Mof_O 	O 	0.19688	0.05312	0.55312	-0.458
Mof_O 	O 	0.05312	0.55312	0.19688	-0.458
Mof_O 	O 	0.55312	0.19688	0.05312	-0.458
Mof_C 	C 	0.9132	0.0698	0.0698	0.148
Mof_C 	C 	0.9687	0.0732	0.0732	-0.138
Mof_C 	C 	0.9989	0.0778	0.0778	0.399
Mof_C 	C 	0.6274	0.0604	0.0604	0.425
Mof_C 	C 	0.605	0.07042	0.07042	-0.241
Mof_C 	C 	0.9132	0.5698	0.5698	0.148
Mof_C 	C 	0.9687	0.5732	0.5732	-0.138
Mof_C 	C 	0.9989	0.5778	0.5778	0.399
Mof_C 	C 	0.6274	0.5604	0.5604	0.425
Mof_C 	C 	0.605	0.57042	0.57042	-0.241
Mof_C 	C 	0.4132	0.0698	0.5698	0.148
Mof_C 	C 	0.4687	0.0732	0.5732	-0.137
Mof_C 	C 	0.4989	0.0778	0.5778	0.396
Mof_C 	C 	0.1274	0.0604	0.5604	0.425
Mof_C 	C 	0.105	0.07042	0.57042	-0.241
Mof_C 	C 	0.4132	0.5698	0.0698	0.148
Mof_C 	C 	0.4687	0.5732	0.0732	-0.137
Mof_C 	C 	0.4989	0.5778	0.0778	0.396
Mof_C 	C 	0.1274	0.5604	0.0604	0.425
Mof_C 	C 	0.105	0.57042	0.07042	-0.241
Mof_C 	C 	0.8368	0.1802	0.5698	0.148
Mof_C 	C 	0.7813	0.1768	0.5732	-0.137
Mof_C 	C 	0.7511	0.1722	0.5778	0.396
Mof_C 	C 	0.1226	0.1896	0.5604	0.425
Mof_C 	C 	0.145	0.17958	0.57042	-0.241
Mof_C 	C 	0.8368	0.6802	0.0698	0.148
Mof_C 	C 	0.7813	0.6768	0.0732	-0.137
Mof_C 	C 	0.7511	0.6722	0.0778	0.396
Mof_C 	C 	0.1226	0.6896	0.0604	0.425
Mof_C 	C 	0.145	0.67958	0.07042	-0.241
Mof_C 	C 	0.3368	0.5698	0.6802	0.148
Mof_C 	C 	0.2813	0.5732	0.6768	-0.137
Mof_C 	C 	0.2511	0.5778	0.6722	0.396
Mof_C 	C 	0.6226	0.5604	0.6896	0.425
Mof_C 	C 	0.645	0.57042	0.67958	-0.241
Mof_C 	C 	0.3368	0.0698	0.1802	0.148
Mof_C 	C 	0.2813	0.0732	0.1768	-0.137
Mof_C 	C 	0.2511	0.0778	0.1722	0.396
Mof_C 	C 	0.6226	0.0604	0.1896	0.425
Mof_C 	C 	0.645	0.07042	0.17958	-0.241
Mof_C 	C 	0.4132	0.6802	0.1802	0.148
Mof_C 	C 	0.4687	0.6768	0.1768	-0.137
Mof_C 	C 	0.4989	0.6722	0.1722	0.396
Mof_C 	C 	0.1274	0.6896	0.1896	0.425
Mof_C 	C 	0.105	0.67958	0.17958	-0.241
Mof_C 	C 	0.9132	0.6802	0.6802	0.148
Mof_C 	C 	0.9687	0.6768	0.6768	-0.138
Mof_C 	C 	0.9989	0.6722	0.6722	0.399
Mof_C 	C 	0.6274	0.6896	0.6896	0.425
Mof_C 	C 	0.605	0.67958	0.67958	-0.241
Mof_C 	C 	0.9132	0.1802	0.1802	0.148
Mof_C 	C 	0.9687	0.1768	0.1768	-0.138
Mof_C 	C 	0.9989	0.1722	0.1722	0.399
Mof_C 	C 	0.6274	0.1896	0.1896	0.425
Mof_C 	C 	0.605	0.17958	0.17958	-0.241
Mof_C 	C 	0.0698	0.9132	0.0698	0.148
Mof_C 	C 	0.0732	0.9687	0.0732	-0.138
Mof_C 	C 	0.0778	0.9989	0.0778	0.399
Mof_C 	C 	0.0604	0.6274	0.0604	0.425
Mof_C 	C 	0.07042	0.605	0.07042	-0.241
Mof_C 	C 	0.0698	0.4132	0.5698	0.148
Mof_C 	C 	0.0732	0.4687	0.5732	-0.137
Mof_C 	C 	0.0778	0.4989	0.5778	0.396
Mof_C 	C 	0.0604	0.1274	0.5604	0.425
Mof_C 	C 	0.07042	0.105	0.57042	-0.241
Mof_C 	C 	0.5698	0.9132	0.5698	0.148
Mof_C 	C 	0.5732	0.9687	0.5732	-0.138
Mof_C 	C 	0.5778	0.9989	0.5778	0.399
Mof_C 	C 	0.5604	0.6274	0.5604	0.425
Mof_C 	C 	0.57042	0.605	0.57042	-0.241
Mof_C 	C 	0.5698	0.4132	0.0698	0.148
Mof_C 	C 	0.5732	0.4687	0.0732	-0.137
Mof_C 	C 	0.5778	0.4989	0.0778	0.396
Mof_C 	C 	0.5604	0.1274	0.0604	0.425
Mof_C 	C 	0.57042	0.105	0.07042	-0.241
Mof_C 	C 	0.5698	0.8368	0.1802	0.148
Mof_C 	C 	0.5732	0.7813	0.1768	-0.137
Mof_C 	C 	0.5778	0.7511	0.1722	0.396
Mof_C 	C 	0.5604	0.1226	0.1896	0.425
Mof_C 	C 	0.57042	0.145	0.17958	-0.241
Mof_C 	C 	0.0698	0.8368	0.6802	0.148
Mof_C 	C 	0.0732	0.7813	0.6768	-0.137
Mof_C 	C 	0.0778	0.7511	0.6722	0.396
Mof_C 	C 	0.0604	0.1226	0.6896	0.425
Mof_C 	C 	0.07042	0.145	0.67958	-0.241
Mof_C 	C 	0.6802	0.3368	0.5698	0.148
Mof_C 	C 	0.6768	0.2813	0.5732	-0.137
Mof_C 	C 	0.6722	0.2511	0.5778	0.396
Mof_C 	C 	0.6896	0.6226	0.5604	0.425
Mof_C 	C 	0.67958	0.645	0.57042	-0.241
Mof_C 	C 	0.6802	0.8368	0.0698	0.148
Mof_C 	C 	0.6768	0.7813	0.0732	-0.137
Mof_C 	C 	0.6722	0.7511	0.0778	0.396
Mof_C 	C 	0.6896	0.1226	0.0604	0.425
Mof_C 	C 	0.67958	0.145	0.07042	-0.241
Mof_C 	C 	0.1802	0.4132	0.6802	0.148
Mof_C 	C 	0.1768	0.4687	0.6768	-0.137
Mof_C 	C 	0.1722	0.4989	0.6722	0.396
Mof_C 	C 	0.1896	0.1274	0.6896	0.425
Mof_C 	C 	0.17958	0.105	0.67958	-0.241
Mof_C 	C 	0.1802	0.9132	0.1802	0.148
Mof_C 	C 	0.1768	0.9687	0.1768	-0.138
Mof_C 	C 	0.1722	0.9989	0.1722	0.399
Mof_C 	C 	0.1896	0.6274	0.1896	0.425
Mof_C 	C 	0.17958	0.605	0.17958	-0.241
Mof_C 	C 	0.0698	0.0698	0.9132	0.148
Mof_C 	C 	0.0732	0.0732	0.9687	-0.138
Mof_C 	C 	0.0778	0.0778	0.9989	0.399
Mof_C 	C 	0.0604	0.0604	0.6274	0.425
Mof_C 	C 	0.07042	0.07042	0.605	-0.241
Mof_C 	C 	0.0698	0.5698	0.4132	0.148
Mof_C 	C 	0.0732	0.5732	0.4687	-0.137
Mof_C 	C 	0.0778	0.5778	0.4989	0.396
Mof_C 	C 	0.0604	0.5604	0.1274	0.425
Mof_C 	C 	0.07042	0.57042	0.105	-0.241
Mof_C 	C 	0.5698	0.0698	0.4132	0.148
Mof_C 	C 	0.5732	0.0732	0.4687	-0.137
Mof_C 	C 	0.5778	0.0778	0.4989	0.396
Mof_C 	C 	0.5604	0.0604	0.1274	0.425
Mof_C 	C 	0.57042	0.07042	0.105	-0.241
Mof_C 	C 	0.5698	0.5698	0.9132	0.148
Mof_C 	C 	0.5732	0.5732	0.9687	-0.138
Mof_C 	C 	0.5778	0.5778	0.9989	0.399
Mof_C 	C 	0.5604	0.5604	0.6274	0.425
Mof_C 	C 	0.57042	0.57042	0.605	-0.241
Mof_C 	C 	0.1802	0.5698	0.8368	0.148
Mof_C 	C 	0.1768	0.5732	0.7813	-0.137
Mof_C 	C 	0.1722	0.5778	0.7511	0.396
Mof_C 	C 	0.1896	0.5604	0.1226	0.425
Mof_C 	C 	0.17958	0.57042	0.145	-0.241
Mof_C 	C 	0.1802	0.0698	0.3368	0.148
Mof_C 	C 	0.1768	0.0732	0.2813	-0.137
Mof_C 	C 	0.1722	0.0778	0.2511	0.396
Mof_C 	C 	0.1896	0.0604	0.6226	0.425
Mof_C 	C 	0.17958	0.07042	0.645	-0.241
Mof_C 	C 	0.5698	0.6802	0.3368	0.148
Mof_C 	C 	0.5732	0.6768	0.2813	-0.137
Mof_C 	C 	0.5778	0.6722	0.2511	0.396
Mof_C 	C 	0.5604	0.6896	0.6226	0.425
Mof_C 	C 	0.57042	0.67958	0.645	-0.241
Mof_C 	C 	0.0698	0.6802	0.8368	0.148
Mof_C 	C 	0.0732	0.6768	0.7813	-0.137
Mof_C 	C 	0.0778	0.6722	0.7511	0.396
Mof_C 	C 	0.0604	0.6896	0.1226	0.425
Mof_C 	C 	0.07042	0.67958	0.145	-0.241
Mof_C 	C 	0.6802	0.1802	0.4132	0.148
Mof_C 	C 	0.6768	0.1768	0.4687	-0.137
Mof_C 	C 	0.6722	0.1722	0.4989	0.396
Mof_C 	C 	0.6896	0.1896	0.1274	0.425
Mof_C 	C 	0.67958	0.17958	0.105	-0.241
Mof_C 	C 	0.6802	0.6802	0.9132	0.148
Mof_C 	C 	0.6768	0.6768	0.9687	-0.138
Mof_C 	C 	0.6722	0.6722	0.9989	0.399
Mof_C 	C 	0.6896	0.6896	0.6274	0.425
Mof_C 	C 	0.67958	0.67958	0.605	-0.241
Mof_C 	C 	0.1802	0.1802	0.9132	0.148
Mof_C 	C 	0.1768	0.1768	0.9687	-0.138
Mof_C 	C 	0.1722	0.1722	0.9989	0.399
Mof_C 	C 	0.1896	0.1896	0.6274	0.425
Mof_C 	C 	0.17958	0.17958	0.605	-0.241
Mof_C 	C 	0.8198	0.1632	0.4302	0.148
Mof_C 	C 	0.8232	0.2187	0.4268	-0.137
Mof_C 	C 	0.8278	0.2489	0.4222	0.396
Mof_C 	C 	0.8104	0.8774	0.4396	0.425
Mof_C 	C 	0.82042	0.855	0.42958	-0.241
Mof_C 	C 	0.8198	0.6632	0.9302	0.148
Mof_C 	C 	0.8232	0.7187	0.9268	-0.137
Mof_C 	C 	0.8278	0.7489	0.9222	0.396
Mof_C 	C 	0.8104	0.3774	0.9396	0.425
Mof_C 	C 	0.82042	0.355	0.92958	-0.241
Mof_C 	C 	0.9302	0.0868	0.9302	0.148
Mof_C 	C 	0.9268	0.0313	0.9268	-0.136
Mof_C 	C 	0.9222	0.0011	0.9222	0.392
Mof_C 	C 	0.9396	0.3726	0.9396	0.425
Mof_C 	C 	0.92958	0.395	0.92958	-0.24
Mof_C 	C 	0.9302	0.5868	0.4302	0.148
Mof_C 	C 	0.9268	0.5313	0.4268	-0.137
Mof_C 	C 	0.9222	0.5011	0.4222	0.396
Mof_C 	C 	0.9396	0.8726	0.4396	0.425
Mof_C 	C 	0.92958	0.895	0.42958	-0.241
Mof_C 	C 	0.4302	0.0868	0.4302	0.148
Mof_C 	C 	0.4268	0.0313	0.4268	-0.137
Mof_C 	C 	0.4222	0.0011	0.4222	0.392
Mof_C 	C 	0.4396	0.3726	0.4396	0.425
Mof_C 	C 	0.42958	0.395	0.42958	-0.241
Mof_C 	C 	0.4302	0.5868	0.9302	0.148
Mof_C 	C 	0.4268	0.5313	0.9268	-0.137
Mof_C 	C 	0.4222	0.5011	0.9222	0.396
Mof_C 	C 	0.4396	0.8726	0.9396	0.425
Mof_C 	C 	0.42958	0.895	0.92958	-0.241
Mof_C 	C 	0.3198	0.5868	0.8198	0.148
Mof_C 	C 	0.3232	0.5313	0.8232	-0.137
Mof_C 	C 	0.3278	0.5011	0.8278	0.396
Mof_C 	C 	0.3104	0.8726	0.8104	0.425
Mof_C 	C 	0.32042	0.895	0.82042	-0.241
Mof_C 	C 	0.3198	0.0868	0.3198	0.148
Mof_C 	C 	0.3232	0.0313	0.3232	-0.137
Mof_C 	C 	0.3278	0.0011	0.3278	0.392
Mof_C 	C 	0.3104	0.3726	0.3104	0.425
Mof_C 	C 	0.32042	0.395	0.32042	-0.241
Mof_C 	C 	0.4302	0.6632	0.3198	0.148
Mof_C 	C 	0.4268	0.7187	0.3232	-0.137
Mof_C 	C 	0.4222	0.7489	0.3278	0.396
Mof_C 	C 	0.4396	0.3774	0.3104	0.425
Mof_C 	C 	0.42958	0.355	0.32042	-0.241
Mof_C 	C 	0.9302	0.6632	0.8198	0.148
Mof_C 	C 	0.9268	0.7187	0.8232	-0.137
Mof_C 	C 	0.9222	0.7489	0.8278	0.396
Mof_C 	C 	0.9396	0.3774	0.8104	0.425
Mof_C 	C 	0.92958	0.355	0.82042	-0.241
Mof_C 	C 	0.6632	0.3198	0.4302	0.148
Mof_C 	C 	0.7187	0.3232	0.4268	-0.137
Mof_C 	C 	0.7489	0.3278	0.4222	0.396
Mof_C 	C 	0.3774	0.3104	0.4396	0.425
Mof_C 	C 	0.355	0.32042	0.42958	-0.241
Mof_C 	C 	0.6632	0.8198	0.9302	0.148
Mof_C 	C 	0.7187	0.8232	0.9268	-0.137
Mof_C 	C 	0.7489	0.8278	0.9222	0.396
Mof_C 	C 	0.3774	0.8104	0.9396	0.425
Mof_C 	C 	0.355	0.82042	0.92958	-0.241
Mof_C 	C 	0.5868	0.8198	0.3198	0.148
Mof_C 	C 	0.5313	0.8232	0.3232	-0.137
Mof_C 	C 	0.5011	0.8278	0.3278	0.396
Mof_C 	C 	0.8726	0.8104	0.3104	0.425
Mof_C 	C 	0.895	0.82042	0.32042	-0.241
Mof_C 	C 	0.0868	0.8198	0.8198	0.148
Mof_C 	C 	0.0313	0.8232	0.8232	-0.137
Mof_C 	C 	0.0011	0.8278	0.8278	0.392
Mof_C 	C 	0.3726	0.8104	0.8104	0.425
Mof_C 	C 	0.395	0.82042	0.82042	-0.241
Mof_C 	C 	0.0868	0.3198	0.3198	0.148
Mof_C 	C 	0.0313	0.3232	0.3232	-0.137
Mof_C 	C 	0.0011	0.3278	0.3278	0.392
Mof_C 	C 	0.3726	0.3104	0.3104	0.425
Mof_C 	C 	0.395	0.32042	0.32042	-0.241
Mof_C 	C 	0.0868	0.9302	0.9302	0.148
Mof_C 	C 	0.0313	0.9268	0.9268	-0.136
Mof_C 	C 	0.0011	0.9222	0.9222	0.392
Mof_C 	C 	0.3726	0.9396	0.9396	0.425
Mof_C 	C 	0.395	0.92958	0.92958	-0.24
Mof_C 	C 	0.0868	0.4302	0.4302	0.148
Mof_C 	C 	0.0313	0.4268	0.4268	-0.137
Mof_C 	C 	0.0011	0.4222	0.4222	0.392
Mof_C 	C 	0.3726	0.4396	0.4396	0.425
Mof_C 	C 	0.395	0.42958	0.42958	-0.241
Mof_C 	C 	0.5868	0.9302	0.4302	0.148
Mof_C 	C 	0.5313	0.9268	0.4268	-0.137
Mof_C 	C 	0.5011	0.9222	0.4222	0.396
Mof_C 	C 	0.8726	0.9396	0.4396	0.425
Mof_C 	C 	0.895	0.92958	0.42958	-0.241
Mof_C 	C 	0.5868	0.4302	0.9302	0.148
Mof_C 	C 	0.5313	0.4268	0.9268	-0.137
Mof_C 	C 	0.5011	0.4222	0.9222	0.396
Mof_C 	C 	0.8726	0.4396	0.9396	0.425
Mof_C 	C 	0.895	0.42958	0.92958	-0.241
Mof_C 	C 	0.1632	0.4302	0.8198	0.148
Mof_C 	C 	0.2187	0.4268	0.8232	-0.137
Mof_C 	C 	0.2489	0.4222	0.8278	0.396
Mof_C 	C 	0.8774	0.4396	0.8104	0.425
Mof_C 	C 	0.855	0.42958	0.82042	-0.241
Mof_C 	C 	0.1632	0.9302	0.3198	0.148
Mof_C 	C 	0.2187	0.9268	0.3232	-0.137
Mof_C 	C 	0.2489	0.9222	0.3278	0.396
Mof_C 	C 	0.8774	0.9396	0.3104	0.425
Mof_C 	C 	0.855	0.92958	0.32042	-0.241
Mof_C 	C 	0.8198	0.3198	0.5868	0.148
Mof_C 	C 	0.8232	0.3232	0.5313	-0.137
Mof_C 	C 	0.8278	0.3278	0.5011	0.396
Mof_C 	C 	0.8104	0.3104	0.8726	0.425
Mof_C 	C 	0.82042	0.32042	0.895	-0.241
Mof_C 	C 	0.8198	0.8198	0.0868	0.148
Mof_C 	C 	0.8232	0.8232	0.0313	-0.137
Mof_C 	C 	0.8278	0.8278	0.0011	0.392
Mof_C 	C 	0.8104	0.8104	0.3726	0.425
Mof_C 	C 	0.82042	0.82042	0.395	-0.241
Mof_C 	C 	0.3198	0.3198	0.0868	0.148
Mof_C 	C 	0.3232	0.3232	0.0313	-0.137
Mof_C 	C 	0.3278	0.3278	0.0011	0.392
Mof_C 	C 	0.3104	0.3104	0.3726	0.425
Mof_C 	C 	0.32042	0.32042	0.395	-0.241
Mof_C 	C 	0.3198	0.4302	0.6632	0.148
Mof_C 	C 	0.3232	0.4268	0.7187	-0.137
Mof_C 	C 	0.3278	0.4222	0.7489	0.396
Mof_C 	C 	0.3104	0.4396	0.3774	0.425
Mof_C 	C 	0.32042	0.42958	0.355	-0.241
Mof_C 	C 	0.3198	0.9302	0.1632	0.148
Mof_C 	C 	0.3232	0.9268	0.2187	-0.137
Mof_C 	C 	0.3278	0.9222	0.2489	0.396
Mof_C 	C 	0.3104	0.9396	0.8774	0.425
Mof_C 	C 	0.32042	0.92958	0.855	-0.241
Mof_C 	C 	0.4302	0.8198	0.1632	0.148
Mof_C 	C 	0.4268	0.8232	0.2187	-0.137
Mof_C 	C 	0.4222	0.8278	0.2489	0.396
Mof_C 	C 	0.4396	0.8104	0.8774	0.425
Mof_C 	C 	0.42958	0.82042	0.855	-0.241
Mof_C 	C 	0.9302	0.8198	0.6632	0.148
Mof_C 	C 	0.9268	0.8232	0.7187	-0.137
Mof_C 	C 	0.9222	0.8278	0.7489	0.396
Mof_C 	C 	0.9396	0.8104	0.3774	0.425
Mof_C 	C 	0.92958	0.82042	0.355	-0.241
Mof_C 	C 	0.9302	0.9302	0.0868	0.148
Mof_C 	C 	0.9268	0.9268	0.0313	-0.136
Mof_C 	C 	0.9222	0.9222	0.0011	0.392
Mof_C 	C 	0.9396	0.9396	0.3726	0.425
Mof_C 	C 	0.92958	0.92958	0.395	-0.24
Mof_C 	C 	0.9302	0.4302	0.5868	0.148
Mof_C 	C 	0.9268	0.4268	0.5313	-0.137
Mof_C 	C 	0.9222	0.4222	0.5011	0.396
Mof_C 	C 	0.9396	0.4396	0.8726	0.425
Mof_C 	C 	0.92958	0.42958	0.895	-0.241
Mof_C 	C 	0.4302	0.9302	0.5868	0.148
Mof_C 	C 	0.4268	0.9268	0.5313	-0.137
Mof_C 	C 	0.4222	0.9222	0.5011	0.396
Mof_C 	C 	0.4396	0.9396	0.8726	0.425
Mof_C 	C 	0.42958	0.92958	0.895	-0.241
Mof_C 	C 	0.4302	0.4302	0.0868	0.148
Mof_C 	C 	0.4268	0.4268	0.0313	-0.137
Mof_C 	C 	0.4222	0.4222	0.0011	0.392
Mof_C 	C 	0.4396	0.4396	0.3726	0.425
Mof_C 	C 	0.42958	0.42958	0.395	-0.241
Mof_C 	C 	0.1632	0.8198	0.4302	0.148
Mof_C 	C 	0.2187	0.8232	0.4268	-0.137
Mof_C 	C 	0.2489	0.8278	0.4222	0.396
Mof_C 	C 	0.8774	0.8104	0.4396	0.425
Mof_C 	C 	0.855	0.82042	0.42958	-0.241
Mof_C 	C 	0.1632	0.3198	0.9302	0.148
Mof_C 	C 	0.2187	0.3232	0.9268	-0.137
Mof_C 	C 	0.2489	0.3278	0.9222	0.396
Mof_C 	C 	0.8774	0.3104	0.9396	0.425
Mof_C 	C 	0.855	0.32042	0.92958	-0.241
Mof_C 	C 	0.6632	0.4302	0.3198	0.148
Mof_C 	C 	0.7187	0.4268	0.3232	-0.137
Mof_C 	C 	0.7489	0.4222	0.3278	0.396
Mof_C 	C 	0.3774	0.4396	0.3104	0.425
Mof_C 	C 	0.355	0.42958	0.32042	-0.241
Mof_C 	C 	0.6632	0.9302	0.8198	0.148
Mof_C 	C 	0.7187	0.9268	0.8232	-0.137
Mof_C 	C 	0.7489	0.9222	0.8278	0.396
Mof_C 	C 	0.3774	0.9396	0.8104	0.425
Mof_C 	C 	0.355	0.92958	0.82042	-0.241
Mof_C 	C 	0.5868	0.3198	0.8198	0.148
Mof_C 	C 	0.5313	0.3232	0.8232	-0.137
Mof_C 	C 	0.5011	0.3278	0.8278	0.396
Mof_C 	C 	0.8726	0.3104	0.8104	0.425
Mof_C 	C 	0.895	0.32042	0.82042	-0.241
Mof_C 	C 	0.4302	0.1632	0.8198	0.148
Mof_C 	C 	0.4268	0.2187	0.8232	-0.137
Mof_C 	C 	0.4222	0.2489	0.8278	0.396
Mof_C 	C 	0.4396	0.8774	0.8104	0.425
Mof_C 	C 	0.42958	0.855	0.82042	-0.241
Mof_C 	C 	0.9302	0.1632	0.3198	0.148
Mof_C 	C 	0.9268	0.2187	0.3232	-0.137
Mof_C 	C 	0.9222	0.2489	0.3278	0.396
Mof_C 	C 	0.9396	0.8774	0.3104	0.425
Mof_C 	C 	0.92958	0.855	0.32042	-0.241
Mof_C 	C 	0.3198	0.6632	0.4302	0.148
Mof_C 	C 	0.3232	0.7187	0.4268	-0.137
Mof_C 	C 	0.3278	0.7489	0.4222	0.396
Mof_C 	C 	0.3104	0.3774	0.4396	0.425
Mof_C 	C 	0.32042	0.355	0.42958	-0.241
Mof_C 	C 	0.3198	0.1632	0.9302	0.148
Mof_C 	C 	0.3232	0.2187	0.9268	-0.137
Mof_C 	C 	0.3278	0.2489	0.9222	0.396
Mof_C 	C 	0.3104	0.8774	0.9396	0.425
Mof_C 	C 	0.32042	0.855	0.92958	-0.241
Mof_C 	C 	0.8198	0.5868	0.3198	0.148
Mof_C 	C 	0.8232	0.5313	0.3232	-0.137
Mof_C 	C 	0.8278	0.5011	0.3278	0.396
Mof_C 	C 	0.8104	0.8726	0.3104	0.425
Mof_C 	C 	0.82042	0.895	0.32042	-0.241
Mof_C 	C 	0.8198	0.0868	0.8198	0.148
Mof_C 	C 	0.8232	0.0313	0.8232	-0.137
Mof_C 	C 	0.8278	0.0011	0.8278	0.392
Mof_C 	C 	0.8104	0.3726	0.8104	0.425
Mof_C 	C 	0.82042	0.395	0.82042	-0.241
Mof_C 	C 	0.8198	0.4302	0.1632	0.148
Mof_C 	C 	0.8232	0.4268	0.2187	-0.137
Mof_C 	C 	0.8278	0.4222	0.2489	0.396
Mof_C 	C 	0.8104	0.4396	0.8774	0.425
Mof_C 	C 	0.82042	0.42958	0.855	-0.241
Mof_C 	C 	0.8198	0.9302	0.6632	0.148
Mof_C 	C 	0.8232	0.9268	0.7187	-0.137
Mof_C 	C 	0.8278	0.9222	0.7489	0.396
Mof_C 	C 	0.8104	0.9396	0.3774	0.425
Mof_C 	C 	0.82042	0.92958	0.355	-0.241
Mof_C 	C 	0.4302	0.3198	0.6632	0.148
Mof_C 	C 	0.4268	0.3232	0.7187	-0.137
Mof_C 	C 	0.4222	0.3278	0.7489	0.396
Mof_C 	C 	0.4396	0.3104	0.3774	0.425
Mof_C 	C 	0.42958	0.32042	0.355	-0.241
Mof_C 	C 	0.9302	0.3198	0.1632	0.148
Mof_C 	C 	0.9268	0.3232	0.2187	-0.137
Mof_C 	C 	0.9222	0.3278	0.2489	0.396
Mof_C 	C 	0.9396	0.3104	0.8774	0.425
Mof_C 	C 	0.92958	0.32042	0.855	-0.241
Mof_C 	C 	0.3198	0.8198	0.5868	0.148
Mof_C 	C 	0.3232	0.8232	0.5313	-0.137
Mof_C 	C 	0.3278	0.8278	0.5011	0.396
Mof_C 	C 	0.3104	0.8104	0.8726	0.425
Mof_C 	C 	0.32042	0.82042	0.895	-0.241
Mof_C 	C 	0.1802	0.8368	0.5698	0.148
Mof_C 	C 	0.1768	0.7813	0.5732	-0.137
Mof_C 	C 	0.1722	0.7511	0.5778	0.396
Mof_C 	C 	0.1896	0.1226	0.5604	0.425
Mof_C 	C 	0.17958	0.145	0.57042	-0.241
Mof_C 	C 	0.1802	0.3368	0.0698	0.148
Mof_C 	C 	0.1768	0.2813	0.0732	-0.137
Mof_C 	C 	0.1722	0.2511	0.0778	0.396
Mof_C 	C 	0.1896	0.6226	0.0604	0.425
Mof_C 	C 	0.17958	0.645	0.07042	-0.241
Mof_C 	C 	0.6802	0.4132	0.1802	0.148
Mof_C 	C 	0.6768	0.4687	0.1768	-0.137
Mof_C 	C 	0.6722	0.4989	0.1722	0.396
Mof_C 	C 	0.6896	0.1274	0.1896	0.425
Mof_C 	C 	0.67958	0.105	0.17958	-0.241
Mof_C 	C 	0.6802	0.9132	0.6802	0.148
Mof_C 	C 	0.6768	0.9687	0.6768	-0.138
Mof_C 	C 	0.6722	0.9989	0.6722	0.399
Mof_C 	C 	0.6896	0.6274	0.6896	0.425
Mof_C 	C 	0.67958	0.605	0.67958	-0.241
Mof_C 	C 	0.5698	0.3368	0.6802	0.148
Mof_C 	C 	0.5732	0.2813	0.6768	-0.137
Mof_C 	C 	0.5778	0.2511	0.6722	0.396
Mof_C 	C 	0.5604	0.6226	0.6896	0.425
Mof_C 	C 	0.57042	0.645	0.67958	-0.241
Mof_C 	C 	0.0698	0.3368	0.1802	0.148
Mof_C 	C 	0.0732	0.2813	0.1768	-0.137
Mof_C 	C 	0.0778	0.2511	0.1722	0.396
Mof_C 	C 	0.0604	0.6226	0.1896	0.425
Mof_C 	C 	0.07042	0.645	0.17958	-0.241
Mof_C 	C 	0.3368	0.6802	0.5698	0.148
Mof_C 	C 	0.2813	0.6768	0.5732	-0.137
Mof_C 	C 	0.2511	0.6722	0.5778	0.396
Mof_C 	C 	0.6226	0.6896	0.5604	0.425
Mof_C 	C 	0.645	0.67958	0.57042	-0.241
Mof_C 	C 	0.3368	0.1802	0.0698	0.148
Mof_C 	C 	0.2813	0.1768	0.0732	-0.137
Mof_C 	C 	0.2511	0.1722	0.0778	0.396
Mof_C 	C 	0.6226	0.1896	0.0604	0.425
Mof_C 	C 	0.645	0.17958	0.07042	-0.241
Mof_C 	C 	0.4132	0.1802	0.6802	0.148
Mof_C 	C 	0.4687	0.1768	0.6768	-0.137
Mof_C 	C 	0.4989	0.1722	0.6722	0.396
Mof_C 	C 	0.1274	0.1896	0.6896	0.425
Mof_C 	C 	0.105	0.17958	0.67958	-0.241
Mof_C 	C 	0.8368	0.5698	0.1802	0.148
Mof_C 	C 	0.7813	0.5732	0.1768	-0.137
Mof_C 	C 	0.7511	0.5778	0.1722	0.396
Mof_C 	C 	0.1226	0.5604	0.1896	0.425
Mof_C 	C 	0.145	0.57042	0.17958	-0.241
Mof_C 	C 	0.8368	0.0698	0.6802	0.148
Mof_C 	C 	0.7813	0.0732	0.6768	-0.137
Mof_C 	C 	0.7511	0.0778	0.6722	0.396
Mof_C 	C 	0.1226	0.0604	0.6896	0.425
Mof_C 	C 	0.145	0.07042	0.67958	-0.241
Mof_C 	C 	0.1802	0.6802	0.4132	0.148
Mof_C 	C 	0.1768	0.6768	0.4687	-0.137
Mof_C 	C 	0.1722	0.6722	0.4989	0.396
Mof_C 	C 	0.1896	0.6896	0.1274	0.425
Mof_C 	C 	0.17958	0.67958	0.105	-0.241
Mof_C 	C 	0.6802	0.5698	0.3368	0.148
Mof_C 	C 	0.6768	0.5732	0.2813	-0.137
Mof_C 	C 	0.6722	0.5778	0.2511	0.396
Mof_C 	C 	0.6896	0.5604	0.6226	0.425
Mof_C 	C 	0.67958	0.57042	0.645	-0.241
Mof_C 	C 	0.6802	0.0698	0.8368	0.148
Mof_C 	C 	0.6768	0.0732	0.7813	-0.137
Mof_C 	C 	0.6722	0.0778	0.7511	0.396
Mof_C 	C 	0.6896	0.0604	0.1226	0.425
Mof_C 	C 	0.67958	0.07042	0.145	-0.241
Mof_C 	C 	0.5698	0.1802	0.8368	0.148
Mof_C 	C 	0.5732	0.1768	0.7813	-0.137
Mof_C 	C 	0.5778	0.1722	0.7511	0.396
Mof_C 	C 	0.5604	0.1896	0.1226	0.425
Mof_C 	C 	0.57042	0.17958	0.145	-0.241
Mof_C 	C 	0.0698	0.1802	0.3368	0.148
Mof_C 	C 	0.0732	0.1768	0.2813	-0.137
Mof_C 	C 	0.0778	0.1722	0.2511	0.396
Mof_C 	C 	0.0604	0.1896	0.6226	0.425
Mof_C 	C 	0.07042	0.17958	0.645	-0.241
Mof_C 	C 	0.7927	0.1176	0.9573	0.109
Mof_C 	C 	0.7572	0.0934	0.9928	-0.155
Mof_C 	C 	0.7381	0.0824	0.0119	0.411
Mof_C 	C 	0.2927	0.1176	0.4573	0.109
Mof_C 	C 	0.2572	0.0934	0.4928	-0.159
Mof_C 	C 	0.2381	0.0824	0.5119	0.413
Mof_C 	C 	0.9573	0.1324	0.4573	0.109
Mof_C 	C 	0.9928	0.1566	0.4928	-0.155
Mof_C 	C 	0.0119	0.1676	0.5119	0.411
Mof_C 	C 	0.9573	0.6324	0.9573	0.108
Mof_C 	C 	0.9928	0.6566	0.9928	-0.151
Mof_C 	C 	0.0119	0.6676	0.0119	0.409
Mof_C 	C 	0.4573	0.6176	0.7927	0.109
Mof_C 	C 	0.4928	0.5934	0.7572	-0.159
Mof_C 	C 	0.5119	0.5824	0.7381	0.413
Mof_C 	C 	0.4573	0.1176	0.2927	0.109
Mof_C 	C 	0.4928	0.0934	0.2572	-0.159
Mof_C 	C 	0.5119	0.0824	0.2381	0.413
Mof_C 	C 	0.2927	0.6324	0.2927	0.109
Mof_C 	C 	0.2572	0.6566	0.2572	-0.159
Mof_C 	C 	0.2381	0.6676	0.2381	0.413
Mof_C 	C 	0.2927	0.1324	0.7927	0.109
Mof_C 	C 	0.2572	0.1566	0.7572	-0.159
Mof_C 	C 	0.2381	0.1676	0.7381	0.413
Mof_C 	C 	0.7927	0.6324	0.7927	0.109
Mof_C 	C 	0.7572	0.6566	0.7572	-0.159
Mof_C 	C 	0.7381	0.6676	0.7381	0.413
Mof_C 	C 	0.7927	0.1324	0.2927	0.109
Mof_C 	C 	0.7572	0.1566	0.2572	-0.159
Mof_C 	C 	0.7381	0.1676	0.2381	0.413
Mof_C 	C 	0.9573	0.7927	0.1176	0.109
Mof_C 	C 	0.9928	0.7572	0.0934	-0.155
Mof_C 	C 	0.0119	0.7381	0.0824	0.411
Mof_C 	C 	0.9573	0.2927	0.6176	0.109
Mof_C 	C 	0.9928	0.2572	0.5934	-0.155
Mof_C 	C 	0.0119	0.2381	0.5824	0.411
Mof_C 	C 	0.4573	0.9573	0.1324	0.109
Mof_C 	C 	0.4928	0.9928	0.1566	-0.155
Mof_C 	C 	0.5119	0.0119	0.1676	0.411
Mof_C 	C 	0.4573	0.4573	0.6324	0.109
Mof_C 	C 	0.4928	0.4928	0.6566	-0.159
Mof_C 	C 	0.5119	0.5119	0.6676	0.413
Mof_C 	C 	0.9573	0.9573	0.6324	0.108
Mof_C 	C 	0.9928	0.9928	0.6566	-0.151
Mof_C 	C 	0.0119	0.0119	0.6676	0.409
Mof_C 	C 	0.7927	0.4573	0.6176	0.109
Mof_C 	C 	0.7572	0.4928	0.5934	-0.159
Mof_C 	C 	0.7381	0.5119	0.5824	0.413
Mof_C 	C 	0.2927	0.4573	0.1176	0.109
Mof_C 	C 	0.2572	0.4928	0.0934	-0.159
Mof_C 	C 	0.2381	0.5119	0.0824	0.413
Mof_C 	C 	0.2927	0.2927	0.6324	0.109
Mof_C 	C 	0.2572	0.2572	0.6566	-0.159
Mof_C 	C 	0.2381	0.2381	0.6676	0.413
Mof_C 	C 	0.2927	0.7927	0.1324	0.109
Mof_C 	C 	0.2572	0.7572	0.1566	-0.159
Mof_C 	C 	0.2381	0.7381	0.1676	0.413
Mof_C 	C 	0.7927	0.2927	0.1324	0.109
Mof_C 	C 	0.7572	0.2572	0.1566	-0.159
Mof_C 	C 	0.7381	0.2381	0.1676	0.413
Mof_C 	C 	0.7927	0.7927	0.6324	0.109
Mof_C 	C 	0.7572	0.7572	0.6566	-0.159
Mof_C 	C 	0.7381	0.7381	0.6676	0.413
Mof_C 	C 	0.1176	0.9573	0.7927	0.109
Mof_C 	C 	0.0934	0.9928	0.7572	-0.155
Mof_C 	C 	0.0824	0.0119	0.7381	0.411
Mof_C 	C 	0.1176	0.4573	0.2927	0.109
Mof_C 	C 	0.0934	0.4928	0.2572	-0.159
Mof_C 	C 	0.0824	0.5119	0.2381	0.413
Mof_C 	C 	0.1324	0.4573	0.9573	0.109
Mof_C 	C 	0.1566	0.4928	0.9928	-0.155
Mof_C 	C 	0.1676	0.5119	0.0119	0.411
Mof_C 	C 	0.6324	0.4573	0.4573	0.109
Mof_C 	C 	0.6566	0.4928	0.4928	-0.159
Mof_C 	C 	0.6676	0.5119	0.5119	0.413
Mof_C 	C 	0.6324	0.9573	0.9573	0.108
Mof_C 	C 	0.6566	0.9928	0.9928	-0.151
Mof_C 	C 	0.6676	0.0119	0.0119	0.409
Mof_C 	C 	0.6176	0.7927	0.4573	0.109
Mof_C 	C 	0.5934	0.7572	0.4928	-0.159
Mof_C 	C 	0.5824	0.7381	0.5119	0.413
Mof_C 	C 	0.6176	0.2927	0.9573	0.109
Mof_C 	C 	0.5934	0.2572	0.9928	-0.155
Mof_C 	C 	0.5824	0.2381	0.0119	0.411
Mof_C 	C 	0.6324	0.2927	0.2927	0.109
Mof_C 	C 	0.6566	0.2572	0.2572	-0.159
Mof_C 	C 	0.6676	0.2381	0.2381	0.413
Mof_C 	C 	0.6324	0.7927	0.7927	0.109
Mof_C 	C 	0.6566	0.7572	0.7572	-0.159
Mof_C 	C 	0.6676	0.7381	0.7381	0.413
Mof_C 	C 	0.1324	0.2927	0.7927	0.109
Mof_C 	C 	0.1566	0.2572	0.7572	-0.159
Mof_C 	C 	0.1676	0.2381	0.7381	0.413
Mof_C 	C 	0.1324	0.7927	0.2927	0.109
Mof_C 	C 	0.1566	0.7572	0.2572	-0.159
Mof_C 	C 	0.1676	0.7381	0.2381	0.413
Mof_C 	C 	0.8676	0.0427	0.5427	0.11
Mof_C 	C 	0.8434	0.0072	0.5072	-0.163
Mof_C 	C 	0.8324	0.9881	0.4881	0.415
Mof_C 	C 	0.3676	0.0427	0.0427	0.111
Mof_C 	C 	0.3434	0.0072	0.0072	-0.167
Mof_C 	C 	0.3324	0.9881	0.9881	0.418
Mof_C 	C 	0.3676	0.5427	0.5427	0.109
Mof_C 	C 	0.3434	0.5072	0.5072	-0.159
Mof_C 	C 	0.3324	0.4881	0.4881	0.413
Mof_C 	C 	0.8824	0.2073	0.0427	0.11
Mof_C 	C 	0.9066	0.2428	0.0072	-0.163
Mof_C 	C 	0.9176	0.2619	0.9881	0.415
Mof_C 	C 	0.8824	0.7073	0.5427	0.109
Mof_C 	C 	0.9066	0.7428	0.5072	-0.159
Mof_C 	C 	0.9176	0.7619	0.4881	0.413
Mof_C 	C 	0.3824	0.2073	0.5427	0.109
Mof_C 	C 	0.4066	0.2428	0.5072	-0.159
Mof_C 	C 	0.4176	0.2619	0.4881	0.413
Mof_C 	C 	0.3676	0.7073	0.7073	0.109
Mof_C 	C 	0.3434	0.7428	0.7428	-0.159
Mof_C 	C 	0.3324	0.7619	0.7619	0.413
Mof_C 	C 	0.3676	0.2073	0.2073	0.109
Mof_C 	C 	0.3434	0.2428	0.2428	-0.159
Mof_C 	C 	0.3324	0.2619	0.2619	0.413
Mof_C 	C 	0.8676	0.7073	0.2073	0.109
Mof_C 	C 	0.8434	0.7428	0.2428	-0.159
Mof_C 	C 	0.8324	0.7619	0.2619	0.413
Mof_C 	C 	0.8676	0.2073	0.7073	0.109
Mof_C 	C 	0.8434	0.2428	0.7428	-0.159
Mof_C 	C 	0.8324	0.2619	0.7619	0.413
Mof_C 	C 	0.3824	0.5427	0.2073	0.109
Mof_C 	C 	0.4066	0.5072	0.2428	-0.159
Mof_C 	C 	0.4176	0.4881	0.2619	0.413
Mof_C 	C 	0.3824	0.0427	0.7073	0.11
Mof_C 	C 	0.4066	0.0072	0.7428	-0.163
Mof_C 	C 	0.4176	0.9881	0.7619	0.415
Mof_C 	C 	0.5427	0.2073	0.3824	0.109
Mof_C 	C 	0.5072	0.2428	0.4066	-0.159
Mof_C 	C 	0.4881	0.2619	0.4176	0.413
Mof_C 	C 	0.5427	0.7073	0.8824	0.109
Mof_C 	C 	0.5072	0.7428	0.9066	-0.159
Mof_C 	C 	0.4881	0.7619	0.9176	0.413
Mof_C 	C 	0.7073	0.7073	0.3676	0.109
Mof_C 	C 	0.7428	0.7428	0.3434	-0.159
Mof_C 	C 	0.7619	0.7619	0.3324	0.413
Mof_C 	C 	0.7073	0.2073	0.8676	0.109
Mof_C 	C 	0.7428	0.2428	0.8434	-0.159
Mof_C 	C 	0.7619	0.2619	0.8324	0.413
Mof_C 	C 	0.2073	0.7073	0.8676	0.109
Mof_C 	C 	0.2428	0.7428	0.8434	-0.159
Mof_C 	C 	0.2619	0.7619	0.8324	0.413
Mof_C 	C 	0.2073	0.2073	0.3676	0.109
Mof_C 	C 	0.2428	0.2428	0.3434	-0.159
Mof_C 	C 	0.2619	0.2619	0.3324	0.413
Mof_C 	C 	0.2073	0.0427	0.8824	0.11
Mof_C 	C 	0.2428	0.0072	0.9066	-0.163
Mof_C 	C 	0.2619	0.9881	0.9176	0.415
Mof_C 	C 	0.2073	0.5427	0.3824	0.109
Mof_C 	C 	0.2428	0.5072	0.4066	-0.159
Mof_C 	C 	0.2619	0.4881	0.4176	0.413
Mof_C 	C 	0.7073	0.0427	0.3824	0.11
Mof_C 	C 	0.7428	0.0072	0.4066	-0.163
Mof_C 	C 	0.7619	0.9881	0.4176	0.415
Mof_C 	C 	0.0427	0.5427	0.8676	0.11
Mof_C 	C 	0.0072	0.5072	0.8434	-0.163
Mof_C 	C 	0.9881	0.4881	0.8324	0.415
Mof_C 	C 	0.0427	0.0427	0.3676	0.111
Mof_C 	C 	0.0072	0.0072	0.3434	-0.167
Mof_C 	C 	0.9881	0.9881	0.3324	0.418
Mof_C 	C 	0.5427	0.5427	0.3676	0.109
Mof_C 	C 	0.5072	0.5072	0.3434	-0.159
Mof_C 	C 	0.4881	0.4881	0.3324	0.413
Mof_C 	C 	0.7073	0.3676	0.7073	0.109
Mof_C 	C 	0.7428	0.3434	0.7428	-0.159
Mof_C 	C 	0.7619	0.3324	0.7619	0.413
Mof_C 	C 	0.7073	0.8676	0.2073	0.109
Mof_C 	C 	0.7428	0.8434	0.2428	-0.159
Mof_C 	C 	0.7619	0.8324	0.2619	0.413
Mof_C 	C 	0.2073	0.3676	0.2073	0.109
Mof_C 	C 	0.2428	0.3434	0.2428	-0.159
Mof_C 	C 	0.2619	0.3324	0.2619	0.413
Mof_C 	C 	0.2073	0.8676	0.7073	0.109
Mof_C 	C 	0.2428	0.8434	0.7428	-0.159
Mof_C 	C 	0.2619	0.8324	0.7619	0.413
Mof_C 	C 	0.2073	0.3824	0.5427	0.109
Mof_C 	C 	0.2428	0.4066	0.5072	-0.159
Mof_C 	C 	0.2619	0.4176	0.4881	0.413
Mof_C 	C 	0.7073	0.3824	0.0427	0.11
Mof_C 	C 	0.7428	0.4066	0.0072	-0.163
Mof_C 	C 	0.7619	0.4176	0.9881	0.415
Mof_C 	C 	0.5427	0.8676	0.0427	0.11
Mof_C 	C 	0.5072	0.8434	0.0072	-0.163
Mof_C 	C 	0.4881	0.8324	0.9881	0.415
Mof_C 	C 	0.5427	0.3676	0.5427	0.109
Mof_C 	C 	0.5072	0.3434	0.5072	-0.159
Mof_C 	C 	0.4881	0.3324	0.4881	0.413
Mof_C 	C 	0.0427	0.8824	0.2073	0.11
Mof_C 	C 	0.0072	0.9066	0.2428	-0.163
Mof_C 	C 	0.9881	0.9176	0.2619	0.415
Mof_C 	C 	0.0427	0.3824	0.7073	0.11
Mof_C 	C 	0.0072	0.4066	0.7428	-0.163
Mof_C 	C 	0.9881	0.4176	0.7619	0.415
Mof_C 	C 	0.5427	0.3824	0.2073	0.109
Mof_C 	C 	0.5072	0.4066	0.2428	-0.159
Mof_C 	C 	0.4881	0.4176	0.2619	0.413
Mof_C 	C 	0.2073	0.8824	0.0427	0.11
Mof_C 	C 	0.2428	0.9066	0.0072	-0.163
Mof_C 	C 	0.2619	0.9176	0.9881	0.415
Mof_C 	C 	0.7073	0.8824	0.5427	0.109
Mof_C 	C 	0.7428	0.9066	0.5072	-0.159
Mof_C 	C 	0.7619	0.9176	0.4881	0.413
Mof_C 	C 	0.0427	0.8676	0.5427	0.11
Mof_C 	C 	0.0072	0.8434	0.5072	-0.163
Mof_C 	C 	0.9881	0.8324	0.4881	0.415
Mof_C 	C 	0.0427	0.3676	0.0427	0.111
Mof_C 	C 	0.0072	0.3434	0.0072	-0.167
Mof_C 	C 	0.9881	0.3324	0.9881	0.418
Mof_C 	C 	0.5427	0.8824	0.7073	0.109
Mof_C 	C 	0.5072	0.9066	0.7428	-0.159
Mof_C 	C 	0.4881	0.9176	0.7619	0.413
Mof_C 	C 	0.0427	0.2073	0.8824	0.11
Mof_C 	C 	0.0072	0.2428	0.9066	-0.163
Mof_C 	C 	0.9881	0.2619	0.9176	0.415
Mof_C 	C 	0.0427	0.7073	0.3824	0.11
Mof_C 	C 	0.0072	0.7428	0.4066	-0.163
Mof_C 	C 	0.9881	0.7619	0.4176	0.415
Mof_C 	C 	0.5427	0.0427	0.8676	0.11
Mof_C 	C 	0.5072	0.0072	0.8434	-0.163
Mof_C 	C 	0.4881	0.9881	0.8324	0.415
Mof_C 	C 	0.7073	0.5427	0.8824	0.109
Mof_C 	C 	0.7428	0.5072	0.9066	-0.159
Mof_C 	C 	0.7619	0.4881	0.9176	0.413
Mof_C 	C 	0.8824	0.0427	0.2073	0.11
Mof_C 	C 	0.9066	0.0072	0.2428	-0.163
Mof_C 	C 	0.9176	0.9881	0.2619	0.415
Mof_C 	C 	0.8824	0.5427	0.7073	0.109
Mof_C 	C 	0.9066	0.5072	0.7428	-0.159
Mof_C 	C 	0.9176	0.4881	0.7619	0.413
Mof_C 	C 	0.8676	0.5427	0.0427	0.11
Mof_C 	C 	0.8434	0.5072	0.0072	-0.163
Mof_C 	C 	0.8324	0.4881	0.9881	0.415
Mof_C 	C 	0.3824	0.7073	0.0427	0.11
Mof_C 	C 	0.4066	0.7428	0.0072	-0.163
Mof_C 	C 	0.4176	0.7619	0.9881	0.415
Mof_C 	C 	0.1324	0.9573	0.4573	0.109
Mof_C 	C 	0.1566	0.9928	0.4928	-0.155
Mof_C 	C 	0.1676	0.0119	0.5119	0.411
Mof_C 	C 	0.1176	0.7927	0.9573	0.109
Mof_C 	C 	0.0934	0.7572	0.9928	-0.155
Mof_C 	C 	0.0824	0.7381	0.0119	0.411
Mof_C 	C 	0.1176	0.2927	0.4573	0.109
Mof_C 	C 	0.0934	0.2572	0.4928	-0.159
Mof_C 	C 	0.0824	0.2381	0.5119	0.413
Mof_C 	C 	0.6176	0.4573	0.7927	0.109
Mof_C 	C 	0.5934	0.4928	0.7572	-0.159
Mof_C 	C 	0.5824	0.5119	0.7381	0.413
Mof_C 	C 	0.6176	0.9573	0.2927	0.109
Mof_C 	C 	0.5934	0.9928	0.2572	-0.155
Mof_C 	C 	0.5824	0.0119	0.2381	0.411
Mof_C 	C 	0.4573	0.7927	0.6176	0.109
Mof_C 	C 	0.4928	0.7572	0.5934	-0.159
Mof_C 	C 	0.5119	0.7381	0.5824	0.413
Mof_C 	C 	0.4573	0.2927	0.1176	0.109
Mof_C 	C 	0.4928	0.2572	0.0934	-0.159
Mof_C 	C 	0.5119	0.2381	0.0824	0.413
Mof_C 	C 	0.7927	0.9573	0.1176	0.109
Mof_C 	C 	0.7572	0.9928	0.0934	-0.155
Mof_C 	C 	0.7381	0.0119	0.0824	0.411
Mof_C 	C 	0.2927	0.9573	0.6176	0.109
Mof_C 	C 	0.2572	0.9928	0.5934	-0.155
Mof_C 	C 	0.2381	0.0119	0.5824	0.411
Mof_C 	C 	0.9573	0.4573	0.1324	0.109
Mof_C 	C 	0.9928	0.4928	0.1566	-0.155
Mof_C 	C 	0.0119	0.5119	0.1676	0.411
Mof_C 	C 	0.7927	0.6176	0.4573	0.109
Mof_C 	C 	0.7572	0.5934	0.4928	-0.159
Mof_C 	C 	0.7381	0.5824	0.5119	0.413
Mof_C 	C 	0.2927	0.6176	0.9573	0.109
Mof_C 	C 	0.2572	0.5934	0.9928	-0.155
Mof_C 	C 	0.2381	0.5824	0.0119	0.411
Mof_C 	C 	0.4573	0.1324	0.9573	0.109
Mof_C 	C 	0.4928	0.1566	0.9928	-0.155
Mof_C 	C 	0.5119	0.1676	0.0119	0.411
Mof_C 	C 	0.4573	0.6324	0.4573	0.109
Mof_C 	C 	0.4928	0.6566	0.4928	-0.159
Mof_C 	C 	0.5119	0.6676	0.5119	0.413
Mof_C 	C 	0.9573	0.1176	0.7927	0.109
Mof_C 	C 	0.9928	0.0934	0.7572	-0.155
Mof_C 	C 	0.0119	0.0824	0.7381	0.411
Mof_C 	C 	0.9573	0.6176	0.2927	0.109
Mof_C 	C 	0.9928	0.5934	0.2572	-0.155
Mof_C 	C 	0.0119	0.5824	0.2381	0.411
Mof_C 	C 	0.59329	0.09329	0.0599	0.166
Mof_C 	C 	0.59329	0.59329	0.5599	0.167
Mof_C 	C 	0.15671	0.15671	0.5599	0.167
Mof_C 	C 	0.15671	0.65671	0.0599	0.167
Mof_C 	C 	0.65671	0.15671	0.0599	0.167
Mof_C 	C 	0.65671	0.65671	0.5599	0.167
Mof_C 	C 	0.65671	0.59329	0.6901	0.167
Mof_C 	C 	0.15671	0.59329	0.1901	0.167
Mof_C 	C 	0.09329	0.65671	0.1901	0.167
Mof_C 	C 	0.09329	0.15671	0.6901	0.167
Mof_C 	C 	0.0599	0.59329	0.09329	0.166
Mof_C 	C 	0.5599	0.59329	0.59329	0.167
Mof_C 	C 	0.5599	0.15671	0.15671	0.167
Mof_C 	C 	0.5599	0.65671	0.65671	0.167
Mof_C 	C 	0.0599	0.15671	0.65671	0.167
Mof_C 	C 	0.0599	0.65671	0.15671	0.167
Mof_C 	C 	0.6901	0.65671	0.59329	0.167
Mof_C 	C 	0.6901	0.15671	0.09329	0.167
Mof_C 	C 	0.1901	0.09329	0.65671	0.167
Mof_C 	C 	0.1901	0.59329	0.15671	0.167
Mof_C 	C 	0.09329	0.0599	0.59329	0.166
Mof_C 	C 	0.09329	0.5599	0.09329	0.167
Mof_C 	C 	0.15671	0.5599	0.15671	0.167
Mof_C 	C 	0.15671	0.0599	0.65671	0.167
Mof_C 	C 	0.65671	0.5599	0.65671	0.167
Mof_C 	C 	0.65671	0.0599	0.15671	0.167
Mof_C 	C 	0.59329	0.6901	0.65671	0.167
Mof_C 	C 	0.59329	0.1901	0.15671	0.167
Mof_C 	C 	0.65671	0.1901	0.09329	0.167
Mof_C 	C 	0.15671	0.1901	0.59329	0.167
Mof_C 	C 	0.84329	0.84329	0.4401	0.167
Mof_C 	C 	0.84329	0.34329	0.9401	0.167
Mof_C 	C 	0.34329	0.84329	0.9401	0.167
Mof_C 	C 	0.34329	0.34329	0.4401	0.167
Mof_C 	C 	0.90671	0.40671	0.9401	0.167
Mof_C 	C 	0.90671	0.90671	0.4401	0.167
Mof_C 	C 	0.34329	0.90671	0.8099	0.167
Mof_C 	C 	0.84329	0.90671	0.3099	0.167
Mof_C 	C 	0.40671	0.34329	0.3099	0.167
Mof_C 	C 	0.40671	0.84329	0.8099	0.167
Mof_C 	C 	0.34329	0.3099	0.40671	0.167
Mof_C 	C 	0.84329	0.3099	0.90671	0.167
Mof_C 	C 	0.90671	0.8099	0.34329	0.167
Mof_C 	C 	0.90671	0.3099	0.84329	0.167
Mof_C 	C 	0.40671	0.9401	0.90671	0.167
Mof_C 	C 	0.40671	0.4401	0.40671	0.167
Mof_C 	C 	0.84329	0.4401	0.84329	0.167
Mof_C 	C 	0.84329	0.9401	0.34329	0.167
Mof_C 	C 	0.34329	0.4401	0.34329	0.167
Mof_C 	C 	0.34329	0.9401	0.84329	0.167
Mof_C 	C 	0.8099	0.34329	0.90671	0.167
Mof_C 	C 	0.8099	0.84329	0.40671	0.167
Mof_C 	C 	0.3099	0.40671	0.34329	0.167
Mof_C 	C 	0.3099	0.90671	0.84329	0.167
Mof_C 	C 	0.4401	0.84329	0.84329	0.167
Mof_C 	C 	0.4401	0.34329	0.34329	0.167
Mof_C 	C 	0.9401	0.84329	0.34329	0.167
Mof_C 	C 	0.9401	0.34329	0.84329	0.167
Mof_C 	C 	0.9401	0.90671	0.40671	0.167
Mof_C 	C 	0.4401	0.90671	0.90671	0.167
Mof_C 	C 	0.40671	0.90671	0.9401	0.167
Mof_C 	C 	0.40671	0.40671	0.4401	0.167
Mof_C 	C 	0.34329	0.40671	0.3099	0.167
Mof_C 	C 	0.84329	0.40671	0.8099	0.167
Mof_C 	C 	0.90671	0.34329	0.8099	0.167
Mof_C 	C 	0.90671	0.84329	0.3099	0.167
Mof_C 	C 	0.9401	0.40671	0.90671	0.167
Mof_C 	C 	0.4401	0.40671	0.40671	0.167
Mof_C 	C 	0.3099	0.34329	0.40671	0.167
Mof_C 	C 	0.3099	0.84329	0.90671	0.167
Mof_C 	C 	0.8099	0.90671	0.34329	0.167
Mof_C 	C 	0.8099	0.40671	0.84329	0.167
Mof_C 	C 	0.90671	0.9401	0.40671	0.167
Mof_C 	C 	0.90671	0.4401	0.90671	0.167
Mof_C 	C 	0.40671	0.3099	0.34329	0.167
Mof_C 	C 	0.40671	0.8099	0.84329	0.167
Mof_C 	C 	0.34329	0.8099	0.90671	0.167
Mof_C 	C 	0.84329	0.8099	0.40671	0.167
Mof_C 	C 	0.09329	0.59329	0.0599	0.166
Mof_C 	C 	0.09329	0.09329	0.5599	0.167
Mof_C 	C 	0.65671	0.09329	0.1901	0.167
Mof_C 	C 	0.15671	0.09329	0.6901	0.167
Mof_C 	C 	0.59329	0.65671	0.6901	0.167
Mof_C 	C 	0.59329	0.15671	0.1901	0.167
Mof_C 	C 	0.65671	0.6901	0.59329	0.167
Mof_C 	C 	0.15671	0.6901	0.09329	0.167
Mof_C 	C 	0.09329	0.1901	0.65671	0.167
Mof_C 	C 	0.09329	0.6901	0.15671	0.167
Mof_C 	C 	0.59329	0.0599	0.09329	0.166
Mof_C 	C 	0.59329	0.5599	0.59329	0.167
Mof_C 	C 	0.1901	0.65671	0.09329	0.167
Mof_C 	C 	0.1901	0.15671	0.59329	0.167
Mof_C 	C 	0.6901	0.59329	0.65671	0.167
Mof_C 	C 	0.6901	0.09329	0.15671	0.167
Mof_C 	C 	0.0599	0.09329	0.59329	0.166
Mof_C 	C 	0.5599	0.09329	0.09329	0.167
_end
