# CIF file generated by openbabel 3.1.0, see https://openbabel.org
data_I
_chemical_name_common 'image0'
_cell_length_a 14.15
_cell_length_b 11.86
_cell_length_c 16.574
_cell_angle_alpha 90
_cell_angle_beta 90
_cell_angle_gamma 90
_space_group_name_H-M_alt 'P 1'
_space_group_name_Hall 'P 1'
loop_
    _symmetry_equiv_pos_as_xyz
    x,y,z
loop_
    _atom_site_label
    _atom_site_type_symbol
    _atom_site_fract_x
    _atom_site_fract_y
    _atom_site_fract_z
    _atom_site_occupancy
    Mn1      Mn       0.61009    0.47072    0.56353    1.000
    O1       O        0.79670    0.52360    0.96010    1.000
    O2       O        0.78770    0.37840    0.04200    1.000
    O3       O        0.60360    0.31370    0.64520    1.000
    O4       O        0.49180    0.06230    0.86450    1.000
    C1       C        0.64220    0.28160    0.94730    1.000
    H1       H        0.64100    0.26160    0.00150    1.000
    O5       O        0.50450    0.11930    0.99330    1.000
    C2       C        0.76300    0.42840    0.97910    1.000
    C3       C        0.69850    0.40190    0.84050    1.000
    H2       H        0.73320    0.46430    0.82390    1.000
    C4       C        0.64860    0.37230    0.69450    1.000
    C5       C        0.69810    0.37060    0.92140    1.000
    C6       C        0.52510    0.13010    0.91800    1.000
    O6       O        0.69320    0.45970    0.67550    1.000
    C7       C        0.59250    0.24850    0.80900    1.000
    H3       H        0.55960    0.20530    0.77150    1.000
    C8       C        0.58790    0.22240    0.89180    1.000
    C9       C        0.64670    0.33940    0.78430    1.000
    Mn2      Mn       0.88991    0.52928    0.06353    1.000
    O7       O        0.70330    0.47640    0.46010    1.000
    O8       O        0.71230    0.62160    0.54200    1.000
    O9       O        0.89640    0.68630    0.14520    1.000
    O10      O        0.00820    0.93770    0.36450    1.000
    C10      C        0.85780    0.71840    0.44730    1.000
    H4       H        0.85900    0.73840    0.50150    1.000
    O11      O        0.99550    0.88070    0.49330    1.000
    C11      C        0.73700    0.57160    0.47910    1.000
    C12      C        0.80150    0.59810    0.34050    1.000
    H5       H        0.76680    0.53570    0.32390    1.000
    C13      C        0.85140    0.62770    0.19450    1.000
    C14      C        0.80190    0.62940    0.42140    1.000
    C15      C        0.97490    0.86990    0.41800    1.000
    O12      O        0.80680    0.54030    0.17550    1.000
    C16      C        0.90750    0.75150    0.30900    1.000
    H6       H        0.94040    0.79470    0.27150    1.000
    C17      C        0.91210    0.77760    0.39180    1.000
    C18      C        0.85330    0.66060    0.28430    1.000
    Mn3      Mn       0.38991    0.97072    0.93647    1.000
    O13      O        0.20330    0.02360    0.53990    1.000
    O14      O        0.21230    0.87840    0.45800    1.000
    O15      O        0.39640    0.81370    0.85480    1.000
    O16      O        0.50820    0.56230    0.63550    1.000
    C19      C        0.35780    0.78160    0.55270    1.000
    H7       H        0.35900    0.76160    0.49850    1.000
    O17      O        0.49550    0.61930    0.50670    1.000
    C20      C        0.23700    0.92840    0.52090    1.000
    C21      C        0.30150    0.90190    0.65950    1.000
    H8       H        0.26680    0.96430    0.67610    1.000
    C22      C        0.35140    0.87230    0.80550    1.000
    C23      C        0.30190    0.87060    0.57860    1.000
    C24      C        0.47490    0.63010    0.58200    1.000
    O18      O        0.30680    0.95970    0.82450    1.000
    C25      C        0.40750    0.74850    0.69100    1.000
    H9       H        0.44040    0.70530    0.72850    1.000
    C26      C        0.41210    0.72240    0.60820    1.000
    C27      C        0.35330    0.83940    0.71570    1.000
    Mn4      Mn       0.11009    0.02928    0.43647    1.000
    O19      O        0.29670    0.97640    0.03990    1.000
    O20      O        0.28770    0.12160    0.95800    1.000
    O21      O        0.10360    0.18630    0.35480    1.000
    O22      O        0.99180    0.43770    0.13550    1.000
    C28      C        0.14220    0.21840    0.05270    1.000
    H10      H        0.14100    0.23840    0.99850    1.000
    O23      O        0.00450    0.38070    0.00670    1.000
    C29      C        0.26300    0.07160    0.02090    1.000
    C30      C        0.19850    0.09810    0.15950    1.000
    H11      H        0.23320    0.03570    0.17610    1.000
    C31      C        0.14860    0.12770    0.30550    1.000
    C32      C        0.19810    0.12940    0.07860    1.000
    C33      C        0.02510    0.36990    0.08200    1.000
    O24      O        0.19320    0.04030    0.32450    1.000
    C34      C        0.09250    0.25150    0.19100    1.000
    H12      H        0.05960    0.29470    0.22850    1.000
    C35      C        0.08790    0.27760    0.10820    1.000
    C36      C        0.14670    0.16060    0.21570    1.000
    Mn5      Mn       0.38991    0.52928    0.43647    1.000
    O25      O        0.20330    0.47640    0.03990    1.000
    O26      O        0.21230    0.62160    0.95800    1.000
    O27      O        0.39640    0.68630    0.35480    1.000
    O28      O        0.50820    0.93770    0.13550    1.000
    C37      C        0.35780    0.71840    0.05270    1.000
    H13      H        0.35900    0.73840    0.99850    1.000
    O29      O        0.49550    0.88070    0.00670    1.000
    C38      C        0.23700    0.57160    0.02090    1.000
    C39      C        0.30150    0.59810    0.15950    1.000
    H14      H        0.26680    0.53570    0.17610    1.000
    C40      C        0.35140    0.62770    0.30550    1.000
    C41      C        0.30190    0.62940    0.07860    1.000
    C42      C        0.47490    0.86990    0.08200    1.000
    O30      O        0.30680    0.54030    0.32450    1.000
    C43      C        0.40750    0.75150    0.19100    1.000
    H15      H        0.44040    0.79470    0.22850    1.000
    C44      C        0.41210    0.77760    0.10820    1.000
    C45      C        0.35330    0.66060    0.21570    1.000
    Mn6      Mn       0.11009    0.47072    0.93647    1.000
    O31      O        0.29670    0.52360    0.53990    1.000
    O32      O        0.28770    0.37840    0.45800    1.000
    O33      O        0.10360    0.31370    0.85480    1.000
    O34      O        0.99180    0.06230    0.63550    1.000
    C46      C        0.14220    0.28160    0.55270    1.000
    H16      H        0.14100    0.26160    0.49850    1.000
    O35      O        0.00450    0.11930    0.50670    1.000
    C47      C        0.26300    0.42840    0.52090    1.000
    C48      C        0.19850    0.40190    0.65950    1.000
    H17      H        0.23320    0.46430    0.67610    1.000
    C49      C        0.14860    0.37230    0.80550    1.000
    C50      C        0.19810    0.37060    0.57860    1.000
    C51      C        0.02510    0.13010    0.58200    1.000
    O36      O        0.19320    0.45970    0.82450    1.000
    C52      C        0.09250    0.24850    0.69100    1.000
    H18      H        0.05960    0.20530    0.72850    1.000
    C53      C        0.08790    0.22240    0.60820    1.000
    C54      C        0.14670    0.33940    0.71570    1.000
    Mn7      Mn       0.61009    0.02928    0.06353    1.000
    O37      O        0.79670    0.97640    0.46010    1.000
    O38      O        0.78770    0.12160    0.54200    1.000
    O39      O        0.60360    0.18630    0.14520    1.000
    O40      O        0.49180    0.43770    0.36450    1.000
    C55      C        0.64220    0.21840    0.44730    1.000
    H19      H        0.64100    0.23840    0.50150    1.000
    O41      O        0.50450    0.38070    0.49330    1.000
    C56      C        0.76300    0.07160    0.47910    1.000
    C57      C        0.69850    0.09810    0.34050    1.000
    H20      H        0.73320    0.03570    0.32390    1.000
    C58      C        0.64860    0.12770    0.19450    1.000
    C59      C        0.69810    0.12940    0.42140    1.000
    C60      C        0.52510    0.36990    0.41800    1.000
    O42      O        0.69320    0.04030    0.17550    1.000
    C61      C        0.59250    0.25150    0.30900    1.000
    H21      H        0.55960    0.29470    0.27150    1.000
    C62      C        0.58790    0.27760    0.39180    1.000
    C63      C        0.64670    0.16060    0.28430    1.000
    Mn8      Mn       0.88991    0.97072    0.56353    1.000
    O43      O        0.70330    0.02360    0.96010    1.000
    O44      O        0.71230    0.87840    0.04200    1.000
    O45      O        0.89640    0.81370    0.64520    1.000
    O46      O        0.00820    0.56230    0.86450    1.000
    C64      C        0.85780    0.78160    0.94730    1.000
    H22      H        0.85900    0.76160    0.00150    1.000
    O47      O        0.99550    0.61930    0.99330    1.000
    C65      C        0.73700    0.92840    0.97910    1.000
    C66      C        0.80150    0.90190    0.84050    1.000
    H23      H        0.76680    0.96430    0.82390    1.000
    C67      C        0.85140    0.87230    0.69450    1.000
    C68      C        0.80190    0.87060    0.92140    1.000
    C69      C        0.97490    0.63010    0.91800    1.000
    O48      O        0.80680    0.95970    0.67550    1.000
    C70      C        0.90750    0.74850    0.80900    1.000
    H24      H        0.94040    0.70530    0.77150    1.000
    C71      C        0.91210    0.72240    0.89180    1.000
    C72      C        0.85330    0.83940    0.78430    1.000
