data_functionalizedCrystal
_audit_creation_method	'EQeq! by Chris Wilmer'
_symmetry_space_group_name_H-M	'P1'
_symmetry_Int_Tables_number	1
_symmetry_cell_setting	triclinic
loop_
_symmetry_equiv_pos_as_xyz
  x,y,z
_cell_length_a	10.913
_cell_length_b	16.542
_cell_length_c	19.793
_cell_angle_alpha	90
_cell_angle_beta	90
_cell_angle_gamma	90
loop_
_atom_site_label
_atom_site_type_symbol
_atom_site_fract_x
_atom_site_fract_y
_atom_site_fract_z
_atom_site_charge
Mof_Tb	Tb	0.20671	0.75	0.20436	1.917
Mof_Tb	Tb	0.79329	0.25	0.79564	1.917
Mof_Tb	Tb	0.29329	0.25	0.70436	1.917
Mof_Tb	Tb	0.70671	0.75	0.29564	1.917
Mof_H 	H 	0.571	0.1816	0.0141	0.089
Mof_H 	H 	0.3175	0.25	0.9058	0.022
Mof_H 	H 	0.8103	0.0685	0.5316	0.096
Mof_H 	H 	0.429	0.8184	0.9859	0.089
Mof_H 	H 	0.0242	0.0099	0.6729	-0.005
Mof_H 	H 	0.7555	0.4521	0.9806	0.01
Mof_H 	H 	0.9604	0.25	0.9573	0.037
Mof_H 	H 	0.6537	0.75	0.8086	0.279
Mof_H 	H 	0.9863	0.75	0.9302	0.057
Mof_H 	H 	0.5416	0.3935	0.122	0.106
Mof_H 	H 	0.4863	0.75	0.5698	0.059
Mof_H 	H 	0.071	0.3184	0.4859	0.089
Mof_H 	H 	0.0416	0.3935	0.378	0.107
Mof_H 	H 	0.4743	0.1709	0.956	0.077
Mof_H 	H 	0.9584	0.6065	0.622	0.107
Mof_H 	H 	0.4604	0.25	0.5427	0.033
Mof_H 	H 	0.929	0.8184	0.5141	0.089
Mof_H 	H 	0.2555	0.0479	0.5194	0.009
Mof_H 	H 	0.9758	0.5099	0.3271	-0.002
Mof_H 	H 	0.6897	0.9315	0.0316	0.093
Mof_H 	H 	0.2555	0.4521	0.5194	0.009
Mof_H 	H 	0.4584	0.6065	0.878	0.106
Mof_H 	H 	0.9743	0.1709	0.544	0.078
Mof_H 	H 	0.1897	0.9315	0.4684	0.096
Mof_H 	H 	0.071	0.1816	0.4859	0.089
Mof_H 	H 	0.9743	0.3291	0.544	0.078
Mof_H 	H 	0.9758	0.9901	0.3271	-0.005
Mof_H 	H 	0.5137	0.25	0.4302	0.059
Mof_H 	H 	0.3463	0.25	0.1914	0.279
Mof_H 	H 	0.4584	0.8935	0.878	0.107
Mof_H 	H 	0.8103	0.4315	0.5316	0.096
Mof_H 	H 	0.429	0.6816	0.9859	0.089
Mof_H 	H 	0.8463	0.25	0.3086	0.279
Mof_H 	H 	0.0396	0.75	0.0427	0.037
Mof_H 	H 	0.1825	0.75	0.4058	0.021
Mof_H 	H 	0.5257	0.6709	0.044	0.078
Mof_H 	H 	0.4758	0.5099	0.1729	-0.002
Mof_H 	H 	0.1537	0.75	0.6914	0.279
Mof_H 	H 	0.0137	0.25	0.0698	0.057
Mof_H 	H 	0.5416	0.1065	0.122	0.107
Mof_H 	H 	0.3103	0.4315	0.9684	0.095
Mof_H 	H 	0.6825	0.75	0.0942	0.022
Mof_H 	H 	0.929	0.6816	0.5141	0.089
Mof_H 	H 	0.5257	0.8291	0.044	0.077
Mof_H 	H 	0.7445	0.5479	0.4806	0.009
Mof_H 	H 	0.4758	0.9901	0.1729	-0.003
Mof_H 	H 	0.3103	0.0685	0.9684	0.093
Mof_H 	H 	0.7445	0.9521	0.4806	0.009
Mof_H 	H 	0.0257	0.6709	0.456	0.078
Mof_H 	H 	0.571	0.3184	0.0141	0.089
Mof_H 	H 	0.7555	0.0479	0.9806	0.011
Mof_H 	H 	0.9584	0.8935	0.622	0.107
Mof_H 	H 	0.8175	0.25	0.5942	0.021
Mof_H 	H 	0.6897	0.5685	0.0316	0.095
Mof_H 	H 	0.0416	0.1065	0.378	0.107
Mof_H 	H 	0.5242	0.4901	0.8271	-0.002
Mof_H 	H 	0.2445	0.5479	0.0194	0.01
Mof_H 	H 	0.5242	0.0099	0.8271	-0.003
Mof_H 	H 	0.0242	0.4901	0.6729	-0.002
Mof_H 	H 	0.4743	0.3291	0.956	0.078
Mof_H 	H 	0.5396	0.75	0.4573	0.033
Mof_H 	H 	0.1897	0.5685	0.4684	0.096
Mof_H 	H 	0.2445	0.9521	0.0194	0.011
Mof_H 	H 	0.0257	0.8291	0.456	0.078
Mof_C 	C 	0.3973	0.75	0.3466	0.567
Mof_C 	C 	0.5181	0.5754	0.8991	-0.188
Mof_C 	C 	0.6556	0.5529	0.9906	-0.187
Mof_C 	C 	0.6975	0.25	0.4424	-0.092
Mof_C 	C 	0.935	0.1006	0.4608	0.163
Mof_C 	C 	0.5576	0.5053	0.8684	0.096
Mof_C 	C 	0.8531	0.9568	0.3985	-0.16
Mof_C 	C 	0.9842	0.1761	0.4955	-0.177
Mof_C 	C 	0.805	0.5171	0.4598	0.095
Mof_C 	C 	0.8444	0.0529	0.4906	-0.188
Mof_C 	C 	0.435	0.3994	0.0392	0.161
Mof_C 	C 	0.7771	0.75	0.8675	0.382
Mof_C 	C 	0.6886	0.3815	0.8659	0.332
Mof_C 	C 	0.3025	0.75	0.5576	-0.092
Mof_C 	C 	0.565	0.8994	0.9608	0.16
Mof_C 	C 	0.6337	0.25	0.5793	-0.162
Mof_C 	C 	0.6469	0.4568	0.8985	-0.156
Mof_C 	C 	0.8114	0.6185	0.3659	0.332
Mof_C 	C 	0.9819	0.4246	0.3991	-0.189
Mof_C 	C 	0.6469	0.0432	0.8985	-0.156
Mof_C 	C 	0.6886	0.1185	0.8659	0.332
Mof_C 	C 	0.8663	0.75	0.0793	-0.157
Mof_C 	C 	0.1886	0.3815	0.6341	0.332
Mof_C 	C 	0.2105	0.75	0.509	0.078
Mof_C 	C 	0.6556	0.9471	0.9906	-0.183
Mof_C 	C 	0.3531	0.9568	0.1015	-0.156
Mof_C 	C 	0.9575	0.75	0.0303	0.021
Mof_C 	C 	0.7105	0.75	0.991	0.081
Mof_C 	C 	0.695	0.4829	0.9598	0.094
Mof_C 	C 	0.5425	0.25	0.5303	0.031
Mof_C 	C 	0.0576	0.5053	0.6316	0.096
Mof_C 	C 	0.305	0.5171	0.0402	0.094
Mof_C 	C 	0.5181	0.9246	0.8991	-0.188
Mof_C 	C 	0.9819	0.0754	0.3991	-0.19
Mof_C 	C 	0.4819	0.0754	0.1009	-0.188
Mof_C 	C 	0.3444	0.0529	0.0094	-0.183
Mof_C 	C 	0.0158	0.8239	0.5045	-0.177
Mof_C 	C 	0.9424	0.4947	0.3684	0.096
Mof_C 	C 	0.8114	0.8815	0.3659	0.333
Mof_C 	C 	0.3444	0.4471	0.0094	-0.187
Mof_C 	C 	0.3114	0.8815	0.1341	0.332
Mof_C 	C 	0.8025	0.75	0.9424	-0.095
Mof_C 	C 	0.8444	0.4471	0.4906	-0.188
Mof_C 	C 	0.2569	0.25	0.9388	-0.025
Mof_C 	C 	0.565	0.6006	0.9608	0.161
Mof_C 	C 	0.1556	0.9471	0.5094	-0.188
Mof_C 	C 	0.5158	0.8239	0.9955	-0.175
Mof_C 	C 	0.8531	0.5432	0.3985	-0.157
Mof_C 	C 	0.1556	0.5529	0.5094	-0.188
Mof_C 	C 	0.1027	0.25	0.8466	0.564
Mof_C 	C 	0.8973	0.75	0.1534	0.564
Mof_C 	C 	0.695	0.0171	0.9598	0.092
Mof_C 	C 	0.2771	0.75	0.6325	0.381
Mof_C 	C 	0.065	0.8994	0.5392	0.163
Mof_C 	C 	0.805	0.9829	0.4598	0.096
Mof_C 	C 	0.1886	0.1185	0.6341	0.333
Mof_C 	C 	0.5158	0.6761	0.9955	-0.176
Mof_C 	C 	0.3663	0.75	0.4207	-0.162
Mof_C 	C 	0.195	0.4829	0.5402	0.095
Mof_C 	C 	0.935	0.3994	0.4608	0.162
Mof_C 	C 	0.5576	0.9947	0.8684	0.098
Mof_C 	C 	0.575	0.25	0.4629	-0.037
Mof_C 	C 	0.4819	0.4246	0.1009	-0.188
Mof_C 	C 	0.195	0.0171	0.5402	0.096
Mof_C 	C 	0.0158	0.6761	0.5045	-0.177
Mof_C 	C 	0.4842	0.3239	0.0045	-0.176
Mof_C 	C 	0.0181	0.9246	0.6009	-0.19
Mof_C 	C 	0.075	0.25	0.0371	-0.03
Mof_C 	C 	0.6027	0.25	0.6534	0.567
Mof_C 	C 	0.1469	0.0432	0.6015	-0.16
Mof_C 	C 	0.425	0.75	0.5371	-0.037
Mof_C 	C 	0.7229	0.25	0.3675	0.381
Mof_C 	C 	0.4424	0.0053	0.1316	0.098
Mof_C 	C 	0.305	0.9829	0.0402	0.092
Mof_C 	C 	0.0576	0.9947	0.6316	0.102
Mof_C 	C 	0.3114	0.6185	0.1341	0.332
Mof_C 	C 	0.7431	0.75	0.0612	-0.025
Mof_C 	C 	0.4842	0.1761	0.0045	-0.175
Mof_C 	C 	0.065	0.6006	0.5392	0.162
Mof_C 	C 	0.1469	0.4568	0.6015	-0.157
Mof_C 	C 	0.1975	0.25	0.0576	-0.095
Mof_C 	C 	0.7895	0.25	0.491	0.078
Mof_C 	C 	0.4424	0.4947	0.1316	0.096
Mof_C 	C 	0.0425	0.25	0.9697	0.021
Mof_C 	C 	0.925	0.75	0.9629	-0.03
Mof_C 	C 	0.3531	0.5432	0.1015	-0.156
Mof_C 	C 	0.9424	0.0053	0.3684	0.102
Mof_C 	C 	0.0181	0.5754	0.6009	-0.189
Mof_C 	C 	0.4575	0.75	0.4697	0.031
Mof_C 	C 	0.435	0.1006	0.0392	0.16
Mof_C 	C 	0.7569	0.25	0.5612	-0.021
Mof_C 	C 	0.2229	0.25	0.1325	0.382
Mof_C 	C 	0.2895	0.25	0.009	0.081
Mof_C 	C 	0.1337	0.25	0.9207	-0.157
Mof_C 	C 	0.2431	0.75	0.4388	-0.021
Mof_C 	C 	0.9842	0.3239	0.4955	-0.177
Mof_N 	N 	0.9177	0.25	0.4713	-0.062
Mof_N 	N 	0.5823	0.75	0.9713	-0.063
Mof_N 	N 	0.4177	0.25	0.0287	-0.063
Mof_N 	N 	0.0823	0.75	0.5287	-0.062
Mof_O 	O 	0.7193	0.6549	0.3888	-0.434
Mof_O 	O 	0.3569	0.75	0.6732	-0.292
Mof_O 	O 	0.6357	0.3545	0.8131	-0.448
Mof_O 	O 	0.4931	0.25	0.6679	-0.587
Mof_O 	O 	0.5069	0.75	0.3321	-0.587
Mof_O 	O 	0.8407	0.25	0.3499	-0.461
Mof_O 	O 	0.1886	0.25	0.8056	-0.591
Mof_O 	O 	0.7807	0.3451	0.8888	-0.434
Mof_O 	O 	0.2193	0.8451	0.1112	-0.434
Mof_O 	O 	0.8643	0.6455	0.3131	-0.448
Mof_O 	O 	0.7807	0.1549	0.8888	-0.434
Mof_O 	O 	0.7193	0.8451	0.3888	-0.435
Mof_O 	O 	0.6357	0.1455	0.8131	-0.448
Mof_O 	O 	0.0069	0.75	0.1679	-0.585
Mof_O 	O 	0.2193	0.6549	0.1112	-0.434
Mof_O 	O 	0.6431	0.25	0.3268	-0.292
Mof_O 	O 	0.8643	0.8545	0.3131	-0.449
Mof_O 	O 	0.1431	0.25	0.1732	-0.293
Mof_O 	O 	0.3643	0.6455	0.1869	-0.448
Mof_O 	O 	0.1357	0.3545	0.6869	-0.448
Mof_O 	O 	0.8569	0.75	0.8268	-0.293
Mof_O 	O 	0.1357	0.1455	0.6869	-0.449
Mof_O 	O 	0.2807	0.1549	0.6112	-0.435
Mof_O 	O 	0.3114	0.75	0.3056	-0.592
Mof_O 	O 	0.6593	0.75	0.8499	-0.461
Mof_O 	O 	0.3643	0.8545	0.1869	-0.448
Mof_O 	O 	0.2807	0.3451	0.6112	-0.434
Mof_O 	O 	0.6886	0.25	0.6944	-0.592
Mof_O 	O 	0.8114	0.75	0.1944	-0.591
Mof_O 	O 	0.9931	0.25	0.8321	-0.585
Mof_O 	O 	0.3407	0.25	0.1501	-0.461
Mof_O 	O 	0.1593	0.75	0.6501	-0.461
_end
