data_functionalizedCrystal
_audit_creation_method	'EQeq! by Chris Wilmer'
_symmetry_space_group_name_H-M	'P1'
_symmetry_Int_Tables_number	1
_symmetry_cell_setting	triclinic
loop_
_symmetry_equiv_pos_as_xyz
  x,y,z
_cell_length_a	13.4917
_cell_length_b	13.4917
_cell_length_c	8.0644
_cell_angle_alpha	90
_cell_angle_beta	90
_cell_angle_gamma	120
loop_
_atom_site_label
_atom_site_type_symbol
_atom_site_fract_x
_atom_site_fract_y
_atom_site_fract_z
_atom_site_charge
Mof_Mn	Mn	0.30259	0.33801	0.9542	0.707
Mof_O 	O 	0.22856	0.18034	0.0936	-0.299
Mof_C 	C 	0.53517	0.32237	0.9509	-0.205
Mof_C 	C 	0.35398	0.55983	0.7234	-0.149
Mof_O 	O 	0.24225	0.05669	0.2559	-0.332
Mof_C 	C 	0.26591	0.15691	0.2205	0.343
Mof_N 	N 	0.34703	0.20836	0.5	-0.275
Mof_H 	H 	0.2868	0.1984	0.5607	0.141
Mof_H 	H 	0.4117	0.2565	0.5544	0.102
Mof_C 	C 	0.34531	0.25425	0.3359	-0.104
Mof_H 	H 	0.4227	0.2863	0.2904	0.054
Mof_N 	N 	0.36693	0.42807	0.1972	-0.283
Mof_H 	H 	0.4437	0.4611	0.1989	0.117
Mof_H 	H 	0.3495	0.4842	0.2045	0.11
Mof_C 	C 	0.3198	0.3529	0.344	-0.017
Mof_H 	H 	0.2377	0.3221	0.3488	0.043
Mof_H 	H 	0.3532	0.3973	0.4439	0.026
Mof_N 	N 	0.45563	0.32038	0.8941	-0.139
Mof_N 	N 	0.3682	0.49931	0.8091	-0.157
Mof_Mn	Mn	0.66199	0.96458	0.9542	0.713
Mof_O 	O 	0.81966	0.04822	0.0936	-0.306
Mof_C 	C 	0.67763	0.2128	0.9509	-0.204
Mof_C 	C 	0.44017	0.79415	0.7234	-0.149
Mof_O 	O 	0.94331	0.18556	0.2559	-0.335
Mof_C 	C 	0.84309	0.109	0.2205	0.345
Mof_N 	N 	0.79164	0.13867	0.5	-0.273
Mof_H 	H 	0.8016	0.0884	0.5607	0.14
Mof_H 	H 	0.7435	0.1552	0.5544	0.101
Mof_C 	C 	0.74575	0.09106	0.3359	-0.112
Mof_H 	H 	0.7137	0.1364	0.2904	0.055
Mof_N 	N 	0.57193	0.93886	0.1972	-0.285
Mof_H 	H 	0.5389	0.9826	0.1989	0.119
Mof_H 	H 	0.5158	0.8653	0.2045	0.111
Mof_C 	C 	0.6471	0.9669	0.344	-0.008
Mof_H 	H 	0.6779	0.9156	0.3488	0.041
Mof_H 	H 	0.6027	0.9559	0.4439	0.025
Mof_N 	N 	0.67962	0.13525	0.8941	-0.139
Mof_N 	N 	0.50069	0.86889	0.8091	-0.157
Mof_Mn	Mn	0.03542	0.69741	0.9542	0.711
Mof_O 	O 	0.95178	0.77144	0.0936	-0.302
Mof_C 	C 	0.7872	0.46483	0.9509	-0.205
Mof_C 	C 	0.20585	0.64602	0.7234	-0.149
Mof_O 	O 	0.81444	0.75775	0.2559	-0.331
Mof_C 	C 	0.891	0.73409	0.2205	0.344
Mof_N 	N 	0.86133	0.65297	0.5	-0.274
Mof_H 	H 	0.9116	0.7132	0.5607	0.14
Mof_H 	H 	0.8448	0.5883	0.5544	0.101
Mof_C 	C 	0.90894	0.65469	0.3359	-0.111
Mof_H 	H 	0.8636	0.5773	0.2904	0.055
Mof_N 	N 	0.06114	0.63307	0.1972	-0.284
Mof_H 	H 	0.0174	0.5563	0.1989	0.119
Mof_H 	H 	0.1347	0.6505	0.2045	0.111
Mof_C 	C 	0.0331	0.6802	0.344	-0.008
Mof_H 	H 	0.0844	0.7623	0.3488	0.042
Mof_H 	H 	0.0441	0.6468	0.4439	0.025
Mof_N 	N 	0.86475	0.54437	0.8941	-0.139
Mof_N 	N 	0.13111	0.6318	0.8091	-0.157
Mof_Mn	Mn	0.69741	0.66199	0.4542	0.791
Mof_O 	O 	0.77144	0.81966	0.5936	-0.341
Mof_C 	C 	0.46483	0.67763	0.4509	-0.143
Mof_C 	C 	0.64602	0.44017	0.2234	-0.139
Mof_O 	O 	0.75775	0.94331	0.7559	-0.346
Mof_C 	C 	0.73409	0.84309	0.7205	0.354
Mof_N 	N 	0.65297	0.79164	-0	-0.238
Mof_H 	H 	0.7132	0.8016	0.0607	0.151
Mof_H 	H 	0.5883	0.7435	0.0544	0.114
Mof_C 	C 	0.65469	0.74575	0.8359	-0.162
Mof_H 	H 	0.5773	0.7137	0.7904	0.058
Mof_N 	N 	0.63307	0.57193	0.6972	-0.297
Mof_H 	H 	0.5563	0.5389	0.6989	0.105
Mof_H 	H 	0.6505	0.5158	0.7045	0.102
Mof_C 	C 	0.6802	0.6471	0.844	0.011
Mof_H 	H 	0.7623	0.6779	0.8488	0.022
Mof_H 	H 	0.6468	0.6027	0.9439	-0.001
Mof_N 	N 	0.54437	0.67962	0.3941	-0.146
Mof_N 	N 	0.6318	0.50069	0.3091	-0.149
Mof_Mn	Mn	0.33801	0.03542	0.4542	0.785
Mof_O 	O 	0.18034	0.95178	0.5936	-0.337
Mof_C 	C 	0.32237	0.7872	0.4509	-0.143
Mof_C 	C 	0.55983	0.20585	0.2234	-0.14
Mof_O 	O 	0.05669	0.81444	0.7559	-0.345
Mof_C 	C 	0.15691	0.891	0.7205	0.353
Mof_N 	N 	0.20836	0.86133	-0	-0.238
Mof_H 	H 	0.1984	0.9116	0.0607	0.154
Mof_H 	H 	0.2565	0.8448	0.0544	0.115
Mof_C 	C 	0.25425	0.90894	0.8359	-0.159
Mof_H 	H 	0.2863	0.8636	0.7904	0.058
Mof_N 	N 	0.42807	0.06114	0.6972	-0.297
Mof_H 	H 	0.4611	0.0174	0.6989	0.103
Mof_H 	H 	0.4842	0.1347	0.7045	0.101
Mof_C 	C 	0.3529	0.0331	0.844	0.007
Mof_H 	H 	0.3221	0.0844	0.8488	0.023
Mof_H 	H 	0.3973	0.0441	0.9439	-0
Mof_N 	N 	0.32038	0.86475	0.3941	-0.145
Mof_N 	N 	0.49931	0.13111	0.3091	-0.15
Mof_Mn	Mn	0.96458	0.30259	0.4542	0.784
Mof_O 	O 	0.04822	0.22856	0.5936	-0.338
Mof_C 	C 	0.2128	0.53517	0.4509	-0.143
Mof_C 	C 	0.79415	0.35398	0.2234	-0.141
Mof_O 	O 	0.18556	0.24225	0.7559	-0.347
Mof_C 	C 	0.109	0.26591	0.7205	0.353
Mof_N 	N 	0.13867	0.34703	-0	-0.239
Mof_H 	H 	0.0884	0.2868	0.0607	0.153
Mof_H 	H 	0.1552	0.4117	0.0544	0.115
Mof_C 	C 	0.09106	0.34531	0.8359	-0.158
Mof_H 	H 	0.1364	0.4227	0.7904	0.058
Mof_N 	N 	0.93886	0.36693	0.6972	-0.296
Mof_H 	H 	0.9826	0.4437	0.6989	0.103
Mof_H 	H 	0.8653	0.3495	0.7045	0.101
Mof_C 	C 	0.9669	0.3198	0.844	0.006
Mof_H 	H 	0.9156	0.2377	0.8488	0.023
Mof_H 	H 	0.9559	0.3532	0.9439	0
Mof_N 	N 	0.13525	0.45563	0.3941	-0.145
Mof_N 	N 	0.86889	0.3682	0.3091	-0.15
Mof_Mn	Mn	0.33333	0.66667	0.57888	0.796
Mof_Mn	Mn	0.66667	0.33333	0.07888	0.921
_end
