data_functionalizedCrystal
_audit_creation_method	'EQeq! by Chris Wilmer'
_symmetry_space_group_name_H-M	'P1'
_symmetry_Int_Tables_number	1
_symmetry_cell_setting	triclinic
loop_
_symmetry_equiv_pos_as_xyz
  x,y,z
_cell_length_a	17.872
_cell_length_b	28.462
_cell_length_c	14.1464
_cell_angle_alpha	90
_cell_angle_beta	91.662
_cell_angle_gamma	90
loop_
_atom_site_label
_atom_site_type_symbol
_atom_site_fract_x
_atom_site_fract_y
_atom_site_fract_z
_atom_site_charge
Mof_Mn	Mn	0.00218	0.17519	0.60456	0.874
Mof_O 	O 	0.03466	0.11471	0.6852	-0.369
Mof_N 	N 	0.9519	0.23137	0.5078	-0.191
Mof_N 	N 	0.10684	0.17359	0.5146	-0.194
Mof_O 	O 	0.9002	0.187	0.67547	-0.367
Mof_O 	O 	0.06967	0.22247	0.68703	-0.373
Mof_N 	N 	0.9498	0.11692	0.5103	-0.191
Mof_C 	C 	0.8862	0.21244	0.746	0.338
Mof_C 	C 	0.8086	0.23188	0.7487	0.003
Mof_C 	C 	0.9771	0.0182	0.8289	-0.135
Mof_C 	C 	0.7853	0.2548	0.8295	-0.141
Mof_C 	C 	0.7595	0.22737	0.6702	-0.142
Mof_H 	H 	0.9625	0.0345	0.8823	0.093
Mof_C 	C 	0.9764	0.96951	0.8273	0.163
Mof_H 	H 	0.8177	0.2577	0.8817	0.093
Mof_C 	C 	0.7147	0.27307	0.8321	0.157
Mof_H 	H 	0.7747	0.2121	0.6159	0.095
Mof_C 	C 	0.6888	0.24569	0.6743	0.157
Mof_N 	N 	0.95305	0.94333	0.9092	-0.158
Mof_N 	N 	0.68918	0.298	0.914	-0.158
Mof_C 	C 	0.6649	0.26969	0.7543	-0.207
Mof_N 	N 	0.6377	0.24308	0.5945	-0.16
Mof_C 	C 	0.9838	0.90182	0.9392	0.109
Mof_C 	C 	0.8931	0.95195	0.9667	0.055
Mof_C 	C 	0.7287	0.32958	0.9705	0.057
Mof_C 	C 	0.6172	0.29859	0.9437	0.104
Mof_H 	H 	0.6174	0.283	0.7557	0.107
Mof_C 	C 	0.5933	0.27901	0.5634	0.104
Mof_C 	C 	0.618	0.20524	0.5389	0.059
Mof_H 	H 	0.0251	0.8882	0.9116	-0.014
Mof_C 	C 	0.8917	0.91386	0.0299	0.073
Mof_C 	C 	0.8401	0.98801	0.9677	-0.086
Mof_C 	C 	0.677	0.34701	0.0341	0.068
Mof_C 	C 	0.8027	0.3451	0.9714	-0.088
Mof_H 	H 	0.5791	0.2807	0.9157	-0.011
Mof_H 	H 	0.5949	0.3087	0.5908	-0.01
Mof_C 	C 	0.5629	0.22163	0.4748	0.072
Mof_C 	C 	0.639	0.159	0.542	-0.088
Mof_C 	C 	0.8377	0.9112	0.099	-0.107
Mof_C 	C 	0.7856	0.9841	0.0349	-0.031
Mof_H 	H 	0.8413	0.0131	0.9257	0.064
Mof_C 	C 	0.6978	0.38053	0.1015	-0.107
Mof_C 	C 	0.8218	0.3792	0.0374	-0.03
Mof_H 	H 	0.8373	0.3333	0.9298	0.064
Mof_C 	C 	0.5291	0.1912	0.4104	-0.11
Mof_H 	H 	0.6755	0.1483	0.5851	0.064
Mof_C 	C 	0.6038	0.1291	0.4785	-0.032
Mof_H 	H 	0.8367	0.8865	0.142	0.08
Mof_C 	C 	0.7858	0.9471	0.1002	-0.013
Mof_H 	H 	0.748	0.0067	0.0368	0.041
Mof_C 	C 	0.7707	0.396	0.1028	-0.014
Mof_H 	H 	0.6637	0.392	0.1441	0.079
Mof_H 	H 	0.8701	0.3913	0.0385	0.041
Mof_C 	C 	0.5509	0.1454	0.4122	-0.01
Mof_H 	H 	0.4926	0.2017	0.3672	0.079
Mof_H 	H 	0.6157	0.0973	0.4799	0.04
Mof_H 	H 	0.7495	0.9467	0.1461	0.032
Mof_H 	H 	0.7864	0.418	0.1478	0.033
Mof_H 	H 	0.53	0.1245	0.3682	0.031
Mof_Mn	Mn	0.50218	0.67519	0.60456	0.882
Mof_O 	O 	0.53466	0.61471	0.6852	-0.368
Mof_N 	N 	0.4519	0.73137	0.5078	-0.194
Mof_N 	N 	0.60684	0.67359	0.5146	-0.193
Mof_O 	O 	0.4002	0.687	0.67547	-0.368
Mof_O 	O 	0.56967	0.72247	0.68703	-0.371
Mof_N 	N 	0.4498	0.61692	0.5103	-0.19
Mof_C 	C 	0.3862	0.71244	0.746	0.338
Mof_C 	C 	0.3086	0.73188	0.7487	0.002
Mof_C 	C 	0.4771	0.5182	0.8289	-0.14
Mof_C 	C 	0.2853	0.7548	0.8295	-0.141
Mof_C 	C 	0.2595	0.72737	0.6702	-0.141
Mof_H 	H 	0.4625	0.5345	0.8823	0.093
Mof_C 	C 	0.4764	0.46951	0.8273	0.158
Mof_H 	H 	0.3177	0.7577	0.8817	0.093
Mof_C 	C 	0.2147	0.77307	0.8321	0.156
Mof_H 	H 	0.2747	0.7121	0.6159	0.094
Mof_C 	C 	0.1888	0.74569	0.6743	0.157
Mof_N 	N 	0.45305	0.44333	0.9092	-0.157
Mof_N 	N 	0.18918	0.798	0.914	-0.159
Mof_C 	C 	0.1649	0.76969	0.7543	-0.207
Mof_N 	N 	0.1377	0.74308	0.5945	-0.159
Mof_C 	C 	0.4838	0.40182	0.9392	0.102
Mof_C 	C 	0.3931	0.45195	0.9667	0.055
Mof_C 	C 	0.2287	0.82958	0.9705	0.058
Mof_C 	C 	0.1172	0.79859	0.9437	0.106
Mof_H 	H 	0.1174	0.783	0.7557	0.107
Mof_C 	C 	0.0933	0.77901	0.5634	0.103
Mof_C 	C 	0.118	0.70524	0.5389	0.052
Mof_H 	H 	0.5251	0.3882	0.9116	-0.01
Mof_C 	C 	0.3917	0.41386	0.0299	0.071
Mof_C 	C 	0.3401	0.48801	0.9677	-0.082
Mof_C 	C 	0.177	0.84701	0.0341	0.067
Mof_C 	C 	0.3027	0.8451	0.9714	-0.085
Mof_H 	H 	0.0791	0.7807	0.9157	-0.012
Mof_H 	H 	0.0949	0.8087	0.5908	-0.011
Mof_C 	C 	0.0629	0.72163	0.4748	0.08
Mof_C 	C 	0.139	0.659	0.542	-0.079
Mof_C 	C 	0.3377	0.4112	0.099	-0.108
Mof_C 	C 	0.2856	0.4841	0.0349	-0.035
Mof_H 	H 	0.3413	0.5131	0.9257	0.063
Mof_C 	C 	0.1978	0.88053	0.1015	-0.108
Mof_C 	C 	0.3218	0.8792	0.0374	-0.033
Mof_H 	H 	0.3373	0.8333	0.9298	0.063
Mof_C 	C 	0.0291	0.6912	0.4104	-0.133
Mof_H 	H 	0.1755	0.6483	0.5851	0.061
Mof_C 	C 	0.1038	0.6291	0.4785	-0.044
Mof_H 	H 	0.3367	0.3865	0.142	0.08
Mof_C 	C 	0.2858	0.4471	0.1002	-0.011
Mof_H 	H 	0.248	0.5067	0.0368	0.041
Mof_C 	C 	0.2707	0.896	0.1028	-0.013
Mof_H 	H 	0.1637	0.892	0.1441	0.079
Mof_H 	H 	0.3701	0.8913	0.0385	0.04
Mof_C 	C 	0.0509	0.6454	0.4122	0.006
Mof_H 	H 	0.9926	0.7017	0.3672	0.092
Mof_H 	H 	0.1157	0.5973	0.4799	0.043
Mof_H 	H 	0.2495	0.4467	0.1461	0.031
Mof_H 	H 	0.2864	0.918	0.1478	0.032
Mof_H 	H 	0.03	0.6245	0.3682	0.024
Mof_Mn	Mn	0.99782	0.17519	0.89544	0.888
Mof_O 	O 	0.96534	0.11471	0.8148	-0.364
Mof_N 	N 	0.0481	0.23137	0.9922	-0.196
Mof_N 	N 	0.89316	0.17359	0.9854	-0.193
Mof_O 	O 	0.0998	0.187	0.82453	-0.369
Mof_O 	O 	0.93033	0.22247	0.81297	-0.371
Mof_N 	N 	0.0502	0.11692	0.9897	-0.188
Mof_C 	C 	0.1138	0.21244	0.754	0.338
Mof_C 	C 	0.1914	0.23188	0.7513	0.002
Mof_C 	C 	0.0229	0.0182	0.6711	-0.14
Mof_C 	C 	0.2147	0.2548	0.6705	-0.141
Mof_C 	C 	0.2405	0.22737	0.8298	-0.141
Mof_H 	H 	0.0375	0.0345	0.6177	0.092
Mof_C 	C 	0.0236	0.96951	0.6727	0.158
Mof_H 	H 	0.1823	0.2577	0.6183	0.093
Mof_C 	C 	0.2853	0.27307	0.6679	0.156
Mof_H 	H 	0.2253	0.2121	0.8841	0.095
Mof_C 	C 	0.3112	0.24569	0.8257	0.157
Mof_N 	N 	0.04695	0.94333	0.5908	-0.156
Mof_N 	N 	0.31082	0.298	0.586	-0.158
Mof_C 	C 	0.3351	0.26969	0.7457	-0.207
Mof_N 	N 	0.3623	0.24308	0.9055	-0.16
Mof_C 	C 	0.0162	0.90182	0.5608	0.092
Mof_C 	C 	0.1069	0.95195	0.5333	0.054
Mof_C 	C 	0.2713	0.32958	0.5295	0.057
Mof_C 	C 	0.3828	0.29859	0.5563	0.105
Mof_H 	H 	0.3826	0.283	0.7443	0.107
Mof_C 	C 	0.4067	0.27901	0.9366	0.104
Mof_C 	C 	0.382	0.20524	0.9611	0.059
Mof_H 	H 	0.9749	0.8882	0.5884	-0.002
Mof_C 	C 	0.1083	0.91386	0.4701	0.071
Mof_C 	C 	0.1599	0.98801	0.5323	-0.084
Mof_C 	C 	0.323	0.34701	0.4659	0.068
Mof_C 	C 	0.1973	0.3451	0.5286	-0.086
Mof_H 	H 	0.4209	0.2807	0.5843	-0.011
Mof_H 	H 	0.4051	0.3087	0.9092	-0.01
Mof_C 	C 	0.4371	0.22163	0.0252	0.072
Mof_C 	C 	0.361	0.159	0.958	-0.087
Mof_C 	C 	0.1623	0.9112	0.401	-0.108
Mof_C 	C 	0.2144	0.9841	0.4651	-0.034
Mof_H 	H 	0.1587	0.0131	0.5743	0.063
Mof_C 	C 	0.3022	0.38053	0.3985	-0.108
Mof_C 	C 	0.1782	0.3792	0.4626	-0.033
Mof_H 	H 	0.1627	0.3333	0.5702	0.063
Mof_C 	C 	0.4709	0.1912	0.0896	-0.11
Mof_H 	H 	0.3245	0.1483	0.9149	0.064
Mof_C 	C 	0.3962	0.1291	0.0215	-0.033
Mof_H 	H 	0.1633	0.8865	0.358	0.08
Mof_C 	C 	0.2142	0.9471	0.3998	-0.011
Mof_H 	H 	0.252	0.0067	0.4632	0.041
Mof_C 	C 	0.2293	0.396	0.3972	-0.013
Mof_H 	H 	0.3363	0.392	0.3559	0.079
Mof_H 	H 	0.1299	0.3913	0.4615	0.039
Mof_C 	C 	0.4491	0.1454	0.0878	-0.01
Mof_H 	H 	0.5074	0.2017	0.1328	0.079
Mof_H 	H 	0.3843	0.0973	0.0201	0.04
Mof_H 	H 	0.2505	0.9467	0.3539	0.031
Mof_H 	H 	0.2136	0.418	0.3522	0.031
Mof_H 	H 	0.47	0.1245	0.1318	0.031
Mof_Mn	Mn	0.49782	0.67519	0.89544	0.882
Mof_O 	O 	0.46534	0.61471	0.8148	-0.368
Mof_N 	N 	0.5481	0.73137	0.9922	-0.194
Mof_N 	N 	0.39316	0.67359	0.9854	-0.192
Mof_O 	O 	0.5998	0.687	0.82453	-0.368
Mof_O 	O 	0.43033	0.72247	0.81297	-0.372
Mof_N 	N 	0.5502	0.61692	0.9897	-0.19
Mof_C 	C 	0.6138	0.71244	0.754	0.338
Mof_C 	C 	0.6914	0.73188	0.7513	0.003
Mof_C 	C 	0.5229	0.5182	0.6711	-0.14
Mof_C 	C 	0.7147	0.7548	0.6705	-0.141
Mof_C 	C 	0.7405	0.72737	0.8298	-0.142
Mof_H 	H 	0.5375	0.5345	0.6177	0.093
Mof_C 	C 	0.5236	0.46951	0.6727	0.158
Mof_H 	H 	0.6823	0.7577	0.6183	0.093
Mof_C 	C 	0.7853	0.77307	0.6679	0.157
Mof_H 	H 	0.7253	0.7121	0.8841	0.094
Mof_C 	C 	0.8112	0.74569	0.8257	0.158
Mof_N 	N 	0.54695	0.44333	0.5908	-0.157
Mof_N 	N 	0.81082	0.798	0.586	-0.158
Mof_C 	C 	0.8351	0.76969	0.7457	-0.207
Mof_N 	N 	0.8623	0.74308	0.9055	-0.161
Mof_C 	C 	0.5162	0.40182	0.5608	0.102
Mof_C 	C 	0.6069	0.45195	0.5333	0.055
Mof_C 	C 	0.7713	0.82958	0.5295	0.057
Mof_C 	C 	0.8828	0.79859	0.5563	0.105
Mof_H 	H 	0.8826	0.783	0.7443	0.108
Mof_C 	C 	0.9067	0.77901	0.9366	0.102
Mof_C 	C 	0.882	0.70524	0.9611	0.065
Mof_H 	H 	0.4749	0.3882	0.5884	-0.01
Mof_C 	C 	0.6083	0.41386	0.4701	0.071
Mof_C 	C 	0.6599	0.48801	0.5323	-0.083
Mof_C 	C 	0.823	0.84701	0.4659	0.068
Mof_C 	C 	0.6973	0.8451	0.5286	-0.086
Mof_H 	H 	0.9209	0.7807	0.5843	-0.01
Mof_H 	H 	0.9051	0.8087	0.9092	-0.009
Mof_C 	C 	0.9371	0.72163	0.0252	0.064
Mof_C 	C 	0.861	0.659	0.958	-0.1
Mof_C 	C 	0.6623	0.4112	0.401	-0.108
Mof_C 	C 	0.7144	0.4841	0.4651	-0.034
Mof_H 	H 	0.6587	0.5131	0.5743	0.063
Mof_C 	C 	0.8022	0.88053	0.3985	-0.108
Mof_C 	C 	0.6782	0.8792	0.4626	-0.033
Mof_H 	H 	0.6627	0.8333	0.5702	0.063
Mof_C 	C 	0.9709	0.6912	0.0896	-0.083
Mof_H 	H 	0.8245	0.6483	0.9149	0.069
Mof_C 	C 	0.8962	0.6291	0.0215	-0.016
Mof_H 	H 	0.6633	0.3865	0.358	0.08
Mof_C 	C 	0.7142	0.4471	0.3998	-0.011
Mof_H 	H 	0.752	0.5067	0.4632	0.042
Mof_C 	C 	0.7293	0.896	0.3972	-0.013
Mof_H 	H 	0.8363	0.892	0.3559	0.079
Mof_H 	H 	0.6299	0.8913	0.4615	0.04
Mof_C 	C 	0.9491	0.6454	0.0878	-0.029
Mof_H 	H 	0.0074	0.7017	0.1328	0.065
Mof_H 	H 	0.8843	0.5973	0.0201	0.035
Mof_H 	H 	0.7505	0.4467	0.3539	0.032
Mof_H 	H 	0.7136	0.918	0.3522	0.032
Mof_H 	H 	0.97	0.6245	0.1318	0.04
Mof_Mn	Mn	0.99782	0.82481	0.39544	0.89
Mof_O 	O 	0.96534	0.88529	0.3148	-0.363
Mof_N 	N 	0.0481	0.76863	0.4922	-0.197
Mof_N 	N 	0.89316	0.82641	0.4854	-0.192
Mof_O 	O 	0.0998	0.813	0.32453	-0.37
Mof_O 	O 	0.93033	0.77753	0.31297	-0.371
Mof_N 	N 	0.0502	0.88308	0.4897	-0.19
Mof_C 	C 	0.1138	0.78756	0.254	0.338
Mof_C 	C 	0.1914	0.76812	0.2513	0.002
Mof_C 	C 	0.0229	0.9818	0.1711	-0.14
Mof_C 	C 	0.2147	0.7452	0.1705	-0.141
Mof_C 	C 	0.2405	0.77263	0.3298	-0.141
Mof_H 	H 	0.0375	0.9655	0.1177	0.092
Mof_C 	C 	0.0236	0.03049	0.1727	0.158
Mof_H 	H 	0.1823	0.7423	0.1183	0.093
Mof_C 	C 	0.2853	0.72693	0.1679	0.156
Mof_H 	H 	0.2253	0.7879	0.3841	0.094
Mof_C 	C 	0.3112	0.75431	0.3257	0.157
Mof_N 	N 	0.04695	0.05667	0.0908	-0.156
Mof_N 	N 	0.31082	0.702	0.086	-0.158
Mof_C 	C 	0.3351	0.73031	0.2457	-0.207
Mof_N 	N 	0.3623	0.75692	0.4055	-0.16
Mof_C 	C 	0.0162	0.09818	0.0608	0.087
Mof_C 	C 	0.1069	0.04805	0.0333	0.054
Mof_C 	C 	0.2713	0.67042	0.0295	0.057
Mof_C 	C 	0.3828	0.70141	0.0563	0.105
Mof_H 	H 	0.3826	0.717	0.2443	0.107
Mof_C 	C 	0.4067	0.72099	0.4366	0.104
Mof_C 	C 	0.382	0.79476	0.4611	0.059
Mof_H 	H 	0.9749	0.1118	0.0884	0.001
Mof_C 	C 	0.1083	0.08614	0.9701	0.072
Mof_C 	C 	0.1599	0.01199	0.0323	-0.086
Mof_C 	C 	0.323	0.65299	0.9659	0.068
Mof_C 	C 	0.1973	0.6549	0.0286	-0.088
Mof_H 	H 	0.4209	0.7193	0.0843	-0.011
Mof_H 	H 	0.4051	0.6913	0.4092	-0.01
Mof_C 	C 	0.4371	0.77837	0.5252	0.072
Mof_C 	C 	0.361	0.841	0.458	-0.088
Mof_C 	C 	0.1623	0.0888	0.901	-0.108
Mof_C 	C 	0.2144	0.0159	0.9651	-0.032
Mof_H 	H 	0.1587	0.9869	0.0743	0.063
Mof_C 	C 	0.3022	0.61947	0.8985	-0.107
Mof_C 	C 	0.1782	0.6208	0.9626	-0.03
Mof_H 	H 	0.1627	0.6667	0.0702	0.063
Mof_C 	C 	0.4709	0.8088	0.5896	-0.11
Mof_H 	H 	0.3245	0.8517	0.4149	0.064
Mof_C 	C 	0.3962	0.8709	0.5215	-0.032
Mof_H 	H 	0.1633	0.1135	0.858	0.08
Mof_C 	C 	0.2142	0.0529	0.8998	-0.012
Mof_H 	H 	0.252	0.9933	0.9632	0.041
Mof_C 	C 	0.2293	0.604	0.8972	-0.014
Mof_H 	H 	0.3363	0.608	0.8559	0.079
Mof_H 	H 	0.1299	0.6087	0.9615	0.039
Mof_C 	C 	0.4491	0.8546	0.5878	-0.01
Mof_H 	H 	0.5074	0.7983	0.6328	0.079
Mof_H 	H 	0.3843	0.9027	0.5201	0.04
Mof_H 	H 	0.2505	0.0533	0.8539	0.032
Mof_H 	H 	0.2136	0.582	0.8522	0.032
Mof_H 	H 	0.47	0.8755	0.6318	0.031
Mof_Mn	Mn	0.49782	0.32481	0.39544	0.882
Mof_O 	O 	0.46534	0.38529	0.3148	-0.368
Mof_N 	N 	0.5481	0.26863	0.4922	-0.194
Mof_N 	N 	0.39316	0.32641	0.4854	-0.193
Mof_O 	O 	0.5998	0.313	0.32453	-0.368
Mof_O 	O 	0.43033	0.27753	0.31297	-0.372
Mof_N 	N 	0.5502	0.38308	0.4897	-0.19
Mof_C 	C 	0.6138	0.28756	0.254	0.338
Mof_C 	C 	0.6914	0.26812	0.2513	0.003
Mof_C 	C 	0.5229	0.4818	0.1711	-0.14
Mof_C 	C 	0.7147	0.2452	0.1705	-0.142
Mof_C 	C 	0.7405	0.27263	0.3298	-0.142
Mof_H 	H 	0.5375	0.4655	0.1177	0.093
Mof_C 	C 	0.5236	0.53049	0.1727	0.158
Mof_H 	H 	0.6823	0.2423	0.1183	0.093
Mof_C 	C 	0.7853	0.22693	0.1679	0.157
Mof_H 	H 	0.7253	0.2879	0.3841	0.095
Mof_C 	C 	0.8112	0.25431	0.3257	0.158
Mof_N 	N 	0.54695	0.55667	0.0908	-0.157
Mof_N 	N 	0.81082	0.202	0.086	-0.159
Mof_C 	C 	0.8351	0.23031	0.2457	-0.207
Mof_N 	N 	0.8623	0.25692	0.4055	-0.161
Mof_C 	C 	0.5162	0.59818	0.0608	0.103
Mof_C 	C 	0.6069	0.54805	0.0333	0.055
Mof_C 	C 	0.7713	0.17042	0.0295	0.058
Mof_C 	C 	0.8828	0.20141	0.0563	0.107
Mof_H 	H 	0.8826	0.217	0.2443	0.108
Mof_C 	C 	0.9067	0.22099	0.4366	0.105
Mof_C 	C 	0.882	0.29476	0.4611	0.064
Mof_H 	H 	0.4749	0.6118	0.0884	-0.01
Mof_C 	C 	0.6083	0.58614	0.9701	0.071
Mof_C 	C 	0.6599	0.51199	0.0323	-0.082
Mof_C 	C 	0.823	0.15299	0.9659	0.067
Mof_C 	C 	0.6973	0.1549	0.0286	-0.085
Mof_H 	H 	0.9209	0.2193	0.0843	-0.01
Mof_H 	H 	0.9051	0.1913	0.4092	-0.009
Mof_C 	C 	0.9371	0.27837	0.5252	0.065
Mof_C 	C 	0.861	0.341	0.458	-0.095
Mof_C 	C 	0.6623	0.5888	0.901	-0.108
Mof_C 	C 	0.7144	0.5159	0.9651	-0.035
Mof_H 	H 	0.6587	0.4869	0.0743	0.063
Mof_C 	C 	0.8022	0.11947	0.8985	-0.108
Mof_C 	C 	0.6782	0.1208	0.9626	-0.034
Mof_H 	H 	0.6627	0.1667	0.0702	0.063
Mof_C 	C 	0.9709	0.3088	0.5896	-0.09
Mof_H 	H 	0.8245	0.3517	0.4149	0.067
Mof_C 	C 	0.8962	0.3709	0.5215	-0.022
Mof_H 	H 	0.6633	0.6135	0.858	0.08
Mof_C 	C 	0.7142	0.5529	0.8998	-0.011
Mof_H 	H 	0.752	0.4933	0.9632	0.042
Mof_C 	C 	0.7293	0.104	0.8972	-0.013
Mof_H 	H 	0.8363	0.108	0.8559	0.079
Mof_H 	H 	0.6299	0.1087	0.9615	0.04
Mof_C 	C 	0.9491	0.3546	0.5878	-0.024
Mof_H 	H 	0.0074	0.2983	0.6328	0.069
Mof_H 	H 	0.8843	0.4027	0.5201	0.037
Mof_H 	H 	0.7505	0.5533	0.8539	0.031
Mof_H 	H 	0.7136	0.082	0.8522	0.032
Mof_H 	H 	0.97	0.3755	0.6318	0.038
Mof_Mn	Mn	0.00218	0.82481	0.10456	0.873
Mof_O 	O 	0.03466	0.88529	0.1852	-0.368
Mof_N 	N 	0.9519	0.76863	0.0078	-0.189
Mof_N 	N 	0.10684	0.82641	0.0146	-0.193
Mof_O 	O 	0.9002	0.813	0.17547	-0.365
Mof_O 	O 	0.06967	0.77753	0.18703	-0.372
Mof_N 	N 	0.9498	0.88308	0.0103	-0.188
Mof_C 	C 	0.8862	0.78756	0.246	0.337
Mof_C 	C 	0.8086	0.76812	0.2487	0.003
Mof_C 	C 	0.9771	0.9818	0.3289	-0.134
Mof_C 	C 	0.7853	0.7452	0.3295	-0.141
Mof_C 	C 	0.7595	0.77263	0.1702	-0.142
Mof_H 	H 	0.9625	0.9655	0.3823	0.093
Mof_C 	C 	0.9764	0.03049	0.3273	0.165
Mof_H 	H 	0.8177	0.7423	0.3817	0.093
Mof_C 	C 	0.7147	0.72693	0.3321	0.157
Mof_H 	H 	0.7747	0.7879	0.1159	0.095
Mof_C 	C 	0.6888	0.75431	0.1743	0.157
Mof_N 	N 	0.95305	0.05667	0.4092	-0.159
Mof_N 	N 	0.68918	0.702	0.414	-0.158
Mof_C 	C 	0.6649	0.73031	0.2543	-0.207
Mof_N 	N 	0.6377	0.75692	0.0945	-0.16
Mof_C 	C 	0.9838	0.09818	0.4392	0.115
Mof_C 	C 	0.8931	0.04805	0.4667	0.056
Mof_C 	C 	0.7287	0.67042	0.4705	0.057
Mof_C 	C 	0.6172	0.70141	0.4437	0.105
Mof_H 	H 	0.6174	0.717	0.2557	0.107
Mof_C 	C 	0.5933	0.72099	0.0634	0.104
Mof_C 	C 	0.618	0.79476	0.0389	0.059
Mof_H 	H 	0.0251	0.1118	0.4116	-0.018
Mof_C 	C 	0.8917	0.08614	0.5299	0.071
Mof_C 	C 	0.8401	0.01199	0.4677	-0.084
Mof_C 	C 	0.677	0.65299	0.5341	0.068
Mof_C 	C 	0.8027	0.6549	0.4714	-0.085
Mof_H 	H 	0.5791	0.7193	0.4157	-0.011
Mof_H 	H 	0.5949	0.6913	0.0908	-0.01
Mof_C 	C 	0.5629	0.77837	0.9748	0.072
Mof_C 	C 	0.639	0.841	0.042	-0.087
Mof_C 	C 	0.8377	0.0888	0.599	-0.107
Mof_C 	C 	0.7856	0.0159	0.5349	-0.033
Mof_H 	H 	0.8413	0.9869	0.4257	0.063
Mof_C 	C 	0.6978	0.61947	0.6015	-0.108
Mof_C 	C 	0.8218	0.6208	0.5374	-0.033
Mof_H 	H 	0.8373	0.6667	0.4298	0.064
Mof_C 	C 	0.5291	0.8088	0.9104	-0.11
Mof_H 	H 	0.6755	0.8517	0.0851	0.064
Mof_C 	C 	0.6038	0.8709	0.9785	-0.034
Mof_H 	H 	0.8367	0.1135	0.642	0.08
Mof_C 	C 	0.7858	0.0529	0.6002	-0.011
Mof_H 	H 	0.748	0.9933	0.5368	0.041
Mof_C 	C 	0.7707	0.604	0.6028	-0.013
Mof_H 	H 	0.6637	0.608	0.6441	0.079
Mof_H 	H 	0.8701	0.6087	0.5385	0.041
Mof_C 	C 	0.5509	0.8546	0.9122	-0.01
Mof_H 	H 	0.4926	0.7983	0.8672	0.079
Mof_H 	H 	0.6157	0.9027	0.9799	0.04
Mof_H 	H 	0.7495	0.0533	0.6461	0.032
Mof_H 	H 	0.7864	0.582	0.6478	0.032
Mof_H 	H 	0.53	0.8755	0.8682	0.031
Mof_Mn	Mn	0.50218	0.32481	0.10456	0.882
Mof_O 	O 	0.53466	0.38529	0.1852	-0.368
Mof_N 	N 	0.4519	0.26863	0.0078	-0.194
Mof_N 	N 	0.60684	0.32641	0.0146	-0.192
Mof_O 	O 	0.4002	0.313	0.17547	-0.368
Mof_O 	O 	0.56967	0.27753	0.18703	-0.371
Mof_N 	N 	0.4498	0.38308	0.0103	-0.19
Mof_C 	C 	0.3862	0.28756	0.246	0.338
Mof_C 	C 	0.3086	0.26812	0.2487	0.002
Mof_C 	C 	0.4771	0.4818	0.3289	-0.14
Mof_C 	C 	0.2853	0.2452	0.3295	-0.141
Mof_C 	C 	0.2595	0.27263	0.1702	-0.141
Mof_H 	H 	0.4625	0.4655	0.3823	0.093
Mof_C 	C 	0.4764	0.53049	0.3273	0.158
Mof_H 	H 	0.3177	0.2423	0.3817	0.093
Mof_C 	C 	0.2147	0.22693	0.3321	0.156
Mof_H 	H 	0.2747	0.2879	0.1159	0.094
Mof_C 	C 	0.1888	0.25431	0.1743	0.156
Mof_N 	N 	0.45305	0.55667	0.4092	-0.157
Mof_N 	N 	0.18918	0.202	0.414	-0.158
Mof_C 	C 	0.1649	0.23031	0.2543	-0.206
Mof_N 	N 	0.1377	0.25692	0.0945	-0.159
Mof_C 	C 	0.4838	0.59818	0.4392	0.102
Mof_C 	C 	0.3931	0.54805	0.4667	0.055
Mof_C 	C 	0.2287	0.17042	0.4705	0.057
Mof_C 	C 	0.1172	0.20141	0.4437	0.105
Mof_H 	H 	0.1174	0.217	0.2557	0.106
Mof_C 	C 	0.0933	0.22099	0.0634	0.101
Mof_C 	C 	0.118	0.29476	0.0389	0.053
Mof_H 	H 	0.5251	0.6118	0.4116	-0.01
Mof_C 	C 	0.3917	0.58614	0.5299	0.071
Mof_C 	C 	0.3401	0.51199	0.4677	-0.084
Mof_C 	C 	0.177	0.15299	0.5341	0.068
Mof_C 	C 	0.3027	0.1549	0.4714	-0.086
Mof_H 	H 	0.0791	0.2193	0.4157	-0.012
Mof_H 	H 	0.0949	0.1913	0.0908	-0.01
Mof_C 	C 	0.0629	0.27837	0.9748	0.079
Mof_C 	C 	0.139	0.341	0.042	-0.084
Mof_C 	C 	0.3377	0.5888	0.599	-0.108
Mof_C 	C 	0.2856	0.5159	0.5349	-0.034
Mof_H 	H 	0.3413	0.4869	0.4257	0.063
Mof_C 	C 	0.1978	0.11947	0.6015	-0.108
Mof_C 	C 	0.3218	0.1208	0.5374	-0.033
Mof_H 	H 	0.3373	0.1667	0.4298	0.063
Mof_C 	C 	0.0291	0.3088	0.9104	-0.126
Mof_H 	H 	0.1755	0.3517	0.0851	0.063
Mof_C 	C 	0.1038	0.3709	0.9785	-0.038
Mof_H 	H 	0.3367	0.6135	0.642	0.08
Mof_C 	C 	0.2858	0.5529	0.6002	-0.011
Mof_H 	H 	0.248	0.4933	0.5368	0.041
Mof_C 	C 	0.2707	0.104	0.6028	-0.013
Mof_H 	H 	0.1637	0.108	0.6441	0.079
Mof_H 	H 	0.3701	0.1087	0.5385	0.04
Mof_C 	C 	0.0509	0.3546	0.9122	0
Mof_H 	H 	0.9926	0.2983	0.8672	0.088
Mof_H 	H 	0.1157	0.4027	0.9799	0.042
Mof_H 	H 	0.2495	0.5533	0.6461	0.031
Mof_H 	H 	0.2864	0.082	0.6478	0.032
Mof_H 	H 	0.03	0.3755	0.8682	0.026
Mof_C 	C 	2.29041e-33	0.0946	0.75	0.328
Mof_C 	C 	2.29041e-33	0.0422	0.75	0
Mof_C 	C 	2.29041e-33	0.9445	0.75	-0.22
Mof_H 	H 	1.97569e-18	0.9118	0.75	0.11
Mof_C 	C 	0.5	0.5946	0.75	0.333
Mof_C 	C 	0.5	0.5422	0.75	0.004
Mof_C 	C 	0.5	0.4445	0.75	-0.213
Mof_H 	H 	0.5	0.4118	0.75	0.11
Mof_C 	C 	9.87844e-19	0.9054	0.25	0.327
Mof_C 	C 	-9.87844e-19	0.9578	0.25	-0.001
Mof_C 	C 	9.87844e-19	0.0555	0.25	-0.222
Mof_H 	H 	7.63469e-34	0.0882	0.25	0.111
Mof_C 	C 	0.5	0.4054	0.25	0.333
Mof_C 	C 	0.5	0.4578	0.25	0.004
Mof_C 	C 	0.5	0.5555	0.25	-0.213
Mof_H 	H 	0.5	0.5882	0.25	0.11
_end
