data_functionalizedCrystal
_audit_creation_method	'EQeq! by Chris Wilmer'
_symmetry_space_group_name_H-M	'P1'
_symmetry_Int_Tables_number	1
_symmetry_cell_setting	triclinic
loop_
_symmetry_equiv_pos_as_xyz
  x,y,z
_cell_length_a	12.4225
_cell_length_b	12.9981
_cell_length_c	14.779
_cell_angle_alpha	64.384
_cell_angle_beta	80.885
_cell_angle_gamma	79.562
loop_
_atom_site_label
_atom_site_type_symbol
_atom_site_fract_x
_atom_site_fract_y
_atom_site_fract_z
_atom_site_charge
Mof_Ni	Ni	0.22886	0.21634	0.21228	1.065
Mof_O 	O 	0.43991	0.2065	0.64687	-0.406
Mof_N 	N 	0.28829	0.07016	0.34483	-0.108
Mof_C 	C 	0.37072	0.17741	0.61139	0.34
Mof_Ni	Ni	0.44943	0.17556	0.79524	1.094
Mof_O 	O 	0.27609	0.1537	0.65467	-0.324
Mof_N 	N 	0.7482	0.317	0.0419	-0.126
Mof_C 	C 	0.4029	0.1666	0.5131	-0.08
Mof_Ni	Ni	0.80975	0.15484	0.1629	1.073
Mof_O 	O 	0.7234	0.2008	0.3668	-0.292
Mof_N 	N 	0.8973	0.6812	0.2632	-0.238
Mof_C 	C 	0.5081	0.1838	0.4662	0.024
Mof_Ni	Ni	0.84687	0.78284	0.11979	1.069
Mof_O 	O 	0.67748	0.1393	0.26069	-0.426
Mof_C 	C 	0.5412	0.158	0.3833	-0.074
Mof_O 	O 	0.47445	0.99093	0.16385	-0.439
Mof_C 	C 	0.4688	0.119	0.3461	-0.025
Mof_O 	O 	0.33399	0.12858	0.13884	-0.423
Mof_C 	C 	0.3616	0.1053	0.3906	0.017
Mof_O 	O 	0.0282	0.971	0.3795	-0.288
Mof_C 	C 	0.3293	0.1286	0.475	-0.024
Mof_O 	O 	0.10403	0.1146	0.25306	-0.448
Mof_C 	C 	0.6564	0.1679	0.3332	0.337
Mof_O 	O 	0.35228	0.3124	0.1746	-0.422
Mof_C 	C 	0.1874	0.0277	0.4083	-0.344
Mof_O 	O 	0.3084	0.4383	0.2439	-0.29
Mof_C 	C 	0.1003	0.0362	0.3419	0.376
Mof_O 	O 	0.61182	0.65982	0.22845	-0.425
Mof_C 	C 	0.3466	0.9835	0.306	-0.393
Mof_O 	O 	0.75495	0.66884	0.11274	-0.416
Mof_C 	C 	0.3895	0.0383	0.1949	0.422
Mof_O 	O 	0.94072	0.17233	0.05595	-0.474
Mof_C 	C 	0.3739	0.3889	0.1966	0.332
Mof_O 	O 	0.02277	0.30818	0.92558	-0.443
Mof_C 	C 	0.6684	0.6283	0.1638	0.346
Mof_O 	O 	0.7374	0.08855	0.08943	-0.468
Mof_C 	C 	0.5225	0.5094	0.1779	0.019
Mof_O 	O 	0.6947	0.1249	0.9386	-0.318
Mof_C 	C 	0.6298	0.535	0.1469	-0.084
Mof_C 	C 	0.7023	0.4746	0.0995	-0.038
Mof_C 	C 	0.6702	0.3874	0.084	0.03
Mof_C 	C 	0.5627	0.3623	0.1147	-0.049
Mof_C 	C 	0.4888	0.4227	0.1618	-0.067
Mof_O 	O 	0.28945	0.12953	0.83037	-1.006
Mof_C 	C 	0.852	0.3667	0.9936	-0.323
Mof_C 	C 	0.9442	0.2733	0.9914	0.394
Mof_C 	C 	0.7017	0.2853	0.9718	-0.271
Mof_C 	C 	0.7128	0.157	0.0018	0.382
Mof_C 	C 	0.9783	0.5387	0.4503	0.054
Mof_H 	H 	0.2593	0.1549	0.7749	0.358
Mof_H 	H 	0.2907	0.0585	0.8585	0.422
Mof_H 	H 	0.2963	0.9375	0.3034	0.146
Mof_H 	H 	0.4044	0.9339	0.3443	0.163
Mof_H 	H 	0.1544	0.0717	0.4408	0.144
Mof_H 	H 	0.2052	0.9445	0.4646	0.147
Mof_H 	H 	0.6217	0.3157	0.962	0.109
Mof_H 	H 	0.733	0.3271	0.8995	0.112
Mof_H 	H 	0.8751	0.3944	0.032	0.124
Mof_H 	H 	0.8324	0.4184	0.9137	0.113
Mof_H 	H 	0.5392	0.3003	0.1093	0.068
Mof_H 	H 	0.4967	0.1043	0.2822	0.059
Mof_H 	H 	0.2531	0.1109	0.5141	0.046
Mof_H 	H 	0.5595	0.2004	0.5005	0.041
Mof_H 	H 	0.7775	0.4902	0.0851	0.04
Mof_H 	H 	0.4642	0.5467	0.2192	0.034
Mof_C 	C 	0.83409	0.61806	0.3406	0.088
Mof_C 	C 	0.87149	0.54725	0.4337	-0.13
Mof_C 	C 	0.00169	0.67746	0.28	0.056
Mof_C 	C 	0.04609	0.60845	0.3705	-0.103
Mof_H 	H 	0.8174	0.5123	0.4844	0.082
Mof_H 	H 	0.1196	0.6213	0.3776	0.064
Mof_H 	H 	0.7604	0.6349	0.3334	0.002
Mof_H 	H 	0.0601	0.7236	0.2208	-0.004
Mof_Ni	Ni	0.77114	0.78366	0.78772	1.064
Mof_O 	O 	0.56009	0.7935	0.35313	-0.407
Mof_N 	N 	0.71171	0.92984	0.65517	-0.109
Mof_C 	C 	0.62928	0.82259	0.38861	0.339
Mof_Ni	Ni	0.55057	0.82444	0.20476	1.093
Mof_O 	O 	0.72391	0.8463	0.34533	-0.325
Mof_N 	N 	0.2518	0.683	0.9581	-0.126
Mof_C 	C 	0.5971	0.8334	0.4869	-0.08
Mof_Ni	Ni	0.19025	0.84516	0.8371	1.073
Mof_O 	O 	0.2766	0.7992	0.6332	-0.292
Mof_N 	N 	0.1027	0.3188	0.7368	-0.238
Mof_C 	C 	0.4919	0.8162	0.5338	0.024
Mof_Ni	Ni	0.15313	0.21716	0.88021	1.069
Mof_O 	O 	0.32252	0.8607	0.73931	-0.426
Mof_C 	C 	0.4588	0.842	0.6167	-0.074
Mof_O 	O 	0.52555	0.00907	0.83615	-0.439
Mof_C 	C 	0.5312	0.881	0.6539	-0.025
Mof_O 	O 	0.66601	0.87142	0.86116	-0.423
Mof_C 	C 	0.6384	0.8947	0.6094	0.017
Mof_O 	O 	0.9718	0.029	0.6205	-0.288
Mof_C 	C 	0.6707	0.8714	0.525	-0.024
Mof_O 	O 	0.89597	0.8854	0.74694	-0.448
Mof_C 	C 	0.3436	0.8321	0.6668	0.337
Mof_O 	O 	0.64772	0.6876	0.8254	-0.422
Mof_C 	C 	0.8126	0.9723	0.5917	-0.344
Mof_O 	O 	0.6916	0.5617	0.7561	-0.29
Mof_C 	C 	0.8997	0.9638	0.6581	0.376
Mof_O 	O 	0.38818	0.34018	0.77155	-0.425
Mof_C 	C 	0.6534	0.0165	0.694	-0.393
Mof_O 	O 	0.24505	0.33116	0.88726	-0.416
Mof_C 	C 	0.6105	0.9617	0.8051	0.422
Mof_O 	O 	0.05928	0.82767	0.94405	-0.474
Mof_C 	C 	0.6261	0.6111	0.8034	0.332
Mof_O 	O 	0.97723	0.69182	0.07442	-0.443
Mof_C 	C 	0.3316	0.3717	0.8362	0.346
Mof_O 	O 	0.2626	0.91145	0.91057	-0.468
Mof_C 	C 	0.4775	0.4906	0.8221	0.019
Mof_O 	O 	0.3053	0.8751	0.0614	-0.318
Mof_C 	C 	0.3702	0.465	0.8531	-0.084
Mof_C 	C 	0.2977	0.5254	0.9005	-0.038
Mof_C 	C 	0.3298	0.6126	0.916	0.03
Mof_C 	C 	0.4373	0.6377	0.8853	-0.049
Mof_C 	C 	0.5112	0.5773	0.8382	-0.067
Mof_O 	O 	0.71055	0.87047	0.16963	-1.006
Mof_C 	C 	0.148	0.6333	0.0064	-0.323
Mof_C 	C 	0.0558	0.7267	0.0086	0.394
Mof_C 	C 	0.2983	0.7147	0.0282	-0.271
Mof_C 	C 	0.2872	0.843	0.9982	0.382
Mof_C 	C 	0.0217	0.4613	0.5497	0.054
Mof_H 	H 	0.7407	0.8451	0.2251	0.358
Mof_H 	H 	0.7093	0.9415	0.1415	0.422
Mof_H 	H 	0.7037	0.0625	0.6966	0.146
Mof_H 	H 	0.5956	0.0661	0.6557	0.163
Mof_H 	H 	0.8456	0.9283	0.5592	0.144
Mof_H 	H 	0.7948	0.0555	0.5354	0.147
Mof_H 	H 	0.3783	0.6843	0.038	0.109
Mof_H 	H 	0.267	0.6729	0.1005	0.112
Mof_H 	H 	0.1249	0.6056	0.968	0.124
Mof_H 	H 	0.1676	0.5816	0.0863	0.113
Mof_H 	H 	0.4608	0.6997	0.8907	0.068
Mof_H 	H 	0.5033	0.8957	0.7178	0.059
Mof_H 	H 	0.7469	0.8891	0.4859	0.046
Mof_H 	H 	0.4405	0.7996	0.4995	0.041
Mof_H 	H 	0.2225	0.5098	0.9149	0.04
Mof_H 	H 	0.5358	0.4533	0.7808	0.034
Mof_C 	C 	0.16591	0.38194	0.6594	0.088
Mof_C 	C 	0.12851	0.45275	0.5663	-0.13
Mof_C 	C 	0.99831	0.32254	0.72	0.056
Mof_C 	C 	0.95391	0.39155	0.6295	-0.103
Mof_H 	H 	0.1826	0.4877	0.5156	0.082
Mof_H 	H 	0.8804	0.3787	0.6224	0.064
Mof_H 	H 	0.2396	0.3651	0.6666	0.002
Mof_H 	H 	0.9399	0.2764	0.7792	-0.004
_end
