data_functionalizedCrystal
_audit_creation_method	'EQeq! by Chris Wilmer'
_symmetry_space_group_name_H-M	'P1'
_symmetry_Int_Tables_number	1
_symmetry_cell_setting	triclinic
loop_
_symmetry_equiv_pos_as_xyz
  x,y,z
_cell_length_a	26.0338
_cell_length_b	26.3415
_cell_length_c	27.5327
_cell_angle_alpha	90
_cell_angle_beta	97.836
_cell_angle_gamma	90
loop_
_atom_site_label
_atom_site_type_symbol
_atom_site_fract_x
_atom_site_fract_y
_atom_site_fract_z
_atom_site_charge
Mof_C 	C 	0.79067	0.3163	0.14808	0.411
Mof_C 	C 	0.83598	0.34219	0.13135	-0.191
Mof_C 	C 	0.8638	0.3203	0.0978	0.123
Mof_H 	H 	0.8547	0.2873	0.0858	0.005
Mof_C 	C 	0.9048	0.3455	0.0813	-0.211
Mof_H 	H 	0.9235	0.33	0.0579	0.115
Mof_C 	C 	0.9184	0.39411	0.09934	0.203
Mof_C 	C 	0.8909	0.41562	0.13403	-0.218
Mof_H 	H 	0.9003	0.4481	0.1472	0.102
Mof_C 	C 	0.84967	0.38955	0.14933	0.123
Mof_H 	H 	0.8306	0.4047	0.1726	0.003
Mof_C 	C 	0.9891	0.4169	0.04985	0.2
Mof_C 	C 	0.10244	0.1735	0.64298	0.411
Mof_C 	C 	0.0671	0.1461	0.60518	-0.184
Mof_C 	C 	0.0816	0.0995	0.58818	0.12
Mof_H 	H 	0.1118	0.0831	0.6042	0.008
Mof_C 	C 	0.0527	0.0763	0.5482	-0.206
Mof_H 	H 	0.0631	0.0443	0.5369	0.115
Mof_C 	C 	0.0089	0.1	0.52481	0.199
Mof_C 	C 	0.9921	0.1457	0.54385	-0.21
Mof_H 	H 	0.9607	0.161	0.5294	0.096
Mof_C 	C 	0.0213	0.1681	0.58336	0.12
Mof_H 	H 	0.01	0.1992	0.5959	0.002
Mof_C 	C 	0.1552	0.65954	0.12388	0.422
Mof_C 	C 	0.1379	0.61452	0.09253	-0.187
Mof_C 	C 	0.0907	0.59205	0.0973	0.12
Mof_H 	H 	0.0697	0.606	0.1196	0.007
Mof_C 	C 	0.0736	0.5498	0.0702	-0.206
Mof_H 	H 	0.0408	0.5353	0.0735	0.115
Mof_C 	C 	0.1045	0.52835	0.03793	0.201
Mof_C 	C 	0.15031	0.55338	0.0308	-0.216
Mof_H 	H 	0.1701	0.5414	0.0066	0.102
Mof_C 	C 	0.16672	0.59469	0.05825	0.128
Mof_H 	H 	0.1987	0.6103	0.0538	0.003
Mof_C 	C 	0.0531	0.4505	0.0135	0.199
Mof_C 	C 	0.1888	0.8425	0.3005	0.417
Mof_C 	C 	0.1636	0.8761	0.33398	-0.206
Mof_C 	C 	0.1394	0.919	0.31777	0.147
Mof_H 	H 	0.1389	0.9287	0.2845	-0.005
Mof_C 	C 	0.1151	0.9495	0.3488	-0.233
Mof_H 	H 	0.0982	0.9798	0.3366	0.118
Mof_C 	C 	0.1154	0.9363	0.39743	0.229
Mof_C 	C 	0.1394	0.8937	0.41409	-0.244
Mof_H 	H 	0.1409	0.885	0.4477	0.105
Mof_C 	C 	0.1622	0.8616	0.3826	0.137
Mof_H 	H 	0.1768	0.8301	0.3942	-0.013
Mof_C 	C 	0.7941	0.15335	0.2378	0.403
Mof_C 	C 	0.83405	0.1169	0.2588	-0.195
Mof_C 	C 	0.8386	0.1064	0.3089	0.118
Mof_H 	H 	0.8151	0.1217	0.328	-0.015
Mof_C 	C 	0.8767	0.0743	0.3312	-0.211
Mof_H 	H 	0.8785	0.0671	0.3652	0.109
Mof_C 	C 	0.9126	0.0524	0.30386	0.201
Mof_C 	C 	0.9061	0.0606	0.25363	-0.214
Mof_H 	H 	0.9282	0.0439	0.2341	0.1
Mof_C 	C 	0.86732	0.0931	0.2312	0.122
Mof_H 	H 	0.864	0.0989	0.1969	0.004
Mof_C 	C 	0.9796	0.0215	0.37037	0.2
Mof_C 	C 	0.9943	0.05	0.4473	0.2
Mof_C 	C 	0.0491	0.9953	0.42	0.199
Mof_C 	C 	0.11366	0.297	0.78977	0.39
Mof_C 	C 	0.08581	0.30774	0.83232	-0.167
Mof_C 	C 	0.03424	0.29279	0.83358	0.101
Mof_H 	H 	0.0159	0.2753	0.8064	0.02
Mof_C 	C 	0.00985	0.30327	0.87403	-0.196
Mof_H 	H 	0.9749	0.2931	0.8744	0.098
Mof_C 	C 	0.03641	0.3287	0.91418	0.186
Mof_C 	C 	0.08818	0.3433	0.91343	-0.197
Mof_H 	H 	0.1068	0.3605	0.9406	0.104
Mof_C 	C 	0.11173	0.33239	0.87261	0.104
Mof_H 	H 	0.1468	0.3421	0.8723	0
Mof_C 	C 	0.0171	0.3766	0.98723	0.194
Mof_N 	N 	0.95866	0.42313	0.08632	-0.245
Mof_H 	H 	0.966	0.4503	0.1046	0.131
Mof_N 	N 	0.98465	0.37625	0.0217	-0.178
Mof_N 	N 	0.02281	0.45594	0.04836	-0.178
Mof_N 	N 	0.9801	0.0827	0.48123	-0.243
Mof_H 	H 	0.9484	0.0948	0.4749	0.126
Mof_N 	N 	0.09078	0.48556	0.00907	-0.245
Mof_H 	H 	0.1089	0.4805	0.9848	0.132
Mof_N 	N 	0.0928	0.9669	0.43019	-0.25
Mof_H 	H 	0.1084	0.9678	0.4606	0.131
Mof_N 	N 	0.95316	0.0215	0.32369	-0.246
Mof_H 	H 	0.9634	0.9988	0.3036	0.132
Mof_N 	N 	0.96283	0.0506	0.40452	-0.182
Mof_N 	N 	0.0374	0.023	0.45787	-0.179
Mof_N 	N 	0.02229	0.9937	0.37452	-0.178
Mof_N 	N 	0.01075	0.3369	0.95536	-0.242
Mof_H 	H 	0.9881	0.3137	0.9611	0.131
Mof_N 	N 	0.05206	0.41236	0.98129	-0.18
Mof_O 	O 	0.78214	0.26989	0.13624	-0.496
Mof_O 	O 	0.76512	0.34184	0.17451	-0.521
Mof_O 	O 	0.14664	0.15311	0.65657	-0.495
Mof_O 	O 	0.0878	0.21461	0.65957	-0.503
Mof_O 	O 	0.12604	0.67298	0.15422	-0.509
Mof_O 	O 	0.19813	0.67925	0.11908	-0.496
Mof_O 	O 	0.19764	0.86259	0.26061	-0.511
Mof_O 	O 	0.1966	0.79704	0.31232	-0.524
Mof_O 	O 	0.79574	0.16968	0.1946	-0.489
Mof_O 	O 	0.75912	0.16502	0.26228	-0.519
Mof_O 	O 	0.08759	0.27886	0.75094	-0.47
Mof_O 	O 	0.16055	0.30856	0.79306	-0.485
Mof_O 	O 	0.70014	0.25091	0.21252	-0.954
Mof_Zn	Zn	0.74273	0.21856	0.16981	1.21
Mof_Zn	Zn	0.70441	0.32245	0.20383	1.211
Mof_Zn	Zn	0.72724	0.23276	0.28301	1.177
Mof_Zn	Zn	0.62854	0.23228	0.19771	1.217
Mof_C 	C 	0.29067	0.8163	0.14808	0.41
Mof_C 	C 	0.33598	0.84219	0.13135	-0.192
Mof_C 	C 	0.3638	0.8203	0.0978	0.122
Mof_H 	H 	0.3547	0.7873	0.0858	0.004
Mof_C 	C 	0.4048	0.8455	0.0813	-0.212
Mof_H 	H 	0.4235	0.83	0.0579	0.114
Mof_C 	C 	0.4184	0.89411	0.09934	0.202
Mof_C 	C 	0.3909	0.91562	0.13403	-0.219
Mof_H 	H 	0.4003	0.9481	0.1472	0.101
Mof_C 	C 	0.34967	0.88955	0.14933	0.122
Mof_H 	H 	0.3306	0.9047	0.1726	0.002
Mof_C 	C 	0.4891	0.9169	0.04985	0.198
Mof_C 	C 	0.60244	0.6735	0.64298	0.41
Mof_C 	C 	0.5671	0.6461	0.60518	-0.185
Mof_C 	C 	0.5816	0.5995	0.58818	0.119
Mof_H 	H 	0.6118	0.5831	0.6042	0.007
Mof_C 	C 	0.5527	0.5763	0.5482	-0.207
Mof_H 	H 	0.5631	0.5443	0.5369	0.114
Mof_C 	C 	0.5089	0.6	0.52481	0.199
Mof_C 	C 	0.4921	0.6457	0.54385	-0.21
Mof_H 	H 	0.4607	0.661	0.5294	0.096
Mof_C 	C 	0.5213	0.6681	0.58336	0.12
Mof_H 	H 	0.51	0.6992	0.5959	0.002
Mof_C 	C 	0.6552	0.15954	0.12388	0.422
Mof_C 	C 	0.6379	0.11452	0.09253	-0.187
Mof_C 	C 	0.5907	0.09205	0.0973	0.12
Mof_H 	H 	0.5697	0.106	0.1196	0.007
Mof_C 	C 	0.5736	0.0498	0.0702	-0.206
Mof_H 	H 	0.5408	0.0353	0.0735	0.115
Mof_C 	C 	0.6045	0.02835	0.03793	0.201
Mof_C 	C 	0.65031	0.05338	0.0308	-0.216
Mof_H 	H 	0.6701	0.0414	0.0066	0.102
Mof_C 	C 	0.66672	0.09469	0.05825	0.128
Mof_H 	H 	0.6987	0.1103	0.0538	0.003
Mof_C 	C 	0.5531	0.9505	0.0135	0.199
Mof_C 	C 	0.6888	0.3425	0.3005	0.417
Mof_C 	C 	0.6636	0.3761	0.33398	-0.206
Mof_C 	C 	0.6394	0.419	0.31777	0.147
Mof_H 	H 	0.6389	0.4287	0.2845	-0.005
Mof_C 	C 	0.6151	0.4495	0.3488	-0.233
Mof_H 	H 	0.5982	0.4798	0.3366	0.118
Mof_C 	C 	0.6154	0.4363	0.39743	0.229
Mof_C 	C 	0.6394	0.3937	0.41409	-0.244
Mof_H 	H 	0.6409	0.385	0.4477	0.105
Mof_C 	C 	0.6622	0.3616	0.3826	0.137
Mof_H 	H 	0.6768	0.3301	0.3942	-0.013
Mof_C 	C 	0.2941	0.65335	0.2378	0.403
Mof_C 	C 	0.33405	0.6169	0.2588	-0.195
Mof_C 	C 	0.3386	0.6064	0.3089	0.118
Mof_H 	H 	0.3151	0.6217	0.328	-0.015
Mof_C 	C 	0.3767	0.5743	0.3312	-0.211
Mof_H 	H 	0.3785	0.5671	0.3652	0.109
Mof_C 	C 	0.4126	0.5524	0.30386	0.201
Mof_C 	C 	0.4061	0.5606	0.25363	-0.214
Mof_H 	H 	0.4282	0.5439	0.2341	0.1
Mof_C 	C 	0.36732	0.5931	0.2312	0.122
Mof_H 	H 	0.364	0.5989	0.1969	0.004
Mof_C 	C 	0.4796	0.5215	0.37037	0.2
Mof_C 	C 	0.4943	0.55	0.4473	0.201
Mof_C 	C 	0.5491	0.4953	0.42	0.199
Mof_C 	C 	0.61366	0.797	0.78977	0.39
Mof_C 	C 	0.58581	0.80774	0.83232	-0.167
Mof_C 	C 	0.53424	0.79279	0.83358	0.102
Mof_H 	H 	0.5159	0.7753	0.8064	0.02
Mof_C 	C 	0.50985	0.80327	0.87403	-0.196
Mof_H 	H 	0.4749	0.7931	0.8744	0.099
Mof_C 	C 	0.53641	0.8287	0.91418	0.186
Mof_C 	C 	0.58818	0.8433	0.91343	-0.198
Mof_H 	H 	0.6068	0.8605	0.9406	0.104
Mof_C 	C 	0.61173	0.83239	0.87261	0.104
Mof_H 	H 	0.6468	0.8421	0.8723	-0
Mof_C 	C 	0.5171	0.8766	0.98723	0.194
Mof_N 	N 	0.45866	0.92313	0.08632	-0.245
Mof_H 	H 	0.466	0.9503	0.1046	0.131
Mof_N 	N 	0.48465	0.87625	0.0217	-0.178
Mof_N 	N 	0.52281	0.95594	0.04836	-0.178
Mof_N 	N 	0.4801	0.5827	0.48123	-0.243
Mof_H 	H 	0.4484	0.5948	0.4749	0.126
Mof_N 	N 	0.59078	0.98556	0.00907	-0.244
Mof_H 	H 	0.6089	0.9805	0.9848	0.131
Mof_N 	N 	0.5928	0.4669	0.43019	-0.25
Mof_H 	H 	0.6084	0.4678	0.4606	0.131
Mof_N 	N 	0.45316	0.5215	0.32369	-0.246
Mof_H 	H 	0.4634	0.4988	0.3036	0.132
Mof_N 	N 	0.46283	0.5506	0.40452	-0.182
Mof_N 	N 	0.5374	0.523	0.45787	-0.179
Mof_N 	N 	0.52229	0.4937	0.37452	-0.178
Mof_N 	N 	0.51075	0.8369	0.95536	-0.242
Mof_H 	H 	0.4881	0.8137	0.9611	0.132
Mof_N 	N 	0.55206	0.91236	0.98129	-0.18
Mof_O 	O 	0.28214	0.76989	0.13624	-0.496
Mof_O 	O 	0.26512	0.84184	0.17451	-0.521
Mof_O 	O 	0.64664	0.65311	0.65657	-0.495
Mof_O 	O 	0.5878	0.71461	0.65957	-0.503
Mof_O 	O 	0.62604	0.17298	0.15422	-0.509
Mof_O 	O 	0.69813	0.17925	0.11908	-0.496
Mof_O 	O 	0.69764	0.36259	0.26061	-0.511
Mof_O 	O 	0.6966	0.29704	0.31232	-0.524
Mof_O 	O 	0.29574	0.66968	0.1946	-0.489
Mof_O 	O 	0.25912	0.66502	0.26228	-0.519
Mof_O 	O 	0.58759	0.77886	0.75094	-0.47
Mof_O 	O 	0.66055	0.80856	0.79306	-0.485
Mof_O 	O 	0.20014	0.75091	0.21252	-0.954
Mof_Zn	Zn	0.24273	0.71856	0.16981	1.21
Mof_Zn	Zn	0.20441	0.82245	0.20383	1.211
Mof_Zn	Zn	0.22724	0.73276	0.28301	1.177
Mof_Zn	Zn	0.12854	0.73228	0.19771	1.217
Mof_C 	C 	0.79067	0.6837	0.64808	0.41
Mof_C 	C 	0.83598	0.65781	0.63135	-0.192
Mof_C 	C 	0.8638	0.6797	0.5978	0.122
Mof_H 	H 	0.8547	0.7127	0.5858	0.004
Mof_C 	C 	0.9048	0.6545	0.5813	-0.212
Mof_H 	H 	0.9235	0.67	0.5579	0.114
Mof_C 	C 	0.9184	0.60589	0.59934	0.202
Mof_C 	C 	0.8909	0.58438	0.63403	-0.219
Mof_H 	H 	0.9003	0.5519	0.6472	0.101
Mof_C 	C 	0.84967	0.61045	0.64933	0.122
Mof_H 	H 	0.8306	0.5953	0.6726	0.002
Mof_C 	C 	0.9891	0.5831	0.54985	0.198
Mof_C 	C 	0.10244	0.8265	0.14298	0.41
Mof_C 	C 	0.0671	0.8539	0.10518	-0.185
Mof_C 	C 	0.0816	0.9005	0.08818	0.118
Mof_H 	H 	0.1118	0.9169	0.1042	0.007
Mof_C 	C 	0.0527	0.9237	0.0482	-0.206
Mof_H 	H 	0.0631	0.9557	0.0369	0.114
Mof_C 	C 	0.0089	0.9	0.02481	0.198
Mof_C 	C 	0.9921	0.8543	0.04385	-0.208
Mof_H 	H 	0.9607	0.839	0.0294	0.096
Mof_C 	C 	0.0213	0.8319	0.08336	0.119
Mof_H 	H 	0.01	0.8008	0.0959	0.002
Mof_C 	C 	0.1552	0.34046	0.62388	0.422
Mof_C 	C 	0.1379	0.38548	0.59253	-0.187
Mof_C 	C 	0.0907	0.40795	0.5973	0.12
Mof_H 	H 	0.0697	0.394	0.6196	0.007
Mof_C 	C 	0.0736	0.4502	0.5702	-0.206
Mof_H 	H 	0.0408	0.4647	0.5735	0.115
Mof_C 	C 	0.1045	0.47165	0.53793	0.201
Mof_C 	C 	0.15031	0.44662	0.5308	-0.216
Mof_H 	H 	0.1701	0.4586	0.5066	0.102
Mof_C 	C 	0.16672	0.40531	0.55825	0.128
Mof_H 	H 	0.1987	0.3897	0.5538	0.003
Mof_C 	C 	0.0531	0.5495	0.5135	0.199
Mof_C 	C 	0.1888	0.1575	0.8005	0.417
Mof_C 	C 	0.1636	0.1239	0.83398	-0.206
Mof_C 	C 	0.1394	0.081	0.81777	0.147
Mof_H 	H 	0.1389	0.0713	0.7845	-0.005
Mof_C 	C 	0.1151	0.0505	0.8488	-0.233
Mof_H 	H 	0.0982	0.0202	0.8366	0.118
Mof_C 	C 	0.1154	0.0637	0.89743	0.229
Mof_C 	C 	0.1394	0.1063	0.91409	-0.244
Mof_H 	H 	0.1409	0.115	0.9477	0.105
Mof_C 	C 	0.1622	0.1384	0.8826	0.137
Mof_H 	H 	0.1768	0.1699	0.8942	-0.013
Mof_C 	C 	0.7941	0.84665	0.7378	0.403
Mof_C 	C 	0.83405	0.8831	0.7588	-0.195
Mof_C 	C 	0.8386	0.8936	0.8089	0.118
Mof_H 	H 	0.8151	0.8783	0.828	-0.015
Mof_C 	C 	0.8767	0.9257	0.8312	-0.211
Mof_H 	H 	0.8785	0.9329	0.8652	0.109
Mof_C 	C 	0.9126	0.9476	0.80386	0.201
Mof_C 	C 	0.9061	0.9394	0.75363	-0.214
Mof_H 	H 	0.9282	0.9561	0.7341	0.1
Mof_C 	C 	0.86732	0.9069	0.7312	0.122
Mof_H 	H 	0.864	0.9011	0.6969	0.004
Mof_C 	C 	0.9796	0.9785	0.87037	0.2
Mof_C 	C 	0.9943	0.95	0.9473	0.2
Mof_C 	C 	0.0491	0.0047	0.92	0.199
Mof_C 	C 	0.11366	0.703	0.28977	0.39
Mof_C 	C 	0.08581	0.69226	0.33232	-0.167
Mof_C 	C 	0.03424	0.70721	0.33358	0.102
Mof_H 	H 	0.0159	0.7247	0.3064	0.02
Mof_C 	C 	0.00985	0.69673	0.37403	-0.197
Mof_H 	H 	0.9749	0.7069	0.3744	0.099
Mof_C 	C 	0.03641	0.6713	0.41418	0.186
Mof_C 	C 	0.08818	0.6567	0.41343	-0.198
Mof_H 	H 	0.1068	0.6395	0.4406	0.104
Mof_C 	C 	0.11173	0.66761	0.37261	0.104
Mof_H 	H 	0.1468	0.6579	0.3723	-0
Mof_C 	C 	0.0171	0.6234	0.48723	0.194
Mof_N 	N 	0.95866	0.57687	0.58632	-0.245
Mof_H 	H 	0.966	0.5497	0.6046	0.131
Mof_N 	N 	0.98465	0.62375	0.5217	-0.178
Mof_N 	N 	0.02281	0.54406	0.54836	-0.178
Mof_N 	N 	0.9801	0.9173	0.98123	-0.243
Mof_H 	H 	0.9484	0.9052	0.9749	0.125
Mof_N 	N 	0.09078	0.51444	0.50907	-0.244
Mof_H 	H 	0.1089	0.5195	0.4848	0.131
Mof_N 	N 	0.0928	0.0331	0.93019	-0.25
Mof_H 	H 	0.1084	0.0322	0.9606	0.131
Mof_N 	N 	0.95316	0.9785	0.82369	-0.245
Mof_H 	H 	0.9634	0.0012	0.8036	0.132
Mof_N 	N 	0.96283	0.9494	0.90452	-0.182
Mof_N 	N 	0.0374	0.977	0.95787	-0.178
Mof_N 	N 	0.02229	0.0063	0.87452	-0.178
Mof_N 	N 	0.01075	0.6631	0.45536	-0.242
Mof_H 	H 	0.9881	0.6863	0.4611	0.132
Mof_N 	N 	0.05206	0.58764	0.48129	-0.18
Mof_O 	O 	0.78214	0.73011	0.63624	-0.496
Mof_O 	O 	0.76512	0.65816	0.67451	-0.521
Mof_O 	O 	0.14664	0.84689	0.15657	-0.495
Mof_O 	O 	0.0878	0.78539	0.15957	-0.503
Mof_O 	O 	0.12604	0.32702	0.65422	-0.509
Mof_O 	O 	0.19813	0.32075	0.61908	-0.496
Mof_O 	O 	0.19764	0.13741	0.76061	-0.511
Mof_O 	O 	0.1966	0.20296	0.81232	-0.524
Mof_O 	O 	0.79574	0.83032	0.6946	-0.489
Mof_O 	O 	0.75912	0.83498	0.76228	-0.519
Mof_O 	O 	0.08759	0.72114	0.25094	-0.47
Mof_O 	O 	0.16055	0.69144	0.29306	-0.485
Mof_O 	O 	0.70014	0.74909	0.71252	-0.954
Mof_Zn	Zn	0.74273	0.78144	0.66981	1.21
Mof_Zn	Zn	0.70441	0.67755	0.70383	1.211
Mof_Zn	Zn	0.72724	0.76724	0.78301	1.177
Mof_Zn	Zn	0.62854	0.76772	0.69771	1.217
Mof_C 	C 	0.29067	0.1837	0.64808	0.41
Mof_C 	C 	0.33598	0.15781	0.63135	-0.192
Mof_C 	C 	0.3638	0.1797	0.5978	0.122
Mof_H 	H 	0.3547	0.2127	0.5858	0.004
Mof_C 	C 	0.4048	0.1545	0.5813	-0.212
Mof_H 	H 	0.4235	0.17	0.5579	0.114
Mof_C 	C 	0.4184	0.10589	0.59934	0.202
Mof_C 	C 	0.3909	0.08438	0.63403	-0.219
Mof_H 	H 	0.4003	0.0519	0.6472	0.101
Mof_C 	C 	0.34967	0.11045	0.64933	0.122
Mof_H 	H 	0.3306	0.0953	0.6726	0.002
Mof_C 	C 	0.4891	0.0831	0.54985	0.198
Mof_C 	C 	0.60244	0.3265	0.14298	0.41
Mof_C 	C 	0.5671	0.3539	0.10518	-0.185
Mof_C 	C 	0.5816	0.4005	0.08818	0.119
Mof_H 	H 	0.6118	0.4169	0.1042	0.007
Mof_C 	C 	0.5527	0.4237	0.0482	-0.207
Mof_H 	H 	0.5631	0.4557	0.0369	0.114
Mof_C 	C 	0.5089	0.4	0.02481	0.199
Mof_C 	C 	0.4921	0.3543	0.04385	-0.209
Mof_H 	H 	0.4607	0.339	0.0294	0.096
Mof_C 	C 	0.5213	0.3319	0.08336	0.12
Mof_H 	H 	0.51	0.3008	0.0959	0.002
Mof_C 	C 	0.6552	0.84046	0.62388	0.422
Mof_C 	C 	0.6379	0.88548	0.59253	-0.187
Mof_C 	C 	0.5907	0.90795	0.5973	0.12
Mof_H 	H 	0.5697	0.894	0.6196	0.007
Mof_C 	C 	0.5736	0.9502	0.5702	-0.206
Mof_H 	H 	0.5408	0.9647	0.5735	0.115
Mof_C 	C 	0.6045	0.97165	0.53793	0.201
Mof_C 	C 	0.65031	0.94662	0.5308	-0.216
Mof_H 	H 	0.6701	0.9586	0.5066	0.102
Mof_C 	C 	0.66672	0.90531	0.55825	0.128
Mof_H 	H 	0.6987	0.8897	0.5538	0.003
Mof_C 	C 	0.5531	0.0495	0.5135	0.199
Mof_C 	C 	0.6888	0.6575	0.8005	0.417
Mof_C 	C 	0.6636	0.6239	0.83398	-0.206
Mof_C 	C 	0.6394	0.581	0.81777	0.147
Mof_H 	H 	0.6389	0.5713	0.7845	-0.005
Mof_C 	C 	0.6151	0.5505	0.8488	-0.233
Mof_H 	H 	0.5982	0.5202	0.8366	0.118
Mof_C 	C 	0.6154	0.5637	0.89743	0.229
Mof_C 	C 	0.6394	0.6063	0.91409	-0.244
Mof_H 	H 	0.6409	0.615	0.9477	0.105
Mof_C 	C 	0.6622	0.6384	0.8826	0.137
Mof_H 	H 	0.6768	0.6699	0.8942	-0.013
Mof_C 	C 	0.2941	0.34665	0.7378	0.403
Mof_C 	C 	0.33405	0.3831	0.7588	-0.195
Mof_C 	C 	0.3386	0.3936	0.8089	0.118
Mof_H 	H 	0.3151	0.3783	0.828	-0.015
Mof_C 	C 	0.3767	0.4257	0.8312	-0.211
Mof_H 	H 	0.3785	0.4329	0.8652	0.109
Mof_C 	C 	0.4126	0.4476	0.80386	0.201
Mof_C 	C 	0.4061	0.4394	0.75363	-0.214
Mof_H 	H 	0.4282	0.4561	0.7341	0.1
Mof_C 	C 	0.36732	0.4069	0.7312	0.122
Mof_H 	H 	0.364	0.4011	0.6969	0.004
Mof_C 	C 	0.4796	0.4785	0.87037	0.2
Mof_C 	C 	0.4943	0.45	0.9473	0.201
Mof_C 	C 	0.5491	0.5047	0.92	0.199
Mof_C 	C 	0.61366	0.203	0.28977	0.39
Mof_C 	C 	0.58581	0.19226	0.33232	-0.167
Mof_C 	C 	0.53424	0.20721	0.33358	0.102
Mof_H 	H 	0.5159	0.2247	0.3064	0.02
Mof_C 	C 	0.50985	0.19673	0.37403	-0.196
Mof_H 	H 	0.4749	0.2069	0.3744	0.099
Mof_C 	C 	0.53641	0.1713	0.41418	0.186
Mof_C 	C 	0.58818	0.1567	0.41343	-0.198
Mof_H 	H 	0.6068	0.1395	0.4406	0.104
Mof_C 	C 	0.61173	0.16761	0.37261	0.104
Mof_H 	H 	0.6468	0.1579	0.3723	-0
Mof_C 	C 	0.5171	0.1234	0.48723	0.195
Mof_N 	N 	0.45866	0.07687	0.58632	-0.245
Mof_H 	H 	0.466	0.0497	0.6046	0.131
Mof_N 	N 	0.48465	0.12375	0.5217	-0.178
Mof_N 	N 	0.52281	0.04406	0.54836	-0.178
Mof_N 	N 	0.4801	0.4173	0.98123	-0.243
Mof_H 	H 	0.4484	0.4052	0.9749	0.126
Mof_N 	N 	0.59078	0.01444	0.50907	-0.244
Mof_H 	H 	0.6089	0.0195	0.4848	0.131
Mof_N 	N 	0.5928	0.5331	0.93019	-0.25
Mof_H 	H 	0.6084	0.5322	0.9606	0.131
Mof_N 	N 	0.45316	0.4785	0.82369	-0.246
Mof_H 	H 	0.4634	0.5012	0.8036	0.132
Mof_N 	N 	0.46283	0.4494	0.90452	-0.182
Mof_N 	N 	0.5374	0.477	0.95787	-0.179
Mof_N 	N 	0.52229	0.5063	0.87452	-0.178
Mof_N 	N 	0.51075	0.1631	0.45536	-0.242
Mof_H 	H 	0.4881	0.1863	0.4611	0.132
Mof_N 	N 	0.55206	0.08764	0.48129	-0.18
Mof_O 	O 	0.28214	0.23011	0.63624	-0.496
Mof_O 	O 	0.26512	0.15816	0.67451	-0.521
Mof_O 	O 	0.64664	0.34689	0.15657	-0.495
Mof_O 	O 	0.5878	0.28539	0.15957	-0.503
Mof_O 	O 	0.62604	0.82702	0.65422	-0.509
Mof_O 	O 	0.69813	0.82075	0.61908	-0.496
Mof_O 	O 	0.69764	0.63741	0.76061	-0.511
Mof_O 	O 	0.6966	0.70296	0.81232	-0.524
Mof_O 	O 	0.29574	0.33032	0.6946	-0.489
Mof_O 	O 	0.25912	0.33498	0.76228	-0.519
Mof_O 	O 	0.58759	0.22114	0.25094	-0.47
Mof_O 	O 	0.66055	0.19144	0.29306	-0.485
Mof_O 	O 	0.20014	0.24909	0.71252	-0.954
Mof_Zn	Zn	0.24273	0.28144	0.66981	1.21
Mof_Zn	Zn	0.20441	0.17755	0.70383	1.211
Mof_Zn	Zn	0.22724	0.26724	0.78301	1.177
Mof_Zn	Zn	0.12854	0.26772	0.69771	1.217
Mof_C 	C 	0.20933	0.3163	0.35192	0.41
Mof_C 	C 	0.16402	0.34219	0.36865	-0.192
Mof_C 	C 	0.1362	0.3203	0.4022	0.122
Mof_H 	H 	0.1453	0.2873	0.4142	0.004
Mof_C 	C 	0.0952	0.3455	0.4187	-0.212
Mof_H 	H 	0.0765	0.33	0.4421	0.114
Mof_C 	C 	0.0816	0.39411	0.40066	0.202
Mof_C 	C 	0.1091	0.41562	0.36597	-0.219
Mof_H 	H 	0.0997	0.4481	0.3528	0.101
Mof_C 	C 	0.15033	0.38955	0.35067	0.122
Mof_H 	H 	0.1694	0.4047	0.3274	0.002
Mof_C 	C 	0.0109	0.4169	0.45015	0.198
Mof_C 	C 	0.89756	0.1735	0.85702	0.41
Mof_C 	C 	0.9329	0.1461	0.89482	-0.185
Mof_C 	C 	0.9184	0.0995	0.91182	0.118
Mof_H 	H 	0.8882	0.0831	0.8958	0.007
Mof_C 	C 	0.9473	0.0763	0.9518	-0.206
Mof_H 	H 	0.9369	0.0443	0.9631	0.114
Mof_C 	C 	0.9911	0.1	0.97519	0.198
Mof_C 	C 	0.0079	0.1457	0.95615	-0.208
Mof_H 	H 	0.0393	0.161	0.9706	0.096
Mof_C 	C 	0.9787	0.1681	0.91664	0.119
Mof_H 	H 	0.99	0.1992	0.9041	0.002
Mof_C 	C 	0.8448	0.65954	0.37612	0.422
Mof_C 	C 	0.8621	0.61452	0.40747	-0.187
Mof_C 	C 	0.9093	0.59205	0.4027	0.12
Mof_H 	H 	0.9303	0.606	0.3804	0.007
Mof_C 	C 	0.9264	0.5498	0.4298	-0.206
Mof_H 	H 	0.9592	0.5353	0.4265	0.115
Mof_C 	C 	0.8955	0.52835	0.46207	0.201
Mof_C 	C 	0.84969	0.55338	0.4692	-0.216
Mof_H 	H 	0.8299	0.5414	0.4934	0.102
Mof_C 	C 	0.83328	0.59469	0.44175	0.128
Mof_H 	H 	0.8013	0.6103	0.4462	0.003
Mof_C 	C 	0.9469	0.4505	0.4865	0.199
Mof_C 	C 	0.8112	0.8425	0.1995	0.417
Mof_C 	C 	0.8364	0.8761	0.16602	-0.206
Mof_C 	C 	0.8606	0.919	0.18223	0.147
Mof_H 	H 	0.8611	0.9287	0.2155	-0.005
Mof_C 	C 	0.8849	0.9495	0.1512	-0.233
Mof_H 	H 	0.9018	0.9798	0.1634	0.118
Mof_C 	C 	0.8846	0.9363	0.10257	0.229
Mof_C 	C 	0.8606	0.8937	0.08591	-0.244
Mof_H 	H 	0.8591	0.885	0.0523	0.105
Mof_C 	C 	0.8378	0.8616	0.1174	0.137
Mof_H 	H 	0.8232	0.8301	0.1058	-0.013
Mof_C 	C 	0.2059	0.15335	0.2622	0.403
Mof_C 	C 	0.16595	0.1169	0.2412	-0.195
Mof_C 	C 	0.1614	0.1064	0.1911	0.118
Mof_H 	H 	0.1849	0.1217	0.172	-0.015
Mof_C 	C 	0.1233	0.0743	0.1688	-0.211
Mof_H 	H 	0.1215	0.0671	0.1348	0.109
Mof_C 	C 	0.0874	0.0524	0.19614	0.201
Mof_C 	C 	0.0939	0.0606	0.24637	-0.214
Mof_H 	H 	0.0718	0.0439	0.2659	0.1
Mof_C 	C 	0.13268	0.0931	0.2688	0.122
Mof_H 	H 	0.136	0.0989	0.3031	0.004
Mof_C 	C 	0.0204	0.0215	0.12963	0.2
Mof_C 	C 	0.0057	0.05	0.0527	0.2
Mof_C 	C 	0.9509	0.9953	0.08	0.199
Mof_C 	C 	0.88634	0.297	0.71023	0.39
Mof_C 	C 	0.91419	0.30774	0.66768	-0.167
Mof_C 	C 	0.96576	0.29279	0.66642	0.102
Mof_H 	H 	0.9841	0.2753	0.6936	0.02
Mof_C 	C 	0.99015	0.30327	0.62597	-0.197
Mof_H 	H 	0.0251	0.2931	0.6256	0.099
Mof_C 	C 	0.96359	0.3287	0.58582	0.186
Mof_C 	C 	0.91182	0.3433	0.58657	-0.198
Mof_H 	H 	0.8932	0.3605	0.5594	0.104
Mof_C 	C 	0.88827	0.33239	0.62739	0.104
Mof_H 	H 	0.8532	0.3421	0.6277	-0
Mof_C 	C 	0.9829	0.3766	0.51277	0.194
Mof_N 	N 	0.04134	0.42313	0.41368	-0.245
Mof_H 	H 	0.034	0.4503	0.3954	0.131
Mof_N 	N 	0.01535	0.37625	0.4783	-0.178
Mof_N 	N 	0.97719	0.45594	0.45164	-0.178
Mof_N 	N 	0.0199	0.0827	0.01877	-0.243
Mof_H 	H 	0.0516	0.0948	0.0251	0.125
Mof_N 	N 	0.90922	0.48556	0.49093	-0.244
Mof_H 	H 	0.8911	0.4805	0.5152	0.131
Mof_N 	N 	0.9072	0.9669	0.06981	-0.25
Mof_H 	H 	0.8916	0.9678	0.0394	0.131
Mof_N 	N 	0.04684	0.0215	0.17631	-0.245
Mof_H 	H 	0.0366	0.9988	0.1964	0.132
Mof_N 	N 	0.03717	0.0506	0.09548	-0.182
Mof_N 	N 	0.9626	0.023	0.04213	-0.178
Mof_N 	N 	0.97771	0.9937	0.12548	-0.178
Mof_N 	N 	0.98925	0.3369	0.54464	-0.242
Mof_H 	H 	0.0119	0.3137	0.5389	0.132
Mof_N 	N 	0.94794	0.41236	0.51871	-0.18
Mof_O 	O 	0.21786	0.26989	0.36376	-0.496
Mof_O 	O 	0.23488	0.34184	0.32549	-0.521
Mof_O 	O 	0.85336	0.15311	0.84343	-0.495
Mof_O 	O 	0.9122	0.21461	0.84043	-0.503
Mof_O 	O 	0.87396	0.67298	0.34578	-0.509
Mof_O 	O 	0.80187	0.67925	0.38092	-0.496
Mof_O 	O 	0.80236	0.86259	0.23939	-0.511
Mof_O 	O 	0.8034	0.79704	0.18768	-0.524
Mof_O 	O 	0.20426	0.16968	0.3054	-0.489
Mof_O 	O 	0.24088	0.16502	0.23772	-0.519
Mof_O 	O 	0.91241	0.27886	0.74906	-0.47
Mof_O 	O 	0.83945	0.30856	0.70694	-0.485
Mof_O 	O 	0.29986	0.25091	0.28748	-0.954
Mof_Zn	Zn	0.25727	0.21856	0.33019	1.21
Mof_Zn	Zn	0.29559	0.32245	0.29617	1.211
Mof_Zn	Zn	0.27276	0.23276	0.21699	1.177
Mof_Zn	Zn	0.37146	0.23228	0.30229	1.217
Mof_C 	C 	0.70933	0.8163	0.35192	0.41
Mof_C 	C 	0.66402	0.84219	0.36865	-0.192
Mof_C 	C 	0.6362	0.8203	0.4022	0.122
Mof_H 	H 	0.6453	0.7873	0.4142	0.004
Mof_C 	C 	0.5952	0.8455	0.4187	-0.212
Mof_H 	H 	0.5765	0.83	0.4421	0.114
Mof_C 	C 	0.5816	0.89411	0.40066	0.202
Mof_C 	C 	0.6091	0.91562	0.36597	-0.219
Mof_H 	H 	0.5997	0.9481	0.3528	0.101
Mof_C 	C 	0.65033	0.88955	0.35067	0.122
Mof_H 	H 	0.6694	0.9047	0.3274	0.002
Mof_C 	C 	0.5109	0.9169	0.45015	0.198
Mof_C 	C 	0.39756	0.6735	0.85702	0.41
Mof_C 	C 	0.4329	0.6461	0.89482	-0.185
Mof_C 	C 	0.4184	0.5995	0.91182	0.119
Mof_H 	H 	0.3882	0.5831	0.8958	0.007
Mof_C 	C 	0.4473	0.5763	0.9518	-0.207
Mof_H 	H 	0.4369	0.5443	0.9631	0.114
Mof_C 	C 	0.4911	0.6	0.97519	0.199
Mof_C 	C 	0.5079	0.6457	0.95615	-0.209
Mof_H 	H 	0.5393	0.661	0.9706	0.096
Mof_C 	C 	0.4787	0.6681	0.91664	0.12
Mof_H 	H 	0.49	0.6992	0.9041	0.002
Mof_C 	C 	0.3448	0.15954	0.37612	0.422
Mof_C 	C 	0.3621	0.11452	0.40747	-0.187
Mof_C 	C 	0.4093	0.09205	0.4027	0.12
Mof_H 	H 	0.4303	0.106	0.3804	0.007
Mof_C 	C 	0.4264	0.0498	0.4298	-0.206
Mof_H 	H 	0.4592	0.0353	0.4265	0.115
Mof_C 	C 	0.3955	0.02835	0.46207	0.201
Mof_C 	C 	0.34969	0.05338	0.4692	-0.216
Mof_H 	H 	0.3299	0.0414	0.4934	0.102
Mof_C 	C 	0.33328	0.09469	0.44175	0.128
Mof_H 	H 	0.3013	0.1103	0.4462	0.003
Mof_C 	C 	0.4469	0.9505	0.4865	0.199
Mof_C 	C 	0.3112	0.3425	0.1995	0.417
Mof_C 	C 	0.3364	0.3761	0.16602	-0.206
Mof_C 	C 	0.3606	0.419	0.18223	0.147
Mof_H 	H 	0.3611	0.4287	0.2155	-0.005
Mof_C 	C 	0.3849	0.4495	0.1512	-0.233
Mof_H 	H 	0.4018	0.4798	0.1634	0.118
Mof_C 	C 	0.3846	0.4363	0.10257	0.229
Mof_C 	C 	0.3606	0.3937	0.08591	-0.244
Mof_H 	H 	0.3591	0.385	0.0523	0.105
Mof_C 	C 	0.3378	0.3616	0.1174	0.137
Mof_H 	H 	0.3232	0.3301	0.1058	-0.013
Mof_C 	C 	0.7059	0.65335	0.2622	0.403
Mof_C 	C 	0.66595	0.6169	0.2412	-0.195
Mof_C 	C 	0.6614	0.6064	0.1911	0.118
Mof_H 	H 	0.6849	0.6217	0.172	-0.015
Mof_C 	C 	0.6233	0.5743	0.1688	-0.211
Mof_H 	H 	0.6215	0.5671	0.1348	0.109
Mof_C 	C 	0.5874	0.5524	0.19614	0.201
Mof_C 	C 	0.5939	0.5606	0.24637	-0.214
Mof_H 	H 	0.5718	0.5439	0.2659	0.1
Mof_C 	C 	0.63268	0.5931	0.2688	0.122
Mof_H 	H 	0.636	0.5989	0.3031	0.004
Mof_C 	C 	0.5204	0.5215	0.12963	0.2
Mof_C 	C 	0.5057	0.55	0.0527	0.201
Mof_C 	C 	0.4509	0.4953	0.08	0.199
Mof_C 	C 	0.38634	0.797	0.71023	0.39
Mof_C 	C 	0.41419	0.80774	0.66768	-0.167
Mof_C 	C 	0.46576	0.79279	0.66642	0.102
Mof_H 	H 	0.4841	0.7753	0.6936	0.02
Mof_C 	C 	0.49015	0.80327	0.62597	-0.196
Mof_H 	H 	0.5251	0.7931	0.6256	0.099
Mof_C 	C 	0.46359	0.8287	0.58582	0.186
Mof_C 	C 	0.41182	0.8433	0.58657	-0.198
Mof_H 	H 	0.3932	0.8605	0.5594	0.104
Mof_C 	C 	0.38827	0.83239	0.62739	0.104
Mof_H 	H 	0.3532	0.8421	0.6277	-0
Mof_C 	C 	0.4829	0.8766	0.51277	0.195
Mof_N 	N 	0.54134	0.92313	0.41368	-0.245
Mof_H 	H 	0.534	0.9503	0.3954	0.131
Mof_N 	N 	0.51535	0.87625	0.4783	-0.178
Mof_N 	N 	0.47719	0.95594	0.45164	-0.178
Mof_N 	N 	0.5199	0.5827	0.01877	-0.243
Mof_H 	H 	0.5516	0.5948	0.0251	0.126
Mof_N 	N 	0.40922	0.98556	0.49093	-0.244
Mof_H 	H 	0.3911	0.9805	0.5152	0.131
Mof_N 	N 	0.4072	0.4669	0.06981	-0.25
Mof_H 	H 	0.3916	0.4678	0.0394	0.131
Mof_N 	N 	0.54684	0.5215	0.17631	-0.246
Mof_H 	H 	0.5366	0.4988	0.1964	0.132
Mof_N 	N 	0.53717	0.5506	0.09548	-0.182
Mof_N 	N 	0.4626	0.523	0.04213	-0.179
Mof_N 	N 	0.47771	0.4937	0.12548	-0.178
Mof_N 	N 	0.48925	0.8369	0.54464	-0.242
Mof_H 	H 	0.5119	0.8137	0.5389	0.132
Mof_N 	N 	0.44794	0.91236	0.51871	-0.18
Mof_O 	O 	0.71786	0.76989	0.36376	-0.496
Mof_O 	O 	0.73488	0.84184	0.32549	-0.521
Mof_O 	O 	0.35336	0.65311	0.84343	-0.495
Mof_O 	O 	0.4122	0.71461	0.84043	-0.503
Mof_O 	O 	0.37396	0.17298	0.34578	-0.509
Mof_O 	O 	0.30187	0.17925	0.38092	-0.496
Mof_O 	O 	0.30236	0.36259	0.23939	-0.511
Mof_O 	O 	0.3034	0.29704	0.18768	-0.524
Mof_O 	O 	0.70426	0.66968	0.3054	-0.489
Mof_O 	O 	0.74088	0.66502	0.23772	-0.519
Mof_O 	O 	0.41241	0.77886	0.74906	-0.47
Mof_O 	O 	0.33945	0.80856	0.70694	-0.485
Mof_O 	O 	0.79986	0.75091	0.28748	-0.954
Mof_Zn	Zn	0.75727	0.71856	0.33019	1.21
Mof_Zn	Zn	0.79559	0.82245	0.29617	1.211
Mof_Zn	Zn	0.77276	0.73276	0.21699	1.177
Mof_Zn	Zn	0.87146	0.73228	0.30229	1.217
Mof_C 	C 	0.20933	0.6837	0.85192	0.41
Mof_C 	C 	0.16402	0.65781	0.86865	-0.192
Mof_C 	C 	0.1362	0.6797	0.9022	0.122
Mof_H 	H 	0.1453	0.7127	0.9142	0.004
Mof_C 	C 	0.0952	0.6545	0.9187	-0.212
Mof_H 	H 	0.0765	0.67	0.9421	0.114
Mof_C 	C 	0.0816	0.60589	0.90066	0.202
Mof_C 	C 	0.1091	0.58438	0.86597	-0.219
Mof_H 	H 	0.0997	0.5519	0.8528	0.101
Mof_C 	C 	0.15033	0.61045	0.85067	0.122
Mof_H 	H 	0.1694	0.5953	0.8274	0.002
Mof_C 	C 	0.0109	0.5831	0.95015	0.199
Mof_C 	C 	0.89756	0.8265	0.35702	0.41
Mof_C 	C 	0.9329	0.8539	0.39482	-0.185
Mof_C 	C 	0.9184	0.9005	0.41182	0.119
Mof_H 	H 	0.8882	0.9169	0.3958	0.007
Mof_C 	C 	0.9473	0.9237	0.4518	-0.207
Mof_H 	H 	0.9369	0.9557	0.4631	0.114
Mof_C 	C 	0.9911	0.9	0.47519	0.199
Mof_C 	C 	0.0079	0.8543	0.45615	-0.21
Mof_H 	H 	0.0393	0.839	0.4706	0.096
Mof_C 	C 	0.9787	0.8319	0.41664	0.12
Mof_H 	H 	0.99	0.8008	0.4041	0.002
Mof_C 	C 	0.8448	0.34046	0.87612	0.422
Mof_C 	C 	0.8621	0.38548	0.90747	-0.187
Mof_C 	C 	0.9093	0.40795	0.9027	0.12
Mof_H 	H 	0.9303	0.394	0.8804	0.007
Mof_C 	C 	0.9264	0.4502	0.9298	-0.206
Mof_H 	H 	0.9592	0.4647	0.9265	0.115
Mof_C 	C 	0.8955	0.47165	0.96207	0.201
Mof_C 	C 	0.84969	0.44662	0.9692	-0.216
Mof_H 	H 	0.8299	0.4586	0.9934	0.102
Mof_C 	C 	0.83328	0.40531	0.94175	0.128
Mof_H 	H 	0.8013	0.3897	0.9462	0.003
Mof_C 	C 	0.9469	0.5495	0.9865	0.199
Mof_C 	C 	0.8112	0.1575	0.6995	0.417
Mof_C 	C 	0.8364	0.1239	0.66602	-0.206
Mof_C 	C 	0.8606	0.081	0.68223	0.147
Mof_H 	H 	0.8611	0.0713	0.7155	-0.005
Mof_C 	C 	0.8849	0.0505	0.6512	-0.233
Mof_H 	H 	0.9018	0.0202	0.6634	0.118
Mof_C 	C 	0.8846	0.0637	0.60257	0.229
Mof_C 	C 	0.8606	0.1063	0.58591	-0.244
Mof_H 	H 	0.8591	0.115	0.5523	0.105
Mof_C 	C 	0.8378	0.1384	0.6174	0.137
Mof_H 	H 	0.8232	0.1699	0.6058	-0.013
Mof_C 	C 	0.2059	0.84665	0.7622	0.403
Mof_C 	C 	0.16595	0.8831	0.7412	-0.195
Mof_C 	C 	0.1614	0.8936	0.6911	0.118
Mof_H 	H 	0.1849	0.8783	0.672	-0.015
Mof_C 	C 	0.1233	0.9257	0.6688	-0.211
Mof_H 	H 	0.1215	0.9329	0.6348	0.109
Mof_C 	C 	0.0874	0.9476	0.69614	0.201
Mof_C 	C 	0.0939	0.9394	0.74637	-0.214
Mof_H 	H 	0.0718	0.9561	0.7659	0.1
Mof_C 	C 	0.13268	0.9069	0.7688	0.122
Mof_H 	H 	0.136	0.9011	0.8031	0.004
Mof_C 	C 	0.0204	0.9785	0.62963	0.2
Mof_C 	C 	0.0057	0.95	0.5527	0.2
Mof_C 	C 	0.9509	0.0047	0.58	0.199
Mof_C 	C 	0.88634	0.703	0.21023	0.39
Mof_C 	C 	0.91419	0.69226	0.16768	-0.167
Mof_C 	C 	0.96576	0.70721	0.16642	0.101
Mof_H 	H 	0.9841	0.7247	0.1936	0.02
Mof_C 	C 	0.99015	0.69673	0.12597	-0.196
Mof_H 	H 	0.0251	0.7069	0.1256	0.098
Mof_C 	C 	0.96359	0.6713	0.08582	0.186
Mof_C 	C 	0.91182	0.6567	0.08657	-0.197
Mof_H 	H 	0.8932	0.6395	0.0594	0.104
Mof_C 	C 	0.88827	0.66761	0.12739	0.104
Mof_H 	H 	0.8532	0.6579	0.1277	0
Mof_C 	C 	0.9829	0.6234	0.01277	0.194
Mof_N 	N 	0.04134	0.57687	0.91368	-0.245
Mof_H 	H 	0.034	0.5497	0.8954	0.131
Mof_N 	N 	0.01535	0.62375	0.9783	-0.178
Mof_N 	N 	0.97719	0.54406	0.95164	-0.178
Mof_N 	N 	0.0199	0.9173	0.51877	-0.243
Mof_H 	H 	0.0516	0.9052	0.5251	0.126
Mof_N 	N 	0.90922	0.51444	0.99093	-0.245
Mof_H 	H 	0.8911	0.5195	0.0152	0.132
Mof_N 	N 	0.9072	0.0331	0.56981	-0.25
Mof_H 	H 	0.8916	0.0322	0.5394	0.131
Mof_N 	N 	0.04684	0.9785	0.67631	-0.246
Mof_H 	H 	0.0366	0.0012	0.6964	0.132
Mof_N 	N 	0.03717	0.9494	0.59548	-0.182
Mof_N 	N 	0.9626	0.977	0.54213	-0.179
Mof_N 	N 	0.97771	0.0063	0.62548	-0.178
Mof_N 	N 	0.98925	0.6631	0.04464	-0.242
Mof_H 	H 	0.0119	0.6863	0.0389	0.131
Mof_N 	N 	0.94794	0.58764	0.01871	-0.18
Mof_O 	O 	0.21786	0.73011	0.86376	-0.496
Mof_O 	O 	0.23488	0.65816	0.82549	-0.521
Mof_O 	O 	0.85336	0.84689	0.34343	-0.495
Mof_O 	O 	0.9122	0.78539	0.34043	-0.503
Mof_O 	O 	0.87396	0.32702	0.84578	-0.509
Mof_O 	O 	0.80187	0.32075	0.88092	-0.496
Mof_O 	O 	0.80236	0.13741	0.73939	-0.511
Mof_O 	O 	0.8034	0.20296	0.68768	-0.524
Mof_O 	O 	0.20426	0.83032	0.8054	-0.489
Mof_O 	O 	0.24088	0.83498	0.73772	-0.519
Mof_O 	O 	0.91241	0.72114	0.24906	-0.47
Mof_O 	O 	0.83945	0.69144	0.20694	-0.485
Mof_O 	O 	0.29986	0.74909	0.78748	-0.954
Mof_Zn	Zn	0.25727	0.78144	0.83019	1.21
Mof_Zn	Zn	0.29559	0.67755	0.79617	1.211
Mof_Zn	Zn	0.27276	0.76724	0.71699	1.177
Mof_Zn	Zn	0.37146	0.76772	0.80229	1.217
Mof_C 	C 	0.70933	0.1837	0.85192	0.41
Mof_C 	C 	0.66402	0.15781	0.86865	-0.192
Mof_C 	C 	0.6362	0.1797	0.9022	0.122
Mof_H 	H 	0.6453	0.2127	0.9142	0.004
Mof_C 	C 	0.5952	0.1545	0.9187	-0.212
Mof_H 	H 	0.5765	0.17	0.9421	0.114
Mof_C 	C 	0.5816	0.10589	0.90066	0.202
Mof_C 	C 	0.6091	0.08438	0.86597	-0.219
Mof_H 	H 	0.5997	0.0519	0.8528	0.101
Mof_C 	C 	0.65033	0.11045	0.85067	0.122
Mof_H 	H 	0.6694	0.0953	0.8274	0.002
Mof_C 	C 	0.5109	0.0831	0.95015	0.198
Mof_C 	C 	0.39756	0.3265	0.35702	0.41
Mof_C 	C 	0.4329	0.3539	0.39482	-0.185
Mof_C 	C 	0.4184	0.4005	0.41182	0.119
Mof_H 	H 	0.3882	0.4169	0.3958	0.007
Mof_C 	C 	0.4473	0.4237	0.4518	-0.207
Mof_H 	H 	0.4369	0.4557	0.4631	0.114
Mof_C 	C 	0.4911	0.4	0.47519	0.199
Mof_C 	C 	0.5079	0.3543	0.45615	-0.21
Mof_H 	H 	0.5393	0.339	0.4706	0.096
Mof_C 	C 	0.4787	0.3319	0.41664	0.12
Mof_H 	H 	0.49	0.3008	0.4041	0.002
Mof_C 	C 	0.3448	0.84046	0.87612	0.422
Mof_C 	C 	0.3621	0.88548	0.90747	-0.187
Mof_C 	C 	0.4093	0.90795	0.9027	0.12
Mof_H 	H 	0.4303	0.894	0.8804	0.007
Mof_C 	C 	0.4264	0.9502	0.9298	-0.206
Mof_H 	H 	0.4592	0.9647	0.9265	0.115
Mof_C 	C 	0.3955	0.97165	0.96207	0.201
Mof_C 	C 	0.34969	0.94662	0.9692	-0.216
Mof_H 	H 	0.3299	0.9586	0.9934	0.102
Mof_C 	C 	0.33328	0.90531	0.94175	0.128
Mof_H 	H 	0.3013	0.8897	0.9462	0.003
Mof_C 	C 	0.4469	0.0495	0.9865	0.199
Mof_C 	C 	0.3112	0.6575	0.6995	0.417
Mof_C 	C 	0.3364	0.6239	0.66602	-0.206
Mof_C 	C 	0.3606	0.581	0.68223	0.147
Mof_H 	H 	0.3611	0.5713	0.7155	-0.005
Mof_C 	C 	0.3849	0.5505	0.6512	-0.233
Mof_H 	H 	0.4018	0.5202	0.6634	0.118
Mof_C 	C 	0.3846	0.5637	0.60257	0.229
Mof_C 	C 	0.3606	0.6063	0.58591	-0.244
Mof_H 	H 	0.3591	0.615	0.5523	0.105
Mof_C 	C 	0.3378	0.6384	0.6174	0.137
Mof_H 	H 	0.3232	0.6699	0.6058	-0.013
Mof_C 	C 	0.7059	0.34665	0.7622	0.403
Mof_C 	C 	0.66595	0.3831	0.7412	-0.195
Mof_C 	C 	0.6614	0.3936	0.6911	0.118
Mof_H 	H 	0.6849	0.3783	0.672	-0.015
Mof_C 	C 	0.6233	0.4257	0.6688	-0.211
Mof_H 	H 	0.6215	0.4329	0.6348	0.109
Mof_C 	C 	0.5874	0.4476	0.69614	0.201
Mof_C 	C 	0.5939	0.4394	0.74637	-0.214
Mof_H 	H 	0.5718	0.4561	0.7659	0.1
Mof_C 	C 	0.63268	0.4069	0.7688	0.122
Mof_H 	H 	0.636	0.4011	0.8031	0.004
Mof_C 	C 	0.5204	0.4785	0.62963	0.2
Mof_C 	C 	0.5057	0.45	0.5527	0.201
Mof_C 	C 	0.4509	0.5047	0.58	0.199
Mof_C 	C 	0.38634	0.203	0.21023	0.39
Mof_C 	C 	0.41419	0.19226	0.16768	-0.167
Mof_C 	C 	0.46576	0.20721	0.16642	0.102
Mof_H 	H 	0.4841	0.2247	0.1936	0.02
Mof_C 	C 	0.49015	0.19673	0.12597	-0.196
Mof_H 	H 	0.5251	0.2069	0.1256	0.099
Mof_C 	C 	0.46359	0.1713	0.08582	0.186
Mof_C 	C 	0.41182	0.1567	0.08657	-0.198
Mof_H 	H 	0.3932	0.1395	0.0594	0.104
Mof_C 	C 	0.38827	0.16761	0.12739	0.104
Mof_H 	H 	0.3532	0.1579	0.1277	-0
Mof_C 	C 	0.4829	0.1234	0.01277	0.194
Mof_N 	N 	0.54134	0.07687	0.91368	-0.245
Mof_H 	H 	0.534	0.0497	0.8954	0.131
Mof_N 	N 	0.51535	0.12375	0.9783	-0.178
Mof_N 	N 	0.47719	0.04406	0.95164	-0.178
Mof_N 	N 	0.5199	0.4173	0.51877	-0.243
Mof_H 	H 	0.5516	0.4052	0.5251	0.126
Mof_N 	N 	0.40922	0.01444	0.99093	-0.244
Mof_H 	H 	0.3911	0.0195	0.0152	0.131
Mof_N 	N 	0.4072	0.5331	0.56981	-0.25
Mof_H 	H 	0.3916	0.5322	0.5394	0.131
Mof_N 	N 	0.54684	0.4785	0.67631	-0.246
Mof_H 	H 	0.5366	0.5012	0.6964	0.132
Mof_N 	N 	0.53717	0.4494	0.59548	-0.182
Mof_N 	N 	0.4626	0.477	0.54213	-0.179
Mof_N 	N 	0.47771	0.5063	0.62548	-0.178
Mof_N 	N 	0.48925	0.1631	0.04464	-0.242
Mof_H 	H 	0.5119	0.1863	0.0389	0.132
Mof_N 	N 	0.44794	0.08764	0.01871	-0.18
Mof_O 	O 	0.71786	0.23011	0.86376	-0.496
Mof_O 	O 	0.73488	0.15816	0.82549	-0.521
Mof_O 	O 	0.35336	0.34689	0.34343	-0.495
Mof_O 	O 	0.4122	0.28539	0.34043	-0.503
Mof_O 	O 	0.37396	0.82702	0.84578	-0.509
Mof_O 	O 	0.30187	0.82075	0.88092	-0.496
Mof_O 	O 	0.30236	0.63741	0.73939	-0.511
Mof_O 	O 	0.3034	0.70296	0.68768	-0.524
Mof_O 	O 	0.70426	0.33032	0.8054	-0.489
Mof_O 	O 	0.74088	0.33498	0.73772	-0.519
Mof_O 	O 	0.41241	0.22114	0.24906	-0.47
Mof_O 	O 	0.33945	0.19144	0.20694	-0.485
Mof_O 	O 	0.79986	0.24909	0.78748	-0.954
Mof_Zn	Zn	0.75727	0.28144	0.83019	1.21
Mof_Zn	Zn	0.79559	0.17755	0.79617	1.211
Mof_Zn	Zn	0.77276	0.26724	0.71699	1.177
Mof_Zn	Zn	0.87146	0.26772	0.80229	1.217
_end
