# CIF file generated by openbabel 3.1.0, see https://openbabel.org
data_I
_chemical_name_common 'image0'
_cell_length_a 10.8658
_cell_length_b 16.605
_cell_length_c 10.3926
_cell_angle_alpha 90
_cell_angle_beta 103.965
_cell_angle_gamma 90
_space_group_name_H-M_alt 'P 1'
_space_group_name_Hall 'P 1'
loop_
    _symmetry_equiv_pos_as_xyz
    x,y,z
loop_
    _atom_site_label
    _atom_site_type_symbol
    _atom_site_fract_x
    _atom_site_fract_y
    _atom_site_fract_z
    _atom_site_occupancy
    Zn1      Zn       0.05502    0.16658    0.40351    1.000
    Zn2      Zn       0.13487    0.83531    0.31690    1.000
    P1       P        0.21256    0.00579    0.45550    1.000
    P2       P        0.13789    0.22292    0.69260    1.000
    P3       P        0.79138    0.26003    0.90951    1.000
    O1       O        0.22010    0.93640    0.36680    1.000
    O2       O        0.09330    0.05410    0.40950    1.000
    O3       O        0.22580    0.97760    0.60170    1.000
    H1       H        0.19470    0.93260    0.60180    1.000
    O4       O        0.04790    0.15720    0.71540    1.000
    O5       O        0.14370    0.23140    0.54840    1.000
    O6       O        0.10290    0.30600    0.74030    1.000
    O7       O        0.87170    0.33150    0.88090    1.000
    O8       O        0.79400    0.25350    0.05520    1.000
    O9       O        0.83590    0.18080    0.85980    1.000
    C1       C        0.34980    0.06870    0.46890    1.000
    H2       H        0.33760    0.11710    0.51660    1.000
    H3       H        0.35310    0.08500    0.38020    1.000
    C2       C        0.47820    0.03310    0.53670    1.000
    H4       H        0.47400    0.01320    0.62330    1.000
    H5       H        0.54100    0.07580    0.55050    1.000
    C3       C        0.29440    0.19480    0.78510    1.000
    H6       H        0.29800    0.19950    0.87900    1.000
    H7       H        0.30870    0.13880    0.76700    1.000
    C4       C        0.40030    0.24480    0.75440    1.000
    H8       H        0.38320    0.30130    0.76640    1.000
    H9       H        0.40120    0.23690    0.66210    1.000
    C5       C        0.63370    0.28030    0.81650    1.000
    H10      H        0.63270    0.27820    0.72300    1.000
    H11      H        0.61200    0.33480    0.83600    1.000
    C6       C        0.53090    0.22400    0.84100    1.000
    H12      H        0.55200    0.16900    0.82300    1.000
    H13      H        0.52850    0.22710    0.93350    1.000
    Zn3      Zn       0.94498    0.66658    0.09649    1.000
    Zn4      Zn       0.86513    0.33531    0.18310    1.000
    P4       P        0.78744    0.50579    0.04450    1.000
    P5       P        0.86211    0.72292    0.80740    1.000
    P6       P        0.20862    0.76003    0.59049    1.000
    O10      O        0.77990    0.43640    0.13320    1.000
    O11      O        0.90670    0.55410    0.09050    1.000
    O12      O        0.77420    0.47760    0.89830    1.000
    H14      H        0.80530    0.43260    0.89820    1.000
    O13      O        0.95210    0.65720    0.78460    1.000
    O14      O        0.85630    0.73140    0.95160    1.000
    O15      O        0.89710    0.80600    0.75970    1.000
    O16      O        0.12830    0.83150    0.61910    1.000
    O17      O        0.20600    0.75350    0.44480    1.000
    O18      O        0.16410    0.68080    0.64020    1.000
    C7       C        0.65020    0.56870    0.03110    1.000
    H15      H        0.66240    0.61710    0.98340    1.000
    H16      H        0.64690    0.58500    0.11980    1.000
    C8       C        0.52180    0.53310    0.96330    1.000
    H17      H        0.52600    0.51320    0.87670    1.000
    H18      H        0.45900    0.57580    0.94950    1.000
    C9       C        0.70560    0.69480    0.71490    1.000
    H19      H        0.70200    0.69950    0.62100    1.000
    H20      H        0.69130    0.63880    0.73300    1.000
    C10      C        0.59970    0.74480    0.74560    1.000
    H21      H        0.61680    0.80130    0.73360    1.000
    H22      H        0.59880    0.73690    0.83790    1.000
    C11      C        0.36630    0.78030    0.68350    1.000
    H23      H        0.36730    0.77820    0.77700    1.000
    H24      H        0.38800    0.83480    0.66400    1.000
    C12      C        0.46910    0.72400    0.65900    1.000
    H25      H        0.44800    0.66900    0.67700    1.000
    H26      H        0.47150    0.72710    0.56650    1.000
    Zn5      Zn       0.94498    0.83342    0.59649    1.000
    Zn6      Zn       0.86513    0.16469    0.68310    1.000
    P7       P        0.78744    0.99421    0.54450    1.000
    P8       P        0.86211    0.77708    0.30740    1.000
    P9       P        0.20862    0.73997    0.09049    1.000
    O19      O        0.77990    0.06360    0.63320    1.000
    O20      O        0.90670    0.94590    0.59050    1.000
    O21      O        0.77420    0.02240    0.39830    1.000
    H27      H        0.80530    0.06740    0.39820    1.000
    O22      O        0.95210    0.84280    0.28460    1.000
    O23      O        0.85630    0.76860    0.45160    1.000
    O24      O        0.89710    0.69400    0.25970    1.000
    O25      O        0.12830    0.66850    0.11910    1.000
    O26      O        0.20600    0.74650    0.94480    1.000
    O27      O        0.16410    0.81920    0.14020    1.000
    C13      C        0.65020    0.93130    0.53110    1.000
    H28      H        0.66240    0.88290    0.48340    1.000
    H29      H        0.64690    0.91500    0.61980    1.000
    C14      C        0.52180    0.96690    0.46330    1.000
    H30      H        0.52600    0.98680    0.37670    1.000
    H31      H        0.45900    0.92420    0.44950    1.000
    C15      C        0.70560    0.80520    0.21490    1.000
    H32      H        0.70200    0.80050    0.12100    1.000
    H33      H        0.69130    0.86120    0.23300    1.000
    C16      C        0.59970    0.75520    0.24560    1.000
    H34      H        0.61680    0.69870    0.23360    1.000
    H35      H        0.59880    0.76310    0.33790    1.000
    C17      C        0.36630    0.71970    0.18350    1.000
    H36      H        0.36730    0.72180    0.27700    1.000
    H37      H        0.38800    0.66520    0.16400    1.000
    C18      C        0.46910    0.77600    0.15900    1.000
    H38      H        0.44800    0.83100    0.17700    1.000
    H39      H        0.47150    0.77290    0.06650    1.000
    Zn7      Zn       0.05502    0.33342    0.90351    1.000
    Zn8      Zn       0.13487    0.66469    0.81690    1.000
    P10      P        0.21256    0.49421    0.95550    1.000
    P11      P        0.13789    0.27708    0.19260    1.000
    P12      P        0.79138    0.23997    0.40951    1.000
    O28      O        0.22010    0.56360    0.86680    1.000
    O29      O        0.09330    0.44590    0.90950    1.000
    O30      O        0.22580    0.52240    0.10170    1.000
    H40      H        0.19470    0.56740    0.10180    1.000
    O31      O        0.04790    0.34280    0.21540    1.000
    O32      O        0.14370    0.26860    0.04840    1.000
    O33      O        0.10290    0.19400    0.24030    1.000
    O34      O        0.87170    0.16850    0.38090    1.000
    O35      O        0.79400    0.24650    0.55520    1.000
    O36      O        0.83590    0.31920    0.35980    1.000
    C19      C        0.34980    0.43130    0.96890    1.000
    H41      H        0.33760    0.38290    0.01660    1.000
    H42      H        0.35310    0.41500    0.88020    1.000
    C20      C        0.47820    0.46690    0.03670    1.000
    H43      H        0.47400    0.48680    0.12330    1.000
    H44      H        0.54100    0.42420    0.05050    1.000
    C21      C        0.29440    0.30520    0.28510    1.000
    H45      H        0.29800    0.30050    0.37900    1.000
    H46      H        0.30870    0.36120    0.26700    1.000
    C22      C        0.40030    0.25520    0.25440    1.000
    H47      H        0.38320    0.19870    0.26640    1.000
    H48      H        0.40120    0.26310    0.16210    1.000
    C23      C        0.63370    0.21970    0.31650    1.000
    H49      H        0.63270    0.22180    0.22300    1.000
    H50      H        0.61200    0.16520    0.33600    1.000
    C24      C        0.53090    0.27600    0.34100    1.000
    H51      H        0.55200    0.33100    0.32300    1.000
    H52      H        0.52850    0.27290    0.43350    1.000
