# CIF file generated by openbabel 3.1.0, see https://openbabel.org
data_I
_chemical_name_common 'ja512311a_si_003_tobacco'
_cell_length_a 37.151
_cell_length_b 37.151
_cell_length_c 30.042
_cell_angle_alpha 90
_cell_angle_beta 90
_cell_angle_gamma 120
_space_group_name_H-M_alt 'P 1'
_space_group_name_Hall 'P 1'
loop_
    _symmetry_equiv_pos_as_xyz
    x,y,z
loop_
    _atom_site_label
    _atom_site_type_symbol
    _atom_site_fract_x
    _atom_site_fract_y
    _atom_site_fract_z
    _atom_site_occupancy
    X1       C        0.02042    0.97700    0.25373    1.000
    C2       C        0.04094    0.02121    0.25382    1.000
    X3       C        0.01908    0.04356    0.25320    1.000
    C4       C        0.97501    0.01994    0.25302    1.000
    X5       C        0.95329    0.97611    0.25339    1.000
    C6       C        0.97629    0.95524    0.25390    1.000
    H7       H        0.07437    0.03852    0.25426    1.000
    H8       H        0.95691    0.03536    0.25371    1.000
    H9       H        0.95920    0.92168    0.25308    1.000
    X10      C        0.04641    0.02273    0.74983    1.000
    C11      C        0.02314    0.97859    0.74968    1.000
    X12      C        0.97928    0.95642    0.75009    1.000
    C13      C        0.95799    0.97889    0.75079    1.000
    X14      C        0.97957    0.02274    0.75101    1.000
    C15      C        0.02359    0.04410    0.75087    1.000
    H16      H        0.03883    0.96076    0.75167    1.000
    H17      H        0.92435    0.96207    0.74973    1.000
    H18      H        0.03978    0.07765    0.75028    1.000
    X19      C        0.30720    0.62167    0.24581    1.000
    C20      C        0.35096    0.64321    0.24610    1.000
    X21      C        0.37395    0.68695    0.24634    1.000
    C22      C        0.35247    0.70923    0.24605    1.000
    X23      C        0.30869    0.68849    0.24582    1.000
    C24      C        0.28640    0.64468    0.24557    1.000
    H25      H        0.36723    0.62582    0.24645    1.000
    H26      H        0.36992    0.74289    0.24630    1.000
    H27      H        0.25274    0.62844    0.24550    1.000
    X28      C        0.62378    0.31225    0.75126    1.000
    C29      C        0.64540    0.29012    0.75100    1.000
    X30      C        0.68915    0.31100    0.75123    1.000
    C31      C        0.71137    0.35478    0.75181    1.000
    X32      C        0.69055    0.37782    0.75190    1.000
    C33      C        0.64669    0.35604    0.75174    1.000
    H34      H        0.62810    0.25646    0.75043    1.000
    H35      H        0.74500    0.37088    0.75076    1.000
    H36      H        0.63019    0.37316    0.75304    1.000
    X37      C        0.38146    0.27296    0.03559    1.000
    C38      C        0.35394    0.28102    0.06089    1.000
    X39      C        0.36339    0.29612    0.10510    1.000
    C40      C        0.40137    0.30408    0.12402    1.000
    X41      C        0.42985    0.29741    0.09972    1.000
    C42      C        0.41978    0.28243    0.05586    1.000
    H43      H        0.32391    0.27344    0.04763    1.000
    H44      H        0.40878    0.31550    0.15788    1.000
    H45      H        0.44337    0.28009    0.03714    1.000
    X46      C        0.38648    0.11228    0.46258    1.000
    C47      C        0.42517    0.14047    0.44223    1.000
    X48      C        0.43498    0.13594    0.39765    1.000
    C49      C        0.40443    0.10133    0.37337    1.000
    X50      C        0.36636    0.07197    0.39264    1.000
    C51      C        0.35788    0.07762    0.43702    1.000
    H52      H        0.44922    0.16441    0.46241    1.000
    H53      H        0.40939    0.09704    0.33879    1.000
    H54      H        0.32766    0.05574    0.45031    1.000
    X55      C        0.72279    0.10660    0.03493    1.000
    C56      C        0.71395    0.07123    0.06039    1.000
    X57      C        0.69923    0.06641    0.10454    1.000
    C58      C        0.69251    0.09749    0.12304    1.000
    X59      C        0.70120    0.13376    0.09879    1.000
    C60      C        0.71701    0.13779    0.05495    1.000
    H61      H        0.71837    0.04710    0.04578    1.000
    H62      H        0.68148    0.09358    0.15700    1.000
    H63      H        0.72359    0.16476    0.03535    1.000
    X64      C        0.27085    0.38234    0.53767    1.000
    C65      C        0.28104    0.42136    0.55599    1.000
    X66      C        0.29700    0.43265    0.59963    1.000
    C67      C        0.30286    0.40385    0.62496    1.000
    X68      C        0.29365    0.36500    0.60723    1.000
    C69      C        0.27731    0.35460    0.56376    1.000
    H70      H        0.27746    0.44346    0.53573    1.000
    H71      H        0.31492    0.41171    0.65851    1.000
    H72      H        0.26867    0.32423    0.55052    1.000
    X73      C        0.10866    0.71583    0.52887    1.000
    C74      C        0.07286    0.70811    0.55311    1.000
    X75      C        0.06680    0.69473    0.59780    1.000
    C76      C        0.09693    0.68785    0.61830    1.000
    X77      C        0.13231    0.69246    0.59502    1.000
    C78      C        0.13718    0.70639    0.55016    1.000
    H79      H        0.05008    0.71418    0.53806    1.000
    H80      H        0.09326    0.68099    0.65345    1.000
    H81      H        0.16190    0.70741    0.53047    1.000
    X82      C        0.10652    0.37981    0.96445    1.000
    C83      C        0.07104    0.35247    0.93914    1.000
    X84      C        0.06600    0.36151    0.89471    1.000
    C85      C        0.09662    0.39892    0.87541    1.000
    X86      C        0.13173    0.42765    0.89975    1.000
    C87      C        0.13612    0.41775    0.94400    1.000
    H88      H        0.04818    0.32272    0.95264    1.000
    H89      H        0.09292    0.40566    0.84119    1.000
    H90      H        0.16206    0.44099    0.96302    1.000
    X91      C        0.88601    0.27364    0.46438    1.000
    C92      C        0.85529    0.27972    0.44341    1.000
    X93      C        0.86038    0.29518    0.39952    1.000
    C94      C        0.89657    0.30335    0.37592    1.000
    X95      C        0.92729    0.29683    0.39533    1.000
    C96      C        0.92195    0.28263    0.43971    1.000
    H97      H        0.82666    0.27136    0.46078    1.000
    H98      H        0.90159    0.31598    0.34256    1.000
    H99      H        0.94609    0.27859    0.45491    1.000
    X100     C        0.72528    0.61321    0.46294    1.000
    C101     C        0.71735    0.57521    0.44361    1.000
    X102     C        0.70334    0.56520    0.39913    1.000
    C103     C        0.69626    0.59356    0.37458    1.000
    X104     C        0.70307    0.63115    0.39340    1.000
    C105     C        0.71784    0.64068    0.43746    1.000
    H106     H        0.72359    0.55419    0.46268    1.000
    H107     H        0.68431    0.58589    0.34094    1.000
    H108     H        0.72347    0.66970    0.45211    1.000
    X109     C        0.89051    0.61827    0.03331    1.000
    C110     C        0.92412    0.64620    0.06055    1.000
    X111     C        0.92905    0.63599    0.10451    1.000
    C112     C        0.89913    0.59725    0.12203    1.000
    X113     C        0.86502    0.56861    0.09626    1.000
    C114     C        0.86128    0.57930    0.05203    1.000
    H115     H        0.94779    0.67571    0.04726    1.000
    H116     H        0.90252    0.58928    0.15585    1.000
    H117     H        0.83462    0.55737    0.03283    1.000
    X118     C        0.61096    0.88702    0.53492    1.000
    C119     C        0.57261    0.85785    0.55525    1.000
    X120     C        0.56220    0.86237    0.59964    1.000
    C121     C        0.59171    0.89801    0.62342    1.000
    X122     C        0.62970    0.92771    0.60437    1.000
    C123     C        0.63872    0.92215    0.56026    1.000
    H124     H        0.55080    0.83118    0.53633    1.000
    H125     H        0.58477    0.90442    0.65641    1.000
    H126     H        0.66888    0.94433    0.54702    1.000
    X127     C        0.27122    0.88745    0.96158    1.000
    C128     C        0.27774    0.85676    0.94133    1.000
    X129     C        0.29454    0.86178    0.89782    1.000
    C130     C        0.30314    0.89826    0.87406    1.000
    X131     C        0.29554    0.92872    0.89264    1.000
    C132     C        0.27999    0.92300    0.93650    1.000
    H133     H        0.27100    0.82947    0.96042    1.000
    H134     H        0.31478    0.90280    0.84033    1.000
    H135     H        0.27488    0.94663    0.95124    1.000
    X136     C        0.61370    0.72038    0.96587    1.000
    C137     C        0.57583    0.71237    0.94560    1.000
    X138     C        0.56455    0.69545    0.90245    1.000
    C139     C        0.59181    0.68649    0.87864    1.000
    X140     C        0.63008    0.69473    0.89707    1.000
    C141     C        0.64021    0.71095    0.94071    1.000
    H142     H        0.55355    0.71726    0.96383    1.000
    H143     H        0.58388    0.67466    0.84498    1.000
    H144     H        0.66992    0.71768    0.95407    1.000
    Zn145    Zn       0.71441    0.33754    0.22420    1.000
    Zn146    Zn       0.66523    0.33260    0.30683    1.000
    Zn147    Zn       0.66145    0.37625    0.22357    1.000
    Zn148    Zn       0.62220    0.28377    0.22400    1.000
    O149     O        0.66577    0.33247    0.24493    1.000
    O150     O        0.74454    0.33383    0.26856    1.000
    O151     O        0.67181    0.38180    0.32932    1.000
    O152     O        0.70397    0.41061    0.18740    1.000
    O153     O        0.70790    0.32653    0.32954    1.000
    O154     O        0.74693    0.38607    0.19451    1.000
    O155     O        0.66562    0.41067    0.26744    1.000
    O156     O        0.58672    0.29206    0.18991    1.000
    O157     O        0.61641    0.28934    0.32938    1.000
    O158     O        0.61283    0.36011    0.19461    1.000
    O159     O        0.58928    0.25197    0.26832    1.000
    O160     O        0.63865    0.25219    0.19295    1.000
    O161     O        0.70654    0.29512    0.18844    1.000
    X162     C        0.73897    0.32736    0.31022    1.000
    X163     C        0.67213    0.41225    0.30910    1.000
    X164     C        0.73927    0.41388    0.18027    1.000
    X165     C        0.58412    0.32440    0.18209    1.000
    X166     C        0.58774    0.25698    0.31000    1.000
    X167     C        0.67455    0.26027    0.17972    1.000
    Zn168    Zn       0.28266    0.65852    0.77313    1.000
    Zn169    Zn       0.33623    0.61957    0.77191    1.000
    Zn170    Zn       0.33114    0.66451    0.68992    1.000
    Zn171    Zn       0.37513    0.71182    0.77334    1.000
    O172     O        0.33128    0.66359    0.75180    1.000
    O173     O        0.25100    0.61019    0.80322    1.000
    O174     O        0.33583    0.58759    0.72689    1.000
    O175     O        0.28710    0.66875    0.66762    1.000
    O176     O        0.29260    0.58356    0.80581    1.000
    O177     O        0.25082    0.66002    0.72909    1.000
    O178     O        0.32674    0.61662    0.66656    1.000
    O179     O        0.40889    0.74323    0.72936    1.000
    O180     O        0.38361    0.63532    0.80338    1.000
    O181     O        0.37947    0.70852    0.66755    1.000
    O182     O        0.40986    0.70322    0.80862    1.000
    O183     O        0.35874    0.74379    0.80345    1.000
    O184     O        0.29068    0.70168    0.80818    1.000
    X185     C        0.25804    0.58129    0.81488    1.000
    X186     C        0.32991    0.58739    0.68520    1.000
    X187     C        0.25515    0.66571    0.68727    1.000
    X188     C        0.40969    0.73925    0.68738    1.000
    X189     C        0.41205    0.67073    0.81693    1.000
    X190     C        0.32298    0.73655    0.81622    1.000
    Zn191    Zn       0.19949    0.36580    0.20829    1.000
    Zn192    Zn       0.11064    0.30060    0.22777    1.000
    Zn193    Zn       0.18318    0.29916    0.27401    1.000
    Zn194    Zn       0.16250    0.36592    0.29419    1.000
    O195     O        0.16365    0.33228    0.25101    1.000
    O196     O        0.17281    0.36215    0.15834    1.000
    O197     O        0.09414    0.24542    0.23039    1.000
    O198     O        0.22615    0.30231    0.24109    1.000
    O199     O        0.10703    0.31479    0.16924    1.000
    O200     O        0.23750    0.35166    0.19265    1.000
    O201     O        0.14324    0.24428    0.27148    1.000
    O202     O        0.18608    0.36258    0.34425    1.000
    O203     O        0.07134    0.30480    0.26109    1.000
    O204     O        0.20158    0.31316    0.33209    1.000
    O205     O        0.11100    0.35248    0.31016    1.000
    O206     O        0.18984    0.42023    0.27997    1.000
    O207     O        0.22594    0.42068    0.22157    1.000
    X208     C        0.13585    0.34156    0.14410    1.000
    X209     C        0.10846    0.22513    0.25096    1.000
    X210     C        0.24547    0.32428    0.20727    1.000
    X211     C        0.20141    0.34069    0.35758    1.000
    X212     C        0.07518    0.32631    0.29579    1.000
    X213     C        0.21721    0.44016    0.25050    1.000
    Zn214    Zn       0.36869    0.16491    0.79083    1.000
    Zn215    Zn       0.30327    0.11471    0.72469    1.000
    Zn216    Zn       0.30149    0.18605    0.77353    1.000
    Zn217    Zn       0.36814    0.20369    0.70822    1.000
    O218     O        0.33441    0.16682    0.74935    1.000
    O219     O        0.35356    0.11303    0.80769    1.000
    O220     O        0.24821    0.09914    0.72569    1.000
    O221     O        0.31653    0.20422    0.83178    1.000
    O222     O        0.30583    0.07440    0.75804    1.000
    O223     O        0.36717    0.18995    0.84063    1.000
    O224     O        0.24683    0.14557    0.77138    1.000
    O225     O        0.35186    0.23939    0.69158    1.000
    O226     O        0.31977    0.11247    0.66665    1.000
    O227     O        0.30334    0.22883    0.74076    1.000
    O228     O        0.36843    0.17822    0.65828    1.000
    O229     O        0.42167    0.23389    0.72554    1.000
    O230     O        0.42280    0.19014    0.77401    1.000
    X231     C        0.32665    0.07752    0.79313    1.000
    X232     C        0.22784    0.11219    0.74836    1.000
    X233     C        0.34524    0.20461    0.85580    1.000
    X234     C        0.32438    0.24717    0.70604    1.000
    X235     C        0.34812    0.14155    0.64295    1.000
    X236     C        0.44209    0.22227    0.74962    1.000
    Zn237    Zn       0.20370    0.83806    0.28901    1.000
    Zn238    Zn       0.11468    0.81454    0.27383    1.000
    Zn239    Zn       0.18501    0.88626    0.22455    1.000
    Zn240    Zn       0.16370    0.79819    0.20699    1.000
    O241     O        0.16620    0.83470    0.24856    1.000
    O242     O        0.17836    0.81014    0.33824    1.000
    O243     O        0.09980    0.85485    0.27478    1.000
    O244     O        0.22726    0.92726    0.25762    1.000
    O245     O        0.11271    0.79400    0.33068    1.000
    O246     O        0.23902    0.89027    0.30698    1.000
    O247     O        0.14433    0.89986    0.22563    1.000
    O248     O        0.19106    0.82470    0.15751    1.000
    O249     O        0.07412    0.77239    0.24044    1.000
    O250     O        0.20405    0.88944    0.16706    1.000
    O251     O        0.11134    0.76225    0.18974    1.000
    O252     O        0.18709    0.76810    0.22562    1.000
    O253     O        0.23434    0.81586    0.26930    1.000
    X254     C        0.14157    0.79329    0.35342    1.000
    X255     C        0.11241    0.88742    0.25063    1.000
    X256     C        0.24629    0.92533    0.29214    1.000
    X257     C        0.20613    0.86180    0.14353    1.000
    X258     C        0.07621    0.75405    0.20539    1.000
    X259     C        0.22076    0.78213    0.24761    1.000
    Zn260    Zn       0.62949    0.83115    0.20680    1.000
    Zn261    Zn       0.69562    0.80953    0.22751    1.000
    Zn262    Zn       0.69524    0.88290    0.27339    1.000
    Zn263    Zn       0.62951    0.79428    0.29247    1.000
    O264     O        0.66313    0.82990    0.25003    1.000
    O265     O        0.63279    0.80719    0.15686    1.000
    O266     O        0.75027    0.84903    0.22987    1.000
    O267     O        0.69160    0.92244    0.23959    1.000
    O268     O        0.68159    0.79096    0.16960    1.000
    O269     O        0.64343    0.88289    0.19077    1.000
    O270     O        0.75062    0.89868    0.27141    1.000
    O271     O        0.63189    0.82096    0.34197    1.000
    O272     O        0.69252    0.76663    0.26083    1.000
    O273     O        0.68009    0.88657    0.33174    1.000
    O274     O        0.64366    0.75673    0.30906    1.000
    O275     O        0.57525    0.76683    0.27803    1.000
    O276     O        0.57487    0.80373    0.22084    1.000
    X277     C        0.65431    0.79131    0.14387    1.000
    X278     C        0.77017    0.88360    0.25054    1.000
    X279     C        0.66998    0.91870    0.20496    1.000
    X280     C        0.65243    0.85786    0.35637    1.000
    X281     C        0.67072    0.74815    0.29505    1.000
    X282     C        0.55535    0.77527    0.24948    1.000
    Zn283    Zn       0.79381    0.16095    0.70767    1.000
    Zn284    Zn       0.81155    0.11122    0.77255    1.000
    Zn285    Zn       0.88202    0.18369    0.72529    1.000
    Zn286    Zn       0.83186    0.19889    0.79157    1.000
    O287     O        0.83018    0.16322    0.74929    1.000
    O288     O        0.75813    0.10886    0.68988    1.000
    O289     O        0.85241    0.09735    0.77166    1.000
    O290     O        0.88532    0.20369    0.66849    1.000
    O291     O        0.76934    0.07110    0.73894    1.000
    O292     O        0.82015    0.18893    0.65845    1.000
    O293     O        0.89780    0.14464    0.72513    1.000
    O294     O        0.88386    0.23476    0.80983    1.000
    O295     O        0.79189    0.10708    0.82982    1.000
    O296     O        0.92161    0.22567    0.75899    1.000
    O297     O        0.80394    0.17139    0.84039    1.000
    O298     O        0.80870    0.22931    0.77339    1.000
    O299     O        0.76348    0.18385    0.72629    1.000
    X300     C        0.75041    0.07361    0.70462    1.000
    X301     C        0.88558    0.11173    0.74832    1.000
    X302     C        0.85746    0.20519    0.64487    1.000
    X303     C        0.91913    0.24346    0.79424    1.000
    X304     C        0.78911    0.13412    0.85371    1.000
    X305     C        0.77629    0.21665    0.74949    1.000
    Zn306    Zn       0.86042    0.69962    0.70048    1.000
    Zn307    Zn       0.77872    0.63256    0.73526    1.000
    Zn308    Zn       0.85820    0.63453    0.76163    1.000
    Zn309    Zn       0.83980    0.69962    0.79628    1.000
    O310     O        0.83425    0.66646    0.74849    1.000
    O311     O        0.82757    0.68537    0.65135    1.000
    O312     O        0.76211    0.57826    0.74370    1.000
    O313     O        0.90451    0.64788    0.72744    1.000
    O314     O        0.76759    0.63493    0.67685    1.000
    O315     O        0.90384    0.69500    0.68328    1.000
    O316     O        0.82177    0.57964    0.75477    1.000
    O317     O        0.85895    0.68622    0.84573    1.000
    O318     O        0.74476    0.64481    0.76838    1.000
    O319     O        0.87214    0.63807    0.82004    1.000
    O320     O        0.79074    0.69398    0.81250    1.000
    O321     O        0.87262    0.75485    0.78476    1.000
    O322     O        0.88262    0.75471    0.71205    1.000
    X323     C        0.79010    0.65695    0.64461    1.000
    X324     C        0.78246    0.55944    0.74983    1.000
    X325     C        0.92040    0.67391    0.69547    1.000
    X326     C        0.86997    0.65920    0.85227    1.000
    X327     C        0.75340    0.67124    0.79957    1.000
    X328     C        0.88767    0.77437    0.74841    1.000
    C329     C        0.07993    0.34136    0.03645    1.000
    X330     C        0.11299    0.36948    0.00872    1.000
    C331     C        0.15350    0.38678    0.02622    1.000
    C332     C        0.16111    0.37809    0.06960    1.000
    X333     C        0.12776    0.35010    0.09722    1.000
    C334     C        0.08724    0.33195    0.07983    1.000
    H335     H        0.04797    0.32750    0.02569    1.000
    H336     H        0.18023    0.40557    0.00550    1.000
    H337     H        0.06096    0.31080    0.10005    1.000
    O338     O        0.20240    0.39513    0.08408    1.000
    C339     C        0.22485    0.43943    0.08702    1.000
    H340     H        0.20865    0.45038    0.10969    1.000
    H341     H        0.22895    0.45397    0.05374    1.000
    H342     H        0.25613    0.44952    0.10095    1.000
    C343     C        0.22432    0.38155    0.47626    1.000
    X344     C        0.25293    0.37028    0.49157    1.000
    C345     C        0.26387    0.34724    0.46276    1.000
    C346     C        0.24701    0.33604    0.41895    1.000
    X347     C        0.21871    0.34845    0.40404    1.000
    C348     C        0.20764    0.37092    0.43346    1.000
    H349     H        0.21438    0.39842    0.49762    1.000
    H350     H        0.28627    0.33899    0.47452    1.000
    H351     H        0.18579    0.38059    0.42333    1.000
    O352     O        0.25802    0.31382    0.38899    1.000
    C353     C        0.28652    0.30103    0.40338    1.000
    H354     H        0.27381    0.27983    0.43246    1.000
    H355     H        0.31718    0.32849    0.41141    1.000
    H356     H        0.29115    0.28381    0.37593    1.000
    C357     C        0.34229    0.25866    0.96370    1.000
    X358     C        0.37128    0.25539    0.99149    1.000
    C359     C        0.39013    0.23349    0.97410    1.000
    C360     C        0.38254    0.21723    0.93033    1.000
    X361     C        0.35378    0.22148    0.90273    1.000
    C362     C        0.33375    0.24202    0.92030    1.000
    H363     H        0.32704    0.27547    0.97438    1.000
    H364     H        0.40955    0.22721    0.99552    1.000
    H365     H        0.31178    0.24587    0.90009    1.000
    O366     O        0.40227    0.19596    0.91329    1.000
    C367     C        0.43609    0.19715    0.93717    1.000
    H368     H        0.42517    0.17990    0.96906    1.000
    H369     H        0.46100    0.22979    0.94297    1.000
    H370     H        0.44928    0.18156    0.91688    1.000
    C371     C        0.34693    0.08654    0.53418    1.000
    X372     C        0.37680    0.11908    0.50723    1.000
    C373     C        0.39658    0.15937    0.52592    1.000
    C374     C        0.38816    0.16734    0.56976    1.000
    X375     C        0.35809    0.13402    0.59622    1.000
    C376     C        0.33784    0.09392    0.57760    1.000
    H377     H        0.33121    0.05469    0.52276    1.000
    H378     H        0.41734    0.18528    0.50542    1.000
    H379     H        0.31500    0.06785    0.59691    1.000
    O380     O        0.40845    0.20786    0.58809    1.000
    C381     C        0.44152    0.24121    0.56416    1.000
    H382     H        0.42980    0.24758    0.53284    1.000
    H383     H        0.46679    0.23423    0.55730    1.000
    H384     H        0.45452    0.26968    0.58493    1.000
    C385     C        0.76342    0.09537    0.97330    1.000
    X386     C        0.73763    0.11099    0.98731    1.000
    C387     C        0.72629    0.13139    0.95543    1.000
    C388     C        0.74199    0.13826    0.91127    1.000
    X389     C        0.76866    0.12319    0.89836    1.000
    C390     C        0.77831    0.10100    0.92937    1.000
    H391     H        0.77326    0.07980    0.99662    1.000
    H392     H        0.70496    0.14169    0.96523    1.000
    H393     H        0.79899    0.08958    0.92013    1.000
    O394     O        0.73194    0.15943    0.87885    1.000
    C395     C        0.70688    0.17694    0.89140    1.000
    H396     H        0.72214    0.20016    0.91840    1.000
    H397     H        0.67542    0.15213    0.90169    1.000
    H398     H        0.70329    0.19312    0.86217    1.000
    C399     C        0.23058    0.89872    0.02324    1.000
    X400     C        0.25602    0.88269    0.00914    1.000
    C401     C        0.26719    0.86218    0.04108    1.000
    C402     C        0.25196    0.85596    0.08544    1.000
    X403     C        0.22592    0.87175    0.09850    1.000
    C404     C        0.21619    0.89375    0.06733    1.000
    H405     H        0.22071    0.91427    0.99993    1.000
    H406     H        0.28814    0.85143    0.03122    1.000
    H407     H        0.19590    0.90562    0.07662    1.000
    O408     O        0.26199    0.83486    0.11797    1.000
    C409     C        0.28656    0.81682    0.10541    1.000
    H410     H        0.31803    0.84129    0.09468    1.000
    H411     H        0.27086    0.79335    0.07872    1.000
    H412     H        0.29023    0.80081    0.13476    1.000
    C413     C        0.08421    0.73061    0.45704    1.000
    X414     C        0.11644    0.73377    0.48488    1.000
    C415     C        0.15739    0.75712    0.46827    1.000
    C416     C        0.16635    0.77662    0.42587    1.000
    X417     C        0.13332    0.77312    0.39877    1.000
    C418     C        0.09253    0.74990    0.41509    1.000
    H419     H        0.05193    0.71206    0.46651    1.000
    H420     H        0.18284    0.76211    0.48949    1.000
    H421     H        0.06666    0.74619    0.39505    1.000
    O422     O        0.20752    0.80040    0.40976    1.000
    C423     C        0.24108    0.80225    0.43477    1.000
    H424     H        0.23655    0.77059    0.43964    1.000
    H425     H        0.24441    0.81800    0.46718    1.000
    H426     H        0.27032    0.82084    0.41584    1.000
    C427     C        0.89795    0.23376    0.52630    1.000
    X428     C        0.88040    0.25773    0.51169    1.000
    C429     C        0.85717    0.26628    0.54274    1.000
    C430     C        0.84990    0.24993    0.58665    1.000
    X431     C        0.86756    0.22566    0.60025    1.000
    C432     C        0.89211    0.21852    0.57002    1.000
    H433     H        0.91541    0.22564    0.50368    1.000
    H434     H        0.84508    0.28604    0.53260    1.000
    H435     H        0.90541    0.19956    0.57972    1.000
    O436     O        0.82601    0.25722    0.61822    1.000
    C437     C        0.80494    0.27864    0.60455    1.000
    H438     H        0.78304    0.26175    0.57691    1.000
    H439     H        0.82763    0.31106    0.59470    1.000
    H440     H        0.78664    0.27993    0.63307    1.000
    C441     C        0.72417    0.59654    0.54466    1.000
    X442     C        0.74185    0.62488    0.50948    1.000
    C443     C        0.77511    0.66492    0.51900    1.000
    C444     C        0.79118    0.67668    0.56292    1.000
    X445     C        0.77286    0.64762    0.59809    1.000
    C446     C        0.73915    0.60784    0.58824    1.000
    H447     H        0.69833    0.56561    0.53851    1.000
    H448     H        0.78862    0.68648    0.49163    1.000
    H449     H        0.72480    0.58484    0.61433    1.000
    O450     O        0.82472    0.71654    0.57333    1.000
    C451     C        0.84492    0.74565    0.53817    1.000
    H452     H        0.82294    0.75353    0.52175    1.000
    H453     H        0.85839    0.73325    0.51368    1.000
    H454     H        0.87072    0.77464    0.55246    1.000
    C455     C        0.86764    0.59836    0.95510    1.000
    X456     C        0.88648    0.62905    0.98838    1.000
    C457     C        0.90135    0.67086    0.97548    1.000
    C458     C        0.89684    0.68176    0.93117    1.000
    X459     C        0.87803    0.65023    0.89869    1.000
    C460     C        0.86414    0.60886    0.91113    1.000
    H461     H        0.85678    0.56599    0.96229    1.000
    H462     H        0.91459    0.69476    0.00059    1.000
    H463     H        0.84945    0.58416    0.88678    1.000
    O464     O        0.91070    0.72309    0.91762    1.000
    C465     C        0.92995    0.75569    0.94963    1.000
    H466     H        0.95865    0.75740    0.96300    1.000
    H467     H        0.90788    0.75122    0.97689    1.000
    H468     H        0.93886    0.78568    0.93305    1.000
    C469     C        0.60874    0.76215    0.02730    1.000
    X470     C        0.62499    0.73803    0.00979    1.000
    C471     C        0.65291    0.73246    0.03735    1.000
    C472     C        0.66384    0.74985    0.08100    1.000
    X473     C        0.64630    0.77330    0.09762    1.000
    C474     C        0.61911    0.77922    0.06992    1.000
    H475     H        0.58894    0.76961    0.00772    1.000
    H476     H        0.66467    0.71289    0.02568    1.000
    H477     H        0.60557    0.79756    0.08113    1.000
    O478     O        0.69107    0.74416    0.10914    1.000
    C479     C        0.71029    0.72177    0.09277    1.000
    H480     H        0.72938    0.73730    0.06285    1.000
    H481     H        0.68651    0.68904    0.08538    1.000
    H482     H        0.73122    0.72142    0.11890    1.000
    C483     C        0.65037    0.91354    0.46339    1.000
    X484     C        0.62171    0.88046    0.49080    1.000
    C485     C        0.60456    0.84001    0.47316    1.000
    C486     C        0.61398    0.83251    0.42999    1.000
    X487     C        0.64278    0.86589    0.40288    1.000
    C488     C        0.66066    0.90633    0.42037    1.000
    H489     H        0.66407    0.94549    0.47414    1.000
    H490     H        0.58551    0.81325    0.49368    1.000
    H491     H        0.68230    0.93265    0.40051    1.000
    O492     O        0.59708    0.79129    0.41531    1.000
    C493     C        0.55276    0.76825    0.41302    1.000
    H494     H        0.54112    0.78419    0.39087    1.000
    H495     H        0.53854    0.76366    0.44653    1.000
    H496     H        0.54304    0.73717    0.39881    1.000
    C497     C        0.29558    0.55208    0.22011    1.000
    X498     C        0.28338    0.57519    0.24667    1.000
    C499     C        0.24875    0.55374    0.27469    1.000
    C500     C        0.22638    0.50964    0.27672    1.000
    X501     C        0.23933    0.48675    0.24977    1.000
    C502     C        0.27384    0.50863    0.22152    1.000
    H503     H        0.32189    0.56768    0.19783    1.000
    H504     H        0.23997    0.57189    0.29537    1.000
    H505     H        0.28434    0.49206    0.20043    1.000
    O506     O        0.19130    0.48736    0.30445    1.000
    C507     C        0.17786    0.50979    0.33186    1.000
    H508     H        0.16875    0.52870    0.31110    1.000
    H509     H        0.20254    0.52965    0.35601    1.000
    H510     H        0.15017    0.48722    0.35103    1.000
    C511     C        0.25171    0.70135    0.21928    1.000
    X512     C        0.28638    0.71267    0.24656    1.000
    C513     C        0.29973    0.74723    0.27476    1.000
    C514     C        0.27896    0.77057    0.27603    1.000
    X515     C        0.24412    0.75887    0.24789    1.000
    C516     C        0.23102    0.72412    0.21985    1.000
    H517     H        0.24088    0.67509    0.19691    1.000
    H518     H        0.32602    0.75520    0.29619    1.000
    H519     H        0.20458    0.71446    0.19798    1.000
    O520     O        0.29135    0.80497    0.30470    1.000
    C521     C        0.32565    0.81657    0.33404    1.000
    H522     H        0.35449    0.82557    0.31484    1.000
    H523     H        0.31892    0.79091    0.35762    1.000
    H524     H        0.33061    0.84392    0.35376    1.000
    C525     C        0.44380    0.74414    0.22044    1.000
    X526     C        0.42038    0.70932    0.24748    1.000
    C527     C        0.44145    0.69589    0.27578    1.000
    C528     C        0.48553    0.71671    0.27732    1.000
    X529     C        0.50876    0.75182    0.24953    1.000
    C530     C        0.48723    0.76494    0.22134    1.000
    H531     H        0.42846    0.75503    0.19801    1.000
    H532     H        0.42302    0.66940    0.29693    1.000
    H533     H        0.50406    0.79162    0.19979    1.000
    O534     O        0.50742    0.70368    0.30534    1.000
    C535     C        0.48461    0.66876    0.33389    1.000
    H536     H        0.46481    0.64034    0.31405    1.000
    H537     H        0.46561    0.67500    0.35787    1.000
    H538     H        0.50692    0.66337    0.35322    1.000
    C539     C        0.55425    0.25451    0.77755    1.000
    X540     C        0.57727    0.28962    0.75073    1.000
    C541     C        0.55570    0.30292    0.72302    1.000
    C542     C        0.51156    0.28159    0.72171    1.000
    X543     C        0.48875    0.24623    0.74933    1.000
    C544     C        0.51078    0.23328    0.77697    1.000
    H545     H        0.56995    0.24369    0.79955    1.000
    H546     H        0.57379    0.32963    0.70203    1.000
    H547     H        0.49432    0.20647    0.79843    1.000
    O548     O        0.48922    0.29407    0.69366    1.000
    C549     C        0.51158    0.32879    0.66474    1.000
    H550     H        0.53069    0.32264    0.64083    1.000
    H551     H        0.53120    0.35747    0.68428    1.000
    H552     H        0.48895    0.33366    0.64536    1.000
    C553     C        0.74515    0.29715    0.77867    1.000
    X554     C        0.71154    0.28695    0.75014    1.000
    C555     C        0.69921    0.25354    0.72051    1.000
    C556     C        0.71994    0.23018    0.71910    1.000
    X557     C        0.75342    0.24041    0.74884    1.000
    C558     C        0.76561    0.27414    0.77819    1.000
    H559     H        0.75522    0.32262    0.80201    1.000
    H560     H        0.67370    0.24649    0.69821    1.000
    H561     H        0.79110    0.28279    0.80117    1.000
    O562     O        0.70880    0.19713    0.68881    1.000
    C563     C        0.67685    0.18796    0.65694    1.000
    H564     H        0.68560    0.21521    0.63503    1.000
    H565     H        0.64676    0.17814    0.67390    1.000
    H566     H        0.67302    0.16182    0.63577    1.000
    C567     C        0.70012    0.44718    0.72758    1.000
    X568     C        0.71449    0.42450    0.75178    1.000
    C569     C        0.75180    0.44668    0.77593    1.000
    C570     C        0.77476    0.49085    0.77590    1.000
    X571     C        0.75972    0.51300    0.75106    1.000
    C572     C        0.72222    0.49065    0.72745    1.000
    H573     H        0.67192    0.43131    0.70804    1.000
    H574     H        0.76225    0.42917    0.79534    1.000
    H575     H        0.71019    0.50694    0.70814    1.000
    O576     O        0.81172    0.51405    0.80069    1.000
    C577     C        0.82679    0.49247    0.82713    1.000
    H578     H        0.83434    0.47268    0.80584    1.000
    H579     H        0.80375    0.47361    0.85315    1.000
    H580     H        0.85573    0.51561    0.84409    1.000
    C581     C        0.48393    0.27685    0.11468    1.000
    X582     C        0.47013    0.30552    0.12007    1.000
    C583     C        0.49490    0.34176    0.14493    1.000
    C584     C        0.53296    0.34944    0.16463    1.000
    X585     C        0.54604    0.31974    0.15931    1.000
    C586     C        0.52106    0.28371    0.13417    1.000
    H587     H        0.46545    0.24848    0.09601    1.000
    H588     H        0.48423    0.36385    0.14843    1.000
    H589     H        0.53018    0.26044    0.12970    1.000
    O590     O        0.55804    0.38513    0.19057    1.000
    C591     C        0.54529    0.41522    0.19669    1.000
    H592     H        0.51493    0.40121    0.21425    1.000
    H593     H        0.54368    0.42861    0.16418    1.000
    H594     H        0.56868    0.44084    0.21765    1.000
    C595     C        0.49831    0.20659    0.39348    1.000
    X596     C        0.47436    0.16522    0.37783    1.000
    C597     C        0.49088    0.15393    0.34144    1.000
    C598     C        0.52851    0.18286    0.31999    1.000
    X599     C        0.55076    0.22447    0.33530    1.000
    C600     C        0.53567    0.23545    0.37271    1.000
    H601     H        0.48743    0.21798    0.42042    1.000
    H602     H        0.47514    0.12202    0.33065    1.000
    H603     H        0.55197    0.26713    0.38487    1.000
    O604     O        0.54545    0.17179    0.28387    1.000
    C605     C        0.52332    0.13046    0.26670    1.000
    H606     H        0.49215    0.12315    0.25450    1.000
    H607     H        0.52071    0.10774    0.29236    1.000
    H608     H        0.54093    0.12806    0.23813    1.000
    C609     C        0.66262    0.15528    0.14973    1.000
    X610     C        0.69405    0.16519    0.11769    1.000
    C611     C        0.71802    0.20743    0.10482    1.000
    C612     C        0.71158    0.23890    0.12369    1.000
    X613     C        0.67995    0.22788    0.15579    1.000
    C614     C        0.65543    0.18591    0.16788    1.000
    H615     H        0.64227    0.12348    0.16004    1.000
    H616     H        0.74326    0.21619    0.08173    1.000
    H617     H        0.63112    0.17681    0.19256    1.000
    O618     O        0.73541    0.28128    0.11166    1.000
    C619     C        0.76754    0.29345    0.07925    1.000
    H620     H        0.75440    0.27784    0.04693    1.000
    H621     H        0.79175    0.28658    0.09125    1.000
    H622     H        0.78246    0.32749    0.07398    1.000
    C623     C        0.28353    0.49295    0.60903    1.000
    X624     C        0.30772    0.47442    0.61871    1.000
    C625     C        0.34207    0.49589    0.64731    1.000
    C626     C        0.35118    0.53408    0.66769    1.000
    X627     C        0.32532    0.55112    0.65896    1.000
    C628     C        0.29234    0.53080    0.62869    1.000
    H629     H        0.25672    0.47744    0.58743    1.000
    H630     H        0.36159    0.48254    0.65350    1.000
    H631     H        0.27205    0.54325    0.62184    1.000
    O632     O        0.38541    0.55643    0.69646    1.000
    C633     C        0.41398    0.54178    0.70292    1.000
    H634     H        0.42789    0.54037    0.67069    1.000
    H635     H        0.39839    0.51094    0.71955    1.000
    H636     H        0.43953    0.56395    0.72478    1.000
    C637     C        0.82011    0.29586    0.33218    1.000
    X638     C        0.82805    0.30265    0.37797    1.000
    C639     C        0.80552    0.31729    0.40250    1.000
    C640     C        0.77576    0.32543    0.38168    1.000
    X641     C        0.76912    0.31917    0.33525    1.000
    C642     C        0.79155    0.30425    0.31127    1.000
    H643     H        0.83579    0.28362    0.31219    1.000
    H644     H        0.81206    0.32309    0.43761    1.000
    H645     H        0.78663    0.29843    0.27584    1.000
    O646     O        0.75303    0.34051    0.40512    1.000
    C647     C        0.75885    0.34654    0.45206    1.000
    H648     H        0.79143    0.37051    0.45978    1.000
    H649     H        0.75029    0.31674    0.46903    1.000
    H650     H        0.73819    0.35778    0.46480    1.000
    C651     C        0.67866    0.48764    0.40005    1.000
    X652     C        0.69695    0.52591    0.37735    1.000
    C653     C        0.70892    0.52673    0.33281    1.000
    C654     C        0.70175    0.49015    0.31037    1.000
    X655     C        0.68170    0.45150    0.33316    1.000
    C656     C        0.67121    0.45097    0.37828    1.000
    H657     H        0.66911    0.48584    0.43441    1.000
    H658     H        0.72433    0.55639    0.31597    1.000
    H659     H        0.65631    0.42192    0.39647    1.000
    O660     O        0.71471    0.49061    0.26598    1.000
    C661     C        0.73571    0.52913    0.24250    1.000
    H662     H        0.76530    0.55097    0.25946    1.000
    H663     H        0.71534    0.54293    0.23912    1.000
    H664     H        0.74337    0.52320    0.20858    1.000
    C665     C        0.79043    0.51324    0.11071    1.000
    X666     C        0.83305    0.52770    0.11589    1.000
    C667     C        0.84504    0.50337    0.14088    1.000
    C668     C        0.81516    0.46534    0.16114    1.000
    X669     C        0.77221    0.45173    0.15638    1.000
    C670     C        0.76060    0.47612    0.13084    1.000
    H671     H        0.78009    0.53133    0.09201    1.000
    H672     H        0.87792    0.51451    0.14423    1.000
    H673     H        0.72808    0.46666    0.12675    1.000
    O674     O        0.82647    0.44087    0.18719    1.000
    C675     C        0.86948    0.45410    0.19273    1.000
    H676     H        0.88579    0.48466    0.20992    1.000
    H677     H        0.88414    0.45554    0.16005    1.000
    H678     H        0.87226    0.43110    0.21381    1.000
    C679     C        0.20302    0.69931    0.59971    1.000
    X680     C        0.16221    0.68397    0.61645    1.000
    C681     C        0.15215    0.65993    0.65588    1.000
    C682     C        0.18173    0.65373    0.67942    1.000
    X683     C        0.22230    0.66961    0.66190    1.000
    C684     C        0.23206    0.69175    0.62163    1.000
    H685     H        0.21395    0.71887    0.57056    1.000
    H686     H        0.12067    0.64445    0.66789    1.000
    H687     H        0.26305    0.70490    0.60786    1.000
    O688     O        0.17182    0.63122    0.71978    1.000
    C689     C        0.13729    0.62690    0.74504    1.000
    H690     H        0.10753    0.60458    0.72874    1.000
    H691     H        0.13944    0.65758    0.74992    1.000
    H692     H        0.13782    0.61425    0.77832    1.000
    C693     C        0.20643    0.48460    0.88801    1.000
    X694     C        0.16388    0.46797    0.87899    1.000
    C695     C        0.15226    0.48975    0.84934    1.000
    C696     C        0.18236    0.52694    0.82805    1.000
    X697     C        0.22501    0.54337    0.83805    1.000
    C698     C        0.23642    0.52162    0.86789    1.000
    H699     H        0.21676    0.46851    0.91004    1.000
    H700     H        0.11955    0.47747    0.84310    1.000
    H701     H        0.26890    0.53318    0.87544    1.000
    O702     O        0.17170    0.54754    0.79557    1.000
    C703     C        0.13031    0.52689    0.77840    1.000
    H704     H        0.10792    0.52434    0.80444    1.000
    H705     H        0.12200    0.49576    0.76509    1.000
    H706     H        0.12848    0.54540    0.75050    1.000
    C707     C        0.52002    0.82776    0.66688    1.000
    X708     C        0.52366    0.83195    0.62015    1.000
    C709     C        0.48783    0.80462    0.59503    1.000
    C710     C        0.45004    0.77413    0.61560    1.000
    X711     C        0.44774    0.77103    0.66258    1.000
    C712     C        0.48315    0.79836    0.68736    1.000
    H713     H        0.54620    0.84581    0.68856    1.000
    H714     H        0.48866    0.80811    0.55941    1.000
    H715     H        0.48287    0.79653    0.72335    1.000
    O716     O        0.41411    0.74686    0.59110    1.000
    C717     C        0.41571    0.74856    0.54363    1.000
    H718     H        0.43979    0.74176    0.53099    1.000
    H719     H        0.42155    0.77933    0.53168    1.000
    H720     H        0.38518    0.72452    0.53034    1.000
    C721     C        0.27899    0.78871    0.89022    1.000
    X722     C        0.30276    0.83116    0.87863    1.000
    C723     C        0.33507    0.84223    0.84724    1.000
    C724     C        0.34328    0.81217    0.82762    1.000
    X725     C        0.31818    0.76978    0.83917    1.000
    C726     C        0.28621    0.75871    0.87042    1.000
    H727     H        0.25304    0.77781    0.91296    1.000
    H728     H        0.35486    0.87465    0.83927    1.000
    H729     H        0.26630    0.72638    0.87939    1.000
    O730     O        0.37491    0.82250    0.79566    1.000
    C731     C        0.40038    0.86492    0.78276    1.000
    H732     H        0.41805    0.88421    0.81179    1.000
    H733     H        0.38122    0.87689    0.76739    1.000
    H734     H        0.42311    0.86689    0.75755    1.000
    C735     C        0.51345    0.71892    0.88289    1.000
    X736     C        0.52451    0.68793    0.88201    1.000
    C737     C        0.49729    0.64989    0.86136    1.000
    C738     C        0.45945    0.64260    0.84135    1.000
    X739     C        0.44943    0.67486    0.84123    1.000
    C740     C        0.47681    0.71265    0.86253    1.000
    H741     H        0.53380    0.74860    0.89848    1.000
    H742     H        0.50597    0.62613    0.86135    1.000
    H743     H        0.47006    0.73783    0.86318    1.000
    O744     O        0.43157    0.60455    0.82055    1.000
    C745     C        0.43897    0.57048    0.82421    1.000
    H746     H        0.43982    0.56259    0.85972    1.000
    H747     H        0.46828    0.57767    0.80697    1.000
    H748     H        0.41309    0.54295    0.80781    1.000
    C749     C        0.02644    0.91413    0.26955    1.000
    X750     C        0.04349    0.95513    0.25306    1.000
    C751     C        0.08439    0.97363    0.23565    1.000
    C752     C        0.10764    0.95262    0.23496    1.000
    X753     C        0.08944    0.91140    0.25141    1.000
    C754     C        0.04891    0.89294    0.26880    1.000
    H755     H        0.99604    0.89830    0.28483    1.000
    H756     H        0.09768    0.00390    0.22058    1.000
    H757     H        0.03426    0.86163    0.28200    1.000
    O758     O        0.14886    0.97143    0.21873    1.000
    C759     C        0.16914    0.01382    0.20473    1.000
    H760     H        0.17068    0.03428    0.23252    1.000
    H761     H        0.15313    0.01753    0.17536    1.000
    H762     H        0.20142    0.02328    0.19472    1.000
    C763     C        0.08143    0.11245    0.26993    1.000
    X764     C        0.04079    0.08846    0.25262    1.000
    C765     C        0.02248    0.11075    0.23446    1.000
    C766     C        0.04349    0.15505    0.23356    1.000
    X767     C        0.08433    0.17813    0.25108    1.000
    C768     C        0.10251    0.15604    0.26919    1.000
    H769     H        0.09702    0.09801    0.28603    1.000
    H770     H        0.99237    0.09356    0.21905    1.000
    H771     H        0.13349    0.17261    0.28323    1.000
    O772     O        0.02517    0.17735    0.21576    1.000
    C773     C        0.98368    0.15507    0.19906    1.000
    H774     H        0.96173    0.13589    0.22575    1.000
    H775     H        0.98178    0.13556    0.17014    1.000
    H776     H        0.97458    0.17776    0.18748    1.000
    C777     C        0.88289    0.96499    0.27769    1.000
    X778     C        0.90633    0.95205    0.25258    1.000
    C779     C        0.88462    0.91615    0.22621    1.000
    C780     C        0.84036    0.89318    0.22474    1.000
    X781     C        0.81719    0.90673    0.25047    1.000
    C782     C        0.83926    0.94282    0.27661    1.000
    H783     H        0.89833    0.99216    0.29882    1.000
    H784     H        0.90268    0.90677    0.20620    1.000
    H785     H        0.82268    0.95399    0.29674    1.000
    O786     O        0.81822    0.85725    0.19815    1.000
    C787     C        0.84074    0.84272    0.17248    1.000
    H788     H        0.85961    0.83454    0.19449    1.000
    H789     H        0.86061    0.86635    0.14742    1.000
    H790     H        0.81821    0.81423    0.15437    1.000
    C791     C        0.11509    0.08555    0.76577    1.000
    X792     C        0.09127    0.04470    0.74900    1.000
    C793     C        0.11367    0.02632    0.73129    1.000
    C794     C        0.15794    0.04732    0.73070    1.000
    X795     C        0.18088    0.08823    0.74798    1.000
    C796     C        0.15870    0.10661    0.76538    1.000
    H797     H        0.10046    0.10128    0.78115    1.000
    H798     H        0.09658    0.99608    0.71612    1.000
    H799     H        0.17522    0.13773    0.77906    1.000
    O800     O        0.18037    0.02883    0.71370    1.000
    C801     C        0.15819    0.98723    0.69726    1.000
    H802     H        0.13894    0.98518    0.66802    1.000
    H803     H        0.13875    0.96545    0.72395    1.000
    H804     H        0.18095    0.97802    0.68625    1.000
    C805     C        0.91887    0.03173    0.77447    1.000
    X806     C        0.95600    0.04611    0.75038    1.000
    C807     C        0.97020    0.08269    0.72515    1.000
    C808     C        0.94816    0.10493    0.72390    1.000
    X809     C        0.91050    0.08970    0.74830    1.000
    C810     C        0.89658    0.05304    0.77340    1.000
    H811     H        0.90709    0.00402    0.79474    1.000
    H812     H        0.99822    0.09322    0.70585    1.000
    H813     H        0.86817    0.04065    0.79259    1.000
    O814     O        0.96231    0.14191    0.69907    1.000
    C815     C        0.00093    0.15880    0.67589    1.000
    H816     H        0.99939    0.13695    0.64971    1.000
    H817     H        0.02677    0.16633    0.69951    1.000
    H818     H        0.00716    0.18805    0.65933    1.000
    C819     C        0.92034    0.88679    0.77613    1.000
    X820     C        0.95578    0.90962    0.74951    1.000
    C821     C        0.96903    0.88748    0.72247    1.000
    C822     C        0.94755    0.84327    0.72183    1.000
    X823     C        0.91160    0.82092    0.74844    1.000
    C824     C        0.89877    0.84316    0.77579    1.000
    H825     H        0.90952    0.90271    0.79778    1.000
    H826     H        0.99599    0.90513    0.70166    1.000
    H827     H        0.87156    0.82664    0.79672    1.000
    O828     O        0.96126    0.82024    0.69668    1.000
    C829     C        0.00071    0.84207    0.67506    1.000
    H830     H        0.02567    0.86062    0.69951    1.000
    H831     H        0.99999    0.86217    0.64811    1.000
    H832     H        0.00783    0.81919    0.65986    1.000
    C833     C        0.31426    0.32397    0.11340    1.000
    X834     C        0.33336    0.30312    0.13193    1.000
    C835     C        0.32404    0.28944    0.17638    1.000
    C836     C        0.29563    0.29599    0.20219    1.000
    X837     C        0.27679    0.31731    0.18287    1.000
    C838     C        0.28677    0.33121    0.13849    1.000
    H839     H        0.32102    0.33520    0.07945    1.000
    H840     H        0.33874    0.27317    0.19025    1.000
    H841     H        0.27267    0.34733    0.12266    1.000
    O842     O        0.28554    0.28247    0.24676    1.000
    C843     C        0.30348    0.26016    0.26652    1.000
    H844     H        0.33786    0.27989    0.26808    1.000
    H845     H        0.29424    0.23097    0.24788    1.000
    H846     H        0.29167    0.25163    0.30103    1.000
    C847     C        0.96244    0.29221    0.32508    1.000
    X848     C        0.96532    0.30542    0.36944    1.000
    C849     C        0.00475    0.32658    0.38932    1.000
    C850     C        0.04112    0.33430    0.36590    1.000
    X851     C        0.03766    0.32033    0.32115    1.000
    C852     C        0.99799    0.29931    0.30143    1.000
    H853     H        0.93243    0.27556    0.30888    1.000
    H854     H        0.00668    0.33716    0.42319    1.000
    H855     H        0.99440    0.28818    0.26749    1.000
    O856     O        0.08094    0.35469    0.38584    1.000
    C857     C        0.08512    0.36882    0.43074    1.000
    H858     H        0.06731    0.34221    0.45364    1.000
    H859     H        0.07493    0.39219    0.43389    1.000
    H860     H        0.11837    0.38401    0.44033    1.000
    C861     C        0.31690    0.99509    0.38474    1.000
    X862     C        0.33528    0.03504    0.36628    1.000
    C863     C        0.32425    0.03934    0.32253    1.000
    C864     C        0.29504    0.00425    0.29732    1.000
    X865     C        0.27724    0.96402    0.31644    1.000
    C866     C        0.28870    0.96027    0.36021    1.000
    H867     H        0.32489    0.99066    0.41817    1.000
    H868     H        0.33836    0.07031    0.30874    1.000
    H869     H        0.27549    0.93006    0.37594    1.000
    O870     O        0.28324    0.00759    0.25347    1.000
    C871     C        0.29950    0.04790    0.23423    1.000
    H872     H        0.33386    0.06340    0.23117    1.000
    H873     H        0.29018    0.06710    0.25418    1.000
    H874     H        0.28638    0.04448    0.20030    1.000
    C875     C        0.70297    0.03138    0.17563    1.000
    X876     C        0.69050    0.02849    0.13095    1.000
    C877     C        0.67033    0.98904    0.11093    1.000
    C878     C        0.66306    0.95282    0.13438    1.000
    X879     C        0.67611    0.95628    0.17947    1.000
    C880     C        0.69609    0.99589    0.19941    1.000
    H881     H        0.71892    0.06135    0.19199    1.000
    H882     H        0.66025    0.98696    0.07683    1.000
    H883     H        0.70655    0.99949    0.23361    1.000
    O884     O        0.64409    0.91315    0.11412    1.000
    C885     C        0.63181    0.90905    0.06853    1.000
    H886     H        0.65921    0.92773    0.04688    1.000
    H887     H        0.60786    0.91828    0.06385    1.000
    H888     H        0.61795    0.87596    0.05868    1.000
    C889     C        0.29244    0.32790    0.67879    1.000
    X890     C        0.30193    0.33536    0.63323    1.000
    C891     C        0.31909    0.31379    0.61180    1.000
    C892     C        0.32633    0.28469    0.63478    1.000
    X893     C        0.31679    0.27763    0.68085    1.000
    C894     C        0.29957    0.29928    0.70220    1.000
    H895     H        0.27885    0.34372    0.69624    1.000
    H896     H        0.32697    0.32020    0.57698    1.000
    H897     H        0.29179    0.29422    0.73724    1.000
    O898     O        0.34177    0.26130    0.61323    1.000
    C899     C        0.34952    0.26627    0.56646    1.000
    H900     H        0.37436    0.29849    0.55871    1.000
    H901     H        0.32052    0.25811    0.54796    1.000
    H902     H        0.36033    0.24475    0.55552    1.000
    C903     C        0.29471    0.96489    0.82102    1.000
    X904     C        0.30428    0.96692    0.86662    1.000
    C905     C        0.32159    0.00578    0.88782    1.000
    C906     C        0.32863    0.04207    0.86472    1.000
    X907     C        0.31932    0.03957    0.81856    1.000
    C908     C        0.30207    0.00062    0.79742    1.000
    H909     H        0.28084    0.93543    0.80364    1.000
    H910     H        0.32973    0.00746    0.92256    1.000
    H911     H        0.29423    0.99776    0.76238    1.000
    O912     O        0.34355    0.08080    0.88630    1.000
    C913     C        0.34817    0.08283    0.93356    1.000
    H914     H        0.37287    0.07595    0.94366    1.000
    H915     H        0.31816    0.06126    0.94997    1.000
    H916     H        0.35759    0.11478    0.94470    1.000
    C917     C        0.00596    0.68524    0.11231    1.000
    X918     C        0.96624    0.66558    0.13150    1.000
    C919     C        0.96241    0.67449    0.17624    1.000
    C920     C        0.99766    0.70323    0.20158    1.000
    X921     C        0.03752    0.72289    0.18138    1.000
    C922     C        0.04088    0.71315    0.13680    1.000
    H923     H        0.01015    0.67872    0.07816    1.000
    H924     H        0.93164    0.65931    0.19067    1.000
    H925     H        0.07083    0.72765    0.12036    1.000
    O926     O        0.99486    0.71280    0.24651    1.000
    C927     C        0.95506    0.69334    0.26749    1.000
    H928     H        0.94151    0.65907    0.26829    1.000
    H929     H        0.93392    0.70188    0.25026    1.000
    H930     H        0.95888    0.70453    0.30234    1.000
    C931     C        0.00999    0.65863    0.65622    1.000
    X932     C        0.02969    0.68972    0.62363    1.000
    C933     C        0.01363    0.71626    0.61556    1.000
    C934     C        0.97785    0.71136    0.63784    1.000
    X935     C        0.95853    0.68007    0.67104    1.000
    C936     C        0.97527    0.65414    0.67977    1.000
    H937     H        0.02105    0.63723    0.66322    1.000
    H938     H        0.02972    0.74142    0.59223    1.000
    H939     H        0.96104    0.62974    0.70447    1.000
    O940     O        0.96104    0.73730    0.62854    1.000
    C941     C        0.97122    0.75934    0.58727    1.000
    H942     H        0.96452    0.73772    0.55887    1.000
    H943     H        0.00422    0.78455    0.58694    1.000
    H944     H        0.95174    0.77405    0.58353    1.000
    C945     C        0.98898    0.31309    0.88701    1.000
    X946     C        0.02880    0.33152    0.86824    1.000
    C947     C        0.03288    0.32132    0.82411    1.000
    C948     C        0.99771    0.29272    0.79879    1.000
    X949     C        0.95765    0.27449    0.81839    1.000
    C950     C        0.95405    0.28529    0.86247    1.000
    H951     H        0.98476    0.32057    0.92076    1.000
    H952     H        0.06378    0.33546    0.81013    1.000
    H953     H        0.92393    0.27176    0.87845    1.000
    O954     O        0.00082    0.28184    0.75446    1.000
    C955     C        0.04095    0.29903    0.73452    1.000
    H956     H        0.06068    0.28966    0.75337    1.000
    H957     H        0.05601    0.33342    0.73242    1.000
    H958     H        0.03730    0.28672    0.70017    1.000
    C959     C        0.70717    0.67111    0.32340    1.000
    X960     C        0.69385    0.66016    0.36760    1.000
    C961     C        0.67169    0.67729    0.38764    1.000
    C962     C        0.66304    0.70544    0.36453    1.000
    X963     C        0.67738    0.71687    0.32004    1.000
    C964     C        0.69937    0.69929    0.30013    1.000
    H965     H        0.72445    0.65848    0.30709    1.000
    H966     H        0.66110    0.66812    0.42143    1.000
    H967     H        0.71069    0.70744    0.26632    1.000
    O968     O        0.64130    0.72344    0.38457    1.000
    C969     C        0.62590    0.71160    0.42886    1.000
    H970     H        0.65195    0.72054    0.45260    1.000
    H971     H        0.60338    0.67771    0.43058    1.000
    H972     H        0.60934    0.72825    0.43863    1.000
    C973     C        0.68041    0.00440    0.61168    1.000
    X974     C        0.66033    0.96470    0.63085    1.000
    C975     C        0.66973    0.96049    0.67531    1.000
    C976     C        0.69909    0.99540    0.70052    1.000
    X977     C        0.71899    0.03527    0.68048    1.000
    C978     C        0.70900    0.03903    0.63609    1.000
    H979     H        0.67364    0.00879    0.57770    1.000
    H980     H        0.65433    0.92969    0.68965    1.000
    H981     H        0.72376    0.06907    0.61981    1.000
    O982     O        0.70900    0.99225    0.74524    1.000
    C983     C        0.68918    0.95239    0.76610    1.000
    H984     H        0.69705    0.93093    0.74846    1.000
    H985     H        0.65499    0.93936    0.76736    1.000
    H986     H        0.70070    0.95593    0.80079    1.000
    C987     C        0.70322    0.71744    0.87271    1.000
    X988     C        0.66064    0.68831    0.87035    1.000
    C989     C        0.64784    0.65332    0.84272    1.000
    C990     C        0.67715    0.64684    0.81844    1.000
    X991     C        0.72012    0.67632    0.82225    1.000
    C992     C        0.73229    0.71151    0.84932    1.000
    H993     H        0.71427    0.74531    0.89259    1.000
    H994     H        0.61502    0.63089    0.84121    1.000
    H995     H        0.76478    0.73493    0.85255    1.000
    O996     O        0.66539    0.61168    0.79120    1.000
    C997     C        0.62229    0.58178    0.78670    1.000
    H998     H        0.60518    0.59633    0.77198    1.000
    H999     H        0.60882    0.56736    0.81940    1.000
    H1000    H        0.61899    0.55683    0.76389    1.000
