data_functionalizedCrystal
_audit_creation_method	'EQeq! by Chris Wilmer'
_symmetry_space_group_name_H-M	'P1'
_symmetry_Int_Tables_number	1
_symmetry_cell_setting	triclinic
loop_
_symmetry_equiv_pos_as_xyz
  x,y,z
_cell_length_a	7.4306
_cell_length_b	13.177
_cell_length_c	14.0194
_cell_angle_alpha	90
_cell_angle_beta	91.378
_cell_angle_gamma	90
loop_
_atom_site_label
_atom_site_type_symbol
_atom_site_fract_x
_atom_site_fract_y
_atom_site_fract_z
_atom_site_charge
Mof_Fe	Fe	0.5	0.5	-0	0.658
Mof_Fe	Fe	-0	0	-0	0.519
Mof_Fe	Fe	-2.5889e-18	0	0.5	0.459
Mof_Fe	Fe	0.5	0.5	0.5	0.572
Mof_H 	H 	0.375	0.284	0.011	-0.054
Mof_H 	H 	0.372	0.154	0.115	0.084
Mof_H 	H 	0.457	0.19	0.263	-0.03
Mof_H 	H 	0.526	0.459	0.204	-0.034
Mof_H 	H 	0.125	0.784	0.989	0.018
Mof_H 	H 	0.128	0.654	0.885	0.099
Mof_H 	H 	0.043	0.69	0.737	-0.018
Mof_H 	H 	0.974	0.959	0.796	0.083
Mof_H 	H 	0.625	0.716	0.989	0.013
Mof_H 	H 	0.628	0.846	0.885	0.129
Mof_H 	H 	0.543	0.81	0.737	-0.001
Mof_H 	H 	0.474	0.541	0.796	-0.036
Mof_H 	H 	0.875	0.216	0.011	-0.047
Mof_H 	H 	0.872	0.346	0.115	0.109
Mof_H 	H 	0.957	0.31	0.263	-0.011
Mof_H 	H 	0.026	0.041	0.204	-0.156
Mof_Au	Au	0.73154	0.24735	0.75933	0.059
Mof_Au	Au	0.97712	0.46033	0.77643	0.118
Mof_Au	Au	0.76846	0.74735	0.24067	0.058
Mof_Au	Au	0.52288	0.96033	0.22357	0.07
Mof_Au	Au	0.26846	0.75265	0.24067	0.022
Mof_Au	Au	0.02288	0.53967	0.22357	-0.026
Mof_Au	Au	0.23154	0.25265	0.75933	0.024
Mof_Au	Au	0.47712	0.03967	0.77643	0.044
Mof_C 	C 	0.6532	0.3403	0.8614	0.063
Mof_C 	C 	0.1505	0.4592	0.8855	0.026
Mof_C 	C 	0.4004	0.2996	0.0689	0.129
Mof_C 	C 	0.3932	0.2198	0.1332	-0.215
Mof_C 	C 	0.4443	0.2394	0.2254	0.124
Mof_C 	C 	0.499	0.4045	0.1878	0.153
Mof_C 	C 	0.8108	0.1555	0.6548	0.035
Mof_C 	C 	0.8169	0.4831	0.6639	0.04
Mof_C 	C 	0.8468	0.8403	0.1386	0.039
Mof_C 	C 	0.3495	0.9592	0.1145	0.042
Mof_C 	C 	0.0996	0.7996	0.9311	0.113
Mof_C 	C 	0.1068	0.7198	0.8668	-0.175
Mof_C 	C 	0.0557	0.7394	0.7746	0.111
Mof_C 	C 	0.001	0.9045	0.8122	0.024
Mof_C 	C 	0.6892	0.6555	0.3452	0.048
Mof_C 	C 	0.6831	0.9831	0.3361	0.114
Mof_C 	C 	0.3468	0.6597	0.1386	0.029
Mof_C 	C 	0.8495	0.5408	0.1145	0.066
Mof_C 	C 	0.5996	0.7004	0.9311	0.137
Mof_C 	C 	0.6068	0.7802	0.8668	-0.19
Mof_C 	C 	0.5557	0.7606	0.7746	0.128
Mof_C 	C 	0.501	0.5955	0.8122	0.158
Mof_C 	C 	0.1892	0.8445	0.3452	0.039
Mof_C 	C 	0.1831	0.5169	0.3361	0.047
Mof_C 	C 	0.1532	0.1597	0.8614	0.045
Mof_C 	C 	0.6505	0.0408	0.8855	0.041
Mof_C 	C 	0.9004	0.2004	0.0689	0.143
Mof_C 	C 	0.8932	0.2802	0.1332	-0.22
Mof_C 	C 	0.9443	0.2606	0.2254	0.137
Mof_C 	C 	0.999	0.0955	0.1878	0.302
Mof_C 	C 	0.3108	0.3445	0.6548	0.028
Mof_C 	C 	0.3169	0.0169	0.6639	-0.034
Mof_N 	N 	0.6051	0.3985	0.917	-0.163
Mof_N 	N 	0.2706	0.4713	0.9383	-0.16
Mof_N 	N 	0.4582	0.3926	0.0964	-0.23
Mof_N 	N 	0.4975	0.3325	0.2543	-0.164
Mof_N 	N 	0.8571	0.1008	0.5974	-0.166
Mof_N 	N 	0.7178	0.5002	0.602	-0.176
Mof_N 	N 	0.8949	0.8985	0.083	-0.165
Mof_N 	N 	0.2294	0.9713	0.0617	-0.18
Mof_N 	N 	0.0418	0.8926	0.9036	-0.151
Mof_N 	N 	0.0025	0.8325	0.7457	-0.133
Mof_N 	N 	0.6429	0.6008	0.4026	-0.175
Mof_N 	N 	0.7822	0.0002	0.398	-0.214
Mof_N 	N 	0.3949	0.6015	0.083	-0.21
Mof_N 	N 	0.7294	0.5287	0.0617	-0.218
Mof_N 	N 	0.5418	0.6074	0.9036	-0.2
Mof_N 	N 	0.5025	0.6675	0.7457	-0.16
Mof_N 	N 	0.1429	0.8992	0.4026	-0.157
Mof_N 	N 	0.2822	0.4998	0.398	-0.187
Mof_N 	N 	0.1051	0.1015	0.917	-0.167
Mof_N 	N 	0.7706	0.0287	0.9383	-0.154
Mof_N 	N 	0.9582	0.1074	0.0964	-0.243
Mof_N 	N 	0.9975	0.1675	0.2543	-0.185
Mof_N 	N 	0.3571	0.3992	0.5974	-0.182
Mof_N 	N 	0.2178	0.9998	0.602	-0.112
_end
