data_functionalizedCrystal
_audit_creation_method	'EQeq! by Chris Wilmer'
_symmetry_space_group_name_H-M	'P1'
_symmetry_Int_Tables_number	1
_symmetry_cell_setting	triclinic
loop_
_symmetry_equiv_pos_as_xyz
  x,y,z
_cell_length_a	15.9082
_cell_length_b	15.9082
_cell_length_c	21.6184
_cell_angle_alpha	90
_cell_angle_beta	90
_cell_angle_gamma	90
loop_
_atom_site_label
_atom_site_type_symbol
_atom_site_fract_x
_atom_site_fract_y
_atom_site_fract_z
_atom_site_charge
Mof_C 	C 	0.9134	0.8594	0.3588	0.08
Mof_H 	H 	0.9623	0.888	0.3481	0.014
Mof_C 	C 	0.8845	0.7978	0.3189	-0.137
Mof_H 	H 	0.914	0.7857	0.2828	0.082
Mof_C 	C 	0.8108	0.7537	0.3328	0.068
Mof_C 	C 	0.7681	0.7809	0.3856	-0.14
Mof_H 	H 	0.7165	0.7572	0.3956	0.076
Mof_C 	C 	0.8013	0.842	0.4228	0.075
Mof_H 	H 	0.7712	0.8581	0.4577	0.005
Mof_C 	C 	0.78	0.6815	0.2959	0.025
Mof_C 	C 	0.8095	0.6651	0.2365	-0.092
Mof_H 	H 	0.8497	0.7004	0.219	0.064
Mof_C 	C 	0.7799	0.5973	0.2032	0.012
Mof_H 	H 	0.7997	0.588	0.1633	0.023
Mof_C 	C 	0.7209	0.5428	0.2285	-0.091
Mof_H 	H 	0.7022	0.4964	0.2063	0.069
Mof_C 	C 	0.6902	0.5588	0.28779	0.028
Mof_C 	C 	0.7198	0.6269	0.32052	-0.091
Mof_H 	H 	0.6993	0.6368	0.3601	0.064
Mof_C 	C 	0.6272	0.5033	0.31857	0.093
Mof_C 	C 	0.5767	0.4083	0.38105	0.092
Mof_C 	C 	0.5687	0.3389	0.42555	0.027
Mof_C 	C 	0.497	0.337	0.463	-0.088
Mof_H 	H 	0.4567	0.379	0.4595	0.064
Mof_C 	C 	0.4862	0.2732	0.5051	0.008
Mof_H 	H 	0.4388	0.2729	0.5304	0.023
Mof_C 	C 	0.545	0.2089	0.5106	-0.085
Mof_H 	H 	0.5373	0.1665	0.5396	0.058
Mof_C 	C 	0.6167	0.2084	0.4717	0.021
Mof_C 	C 	0.6271	0.2732	0.4296	-0.089
Mof_H 	H 	0.6736	0.2732	0.4036	0.065
Mof_C 	C 	0.6813	0.1427	0.4779	0.065
Mof_C 	C 	0.6909	0.095	0.5318	-0.137
Mof_H 	H 	0.6535	0.1017	0.5644	0.076
Mof_C 	C 	0.7564	0.0376	0.5364	0.077
Mof_H 	H 	0.7611	0.0066	0.5727	0.008
Mof_C 	C 	0.8027	0.067	0.4394	0.077
Mof_H 	H 	0.8404	0.0575	0.4072	0.012
Mof_C 	C 	0.7389	0.1248	0.4303	-0.133
Mof_H 	H 	0.7341	0.1522	0.3925	0.073
Mof_N 	N 	0.8756	0.8802	0.41147	-0.153
Mof_N 	N 	0.5456	0.5077	0.31612	-0.116
Mof_N 	N 	0.5127	0.4468	0.35555	-0.102
Mof_N 	N 	0.6493	0.4422	0.35865	-0.104
Mof_N 	N 	0.7316	0.4214	0.3783	-0.209
Mof_H 	H 	0.776	0.4533	0.377	0.106
Mof_H 	H 	0.7581	0.3913	0.3499	0.101
Mof_N 	N 	0.813	0.0241	0.49202	-0.15
Mof_C 	C 	0.0866	0.1406	0.8588	0.079
Mof_H 	H 	0.0377	0.112	0.8481	0.013
Mof_C 	C 	0.1155	0.2022	0.8189	-0.137
Mof_H 	H 	0.086	0.2143	0.7828	0.081
Mof_C 	C 	0.1892	0.2463	0.8328	0.067
Mof_C 	C 	0.2319	0.2191	0.8856	-0.139
Mof_H 	H 	0.2835	0.2428	0.8956	0.077
Mof_C 	C 	0.1987	0.158	0.9228	0.075
Mof_H 	H 	0.2288	0.1419	0.9577	0.008
Mof_C 	C 	0.22	0.3185	0.7959	0.025
Mof_C 	C 	0.1905	0.3349	0.7365	-0.092
Mof_H 	H 	0.1503	0.2996	0.719	0.064
Mof_C 	C 	0.2201	0.4027	0.7032	0.012
Mof_H 	H 	0.2003	0.412	0.6633	0.023
Mof_C 	C 	0.2791	0.4572	0.7285	-0.091
Mof_H 	H 	0.2978	0.5036	0.7063	0.069
Mof_C 	C 	0.3098	0.4412	0.78779	0.028
Mof_C 	C 	0.2802	0.3731	0.82052	-0.091
Mof_H 	H 	0.3007	0.3632	0.8601	0.064
Mof_C 	C 	0.3728	0.4967	0.81857	0.093
Mof_C 	C 	0.4233	0.5917	0.88105	0.094
Mof_C 	C 	0.4313	0.6611	0.92555	0.023
Mof_C 	C 	0.503	0.663	0.963	-0.075
Mof_H 	H 	0.5433	0.621	0.9595	0.062
Mof_C 	C 	0.5138	0.7268	0.0051	-0.004
Mof_H 	H 	0.5612	0.7271	0.0304	0.026
Mof_C 	C 	0.455	0.7911	0.0106	-0.087
Mof_H 	H 	0.4627	0.8335	0.0396	0.057
Mof_C 	C 	0.3833	0.7916	0.9717	0.023
Mof_C 	C 	0.3729	0.7268	0.9296	-0.086
Mof_H 	H 	0.3264	0.7268	0.9036	0.065
Mof_C 	C 	0.3187	0.8573	0.9779	0.073
Mof_C 	C 	0.3091	0.905	0.0318	-0.145
Mof_H 	H 	0.3465	0.8983	0.0644	0.078
Mof_C 	C 	0.2436	0.9624	0.0364	0.072
Mof_H 	H 	0.2389	0.9934	0.0727	0.008
Mof_C 	C 	0.1973	0.933	0.9394	0.079
Mof_H 	H 	0.1596	0.9425	0.9072	0.012
Mof_C 	C 	0.2611	0.8752	0.9303	-0.136
Mof_H 	H 	0.2659	0.8478	0.8925	0.074
Mof_N 	N 	0.1244	0.1198	0.91147	-0.151
Mof_N 	N 	0.4544	0.4923	0.81612	-0.116
Mof_N 	N 	0.4873	0.5532	0.85555	-0.102
Mof_N 	N 	0.3507	0.5578	0.85865	-0.104
Mof_N 	N 	0.2684	0.5786	0.8783	-0.208
Mof_H 	H 	0.224	0.5467	0.877	0.106
Mof_H 	H 	0.2419	0.6087	0.8499	0.101
Mof_N 	N 	0.187	0.9759	0.99202	-0.146
Mof_C 	C 	0.6406	0.4134	0.6088	0.079
Mof_H 	H 	0.612	0.4623	0.5981	0.013
Mof_C 	C 	0.7022	0.3845	0.5689	-0.138
Mof_H 	H 	0.7143	0.414	0.5328	0.082
Mof_C 	C 	0.7463	0.3108	0.5828	0.068
Mof_C 	C 	0.7191	0.2681	0.6356	-0.14
Mof_H 	H 	0.7428	0.2165	0.6456	0.076
Mof_C 	C 	0.658	0.3013	0.6728	0.075
Mof_H 	H 	0.6419	0.2712	0.7077	0.006
Mof_C 	C 	0.8185	0.28	0.5459	0.024
Mof_C 	C 	0.8349	0.3095	0.4865	-0.09
Mof_H 	H 	0.7996	0.3497	0.469	0.064
Mof_C 	C 	0.9027	0.2799	0.4532	0.009
Mof_H 	H 	0.912	0.2997	0.4133	0.024
Mof_C 	C 	0.9572	0.2209	0.4785	-0.087
Mof_H 	H 	0.0036	0.2022	0.4563	0.068
Mof_C 	C 	0.9412	0.1902	0.53779	0.026
Mof_C 	C 	0.8731	0.2198	0.57052	-0.089
Mof_H 	H 	0.8632	0.1993	0.6101	0.063
Mof_C 	C 	0.9967	0.1272	0.56857	0.095
Mof_C 	C 	0.0917	0.0767	0.63105	0.092
Mof_C 	C 	0.1611	0.0687	0.67555	0.026
Mof_C 	C 	0.163	0.997	0.713	-0.088
Mof_H 	H 	0.121	0.9567	0.7095	0.064
Mof_C 	C 	0.2268	0.9862	0.7551	0.008
Mof_H 	H 	0.2271	0.9388	0.7804	0.023
Mof_C 	C 	0.2911	0.045	0.7606	-0.085
Mof_H 	H 	0.3335	0.0373	0.7896	0.058
Mof_C 	C 	0.2916	0.1167	0.7217	0.021
Mof_C 	C 	0.2268	0.1271	0.6796	-0.089
Mof_H 	H 	0.2268	0.1736	0.6536	0.065
Mof_C 	C 	0.3573	0.1813	0.7279	0.065
Mof_C 	C 	0.405	0.1909	0.7818	-0.137
Mof_H 	H 	0.3983	0.1535	0.8144	0.077
Mof_C 	C 	0.4624	0.2564	0.7864	0.077
Mof_H 	H 	0.4934	0.2611	0.8227	0.008
Mof_C 	C 	0.433	0.3027	0.6894	0.077
Mof_H 	H 	0.4425	0.3404	0.6572	0.012
Mof_C 	C 	0.3752	0.2389	0.6803	-0.133
Mof_H 	H 	0.3478	0.2341	0.6425	0.073
Mof_N 	N 	0.6198	0.3756	0.66147	-0.153
Mof_N 	N 	0.9923	0.0456	0.56612	-0.116
Mof_N 	N 	0.0532	0.0127	0.60555	-0.102
Mof_N 	N 	0.0578	0.1493	0.60865	-0.105
Mof_N 	N 	0.0786	0.2316	0.6283	-0.209
Mof_H 	H 	0.0467	0.276	0.627	0.106
Mof_H 	H 	0.1087	0.2581	0.5999	0.101
Mof_N 	N 	0.4759	0.313	0.74202	-0.151
Mof_C 	C 	0.3594	0.5866	0.1088	0.081
Mof_H 	H 	0.388	0.5377	0.0981	0.011
Mof_C 	C 	0.2978	0.6155	0.0689	-0.144
Mof_H 	H 	0.2857	0.586	0.0328	0.082
Mof_C 	C 	0.2537	0.6892	0.0828	0.077
Mof_C 	C 	0.2809	0.7319	0.1356	-0.146
Mof_H 	H 	0.2572	0.7835	0.1456	0.079
Mof_C 	C 	0.342	0.6987	0.1728	0.078
Mof_H 	H 	0.3581	0.7288	0.2077	0.004
Mof_C 	C 	0.1815	0.72	0.0459	0.001
Mof_C 	C 	0.1651	0.6905	0.9865	-0.062
Mof_H 	H 	0.2004	0.6503	0.969	0.056
Mof_C 	C 	0.0973	0.7201	0.9532	-0.014
Mof_H 	H 	0.088	0.7003	0.9133	0.033
Mof_C 	C 	0.0428	0.7791	0.9785	-0.059
Mof_H 	H 	0.9964	0.7978	0.9563	0.059
Mof_C 	C 	0.0588	0.8098	0.03779	0.004
Mof_C 	C 	0.1269	0.7802	0.07052	-0.072
Mof_H 	H 	0.1368	0.8007	0.1101	0.057
Mof_C 	C 	0.0033	0.8728	0.06857	0.099
Mof_C 	C 	0.9083	0.9233	0.13105	0.092
Mof_C 	C 	0.8389	0.9313	0.17555	0.025
Mof_C 	C 	0.837	0.003	0.213	-0.087
Mof_H 	H 	0.879	0.0433	0.2095	0.064
Mof_C 	C 	0.7732	0.0138	0.2551	0.009
Mof_H 	H 	0.7729	0.0612	0.2804	0.023
Mof_C 	C 	0.7089	0.955	0.2606	-0.086
Mof_H 	H 	0.6665	0.9627	0.2896	0.058
Mof_C 	C 	0.7084	0.8833	0.2217	0.021
Mof_C 	C 	0.7732	0.8729	0.1796	-0.089
Mof_H 	H 	0.7732	0.8264	0.1536	0.065
Mof_C 	C 	0.6427	0.8187	0.2279	0.065
Mof_C 	C 	0.595	0.8091	0.2818	-0.137
Mof_H 	H 	0.6017	0.8465	0.3144	0.076
Mof_C 	C 	0.5376	0.7436	0.2864	0.077
Mof_H 	H 	0.5066	0.7389	0.3227	0.008
Mof_C 	C 	0.567	0.6973	0.1894	0.076
Mof_H 	H 	0.5575	0.6596	0.1572	0.012
Mof_C 	C 	0.6248	0.7611	0.1803	-0.133
Mof_H 	H 	0.6522	0.7659	0.1425	0.073
Mof_N 	N 	0.3802	0.6244	0.16147	-0.154
Mof_N 	N 	0.0077	0.9544	0.06612	-0.118
Mof_N 	N 	0.9468	0.9873	0.10555	-0.102
Mof_N 	N 	0.9422	0.8507	0.10865	-0.105
Mof_N 	N 	0.9214	0.7684	0.1283	-0.208
Mof_H 	H 	0.9533	0.724	0.127	0.105
Mof_H 	H 	0.8913	0.7419	0.0999	0.1
Mof_N 	N 	0.5241	0.687	0.24202	-0.151
Mof_C 	C 	0.5866	0.3594	0.8912	0.077
Mof_H 	H 	0.5377	0.388	0.9019	0.014
Mof_C 	C 	0.6155	0.2978	0.9311	-0.133
Mof_H 	H 	0.586	0.2857	0.9672	0.082
Mof_C 	C 	0.6892	0.2537	0.9172	0.061
Mof_C 	C 	0.7319	0.2809	0.8644	-0.135
Mof_H 	H 	0.7835	0.2572	0.8544	0.074
Mof_C 	C 	0.6987	0.342	0.8272	0.073
Mof_H 	H 	0.7288	0.3581	0.7923	0.006
Mof_C 	C 	0.72	0.1815	0.9541	0.043
Mof_C 	C 	0.6905	0.1651	0.0135	-0.114
Mof_H 	H 	0.6503	0.2004	0.031	0.07
Mof_C 	C 	0.7201	0.0973	0.0468	0.029
Mof_H 	H 	0.7003	0.088	0.0867	0.017
Mof_C 	C 	0.7791	0.0428	0.0215	-0.11
Mof_H 	H 	0.7978	0.9964	0.0437	0.074
Mof_C 	C 	0.8098	0.0588	0.96221	0.044
Mof_C 	C 	0.7802	0.1269	0.92948	-0.104
Mof_H 	H 	0.8007	0.1368	0.8899	0.068
Mof_C 	C 	0.8728	0.0033	0.93143	0.091
Mof_C 	C 	0.9233	0.9083	0.86895	0.092
Mof_C 	C 	0.9313	0.8389	0.82445	0.025
Mof_C 	C 	0.003	0.837	0.787	-0.087
Mof_H 	H 	0.0433	0.879	0.7905	0.064
Mof_C 	C 	0.0138	0.7732	0.7449	0.009
Mof_H 	H 	0.0612	0.7729	0.7196	0.023
Mof_C 	C 	0.955	0.7089	0.7394	-0.086
Mof_H 	H 	0.9627	0.6665	0.7104	0.058
Mof_C 	C 	0.8833	0.7084	0.7783	0.021
Mof_C 	C 	0.8729	0.7732	0.8204	-0.089
Mof_H 	H 	0.8264	0.7732	0.8464	0.066
Mof_C 	C 	0.8187	0.6427	0.7721	0.065
Mof_C 	C 	0.8091	0.595	0.7182	-0.137
Mof_H 	H 	0.8465	0.6017	0.6856	0.076
Mof_C 	C 	0.7436	0.5376	0.7136	0.077
Mof_H 	H 	0.7389	0.5066	0.6773	0.008
Mof_C 	C 	0.6973	0.567	0.8106	0.077
Mof_H 	H 	0.6596	0.5575	0.8428	0.012
Mof_C 	C 	0.7611	0.6248	0.8197	-0.133
Mof_H 	H 	0.7659	0.6522	0.8575	0.074
Mof_N 	N 	0.6244	0.3802	0.83853	-0.152
Mof_N 	N 	0.9544	0.0077	0.93388	-0.113
Mof_N 	N 	0.9873	0.9468	0.89445	-0.102
Mof_N 	N 	0.8507	0.9422	0.89135	-0.104
Mof_N 	N 	0.7684	0.9214	0.8717	-0.209
Mof_H 	H 	0.724	0.9533	0.873	0.106
Mof_H 	H 	0.7419	0.8913	0.9001	0.102
Mof_N 	N 	0.687	0.5241	0.75798	-0.151
Mof_C 	C 	0.4134	0.6406	0.3912	0.079
Mof_H 	H 	0.4623	0.612	0.4019	0.013
Mof_C 	C 	0.3845	0.7022	0.4311	-0.138
Mof_H 	H 	0.414	0.7143	0.4672	0.081
Mof_C 	C 	0.3108	0.7463	0.4172	0.068
Mof_C 	C 	0.2681	0.7191	0.3644	-0.14
Mof_H 	H 	0.2165	0.7428	0.3544	0.076
Mof_C 	C 	0.3013	0.658	0.3272	0.075
Mof_H 	H 	0.2712	0.6419	0.2923	0.005
Mof_C 	C 	0.28	0.8185	0.4541	0.024
Mof_C 	C 	0.3095	0.8349	0.5135	-0.092
Mof_H 	H 	0.3497	0.7996	0.531	0.064
Mof_C 	C 	0.2799	0.9027	0.5468	0.011
Mof_H 	H 	0.2997	0.912	0.5867	0.024
Mof_C 	C 	0.2209	0.9572	0.5215	-0.09
Mof_H 	H 	0.2022	0.0036	0.5437	0.069
Mof_C 	C 	0.1902	0.9412	0.46221	0.027
Mof_C 	C 	0.2198	0.8731	0.42948	-0.09
Mof_H 	H 	0.1993	0.8632	0.3899	0.063
Mof_C 	C 	0.1272	0.9967	0.43143	0.094
Mof_C 	C 	0.0767	0.0917	0.36895	0.092
Mof_C 	C 	0.0687	0.1611	0.32445	0.025
Mof_C 	C 	0.997	0.163	0.287	-0.087
Mof_H 	H 	0.9567	0.121	0.2905	0.064
Mof_C 	C 	0.9862	0.2268	0.2449	0.01
Mof_H 	H 	0.9388	0.2271	0.2196	0.023
Mof_C 	C 	0.045	0.2911	0.2394	-0.087
Mof_H 	H 	0.0373	0.3335	0.2104	0.058
Mof_C 	C 	0.1167	0.2916	0.2783	0.021
Mof_C 	C 	0.1271	0.2268	0.3204	-0.089
Mof_H 	H 	0.1736	0.2268	0.3464	0.065
Mof_C 	C 	0.1813	0.3573	0.2721	0.065
Mof_C 	C 	0.1909	0.405	0.2182	-0.137
Mof_H 	H 	0.1535	0.3983	0.1856	0.076
Mof_C 	C 	0.2564	0.4624	0.2136	0.076
Mof_H 	H 	0.2611	0.4934	0.1773	0.007
Mof_C 	C 	0.3027	0.433	0.3106	0.077
Mof_H 	H 	0.3404	0.4425	0.3428	0.012
Mof_C 	C 	0.2389	0.3752	0.3197	-0.133
Mof_H 	H 	0.2341	0.3478	0.3575	0.073
Mof_N 	N 	0.3756	0.6198	0.33853	-0.153
Mof_N 	N 	0.0456	0.9923	0.43388	-0.116
Mof_N 	N 	0.0127	0.0532	0.39445	-0.102
Mof_N 	N 	0.1493	0.0578	0.39135	-0.104
Mof_N 	N 	0.2316	0.0786	0.3717	-0.209
Mof_H 	H 	0.276	0.0467	0.373	0.106
Mof_H 	H 	0.2581	0.1087	0.4001	0.101
Mof_N 	N 	0.313	0.4759	0.25798	-0.151
Mof_C 	C 	0.8594	0.9134	0.6412	0.079
Mof_H 	H 	0.888	0.9623	0.6519	0.012
Mof_C 	C 	0.7978	0.8845	0.6811	-0.138
Mof_H 	H 	0.7857	0.914	0.7172	0.081
Mof_C 	C 	0.7537	0.8108	0.6672	0.068
Mof_C 	C 	0.7809	0.7681	0.6144	-0.14
Mof_H 	H 	0.7572	0.7165	0.6044	0.076
Mof_C 	C 	0.842	0.8013	0.5772	0.075
Mof_H 	H 	0.8581	0.7712	0.5423	0.005
Mof_C 	C 	0.6815	0.78	0.7041	0.024
Mof_C 	C 	0.6651	0.8095	0.7635	-0.092
Mof_H 	H 	0.7004	0.8497	0.781	0.064
Mof_C 	C 	0.5973	0.7799	0.7968	0.011
Mof_H 	H 	0.588	0.7997	0.8367	0.024
Mof_C 	C 	0.5428	0.7209	0.7715	-0.09
Mof_H 	H 	0.4964	0.7022	0.7937	0.069
Mof_C 	C 	0.5588	0.6902	0.71221	0.027
Mof_C 	C 	0.6269	0.7198	0.67948	-0.09
Mof_H 	H 	0.6368	0.6993	0.6399	0.063
Mof_C 	C 	0.5033	0.6272	0.68143	0.093
Mof_C 	C 	0.4083	0.5767	0.61895	0.092
Mof_C 	C 	0.3389	0.5687	0.57445	0.026
Mof_C 	C 	0.337	0.497	0.537	-0.088
Mof_H 	H 	0.379	0.4567	0.5405	0.064
Mof_C 	C 	0.2732	0.4862	0.4949	0.008
Mof_H 	H 	0.2729	0.4388	0.4696	0.023
Mof_C 	C 	0.2089	0.545	0.4894	-0.085
Mof_H 	H 	0.1665	0.5373	0.4604	0.058
Mof_C 	C 	0.2084	0.6167	0.5283	0.021
Mof_C 	C 	0.2732	0.6271	0.5704	-0.089
Mof_H 	H 	0.2732	0.6736	0.5964	0.065
Mof_C 	C 	0.1427	0.6813	0.5221	0.065
Mof_C 	C 	0.095	0.6909	0.4682	-0.137
Mof_H 	H 	0.1017	0.6535	0.4356	0.076
Mof_C 	C 	0.0376	0.7564	0.4636	0.077
Mof_H 	H 	0.0066	0.7611	0.4273	0.008
Mof_C 	C 	0.067	0.8027	0.5606	0.077
Mof_H 	H 	0.0575	0.8404	0.5928	0.012
Mof_C 	C 	0.1248	0.7389	0.5697	-0.133
Mof_H 	H 	0.1522	0.7341	0.6075	0.073
Mof_N 	N 	0.8802	0.8756	0.58853	-0.153
Mof_N 	N 	0.5077	0.5456	0.68388	-0.116
Mof_N 	N 	0.4468	0.5127	0.64445	-0.102
Mof_N 	N 	0.4422	0.6493	0.64135	-0.104
Mof_N 	N 	0.4214	0.7316	0.6217	-0.209
Mof_H 	H 	0.4533	0.776	0.623	0.106
Mof_H 	H 	0.3913	0.7581	0.6501	0.101
Mof_N 	N 	0.0241	0.813	0.50798	-0.151
Mof_C 	C 	0.1406	0.0866	0.1412	0.078
Mof_H 	H 	0.112	0.0377	0.1519	0.013
Mof_C 	C 	0.2022	0.1155	0.1811	-0.138
Mof_H 	H 	0.2143	0.086	0.2172	0.081
Mof_C 	C 	0.2463	0.1892	0.1672	0.067
Mof_C 	C 	0.2191	0.2319	0.1144	-0.14
Mof_H 	H 	0.2428	0.2835	0.1044	0.076
Mof_C 	C 	0.158	0.1987	0.0772	0.074
Mof_H 	H 	0.1419	0.2288	0.0423	0.004
Mof_C 	C 	0.3185	0.22	0.2041	0.024
Mof_C 	C 	0.3349	0.1905	0.2635	-0.092
Mof_H 	H 	0.2996	0.1503	0.281	0.064
Mof_C 	C 	0.4027	0.2201	0.2968	0.011
Mof_H 	H 	0.412	0.2003	0.3367	0.024
Mof_C 	C 	0.4572	0.2791	0.2715	-0.09
Mof_H 	H 	0.5036	0.2978	0.2937	0.069
Mof_C 	C 	0.4412	0.3098	0.21221	0.027
Mof_C 	C 	0.3731	0.2802	0.17948	-0.09
Mof_H 	H 	0.3632	0.3007	0.1399	0.063
Mof_C 	C 	0.4967	0.3728	0.18143	0.093
Mof_C 	C 	0.5917	0.4233	0.11895	0.09
Mof_C 	C 	0.6611	0.4313	0.07445	0.03
Mof_C 	C 	0.663	0.503	0.037	-0.101
Mof_H 	H 	0.621	0.5433	0.0405	0.067
Mof_C 	C 	0.7268	0.5138	0.9949	0.02
Mof_H 	H 	0.7271	0.5612	0.9696	0.02
Mof_C 	C 	0.7911	0.455	0.9894	-0.084
Mof_H 	H 	0.8335	0.4627	0.9604	0.059
Mof_C 	C 	0.7916	0.3833	0.0283	0.019
Mof_C 	C 	0.7268	0.3729	0.0704	-0.092
Mof_H 	H 	0.7268	0.3264	0.0964	0.066
Mof_C 	C 	0.8573	0.3187	0.0221	0.058
Mof_C 	C 	0.905	0.3091	0.9682	-0.129
Mof_H 	H 	0.8983	0.3465	0.9356	0.075
Mof_C 	C 	0.9624	0.2436	0.9636	0.08
Mof_H 	H 	0.9934	0.2389	0.9273	0.007
Mof_C 	C 	0.933	0.1973	0.0606	0.074
Mof_H 	H 	0.9425	0.1596	0.0928	0.013
Mof_C 	C 	0.8752	0.2611	0.0697	-0.131
Mof_H 	H 	0.8478	0.2659	0.1075	0.073
Mof_N 	N 	0.1198	0.1244	0.08853	-0.153
Mof_N 	N 	0.4923	0.4544	0.18388	-0.117
Mof_N 	N 	0.5532	0.4873	0.14445	-0.101
Mof_N 	N 	0.5578	0.3507	0.14135	-0.104
Mof_N 	N 	0.5786	0.2684	0.1217	-0.209
Mof_H 	H 	0.5467	0.224	0.123	0.105
Mof_H 	H 	0.6087	0.2419	0.1501	0.102
Mof_N 	N 	0.9759	0.187	0.00798	-0.153
Mof_Cd	Cd	0.44115	0.55885	0.25	0.381
Mof_Cd	Cd	0.55885	0.44115	0.75	0.381
Mof_Cd	Cd	0.94115	0.94115	0.5	0.38
Mof_Cd	Cd	0.05885	0.05885	-0	0.374
_end
