# CIF file generated by openbabel 3.1.0, see https://openbabel.org
data_I
_chemical_name_common 'image0'
_cell_length_a 12.4369
_cell_length_b 12.8417
_cell_length_c 13.2691
_cell_angle_alpha 99.98
_cell_angle_beta 105.142
_cell_angle_gamma 111.649
_space_group_name_H-M_alt 'P 1'
_space_group_name_Hall 'P 1'
loop_
    _symmetry_equiv_pos_as_xyz
    x,y,z
loop_
    _atom_site_label
    _atom_site_type_symbol
    _atom_site_fract_x
    _atom_site_fract_y
    _atom_site_fract_z
    _atom_site_occupancy
    N1       N        0.93220    0.70350    0.23220    1.000
    N2       N        0.91090    0.61020    0.27110    1.000
    N3       N        0.97040    0.58330    0.12700    1.000
    N4       N        0.71970    0.86960    0.67310    1.000
    N5       N        0.73860    0.84490    0.57970    1.000
    N6       N        0.61200    0.93060    0.56330    1.000
    N7       N        0.30790    0.49520    0.20540    1.000
    N8       N        0.22280    0.41510    0.23310    1.000
    N9       N        0.12990    0.47510    0.10390    1.000
    N10      N        0.76890    0.31540    0.51980    1.000
    N11      N        0.77980    0.34040    0.62450    1.000
    N12      N        0.64400    0.15570    0.53500    1.000
    C1       C        0.93430    0.54070    0.20530    1.000
    H1       H        0.92670    0.46750    0.21140    1.000
    C2       C        0.96800    0.68650    0.14770    1.000
    H2       H        0.98850    0.73960    0.10850    1.000
    C3       C        0.90990    0.80140    0.27920    1.000
    H3       H        0.82410    0.77190    0.27400    1.000
    H4       H        0.92300    0.85590    0.23640    1.000
    C4       C        0.99120    0.86630    0.39630    1.000
    H5       H        0.07720    0.89620    0.40220    1.000
    H6       H        0.97760    0.81270    0.43990    1.000
    C5       C        0.96490    0.96780    0.44080    1.000
    H7       H        0.98360    0.02310    0.39940    1.000
    H8       H        0.87710    0.93780    0.42860    1.000
    C6       C        0.67290    0.88160    0.51560    1.000
    H9       H        0.66790    0.87490    0.44340    1.000
    C7       C        0.64570    0.92000    0.66160    1.000
    H10      H        0.61980    0.94550    0.71680    1.000
    C8       C        0.78410    0.84720    0.77030    1.000
    H11      H        0.82180    0.79700    0.74940    1.000
    H12      H        0.72510    0.80670    0.80190    1.000
    C9       C        0.88310    0.96150    0.85440    1.000
    H13      H        0.84560    0.01330    0.87120    1.000
    H14      H        0.94410    0.99960    0.82350    1.000
    C10      C        0.94760    0.94320    0.95960    1.000
    H15      H        0.88760    0.91020    0.99320    1.000
    H16      H        0.98020    0.88720    0.94220    1.000
    C11      C        0.11850    0.40640    0.17050    1.000
    H17      H        0.04230    0.35700    0.17140    1.000
    C12      C        0.24990    0.52860    0.12810    1.000
    H18      H        0.28880    0.58250    0.09550    1.000
    C13      C        0.44210    0.56430    0.28670    1.000
    H19      H        0.49310    0.61590    0.25510    1.000
    H20      H        0.44500    0.61130    0.35380    1.000
    C14      C        0.48550    0.47540    0.30830    1.000
    H21      H        0.47850    0.42600    0.24040    1.000
    H22      H        0.43630    0.42610    0.34250    1.000
    C15      C        0.62240    0.54220    0.38550    1.000
    H23      H        0.67140    0.59260    0.35190    1.000
    H24      H        0.62940    0.59050    0.45400    1.000
    C16      C        0.66470    0.45470    0.40470    1.000
    H25      H        0.65360    0.40620    0.33460    1.000
    H26      H        0.61240    0.40450    0.43620    1.000
    C17      C        0.79680    0.50080    0.47810    1.000
    H27      H        0.80580    0.53660    0.55230    1.000
    H28      H        0.84920    0.56100    0.45440    1.000
    C18      C        0.83810    0.40480    0.47670    1.000
    H29      H        0.82720    0.36800    0.40220    1.000
    H30      H        0.92550    0.43850    0.52020    1.000
    C19      C        0.70330    0.23980    0.62920    1.000
    H31      H        0.69200    0.22890    0.69380    1.000
    C20      C        0.68840    0.20640    0.46940    1.000
    H32      H        0.66590    0.16970    0.39530    1.000
    C21      C        0.44030    0.49970    0.23100    1.000
    C22      C        0.49230    0.54700    0.35640    1.000
    H33      H        0.43620    0.42230    0.20570    1.000
    H34      H        0.48890    0.55240    0.19870    1.000
    H35      H        0.43950    0.49770    0.38810    1.000
    H36      H        0.50230    0.62680    0.38130    1.000
    N13      N        0.06780    0.29650    0.76780    1.000
    N14      N        0.08910    0.38980    0.72890    1.000
    N15      N        0.02960    0.41670    0.87300    1.000
    N16      N        0.28030    0.13040    0.32690    1.000
    N17      N        0.26140    0.15510    0.42030    1.000
    N18      N        0.38800    0.06940    0.43670    1.000
    N19      N        0.69210    0.50480    0.79460    1.000
    N20      N        0.77720    0.58490    0.76690    1.000
    N21      N        0.87010    0.52490    0.89610    1.000
    N22      N        0.23110    0.68460    0.48020    1.000
    N23      N        0.22020    0.65960    0.37550    1.000
    N24      N        0.35600    0.84430    0.46500    1.000
    C23      C        0.06570    0.45930    0.79470    1.000
    H37      H        0.07330    0.53250    0.78860    1.000
    C24      C        0.03200    0.31350    0.85230    1.000
    H38      H        0.01150    0.26040    0.89150    1.000
    C25      C        0.09010    0.19860    0.72080    1.000
    H39      H        0.17590    0.22810    0.72600    1.000
    H40      H        0.07700    0.14410    0.76360    1.000
    C26      C        0.00880    0.13370    0.60370    1.000
    H41      H        0.92280    0.10380    0.59780    1.000
    H42      H        0.02240    0.18730    0.56010    1.000
    C27      C        0.03510    0.03220    0.55920    1.000
    H43      H        0.01640    0.97690    0.60060    1.000
    H44      H        0.12290    0.06220    0.57140    1.000
    C28      C        0.32710    0.11840    0.48440    1.000
    H45      H        0.33210    0.12510    0.55660    1.000
    C29      C        0.35430    0.08000    0.33840    1.000
    H46      H        0.38020    0.05450    0.28320    1.000
    C30      C        0.21590    0.15280    0.22970    1.000
    H47      H        0.17820    0.20300    0.25060    1.000
    H48      H        0.27490    0.19330    0.19810    1.000
    C31      C        0.11690    0.03850    0.14560    1.000
    H49      H        0.15440    0.98670    0.12880    1.000
    H50      H        0.05590    0.00040    0.17650    1.000
    C32      C        0.05240    0.05680    0.04040    1.000
    H51      H        0.11240    0.08980    0.00680    1.000
    H52      H        0.01980    0.11280    0.05780    1.000
    C33      C        0.88150    0.59360    0.82950    1.000
    H53      H        0.95770    0.64300    0.82860    1.000
    C34      C        0.75010    0.47140    0.87190    1.000
    H54      H        0.71120    0.41750    0.90450    1.000
    C35      C        0.55790    0.43570    0.71330    1.000
    H55      H        0.50690    0.38410    0.74490    1.000
    H56      H        0.55500    0.38870    0.64620    1.000
    C36      C        0.51450    0.52460    0.69170    1.000
    H57      H        0.52150    0.57400    0.75960    1.000
    H58      H        0.56370    0.57390    0.65750    1.000
    C37      C        0.37760    0.45780    0.61450    1.000
    H59      H        0.32860    0.40740    0.64810    1.000
    H60      H        0.37060    0.40950    0.54600    1.000
    C38      C        0.33530    0.54530    0.59530    1.000
    H61      H        0.34640    0.59380    0.66540    1.000
    H62      H        0.38760    0.59550    0.56380    1.000
    C39      C        0.20320    0.49920    0.52190    1.000
    H63      H        0.19420    0.46340    0.44770    1.000
    H64      H        0.15080    0.43900    0.54560    1.000
    C40      C        0.16190    0.59520    0.52330    1.000
    H65      H        0.17280    0.63200    0.59780    1.000
    H66      H        0.07450    0.56150    0.47980    1.000
    C41      C        0.29670    0.76020    0.37080    1.000
    H67      H        0.30800    0.77110    0.30620    1.000
    C42      C        0.31160    0.79360    0.53060    1.000
    H68      H        0.33410    0.83030    0.60470    1.000
    C43      C        0.55970    0.50030    0.76900    1.000
    C44      C        0.50770    0.45300    0.64360    1.000
    H69      H        0.56380    0.57770    0.79430    1.000
    H70      H        0.51110    0.44760    0.80130    1.000
    H71      H        0.56050    0.50230    0.61190    1.000
    H72      H        0.49770    0.37320    0.61870    1.000
    Cu1      Cu       0.00000    0.50000    0.00000    1.000
    Cu2      Cu       0.50000    0.00000    0.50000    1.000
