data_functionalizedCrystal
_audit_creation_method	'EQeq! by Chris Wilmer'
_symmetry_space_group_name_H-M	'P1'
_symmetry_Int_Tables_number	1
_symmetry_cell_setting	triclinic
loop_
_symmetry_equiv_pos_as_xyz
  x,y,z
_cell_length_a	18.0541
_cell_length_b	17.2527
_cell_length_c	13.4128
_cell_angle_alpha	90
_cell_angle_beta	129.274
_cell_angle_gamma	90
loop_
_atom_site_label
_atom_site_type_symbol
_atom_site_fract_x
_atom_site_fract_y
_atom_site_fract_z
_atom_site_charge
Mof_O 	O 	0.07549	0.29957	0.18533	-0.509
Mof_O 	O 	0.22992	0.31351	0.35459	-0.463
Mof_O 	O 	0.08841	0.61257	0.8799	-0.539
Mof_O 	O 	0.23029	0.64939	0.06227	-0.511
Mof_O 	O 	0.09995	0.22088	0.38967	-0.458
Mof_N 	N 	0.07411	0.1602	0.4228	-0.056
Mof_C 	C 	0.1615	0.39827	0.1772	-0.024
Mof_C 	C 	0.0862	0.4143	0.0497	-0.153
Mof_H 	H 	0.037	0.382	0.01	0.076
Mof_C 	C 	0.0875	0.4792	0.9905	0.124
Mof_H 	H 	0.037	0.493	0.903	-0.011
Mof_C 	C 	0.1643	0.52976	0.0584	-0.212
Mof_C 	C 	0.2401	0.5136	0.1857	0.069
Mof_H 	H 	0.291	0.552	0.23	0.024
Mof_C 	C 	0.239	0.4479	0.2439	-0.09
Mof_H 	H 	0.286	0.443	0.333	0.079
Mof_C 	C 	0.156	0.33147	0.2448	0.379
Mof_C 	C 	0.1607	0.60342	0.9948	0.495
Mof_C 	C 	0.0367	0.1714	0.4815	0.073
Mof_H 	H 	0.035	0.224	0.496	0.006
Mof_C 	C 	0.0071	0.1088	0.5121	-0.223
Mof_H 	H 	0.979	0.12	0.553	0.155
Mof_C 	C 	0.0155	0.03399	0.4835	0.028
Mof_C 	C 	0.0572	0.02505	0.4253	-0.105
Mof_H 	H 	0.069	0.978	0.404	0.052
Mof_C 	C 	0.0867	0.08861	0.3971	0.017
Mof_H 	H 	0.119	0.086	0.364	0.038
Mof_O 	O 	0.57549	0.79957	0.18533	-0.477
Mof_O 	O 	0.72992	0.81351	0.35459	-0.458
Mof_O 	O 	0.58841	0.11257	0.8799	-0.515
Mof_O 	O 	0.73029	0.14939	0.06227	-0.505
Mof_O 	O 	0.59995	0.72088	0.38967	-0.444
Mof_N 	N 	0.57411	0.6602	0.4228	-0.04
Mof_C 	C 	0.6615	0.89827	0.1772	-0.007
Mof_C 	C 	0.5862	0.9143	0.0497	-0.161
Mof_H 	H 	0.537	0.882	0.01	0.101
Mof_C 	C 	0.5875	0.9792	0.9905	0.143
Mof_H 	H 	0.537	0.993	0.903	0.007
Mof_C 	C 	0.6643	0.02976	0.0584	-0.207
Mof_C 	C 	0.7401	0.0136	0.1857	0.079
Mof_H 	H 	0.791	0.052	0.23	0.032
Mof_C 	C 	0.739	0.9479	0.2439	-0.094
Mof_H 	H 	0.786	0.943	0.333	0.083
Mof_C 	C 	0.656	0.83147	0.2448	0.372
Mof_C 	C 	0.6607	0.10342	0.9948	0.495
Mof_C 	C 	0.5367	0.6714	0.4815	0.016
Mof_H 	H 	0.535	0.724	0.496	0.051
Mof_C 	C 	0.5071	0.6088	0.5121	-0.071
Mof_H 	H 	0.479	0.62	0.553	0.056
Mof_C 	C 	0.5155	0.53399	0.4835	0.031
Mof_C 	C 	0.5572	0.52505	0.4253	-0.089
Mof_H 	H 	0.569	0.478	0.404	0.063
Mof_C 	C 	0.5867	0.58861	0.3971	0.021
Mof_H 	H 	0.619	0.586	0.364	0.048
Mof_O 	O 	0.92451	0.29957	0.31467	-0.445
Mof_O 	O 	0.77008	0.31351	0.14541	-0.468
Mof_O 	O 	0.91159	0.61257	0.6201	-0.471
Mof_O 	O 	0.76971	0.64939	0.43773	-0.472
Mof_O 	O 	0.90005	0.22088	0.11033	-0.435
Mof_N 	N 	0.92589	0.1602	0.0772	-0.003
Mof_C 	C 	0.8385	0.39827	0.3228	-0.062
Mof_C 	C 	0.9138	0.4143	0.4503	-0.035
Mof_H 	H 	0.963	0.382	0.49	0.085
Mof_C 	C 	0.9125	0.4792	0.5095	0.015
Mof_H 	H 	0.963	0.493	0.597	0.071
Mof_C 	C 	0.8357	0.52976	0.4416	-0.093
Mof_C 	C 	0.7599	0.5136	0.3143	0.003
Mof_H 	H 	0.709	0.552	0.27	0.047
Mof_C 	C 	0.761	0.4479	0.2561	-0.026
Mof_H 	H 	0.714	0.443	0.167	0.055
Mof_C 	C 	0.844	0.33147	0.2552	0.391
Mof_C 	C 	0.8393	0.60342	0.5052	0.42
Mof_C 	C 	0.9633	0.1714	0.0185	-0.122
Mof_H 	H 	0.965	0.224	0.004	0.117
Mof_C 	C 	0.9929	0.1088	0.9879	0.201
Mof_H 	H 	0.021	0.12	0.947	-0.075
Mof_C 	C 	0.9845	0.03399	0.0165	-0.086
Mof_C 	C 	0.9428	0.02505	0.0747	0.009
Mof_H 	H 	0.931	0.978	0.096	0.037
Mof_C 	C 	0.9133	0.08861	0.1029	-0.028
Mof_H 	H 	0.881	0.086	0.136	0.074
Mof_O 	O 	0.42451	0.79957	0.31467	-0.481
Mof_O 	O 	0.27008	0.81351	0.14541	-0.473
Mof_O 	O 	0.41159	0.11257	0.6201	-0.499
Mof_O 	O 	0.26971	0.14939	0.43773	-0.479
Mof_O 	O 	0.40005	0.72088	0.11033	-0.452
Mof_N 	N 	0.42589	0.6602	0.0772	-0.019
Mof_C 	C 	0.3385	0.89827	0.3228	-0.071
Mof_C 	C 	0.4138	0.9143	0.4503	-0.041
Mof_H 	H 	0.463	0.882	0.49	0.063
Mof_C 	C 	0.4125	0.9792	0.5095	0.005
Mof_H 	H 	0.463	0.993	0.597	0.049
Mof_C 	C 	0.3357	0.02976	0.4416	-0.105
Mof_C 	C 	0.2599	0.0136	0.3143	0.006
Mof_H 	H 	0.209	0.052	0.27	0.036
Mof_C 	C 	0.261	0.9479	0.2561	-0.035
Mof_H 	H 	0.214	0.943	0.167	0.056
Mof_C 	C 	0.344	0.83147	0.2552	0.395
Mof_C 	C 	0.3393	0.10342	0.5052	0.424
Mof_C 	C 	0.4633	0.6714	0.0185	-0.068
Mof_H 	H 	0.465	0.724	0.004	0.073
Mof_C 	C 	0.4929	0.6088	0.9879	0.053
Mof_H 	H 	0.521	0.62	0.947	0.022
Mof_C 	C 	0.4845	0.53399	0.0165	-0.094
Mof_C 	C 	0.4428	0.52505	0.0747	-0.014
Mof_H 	H 	0.431	0.478	0.096	0.031
Mof_C 	C 	0.4133	0.58861	0.1029	-0.03
Mof_H 	H 	0.381	0.586	0.136	0.064
Mof_O 	O 	0.92451	0.70043	0.81467	-0.448
Mof_O 	O 	0.77008	0.68649	0.64541	-0.465
Mof_O 	O 	0.91159	0.38743	0.1201	-0.458
Mof_O 	O 	0.76971	0.35061	0.93773	-0.438
Mof_O 	O 	0.90005	0.77912	0.61033	-0.429
Mof_N 	N 	0.92589	0.8398	0.5772	-0.025
Mof_C 	C 	0.8385	0.60173	0.8228	-0.123
Mof_C 	C 	0.9138	0.5857	0.9503	0.085
Mof_H 	H 	0.963	0.618	0.99	0.046
Mof_C 	C 	0.9125	0.5208	0.0095	-0.125
Mof_H 	H 	0.963	0.507	0.097	0.111
Mof_C 	C 	0.8357	0.47024	0.9416	0.017
Mof_C 	C 	0.7599	0.4864	0.8143	-0.07
Mof_H 	H 	0.709	0.448	0.77	0.074
Mof_C 	C 	0.761	0.5521	0.7561	0.042
Mof_H 	H 	0.714	0.557	0.667	0.039
Mof_C 	C 	0.844	0.66853	0.7552	0.414
Mof_C 	C 	0.8393	0.39658	0.0052	0.345
Mof_C 	C 	0.9633	0.8286	0.5185	-0.041
Mof_H 	H 	0.965	0.776	0.504	0.095
Mof_C 	C 	0.9929	0.8912	0.4879	0.079
Mof_H 	H 	0.021	0.88	0.447	-0.04
Mof_C 	C 	0.9845	0.96601	0.5165	0.034
Mof_C 	C 	0.9428	0.97495	0.5747	-0.075
Mof_H 	H 	0.931	0.022	0.596	0.074
Mof_C 	C 	0.9133	0.91139	0.6029	0.023
Mof_H 	H 	0.881	0.914	0.636	0.057
Mof_O 	O 	0.42451	0.20043	0.81467	-0.483
Mof_O 	O 	0.27008	0.18649	0.64541	-0.471
Mof_O 	O 	0.41159	0.88743	0.1201	-0.487
Mof_O 	O 	0.26971	0.85061	0.93773	-0.445
Mof_O 	O 	0.40005	0.27912	0.61033	-0.445
Mof_N 	N 	0.42589	0.3398	0.5772	-0.041
Mof_C 	C 	0.3385	0.10173	0.8228	-0.128
Mof_C 	C 	0.4138	0.0857	0.9503	0.07
Mof_H 	H 	0.463	0.118	0.99	0.028
Mof_C 	C 	0.4125	0.0208	0.0095	-0.12
Mof_H 	H 	0.463	0.007	0.097	0.086
Mof_C 	C 	0.3357	0.97024	0.9416	-0.002
Mof_C 	C 	0.2599	0.9864	0.8143	-0.066
Mof_H 	H 	0.209	0.948	0.77	0.061
Mof_C 	C 	0.261	0.0521	0.7561	0.031
Mof_H 	H 	0.214	0.057	0.667	0.04
Mof_C 	C 	0.344	0.16853	0.7552	0.417
Mof_C 	C 	0.3393	0.89658	0.0052	0.351
Mof_C 	C 	0.4633	0.3286	0.5185	0.014
Mof_H 	H 	0.465	0.276	0.504	0.05
Mof_C 	C 	0.4929	0.3912	0.4879	-0.072
Mof_H 	H 	0.521	0.38	0.447	0.057
Mof_C 	C 	0.4845	0.46601	0.5165	0.03
Mof_C 	C 	0.4428	0.47495	0.5747	-0.09
Mof_H 	H 	0.431	0.522	0.596	0.062
Mof_C 	C 	0.4133	0.41139	0.6029	0.018
Mof_H 	H 	0.381	0.414	0.636	0.047
Mof_O 	O 	0.07549	0.70043	0.68533	-0.512
Mof_O 	O 	0.22992	0.68649	0.85459	-0.46
Mof_O 	O 	0.08841	0.38743	0.3799	-0.527
Mof_O 	O 	0.23029	0.35061	0.56227	-0.479
Mof_O 	O 	0.09995	0.77912	0.88967	-0.452
Mof_N 	N 	0.07411	0.8398	0.9228	-0.076
Mof_C 	C 	0.1615	0.60173	0.6772	-0.079
Mof_C 	C 	0.0862	0.5857	0.5497	-0.044
Mof_H 	H 	0.037	0.618	0.51	0.04
Mof_C 	C 	0.0875	0.5208	0.4905	-0.002
Mof_H 	H 	0.037	0.507	0.403	0.026
Mof_C 	C 	0.1643	0.47024	0.5584	-0.112
Mof_C 	C 	0.2401	0.4864	0.6857	0.003
Mof_H 	H 	0.291	0.448	0.73	0.048
Mof_C 	C 	0.239	0.5521	0.7439	-0.029
Mof_H 	H 	0.286	0.557	0.833	0.065
Mof_C 	C 	0.156	0.66853	0.7448	0.399
Mof_C 	C 	0.1607	0.39658	0.4948	0.425
Mof_C 	C 	0.0367	0.8286	0.9815	0.146
Mof_H 	H 	0.035	0.776	0.996	-0.015
Mof_C 	C 	0.0071	0.8912	0.0121	-0.333
Mof_H 	H 	0.979	0.88	0.053	0.182
Mof_C 	C 	0.0155	0.96601	0.9835	0.142
Mof_C 	C 	0.0572	0.97495	0.9253	-0.179
Mof_H 	H 	0.069	0.022	0.904	0.083
Mof_C 	C 	0.0867	0.91139	0.8971	0.062
Mof_H 	H 	0.119	0.914	0.864	0.022
Mof_O 	O 	0.57549	0.20043	0.68533	-0.479
Mof_O 	O 	0.72992	0.18649	0.85459	-0.456
Mof_O 	O 	0.58841	0.88743	0.3799	-0.502
Mof_O 	O 	0.73029	0.85061	0.56227	-0.472
Mof_O 	O 	0.59995	0.27912	0.88967	-0.438
Mof_N 	N 	0.57411	0.3398	0.9228	-0.062
Mof_C 	C 	0.6615	0.10173	0.6772	-0.069
Mof_C 	C 	0.5862	0.0857	0.5497	-0.039
Mof_H 	H 	0.537	0.118	0.51	0.062
Mof_C 	C 	0.5875	0.0208	0.4905	0.008
Mof_H 	H 	0.537	0.007	0.403	0.047
Mof_C 	C 	0.6643	0.97024	0.5584	-0.101
Mof_C 	C 	0.7401	0.9864	0.6857	0.001
Mof_H 	H 	0.791	0.948	0.73	0.06
Mof_C 	C 	0.739	0.0521	0.7439	-0.02
Mof_H 	H 	0.786	0.057	0.833	0.065
Mof_C 	C 	0.656	0.16853	0.7448	0.396
Mof_C 	C 	0.6607	0.89658	0.4948	0.423
Mof_C 	C 	0.5367	0.3286	0.9815	0.098
Mof_H 	H 	0.535	0.276	0.996	0.028
Mof_C 	C 	0.5071	0.3912	0.0121	-0.194
Mof_H 	H 	0.479	0.38	0.053	0.091
Mof_C 	C 	0.5155	0.46601	0.9835	0.154
Mof_C 	C 	0.5572	0.47495	0.9253	-0.164
Mof_H 	H 	0.569	0.522	0.904	0.094
Mof_C 	C 	0.5867	0.41139	0.8971	0.068
Mof_H 	H 	0.619	0.414	0.864	0.031
Mof_Mg	Mg	1.13721e-33	0.30499	0.25	1.472
Mof_Mg	Mg	0.5	0.80499	0.25	1.478
Mof_Mg	Mg	3.41162e-33	0.69501	0.75	1.472
Mof_Mg	Mg	0.5	0.19501	0.75	1.479
Mof_Mg	Mg	0.25	0.25	0.5	1.477
Mof_Mg	Mg	0.75	0.25	-0	1.475
Mof_Mg	Mg	0.75	0.75	0.5	1.477
Mof_Mg	Mg	0.25	0.75	-0	1.475
_end
