data_functionalizedCrystal
_audit_creation_method	'EQeq! by Chris Wilmer'
_symmetry_space_group_name_H-M	'P1'
_symmetry_Int_Tables_number	1
_symmetry_cell_setting	triclinic
loop_
_symmetry_equiv_pos_as_xyz
  x,y,z
_cell_length_a	29.9154
_cell_length_b	29.9154
_cell_length_c	29.9154
_cell_angle_alpha	60
_cell_angle_beta	60
_cell_angle_gamma	60
loop_
_atom_site_label
_atom_site_type_symbol
_atom_site_fract_x
_atom_site_fract_y
_atom_site_fract_z
_atom_site_charge
Mof_Co	Co	0.26519	0.01149	0.73481	1.132
Mof_Co	Co	0.63829	0.36171	0.01275	1.138
Mof_Co	Co	0.01275	0.36171	0.98725	1.138
Mof_Co	Co	0.01275	0.98725	0.63829	1.138
Mof_Co	Co	0.01275	0.63829	0.36171	1.138
Mof_Co	Co	0.01149	0.73481	0.26519	1.132
Mof_Co	Co	0.98725	0.36171	0.63829	1.138
Mof_Co	Co	0.36171	0.98725	0.01275	1.138
Mof_Co	Co	0.01149	0.26519	0.98851	1.132
Mof_Co	Co	0.98725	0.01275	0.36171	1.138
Mof_Co	Co	0.73481	0.01149	0.98851	1.132
Mof_Co	Co	0.73481	0.98851	0.26519	1.132
Mof_Co	Co	0.73481	0.26519	0.01149	1.132
Mof_Co	Co	0.63829	0.01275	0.98725	1.138
Mof_Co	Co	0.98851	0.26519	0.73481	1.132
Mof_Co	Co	0.26519	0.73481	0.98851	1.132
Mof_Co	Co	0.36171	0.63829	0.98725	1.138
Mof_Co	Co	0.63829	0.98725	0.36171	1.138
Mof_Co	Co	0.98851	0.73481	0.01149	1.132
Mof_Co	Co	0.98851	0.01149	0.26519	1.132
Mof_Co	Co	0.01149	0.98851	0.73481	1.132
Mof_Co	Co	0.98725	0.63829	0.01275	1.138
Mof_Co	Co	0.36171	0.01275	0.63829	1.138
Mof_Co	Co	0.26519	0.98851	0.01149	1.132
Mof_H 	H 	0.9849	0.1595	0.6771	0.055
Mof_H 	H 	0.3007	0.1845	0.5503	0.107
Mof_H 	H 	0.8372	0.0158	0.6884	0.081
Mof_H 	H 	0.2429	0.9797	0.3097	0.137
Mof_H 	H 	0.1628	0.5414	0.9842	0.081
Mof_H 	H 	0.6771	0.9849	0.1595	0.055
Mof_H 	H 	0.2633	0.9481	0.3835	0.032
Mof_H 	H 	0.9645	0.5503	0.1845	0.108
Mof_H 	H 	0.7571	0.6903	0.5323	0.137
Mof_H 	H 	0.0355	0.6993	0.4497	0.108
Mof_H 	H 	0.6993	0.8155	0.4497	0.107
Mof_H 	H 	0.6993	0.0355	0.8155	0.108
Mof_H 	H 	0.8405	0.3229	0.0151	0.055
Mof_H 	H 	0.3007	0.9645	0.1845	0.108
Mof_H 	H 	0.3116	0.1628	0.9842	0.081
Mof_H 	H 	0.8155	0.0355	0.4497	0.108
Mof_H 	H 	0.6903	0.5323	0.7571	0.137
Mof_H 	H 	0.6903	0.7571	0.0203	0.137
Mof_H 	H 	0.3097	0.2429	0.9797	0.137
Mof_H 	H 	0.4586	0.6884	0.0158	0.081
Mof_H 	H 	0.0519	0.5949	0.6165	0.032
Mof_H 	H 	0.6771	0.1595	0.1785	0.055
Mof_H 	H 	0.1628	0.9842	0.3116	0.081
Mof_H 	H 	0.6165	0.5949	0.7367	0.032
Mof_H 	H 	0.4051	0.3835	0.9481	0.032
Mof_H 	H 	0.2429	0.3097	0.4677	0.137
Mof_H 	H 	0.9849	0.1785	0.1595	0.055
Mof_H 	H 	0.7367	0.5949	0.0519	0.032
Mof_H 	H 	0.7571	0.0203	0.6903	0.137
Mof_H 	H 	0.8405	0.0151	0.8215	0.055
Mof_H 	H 	0.1595	0.1785	0.6771	0.055
Mof_H 	H 	0.9797	0.2429	0.4677	0.137
Mof_H 	H 	0.0203	0.7571	0.5323	0.137
Mof_H 	H 	0.0151	0.8215	0.8405	0.055
Mof_H 	H 	0.0158	0.6884	0.8372	0.081
Mof_H 	H 	0.9645	0.1845	0.3007	0.108
Mof_H 	H 	0.5503	0.3007	0.1845	0.107
Mof_H 	H 	0.6903	0.0203	0.5323	0.137
Mof_H 	H 	0.1785	0.6771	0.1595	0.055
Mof_H 	H 	0.6993	0.4497	0.0355	0.108
Mof_H 	H 	0.3007	0.5503	0.9645	0.108
Mof_H 	H 	0.1845	0.9645	0.5503	0.108
Mof_H 	H 	0.9842	0.5414	0.3116	0.081
Mof_H 	H 	0.1845	0.3007	0.9645	0.108
Mof_H 	H 	0.8215	0.8405	0.0151	0.055
Mof_H 	H 	0.9645	0.3007	0.5503	0.108
Mof_H 	H 	0.4051	0.2633	0.3835	0.032
Mof_H 	H 	0.0355	0.4497	0.8155	0.108
Mof_H 	H 	0.0519	0.6165	0.7367	0.032
Mof_H 	H 	0.3229	0.0151	0.8405	0.055
Mof_H 	H 	0.6884	0.0158	0.4586	0.081
Mof_H 	H 	0.4677	0.9797	0.2429	0.137
Mof_H 	H 	0.6884	0.4586	0.8372	0.081
Mof_H 	H 	0.9797	0.4677	0.3097	0.137
Mof_H 	H 	0.6165	0.7367	0.0519	0.031
Mof_H 	H 	0.3097	0.4677	0.2429	0.136
Mof_H 	H 	0.2633	0.3835	0.4051	0.031
Mof_H 	H 	0.0158	0.8372	0.4586	0.08
Mof_H 	H 	0.6884	0.8372	0.0158	0.08
Mof_H 	H 	0.6165	0.0519	0.5949	0.031
Mof_H 	H 	0.6771	0.1785	0.9849	0.054
Mof_H 	H 	0.5949	0.0519	0.7367	0.031
Mof_H 	H 	0.7571	0.5323	0.0203	0.136
Mof_H 	H 	0.1785	0.1595	0.9849	0.054
Mof_H 	H 	0.1595	0.6771	0.9849	0.054
Mof_H 	H 	0.5949	0.7367	0.6165	0.031
Mof_H 	H 	0.3835	0.9481	0.4051	0.031
Mof_H 	H 	0.8155	0.4497	0.6993	0.106
Mof_H 	H 	0.5323	0.6903	0.0203	0.136
Mof_H 	H 	0.9481	0.4051	0.3835	0.031
Mof_H 	H 	0.9481	0.3835	0.2633	0.031
Mof_H 	H 	0.4497	0.0355	0.6993	0.107
Mof_H 	H 	0.8155	0.6993	0.0355	0.107
Mof_H 	H 	0.4051	0.9481	0.2633	0.031
Mof_H 	H 	0.9849	0.6771	0.1785	0.054
Mof_H 	H 	0.0158	0.4586	0.6884	0.08
Mof_H 	H 	0.3835	0.2633	0.9481	0.031
Mof_H 	H 	0.5414	0.1628	0.3116	0.08
Mof_H 	H 	0.2633	0.4051	0.9481	0.031
Mof_H 	H 	0.1595	0.9849	0.1785	0.054
Mof_H 	H 	0.7367	0.6165	0.5949	0.031
Mof_H 	H 	0.3229	0.8405	0.8215	0.054
Mof_H 	H 	0.9481	0.2633	0.4051	0.031
Mof_H 	H 	0.5503	0.9645	0.3007	0.107
Mof_H 	H 	0.5323	0.0203	0.7571	0.136
Mof_H 	H 	0.5949	0.6165	0.0519	0.031
Mof_H 	H 	0.0203	0.6903	0.7571	0.136
Mof_H 	H 	0.7367	0.0519	0.6165	0.031
Mof_H 	H 	0.4586	0.0158	0.8372	0.08
Mof_H 	H 	0.0151	0.3229	0.8215	0.054
Mof_H 	H 	0.4677	0.2429	0.3097	0.136
Mof_H 	H 	0.9842	0.1628	0.5414	0.08
Mof_H 	H 	0.3116	0.5414	0.1628	0.08
Mof_H 	H 	0.4497	0.6993	0.8155	0.106
Mof_H 	H 	0.2429	0.4677	0.9797	0.136
Mof_H 	H 	0.8215	0.0151	0.3229	0.054
Mof_H 	H 	0.3229	0.8215	0.0151	0.054
Mof_H 	H 	0.9842	0.3116	0.1628	0.08
Mof_H 	H 	0.3116	0.9842	0.5414	0.08
Mof_H 	H 	0.4677	0.3097	0.9797	0.136
Mof_H 	H 	0.1845	0.5503	0.3007	0.106
Mof_H 	H 	0.5503	0.1845	0.9645	0.107
Mof_H 	H 	0.5414	0.9842	0.1628	0.08
Mof_H 	H 	0.8215	0.3229	0.8405	0.054
Mof_H 	H 	0.5414	0.3116	0.9842	0.08
Mof_H 	H 	0.4586	0.8372	0.6884	0.08
Mof_H 	H 	0.0151	0.8405	0.3229	0.054
Mof_H 	H 	0.9797	0.3097	0.2429	0.136
Mof_H 	H 	0.4497	0.8155	0.0355	0.107
Mof_H 	H 	0.0355	0.8155	0.6993	0.107
Mof_H 	H 	0.0203	0.5323	0.6903	0.136
Mof_H 	H 	0.1785	0.9849	0.6771	0.054
Mof_H 	H 	0.8405	0.8215	0.3229	0.054
Mof_H 	H 	0.5323	0.7571	0.6903	0.136
Mof_H 	H 	0.8372	0.4586	0.0158	0.08
Mof_H 	H 	0.8372	0.6884	0.4586	0.08
Mof_H 	H 	0.1628	0.3116	0.5414	0.08
Mof_H 	H 	0.3835	0.4051	0.2633	0.031
Mof_H 	H 	0.3097	0.9797	0.4677	0.136
Mof_H 	H 	0.0519	0.7367	0.5949	0.031
Mof_C 	C 	0.23473	0.97483	0.17227	-0.043
Mof_C 	C 	0.8213	0.3577	0.0181	-0.007
Mof_C 	C 	0.38183	0.02517	0.76527	-0.043
Mof_C 	C 	0.5616	0.277	0.9806	-0.1
Mof_C 	C 	0.09089	0.99529	0.27671	0.387
Mof_C 	C 	0.0307	0.4337	0.7991	-0.107
Mof_C 	C 	0.0181	0.8029	0.8213	-0.007
Mof_C 	C 	0.6304	0.702	0.0494	0.036
Mof_C 	C 	0.0307	0.7365	0.4337	-0.107
Mof_C 	C 	0.7365	0.4337	0.0307	-0.107
Mof_C 	C 	0.298	0.9506	0.3696	0.036
Mof_C 	C 	0.0513	0.5409	0.7249	0.271
Mof_C 	C 	0.38635	0.01535	0.84825	-0.053
Mof_C 	C 	0.36289	0.72329	0.00471	0.387
Mof_C 	C 	0.00471	0.72329	0.90911	0.387
Mof_C 	C 	0.3696	0.298	0.9506	0.036
Mof_C 	C 	0.02517	0.38183	0.82773	-0.043
Mof_C 	C 	0.98465	0.61365	0.24995	-0.053
Mof_C 	C 	0.61817	0.17227	0.97483	-0.043
Mof_C 	C 	0.9487	0.4591	0.2751	0.271
Mof_C 	C 	0.76527	0.82773	0.38183	-0.043
Mof_C 	C 	0.75005	0.38635	0.84825	-0.053
Mof_C 	C 	0.2367	0.5395	0.9711	0.144
Mof_C 	C 	0.00471	0.36289	0.72329	0.387
Mof_C 	C 	0.4605	0.0289	0.7633	0.144
Mof_C 	C 	0.9523	0.4025	0.3151	-0.102
Mof_C 	C 	0.6849	0.5975	0.6699	-0.102
Mof_C 	C 	0.1971	0.6423	0.1787	-0.007
Mof_C 	C 	0.0289	0.7633	0.4605	0.144
Mof_C 	C 	0.82773	0.02517	0.38183	-0.043
Mof_C 	C 	0.76527	0.38183	0.02517	-0.043
Mof_C 	C 	0.0494	0.702	0.6182	0.036
Mof_C 	C 	0.3301	0.3151	0.4025	-0.102
Mof_C 	C 	0.2751	0.3171	0.9487	0.271
Mof_C 	C 	0.6182	0.6304	0.0494	0.036
Mof_C 	C 	0.17227	0.23473	0.97483	-0.043
Mof_C 	C 	0.277	0.1808	0.9806	-0.1
Mof_C 	C 	0.2527	0.2367	0.9711	0.144
Mof_C 	C 	0.99529	0.63711	0.27671	0.387
Mof_C 	C 	0.4591	0.3171	0.2751	0.271
Mof_C 	C 	0.0494	0.6182	0.6304	0.036
Mof_C 	C 	0.09089	0.27671	0.63711	0.387
Mof_C 	C 	0.24995	0.61365	0.15175	-0.053
Mof_C 	C 	0.72329	0.36289	0.90911	0.387
Mof_C 	C 	0.9693	0.5663	0.2009	-0.107
Mof_C 	C 	0.97483	0.17227	0.23473	-0.043
Mof_C 	C 	0.5663	0.9693	0.2635	-0.107
Mof_C 	C 	0.6829	0.7249	0.5409	0.271
Mof_C 	C 	0.7363	0.0251	0.8861	0.366
Mof_C 	C 	0.3818	0.3696	0.9506	0.036
Mof_C 	C 	0.0477	0.6699	0.5975	-0.102
Mof_C 	C 	0.5616	0.9806	0.1808	-0.1
Mof_C 	C 	0.7633	0.0289	0.7473	0.144
Mof_C 	C 	0.2009	0.9693	0.5663	-0.107
Mof_C 	C 	0.0251	0.7363	0.3525	0.366
Mof_C 	C 	0.0194	0.723	0.8192	-0.1
Mof_C 	C 	0.2637	0.1139	0.6475	0.366
Mof_C 	C 	0.6475	0.2637	0.1139	0.366
Mof_C 	C 	0.0181	0.8213	0.3577	-0.007
Mof_C 	C 	0.6304	0.0494	0.6182	0.036
Mof_C 	C 	0.6423	0.1787	0.1971	-0.007
Mof_C 	C 	0.97483	0.23473	0.61817	-0.043
Mof_C 	C 	0.09089	0.63711	0.99529	0.387
Mof_C 	C 	0.7365	0.0307	0.7991	-0.107
Mof_C 	C 	0.7473	0.4605	0.7633	0.144
Mof_C 	C 	0.9806	0.277	0.1808	-0.1
Mof_C 	C 	0.9506	0.3818	0.3696	0.036
Mof_C 	C 	0.9487	0.3171	0.4591	0.271
Mof_C 	C 	0.38635	0.75005	0.01535	-0.053
Mof_C 	C 	0.2009	0.5663	0.2635	-0.107
Mof_C 	C 	0.3171	0.2751	0.4591	0.271
Mof_C 	C 	0.9487	0.2751	0.3171	0.271
Mof_C 	C 	0.90911	0.72329	0.36289	0.387
Mof_C 	C 	0.1808	0.9806	0.277	-0.1
Mof_C 	C 	0.3525	0.0251	0.7363	0.366
Mof_C 	C 	0.3525	0.8861	0.0251	0.366
Mof_C 	C 	0.5409	0.7249	0.0513	0.271
Mof_C 	C 	0.723	0.4384	0.8192	-0.1
Mof_C 	C 	0.6475	0.1139	0.9749	0.366
Mof_C 	C 	0.4337	0.0307	0.7365	-0.107
Mof_C 	C 	0.2527	0.5395	0.2367	0.144
Mof_C 	C 	0.1971	0.1787	0.9819	-0.007
Mof_C 	C 	0.6849	0.6699	0.0477	-0.102
Mof_C 	C 	0.8861	0.3525	0.7363	0.366
Mof_C 	C 	0.3577	0.8029	0.0181	-0.007
Mof_C 	C 	0.3151	0.9523	0.4025	-0.102
Mof_C 	C 	0.723	0.0194	0.4384	-0.1
Mof_C 	C 	0.0194	0.8192	0.4384	-0.1
Mof_C 	C 	0.6182	0.702	0.6304	0.036
Mof_C 	C 	0.5616	0.1808	0.277	-0.1
Mof_C 	C 	0.702	0.6182	0.0494	0.036
Mof_C 	C 	0.2637	0.6475	0.9749	0.366
Mof_C 	C 	0.0477	0.5975	0.6849	-0.102
Mof_C 	C 	0.0251	0.3525	0.8861	0.366
Mof_C 	C 	0.63711	0.99529	0.09089	0.387
Mof_C 	C 	0.9506	0.3696	0.298	0.036
Mof_C 	C 	0.01535	0.84825	0.38635	-0.053
Mof_C 	C 	0.7363	0.8861	0.3525	0.366
Mof_C 	C 	0.9749	0.1139	0.2637	0.366
Mof_C 	C 	0.90911	0.36289	0.00471	0.387
Mof_C 	C 	0.75005	0.84825	0.01535	-0.053
Mof_C 	C 	0.27671	0.99529	0.63711	0.387
Mof_C 	C 	0.3577	0.0181	0.8213	-0.007
Mof_C 	C 	0.98465	0.24995	0.15175	-0.053
Mof_C 	C 	0.8213	0.8029	0.3577	-0.007
Mof_C 	C 	0.38183	0.76527	0.82773	-0.043
Mof_C 	C 	0.1787	0.1971	0.6423	-0.007
Mof_C 	C 	0.9749	0.2637	0.6475	0.366
Mof_C 	C 	0.6304	0.6182	0.702	0.036
Mof_C 	C 	0.7249	0.0513	0.5409	0.271
Mof_C 	C 	0.3818	0.9506	0.298	0.036
Mof_C 	C 	0.6423	0.9819	0.1787	-0.007
Mof_C 	C 	0.8192	0.723	0.4384	-0.1
Mof_C 	C 	0.9819	0.1971	0.1787	-0.007
Mof_C 	C 	0.2367	0.9711	0.2527	0.144
Mof_C 	C 	0.84825	0.38635	0.01535	-0.053
Mof_C 	C 	0.61365	0.98465	0.15175	-0.053
Mof_C 	C 	0.9749	0.6475	0.1139	0.366
Mof_C 	C 	0.4591	0.9487	0.3171	0.271
Mof_C 	C 	0.7365	0.7991	0.4337	-0.107
Mof_C 	C 	0.90911	0.00471	0.72329	0.387
Mof_C 	C 	0.99529	0.09089	0.63711	0.387
Mof_C 	C 	0.24995	0.98465	0.61365	-0.053
Mof_C 	C 	0.0307	0.7991	0.7365	-0.107
Mof_C 	C 	0.24995	0.15175	0.98465	-0.053
Mof_C 	C 	0.6699	0.6849	0.5975	-0.102
Mof_C 	C 	0.9711	0.2527	0.2367	0.144
Mof_C 	C 	0.5663	0.2635	0.2009	-0.107
Mof_C 	C 	0.723	0.8192	0.0194	-0.1
Mof_C 	C 	0.00471	0.90911	0.36289	0.387
Mof_C 	C 	0.01535	0.75005	0.84825	-0.053
Mof_C 	C 	0.702	0.0494	0.6304	0.036
Mof_C 	C 	0.7363	0.3525	0.0251	0.366
Mof_C 	C 	0.01535	0.38635	0.75005	-0.053
Mof_C 	C 	0.4384	0.8192	0.723	-0.1
Mof_C 	C 	0.9523	0.3301	0.4025	-0.102
Mof_C 	C 	0.9711	0.5395	0.2527	0.144
Mof_C 	C 	0.7633	0.4605	0.0289	0.144
Mof_C 	C 	0.0513	0.7249	0.6829	0.271
Mof_C 	C 	0.1808	0.277	0.5616	-0.1
Mof_C 	C 	0.1787	0.9819	0.1971	-0.007
Mof_C 	C 	0.6475	0.9749	0.2637	0.366
Mof_C 	C 	0.7473	0.7633	0.0289	0.144
Mof_C 	C 	0.2367	0.2527	0.5395	0.144
Mof_C 	C 	0.1139	0.9749	0.6475	0.366
Mof_C 	C 	0.4025	0.9523	0.3301	-0.102
Mof_C 	C 	0.3171	0.4591	0.9487	0.271
Mof_C 	C 	0.8192	0.0194	0.723	-0.1
Mof_C 	C 	0.5409	0.0513	0.6829	0.271
Mof_C 	C 	0.298	0.3818	0.9506	0.036
Mof_C 	C 	0.82773	0.76527	0.02517	-0.043
Mof_C 	C 	0.0251	0.8861	0.7363	0.366
Mof_C 	C 	0.5409	0.6829	0.7249	0.271
Mof_C 	C 	0.72329	0.90911	0.00471	0.387
Mof_C 	C 	0.15175	0.24995	0.61365	-0.053
Mof_C 	C 	0.36289	0.00471	0.90911	0.387
Mof_C 	C 	0.2635	0.2009	0.5663	-0.107
Mof_C 	C 	0.0289	0.4605	0.7473	0.144
Mof_C 	C 	0.298	0.3696	0.3818	0.036
Mof_C 	C 	0.15175	0.61365	0.98465	-0.053
Mof_C 	C 	0.0181	0.3577	0.8029	-0.007
Mof_C 	C 	0.82773	0.38183	0.76527	-0.043
Mof_C 	C 	0.4384	0.723	0.0194	-0.1
Mof_C 	C 	0.9693	0.2635	0.5663	-0.107
Mof_C 	C 	0.1787	0.6423	0.9819	-0.007
Mof_C 	C 	0.6182	0.0494	0.702	0.036
Mof_C 	C 	0.5975	0.6699	0.6849	-0.102
Mof_C 	C 	0.3696	0.9506	0.3818	0.036
Mof_C 	C 	0.23473	0.61817	0.97483	-0.043
Mof_C 	C 	0.5395	0.9711	0.2367	0.144
Mof_C 	C 	0.8029	0.0181	0.3577	-0.007
Mof_C 	C 	0.8861	0.0251	0.3525	0.366
Mof_C 	C 	0.4025	0.3301	0.3151	-0.102
Mof_C 	C 	0.7991	0.7365	0.0307	-0.107
Mof_C 	C 	0.5395	0.2367	0.2527	0.144
Mof_C 	C 	0.3151	0.3301	0.9523	-0.102
Mof_C 	C 	0.17227	0.61817	0.23473	-0.043
Mof_C 	C 	0.5975	0.6849	0.0477	-0.102
Mof_C 	C 	0.1139	0.6475	0.2637	0.366
Mof_C 	C 	0.0477	0.6849	0.6699	-0.102
Mof_C 	C 	0.277	0.5616	0.1808	-0.1
Mof_C 	C 	0.7633	0.7473	0.4605	0.144
Mof_C 	C 	0.61817	0.23473	0.17227	-0.043
Mof_C 	C 	0.8861	0.7363	0.0251	0.366
Mof_C 	C 	0.3171	0.9487	0.2751	0.271
Mof_C 	C 	0.8029	0.8213	0.0181	-0.007
Mof_C 	C 	0.38635	0.84825	0.75005	-0.053
Mof_C 	C 	0.9523	0.3151	0.3301	-0.102
Mof_C 	C 	0.3525	0.7363	0.8861	0.366
Mof_C 	C 	0.4605	0.7633	0.7473	0.144
Mof_C 	C 	0.5395	0.2527	0.9711	0.144
Mof_C 	C 	0.15175	0.98465	0.24995	-0.053
Mof_C 	C 	0.02517	0.82773	0.76527	-0.043
Mof_C 	C 	0.8192	0.4384	0.0194	-0.1
Mof_C 	C 	0.7473	0.0289	0.4605	0.144
Mof_C 	C 	0.63711	0.27671	0.99529	0.387
Mof_C 	C 	0.6829	0.5409	0.0513	0.271
Mof_C 	C 	0.6423	0.1971	0.9819	-0.007
Mof_C 	C 	0.9819	0.1787	0.6423	-0.007
Mof_C 	C 	0.84825	0.75005	0.38635	-0.053
Mof_C 	C 	0.3818	0.298	0.3696	0.036
Mof_C 	C 	0.7991	0.0307	0.4337	-0.107
Mof_C 	C 	0.9806	0.5616	0.277	-0.1
Mof_C 	C 	0.2637	0.9749	0.1139	0.366
Mof_C 	C 	0.4605	0.7473	0.0289	0.144
Mof_C 	C 	0.61817	0.97483	0.23473	-0.043
Mof_C 	C 	0.3577	0.8213	0.8029	-0.007
Mof_C 	C 	0.76527	0.02517	0.82773	-0.043
Mof_C 	C 	0.6699	0.0477	0.6849	-0.102
Mof_C 	C 	0.0194	0.4384	0.723	-0.1
Mof_C 	C 	0.4384	0.0194	0.8192	-0.1
Mof_C 	C 	0.02517	0.76527	0.38183	-0.043
Mof_C 	C 	0.8029	0.3577	0.8213	-0.007
Mof_C 	C 	0.63711	0.09089	0.27671	0.387
Mof_C 	C 	0.9693	0.2009	0.2635	-0.107
Mof_C 	C 	0.27671	0.09089	0.99529	0.387
Mof_C 	C 	0.9819	0.6423	0.1971	-0.007
Mof_C 	C 	0.38183	0.82773	0.02517	-0.043
Mof_C 	C 	0.4591	0.2751	0.9487	0.271
Mof_C 	C 	0.4337	0.7365	0.7991	-0.107
Mof_C 	C 	0.3301	0.9523	0.3151	-0.102
Mof_C 	C 	0.1139	0.2637	0.9749	0.366
Mof_C 	C 	0.97483	0.61817	0.17227	-0.043
Mof_C 	C 	0.9506	0.298	0.3818	0.036
Mof_C 	C 	0.1808	0.5616	0.9806	-0.1
Mof_C 	C 	0.2635	0.9693	0.2009	-0.107
Mof_C 	C 	0.7249	0.5409	0.6829	0.271
Mof_C 	C 	0.5975	0.0477	0.6699	-0.102
Mof_C 	C 	0.0513	0.6829	0.5409	0.271
Mof_C 	C 	0.84825	0.01535	0.75005	-0.053
Mof_C 	C 	0.75005	0.01535	0.38635	-0.053
Mof_C 	C 	0.99529	0.27671	0.09089	0.387
Mof_C 	C 	0.7991	0.4337	0.7365	-0.107
Mof_C 	C 	0.2751	0.4591	0.3171	0.271
Mof_C 	C 	0.2009	0.2635	0.9693	-0.107
Mof_C 	C 	0.702	0.6304	0.6182	0.036
Mof_C 	C 	0.3301	0.4025	0.9523	-0.102
Mof_C 	C 	0.4025	0.3151	0.9523	-0.102
Mof_C 	C 	0.98465	0.15175	0.61365	-0.053
Mof_C 	C 	0.9711	0.2367	0.5395	0.144
Mof_C 	C 	0.7249	0.6829	0.0513	0.271
Mof_C 	C 	0.36289	0.90911	0.72329	0.387
Mof_C 	C 	0.2527	0.9711	0.5395	0.144
Mof_C 	C 	0.17227	0.97483	0.61817	-0.043
Mof_C 	C 	0.4337	0.7991	0.0307	-0.107
Mof_C 	C 	0.2635	0.5663	0.9693	-0.107
Mof_C 	C 	0.1971	0.9819	0.6423	-0.007
Mof_C 	C 	0.6849	0.0477	0.5975	-0.102
Mof_C 	C 	0.3696	0.3818	0.298	0.036
Mof_C 	C 	0.8213	0.0181	0.8029	-0.007
Mof_C 	C 	0.5663	0.2009	0.9693	-0.107
Mof_C 	C 	0.6699	0.5975	0.0477	-0.102
Mof_C 	C 	0.72329	0.00471	0.36289	0.387
Mof_C 	C 	0.61365	0.15175	0.24995	-0.053
Mof_C 	C 	0.23473	0.17227	0.61817	-0.043
Mof_C 	C 	0.0494	0.6304	0.702	0.036
Mof_C 	C 	0.27671	0.63711	0.09089	0.387
Mof_C 	C 	0.9806	0.1808	0.5616	-0.1
Mof_C 	C 	0.0289	0.7473	0.7633	0.144
Mof_C 	C 	0.277	0.9806	0.5616	-0.1
Mof_C 	C 	0.61365	0.24995	0.98465	-0.053
Mof_C 	C 	0.6829	0.0513	0.7249	0.271
Mof_C 	C 	0.3151	0.4025	0.3301	-0.102
Mof_C 	C 	0.2751	0.9487	0.4591	0.271
Mof_N 	N 	0.2825	0.9677	0.4857	-0.254
Mof_N 	N 	0.4857	0.2641	0.2825	-0.254
Mof_N 	N 	0.2825	0.4857	0.2641	-0.254
Mof_N 	N 	0.7175	0.0323	0.5143	-0.254
Mof_N 	N 	0.2641	0.9677	0.2825	-0.254
Mof_N 	N 	0.7359	0.5143	0.0323	-0.254
Mof_N 	N 	0.2641	0.4857	0.9677	-0.254
Mof_N 	N 	0.7359	0.0323	0.7175	-0.254
Mof_N 	N 	0.2825	0.2641	0.9677	-0.254
Mof_N 	N 	0.5143	0.7175	0.0323	-0.254
Mof_N 	N 	0.0323	0.5143	0.7175	-0.254
Mof_N 	N 	0.9677	0.2825	0.2641	-0.254
Mof_N 	N 	0.9677	0.2641	0.4857	-0.254
Mof_N 	N 	0.5143	0.7359	0.7175	-0.254
Mof_N 	N 	0.9677	0.4857	0.2825	-0.254
Mof_N 	N 	0.7175	0.5143	0.7359	-0.254
Mof_N 	N 	0.4857	0.9677	0.2641	-0.254
Mof_N 	N 	0.7175	0.7359	0.0323	-0.254
Mof_N 	N 	0.7359	0.7175	0.5143	-0.254
Mof_N 	N 	0.5143	0.0323	0.7359	-0.254
Mof_N 	N 	0.0323	0.7175	0.7359	-0.254
Mof_N 	N 	0.0323	0.7359	0.5143	-0.254
Mof_N 	N 	0.2641	0.2825	0.4857	-0.254
Mof_N 	N 	0.4857	0.2825	0.9677	-0.254
Mof_O 	O 	0.9318	0.239	0.35	-0.25
Mof_O 	O 	0.39037	0.67721	0.00159	-0.457
Mof_O 	O 	0.75067	0.93195	0.00169	-0.467
Mof_O 	O 	0.93083	0.39037	0.00159	-0.457
Mof_O 	O 	0.67721	0.00159	0.39037	-0.457
Mof_O 	O 	0.32279	0.99841	0.60963	-0.457
Mof_O 	O 	0.90818	0.68792	0.02508	-0.455
Mof_O 	O 	0.0682	0.65	0.5208	-0.25
Mof_O 	O 	0.4792	0.9318	0.35	-0.25
Mof_O 	O 	0.30474	0.9074	0.02396	-0.454
Mof_O 	O 	0.24933	0.06805	0.99831	-0.467
Mof_O 	O 	0.99841	0.06917	0.60963	-0.457
Mof_O 	O 	0.62118	0.09182	0.97492	-0.455
Mof_O 	O 	0.4792	0.35	0.239	-0.25
Mof_O 	O 	0.69526	0.0926	0.97604	-0.454
Mof_O 	O 	0.97492	0.09182	0.31208	-0.455
Mof_O 	O 	0.239	0.9318	0.4792	-0.25
Mof_O 	O 	0.37882	0.68792	0.90818	-0.455
Mof_O 	O 	0.93195	0.31569	0.00169	-0.467
Mof_O 	O 	0.7639	0.9074	0.30474	-0.454
Mof_O 	O 	0.09182	0.62118	0.31208	-0.455
Mof_O 	O 	0.93195	0.75067	0.31569	-0.468
Mof_O 	O 	0.90818	0.02508	0.37882	-0.455
Mof_O 	O 	0.37882	0.02508	0.68792	-0.455
Mof_O 	O 	0.39037	0.00159	0.93083	-0.457
Mof_O 	O 	0.93083	0.00159	0.67721	-0.457
Mof_O 	O 	0.68792	0.90818	0.37882	-0.455
Mof_O 	O 	0.90818	0.37882	0.68792	-0.455
Mof_O 	O 	0.2361	0.0926	0.69526	-0.454
Mof_O 	O 	0.9074	0.02396	0.30474	-0.454
Mof_O 	O 	0.97492	0.62118	0.09182	-0.455
Mof_O 	O 	0.35	0.4792	0.9318	-0.25
Mof_O 	O 	0.97604	0.2361	0.69526	-0.454
Mof_O 	O 	0.31569	0.93195	0.75067	-0.468
Mof_O 	O 	0.00159	0.67721	0.93083	-0.457
Mof_O 	O 	0.24933	0.99831	0.68431	-0.467
Mof_O 	O 	0.239	0.35	0.9318	-0.25
Mof_O 	O 	0.68431	0.24933	0.99831	-0.467
Mof_O 	O 	0.2361	0.97604	0.0926	-0.453
Mof_O 	O 	0.00159	0.93083	0.39037	-0.457
Mof_O 	O 	0.97492	0.31208	0.62118	-0.455
Mof_O 	O 	0.69526	0.97604	0.2361	-0.454
Mof_O 	O 	0.7639	0.30474	0.02396	-0.454
Mof_O 	O 	0.31569	0.00169	0.93195	-0.467
Mof_O 	O 	0.0926	0.97604	0.69526	-0.454
Mof_O 	O 	0.7639	0.02396	0.9074	-0.453
Mof_O 	O 	0.67721	0.93083	0.00159	-0.457
Mof_O 	O 	0.06917	0.60963	0.99841	-0.457
Mof_O 	O 	0.09182	0.97492	0.62118	-0.455
Mof_O 	O 	0.75067	0.31569	0.93195	-0.468
Mof_O 	O 	0.06805	0.24933	0.68431	-0.468
Mof_O 	O 	0.06805	0.68431	0.99831	-0.467
Mof_O 	O 	0.68792	0.02508	0.90818	-0.455
Mof_O 	O 	0.62118	0.97492	0.31208	-0.455
Mof_O 	O 	0.31208	0.09182	0.62118	-0.455
Mof_O 	O 	0.31208	0.97492	0.09182	-0.455
Mof_O 	O 	0.39037	0.93083	0.67721	-0.457
Mof_O 	O 	0.5208	0.65	0.761	-0.25
Mof_O 	O 	0.69526	0.2361	0.0926	-0.454
Mof_O 	O 	0.02396	0.9074	0.7639	-0.453
Mof_O 	O 	0.5208	0.761	0.0682	-0.25
Mof_O 	O 	0.35	0.9318	0.239	-0.25
Mof_O 	O 	0.9074	0.7639	0.02396	-0.453
Mof_O 	O 	0.5208	0.0682	0.65	-0.25
Mof_O 	O 	0.60963	0.32279	0.99841	-0.457
Mof_O 	O 	0.0682	0.761	0.65	-0.25
Mof_O 	O 	0.761	0.0682	0.5208	-0.25
Mof_O 	O 	0.65	0.761	0.5208	-0.25
Mof_O 	O 	0.37882	0.90818	0.02508	-0.455
Mof_O 	O 	0.02508	0.90818	0.68792	-0.455
Mof_O 	O 	0.60963	0.06917	0.32279	-0.457
Mof_O 	O 	0.00169	0.93195	0.31569	-0.467
Mof_O 	O 	0.0926	0.2361	0.97604	-0.453
Mof_O 	O 	0.06917	0.99841	0.32279	-0.457
Mof_O 	O 	0.68431	0.06805	0.24933	-0.468
Mof_O 	O 	0.00169	0.31569	0.75067	-0.467
Mof_O 	O 	0.62118	0.31208	0.09182	-0.455
Mof_O 	O 	0.32279	0.60963	0.06917	-0.457
Mof_O 	O 	0.9074	0.30474	0.7639	-0.454
Mof_O 	O 	0.2361	0.69526	0.97604	-0.454
Mof_O 	O 	0.00169	0.75067	0.93195	-0.467
Mof_O 	O 	0.239	0.4792	0.35	-0.25
Mof_O 	O 	0.30474	0.7639	0.9074	-0.454
Mof_O 	O 	0.60963	0.99841	0.06917	-0.457
Mof_O 	O 	0.02508	0.68792	0.37882	-0.455
Mof_O 	O 	0.93195	0.00169	0.75067	-0.467
Mof_O 	O 	0.761	0.5208	0.65	-0.25
Mof_O 	O 	0.93083	0.67721	0.39037	-0.457
Mof_O 	O 	0.06805	0.99831	0.24933	-0.467
Mof_O 	O 	0.31208	0.62118	0.97492	-0.455
Mof_O 	O 	0.65	0.5208	0.0682	-0.25
Mof_O 	O 	0.0926	0.69526	0.2361	-0.454
Mof_O 	O 	0.65	0.0682	0.761	-0.25
Mof_O 	O 	0.9318	0.4792	0.239	-0.25
Mof_O 	O 	0.02396	0.30474	0.9074	-0.454
Mof_O 	O 	0.30474	0.02396	0.7639	-0.454
Mof_O 	O 	0.99831	0.68431	0.24933	-0.467
Mof_O 	O 	0.67721	0.39037	0.93083	-0.457
Mof_O 	O 	0.99831	0.06805	0.68431	-0.467
Mof_O 	O 	0.0682	0.5208	0.761	-0.25
Mof_O 	O 	0.99841	0.60963	0.32279	-0.457
Mof_O 	O 	0.99841	0.32279	0.06917	-0.457
Mof_O 	O 	0.761	0.65	0.0682	-0.25
Mof_O 	O 	0.32279	0.06917	0.99841	-0.457
Mof_O 	O 	0.06917	0.32279	0.60963	-0.457
Mof_O 	O 	0.02508	0.37882	0.90818	-0.455
Mof_O 	O 	0.24933	0.68431	0.06805	-0.468
Mof_O 	O 	0.97604	0.69526	0.0926	-0.454
Mof_O 	O 	0.31569	0.75067	0.00169	-0.467
Mof_O 	O 	0.4792	0.239	0.9318	-0.25
Mof_O 	O 	0.09182	0.31208	0.97492	-0.455
Mof_O 	O 	0.68431	0.99831	0.06805	-0.467
Mof_O 	O 	0.35	0.239	0.4792	-0.25
Mof_O 	O 	0.97604	0.0926	0.2361	-0.453
Mof_O 	O 	0.9318	0.35	0.4792	-0.25
Mof_O 	O 	0.99831	0.24933	0.06805	-0.467
Mof_O 	O 	0.00159	0.39037	0.67721	-0.457
Mof_O 	O 	0.75067	0.00169	0.31569	-0.467
Mof_O 	O 	0.68792	0.37882	0.02508	-0.455
Mof_O 	O 	0.02396	0.7639	0.30474	-0.454
_end
