# CIF file generated by openbabel 3.1.0, see https://openbabel.org
data_I
_chemical_name_common 'XAXQEU_clean'
_cell_length_a 7.1622
_cell_length_b 9.094
_cell_length_c 9.749
_cell_angle_alpha 105.663
_cell_angle_beta 103.181
_cell_angle_gamma 98.248
_space_group_name_H-M_alt 'P 1'
_space_group_name_Hall 'P 1'
loop_
    _symmetry_equiv_pos_as_xyz
    x,y,z
loop_
    _atom_site_label
    _atom_site_type_symbol
    _atom_site_fract_x
    _atom_site_fract_y
    _atom_site_fract_z
    _atom_site_occupancy
    In1      In       0.00000    0.50000    0.00000    1.000
    In2      In       0.50000    0.50000    0.00000    1.000
    H3       H        0.50800    0.01300    0.70900    1.000
    H4       H        0.76710    0.11410    0.54870    1.000
    H5       H        0.81290    0.00790    0.64960    1.000
    H6       H        0.07920    0.28250    0.35030    1.000
    H7       H        0.05650    0.30320    0.51020    1.000
    H8       H        0.20650    0.54770    0.41180    1.000
    H9       H        0.33070    0.48310    0.52770    1.000
    H10      H        0.29160    0.14510    0.60370    1.000
    H11      H        0.43560    0.20010    0.51880    1.000
    H12      H        0.75900    0.27700    0.34600    1.000
    H13      H        0.49200    0.98700    0.29100    1.000
    H14      H        0.23290    0.88590    0.45130    1.000
    H15      H        0.18710    0.99210    0.35040    1.000
    H16      H        0.92080    0.71750    0.64970    1.000
    H17      H        0.94350    0.69680    0.48980    1.000
    H18      H        0.79350    0.45230    0.58820    1.000
    H19      H        0.66930    0.51690    0.47230    1.000
    H20      H        0.70840    0.85490    0.39630    1.000
    H21      H        0.56440    0.79990    0.48120    1.000
    H22      H        0.24100    0.72300    0.65400    1.000
    C23      C        0.70880    0.03130    0.58130    1.000
    C24      C        0.04980    0.35260    0.43310    1.000
    C25      C        0.84180    0.37700    0.38240    1.000
    C26      C        0.20250    0.50400    0.49180    1.000
    C27      C        0.80100    0.41970    0.24040    1.000
    C28      C        0.64630    0.23150    0.79270    1.000
    C29      C        0.55920    0.08680    0.66050    1.000
    C30      C        0.38840    0.11470    0.55270    1.000
    C31      C        0.29120    0.96870    0.41870    1.000
    C32      C        0.95020    0.64740    0.56690    1.000
    C33      C        0.15820    0.62300    0.61760    1.000
    C34      C        0.79750    0.49600    0.50820    1.000
    C35      C        0.19900    0.58030    0.75960    1.000
    C36      C        0.35370    0.76850    0.20730    1.000
    C37      C        0.44080    0.91320    0.33950    1.000
    C38      C        0.61160    0.88530    0.44730    1.000
    O39      O        0.76640    0.61460    0.98550    1.000
    O40      O        0.53270    0.27620    0.86990    1.000
    O41      O        0.64360    0.46440    0.20360    1.000
    O42      O        0.82130    0.29880    0.81880    1.000
    O43      O        0.92210    0.40410    0.16440    1.000
    O44      O        0.23360    0.38540    0.01450    1.000
    O45      O        0.46730    0.72380    0.13010    1.000
    O46      O        0.35640    0.53560    0.79640    1.000
    O47      O        0.17870    0.70120    0.18120    1.000
    O48      O        0.07790    0.59590    0.83560    1.000
    H49      H        0.76640    0.72880    0.01426    1.000
    H50      H        0.23360    0.27120    0.98574    1.000
