# CIF file generated by openbabel 3.1.0, see https://openbabel.org
data_I
_chemical_name_common 'image0'
_cell_length_a 26.7176
_cell_length_b 26.7176
_cell_length_c 7.1942
_cell_angle_alpha 90
_cell_angle_beta 90
_cell_angle_gamma 90
_space_group_name_H-M_alt 'P 1'
_space_group_name_Hall 'P 1'
loop_
    _symmetry_equiv_pos_as_xyz
    x,y,z
loop_
    _atom_site_label
    _atom_site_type_symbol
    _atom_site_fract_x
    _atom_site_fract_y
    _atom_site_fract_z
    _atom_site_occupancy
    I1       I        0.69666    0.74214    0.62630    1.000
    Cu1      Cu       0.75493    0.69946    0.36550    1.000
    Cu2      Cu       0.74986    0.79527    0.86630    1.000
    I2       I        0.80722    0.75361    0.12700    1.000
    N1       N        0.70720    0.65930    0.21400    1.000
    N2       N        0.80730    0.66220    0.51660    1.000
    N3       N        0.79560    0.84060    0.72000    1.000
    N4       N        0.69950    0.83240    0.01000    1.000
    C1       C        0.71610    0.64780    0.04000    1.000
    C2       C        0.66370    0.64340    0.27800    1.000
    C3       C        0.79970    0.61530    0.55900    1.000
    C4       C        0.84950    0.67970    0.58200    1.000
    C5       C        0.84050    0.85600    0.77400    1.000
    C6       C        0.78800    0.84600    0.54100    1.000
    H1       H        0.74710    0.65810    0.99090    1.000
    C7       C        0.68410    0.62190    0.91900    1.000
    C8       C        0.62840    0.61220    0.17300    1.000
    H2       H        0.65470    0.65280    0.39990    1.000
    H3       H        0.77000    0.60000    0.51890    1.000
    C9       C        0.83350    0.58710    0.66100    1.000
    C10      C        0.87690    0.65940    0.73900    1.000
    H4       H        0.86320    0.70780    0.52240    1.000
    H5       H        0.85220    0.84520    0.89070    1.000
    C11      C        0.87110    0.88700    0.67100    1.000
    C12      C        0.81950    0.87380    0.41100    1.000
    H6       H        0.75940    0.83050    0.49180    1.000
    H7       H        0.69210    0.61720    0.79300    1.000
    C13      C        0.63960    0.60340    0.99500    1.000
    H8       H        0.59940    0.59900    0.22860    1.000
    C14      C        0.87170    0.60970    0.75700    1.000
    H9       H        0.83020    0.55210    0.66440    1.000
    H10      H        0.89640    0.67910    0.81900    1.000
    H11      H        0.89880    0.90230    0.72780    1.000
    C15      C        0.86150    0.89590    0.48300    1.000
    H12      H        0.81140    0.87630    0.28400    1.000
    C16      C        0.60640    0.57450    0.87200    1.000
    C17      C        0.90310    0.58230    0.88600    1.000
    C18      C        0.89430    0.92410    0.37400    1.000
    C19      C        0.62410    0.54340    0.72900    1.000
    C20      C        0.55520    0.58010    0.89300    1.000
    C21      C        0.90930    0.52990    0.87900    1.000
    C22      C        0.92810    0.60730    0.02800    1.000
    C23      C        0.94660    0.91910    0.39600    1.000
    C24      C        0.87690    0.95390    0.22800    1.000
    H13      H        0.65870    0.53840    0.71460    1.000
    C25      C        0.59080    0.51990    0.60600    1.000
    C26      C        0.52200    0.55510    0.77020    1.000
    H14      H        0.54240    0.60060    0.98780    1.000
    H15      H        0.89310    0.51100    0.78680    1.000
    C27      C        0.93990    0.50640    0.01100    1.000
    C28      C        0.95990    0.58360    0.15600    1.000
    H16      H        0.92330    0.64210    0.03850    1.000
    H17      H        0.95960    0.89860    0.49050    1.000
    C29      C        0.97910    0.94490    0.27700    1.000
    C30      C        0.90910    0.98140    0.11600    1.000
    H18      H        0.84230    0.95540    0.20470    1.000
    H19      H        0.60370    0.50000    0.50960    1.000
    C31      C        0.54030    0.52510    0.62200    1.000
    H20      H        0.48730    0.55850    0.78720    1.000
    H21      H        0.94230    0.47130    0.00810    1.000
    C32      C        0.96660    0.53200    0.14500    1.000
    H22      H        0.97650    0.60230    0.24730    1.000
    H23      H        0.01370    0.94350    0.29860    1.000
    C33      C        0.96140    0.97260    0.12600    1.000
    H24      H        0.89630    0.00570    0.03340    1.000
    C34      C        0.97010    0.46290    0.38600    1.000
    C35      C        0.91810    0.45500    0.35900    1.000
    C36      C        0.99320    0.44350    0.53900    1.000
    C37      C        0.89330    0.41930    0.47700    1.000
    H25      H        0.90040    0.47260    0.26730    1.000
    C38      C        0.96870    0.41200    0.66500    1.000
    H26      H        0.02700    0.45160    0.56120    1.000
    C39      C        0.91690    0.40270    0.63800    1.000
    H27      H        0.86140    0.40720    0.44540    1.000
    H28      H        0.98600    0.39740    0.76520    1.000
    C40      C        0.88920    0.36740    0.76500    1.000
    C41      C        0.84430    0.34940    0.71000    1.000
    C42      C        0.90380    0.35690    0.94900    1.000
    C43      C        0.81450    0.31720    0.83100    1.000
    H29      H        0.83210    0.35770    0.59100    1.000
    C44      C        0.87310    0.32330    0.04800    1.000
    H30      H        0.93240    0.37140    0.00280    1.000
    H31      H        0.78190    0.30840    0.79520    1.000
    H32      H        0.88290    0.31640    0.17080    1.000
    C45      C        0.56440    0.89090    0.48000    1.000
    H33      H        0.56440    0.85570    0.48430    1.000
    C46      C        0.53140    0.91930    0.59200    1.000
    H34      H        0.50490    0.90300    0.65240    1.000
    C47      C        0.56900    0.99620    0.49400    1.000
    H35      H        0.57120    0.03130    0.49910    1.000
    C48      C        0.59900    0.96930    0.36500    1.000
    H36      H        0.61980    0.98660    0.28150    1.000
    C49      C        0.62800    0.83890    0.22800    1.000
    H37      H        0.60970    0.81990    0.31440    1.000
    C50      C        0.65550    0.81750    0.06800    1.000
    H38      H        0.64010    0.79110    0.00280    1.000
    C51      C        0.70630    0.88180    0.03400    1.000
    H39      H        0.73210    0.89780    0.96790    1.000
    C52      C        0.67570    0.91060    0.15400    1.000
    H40      H        0.68410    0.94400    0.17960    1.000
    C53      C        0.34470    0.85420    0.18800    1.000
    H41      H        0.33130    0.85990    0.06880    1.000
    C54      C        0.31870    0.82580    0.33200    1.000
    H42      H        0.28430    0.82030    0.31330    1.000
    C55      C        0.37940    0.82810    0.53900    1.000
    H43      H        0.39290    0.81970    0.65570    1.000
    C56      C        0.40380    0.86300    0.42700    1.000
    H44      H        0.43080    0.88060    0.47790    1.000
    I3       I        0.30334    0.25786    0.62630    1.000
    Cu3      Cu       0.24507    0.30054    0.36550    1.000
    Cu4      Cu       0.25014    0.20473    0.86630    1.000
    I4       I        0.19278    0.24639    0.12700    1.000
    N5       N        0.29280    0.34070    0.21400    1.000
    N6       N        0.19270    0.33780    0.51660    1.000
    N7       N        0.20440    0.15940    0.72000    1.000
    N8       N        0.30050    0.16760    0.01000    1.000
    C57      C        0.28390    0.35220    0.04000    1.000
    C58      C        0.33630    0.35660    0.27800    1.000
    C59      C        0.20030    0.38470    0.55900    1.000
    C60      C        0.15050    0.32030    0.58200    1.000
    C61      C        0.15950    0.14400    0.77400    1.000
    C62      C        0.21200    0.15400    0.54100    1.000
    H45      H        0.25290    0.34190    0.99090    1.000
    C63      C        0.31590    0.37810    0.91900    1.000
    C64      C        0.37160    0.38780    0.17300    1.000
    H46      H        0.34530    0.34720    0.39990    1.000
    H47      H        0.23000    0.40000    0.51890    1.000
    C65      C        0.16650    0.41290    0.66100    1.000
    C66      C        0.12310    0.34060    0.73900    1.000
    H48      H        0.13680    0.29220    0.52240    1.000
    H49      H        0.14780    0.15480    0.89070    1.000
    C67      C        0.12890    0.11300    0.67100    1.000
    C68      C        0.18050    0.12620    0.41100    1.000
    H50      H        0.24060    0.16950    0.49180    1.000
    H51      H        0.30790    0.38280    0.79300    1.000
    C69      C        0.36040    0.39660    0.99500    1.000
    H52      H        0.40060    0.40100    0.22860    1.000
    C70      C        0.12830    0.39030    0.75700    1.000
    H53      H        0.16980    0.44790    0.66440    1.000
    H54      H        0.10360    0.32090    0.81900    1.000
    H55      H        0.10120    0.09770    0.72780    1.000
    C71      C        0.13850    0.10410    0.48300    1.000
    H56      H        0.18860    0.12370    0.28400    1.000
    C72      C        0.39360    0.42550    0.87200    1.000
    C73      C        0.09690    0.41770    0.88600    1.000
    C74      C        0.10570    0.07590    0.37400    1.000
    C75      C        0.37590    0.45660    0.72900    1.000
    C76      C        0.44480    0.41990    0.89300    1.000
    C77      C        0.09070    0.47010    0.87900    1.000
    C78      C        0.07190    0.39270    0.02800    1.000
    C79      C        0.05340    0.08090    0.39600    1.000
    C80      C        0.12310    0.04610    0.22800    1.000
    H57      H        0.34130    0.46160    0.71460    1.000
    C81      C        0.40920    0.48010    0.60600    1.000
    C82      C        0.47800    0.44490    0.77020    1.000
    H58      H        0.45760    0.39940    0.98780    1.000
    H59      H        0.10690    0.48900    0.78680    1.000
    C83      C        0.06010    0.49360    0.01100    1.000
    C84      C        0.04010    0.41640    0.15600    1.000
    H60      H        0.07670    0.35790    0.03850    1.000
    H61      H        0.04040    0.10140    0.49050    1.000
    C85      C        0.02090    0.05510    0.27700    1.000
    C86      C        0.09090    0.01860    0.11600    1.000
    H62      H        0.15770    0.04460    0.20470    1.000
    H63      H        0.39630    0.50000    0.50960    1.000
    C87      C        0.45970    0.47490    0.62200    1.000
    H64      H        0.51270    0.44150    0.78720    1.000
    H65      H        0.05770    0.52870    0.00810    1.000
    C88      C        0.03340    0.46800    0.14500    1.000
    H66      H        0.02350    0.39770    0.24730    1.000
    H67      H        0.98630    0.05650    0.29860    1.000
    C89      C        0.03860    0.02740    0.12600    1.000
    H68      H        0.10370    0.99430    0.03340    1.000
    C90      C        0.02990    0.53710    0.38600    1.000
    C91      C        0.08190    0.54500    0.35900    1.000
    C92      C        0.00680    0.55650    0.53900    1.000
    C93      C        0.10670    0.58070    0.47700    1.000
    H69      H        0.09960    0.52740    0.26730    1.000
    C94      C        0.03130    0.58800    0.66500    1.000
    H70      H        0.97300    0.54840    0.56120    1.000
    C95      C        0.08310    0.59730    0.63800    1.000
    H71      H        0.13860    0.59280    0.44540    1.000
    H72      H        0.01400    0.60260    0.76520    1.000
    C96      C        0.11080    0.63260    0.76500    1.000
    C97      C        0.15570    0.65060    0.71000    1.000
    C98      C        0.09620    0.64310    0.94900    1.000
    C99      C        0.18550    0.68280    0.83100    1.000
    H73      H        0.16790    0.64230    0.59100    1.000
    C100     C        0.12690    0.67670    0.04800    1.000
    H74      H        0.06760    0.62860    0.00280    1.000
    H75      H        0.21810    0.69160    0.79520    1.000
    H76      H        0.11710    0.68360    0.17080    1.000
    C101     C        0.43560    0.10910    0.48000    1.000
    H77      H        0.43560    0.14430    0.48430    1.000
    C102     C        0.46860    0.08070    0.59200    1.000
    H78      H        0.49510    0.09700    0.65240    1.000
    C103     C        0.43100    0.00380    0.49400    1.000
    H79      H        0.42880    0.96870    0.49910    1.000
    C104     C        0.40100    0.03070    0.36500    1.000
    H80      H        0.38020    0.01340    0.28150    1.000
    C105     C        0.37200    0.16110    0.22800    1.000
    H81      H        0.39030    0.18010    0.31440    1.000
    C106     C        0.34450    0.18250    0.06800    1.000
    H82      H        0.35990    0.20890    0.00280    1.000
    C107     C        0.29370    0.11820    0.03400    1.000
    H83      H        0.26790    0.10220    0.96790    1.000
    C108     C        0.32430    0.08940    0.15400    1.000
    H84      H        0.31590    0.05600    0.17960    1.000
    C109     C        0.65530    0.14580    0.18800    1.000
    H85      H        0.66870    0.14010    0.06880    1.000
    C110     C        0.68130    0.17420    0.33200    1.000
    H86      H        0.71570    0.17970    0.31330    1.000
    C111     C        0.62060    0.17190    0.53900    1.000
    H87      H        0.60710    0.18030    0.65570    1.000
    C112     C        0.59620    0.13700    0.42700    1.000
    H88      H        0.56920    0.11940    0.47790    1.000
    I5       I        0.74214    0.30334    0.37370    1.000
    Cu5      Cu       0.69946    0.24507    0.63450    1.000
    Cu6      Cu       0.79527    0.25014    0.13370    1.000
    I6       I        0.75361    0.19278    0.87300    1.000
    N9       N        0.65930    0.29280    0.78600    1.000
    N10      N        0.66220    0.19270    0.48340    1.000
    N11      N        0.84060    0.20440    0.28000    1.000
    N12      N        0.83240    0.30050    0.99000    1.000
    C113     C        0.64780    0.28390    0.96000    1.000
    C114     C        0.64340    0.33630    0.72200    1.000
    C115     C        0.61530    0.20030    0.44100    1.000
    C116     C        0.67970    0.15050    0.41800    1.000
    C117     C        0.85600    0.15950    0.22600    1.000
    C118     C        0.84600    0.21200    0.45900    1.000
    H89      H        0.65810    0.25290    0.00910    1.000
    C119     C        0.62190    0.31590    0.08100    1.000
    C120     C        0.61220    0.37160    0.82700    1.000
    H90      H        0.65280    0.34530    0.60010    1.000
    H91      H        0.60000    0.23000    0.48110    1.000
    C121     C        0.58710    0.16650    0.33900    1.000
    C122     C        0.65940    0.12310    0.26100    1.000
    H92      H        0.70780    0.13680    0.47760    1.000
    H93      H        0.84520    0.14780    0.10930    1.000
    C123     C        0.88700    0.12890    0.32900    1.000
    C124     C        0.87380    0.18050    0.58900    1.000
    H94      H        0.83050    0.24060    0.50820    1.000
    H95      H        0.61720    0.30790    0.20700    1.000
    C125     C        0.60340    0.36040    0.00500    1.000
    H96      H        0.59900    0.40060    0.77140    1.000
    C126     C        0.60970    0.12830    0.24300    1.000
    H97      H        0.55210    0.16980    0.33560    1.000
    H98      H        0.67910    0.10360    0.18100    1.000
    H99      H        0.90230    0.10120    0.27220    1.000
    C127     C        0.89590    0.13850    0.51700    1.000
    H100     H        0.87630    0.18860    0.71600    1.000
    C128     C        0.57450    0.39360    0.12800    1.000
    C129     C        0.58230    0.09690    0.11400    1.000
    C130     C        0.92410    0.10570    0.62600    1.000
    C131     C        0.54340    0.37590    0.27100    1.000
    C132     C        0.58010    0.44480    0.10700    1.000
    C133     C        0.52990    0.09070    0.12100    1.000
    C134     C        0.60730    0.07190    0.97200    1.000
    C135     C        0.91910    0.05340    0.60400    1.000
    C136     C        0.95390    0.12310    0.77200    1.000
    H101     H        0.53840    0.34130    0.28540    1.000
    C137     C        0.51990    0.40920    0.39400    1.000
    C138     C        0.55510    0.47800    0.22980    1.000
    H102     H        0.60060    0.45760    0.01220    1.000
    H103     H        0.51100    0.10690    0.21320    1.000
    C139     C        0.50640    0.06010    0.98900    1.000
    C140     C        0.58360    0.04010    0.84400    1.000
    H104     H        0.64210    0.07670    0.96150    1.000
    H105     H        0.89860    0.04040    0.50950    1.000
    C141     C        0.94490    0.02090    0.72300    1.000
    C142     C        0.98140    0.09090    0.88400    1.000
    H106     H        0.95540    0.15770    0.79530    1.000
    H107     H        0.50000    0.39630    0.49040    1.000
    C143     C        0.52510    0.45970    0.37800    1.000
    H108     H        0.55850    0.51270    0.21280    1.000
    H109     H        0.47130    0.05770    0.99190    1.000
    C144     C        0.53200    0.03340    0.85500    1.000
    H110     H        0.60230    0.02350    0.75270    1.000
    H111     H        0.94350    0.98630    0.70140    1.000
    C145     C        0.97260    0.03860    0.87400    1.000
    H112     H        0.00570    0.10370    0.96660    1.000
    C146     C        0.46290    0.02990    0.61400    1.000
    C147     C        0.45500    0.08190    0.64100    1.000
    C148     C        0.44350    0.00680    0.46100    1.000
    C149     C        0.41930    0.10670    0.52300    1.000
    H113     H        0.47260    0.09960    0.73270    1.000
    C150     C        0.41200    0.03130    0.33500    1.000
    H114     H        0.45160    0.97300    0.43880    1.000
    C151     C        0.40270    0.08310    0.36200    1.000
    H115     H        0.40720    0.13860    0.55460    1.000
    H116     H        0.39740    0.01400    0.23480    1.000
    C152     C        0.36740    0.11080    0.23500    1.000
    C153     C        0.34940    0.15570    0.29000    1.000
    C154     C        0.35690    0.09620    0.05100    1.000
    C155     C        0.31720    0.18550    0.16900    1.000
    H117     H        0.35770    0.16790    0.40900    1.000
    C156     C        0.32330    0.12690    0.95200    1.000
    H118     H        0.37140    0.06760    0.99720    1.000
    H119     H        0.30840    0.21810    0.20480    1.000
    H120     H        0.31640    0.11710    0.82920    1.000
    C157     C        0.89090    0.43560    0.52000    1.000
    H121     H        0.85570    0.43560    0.51570    1.000
    C158     C        0.91930    0.46860    0.40800    1.000
    H122     H        0.90300    0.49510    0.34760    1.000
    C159     C        0.99620    0.43100    0.50600    1.000
    H123     H        0.03130    0.42880    0.50090    1.000
    C160     C        0.96930    0.40100    0.63500    1.000
    H124     H        0.98660    0.38020    0.71850    1.000
    C161     C        0.83890    0.37200    0.77200    1.000
    H125     H        0.81990    0.39030    0.68560    1.000
    C162     C        0.81750    0.34450    0.93200    1.000
    H126     H        0.79110    0.35990    0.99720    1.000
    C163     C        0.88180    0.29370    0.96600    1.000
    H127     H        0.89780    0.26790    0.03210    1.000
    C164     C        0.91060    0.32430    0.84600    1.000
    H128     H        0.94400    0.31590    0.82040    1.000
    C165     C        0.85420    0.65530    0.81200    1.000
    H129     H        0.85990    0.66870    0.93120    1.000
    C166     C        0.82580    0.68130    0.66800    1.000
    H130     H        0.82030    0.71570    0.68670    1.000
    C167     C        0.82810    0.62060    0.46100    1.000
    H131     H        0.81970    0.60710    0.34430    1.000
    C168     C        0.86300    0.59620    0.57300    1.000
    H132     H        0.88060    0.56920    0.52210    1.000
    I7       I        0.25786    0.69666    0.37370    1.000
    Cu7      Cu       0.30054    0.75493    0.63450    1.000
    Cu8      Cu       0.20473    0.74986    0.13370    1.000
    I8       I        0.24639    0.80722    0.87300    1.000
    N13      N        0.34070    0.70720    0.78600    1.000
    N14      N        0.33780    0.80730    0.48340    1.000
    N15      N        0.15940    0.79560    0.28000    1.000
    N16      N        0.16760    0.69950    0.99000    1.000
    C169     C        0.35220    0.71610    0.96000    1.000
    C170     C        0.35660    0.66370    0.72200    1.000
    C171     C        0.38470    0.79970    0.44100    1.000
    C172     C        0.32030    0.84950    0.41800    1.000
    C173     C        0.14400    0.84050    0.22600    1.000
    C174     C        0.15400    0.78800    0.45900    1.000
    H133     H        0.34190    0.74710    0.00910    1.000
    C175     C        0.37810    0.68410    0.08100    1.000
    C176     C        0.38780    0.62840    0.82700    1.000
    H134     H        0.34720    0.65470    0.60010    1.000
    H135     H        0.40000    0.77000    0.48110    1.000
    C177     C        0.41290    0.83350    0.33900    1.000
    C178     C        0.34060    0.87690    0.26100    1.000
    H136     H        0.29220    0.86320    0.47760    1.000
    H137     H        0.15480    0.85220    0.10930    1.000
    C179     C        0.11300    0.87110    0.32900    1.000
    C180     C        0.12620    0.81950    0.58900    1.000
    H138     H        0.16950    0.75940    0.50820    1.000
    H139     H        0.38280    0.69210    0.20700    1.000
    C181     C        0.39660    0.63960    0.00500    1.000
    H140     H        0.40100    0.59940    0.77140    1.000
    C182     C        0.39030    0.87170    0.24300    1.000
    H141     H        0.44790    0.83020    0.33560    1.000
    H142     H        0.32090    0.89640    0.18100    1.000
    H143     H        0.09770    0.89880    0.27220    1.000
    C183     C        0.10410    0.86150    0.51700    1.000
    H144     H        0.12370    0.81140    0.71600    1.000
    C184     C        0.42550    0.60640    0.12800    1.000
    C185     C        0.41770    0.90310    0.11400    1.000
    C186     C        0.07590    0.89430    0.62600    1.000
    C187     C        0.45660    0.62410    0.27100    1.000
    C188     C        0.41990    0.55520    0.10700    1.000
    C189     C        0.47010    0.90930    0.12100    1.000
    C190     C        0.39270    0.92810    0.97200    1.000
    C191     C        0.08090    0.94660    0.60400    1.000
    C192     C        0.04610    0.87690    0.77200    1.000
    H145     H        0.46160    0.65870    0.28540    1.000
    C193     C        0.48010    0.59080    0.39400    1.000
    C194     C        0.44490    0.52200    0.22980    1.000
    H146     H        0.39940    0.54240    0.01220    1.000
    H147     H        0.48900    0.89310    0.21320    1.000
    C195     C        0.49360    0.93990    0.98900    1.000
    C196     C        0.41640    0.95990    0.84400    1.000
    H148     H        0.35790    0.92330    0.96150    1.000
    H149     H        0.10140    0.95960    0.50950    1.000
    C197     C        0.05510    0.97910    0.72300    1.000
    C198     C        0.01860    0.90910    0.88400    1.000
    H150     H        0.04460    0.84230    0.79530    1.000
    H151     H        0.50000    0.60370    0.49040    1.000
    C199     C        0.47490    0.54030    0.37800    1.000
    H152     H        0.44150    0.48730    0.21280    1.000
    H153     H        0.52870    0.94230    0.99190    1.000
    C200     C        0.46800    0.96660    0.85500    1.000
    H154     H        0.39770    0.97650    0.75270    1.000
    H155     H        0.05650    0.01370    0.70140    1.000
    C201     C        0.02740    0.96140    0.87400    1.000
    H156     H        0.99430    0.89630    0.96660    1.000
    C202     C        0.53710    0.97010    0.61400    1.000
    C203     C        0.54500    0.91810    0.64100    1.000
    C204     C        0.55650    0.99320    0.46100    1.000
    C205     C        0.58070    0.89330    0.52300    1.000
    H157     H        0.52740    0.90040    0.73270    1.000
    C206     C        0.58800    0.96870    0.33500    1.000
    H158     H        0.54840    0.02700    0.43880    1.000
    C207     C        0.59730    0.91690    0.36200    1.000
    H159     H        0.59280    0.86140    0.55460    1.000
    H160     H        0.60260    0.98600    0.23480    1.000
    C208     C        0.63260    0.88920    0.23500    1.000
    C209     C        0.65060    0.84430    0.29000    1.000
    C210     C        0.64310    0.90380    0.05100    1.000
    C211     C        0.68280    0.81450    0.16900    1.000
    H161     H        0.64230    0.83210    0.40900    1.000
    C212     C        0.67670    0.87310    0.95200    1.000
    H162     H        0.62860    0.93240    0.99720    1.000
    H163     H        0.69160    0.78190    0.20480    1.000
    H164     H        0.68360    0.88290    0.82920    1.000
    C213     C        0.10910    0.56440    0.52000    1.000
    H165     H        0.14430    0.56440    0.51570    1.000
    C214     C        0.08070    0.53140    0.40800    1.000
    H166     H        0.09700    0.50490    0.34760    1.000
    C215     C        0.00380    0.56900    0.50600    1.000
    H167     H        0.96870    0.57120    0.50090    1.000
    C216     C        0.03070    0.59900    0.63500    1.000
    H168     H        0.01340    0.61980    0.71850    1.000
    C217     C        0.16110    0.62800    0.77200    1.000
    H169     H        0.18010    0.60970    0.68560    1.000
    C218     C        0.18250    0.65550    0.93200    1.000
    H170     H        0.20890    0.64010    0.99720    1.000
    C219     C        0.11820    0.70630    0.96600    1.000
    H171     H        0.10220    0.73210    0.03210    1.000
    C220     C        0.08940    0.67570    0.84600    1.000
    H172     H        0.05600    0.68410    0.82040    1.000
    C221     C        0.14580    0.34470    0.81200    1.000
    H173     H        0.14010    0.33130    0.93120    1.000
    C222     C        0.17420    0.31870    0.66800    1.000
    H174     H        0.17970    0.28430    0.68670    1.000
    C223     C        0.17190    0.37940    0.46100    1.000
    H175     H        0.18030    0.39290    0.34430    1.000
    C224     C        0.13700    0.40380    0.57300    1.000
    H176     H        0.11940    0.43080    0.52210    1.000
    C225     C        0.50000    0.50000    0.50000    1.000
    C226     C        0.00000    0.50000    0.27900    1.000
    C227     C        0.50000    0.00000    0.72100    1.000
    C228     C        0.00000    0.00000    0.00000    1.000
