data_functionalizedCrystal
_audit_creation_method	'EQeq! by Chris Wilmer'
_symmetry_space_group_name_H-M	'P1'
_symmetry_Int_Tables_number	1
_symmetry_cell_setting	triclinic
loop_
_symmetry_equiv_pos_as_xyz
  x,y,z
_cell_length_a	14.3986
_cell_length_b	31.365
_cell_length_c	32.0647
_cell_angle_alpha	90
_cell_angle_beta	90
_cell_angle_gamma	90
loop_
_atom_site_label
_atom_site_type_symbol
_atom_site_fract_x
_atom_site_fract_y
_atom_site_fract_z
_atom_site_charge
Mof_C 	C 	0.0761	0.2335	0.69889	0.234
Mof_C 	C 	0.1199	0.20368	0.66727	-0.014
Mof_C 	C 	0.2097	0.19301	0.66831	-0.015
Mof_H 	H 	0.2485	0.2039	0.6898	0.064
Mof_C 	C 	0.1916	0.14732	0.6083	0.063
Mof_C 	C 	0.247	0.16602	0.63803	-0.093
Mof_H 	H 	0.3119	0.1605	0.638	0.072
Mof_C 	C 	0.0588	0.1853	0.63822	-0.108
Mof_H 	H 	0.9946	0.1923	0.6382	0.116
Mof_C 	C 	0.0957	0.1558	0.6088	-0.058
Mof_H 	H 	0.0557	0.1418	0.5897	0.036
Mof_C 	C 	0.2252	0.11736	0.57586	-0.122
Mof_C 	C 	0.2248	0.13031	0.53453	0.082
Mof_C 	C 	0.2899	0.023	0.62979	-0.089
Mof_H 	H 	0.2981	0.0045	0.653	0.061
Mof_C 	C 	0.3146	0.0143	0.58699	0.098
Mof_C 	C 	0.1998	0.17259	0.52139	-0.078
Mof_H 	H 	0.186	0.1961	0.539	0.057
Mof_C 	C 	0.2533	0.06189	0.63019	-0.073
Mof_H 	H 	0.231	0.0769	0.6539	0.057
Mof_C 	C 	0.3831	0.9425	0.607	0.101
Mof_C 	C 	0.4773	0.9369	0.6185	-0.128
Mof_H 	H 	0.5244	0.9545	0.6068	0.074
Mof_C 	C 	0.3601	0.97561	0.5747	-0.145
Mof_C 	C 	0.3143	0.9173	0.624	-0.134
Mof_H 	H 	0.2514	0.9214	0.616	0.067
Mof_C 	C 	0.254	0.07683	0.58792	0.079
Mof_C 	C 	0.3858	0.9687	0.5345	0.095
Mof_C 	C 	0.4356	0.9297	0.5219	-0.092
Mof_H 	H 	0.4623	0.9088	0.5397	0.053
Mof_C 	C 	0.4298	0.87951	0.66402	-0.076
Mof_C 	C 	0.337	0.8861	0.6526	0.03
Mof_H 	H 	0.2894	0.8691	0.6646	0.036
Mof_C 	C 	0.5003	0.9048	0.6476	0.025
Mof_H 	H 	0.5629	0.9006	0.6558	0.038
Mof_C 	C 	0.4565	0.84545	0.6947	0.29
Mof_N 	N 	0.2918	0.04603	0.56197	-0.285
Mof_O 	O 	0.1282	0.25203	0.72468	-0.442
Mof_O 	O 	0.9903	0.2408	0.69755	-0.437
Mof_O 	O 	0.3908	0.82335	0.71115	-0.472
Mof_O 	O 	0.5406	0.83968	0.70374	-0.497
Mof_C 	C 	0.5761	0.7335	0.69889	0.315
Mof_C 	C 	0.6199	0.70368	0.66727	-0.088
Mof_C 	C 	0.7097	0.69301	0.66831	0.048
Mof_H 	H 	0.7485	0.7039	0.6898	0.046
Mof_C 	C 	0.6916	0.64732	0.6083	0.11
Mof_C 	C 	0.747	0.66602	0.63803	-0.142
Mof_H 	H 	0.8119	0.6605	0.638	0.093
Mof_C 	C 	0.5588	0.6853	0.63822	0.03
Mof_H 	H 	0.4946	0.6923	0.6382	0.039
Mof_C 	C 	0.5957	0.6558	0.6088	-0.131
Mof_H 	H 	0.5557	0.6418	0.5897	0.071
Mof_C 	C 	0.7252	0.61736	0.57586	-0.138
Mof_C 	C 	0.7248	0.63031	0.53453	0.092
Mof_C 	C 	0.7899	0.523	0.62979	-0.074
Mof_H 	H 	0.7981	0.5045	0.653	0.062
Mof_C 	C 	0.8146	0.5143	0.58699	0.081
Mof_C 	C 	0.6998	0.67259	0.52139	-0.078
Mof_H 	H 	0.686	0.6961	0.539	0.061
Mof_C 	C 	0.7533	0.56189	0.63019	-0.08
Mof_H 	H 	0.731	0.5769	0.6539	0.065
Mof_C 	C 	0.8831	0.4425	0.607	-0.014
Mof_C 	C 	0.9773	0.4369	0.6185	0.123
Mof_H 	H 	0.0244	0.4545	0.6068	-0.038
Mof_C 	C 	0.8601	0.47561	0.5747	-0.097
Mof_C 	C 	0.8143	0.4173	0.624	-0.024
Mof_H 	H 	0.7514	0.4214	0.616	0.038
Mof_C 	C 	0.754	0.57683	0.58792	0.092
Mof_C 	C 	0.8858	0.4687	0.5345	0.085
Mof_C 	C 	0.9356	0.4297	0.5219	-0.079
Mof_H 	H 	0.9623	0.4088	0.5397	0.061
Mof_C 	C 	0.9298	0.37951	0.66402	0.063
Mof_C 	C 	0.837	0.3861	0.6526	-0.074
Mof_H 	H 	0.7894	0.3691	0.6646	0.075
Mof_C 	C 	0.0003	0.4048	0.6476	-0.216
Mof_H 	H 	0.0629	0.4006	0.6558	0.11
Mof_C 	C 	0.9565	0.34545	0.6947	0.298
Mof_N 	N 	0.7918	0.54603	0.56197	-0.281
Mof_O 	O 	0.6282	0.75203	0.72468	-0.47
Mof_O 	O 	0.4903	0.7408	0.69755	-0.51
Mof_O 	O 	0.8908	0.32335	0.71115	-0.449
Mof_O 	O 	0.0406	0.33968	0.70374	-0.514
Mof_C 	C 	0.9239	0.2335	0.80111	0.393
Mof_C 	C 	0.8801	0.20368	0.83273	-0.162
Mof_C 	C 	0.7903	0.19301	0.83169	0.108
Mof_H 	H 	0.7515	0.2039	0.8102	0.024
Mof_C 	C 	0.8084	0.14732	0.8917	0.153
Mof_C 	C 	0.753	0.16602	0.86197	-0.189
Mof_H 	H 	0.6881	0.1605	0.862	0.104
Mof_C 	C 	0.9412	0.1853	0.86178	0.167
Mof_H 	H 	0.0054	0.1923	0.8618	-0.036
Mof_C 	C 	0.9043	0.1558	0.8912	-0.201
Mof_H 	H 	0.9443	0.1418	0.9103	0.108
Mof_C 	C 	0.7748	0.11736	0.92414	-0.154
Mof_C 	C 	0.7752	0.13031	0.96547	0.102
Mof_C 	C 	0.7101	0.023	0.87021	-0.081
Mof_H 	H 	0.7019	0.0045	0.847	0.064
Mof_C 	C 	0.6854	0.0143	0.91301	0.101
Mof_C 	C 	0.8002	0.17259	0.97861	-0.059
Mof_H 	H 	0.814	0.1961	0.961	0.06
Mof_C 	C 	0.7467	0.06189	0.86981	-0.08
Mof_H 	H 	0.769	0.0769	0.8461	0.066
Mof_C 	C 	0.6169	0.9425	0.893	0.105
Mof_C 	C 	0.5227	0.9369	0.8815	-0.129
Mof_H 	H 	0.4756	0.9545	0.8932	0.075
Mof_C 	C 	0.6399	0.97561	0.9253	-0.144
Mof_C 	C 	0.6857	0.9173	0.876	-0.134
Mof_H 	H 	0.7486	0.9214	0.884	0.08
Mof_C 	C 	0.746	0.07683	0.91208	0.099
Mof_C 	C 	0.6142	0.9687	0.9655	0.103
Mof_C 	C 	0.5644	0.9297	0.9781	-0.072
Mof_H 	H 	0.5377	0.9088	0.9603	0.051
Mof_C 	C 	0.5702	0.87951	0.83598	-0.075
Mof_C 	C 	0.663	0.8861	0.8474	0.035
Mof_H 	H 	0.7106	0.8691	0.8354	0.042
Mof_C 	C 	0.4997	0.9048	0.8524	0.027
Mof_H 	H 	0.4371	0.9006	0.8442	0.038
Mof_C 	C 	0.5435	0.84545	0.8053	0.291
Mof_N 	N 	0.7082	0.04603	0.93803	-0.282
Mof_O 	O 	0.8718	0.25203	0.77532	-0.469
Mof_O 	O 	0.0097	0.2408	0.80245	-0.545
Mof_O 	O 	0.6092	0.82335	0.78885	-0.468
Mof_O 	O 	0.4594	0.83968	0.79626	-0.498
Mof_C 	C 	0.4239	0.7335	0.80111	0.315
Mof_C 	C 	0.3801	0.70368	0.83273	-0.086
Mof_C 	C 	0.2903	0.69301	0.83169	0.044
Mof_H 	H 	0.2515	0.7039	0.8102	0.044
Mof_C 	C 	0.3084	0.64732	0.8917	0.106
Mof_C 	C 	0.253	0.66602	0.86197	-0.139
Mof_H 	H 	0.1881	0.6605	0.862	0.082
Mof_C 	C 	0.4412	0.6853	0.86178	0.029
Mof_H 	H 	0.5054	0.6923	0.8618	0.041
Mof_C 	C 	0.4043	0.6558	0.8912	-0.128
Mof_H 	H 	0.4443	0.6418	0.9103	0.073
Mof_C 	C 	0.2748	0.61736	0.92414	-0.138
Mof_C 	C 	0.2752	0.63031	0.96547	0.091
Mof_C 	C 	0.2101	0.523	0.87021	-0.096
Mof_H 	H 	0.2019	0.5045	0.847	0.063
Mof_C 	C 	0.1854	0.5143	0.91301	0.117
Mof_C 	C 	0.3002	0.67259	0.97861	-0.059
Mof_H 	H 	0.314	0.6961	0.961	0.055
Mof_C 	C 	0.2467	0.56189	0.86981	-0.073
Mof_H 	H 	0.269	0.5769	0.8461	0.058
Mof_C 	C 	0.1169	0.4425	0.893	0.22
Mof_C 	C 	0.0227	0.4369	0.8815	-0.38
Mof_H 	H 	0.9756	0.4545	0.8932	0.188
Mof_C 	C 	0.1399	0.47561	0.9253	-0.192
Mof_C 	C 	0.1857	0.4173	0.876	-0.243
Mof_H 	H 	0.2486	0.4214	0.884	0.11
Mof_C 	C 	0.246	0.57683	0.91208	0.087
Mof_C 	C 	0.1142	0.4687	0.9655	0.113
Mof_C 	C 	0.0644	0.4297	0.9781	-0.085
Mof_H 	H 	0.0377	0.4088	0.9603	0.043
Mof_C 	C 	0.0702	0.37951	0.83598	-0.214
Mof_C 	C 	0.163	0.3861	0.8474	0.139
Mof_H 	H 	0.2106	0.3691	0.8354	0.004
Mof_C 	C 	0.9997	0.4048	0.8524	0.269
Mof_H 	H 	0.9371	0.4006	0.8442	-0.035
Mof_C 	C 	0.0435	0.34545	0.8053	0.283
Mof_N 	N 	0.2082	0.54603	0.93803	-0.286
Mof_O 	O 	0.3718	0.75203	0.77532	-0.473
Mof_O 	O 	0.5097	0.7408	0.80245	-0.509
Mof_O 	O 	0.1092	0.32335	0.78885	-0.458
Mof_O 	O 	0.9594	0.33968	0.79626	-0.447
Mof_C 	C 	0.0761	0.2335	0.30111	0.233
Mof_C 	C 	0.1199	0.20368	0.33273	-0.014
Mof_C 	C 	0.2097	0.19301	0.33169	-0.015
Mof_H 	H 	0.2485	0.2039	0.3102	0.064
Mof_C 	C 	0.1916	0.14732	0.3917	0.063
Mof_C 	C 	0.247	0.16602	0.36197	-0.093
Mof_H 	H 	0.3119	0.1605	0.362	0.072
Mof_C 	C 	0.0588	0.1853	0.36178	-0.108
Mof_H 	H 	0.9946	0.1923	0.3618	0.116
Mof_C 	C 	0.0957	0.1558	0.3912	-0.058
Mof_H 	H 	0.0557	0.1418	0.4103	0.036
Mof_C 	C 	0.2252	0.11736	0.42414	-0.122
Mof_C 	C 	0.2248	0.13031	0.46547	0.082
Mof_C 	C 	0.2899	0.023	0.37021	-0.089
Mof_H 	H 	0.2981	0.0045	0.347	0.061
Mof_C 	C 	0.3146	0.0143	0.41301	0.098
Mof_C 	C 	0.1998	0.17259	0.47861	-0.078
Mof_H 	H 	0.186	0.1961	0.461	0.057
Mof_C 	C 	0.2533	0.06189	0.36981	-0.073
Mof_H 	H 	0.231	0.0769	0.3461	0.057
Mof_C 	C 	0.3831	0.9425	0.393	0.101
Mof_C 	C 	0.4773	0.9369	0.3815	-0.128
Mof_H 	H 	0.5244	0.9545	0.3932	0.074
Mof_C 	C 	0.3601	0.97561	0.4253	-0.145
Mof_C 	C 	0.3143	0.9173	0.376	-0.134
Mof_H 	H 	0.2514	0.9214	0.384	0.067
Mof_C 	C 	0.254	0.07683	0.41208	0.08
Mof_C 	C 	0.3858	0.9687	0.4655	0.095
Mof_C 	C 	0.4356	0.9297	0.4781	-0.092
Mof_H 	H 	0.4623	0.9088	0.4603	0.053
Mof_C 	C 	0.4298	0.87951	0.33598	-0.076
Mof_C 	C 	0.337	0.8861	0.3474	0.03
Mof_H 	H 	0.2894	0.8691	0.3354	0.036
Mof_C 	C 	0.5003	0.9048	0.3524	0.025
Mof_H 	H 	0.5629	0.9006	0.3442	0.038
Mof_C 	C 	0.4565	0.84545	0.3053	0.29
Mof_N 	N 	0.2918	0.04603	0.43803	-0.285
Mof_O 	O 	0.1282	0.25203	0.27532	-0.442
Mof_O 	O 	0.9903	0.2408	0.30245	-0.437
Mof_O 	O 	0.3908	0.82335	0.28885	-0.472
Mof_O 	O 	0.5406	0.83968	0.29626	-0.497
Mof_C 	C 	0.5761	0.7335	0.30111	0.315
Mof_C 	C 	0.6199	0.70368	0.33273	-0.088
Mof_C 	C 	0.7097	0.69301	0.33169	0.048
Mof_H 	H 	0.7485	0.7039	0.3102	0.046
Mof_C 	C 	0.6916	0.64732	0.3917	0.11
Mof_C 	C 	0.747	0.66602	0.36197	-0.142
Mof_H 	H 	0.8119	0.6605	0.362	0.093
Mof_C 	C 	0.5588	0.6853	0.36178	0.03
Mof_H 	H 	0.4946	0.6923	0.3618	0.039
Mof_C 	C 	0.5957	0.6558	0.3912	-0.131
Mof_H 	H 	0.5557	0.6418	0.4103	0.071
Mof_C 	C 	0.7252	0.61736	0.42414	-0.138
Mof_C 	C 	0.7248	0.63031	0.46547	0.092
Mof_C 	C 	0.7899	0.523	0.37021	-0.074
Mof_H 	H 	0.7981	0.5045	0.347	0.063
Mof_C 	C 	0.8146	0.5143	0.41301	0.081
Mof_C 	C 	0.6998	0.67259	0.47861	-0.078
Mof_H 	H 	0.686	0.6961	0.461	0.061
Mof_C 	C 	0.7533	0.56189	0.36981	-0.08
Mof_H 	H 	0.731	0.5769	0.3461	0.065
Mof_C 	C 	0.8831	0.4425	0.393	-0.014
Mof_C 	C 	0.9773	0.4369	0.3815	0.123
Mof_H 	H 	0.0244	0.4545	0.3932	-0.038
Mof_C 	C 	0.8601	0.47561	0.4253	-0.097
Mof_C 	C 	0.8143	0.4173	0.376	-0.024
Mof_H 	H 	0.7514	0.4214	0.384	0.038
Mof_C 	C 	0.754	0.57683	0.41208	0.092
Mof_C 	C 	0.8858	0.4687	0.4655	0.085
Mof_C 	C 	0.9356	0.4297	0.4781	-0.079
Mof_H 	H 	0.9623	0.4088	0.4603	0.061
Mof_C 	C 	0.9298	0.37951	0.33598	0.063
Mof_C 	C 	0.837	0.3861	0.3474	-0.074
Mof_H 	H 	0.7894	0.3691	0.3354	0.075
Mof_C 	C 	0.0003	0.4048	0.3524	-0.216
Mof_H 	H 	0.0629	0.4006	0.3442	0.11
Mof_C 	C 	0.9565	0.34545	0.3053	0.298
Mof_N 	N 	0.7918	0.54603	0.43803	-0.281
Mof_O 	O 	0.6282	0.75203	0.27532	-0.47
Mof_O 	O 	0.4903	0.7408	0.30245	-0.51
Mof_O 	O 	0.8908	0.32335	0.28885	-0.449
Mof_O 	O 	0.0406	0.33968	0.29626	-0.513
Mof_C 	C 	0.9239	0.2335	0.19889	0.393
Mof_C 	C 	0.8801	0.20368	0.16727	-0.162
Mof_C 	C 	0.7903	0.19301	0.16831	0.108
Mof_H 	H 	0.7515	0.2039	0.1898	0.024
Mof_C 	C 	0.8084	0.14732	0.1083	0.154
Mof_C 	C 	0.753	0.16602	0.13803	-0.189
Mof_H 	H 	0.6881	0.1605	0.138	0.103
Mof_C 	C 	0.9412	0.1853	0.13822	0.166
Mof_H 	H 	0.0054	0.1923	0.1382	-0.037
Mof_C 	C 	0.9043	0.1558	0.1088	-0.202
Mof_H 	H 	0.9443	0.1418	0.0897	0.106
Mof_C 	C 	0.7748	0.11736	0.07586	-0.157
Mof_C 	C 	0.7752	0.13031	0.03453	0.102
Mof_C 	C 	0.7101	0.023	0.12979	-0.081
Mof_H 	H 	0.7019	0.0045	0.153	0.064
Mof_C 	C 	0.6854	0.0143	0.08699	0.1
Mof_C 	C 	0.8002	0.17259	0.02139	-0.103
Mof_H 	H 	0.814	0.1961	0.039	0.069
Mof_C 	C 	0.7467	0.06189	0.13019	-0.08
Mof_H 	H 	0.769	0.0769	0.1539	0.066
Mof_C 	C 	0.6169	0.9425	0.107	0.105
Mof_C 	C 	0.5227	0.9369	0.1185	-0.13
Mof_H 	H 	0.4756	0.9545	0.1068	0.075
Mof_C 	C 	0.6399	0.97561	0.0747	-0.145
Mof_C 	C 	0.6857	0.9173	0.124	-0.135
Mof_H 	H 	0.7486	0.9214	0.116	0.078
Mof_C 	C 	0.746	0.07683	0.08792	0.098
Mof_C 	C 	0.6142	0.9687	0.0345	0.101
Mof_C 	C 	0.5644	0.9297	0.0219	-0.111
Mof_H 	H 	0.5377	0.9088	0.0397	0.059
Mof_C 	C 	0.5702	0.87951	0.16402	-0.076
Mof_C 	C 	0.663	0.8861	0.1526	0.034
Mof_H 	H 	0.7106	0.8691	0.1646	0.042
Mof_C 	C 	0.4997	0.9048	0.1476	0.027
Mof_H 	H 	0.4371	0.9006	0.1558	0.038
Mof_C 	C 	0.5435	0.84545	0.1947	0.291
Mof_N 	N 	0.7082	0.04603	0.06197	-0.286
Mof_O 	O 	0.8718	0.25203	0.22468	-0.469
Mof_O 	O 	0.0097	0.2408	0.19755	-0.546
Mof_O 	O 	0.6092	0.82335	0.21115	-0.469
Mof_O 	O 	0.4594	0.83968	0.20374	-0.498
Mof_C 	C 	0.4239	0.7335	0.19889	0.315
Mof_C 	C 	0.3801	0.70368	0.16727	-0.087
Mof_C 	C 	0.2903	0.69301	0.16831	0.044
Mof_H 	H 	0.2515	0.7039	0.1898	0.044
Mof_C 	C 	0.3084	0.64732	0.1083	0.106
Mof_C 	C 	0.253	0.66602	0.13803	-0.14
Mof_H 	H 	0.1881	0.6605	0.138	0.082
Mof_C 	C 	0.4412	0.6853	0.13822	0.028
Mof_H 	H 	0.5054	0.6923	0.1382	0.04
Mof_C 	C 	0.4043	0.6558	0.1088	-0.129
Mof_H 	H 	0.4443	0.6418	0.0897	0.071
Mof_C 	C 	0.2748	0.61736	0.07586	-0.141
Mof_C 	C 	0.2752	0.63031	0.03453	0.091
Mof_C 	C 	0.2101	0.523	0.12979	-0.096
Mof_H 	H 	0.2019	0.5045	0.153	0.063
Mof_C 	C 	0.1854	0.5143	0.08699	0.116
Mof_C 	C 	0.3002	0.67259	0.02139	-0.103
Mof_H 	H 	0.314	0.6961	0.039	0.065
Mof_C 	C 	0.2467	0.56189	0.13019	-0.074
Mof_H 	H 	0.269	0.5769	0.1539	0.058
Mof_C 	C 	0.1169	0.4425	0.107	0.22
Mof_C 	C 	0.0227	0.4369	0.1185	-0.38
Mof_H 	H 	0.9756	0.4545	0.1068	0.188
Mof_C 	C 	0.1399	0.47561	0.0747	-0.194
Mof_C 	C 	0.1857	0.4173	0.124	-0.244
Mof_H 	H 	0.2486	0.4214	0.116	0.108
Mof_C 	C 	0.246	0.57683	0.08792	0.086
Mof_C 	C 	0.1142	0.4687	0.0345	0.11
Mof_C 	C 	0.0644	0.4297	0.0219	-0.123
Mof_H 	H 	0.0377	0.4088	0.0397	0.051
Mof_C 	C 	0.0702	0.37951	0.16402	-0.215
Mof_C 	C 	0.163	0.3861	0.1526	0.139
Mof_H 	H 	0.2106	0.3691	0.1646	0.003
Mof_C 	C 	0.9997	0.4048	0.1476	0.269
Mof_H 	H 	0.9371	0.4006	0.1558	-0.035
Mof_C 	C 	0.0435	0.34545	0.1947	0.283
Mof_N 	N 	0.2082	0.54603	0.06197	-0.29
Mof_O 	O 	0.3718	0.75203	0.22468	-0.473
Mof_O 	O 	0.5097	0.7408	0.19755	-0.509
Mof_O 	O 	0.1092	0.32335	0.21115	-0.458
Mof_O 	O 	0.9594	0.33968	0.20374	-0.448
Mof_In	In	9.06038e-33	0.28826	0.25	2.359
Mof_In	In	0.5	0.78826	0.25	2.499
Mof_In	In	-2.16296e-32	0.28826	0.75	2.359
Mof_In	In	0.5	0.78826	0.75	2.499
Mof_Co	Co	0.28887	0.04604	0.5	1.104
Mof_N 	N 	0.2422	0.104	0.5	-0.287
Mof_N 	N 	0.359	0.9916	0.5	-0.285
Mof_Co	Co	0.78887	0.54604	0.5	1.108
Mof_N 	N 	0.7422	0.604	0.5	-0.286
Mof_N 	N 	0.859	0.4916	0.5	-0.276
Mof_Co	Co	0.71113	0.04604	-0	1.104
Mof_N 	N 	0.7578	0.104	-0	-0.295
Mof_N 	N 	0.641	0.9916	-0	-0.29
Mof_Co	Co	0.21113	0.54604	-0	1.1
Mof_N 	N 	0.2578	0.604	-0	-0.296
Mof_N 	N 	0.141	0.4916	-0	-0.299
Mof_C 	C 	0.9239	0.7665	0.69889	0.393
Mof_C 	C 	0.8801	0.79632	0.66727	-0.162
Mof_C 	C 	0.7903	0.80699	0.66831	0.108
Mof_H 	H 	0.7515	0.7961	0.6898	0.024
Mof_C 	C 	0.8084	0.85268	0.6083	0.153
Mof_C 	C 	0.753	0.83398	0.63803	-0.188
Mof_H 	H 	0.6881	0.8395	0.638	0.103
Mof_C 	C 	0.9412	0.8147	0.63822	0.167
Mof_H 	H 	0.0054	0.8077	0.6382	-0.037
Mof_C 	C 	0.9043	0.8442	0.6088	-0.201
Mof_H 	H 	0.9443	0.8582	0.5897	0.107
Mof_C 	C 	0.7748	0.88264	0.57586	-0.154
Mof_C 	C 	0.7752	0.86969	0.53453	0.097
Mof_C 	C 	0.7101	0.977	0.62979	-0.081
Mof_H 	H 	0.7019	0.9955	0.653	0.064
Mof_C 	C 	0.6854	0.9857	0.58699	0.099
Mof_C 	C 	0.8002	0.82741	0.52139	-0.08
Mof_H 	H 	0.814	0.8039	0.539	0.064
Mof_C 	C 	0.7467	0.93811	0.63019	-0.08
Mof_H 	H 	0.769	0.9231	0.6539	0.066
Mof_C 	C 	0.6169	0.0575	0.607	0.104
Mof_C 	C 	0.5227	0.0631	0.6185	-0.129
Mof_H 	H 	0.4756	0.0455	0.6068	0.075
Mof_C 	C 	0.6399	0.02439	0.5747	-0.143
Mof_C 	C 	0.6857	0.0827	0.624	-0.134
Mof_H 	H 	0.7486	0.0786	0.616	0.079
Mof_C 	C 	0.746	0.92317	0.58792	0.098
Mof_C 	C 	0.6142	0.0313	0.5345	0.097
Mof_C 	C 	0.5644	0.0703	0.5219	-0.09
Mof_H 	H 	0.5377	0.0912	0.5397	0.054
Mof_C 	C 	0.5702	0.12049	0.66402	-0.075
Mof_C 	C 	0.663	0.1139	0.6526	0.034
Mof_H 	H 	0.7106	0.1309	0.6646	0.042
Mof_C 	C 	0.4997	0.0952	0.6476	0.027
Mof_H 	H 	0.4371	0.0994	0.6558	0.038
Mof_C 	C 	0.5435	0.15455	0.6947	0.291
Mof_N 	N 	0.7082	0.95397	0.56197	-0.285
Mof_O 	O 	0.8718	0.74797	0.72468	-0.469
Mof_O 	O 	0.0097	0.7592	0.69755	-0.546
Mof_O 	O 	0.6092	0.17665	0.71115	-0.468
Mof_O 	O 	0.4594	0.16032	0.70374	-0.498
Mof_C 	C 	0.4239	0.2665	0.69889	0.314
Mof_C 	C 	0.3801	0.29632	0.66727	-0.086
Mof_C 	C 	0.2903	0.30699	0.66831	0.044
Mof_H 	H 	0.2515	0.2961	0.6898	0.044
Mof_C 	C 	0.3084	0.35268	0.6083	0.105
Mof_C 	C 	0.253	0.33398	0.63803	-0.139
Mof_H 	H 	0.1881	0.3395	0.638	0.082
Mof_C 	C 	0.4412	0.3147	0.63822	0.028
Mof_H 	H 	0.5054	0.3077	0.6382	0.041
Mof_C 	C 	0.4043	0.3442	0.6088	-0.128
Mof_H 	H 	0.4443	0.3582	0.5897	0.072
Mof_C 	C 	0.2748	0.38264	0.57586	-0.138
Mof_C 	C 	0.2752	0.36969	0.53453	0.087
Mof_C 	C 	0.2101	0.477	0.62979	-0.096
Mof_H 	H 	0.2019	0.4955	0.653	0.063
Mof_C 	C 	0.1854	0.4857	0.58699	0.116
Mof_C 	C 	0.3002	0.32741	0.52139	-0.08
Mof_H 	H 	0.314	0.3039	0.539	0.06
Mof_C 	C 	0.2467	0.43811	0.63019	-0.073
Mof_H 	H 	0.269	0.4231	0.6539	0.058
Mof_C 	C 	0.1169	0.5575	0.607	0.22
Mof_C 	C 	0.0227	0.5631	0.6185	-0.38
Mof_H 	H 	0.9756	0.5455	0.6068	0.188
Mof_C 	C 	0.1399	0.52439	0.5747	-0.191
Mof_C 	C 	0.1857	0.5827	0.624	-0.244
Mof_H 	H 	0.2486	0.5786	0.616	0.109
Mof_C 	C 	0.246	0.42317	0.58792	0.085
Mof_C 	C 	0.1142	0.5313	0.5345	0.107
Mof_C 	C 	0.0644	0.5703	0.5219	-0.103
Mof_H 	H 	0.0377	0.5912	0.5397	0.047
Mof_C 	C 	0.0702	0.62049	0.66402	-0.214
Mof_C 	C 	0.163	0.6139	0.6526	0.139
Mof_H 	H 	0.2106	0.6309	0.6646	0.003
Mof_C 	C 	0.9997	0.5952	0.6476	0.269
Mof_H 	H 	0.9371	0.5994	0.6558	-0.035
Mof_C 	C 	0.0435	0.65455	0.6947	0.283
Mof_N 	N 	0.2082	0.45397	0.56197	-0.289
Mof_O 	O 	0.3718	0.24797	0.72468	-0.473
Mof_O 	O 	0.5097	0.2592	0.69755	-0.509
Mof_O 	O 	0.1092	0.67665	0.71115	-0.458
Mof_O 	O 	0.9594	0.66032	0.70374	-0.448
Mof_C 	C 	0.0761	0.7665	0.80111	0.233
Mof_C 	C 	0.1199	0.79632	0.83273	-0.014
Mof_C 	C 	0.2097	0.80699	0.83169	-0.015
Mof_H 	H 	0.2485	0.7961	0.8102	0.064
Mof_C 	C 	0.1916	0.85268	0.8917	0.063
Mof_C 	C 	0.247	0.83398	0.86197	-0.093
Mof_H 	H 	0.3119	0.8395	0.862	0.072
Mof_C 	C 	0.0588	0.8147	0.86178	-0.107
Mof_H 	H 	0.9946	0.8077	0.8618	0.116
Mof_C 	C 	0.0957	0.8442	0.8912	-0.058
Mof_H 	H 	0.0557	0.8582	0.9103	0.038
Mof_C 	C 	0.2252	0.88264	0.92414	-0.122
Mof_C 	C 	0.2248	0.86969	0.96547	0.086
Mof_C 	C 	0.2899	0.977	0.87021	-0.09
Mof_H 	H 	0.2981	0.9955	0.847	0.062
Mof_C 	C 	0.3146	0.9857	0.91301	0.099
Mof_C 	C 	0.1998	0.82741	0.97861	-0.058
Mof_H 	H 	0.186	0.8039	0.961	0.052
Mof_C 	C 	0.2533	0.93811	0.86981	-0.073
Mof_H 	H 	0.231	0.9231	0.8461	0.057
Mof_C 	C 	0.3831	0.0575	0.893	0.102
Mof_C 	C 	0.4773	0.0631	0.8815	-0.128
Mof_H 	H 	0.5244	0.0455	0.8932	0.074
Mof_C 	C 	0.3601	0.02439	0.9253	-0.146
Mof_C 	C 	0.3143	0.0827	0.876	-0.134
Mof_H 	H 	0.2514	0.0786	0.884	0.068
Mof_C 	C 	0.254	0.92317	0.91208	0.081
Mof_C 	C 	0.3858	0.0313	0.9655	0.101
Mof_C 	C 	0.4356	0.0703	0.9781	-0.074
Mof_H 	H 	0.4623	0.0912	0.9603	0.049
Mof_C 	C 	0.4298	0.12049	0.83598	-0.076
Mof_C 	C 	0.337	0.1139	0.8474	0.031
Mof_H 	H 	0.2894	0.1309	0.8354	0.037
Mof_C 	C 	0.5003	0.0952	0.8524	0.026
Mof_H 	H 	0.5629	0.0994	0.8442	0.038
Mof_C 	C 	0.4565	0.15455	0.8053	0.291
Mof_N 	N 	0.2918	0.95397	0.93803	-0.282
Mof_O 	O 	0.1282	0.74797	0.77532	-0.442
Mof_O 	O 	0.9903	0.7592	0.80245	-0.437
Mof_O 	O 	0.3908	0.17665	0.78885	-0.471
Mof_O 	O 	0.5406	0.16032	0.79626	-0.497
Mof_C 	C 	0.5761	0.2665	0.80111	0.315
Mof_C 	C 	0.6199	0.29632	0.83273	-0.088
Mof_C 	C 	0.7097	0.30699	0.83169	0.048
Mof_H 	H 	0.7485	0.2961	0.8102	0.046
Mof_C 	C 	0.6916	0.35268	0.8917	0.111
Mof_C 	C 	0.747	0.33398	0.86197	-0.142
Mof_H 	H 	0.8119	0.3395	0.862	0.094
Mof_C 	C 	0.5588	0.3147	0.86178	0.031
Mof_H 	H 	0.4946	0.3077	0.8618	0.039
Mof_C 	C 	0.5957	0.3442	0.8912	-0.131
Mof_H 	H 	0.5557	0.3582	0.9103	0.073
Mof_C 	C 	0.7252	0.38264	0.92414	-0.138
Mof_C 	C 	0.7248	0.36969	0.96547	0.097
Mof_C 	C 	0.7899	0.477	0.87021	-0.075
Mof_H 	H 	0.7981	0.4955	0.847	0.063
Mof_C 	C 	0.8146	0.4857	0.91301	0.083
Mof_C 	C 	0.6998	0.32741	0.97861	-0.057
Mof_H 	H 	0.686	0.3039	0.961	0.057
Mof_C 	C 	0.7533	0.43811	0.86981	-0.08
Mof_H 	H 	0.731	0.4231	0.8461	0.065
Mof_C 	C 	0.8831	0.5575	0.893	-0.013
Mof_C 	C 	0.9773	0.5631	0.8815	0.122
Mof_H 	H 	0.0244	0.5455	0.8932	-0.038
Mof_C 	C 	0.8601	0.52439	0.9253	-0.098
Mof_C 	C 	0.8143	0.5827	0.876	-0.024
Mof_H 	H 	0.7514	0.5786	0.884	0.039
Mof_C 	C 	0.754	0.42317	0.91208	0.094
Mof_C 	C 	0.8858	0.5313	0.9655	0.091
Mof_C 	C 	0.9356	0.5703	0.9781	-0.061
Mof_H 	H 	0.9623	0.5912	0.9603	0.057
Mof_C 	C 	0.9298	0.62049	0.83598	0.062
Mof_C 	C 	0.837	0.6139	0.8474	-0.073
Mof_H 	H 	0.7894	0.6309	0.8354	0.075
Mof_C 	C 	0.0003	0.5952	0.8524	-0.215
Mof_H 	H 	0.0629	0.5994	0.8442	0.11
Mof_C 	C 	0.9565	0.65455	0.8053	0.298
Mof_N 	N 	0.7918	0.45397	0.93803	-0.278
Mof_O 	O 	0.6282	0.24797	0.77532	-0.47
Mof_O 	O 	0.4903	0.2592	0.80245	-0.51
Mof_O 	O 	0.8908	0.67665	0.78885	-0.449
Mof_O 	O 	0.0406	0.66032	0.79626	-0.513
Mof_C 	C 	0.9239	0.7665	0.30111	0.393
Mof_C 	C 	0.8801	0.79632	0.33273	-0.162
Mof_C 	C 	0.7903	0.80699	0.33169	0.108
Mof_H 	H 	0.7515	0.7961	0.3102	0.024
Mof_C 	C 	0.8084	0.85268	0.3917	0.153
Mof_C 	C 	0.753	0.83398	0.36197	-0.189
Mof_H 	H 	0.6881	0.8395	0.362	0.103
Mof_C 	C 	0.9412	0.8147	0.36178	0.167
Mof_H 	H 	0.0054	0.8077	0.3618	-0.037
Mof_C 	C 	0.9043	0.8442	0.3912	-0.201
Mof_H 	H 	0.9443	0.8582	0.4103	0.107
Mof_C 	C 	0.7748	0.88264	0.42414	-0.154
Mof_C 	C 	0.7752	0.86969	0.46547	0.097
Mof_C 	C 	0.7101	0.977	0.37021	-0.081
Mof_H 	H 	0.7019	0.9955	0.347	0.064
Mof_C 	C 	0.6854	0.9857	0.41301	0.099
Mof_C 	C 	0.8002	0.82741	0.47861	-0.08
Mof_H 	H 	0.814	0.8039	0.461	0.064
Mof_C 	C 	0.7467	0.93811	0.36981	-0.08
Mof_H 	H 	0.769	0.9231	0.3461	0.066
Mof_C 	C 	0.6169	0.0575	0.393	0.104
Mof_C 	C 	0.5227	0.0631	0.3815	-0.129
Mof_H 	H 	0.4756	0.0455	0.3932	0.075
Mof_C 	C 	0.6399	0.02439	0.4253	-0.143
Mof_C 	C 	0.6857	0.0827	0.376	-0.134
Mof_H 	H 	0.7486	0.0786	0.384	0.079
Mof_C 	C 	0.746	0.92317	0.41208	0.098
Mof_C 	C 	0.6142	0.0313	0.4655	0.097
Mof_C 	C 	0.5644	0.0703	0.4781	-0.09
Mof_H 	H 	0.5377	0.0912	0.4603	0.054
Mof_C 	C 	0.5702	0.12049	0.33598	-0.075
Mof_C 	C 	0.663	0.1139	0.3474	0.034
Mof_H 	H 	0.7106	0.1309	0.3354	0.042
Mof_C 	C 	0.4997	0.0952	0.3524	0.027
Mof_H 	H 	0.4371	0.0994	0.3442	0.038
Mof_C 	C 	0.5435	0.15455	0.3053	0.291
Mof_N 	N 	0.7082	0.95397	0.43803	-0.285
Mof_O 	O 	0.8718	0.74797	0.27532	-0.469
Mof_O 	O 	0.0097	0.7592	0.30245	-0.546
Mof_O 	O 	0.6092	0.17665	0.28885	-0.468
Mof_O 	O 	0.4594	0.16032	0.29626	-0.498
Mof_C 	C 	0.4239	0.2665	0.30111	0.315
Mof_C 	C 	0.3801	0.29632	0.33273	-0.086
Mof_C 	C 	0.2903	0.30699	0.33169	0.044
Mof_H 	H 	0.2515	0.2961	0.3102	0.044
Mof_C 	C 	0.3084	0.35268	0.3917	0.105
Mof_C 	C 	0.253	0.33398	0.36197	-0.139
Mof_H 	H 	0.1881	0.3395	0.362	0.082
Mof_C 	C 	0.4412	0.3147	0.36178	0.028
Mof_H 	H 	0.5054	0.3077	0.3618	0.041
Mof_C 	C 	0.4043	0.3442	0.3912	-0.128
Mof_H 	H 	0.4443	0.3582	0.4103	0.072
Mof_C 	C 	0.2748	0.38264	0.42414	-0.138
Mof_C 	C 	0.2752	0.36969	0.46547	0.087
Mof_C 	C 	0.2101	0.477	0.37021	-0.096
Mof_H 	H 	0.2019	0.4955	0.347	0.063
Mof_C 	C 	0.1854	0.4857	0.41301	0.116
Mof_C 	C 	0.3002	0.32741	0.47861	-0.08
Mof_H 	H 	0.314	0.3039	0.461	0.06
Mof_C 	C 	0.2467	0.43811	0.36981	-0.073
Mof_H 	H 	0.269	0.4231	0.3461	0.058
Mof_C 	C 	0.1169	0.5575	0.393	0.22
Mof_C 	C 	0.0227	0.5631	0.3815	-0.38
Mof_H 	H 	0.9756	0.5455	0.3932	0.188
Mof_C 	C 	0.1399	0.52439	0.4253	-0.191
Mof_C 	C 	0.1857	0.5827	0.376	-0.244
Mof_H 	H 	0.2486	0.5786	0.384	0.109
Mof_C 	C 	0.246	0.42317	0.41208	0.085
Mof_C 	C 	0.1142	0.5313	0.4655	0.107
Mof_C 	C 	0.0644	0.5703	0.4781	-0.103
Mof_H 	H 	0.0377	0.5912	0.4603	0.047
Mof_C 	C 	0.0702	0.62049	0.33598	-0.214
Mof_C 	C 	0.163	0.6139	0.3474	0.139
Mof_H 	H 	0.2106	0.6309	0.3354	0.003
Mof_C 	C 	0.9997	0.5952	0.3524	0.269
Mof_H 	H 	0.9371	0.5994	0.3442	-0.035
Mof_C 	C 	0.0435	0.65455	0.3053	0.283
Mof_N 	N 	0.2082	0.45397	0.43803	-0.289
Mof_O 	O 	0.3718	0.24797	0.27532	-0.473
Mof_O 	O 	0.5097	0.2592	0.30245	-0.509
Mof_O 	O 	0.1092	0.67665	0.28885	-0.458
Mof_O 	O 	0.9594	0.66032	0.29626	-0.448
Mof_C 	C 	0.0761	0.7665	0.19889	0.233
Mof_C 	C 	0.1199	0.79632	0.16727	-0.014
Mof_C 	C 	0.2097	0.80699	0.16831	-0.015
Mof_H 	H 	0.2485	0.7961	0.1898	0.064
Mof_C 	C 	0.1916	0.85268	0.1083	0.064
Mof_C 	C 	0.247	0.83398	0.13803	-0.094
Mof_H 	H 	0.3119	0.8395	0.138	0.072
Mof_C 	C 	0.0588	0.8147	0.13822	-0.108
Mof_H 	H 	0.9946	0.8077	0.1382	0.115
Mof_C 	C 	0.0957	0.8442	0.1088	-0.059
Mof_H 	H 	0.0557	0.8582	0.0897	0.035
Mof_C 	C 	0.2252	0.88264	0.07586	-0.125
Mof_C 	C 	0.2248	0.86969	0.03453	0.086
Mof_C 	C 	0.2899	0.977	0.12979	-0.09
Mof_H 	H 	0.2981	0.9955	0.153	0.061
Mof_C 	C 	0.3146	0.9857	0.08699	0.098
Mof_C 	C 	0.1998	0.82741	0.02139	-0.101
Mof_H 	H 	0.186	0.8039	0.039	0.062
Mof_C 	C 	0.2533	0.93811	0.13019	-0.074
Mof_H 	H 	0.231	0.9231	0.1539	0.057
Mof_C 	C 	0.3831	0.0575	0.107	0.102
Mof_C 	C 	0.4773	0.0631	0.1185	-0.129
Mof_H 	H 	0.5244	0.0455	0.1068	0.074
Mof_C 	C 	0.3601	0.02439	0.0747	-0.148
Mof_C 	C 	0.3143	0.0827	0.124	-0.134
Mof_H 	H 	0.2514	0.0786	0.116	0.067
Mof_C 	C 	0.254	0.92317	0.08792	0.08
Mof_C 	C 	0.3858	0.0313	0.0345	0.099
Mof_C 	C 	0.4356	0.0703	0.0219	-0.113
Mof_H 	H 	0.4623	0.0912	0.0397	0.058
Mof_C 	C 	0.4298	0.12049	0.16402	-0.076
Mof_C 	C 	0.337	0.1139	0.1526	0.03
Mof_H 	H 	0.2894	0.1309	0.1646	0.036
Mof_C 	C 	0.5003	0.0952	0.1476	0.025
Mof_H 	H 	0.5629	0.0994	0.1558	0.038
Mof_C 	C 	0.4565	0.15455	0.1947	0.29
Mof_N 	N 	0.2918	0.95397	0.06197	-0.286
Mof_O 	O 	0.1282	0.74797	0.22468	-0.442
Mof_O 	O 	0.9903	0.7592	0.19755	-0.437
Mof_O 	O 	0.3908	0.17665	0.21115	-0.472
Mof_O 	O 	0.5406	0.16032	0.20374	-0.498
Mof_C 	C 	0.5761	0.2665	0.19889	0.315
Mof_C 	C 	0.6199	0.29632	0.16727	-0.089
Mof_C 	C 	0.7097	0.30699	0.16831	0.048
Mof_H 	H 	0.7485	0.2961	0.1898	0.046
Mof_C 	C 	0.6916	0.35268	0.1083	0.111
Mof_C 	C 	0.747	0.33398	0.13803	-0.143
Mof_H 	H 	0.8119	0.3395	0.138	0.093
Mof_C 	C 	0.5588	0.3147	0.13822	0.03
Mof_H 	H 	0.4946	0.3077	0.1382	0.038
Mof_C 	C 	0.5957	0.3442	0.1088	-0.132
Mof_H 	H 	0.5557	0.3582	0.0897	0.07
Mof_C 	C 	0.7252	0.38264	0.07586	-0.141
Mof_C 	C 	0.7248	0.36969	0.03453	0.097
Mof_C 	C 	0.7899	0.477	0.12979	-0.075
Mof_H 	H 	0.7981	0.4955	0.153	0.063
Mof_C 	C 	0.8146	0.4857	0.08699	0.082
Mof_C 	C 	0.6998	0.32741	0.02139	-0.101
Mof_H 	H 	0.686	0.3039	0.039	0.066
Mof_C 	C 	0.7533	0.43811	0.13019	-0.08
Mof_H 	H 	0.731	0.4231	0.1539	0.065
Mof_C 	C 	0.8831	0.5575	0.107	-0.013
Mof_C 	C 	0.9773	0.5631	0.1185	0.121
Mof_H 	H 	0.0244	0.5455	0.1068	-0.038
Mof_C 	C 	0.8601	0.52439	0.0747	-0.1
Mof_C 	C 	0.8143	0.5827	0.124	-0.025
Mof_H 	H 	0.7514	0.5786	0.116	0.037
Mof_C 	C 	0.754	0.42317	0.08792	0.092
Mof_C 	C 	0.8858	0.5313	0.0345	0.089
Mof_C 	C 	0.9356	0.5703	0.0219	-0.1
Mof_H 	H 	0.9623	0.5912	0.0397	0.065
Mof_C 	C 	0.9298	0.62049	0.16402	0.062
Mof_C 	C 	0.837	0.6139	0.1526	-0.073
Mof_H 	H 	0.7894	0.6309	0.1646	0.074
Mof_C 	C 	0.0003	0.5952	0.1476	-0.215
Mof_H 	H 	0.0629	0.5994	0.1558	0.11
Mof_C 	C 	0.9565	0.65455	0.1947	0.298
Mof_N 	N 	0.7918	0.45397	0.06197	-0.282
Mof_O 	O 	0.6282	0.24797	0.22468	-0.47
Mof_O 	O 	0.4903	0.2592	0.19755	-0.51
Mof_O 	O 	0.8908	0.67665	0.21115	-0.449
Mof_O 	O 	0.0406	0.66032	0.20374	-0.514
Mof_In	In	1.60333e-32	0.71174	0.25	2.359
Mof_In	In	0.5	0.21174	0.25	2.499
Mof_In	In	6.26224e-33	0.71174	0.75	2.359
Mof_In	In	0.5	0.21174	0.75	2.499
Mof_Co	Co	0.71113	0.95396	0.5	1.108
Mof_N 	N 	0.7578	0.896	0.5	-0.288
Mof_N 	N 	0.641	0.0084	0.5	-0.283
Mof_Co	Co	0.21113	0.45396	0.5	1.104
Mof_N 	N 	0.2578	0.396	0.5	-0.289
Mof_N 	N 	0.141	0.5084	0.5	-0.291
Mof_Co	Co	0.28887	0.95396	-0	1.1
Mof_N 	N 	0.2422	0.896	-0	-0.294
Mof_N 	N 	0.359	0.0084	-0	-0.292
Mof_Co	Co	0.78887	0.45396	-0	1.104
Mof_N 	N 	0.7422	0.396	-0	-0.293
Mof_N 	N 	0.859	0.5084	-0	-0.284
_end
