data_functionalizedCrystal
_audit_creation_method	'EQeq! by Chris Wilmer'
_symmetry_space_group_name_H-M	'P1'
_symmetry_Int_Tables_number	1
_symmetry_cell_setting	triclinic
loop_
_symmetry_equiv_pos_as_xyz
  x,y,z
_cell_length_a	8.438
_cell_length_b	15.934
_cell_length_c	27.795
_cell_angle_alpha	90
_cell_angle_beta	90
_cell_angle_gamma	90
loop_
_atom_site_label
_atom_site_type_symbol
_atom_site_fract_x
_atom_site_fract_y
_atom_site_fract_z
_atom_site_charge
Mof_Er	Er	0.52312	0.69889	0.91868	2.033
Mof_Er	Er	0.97688	0.19889	0.08132	2.011
Mof_Er	Er	0.47688	0.30111	0.41868	2.033
Mof_Er	Er	0.02312	0.80111	0.58132	2.013
Mof_Er	Er	0.47688	0.30111	0.08132	2.033
Mof_Er	Er	0.02312	0.80111	0.91868	2.011
Mof_Er	Er	0.52312	0.69889	0.58132	2.033
Mof_Er	Er	0.97688	0.19889	0.41868	2.013
Mof_H 	H 	0.5952	0.817	0.044	0
Mof_H 	H 	0.2267	0.9748	0.023	-0.019
Mof_H 	H 	0.6003	0.0383	0.1058	-0.013
Mof_H 	H 	0.184	0.9063	0.8208	-0.028
Mof_H 	H 	0.9048	0.317	0.956	-0.001
Mof_H 	H 	0.2733	0.4748	0.977	-0.02
Mof_H 	H 	0.8997	0.5383	0.8942	-0.013
Mof_H 	H 	0.316	0.4063	0.1792	-0.026
Mof_H 	H 	0.4048	0.183	0.544	0.002
Mof_H 	H 	0.7733	0.0252	0.523	-0.018
Mof_H 	H 	0.3997	0.9617	0.6058	-0.013
Mof_H 	H 	0.816	0.0937	0.3208	-0.027
Mof_H 	H 	0.0952	0.683	0.456	0.001
Mof_H 	H 	0.7267	0.5252	0.477	-0.018
Mof_H 	H 	0.1003	0.4617	0.3942	-0.012
Mof_H 	H 	0.684	0.5937	0.6792	-0.026
Mof_H 	H 	0.4048	0.183	0.956	0.001
Mof_H 	H 	0.7733	0.0252	0.977	-0.018
Mof_H 	H 	0.3997	0.9617	0.8942	-0.012
Mof_H 	H 	0.816	0.0937	0.1792	-0.027
Mof_H 	H 	0.0952	0.683	0.044	0
Mof_H 	H 	0.7267	0.5252	0.023	-0.019
Mof_H 	H 	0.1003	0.4617	0.1058	-0.013
Mof_H 	H 	0.684	0.5937	0.8208	-0.026
Mof_H 	H 	0.5952	0.817	0.456	0.002
Mof_H 	H 	0.2267	0.9748	0.477	-0.018
Mof_H 	H 	0.6003	0.0383	0.3942	-0.013
Mof_H 	H 	0.184	0.9063	0.6792	-0.027
Mof_H 	H 	0.9048	0.317	0.544	0.001
Mof_H 	H 	0.2733	0.4748	0.523	-0.018
Mof_H 	H 	0.8997	0.5383	0.6058	-0.012
Mof_H 	H 	0.316	0.4063	0.3208	-0.026
Mof_H 	H 	0.3892	0.7157	0.75	0.005
Mof_H 	H 	0.1108	0.2157	0.25	0.008
Mof_H 	H 	0.6108	0.2843	0.25	0.005
Mof_H 	H 	0.8892	0.7843	0.75	0.008
Mof_C 	C 	0.5457	0.8696	0.0497	0.141
Mof_C 	C 	0.4	0.8862	0.0276	-0.246
Mof_C 	C 	0.3272	0.9624	0.0366	0.172
Mof_C 	C 	0.403	0.0206	0.066	-0.241
Mof_C 	C 	0.548	0.9985	0.0859	0.142
Mof_C 	C 	0.3279	0.8242	0.9948	0.534
Mof_C 	C 	0.3331	0.1059	0.0741	0.533
Mof_C 	C 	0.2116	0.8802	0.7912	0.144
Mof_C 	C 	0.2896	0.8032	0.7928	-0.223
Mof_C 	C 	0.331	0.7658	0.8398	0.461
Mof_C 	C 	0.9543	0.3696	0.9503	0.145
Mof_C 	C 	0.1	0.3862	0.9724	-0.252
Mof_C 	C 	0.1728	0.4624	0.9634	0.179
Mof_C 	C 	0.097	0.5206	0.934	-0.252
Mof_C 	C 	0.952	0.4985	0.9141	0.15
Mof_C 	C 	0.1721	0.3242	0.0052	0.537
Mof_C 	C 	0.1669	0.6059	0.9259	0.536
Mof_C 	C 	0.2884	0.3802	0.2088	0.145
Mof_C 	C 	0.2104	0.3032	0.2072	-0.22
Mof_C 	C 	0.169	0.2658	0.1602	0.461
Mof_C 	C 	0.4543	0.1304	0.5497	0.142
Mof_C 	C 	0.6	0.1138	0.5276	-0.247
Mof_C 	C 	0.6728	0.0376	0.5366	0.172
Mof_C 	C 	0.597	0.9794	0.566	-0.242
Mof_C 	C 	0.452	0.0015	0.5859	0.142
Mof_C 	C 	0.6721	0.1758	0.4948	0.534
Mof_C 	C 	0.6669	0.8941	0.5741	0.533
Mof_C 	C 	0.7884	0.1198	0.2912	0.144
Mof_C 	C 	0.7104	0.1968	0.2928	-0.223
Mof_C 	C 	0.669	0.2342	0.3398	0.461
Mof_C 	C 	0.0457	0.6304	0.4503	0.143
Mof_C 	C 	0.9	0.6138	0.4724	-0.248
Mof_C 	C 	0.8272	0.5376	0.4634	0.177
Mof_C 	C 	0.903	0.4794	0.434	-0.25
Mof_C 	C 	0.048	0.5015	0.4141	0.148
Mof_C 	C 	0.8279	0.6758	0.5052	0.535
Mof_C 	C 	0.8331	0.3941	0.4259	0.536
Mof_C 	C 	0.7116	0.6198	0.7088	0.145
Mof_C 	C 	0.7896	0.6968	0.7072	-0.22
Mof_C 	C 	0.831	0.7342	0.6602	0.461
Mof_C 	C 	0.4543	0.1304	0.9503	0.141
Mof_C 	C 	0.6	0.1138	0.9724	-0.246
Mof_C 	C 	0.6728	0.0376	0.9634	0.172
Mof_C 	C 	0.597	0.9794	0.934	-0.241
Mof_C 	C 	0.452	0.0015	0.9141	0.142
Mof_C 	C 	0.6721	0.1758	0.0052	0.534
Mof_C 	C 	0.6669	0.8941	0.9259	0.533
Mof_C 	C 	0.7884	0.1198	0.2088	0.144
Mof_C 	C 	0.7104	0.1968	0.2072	-0.223
Mof_C 	C 	0.669	0.2342	0.1602	0.461
Mof_C 	C 	0.0457	0.6304	0.0497	0.145
Mof_C 	C 	0.9	0.6138	0.0276	-0.252
Mof_C 	C 	0.8272	0.5376	0.0366	0.179
Mof_C 	C 	0.903	0.4794	0.066	-0.252
Mof_C 	C 	0.048	0.5015	0.0859	0.15
Mof_C 	C 	0.8279	0.6758	0.9948	0.537
Mof_C 	C 	0.8331	0.3941	0.0741	0.536
Mof_C 	C 	0.7116	0.6198	0.7912	0.145
Mof_C 	C 	0.7896	0.6968	0.7928	-0.22
Mof_C 	C 	0.831	0.7342	0.8398	0.461
Mof_C 	C 	0.5457	0.8696	0.4503	0.142
Mof_C 	C 	0.4	0.8862	0.4724	-0.247
Mof_C 	C 	0.3272	0.9624	0.4634	0.172
Mof_C 	C 	0.403	0.0206	0.434	-0.242
Mof_C 	C 	0.548	0.9985	0.4141	0.142
Mof_C 	C 	0.3279	0.8242	0.5052	0.534
Mof_C 	C 	0.3331	0.1059	0.4259	0.533
Mof_C 	C 	0.2116	0.8802	0.7088	0.144
Mof_C 	C 	0.2896	0.8032	0.7072	-0.223
Mof_C 	C 	0.331	0.7658	0.6602	0.461
Mof_C 	C 	0.9543	0.3696	0.5497	0.143
Mof_C 	C 	0.1	0.3862	0.5276	-0.248
Mof_C 	C 	0.1728	0.4624	0.5366	0.177
Mof_C 	C 	0.097	0.5206	0.566	-0.25
Mof_C 	C 	0.952	0.4985	0.5859	0.148
Mof_C 	C 	0.1721	0.3242	0.4948	0.535
Mof_C 	C 	0.1669	0.6059	0.5741	0.536
Mof_C 	C 	0.2884	0.3802	0.2912	0.145
Mof_C 	C 	0.2104	0.3032	0.2928	-0.22
Mof_C 	C 	0.169	0.2658	0.3398	0.461
Mof_C 	C 	0.3311	0.7668	0.75	0.158
Mof_C 	C 	0.1689	0.2668	0.25	0.158
Mof_C 	C 	0.6689	0.2332	0.25	0.158
Mof_C 	C 	0.8311	0.7332	0.75	0.158
Mof_N 	N 	0.618	0.9247	0.0785	-0.159
Mof_N 	N 	0.882	0.4247	0.9215	-0.161
Mof_N 	N 	0.382	0.0753	0.5785	-0.159
Mof_N 	N 	0.118	0.5753	0.4215	-0.16
Mof_N 	N 	0.382	0.0753	0.9215	-0.159
Mof_N 	N 	0.118	0.5753	0.0785	-0.161
Mof_N 	N 	0.618	0.9247	0.4215	-0.159
Mof_N 	N 	0.882	0.4247	0.5785	-0.16
Mof_N 	N 	0.173	0.9198	0.75	-0.156
Mof_N 	N 	0.327	0.4198	0.25	-0.154
Mof_N 	N 	0.827	0.0802	0.25	-0.156
Mof_N 	N 	0.673	0.5802	0.75	-0.154
Mof_O 	O 	0.408	0.7596	0.9846	-0.524
Mof_O 	O 	0.1924	0.8388	0.9782	-0.552
Mof_O 	O 	0.4238	0.162	0.09	-0.542
Mof_O 	O 	0.1899	0.1153	0.0638	-0.552
Mof_O 	O 	0.4351	0.7085	0.8409	-0.51
Mof_O 	O 	0.2675	0.7921	0.87845	-0.555
Mof_O 	O 	0.092	0.2596	0.0154	-0.519
Mof_O 	O 	0.3076	0.3388	0.0218	-0.553
Mof_O 	O 	0.0762	0.662	0.91	-0.544
Mof_O 	O 	0.3101	0.6153	0.9362	-0.558
Mof_O 	O 	0.0649	0.2085	0.1591	-0.502
Mof_O 	O 	0.2325	0.2921	0.12155	-0.554
Mof_O 	O 	0.592	0.2404	0.4846	-0.524
Mof_O 	O 	0.8076	0.1612	0.4782	-0.552
Mof_O 	O 	0.5762	0.838	0.59	-0.542
Mof_O 	O 	0.8101	0.8847	0.5638	-0.552
Mof_O 	O 	0.5649	0.2915	0.3409	-0.51
Mof_O 	O 	0.7325	0.2079	0.37845	-0.555
Mof_O 	O 	0.908	0.7404	0.5154	-0.52
Mof_O 	O 	0.6924	0.6612	0.5218	-0.553
Mof_O 	O 	0.9238	0.338	0.41	-0.544
Mof_O 	O 	0.6899	0.3847	0.4362	-0.558
Mof_O 	O 	0.9351	0.7915	0.6591	-0.502
Mof_O 	O 	0.7675	0.7079	0.62155	-0.554
Mof_O 	O 	0.592	0.2404	0.0154	-0.524
Mof_O 	O 	0.8076	0.1612	0.0218	-0.552
Mof_O 	O 	0.5762	0.838	0.91	-0.542
Mof_O 	O 	0.8101	0.8847	0.9362	-0.552
Mof_O 	O 	0.5649	0.2915	0.1591	-0.51
Mof_O 	O 	0.7325	0.2079	0.12155	-0.555
Mof_O 	O 	0.908	0.7404	0.9846	-0.519
Mof_O 	O 	0.6924	0.6612	0.9782	-0.553
Mof_O 	O 	0.9238	0.338	0.09	-0.544
Mof_O 	O 	0.6899	0.3847	0.0638	-0.558
Mof_O 	O 	0.9351	0.7915	0.8409	-0.502
Mof_O 	O 	0.7675	0.7079	0.87845	-0.554
Mof_O 	O 	0.408	0.7596	0.5154	-0.524
Mof_O 	O 	0.1924	0.8388	0.5218	-0.552
Mof_O 	O 	0.4238	0.162	0.41	-0.542
Mof_O 	O 	0.1899	0.1153	0.4362	-0.552
Mof_O 	O 	0.4351	0.7085	0.6591	-0.51
Mof_O 	O 	0.2675	0.7921	0.62155	-0.555
Mof_O 	O 	0.092	0.2596	0.4846	-0.52
Mof_O 	O 	0.3076	0.3388	0.4782	-0.553
Mof_O 	O 	0.0762	0.662	0.59	-0.544
Mof_O 	O 	0.3101	0.6153	0.5638	-0.558
Mof_O 	O 	0.0649	0.2085	0.3409	-0.502
Mof_O 	O 	0.2325	0.2921	0.37845	-0.554
_end
