data_functionalizedCrystal
_audit_creation_method	'EQeq! by Chris Wilmer'
_symmetry_space_group_name_H-M	'P1'
_symmetry_Int_Tables_number	1
_symmetry_cell_setting	triclinic
loop_
_symmetry_equiv_pos_as_xyz
  x,y,z
_cell_length_a	35.2721
_cell_length_b	14.6427
_cell_length_c	31.6037
_cell_angle_alpha	90
_cell_angle_beta	102.029
_cell_angle_gamma	90
loop_
_atom_site_label
_atom_site_type_symbol
_atom_site_fract_x
_atom_site_fract_y
_atom_site_fract_z
_atom_site_charge
Mof_Zn	Zn	0.66972	0.13331	0.5211	1.158
Mof_Zn	Zn	0.37862	0.88658	0.6818	1.163
Mof_Zn	Zn	0.08263	0.12215	0.84166	1.158
Mof_I 	I 	0.7262	0.2174	0.5406	-0.092
Mof_I 	I 	0.62479	0.1442	0.4452	-0.23
Mof_I 	I 	0.35476	0.8788	0.75048	-0.125
Mof_I 	I 	0.40215	0.75577	0.64188	-0.425
Mof_Zn	Zn	0.0819	0.8623	0.3417	0.614
Mof_I 	I 	0.02597	0.8461	0.37809	-0.388
Mof_I 	I 	0.11771	0.7508	0.3063	-0.045
Mof_Zn	Zn	0.1801	0.3504	0.0338	0.667
Mof_I 	I 	0.2425	0.2695	0.0589	-0.515
Mof_I 	I 	0.1315	0.3126	0.9635	0.106
Mof_I 	I 	0.0191	0.1471	0.8739	-0.336
Mof_I 	I 	0.11264	0.2365	0.7998	-0.162
Mof_Zn	Zn	0.3765	0.0868	0.1841	0.632
Mof_I 	I 	0.3517	0.0885	0.2503	-0.085
Mof_I 	I 	0.39535	0.2383	0.1464	-0.342
Mof_C 	C 	0.6499	0.198	0.6057	0.107
Mof_H 	H 	0.6758	0.221	0.6116	-0.024
Mof_C 	C 	0.6287	0.2147	0.6349	-0.175
Mof_H 	H 	0.639	0.2499	0.6599	0.102
Mof_C 	C 	0.5935	0.1815	0.629	0.107
Mof_C 	C 	0.5802	0.129	0.594	-0.17
Mof_H 	H 	0.5549	0.1036	0.5885	0.097
Mof_C 	C 	0.6061	0.114	0.5661	0.121
Mof_H 	H 	0.5987	0.0697	0.5438	-0.044
Mof_C 	C 	0.4374	0.0261	0.7204	0.089
Mof_H 	H 	0.4251	0.0222	0.7444	-0.026
Mof_C 	C 	0.4693	0.0877	0.7236	-0.168
Mof_H 	H 	0.4779	0.1232	0.749	0.078
Mof_C 	C 	0.4862	0.0939	0.6909	0.094
Mof_C 	C 	0.4696	0.044	0.6539	-0.21
Mof_H 	H 	0.4771	0.0546	0.6271	0.108
Mof_C 	C 	0.4428	0.982	0.6576	0.166
Mof_H 	H 	0.4369	0.9383	0.6352	-0.04
Mof_C 	C 	0.5973	0.4866	0.7769	0.057
Mof_H 	H 	0.6201	0.5225	0.7793	-0.011
Mof_C 	C 	0.5932	0.4101	0.7502	-0.111
Mof_H 	H 	0.6135	0.3926	0.7362	0.073
Mof_C 	C 	0.5602	0.3612	0.7443	0.041
Mof_C 	C 	0.5323	0.3866	0.7688	-0.11
Mof_H 	H 	0.5095	0.3511	0.7668	0.062
Mof_C 	C 	0.538	0.461	0.795	0.059
Mof_H 	H 	0.5185	0.4774	0.8103	-0.011
Mof_C 	C 	0.5688	0.1973	0.663	0.102
Mof_C 	C 	0.5204	0.152	0.6933	0.068
Mof_C 	C 	0.5549	0.2761	0.7171	0.096
Mof_C 	C 	0.3157	0.9092	0.6021	0.051
Mof_H 	H 	0.3219	0.8481	0.5961	0
Mof_C 	C 	0.2871	0.9506	0.5765	-0.083
Mof_H 	H 	0.2732	0.9176	0.5523	0.08
Mof_C 	C 	0.2756	0.0404	0.5822	0.004
Mof_C 	C 	0.2963	0.0827	0.6189	-0.09
Mof_H 	H 	0.2898	0.1433	0.6254	0.071
Mof_C 	C 	0.325	0.0402	0.6448	0.025
Mof_H 	H 	0.3384	0.0713	0.6699	0.005
Mof_C 	C 	0.1529	0.8923	0.4173	0.074
Mof_H 	H 	0.1565	0.8287	0.4136	-0.023
Mof_C 	C 	0.1765	0.9342	0.4509	-0.101
Mof_H 	H 	0.1969	0.9013	0.4688	0.072
Mof_C 	C 	0.1703	0.0283	0.459	0.025
Mof_C 	C 	0.1426	0.0694	0.4284	-0.11
Mof_H 	H 	0.1387	0.1333	0.4302	0.089
Mof_C 	C 	0.1216	0.0245	0.3974	0.043
Mof_H 	H 	0.1017	0.0569	0.3784	-0.001
Mof_C 	C 	0.2151	0.4588	0.5537	0.093
Mof_H 	H 	0.2329	0.4988	0.5713	-0.019
Mof_C 	C 	0.2233	0.3694	0.5549	-0.141
Mof_H 	H 	0.2476	0.3483	0.5708	0.083
Mof_C 	C 	0.1972	0.3095	0.5336	0.061
Mof_C 	C 	0.1629	0.3437	0.508	-0.107
Mof_H 	H 	0.1445	0.3028	0.4918	0.078
Mof_C 	C 	0.1557	0.4373	0.506	0.039
Mof_H 	H 	0.1324	0.4612	0.4891	-0.009
Mof_C 	C 	0.2436	0.0851	0.5534	0.093
Mof_C 	C 	0.193	0.079	0.4951	0.107
Mof_C 	C 	0.2066	0.2079	0.5313	0.101
Mof_C 	C 	0.093	0.991	0.2716	0.161
Mof_H 	H 	0.112	0.9472	0.2683	-0.056
Mof_C 	C 	0.0901	0.072	0.2472	-0.208
Mof_H 	H 	0.1092	0.0879	0.2313	0.089
Mof_C 	C 	0.0585	0.127	0.2472	0.091
Mof_C 	C 	0.0346	0.1045	0.2718	-0.164
Mof_H 	H 	0.0126	0.1412	0.2727	0.085
Mof_C 	C 	0.042	0.0268	0.2966	0.084
Mof_H 	H 	0.0244	0.0096	0.3143	-0.026
Mof_C 	C 	0.1105	0.387	0.0742	0.121
Mof_H 	H 	0.1032	0.4323	0.0524	-0.04
Mof_C 	C 	0.0885	0.376	0.1047	-0.164
Mof_H 	H 	0.0673	0.4165	0.1042	0.092
Mof_C 	C 	0.095	0.3118	0.1347	0.078
Mof_C 	C 	0.1293	0.2614	0.137	-0.151
Mof_H 	H 	0.1381	0.218	0.1593	0.079
Mof_C 	C 	0.1502	0.2802	0.1033	0.088
Mof_H 	H 	0.173	0.2456	0.1031	-0.052
Mof_C 	C 	0.9368	0.4598	0.2257	0.061
Mof_H 	H 	0.9253	0.4653	0.2502	-0.007
Mof_C 	C 	0.968	0.4052	0.2275	-0.118
Mof_H 	H 	0.9777	0.3719	0.2533	0.074
Mof_C 	C 	0.9864	0.3963	0.1932	0.044
Mof_C 	C 	0.9707	0.4379	0.1559	-0.119
Mof_H 	H 	0.9815	0.4309	0.1309	0.082
Mof_C 	C 	0.9371	0.4929	0.1548	0.069
Mof_H 	H 	0.9252	0.5209	0.1283	-0.016
Mof_C 	C 	0.0531	0.2085	0.2176	0.07
Mof_C 	C 	0.0705	0.2941	0.1645	0.082
Mof_C 	C 	0.0197	0.3333	0.1937	0.104
Mof_C 	C 	0.2142	0.5221	0.0512	0.068
Mof_H 	H 	0.232	0.48	0.0673	-0.031
Mof_C 	C 	0.223	0.6185	0.0545	-0.118
Mof_H 	H 	0.2455	0.6402	0.074	0.083
Mof_C 	C 	0.198	0.6786	0.0286	0.064
Mof_C 	C 	0.1641	0.6445	0.0042	-0.134
Mof_H 	H 	0.1455	0.6834	0.987	0.089
Mof_C 	C 	0.1582	0.5516	0.0056	0.09
Mof_H 	H 	0.1342	0.529	0.9898	-0.022
Mof_C 	C 	0.1172	0.9696	0.8961	0.104
Mof_H 	H 	0.0972	0.9392	0.8764	-0.021
Mof_C 	C 	0.1388	0.9193	0.9308	-0.318
Mof_H 	H 	0.1327	0.8577	0.9359	0.156
Mof_C 	C 	0.1697	0.9643	0.9573	0.16
Mof_C 	C 	0.1751	0.0547	0.9508	-0.219
Mof_H 	H 	0.1952	0.0869	0.9696	0.096
Mof_C 	C 	0.1516	0.0996	0.9171	0.098
Mof_H 	H 	0.1554	0.1631	0.9133	-0.028
Mof_C 	C 	0.3134	0.0743	0.1046	0.103
Mof_H 	H 	0.3184	0.1374	0.1014	-0.028
Mof_C 	C 	0.2837	0.035	0.0748	-0.196
Mof_H 	H 	0.2688	0.0696	0.0519	0.109
Mof_C 	C 	0.2768	0.945	0.0796	0.1
Mof_C 	C 	0.3006	0.8963	0.1136	-0.171
Mof_H 	H 	0.2973	0.8327	0.1175	0.1
Mof_C 	C 	0.3292	0.946	0.1412	0.136
Mof_H 	H 	0.3452	0.9145	0.1645	-0.032
Mof_C 	C 	0.2062	0.7771	0.0279	0.105
Mof_C 	C 	0.1937	0.9125	0.9925	0.063
Mof_C 	C 	0.2435	0.8988	0.0486	0.076
Mof_N 	N 	0.638	0.1526	0.5683	-0.302
Mof_N 	N 	0.4244	0.9764	0.6878	-0.296
Mof_N 	N 	0.5707	0.5128	0.7999	-0.27
Mof_N 	N 	0.5414	0.138	0.6615	-0.134
Mof_N 	N 	0.5259	0.2217	0.7205	-0.151
Mof_N 	N 	0.5772	0.2671	0.6891	-0.14
Mof_N 	N 	0.3366	0.9525	0.6372	-0.255
Mof_N 	N 	0.1256	0.9333	0.3896	-0.288
Mof_N 	N 	0.1836	0.4941	0.5294	-0.268
Mof_N 	N 	0.2252	0.0359	0.5195	-0.147
Mof_N 	N 	0.1836	0.1619	0.4991	-0.141
Mof_N 	N 	0.2362	0.1742	0.56	-0.142
Mof_N 	N 	0.0722	0.9762	0.2966	-0.304
Mof_N 	N 	0.1404	0.3392	0.0742	-0.322
Mof_N 	N 	0.9219	0.5069	0.1888	-0.279
Mof_N 	N 	0.0758	0.2179	0.1893	-0.139
Mof_N 	N 	0.0403	0.3522	0.1657	-0.137
Mof_N 	N 	0.0257	0.2688	0.2229	-0.15
Mof_N 	N 	0.1825	0.4912	0.0267	-0.308
Mof_N 	N 	0.1233	0.056	0.8894	-0.296
Mof_N 	N 	0.3351	0.0307	0.137	-0.315
Mof_N 	N 	0.1826	0.8241	0.9972	-0.127
Mof_N 	N 	0.223	0.9535	0.0181	-0.129
Mof_N 	N 	0.237	0.812	0.0555	-0.137
Mof_C 	C 	0.2389	0.654	0.161	0.086
Mof_N 	N 	0.2145	0.5853	0.1702	-0.115
Mof_N 	N 	0.2727	0.622	0.1545	-0.103
Mof_C 	C 	0.2365	0.497	0.1717	0.051
Mof_C 	C 	0.2713	0.529	0.1615	-0.09
Mof_C 	C 	0.2974	0.468	0.1587	-0.046
Mof_H 	H 	0.3214	0.484	0.1516	-0.021
Mof_C 	C 	0.2894	0.382	0.1661	-0.153
Mof_H 	H 	0.3087	0.3387	0.1632	0.105
Mof_C 	C 	0.2558	0.346	0.1777	-0.044
Mof_H 	H 	0.2524	0.2836	0.1847	0.023
Mof_C 	C 	0.2275	0.416	0.1775	-0.111
Mof_H 	H 	0.2023	0.4018	0.1818	0.078
Mof_C 	C 	0.2265	0.747	0.1562	0.072
Mof_N 	N 	0.2527	0.819	0.1806	-0.108
Mof_N 	N 	0.1939	0.77	0.1291	-0.115
Mof_C 	C 	0.2294	0.899	0.1635	-0.045
Mof_C 	C 	0.1973	0.869	0.1333	0.093
Mof_C 	C 	0.1715	0.932	0.1105	-0.035
Mof_H 	H 	0.1495	0.9121	0.0898	-0.08
Mof_C 	C 	0.1779	0.0251	0.1179	0.162
Mof_H 	H 	0.1602	0.0684	0.1023	-0.029
Mof_C 	C 	0.21	0.0547	0.1481	-0.245
Mof_H 	H 	0.2143	0.1182	0.1531	0.178
Mof_C 	C 	0.2358	0.991	0.1709	0.163
Mof_H 	H 	0.2577	0.0116	0.1916	-0.027
Mof_C 	C 	0.1772	0.599	0.1856	-0.028
Mof_H 	H 	0.1615	0.5426	0.1804	0.048
Mof_H 	H 	0.1622	0.649	0.1688	0.051
Mof_C 	C 	0.185	0.623	0.2339	-0.139
Mof_H 	H 	0.1599	0.6285	0.243	0.078
Mof_H 	H 	0.1995	0.5718	0.2505	0.079
Mof_C 	C 	0.2055	0.701	0.2439	-0.003
Mof_H 	H 	0.1906	0.7559	0.2415	0.046
Mof_C 	C 	0.2481	0.713	0.258	-0.019
Mof_H 	H 	0.263	0.662	0.2702	0.042
Mof_C 	C 	0.2687	0.8	0.2543	-0.147
Mof_H 	H 	0.2915	0.8033	0.2785	0.076
Mof_H 	H 	0.2513	0.8512	0.2573	0.083
Mof_C 	C 	0.2819	0.81	0.2127	0.011
Mof_H 	H 	0.299	0.8636	0.2143	0.036
Mof_H 	H 	0.2971	0.755	0.208	0.047
Mof_C 	C 	0.042	0.012	0.996	0.261
Mof_H 	H 	0.0179	0.0469	0.9959	-0.07
Mof_H 	H 	0.0392	0.978	0.969	-0.035
Mof_C 	C 	0.077	0.08	0.0006	-1.293
Mof_H 	H 	0.1012	0.0458	0.0034	0.21
Mof_H 	H 	0.0732	0.1194	0.9747	0.401
Mof_C 	C 	0.077	0.137	0.041	0.905
Mof_H 	H 	0.052	0.17	0.0384	-0.204
Mof_H 	H 	0.098	0.1832	0.0445	0.129
Mof_C 	C 	0.083	0.074	0.0807	-0.289
Mof_H 	H 	0.1097	0.0471	0.0847	0.099
Mof_H 	H 	0.0824	0.1107	0.1067	0.049
Mof_C 	C 	0.054	0.996	0.078	-0.068
Mof_H 	H 	0.0627	0.9531	0.1018	-0.061
Mof_H 	H 	0.0287	0.0217	0.0805	0.016
Mof_C 	C 	0.049	0.945	0.035	-0.172
Mof_H 	H 	0.0268	0.9026	0.0321	0.086
Mof_H 	H 	0.0726	0.9083	0.0347	0.116
Mof_C 	C 	0.947	0.798	0.791	-0.106
Mof_H 	H 	0.9548	0.8321	0.7671	0.035
Mof_H 	H 	0.9183	0.7914	0.7841	0.063
Mof_C 	C 	0.967	0.704	0.797	-0.059
Mof_H 	H 	0.9951	0.7104	0.8041	0.044
Mof_H 	H 	0.9592	0.667	0.7703	0.031
Mof_C 	C 	0.952	0.658	0.835	-0.104
Mof_H 	H 	0.9241	0.6719	0.8334	0.062
Mof_H 	H 	0.9554	0.5912	0.8349	0.059
Mof_C 	C 	0.977	0.702	0.875	-0.061
Mof_H 	H 	0.9991	0.6607	0.8874	0.042
Mof_H 	H 	0.962	0.7133	0.8974	0.049
Mof_C 	C 	0.9931	0.793	0.861	-0.11
Mof_H 	H 	0.013	0.7801	0.844	0.068
Mof_H 	H 	0.0055	0.8279	0.8872	0.057
Mof_C 	C 	0.96	0.849	0.834	-0.038
Mof_H 	H 	0.9382	0.8544	0.8492	0.041
Mof_H 	H 	0.9691	0.9111	0.8288	-0.004
Mof_I 	I 	0.73082	0.2277	0.5436	-0.277
Mof_I 	I 	0.6263	0.1544	0.4497	-0.143
Mof_I 	I 	0.3558	0.9013	0.7543	-0.221
Mof_I 	I 	0.3902	0.729	0.6585	0.032
Mof_Zn	Zn	0.0926	0.876	0.3427	0.648
Mof_I 	I 	0.0332	0.8198	0.3704	0.033
Mof_I 	I 	0.133	0.761	0.3066	-0.349
Mof_Zn	Zn	0.1683	0.3552	0.0221	0.666
Mof_I 	I 	0.22887	0.2601	0.04379	0.051
Mof_I 	I 	0.1193	0.3327	0.95207	-0.536
Mof_I 	I 	0.0305	0.1455	0.8761	-0.046
Mof_I 	I 	0.1225	0.2332	0.8076	-0.195
Mof_Zn	Zn	0.3749	0.1142	0.1834	0.613
Mof_I 	I 	0.3501	0.0984	0.2577	-0.288
Mof_I 	I 	0.3947	0.2314	0.1562	-0.088
Mof_C 	C 	0.1499	0.952	0.094	0.247
Mof_N 	N 	0.1385	0.941	0.1356	-0.185
Mof_N 	N 	0.1785	0.998	0.096	-0.241
Mof_C 	C 	0.1688	0.997	0.1634	0.024
Mof_C 	C 	0.1943	0.025	0.1379	0.117
Mof_C 	C 	0.2271	0.076	0.156	-0.178
Mof_H 	H 	0.2445	0.0949	0.1385	0.081
Mof_C 	C 	0.2343	0.098	0.2	-0.032
Mof_H 	H 	0.2567	0.1325	0.2121	0.029
Mof_C 	C 	0.2089	0.07	0.2253	-0.038
Mof_H 	H 	0.2138	0.0852	0.2551	0.036
Mof_C 	C 	0.1761	0.02	0.2071	-0.088
Mof_H 	H 	0.1587	0.0003	0.2246	0.048
Mof_C 	C 	0.1224	0.91	0.059	0.071
Mof_N 	N 	0.1077	0.957	0.0212	-0.16
Mof_N 	N 	0.1144	0.823	0.0576	-0.111
Mof_C 	C 	0.0815	0.886	0.9882	0.031
Mof_C 	C 	0.0865	0.808	0.0138	0.032
Mof_C 	C 	0.0678	0.728	0.9983	-0.068
Mof_H 	H 	0.0712	0.6744	0.0158	0.056
Mof_C 	C 	0.0442	0.725	0.9572	-0.041
Mof_H 	H 	0.0314	0.6701	0.9466	0.04
Mof_C 	C 	0.0392	0.803	0.9316	-0.008
Mof_H 	H 	0.0231	0.8014	0.9035	0.016
Mof_C 	C 	0.0579	0.884	0.9471	-0.082
Mof_H 	H 	0.0545	0.9371	0.9296	0.064
Mof_C 	C 	0.1009	0.909	0.144	0.354
Mof_H 	H 	0.0899	0.8618	0.1231	-0.065
Mof_H 	H 	0.1051	0.882	0.1737	-0.069
Mof_C 	C 	0.074	0.983	0.142	-0.843
Mof_H 	H 	0.0514	0.9626	0.1525	0.292
Mof_H 	H 	0.0867	0.0334	0.1604	0.252
Mof_C 	C 	0.064	0.012	0.103	0.702
Mof_H 	H 	0.0418	0.975	0.0912	-0.101
Mof_C 	C 	0.067	0.063	0.072	-0.438
Mof_H 	H 	0.0582	0.1179	0.0826	0.141
Mof_C 	C 	0.075	0.104	0.026	0.367
Mof_H 	H 	0.0501	0.1027	0.0041	0.19
Mof_H 	H 	0.0826	0.1688	0.0305	-0.653
Mof_C 	C 	0.105	0.055	0.008	0.263
Mof_H 	H 	0.0984	0.0585	0.9756	0.037
Mof_H 	H 	0.1304	0.0849	0.0177	-0.094
Mof_C 	C 	0.293	0.35	0.1715	0.072
Mof_H 	H 	0.2789	0.3259	0.1928	0.035
Mof_H 	H 	0.3202	0.3266	0.1791	-0.074
Mof_C 	C 	0.2737	0.317	0.1254	-0.136
Mof_H 	H 	0.2767	0.2501	0.1235	0.078
Mof_H 	H 	0.2457	0.3312	0.1198	0.078
Mof_C 	C 	0.292	0.364	0.091	0.041
Mof_H 	H 	0.2753	0.4135	0.0761	0.023
Mof_H 	H 	0.2974	0.3199	0.0693	0.058
Mof_C 	C 	0.331	0.404	0.118	-0.292
Mof_H 	H 	0.3443	0.3581	0.1388	0.125
Mof_H 	H 	0.3483	0.423	0.0989	0.196
Mof_C 	C 	0.319	0.488	0.143	0.106
Mof_H 	H 	0.3425	0.5193	0.1591	-0.015
Mof_H 	H 	0.3042	0.5323	0.1219	0.019
Mof_C 	C 	0.294	0.455	0.174	-0
Mof_H 	H 	0.3053	0.475	0.2037	0.04
Mof_H 	H 	0.2674	0.4793	0.1653	0.11
Mof_Zn	Zn	0.16972	0.63331	0.5211	1.16
Mof_Zn	Zn	0.87862	0.38658	0.6818	1.161
Mof_Zn	Zn	0.58263	0.62215	0.84166	1.158
Mof_I 	I 	0.2262	0.7174	0.5406	-0.089
Mof_I 	I 	0.12479	0.6442	0.4452	-0.227
Mof_I 	I 	0.85476	0.3788	0.75048	-0.134
Mof_I 	I 	0.90215	0.25577	0.64188	-0.419
Mof_Zn	Zn	0.5819	0.3623	0.3417	0.614
Mof_I 	I 	0.52597	0.3461	0.37809	-0.387
Mof_I 	I 	0.61771	0.2508	0.3063	-0.049
Mof_Zn	Zn	0.6801	0.8504	0.0338	0.668
Mof_I 	I 	0.7425	0.7695	0.0589	-0.512
Mof_I 	I 	0.6315	0.8126	0.9635	0.114
Mof_I 	I 	0.5191	0.6471	0.8739	-0.324
Mof_I 	I 	0.61264	0.7365	0.7998	-0.161
Mof_Zn	Zn	0.8765	0.5868	0.1841	0.634
Mof_I 	I 	0.8517	0.5885	0.2503	-0.081
Mof_I 	I 	0.89535	0.7383	0.1464	-0.341
Mof_C 	C 	0.1499	0.698	0.6057	0.109
Mof_H 	H 	0.1758	0.721	0.6116	-0.022
Mof_C 	C 	0.1287	0.7147	0.6349	-0.174
Mof_H 	H 	0.139	0.7499	0.6599	0.103
Mof_C 	C 	0.0935	0.6815	0.629	0.109
Mof_C 	C 	0.0802	0.629	0.594	-0.168
Mof_H 	H 	0.0549	0.6036	0.5885	0.099
Mof_C 	C 	0.1061	0.614	0.5661	0.123
Mof_H 	H 	0.0987	0.5697	0.5438	-0.04
Mof_C 	C 	0.9374	0.5261	0.7204	0.107
Mof_H 	H 	0.9251	0.5222	0.7444	-0.026
Mof_C 	C 	0.9693	0.5877	0.7236	-0.164
Mof_H 	H 	0.9779	0.6232	0.749	0.079
Mof_C 	C 	0.9862	0.5939	0.6909	0.083
Mof_C 	C 	0.9696	0.544	0.6539	-0.171
Mof_H 	H 	0.9771	0.5546	0.6271	0.099
Mof_C 	C 	0.9428	0.482	0.6576	0.126
Mof_H 	H 	0.9369	0.4383	0.6352	-0.031
Mof_C 	C 	0.0973	0.9866	0.7769	0.124
Mof_H 	H 	0.1201	0.0225	0.7793	-0.046
Mof_C 	C 	0.0932	0.9101	0.7502	-0.15
Mof_H 	H 	0.1135	0.8926	0.7362	0.089
Mof_C 	C 	0.0602	0.8612	0.7443	0.065
Mof_C 	C 	0.0323	0.8866	0.7688	-0.133
Mof_H 	H 	0.0095	0.8511	0.7668	0.071
Mof_C 	C 	0.038	0.961	0.795	0.091
Mof_H 	H 	0.0185	0.9774	0.8103	-0.018
Mof_C 	C 	0.0688	0.6973	0.663	0.103
Mof_C 	C 	0.0204	0.652	0.6933	0.074
Mof_C 	C 	0.0549	0.7761	0.7171	0.09
Mof_C 	C 	0.8157	0.4092	0.6021	0.074
Mof_H 	H 	0.8219	0.3481	0.5961	-0.009
Mof_C 	C 	0.7871	0.4506	0.5765	-0.132
Mof_H 	H 	0.7732	0.4176	0.5523	0.093
Mof_C 	C 	0.7756	0.5404	0.5822	0.047
Mof_C 	C 	0.7963	0.5827	0.6189	-0.122
Mof_H 	H 	0.7898	0.6433	0.6254	0.083
Mof_C 	C 	0.825	0.5402	0.6448	0.063
Mof_H 	H 	0.8384	0.5713	0.6699	-0.004
Mof_C 	C 	0.6529	0.3923	0.4173	0.094
Mof_H 	H 	0.6565	0.3287	0.4136	-0.03
Mof_C 	C 	0.6765	0.4342	0.4509	-0.146
Mof_H 	H 	0.6969	0.4013	0.4688	0.083
Mof_C 	C 	0.6703	0.5283	0.459	0.068
Mof_C 	C 	0.6426	0.5694	0.4284	-0.147
Mof_H 	H 	0.6387	0.6333	0.4302	0.102
Mof_C 	C 	0.6216	0.5245	0.3974	0.086
Mof_H 	H 	0.6017	0.5569	0.3784	-0.011
Mof_C 	C 	0.7151	0.9588	0.5537	0.095
Mof_H 	H 	0.7329	0.9988	0.5713	-0.013
Mof_C 	C 	0.7233	0.8694	0.5549	-0.138
Mof_H 	H 	0.7476	0.8483	0.5708	0.083
Mof_C 	C 	0.6972	0.8095	0.5336	0.062
Mof_C 	C 	0.6629	0.8437	0.508	-0.105
Mof_H 	H 	0.6445	0.8028	0.4918	0.08
Mof_C 	C 	0.6557	0.9373	0.506	0.041
Mof_H 	H 	0.6324	0.9612	0.4891	-0.003
Mof_C 	C 	0.7436	0.5851	0.5534	0.083
Mof_C 	C 	0.693	0.579	0.4951	0.098
Mof_C 	C 	0.7066	0.7079	0.5313	0.103
Mof_C 	C 	0.593	0.491	0.2716	0.127
Mof_H 	H 	0.612	0.4472	0.2683	-0.05
Mof_C 	C 	0.5901	0.572	0.2472	-0.173
Mof_H 	H 	0.6092	0.5879	0.2313	0.088
Mof_C 	C 	0.5585	0.627	0.2472	0.086
Mof_C 	C 	0.5346	0.6045	0.2718	-0.163
Mof_H 	H 	0.5126	0.6412	0.2727	0.087
Mof_C 	C 	0.542	0.5268	0.2966	0.103
Mof_H 	H 	0.5244	0.5096	0.3143	-0.024
Mof_C 	C 	0.6105	0.887	0.0742	0.12
Mof_H 	H 	0.6032	0.9323	0.0524	-0.038
Mof_C 	C 	0.5885	0.876	0.1047	-0.164
Mof_H 	H 	0.5673	0.9165	0.1042	0.094
Mof_C 	C 	0.595	0.8118	0.1347	0.083
Mof_C 	C 	0.6293	0.7614	0.137	-0.143
Mof_H 	H 	0.6381	0.718	0.1593	0.083
Mof_C 	C 	0.6502	0.7802	0.1033	0.095
Mof_H 	H 	0.673	0.7456	0.1031	-0.05
Mof_C 	C 	0.4368	0.9598	0.2257	0.095
Mof_H 	H 	0.4253	0.9653	0.2502	-0.011
Mof_C 	C 	0.468	0.9052	0.2275	-0.142
Mof_H 	H 	0.4777	0.8719	0.2533	0.085
Mof_C 	C 	0.4864	0.8963	0.1932	0.069
Mof_C 	C 	0.4707	0.9379	0.1559	-0.155
Mof_H 	H 	0.4815	0.9309	0.1309	0.097
Mof_C 	C 	0.4371	0.9929	0.1548	0.136
Mof_H 	H 	0.4252	0.0209	0.1283	-0.05
Mof_C 	C 	0.5531	0.7085	0.2176	0.076
Mof_C 	C 	0.5705	0.7941	0.1645	0.086
Mof_C 	C 	0.5197	0.8333	0.1937	0.099
Mof_C 	C 	0.7142	0.0221	0.0512	0.003
Mof_H 	H 	0.732	0.98	0.0673	0.002
Mof_C 	C 	0.723	0.1185	0.0545	-0.085
Mof_H 	H 	0.7455	0.1402	0.074	0.071
Mof_C 	C 	0.698	0.1786	0.0286	0.043
Mof_C 	C 	0.6641	0.1445	0.0042	-0.111
Mof_H 	H 	0.6455	0.1834	0.987	0.081
Mof_C 	C 	0.6582	0.0516	0.0056	0.058
Mof_H 	H 	0.6342	0.029	0.9898	-0.018
Mof_C 	C 	0.6172	0.4696	0.8961	0.07
Mof_H 	H 	0.5972	0.4392	0.8764	-0.012
Mof_C 	C 	0.6388	0.4193	0.9308	-0.282
Mof_H 	H 	0.6327	0.3577	0.9359	0.145
Mof_C 	C 	0.6697	0.4643	0.9573	0.119
Mof_C 	C 	0.6751	0.5547	0.9508	-0.17
Mof_H 	H 	0.6952	0.5869	0.9696	0.083
Mof_C 	C 	0.6516	0.5996	0.9171	0.081
Mof_H 	H 	0.6554	0.6631	0.9133	-0.021
Mof_C 	C 	0.8134	0.5743	0.1046	0.084
Mof_H 	H 	0.8184	0.6374	0.1014	-0.021
Mof_C 	C 	0.7837	0.535	0.0748	-0.148
Mof_H 	H 	0.7688	0.5696	0.0519	0.097
Mof_C 	C 	0.7768	0.445	0.0796	0.06
Mof_C 	C 	0.8006	0.3963	0.1136	-0.142
Mof_H 	H 	0.7973	0.3327	0.1175	0.09
Mof_C 	C 	0.8292	0.446	0.1412	0.098
Mof_H 	H 	0.8452	0.4145	0.1645	-0.023
Mof_C 	C 	0.7062	0.2771	0.0279	0.111
Mof_C 	C 	0.6937	0.4125	0.9925	0.076
Mof_C 	C 	0.7435	0.3988	0.0486	0.085
Mof_N 	N 	0.138	0.6526	0.5683	-0.3
Mof_N 	N 	0.9244	0.4764	0.6878	-0.3
Mof_N 	N 	0.0707	0.0128	0.7999	-0.301
Mof_N 	N 	0.0414	0.638	0.6615	-0.133
Mof_N 	N 	0.0259	0.7217	0.7205	-0.15
Mof_N 	N 	0.0772	0.7671	0.6891	-0.138
Mof_N 	N 	0.8366	0.4525	0.6372	-0.273
Mof_N 	N 	0.6256	0.4333	0.3896	-0.307
Mof_N 	N 	0.6836	0.9941	0.5294	-0.262
Mof_N 	N 	0.7252	0.5359	0.5195	-0.138
Mof_N 	N 	0.6836	0.6619	0.4991	-0.138
Mof_N 	N 	0.7362	0.6742	0.56	-0.139
Mof_N 	N 	0.5722	0.4762	0.2966	-0.309
Mof_N 	N 	0.6404	0.8392	0.0742	-0.321
Mof_N 	N 	0.4219	0.0069	0.1888	-0.31
Mof_N 	N 	0.5758	0.7179	0.1893	-0.133
Mof_N 	N 	0.5403	0.8522	0.1657	-0.135
Mof_N 	N 	0.5257	0.7688	0.2229	-0.149
Mof_N 	N 	0.6825	0.9912	0.0267	-0.277
Mof_N 	N 	0.6233	0.556	0.8894	-0.276
Mof_N 	N 	0.8351	0.5307	0.137	-0.295
Mof_N 	N 	0.6826	0.3241	0.9972	-0.13
Mof_N 	N 	0.723	0.4535	0.0181	-0.138
Mof_N 	N 	0.737	0.312	0.0555	-0.14
Mof_C 	C 	0.7389	0.154	0.161	0.085
Mof_N 	N 	0.7145	0.0853	0.1702	-0.126
Mof_N 	N 	0.7727	0.122	0.1545	-0.089
Mof_C 	C 	0.7365	0.997	0.1717	0.103
Mof_C 	C 	0.7713	0.029	0.1615	-0.18
Mof_C 	C 	0.7974	0.968	0.1587	-0.046
Mof_H 	H 	0.8214	0.984	0.1516	0.003
Mof_C 	C 	0.7894	0.882	0.1661	-0.174
Mof_H 	H 	0.8087	0.8387	0.1632	0.133
Mof_C 	C 	0.7558	0.846	0.1777	-0.008
Mof_H 	H 	0.7524	0.7836	0.1847	0.012
Mof_C 	C 	0.7275	0.916	0.1775	-0.158
Mof_H 	H 	0.7023	0.9018	0.1818	0.096
Mof_C 	C 	0.7265	0.247	0.1562	0.072
Mof_N 	N 	0.7527	0.319	0.1806	-0.112
Mof_N 	N 	0.6939	0.27	0.1291	-0.114
Mof_C 	C 	0.7294	0.399	0.1635	-0.03
Mof_C 	C 	0.6973	0.369	0.1333	0.088
Mof_C 	C 	0.6715	0.432	0.1105	-0.043
Mof_H 	H 	0.6495	0.4121	0.0898	-0.064
Mof_C 	C 	0.6779	0.5251	0.1179	0.17
Mof_H 	H 	0.6602	0.5684	0.1023	-0.011
Mof_C 	C 	0.71	0.5547	0.1481	-0.226
Mof_H 	H 	0.7143	0.6182	0.1531	0.182
Mof_C 	C 	0.7358	0.491	0.1709	0.107
Mof_H 	H 	0.7577	0.5116	0.1916	0.002
Mof_C 	C 	0.6772	0.099	0.1856	-0.026
Mof_H 	H 	0.6615	0.0426	0.1804	0.041
Mof_H 	H 	0.6622	0.149	0.1688	0.05
Mof_C 	C 	0.685	0.123	0.2339	-0.139
Mof_H 	H 	0.6599	0.1285	0.243	0.075
Mof_H 	H 	0.6995	0.0718	0.2505	0.074
Mof_C 	C 	0.7055	0.201	0.2439	-0.004
Mof_H 	H 	0.6906	0.2559	0.2415	0.045
Mof_C 	C 	0.7481	0.213	0.258	-0.02
Mof_H 	H 	0.763	0.162	0.2702	0.04
Mof_C 	C 	0.7687	0.3	0.2543	-0.146
Mof_H 	H 	0.7915	0.3033	0.2785	0.073
Mof_H 	H 	0.7513	0.3512	0.2573	0.079
Mof_C 	C 	0.7819	0.31	0.2127	0.012
Mof_H 	H 	0.799	0.3636	0.2143	0.032
Mof_H 	H 	0.7971	0.255	0.208	0.047
Mof_C 	C 	0.542	0.512	0.996	-0.099
Mof_H 	H 	0.5179	0.5469	0.9959	0.042
Mof_H 	H 	0.5392	0.478	0.969	0.061
Mof_C 	C 	0.577	0.58	0.0006	0.019
Mof_H 	H 	0.6012	0.5458	0.0034	-0.029
Mof_H 	H 	0.5732	0.6194	0.9747	0.009
Mof_C 	C 	0.577	0.637	0.041	-0.002
Mof_H 	H 	0.552	0.67	0.0384	0.021
Mof_H 	H 	0.598	0.6832	0.0445	-0.047
Mof_C 	C 	0.583	0.574	0.0807	0.032
Mof_H 	H 	0.6097	0.5471	0.0847	0.03
Mof_H 	H 	0.5824	0.6107	0.1067	0.025
Mof_C 	C 	0.554	0.496	0.078	0.083
Mof_H 	H 	0.5627	0.4531	0.1018	0.08
Mof_H 	H 	0.5287	0.5217	0.0805	0.037
Mof_C 	C 	0.549	0.445	0.035	-0.154
Mof_H 	H 	0.5268	0.4026	0.0321	0.071
Mof_H 	H 	0.5726	0.4083	0.0347	0.1
Mof_C 	C 	0.447	0.298	0.791	-0.08
Mof_H 	H 	0.4548	0.3321	0.7671	0.026
Mof_H 	H 	0.4183	0.2914	0.7841	0.05
Mof_C 	C 	0.467	0.204	0.797	-0.079
Mof_H 	H 	0.4951	0.2104	0.8041	0.05
Mof_H 	H 	0.4592	0.167	0.7703	0.037
Mof_C 	C 	0.452	0.158	0.835	-0.088
Mof_H 	H 	0.4241	0.1719	0.8334	0.054
Mof_H 	H 	0.4554	0.0912	0.8349	0.049
Mof_C 	C 	0.477	0.202	0.875	-0.08
Mof_H 	H 	0.4991	0.1607	0.8874	0.045
Mof_H 	H 	0.462	0.2133	0.8974	0.049
Mof_C 	C 	0.4931	0.293	0.861	-0.085
Mof_H 	H 	0.513	0.2801	0.844	0.06
Mof_H 	H 	0.5055	0.3279	0.8872	0.043
Mof_C 	C 	0.46	0.349	0.834	-0.081
Mof_H 	H 	0.4382	0.3544	0.8492	0.047
Mof_H 	H 	0.4691	0.4111	0.8288	0.04
Mof_I 	I 	0.23082	0.7277	0.5436	-0.273
Mof_I 	I 	0.1263	0.6544	0.4497	-0.138
Mof_I 	I 	0.8558	0.4013	0.7543	-0.222
Mof_I 	I 	0.8902	0.229	0.6585	0.021
Mof_Zn	Zn	0.5926	0.376	0.3427	0.648
Mof_I 	I 	0.5332	0.3198	0.3704	0.024
Mof_I 	I 	0.633	0.261	0.3066	-0.35
Mof_Zn	Zn	0.6683	0.8552	0.0221	0.666
Mof_I 	I 	0.72887	0.7601	0.04379	0.05
Mof_I 	I 	0.6193	0.8327	0.95207	-0.541
Mof_I 	I 	0.5305	0.6455	0.8761	-0.029
Mof_I 	I 	0.6225	0.7332	0.8076	-0.191
Mof_Zn	Zn	0.8749	0.6142	0.1834	0.612
Mof_I 	I 	0.8501	0.5984	0.2577	-0.282
Mof_I 	I 	0.8947	0.7314	0.1562	-0.088
Mof_C 	C 	0.6499	0.452	0.094	0.231
Mof_N 	N 	0.6385	0.441	0.1356	-0.127
Mof_N 	N 	0.6785	0.498	0.096	-0.256
Mof_C 	C 	0.6688	0.497	0.1634	-0.037
Mof_C 	C 	0.6943	0.525	0.1379	0.16
Mof_C 	C 	0.7271	0.576	0.156	-0.21
Mof_H 	H 	0.7445	0.5949	0.1385	0.094
Mof_C 	C 	0.7343	0.598	0.2	0.005
Mof_H 	H 	0.7567	0.6325	0.2121	0.017
Mof_C 	C 	0.7089	0.57	0.2253	-0.078
Mof_H 	H 	0.7138	0.5852	0.2551	0.053
Mof_C 	C 	0.6761	0.52	0.2071	-0.021
Mof_H 	H 	0.6587	0.5003	0.2246	0.035
Mof_C 	C 	0.6224	0.41	0.059	0.063
Mof_N 	N 	0.6077	0.457	0.0212	-0.127
Mof_N 	N 	0.6144	0.323	0.0576	-0.113
Mof_C 	C 	0.5815	0.386	0.9882	0.033
Mof_C 	C 	0.5865	0.308	0.0138	0.03
Mof_C 	C 	0.5678	0.228	0.9983	-0.068
Mof_H 	H 	0.5712	0.1744	0.0158	0.052
Mof_C 	C 	0.5442	0.225	0.9572	-0.039
Mof_H 	H 	0.5314	0.1701	0.9466	0.036
Mof_C 	C 	0.5392	0.303	0.9316	-0.012
Mof_H 	H 	0.5231	0.3014	0.9035	0.021
Mof_C 	C 	0.5579	0.384	0.9471	-0.087
Mof_H 	H 	0.5545	0.4371	0.9296	0.053
Mof_C 	C 	0.6009	0.409	0.144	-0.028
Mof_H 	H 	0.5899	0.3618	0.1231	0.037
Mof_H 	H 	0.6051	0.382	0.1737	0.038
Mof_C 	C 	0.574	0.483	0.142	-0.125
Mof_H 	H 	0.5514	0.4626	0.1525	0.06
Mof_H 	H 	0.5867	0.5334	0.1604	0.077
Mof_C 	C 	0.564	0.512	0.103	-0.115
Mof_H 	H 	0.5418	0.475	0.0912	-0.024
Mof_C 	C 	0.567	0.563	0.072	-0.082
Mof_H 	H 	0.5582	0.6179	0.0826	0.054
Mof_C 	C 	0.575	0.604	0.026	-0.208
Mof_H 	H 	0.5501	0.6027	0.0041	0.091
Mof_H 	H 	0.5826	0.6688	0.0305	0.109
Mof_C 	C 	0.605	0.555	0.008	0.101
Mof_H 	H 	0.5984	0.5585	0.9756	0.007
Mof_H 	H 	0.6304	0.5849	0.0177	-0.004
Mof_C 	C 	0.793	0.85	0.1715	0.046
Mof_H 	H 	0.7789	0.8259	0.1928	0.036
Mof_H 	H 	0.8202	0.8266	0.1791	-0.083
Mof_C 	C 	0.7737	0.817	0.1254	-0.128
Mof_H 	H 	0.7767	0.7501	0.1235	0.075
Mof_H 	H 	0.7457	0.8312	0.1198	0.075
Mof_C 	C 	0.792	0.864	0.091	0.035
Mof_H 	H 	0.7753	0.9135	0.0761	0.027
Mof_H 	H 	0.7974	0.8199	0.0693	0.059
Mof_C 	C 	0.831	0.904	0.118	-0.289
Mof_H 	H 	0.8443	0.8581	0.1388	0.123
Mof_H 	H 	0.8483	0.923	0.0989	0.2
Mof_C 	C 	0.819	0.988	0.143	0.095
Mof_H 	H 	0.8425	0.0193	0.1591	-0.028
Mof_H 	H 	0.8042	0.0323	0.1219	0.016
Mof_C 	C 	0.794	0.955	0.174	0.029
Mof_H 	H 	0.8053	0.975	0.2037	0.041
Mof_H 	H 	0.7674	0.9793	0.1653	0.146
Mof_Zn	Zn	0.33028	0.13331	0.4789	1.157
Mof_Zn	Zn	0.62138	0.88658	0.3182	1.162
Mof_Zn	Zn	0.91737	0.12215	0.15834	1.157
Mof_I 	I 	0.2738	0.2174	0.4594	-0.093
Mof_I 	I 	0.37521	0.1442	0.5548	-0.23
Mof_I 	I 	0.64524	0.8788	0.24952	-0.125
Mof_I 	I 	0.59785	0.75577	0.35812	-0.425
Mof_Zn	Zn	0.9181	0.8623	0.6583	0.614
Mof_I 	I 	0.97403	0.8461	0.62191	-0.388
Mof_I 	I 	0.88229	0.7508	0.6937	-0.045
Mof_Zn	Zn	0.8199	0.3504	0.9662	0.667
Mof_I 	I 	0.7575	0.2695	0.9411	-0.515
Mof_I 	I 	0.8685	0.3126	0.0365	0.106
Mof_I 	I 	0.9809	0.1471	0.1261	-0.336
Mof_I 	I 	0.88736	0.2365	0.2002	-0.162
Mof_Zn	Zn	0.6235	0.0868	0.8159	0.632
Mof_I 	I 	0.6483	0.0885	0.7497	-0.085
Mof_I 	I 	0.60465	0.2383	0.8536	-0.342
Mof_C 	C 	0.3501	0.198	0.3943	0.107
Mof_H 	H 	0.3242	0.221	0.3884	-0.024
Mof_C 	C 	0.3713	0.2147	0.3651	-0.175
Mof_H 	H 	0.361	0.2499	0.3401	0.102
Mof_C 	C 	0.4065	0.1815	0.371	0.107
Mof_C 	C 	0.4198	0.129	0.406	-0.17
Mof_H 	H 	0.4451	0.1036	0.4115	0.097
Mof_C 	C 	0.3939	0.114	0.4339	0.121
Mof_H 	H 	0.4013	0.0697	0.4562	-0.044
Mof_C 	C 	0.5626	0.0261	0.2796	0.089
Mof_H 	H 	0.5749	0.0222	0.2556	-0.026
Mof_C 	C 	0.5307	0.0877	0.2764	-0.168
Mof_H 	H 	0.5221	0.1232	0.251	0.078
Mof_C 	C 	0.5138	0.0939	0.3091	0.094
Mof_C 	C 	0.5304	0.044	0.3461	-0.21
Mof_H 	H 	0.5229	0.0546	0.3729	0.108
Mof_C 	C 	0.5572	0.982	0.3424	0.166
Mof_H 	H 	0.5631	0.9383	0.3648	-0.04
Mof_C 	C 	0.4027	0.4866	0.2231	0.057
Mof_H 	H 	0.3799	0.5225	0.2207	-0.011
Mof_C 	C 	0.4068	0.4101	0.2498	-0.111
Mof_H 	H 	0.3865	0.3926	0.2638	0.073
Mof_C 	C 	0.4398	0.3612	0.2557	0.041
Mof_C 	C 	0.4677	0.3866	0.2312	-0.11
Mof_H 	H 	0.4905	0.3511	0.2332	0.062
Mof_C 	C 	0.462	0.461	0.205	0.059
Mof_H 	H 	0.4815	0.4774	0.1897	-0.011
Mof_C 	C 	0.4312	0.1973	0.337	0.102
Mof_C 	C 	0.4796	0.152	0.3067	0.068
Mof_C 	C 	0.4451	0.2761	0.2829	0.096
Mof_C 	C 	0.6843	0.9092	0.3979	0.051
Mof_H 	H 	0.6781	0.8481	0.4039	0
Mof_C 	C 	0.7129	0.9506	0.4235	-0.083
Mof_H 	H 	0.7268	0.9176	0.4477	0.08
Mof_C 	C 	0.7244	0.0404	0.4178	0.004
Mof_C 	C 	0.7037	0.0827	0.3811	-0.09
Mof_H 	H 	0.7102	0.1433	0.3746	0.071
Mof_C 	C 	0.675	0.0402	0.3552	0.025
Mof_H 	H 	0.6616	0.0713	0.3301	0.005
Mof_C 	C 	0.8471	0.8923	0.5827	0.074
Mof_H 	H 	0.8435	0.8287	0.5864	-0.023
Mof_C 	C 	0.8235	0.9342	0.5491	-0.101
Mof_H 	H 	0.8031	0.9013	0.5312	0.072
Mof_C 	C 	0.8297	0.0283	0.541	0.025
Mof_C 	C 	0.8574	0.0694	0.5716	-0.11
Mof_H 	H 	0.8613	0.1333	0.5698	0.089
Mof_C 	C 	0.8784	0.0245	0.6026	0.043
Mof_H 	H 	0.8983	0.0569	0.6216	-0.001
Mof_C 	C 	0.7849	0.4588	0.4463	0.093
Mof_H 	H 	0.7671	0.4988	0.4287	-0.019
Mof_C 	C 	0.7767	0.3694	0.4451	-0.141
Mof_H 	H 	0.7524	0.3483	0.4292	0.083
Mof_C 	C 	0.8028	0.3095	0.4664	0.061
Mof_C 	C 	0.8371	0.3437	0.492	-0.107
Mof_H 	H 	0.8555	0.3028	0.5082	0.078
Mof_C 	C 	0.8443	0.4373	0.494	0.039
Mof_H 	H 	0.8676	0.4612	0.5109	-0.009
Mof_C 	C 	0.7564	0.0851	0.4466	0.093
Mof_C 	C 	0.807	0.079	0.5049	0.107
Mof_C 	C 	0.7934	0.2079	0.4687	0.101
Mof_C 	C 	0.907	0.991	0.7284	0.161
Mof_H 	H 	0.888	0.9472	0.7317	-0.056
Mof_C 	C 	0.9099	0.072	0.7528	-0.208
Mof_H 	H 	0.8908	0.0879	0.7687	0.089
Mof_C 	C 	0.9415	0.127	0.7528	0.091
Mof_C 	C 	0.9654	0.1045	0.7282	-0.164
Mof_H 	H 	0.9874	0.1412	0.7273	0.085
Mof_C 	C 	0.958	0.0268	0.7034	0.084
Mof_H 	H 	0.9756	0.0096	0.6857	-0.026
Mof_C 	C 	0.8895	0.387	0.9258	0.121
Mof_H 	H 	0.8968	0.4323	0.9476	-0.04
Mof_C 	C 	0.9115	0.376	0.8953	-0.164
Mof_H 	H 	0.9327	0.4165	0.8958	0.092
Mof_C 	C 	0.905	0.3118	0.8653	0.078
Mof_C 	C 	0.8707	0.2614	0.863	-0.151
Mof_H 	H 	0.8619	0.218	0.8407	0.079
Mof_C 	C 	0.8498	0.2802	0.8967	0.088
Mof_H 	H 	0.827	0.2456	0.8969	-0.052
Mof_C 	C 	0.0632	0.4598	0.7743	0.061
Mof_H 	H 	0.0747	0.4653	0.7498	-0.007
Mof_C 	C 	0.032	0.4052	0.7725	-0.118
Mof_H 	H 	0.0223	0.3719	0.7467	0.074
Mof_C 	C 	0.0136	0.3963	0.8068	0.044
Mof_C 	C 	0.0293	0.4379	0.8441	-0.119
Mof_H 	H 	0.0185	0.4309	0.8691	0.082
Mof_C 	C 	0.0629	0.4929	0.8452	0.069
Mof_H 	H 	0.0748	0.5209	0.8717	-0.016
Mof_C 	C 	0.9469	0.2085	0.7824	0.07
Mof_C 	C 	0.9295	0.2941	0.8355	0.082
Mof_C 	C 	0.9803	0.3333	0.8063	0.104
Mof_C 	C 	0.7858	0.5221	0.9488	0.068
Mof_H 	H 	0.768	0.48	0.9327	-0.031
Mof_C 	C 	0.777	0.6185	0.9455	-0.118
Mof_H 	H 	0.7545	0.6402	0.926	0.083
Mof_C 	C 	0.802	0.6786	0.9714	0.064
Mof_C 	C 	0.8359	0.6445	0.9958	-0.134
Mof_H 	H 	0.8545	0.6834	0.013	0.089
Mof_C 	C 	0.8418	0.5516	0.9944	0.09
Mof_H 	H 	0.8658	0.529	0.0102	-0.022
Mof_C 	C 	0.8828	0.9696	0.1039	0.104
Mof_H 	H 	0.9028	0.9392	0.1236	-0.021
Mof_C 	C 	0.8612	0.9193	0.0692	-0.318
Mof_H 	H 	0.8673	0.8577	0.0641	0.156
Mof_C 	C 	0.8303	0.9643	0.0427	0.16
Mof_C 	C 	0.8249	0.0547	0.0492	-0.219
Mof_H 	H 	0.8048	0.0869	0.0304	0.096
Mof_C 	C 	0.8484	0.0996	0.0829	0.098
Mof_H 	H 	0.8446	0.1631	0.0867	-0.028
Mof_C 	C 	0.6866	0.0743	0.8954	0.103
Mof_H 	H 	0.6816	0.1374	0.8986	-0.028
Mof_C 	C 	0.7163	0.035	0.9252	-0.196
Mof_H 	H 	0.7312	0.0696	0.9481	0.109
Mof_C 	C 	0.7232	0.945	0.9204	0.1
Mof_C 	C 	0.6994	0.8963	0.8864	-0.171
Mof_H 	H 	0.7027	0.8327	0.8825	0.1
Mof_C 	C 	0.6708	0.946	0.8588	0.136
Mof_H 	H 	0.6548	0.9145	0.8355	-0.032
Mof_C 	C 	0.7938	0.7771	0.9721	0.105
Mof_C 	C 	0.8063	0.9125	0.0075	0.063
Mof_C 	C 	0.7565	0.8988	0.9514	0.076
Mof_N 	N 	0.362	0.1526	0.4317	-0.302
Mof_N 	N 	0.5756	0.9764	0.3122	-0.296
Mof_N 	N 	0.4293	0.5128	0.2001	-0.27
Mof_N 	N 	0.4586	0.138	0.3385	-0.134
Mof_N 	N 	0.4741	0.2217	0.2795	-0.151
Mof_N 	N 	0.4228	0.2671	0.3109	-0.14
Mof_N 	N 	0.6634	0.9525	0.3628	-0.255
Mof_N 	N 	0.8744	0.9333	0.6104	-0.288
Mof_N 	N 	0.8164	0.4941	0.4706	-0.268
Mof_N 	N 	0.7748	0.0359	0.4805	-0.147
Mof_N 	N 	0.8164	0.1619	0.5009	-0.141
Mof_N 	N 	0.7638	0.1742	0.44	-0.142
Mof_N 	N 	0.9278	0.9762	0.7034	-0.304
Mof_N 	N 	0.8596	0.3392	0.9258	-0.322
Mof_N 	N 	0.0781	0.5069	0.8112	-0.279
Mof_N 	N 	0.9242	0.2179	0.8107	-0.139
Mof_N 	N 	0.9597	0.3522	0.8343	-0.137
Mof_N 	N 	0.9743	0.2688	0.7771	-0.15
Mof_N 	N 	0.8175	0.4912	0.9733	-0.308
Mof_N 	N 	0.8767	0.056	0.1106	-0.296
Mof_N 	N 	0.6649	0.0307	0.863	-0.315
Mof_N 	N 	0.8174	0.8241	0.0028	-0.127
Mof_N 	N 	0.777	0.9535	0.9819	-0.129
Mof_N 	N 	0.763	0.812	0.9445	-0.137
Mof_C 	C 	0.7611	0.654	0.839	0.086
Mof_N 	N 	0.7855	0.5853	0.8298	-0.115
Mof_N 	N 	0.7273	0.622	0.8455	-0.103
Mof_C 	C 	0.7635	0.497	0.8283	0.051
Mof_C 	C 	0.7287	0.529	0.8385	-0.09
Mof_C 	C 	0.7026	0.468	0.8413	-0.046
Mof_H 	H 	0.6786	0.484	0.8484	-0.021
Mof_C 	C 	0.7106	0.382	0.8339	-0.153
Mof_H 	H 	0.6913	0.3387	0.8368	0.105
Mof_C 	C 	0.7442	0.346	0.8223	-0.044
Mof_H 	H 	0.7476	0.2836	0.8153	0.023
Mof_C 	C 	0.7725	0.416	0.8225	-0.111
Mof_H 	H 	0.7977	0.4018	0.8182	0.078
Mof_C 	C 	0.7735	0.747	0.8438	0.072
Mof_N 	N 	0.7473	0.819	0.8194	-0.108
Mof_N 	N 	0.8061	0.77	0.8709	-0.115
Mof_C 	C 	0.7706	0.899	0.8365	-0.045
Mof_C 	C 	0.8027	0.869	0.8667	0.093
Mof_C 	C 	0.8285	0.932	0.8895	-0.035
Mof_H 	H 	0.8505	0.9121	0.9102	-0.08
Mof_C 	C 	0.8221	0.0251	0.8821	0.162
Mof_H 	H 	0.8398	0.0684	0.8977	-0.029
Mof_C 	C 	0.79	0.0547	0.8519	-0.245
Mof_H 	H 	0.7857	0.1182	0.8469	0.178
Mof_C 	C 	0.7642	0.991	0.8291	0.163
Mof_H 	H 	0.7423	0.0116	0.8084	-0.027
Mof_C 	C 	0.8228	0.599	0.8144	-0.028
Mof_H 	H 	0.8385	0.5426	0.8196	0.048
Mof_H 	H 	0.8378	0.649	0.8312	0.051
Mof_C 	C 	0.815	0.623	0.7661	-0.139
Mof_H 	H 	0.8401	0.6285	0.757	0.078
Mof_H 	H 	0.8005	0.5718	0.7495	0.079
Mof_C 	C 	0.7945	0.701	0.7561	-0.003
Mof_H 	H 	0.8094	0.7559	0.7585	0.046
Mof_C 	C 	0.7519	0.713	0.742	-0.019
Mof_H 	H 	0.737	0.662	0.7298	0.042
Mof_C 	C 	0.7313	0.8	0.7457	-0.147
Mof_H 	H 	0.7085	0.8033	0.7215	0.076
Mof_H 	H 	0.7487	0.8512	0.7427	0.083
Mof_C 	C 	0.7181	0.81	0.7873	0.011
Mof_H 	H 	0.701	0.8636	0.7857	0.036
Mof_H 	H 	0.7029	0.755	0.792	0.047
Mof_C 	C 	0.958	0.012	0.004	0.261
Mof_H 	H 	0.9821	0.0469	0.0041	-0.07
Mof_H 	H 	0.9608	0.978	0.031	-0.035
Mof_C 	C 	0.923	0.08	0.9994	-1.293
Mof_H 	H 	0.8988	0.0458	0.9966	0.21
Mof_H 	H 	0.9268	0.1194	0.0253	0.401
Mof_C 	C 	0.923	0.137	0.959	0.905
Mof_H 	H 	0.948	0.17	0.9616	-0.204
Mof_H 	H 	0.902	0.1832	0.9555	0.129
Mof_C 	C 	0.917	0.074	0.9193	-0.289
Mof_H 	H 	0.8903	0.0471	0.9153	0.099
Mof_H 	H 	0.9176	0.1107	0.8933	0.049
Mof_C 	C 	0.946	0.996	0.922	-0.068
Mof_H 	H 	0.9373	0.9531	0.8982	-0.061
Mof_H 	H 	0.9713	0.0217	0.9195	0.016
Mof_C 	C 	0.951	0.945	0.965	-0.172
Mof_H 	H 	0.9732	0.9026	0.9679	0.086
Mof_H 	H 	0.9274	0.9083	0.9653	0.116
Mof_C 	C 	0.053	0.798	0.209	-0.106
Mof_H 	H 	0.0452	0.8321	0.2329	0.035
Mof_H 	H 	0.0817	0.7914	0.2159	0.063
Mof_C 	C 	0.033	0.704	0.203	-0.059
Mof_H 	H 	0.0049	0.7104	0.1959	0.044
Mof_H 	H 	0.0408	0.667	0.2297	0.031
Mof_C 	C 	0.048	0.658	0.165	-0.104
Mof_H 	H 	0.0759	0.6719	0.1666	0.062
Mof_H 	H 	0.0446	0.5912	0.1651	0.059
Mof_C 	C 	0.023	0.702	0.125	-0.061
Mof_H 	H 	0.0009	0.6607	0.1126	0.042
Mof_H 	H 	0.038	0.7133	0.1026	0.049
Mof_C 	C 	0.0069	0.793	0.139	-0.11
Mof_H 	H 	0.987	0.7801	0.156	0.068
Mof_H 	H 	0.9945	0.8279	0.1128	0.057
Mof_C 	C 	0.04	0.849	0.166	-0.038
Mof_H 	H 	0.0618	0.8544	0.1508	0.041
Mof_H 	H 	0.0309	0.9111	0.1712	-0.004
Mof_I 	I 	0.26918	0.2277	0.4564	-0.277
Mof_I 	I 	0.3737	0.1544	0.5503	-0.143
Mof_I 	I 	0.6442	0.9013	0.2457	-0.221
Mof_I 	I 	0.6098	0.729	0.3415	0.032
Mof_Zn	Zn	0.9074	0.876	0.6573	0.648
Mof_I 	I 	0.9668	0.8198	0.6296	0.033
Mof_I 	I 	0.867	0.761	0.6934	-0.349
Mof_Zn	Zn	0.8317	0.3552	0.9779	0.666
Mof_I 	I 	0.77113	0.2601	0.95621	0.051
Mof_I 	I 	0.8807	0.3327	0.04793	-0.536
Mof_I 	I 	0.9695	0.1455	0.1239	-0.046
Mof_I 	I 	0.8775	0.2332	0.1924	-0.195
Mof_Zn	Zn	0.6251	0.1142	0.8166	0.613
Mof_I 	I 	0.6499	0.0984	0.7423	-0.288
Mof_I 	I 	0.6053	0.2314	0.8438	-0.088
Mof_C 	C 	0.8501	0.952	0.906	0.247
Mof_N 	N 	0.8615	0.941	0.8644	-0.185
Mof_N 	N 	0.8215	0.998	0.904	-0.241
Mof_C 	C 	0.8312	0.997	0.8366	0.024
Mof_C 	C 	0.8057	0.025	0.8621	0.117
Mof_C 	C 	0.7729	0.076	0.844	-0.178
Mof_H 	H 	0.7555	0.0949	0.8615	0.081
Mof_C 	C 	0.7657	0.098	0.8	-0.032
Mof_H 	H 	0.7433	0.1325	0.7879	0.029
Mof_C 	C 	0.7911	0.07	0.7747	-0.038
Mof_H 	H 	0.7862	0.0852	0.7449	0.036
Mof_C 	C 	0.8239	0.02	0.7929	-0.088
Mof_H 	H 	0.8413	0.0003	0.7754	0.048
Mof_C 	C 	0.8776	0.91	0.941	0.071
Mof_N 	N 	0.8923	0.957	0.9788	-0.16
Mof_N 	N 	0.8856	0.823	0.9424	-0.111
Mof_C 	C 	0.9185	0.886	0.0118	0.031
Mof_C 	C 	0.9135	0.808	0.9862	0.032
Mof_C 	C 	0.9322	0.728	0.0017	-0.068
Mof_H 	H 	0.9288	0.6744	0.9842	0.056
Mof_C 	C 	0.9558	0.725	0.0428	-0.041
Mof_H 	H 	0.9686	0.6701	0.0534	0.04
Mof_C 	C 	0.9608	0.803	0.0684	-0.008
Mof_H 	H 	0.9769	0.8014	0.0965	0.016
Mof_C 	C 	0.9421	0.884	0.0529	-0.082
Mof_H 	H 	0.9455	0.9371	0.0704	0.064
Mof_C 	C 	0.8991	0.909	0.856	0.354
Mof_H 	H 	0.9101	0.8618	0.8769	-0.065
Mof_H 	H 	0.8949	0.882	0.8263	-0.069
Mof_C 	C 	0.926	0.983	0.858	-0.843
Mof_H 	H 	0.9486	0.9626	0.8475	0.292
Mof_H 	H 	0.9133	0.0334	0.8396	0.252
Mof_C 	C 	0.936	0.012	0.897	0.702
Mof_H 	H 	0.9582	0.975	0.9088	-0.101
Mof_C 	C 	0.933	0.063	0.928	-0.438
Mof_H 	H 	0.9418	0.1179	0.9174	0.141
Mof_C 	C 	0.925	0.104	0.974	0.367
Mof_H 	H 	0.9499	0.1027	0.9959	0.19
Mof_H 	H 	0.9174	0.1688	0.9695	-0.653
Mof_C 	C 	0.895	0.055	0.992	0.263
Mof_H 	H 	0.9016	0.0585	0.0244	0.037
Mof_H 	H 	0.8696	0.0849	0.9823	-0.094
Mof_C 	C 	0.707	0.35	0.8285	0.072
Mof_H 	H 	0.7211	0.3259	0.8072	0.035
Mof_H 	H 	0.6798	0.3266	0.8209	-0.074
Mof_C 	C 	0.7263	0.317	0.8746	-0.136
Mof_H 	H 	0.7233	0.2501	0.8765	0.078
Mof_H 	H 	0.7543	0.3312	0.8802	0.078
Mof_C 	C 	0.708	0.364	0.909	0.041
Mof_H 	H 	0.7247	0.4135	0.9239	0.023
Mof_H 	H 	0.7026	0.3199	0.9307	0.058
Mof_C 	C 	0.669	0.404	0.882	-0.292
Mof_H 	H 	0.6557	0.3581	0.8612	0.125
Mof_H 	H 	0.6517	0.423	0.9011	0.196
Mof_C 	C 	0.681	0.488	0.857	0.106
Mof_H 	H 	0.6575	0.5193	0.8409	-0.015
Mof_H 	H 	0.6958	0.5323	0.8781	0.019
Mof_C 	C 	0.706	0.455	0.826	-0
Mof_H 	H 	0.6947	0.475	0.7963	0.04
Mof_H 	H 	0.7326	0.4793	0.8347	0.11
Mof_Zn	Zn	0.83028	0.63331	0.4789	1.16
Mof_Zn	Zn	0.12138	0.38658	0.3182	1.161
Mof_Zn	Zn	0.41737	0.62215	0.15834	1.158
Mof_I 	I 	0.7738	0.7174	0.4594	-0.089
Mof_I 	I 	0.87521	0.6442	0.5548	-0.227
Mof_I 	I 	0.14524	0.3788	0.24952	-0.134
Mof_I 	I 	0.09785	0.25577	0.35812	-0.419
Mof_Zn	Zn	0.4181	0.3623	0.6583	0.614
Mof_I 	I 	0.47403	0.3461	0.62191	-0.387
Mof_I 	I 	0.38229	0.2508	0.6937	-0.049
Mof_Zn	Zn	0.3199	0.8504	0.9662	0.668
Mof_I 	I 	0.2575	0.7695	0.9411	-0.512
Mof_I 	I 	0.3685	0.8126	0.0365	0.114
Mof_I 	I 	0.4809	0.6471	0.1261	-0.324
Mof_I 	I 	0.38736	0.7365	0.2002	-0.161
Mof_Zn	Zn	0.1235	0.5868	0.8159	0.634
Mof_I 	I 	0.1483	0.5885	0.7497	-0.081
Mof_I 	I 	0.10465	0.7383	0.8536	-0.341
Mof_C 	C 	0.8501	0.698	0.3943	0.109
Mof_H 	H 	0.8242	0.721	0.3884	-0.022
Mof_C 	C 	0.8713	0.7147	0.3651	-0.174
Mof_H 	H 	0.861	0.7499	0.3401	0.103
Mof_C 	C 	0.9065	0.6815	0.371	0.109
Mof_C 	C 	0.9198	0.629	0.406	-0.168
Mof_H 	H 	0.9451	0.6036	0.4115	0.099
Mof_C 	C 	0.8939	0.614	0.4339	0.123
Mof_H 	H 	0.9013	0.5697	0.4562	-0.04
Mof_C 	C 	0.0626	0.5261	0.2796	0.107
Mof_H 	H 	0.0749	0.5222	0.2556	-0.026
Mof_C 	C 	0.0307	0.5877	0.2764	-0.164
Mof_H 	H 	0.0221	0.6232	0.251	0.079
Mof_C 	C 	0.0138	0.5939	0.3091	0.083
Mof_C 	C 	0.0304	0.544	0.3461	-0.171
Mof_H 	H 	0.0229	0.5546	0.3729	0.099
Mof_C 	C 	0.0572	0.482	0.3424	0.126
Mof_H 	H 	0.0631	0.4383	0.3648	-0.031
Mof_C 	C 	0.9027	0.9866	0.2231	0.124
Mof_H 	H 	0.8799	0.0225	0.2207	-0.046
Mof_C 	C 	0.9068	0.9101	0.2498	-0.15
Mof_H 	H 	0.8865	0.8926	0.2638	0.089
Mof_C 	C 	0.9398	0.8612	0.2557	0.065
Mof_C 	C 	0.9677	0.8866	0.2312	-0.133
Mof_H 	H 	0.9905	0.8511	0.2332	0.071
Mof_C 	C 	0.962	0.961	0.205	0.091
Mof_H 	H 	0.9815	0.9774	0.1897	-0.018
Mof_C 	C 	0.9312	0.6973	0.337	0.103
Mof_C 	C 	0.9796	0.652	0.3067	0.074
Mof_C 	C 	0.9451	0.7761	0.2829	0.09
Mof_C 	C 	0.1843	0.4092	0.3979	0.074
Mof_H 	H 	0.1781	0.3481	0.4039	-0.009
Mof_C 	C 	0.2129	0.4506	0.4235	-0.132
Mof_H 	H 	0.2268	0.4176	0.4477	0.093
Mof_C 	C 	0.2244	0.5404	0.4178	0.047
Mof_C 	C 	0.2037	0.5827	0.3811	-0.122
Mof_H 	H 	0.2102	0.6433	0.3746	0.083
Mof_C 	C 	0.175	0.5402	0.3552	0.063
Mof_H 	H 	0.1616	0.5713	0.3301	-0.004
Mof_C 	C 	0.3471	0.3923	0.5827	0.094
Mof_H 	H 	0.3435	0.3287	0.5864	-0.03
Mof_C 	C 	0.3235	0.4342	0.5491	-0.146
Mof_H 	H 	0.3031	0.4013	0.5312	0.083
Mof_C 	C 	0.3297	0.5283	0.541	0.068
Mof_C 	C 	0.3574	0.5694	0.5716	-0.147
Mof_H 	H 	0.3613	0.6333	0.5698	0.102
Mof_C 	C 	0.3784	0.5245	0.6026	0.086
Mof_H 	H 	0.3983	0.5569	0.6216	-0.011
Mof_C 	C 	0.2849	0.9588	0.4463	0.095
Mof_H 	H 	0.2671	0.9988	0.4287	-0.013
Mof_C 	C 	0.2767	0.8694	0.4451	-0.138
Mof_H 	H 	0.2524	0.8483	0.4292	0.083
Mof_C 	C 	0.3028	0.8095	0.4664	0.062
Mof_C 	C 	0.3371	0.8437	0.492	-0.105
Mof_H 	H 	0.3555	0.8028	0.5082	0.08
Mof_C 	C 	0.3443	0.9373	0.494	0.041
Mof_H 	H 	0.3676	0.9612	0.5109	-0.003
Mof_C 	C 	0.2564	0.5851	0.4466	0.083
Mof_C 	C 	0.307	0.579	0.5049	0.098
Mof_C 	C 	0.2934	0.7079	0.4687	0.103
Mof_C 	C 	0.407	0.491	0.7284	0.127
Mof_H 	H 	0.388	0.4472	0.7317	-0.05
Mof_C 	C 	0.4099	0.572	0.7528	-0.173
Mof_H 	H 	0.3908	0.5879	0.7687	0.088
Mof_C 	C 	0.4415	0.627	0.7528	0.086
Mof_C 	C 	0.4654	0.6045	0.7282	-0.163
Mof_H 	H 	0.4874	0.6412	0.7273	0.087
Mof_C 	C 	0.458	0.5268	0.7034	0.103
Mof_H 	H 	0.4756	0.5096	0.6857	-0.024
Mof_C 	C 	0.3895	0.887	0.9258	0.12
Mof_H 	H 	0.3968	0.9323	0.9476	-0.038
Mof_C 	C 	0.4115	0.876	0.8953	-0.164
Mof_H 	H 	0.4327	0.9165	0.8958	0.094
Mof_C 	C 	0.405	0.8118	0.8653	0.083
Mof_C 	C 	0.3707	0.7614	0.863	-0.143
Mof_H 	H 	0.3619	0.718	0.8407	0.083
Mof_C 	C 	0.3498	0.7802	0.8967	0.095
Mof_H 	H 	0.327	0.7456	0.8969	-0.05
Mof_C 	C 	0.5632	0.9598	0.7743	0.095
Mof_H 	H 	0.5747	0.9653	0.7498	-0.011
Mof_C 	C 	0.532	0.9052	0.7725	-0.142
Mof_H 	H 	0.5223	0.8719	0.7467	0.085
Mof_C 	C 	0.5136	0.8963	0.8068	0.069
Mof_C 	C 	0.5293	0.9379	0.8441	-0.155
Mof_H 	H 	0.5185	0.9309	0.8691	0.097
Mof_C 	C 	0.5629	0.9929	0.8452	0.136
Mof_H 	H 	0.5748	0.0209	0.8717	-0.05
Mof_C 	C 	0.4469	0.7085	0.7824	0.076
Mof_C 	C 	0.4295	0.7941	0.8355	0.086
Mof_C 	C 	0.4803	0.8333	0.8063	0.099
Mof_C 	C 	0.2858	0.0221	0.9488	0.003
Mof_H 	H 	0.268	0.98	0.9327	0.002
Mof_C 	C 	0.277	0.1185	0.9455	-0.085
Mof_H 	H 	0.2545	0.1402	0.926	0.071
Mof_C 	C 	0.302	0.1786	0.9714	0.043
Mof_C 	C 	0.3359	0.1445	0.9958	-0.111
Mof_H 	H 	0.3545	0.1834	0.013	0.081
Mof_C 	C 	0.3418	0.0516	0.9944	0.058
Mof_H 	H 	0.3658	0.029	0.0102	-0.018
Mof_C 	C 	0.3828	0.4696	0.1039	0.07
Mof_H 	H 	0.4028	0.4392	0.1236	-0.012
Mof_C 	C 	0.3612	0.4193	0.0692	-0.282
Mof_H 	H 	0.3673	0.3577	0.0641	0.145
Mof_C 	C 	0.3303	0.4643	0.0427	0.119
Mof_C 	C 	0.3249	0.5547	0.0492	-0.17
Mof_H 	H 	0.3048	0.5869	0.0304	0.083
Mof_C 	C 	0.3484	0.5996	0.0829	0.081
Mof_H 	H 	0.3446	0.6631	0.0867	-0.021
Mof_C 	C 	0.1866	0.5743	0.8954	0.084
Mof_H 	H 	0.1816	0.6374	0.8986	-0.021
Mof_C 	C 	0.2163	0.535	0.9252	-0.148
Mof_H 	H 	0.2312	0.5696	0.9481	0.097
Mof_C 	C 	0.2232	0.445	0.9204	0.06
Mof_C 	C 	0.1994	0.3963	0.8864	-0.142
Mof_H 	H 	0.2027	0.3327	0.8825	0.09
Mof_C 	C 	0.1708	0.446	0.8588	0.098
Mof_H 	H 	0.1548	0.4145	0.8355	-0.023
Mof_C 	C 	0.2938	0.2771	0.9721	0.111
Mof_C 	C 	0.3063	0.4125	0.0075	0.076
Mof_C 	C 	0.2565	0.3988	0.9514	0.085
Mof_N 	N 	0.862	0.6526	0.4317	-0.3
Mof_N 	N 	0.0756	0.4764	0.3122	-0.3
Mof_N 	N 	0.9293	0.0128	0.2001	-0.301
Mof_N 	N 	0.9586	0.638	0.3385	-0.133
Mof_N 	N 	0.9741	0.7217	0.2795	-0.15
Mof_N 	N 	0.9228	0.7671	0.3109	-0.138
Mof_N 	N 	0.1634	0.4525	0.3628	-0.273
Mof_N 	N 	0.3744	0.4333	0.6104	-0.307
Mof_N 	N 	0.3164	0.9941	0.4706	-0.262
Mof_N 	N 	0.2748	0.5359	0.4805	-0.138
Mof_N 	N 	0.3164	0.6619	0.5009	-0.138
Mof_N 	N 	0.2638	0.6742	0.44	-0.139
Mof_N 	N 	0.4278	0.4762	0.7034	-0.309
Mof_N 	N 	0.3596	0.8392	0.9258	-0.321
Mof_N 	N 	0.5781	0.0069	0.8112	-0.31
Mof_N 	N 	0.4242	0.7179	0.8107	-0.133
Mof_N 	N 	0.4597	0.8522	0.8343	-0.135
Mof_N 	N 	0.4743	0.7688	0.7771	-0.149
Mof_N 	N 	0.3175	0.9912	0.9733	-0.277
Mof_N 	N 	0.3767	0.556	0.1106	-0.276
Mof_N 	N 	0.1649	0.5307	0.863	-0.295
Mof_N 	N 	0.3174	0.3241	0.0028	-0.13
Mof_N 	N 	0.277	0.4535	0.9819	-0.138
Mof_N 	N 	0.263	0.312	0.9445	-0.14
Mof_C 	C 	0.2611	0.154	0.839	0.085
Mof_N 	N 	0.2855	0.0853	0.8298	-0.126
Mof_N 	N 	0.2273	0.122	0.8455	-0.089
Mof_C 	C 	0.2635	0.997	0.8283	0.103
Mof_C 	C 	0.2287	0.029	0.8385	-0.18
Mof_C 	C 	0.2026	0.968	0.8413	-0.046
Mof_H 	H 	0.1786	0.984	0.8484	0.003
Mof_C 	C 	0.2106	0.882	0.8339	-0.174
Mof_H 	H 	0.1913	0.8387	0.8368	0.133
Mof_C 	C 	0.2442	0.846	0.8223	-0.008
Mof_H 	H 	0.2476	0.7836	0.8153	0.012
Mof_C 	C 	0.2725	0.916	0.8225	-0.158
Mof_H 	H 	0.2977	0.9018	0.8182	0.096
Mof_C 	C 	0.2735	0.247	0.8438	0.072
Mof_N 	N 	0.2473	0.319	0.8194	-0.112
Mof_N 	N 	0.3061	0.27	0.8709	-0.114
Mof_C 	C 	0.2706	0.399	0.8365	-0.03
Mof_C 	C 	0.3027	0.369	0.8667	0.088
Mof_C 	C 	0.3285	0.432	0.8895	-0.043
Mof_H 	H 	0.3505	0.4121	0.9102	-0.064
Mof_C 	C 	0.3221	0.5251	0.8821	0.17
Mof_H 	H 	0.3398	0.5684	0.8977	-0.011
Mof_C 	C 	0.29	0.5547	0.8519	-0.226
Mof_H 	H 	0.2857	0.6182	0.8469	0.182
Mof_C 	C 	0.2642	0.491	0.8291	0.107
Mof_H 	H 	0.2423	0.5116	0.8084	0.002
Mof_C 	C 	0.3228	0.099	0.8144	-0.026
Mof_H 	H 	0.3385	0.0426	0.8196	0.041
Mof_H 	H 	0.3378	0.149	0.8312	0.05
Mof_C 	C 	0.315	0.123	0.7661	-0.139
Mof_H 	H 	0.3401	0.1285	0.757	0.075
Mof_H 	H 	0.3005	0.0718	0.7495	0.074
Mof_C 	C 	0.2945	0.201	0.7561	-0.004
Mof_H 	H 	0.3094	0.2559	0.7585	0.045
Mof_C 	C 	0.2519	0.213	0.742	-0.02
Mof_H 	H 	0.237	0.162	0.7298	0.04
Mof_C 	C 	0.2313	0.3	0.7457	-0.146
Mof_H 	H 	0.2085	0.3033	0.7215	0.073
Mof_H 	H 	0.2487	0.3512	0.7427	0.079
Mof_C 	C 	0.2181	0.31	0.7873	0.012
Mof_H 	H 	0.201	0.3636	0.7857	0.032
Mof_H 	H 	0.2029	0.255	0.792	0.047
Mof_C 	C 	0.458	0.512	0.004	-0.099
Mof_H 	H 	0.4821	0.5469	0.0041	0.042
Mof_H 	H 	0.4608	0.478	0.031	0.061
Mof_C 	C 	0.423	0.58	0.9994	0.019
Mof_H 	H 	0.3988	0.5458	0.9966	-0.029
Mof_H 	H 	0.4268	0.6194	0.0253	0.009
Mof_C 	C 	0.423	0.637	0.959	-0.002
Mof_H 	H 	0.448	0.67	0.9616	0.021
Mof_H 	H 	0.402	0.6832	0.9555	-0.047
Mof_C 	C 	0.417	0.574	0.9193	0.032
Mof_H 	H 	0.3903	0.5471	0.9153	0.03
Mof_H 	H 	0.4176	0.6107	0.8933	0.025
Mof_C 	C 	0.446	0.496	0.922	0.083
Mof_H 	H 	0.4373	0.4531	0.8982	0.08
Mof_H 	H 	0.4713	0.5217	0.9195	0.037
Mof_C 	C 	0.451	0.445	0.965	-0.154
Mof_H 	H 	0.4732	0.4026	0.9679	0.071
Mof_H 	H 	0.4274	0.4083	0.9653	0.1
Mof_C 	C 	0.553	0.298	0.209	-0.08
Mof_H 	H 	0.5452	0.3321	0.2329	0.026
Mof_H 	H 	0.5817	0.2914	0.2159	0.05
Mof_C 	C 	0.533	0.204	0.203	-0.079
Mof_H 	H 	0.5049	0.2104	0.1959	0.05
Mof_H 	H 	0.5408	0.167	0.2297	0.037
Mof_C 	C 	0.548	0.158	0.165	-0.088
Mof_H 	H 	0.5759	0.1719	0.1666	0.054
Mof_H 	H 	0.5446	0.0912	0.1651	0.049
Mof_C 	C 	0.523	0.202	0.125	-0.08
Mof_H 	H 	0.5009	0.1607	0.1126	0.045
Mof_H 	H 	0.538	0.2133	0.1026	0.049
Mof_C 	C 	0.5069	0.293	0.139	-0.085
Mof_H 	H 	0.487	0.2801	0.156	0.06
Mof_H 	H 	0.4945	0.3279	0.1128	0.043
Mof_C 	C 	0.54	0.349	0.166	-0.081
Mof_H 	H 	0.5618	0.3544	0.1508	0.047
Mof_H 	H 	0.5309	0.4111	0.1712	0.04
Mof_I 	I 	0.76918	0.7277	0.4564	-0.273
Mof_I 	I 	0.8737	0.6544	0.5503	-0.138
Mof_I 	I 	0.1442	0.4013	0.2457	-0.222
Mof_I 	I 	0.1098	0.229	0.3415	0.021
Mof_Zn	Zn	0.4074	0.376	0.6573	0.648
Mof_I 	I 	0.4668	0.3198	0.6296	0.024
Mof_I 	I 	0.367	0.261	0.6934	-0.35
Mof_Zn	Zn	0.3317	0.8552	0.9779	0.666
Mof_I 	I 	0.27113	0.7601	0.95621	0.05
Mof_I 	I 	0.3807	0.8327	0.04793	-0.541
Mof_I 	I 	0.4695	0.6455	0.1239	-0.029
Mof_I 	I 	0.3775	0.7332	0.1924	-0.191
Mof_Zn	Zn	0.1251	0.6142	0.8166	0.612
Mof_I 	I 	0.1499	0.5984	0.7423	-0.282
Mof_I 	I 	0.1053	0.7314	0.8438	-0.088
Mof_C 	C 	0.3501	0.452	0.906	0.231
Mof_N 	N 	0.3615	0.441	0.8644	-0.127
Mof_N 	N 	0.3215	0.498	0.904	-0.256
Mof_C 	C 	0.3312	0.497	0.8366	-0.037
Mof_C 	C 	0.3057	0.525	0.8621	0.16
Mof_C 	C 	0.2729	0.576	0.844	-0.21
Mof_H 	H 	0.2555	0.5949	0.8615	0.094
Mof_C 	C 	0.2657	0.598	0.8	0.005
Mof_H 	H 	0.2433	0.6325	0.7879	0.017
Mof_C 	C 	0.2911	0.57	0.7747	-0.078
Mof_H 	H 	0.2862	0.5852	0.7449	0.053
Mof_C 	C 	0.3239	0.52	0.7929	-0.021
Mof_H 	H 	0.3413	0.5003	0.7754	0.035
Mof_C 	C 	0.3776	0.41	0.941	0.063
Mof_N 	N 	0.3923	0.457	0.9788	-0.127
Mof_N 	N 	0.3856	0.323	0.9424	-0.113
Mof_C 	C 	0.4185	0.386	0.0118	0.033
Mof_C 	C 	0.4135	0.308	0.9862	0.03
Mof_C 	C 	0.4322	0.228	0.0017	-0.068
Mof_H 	H 	0.4288	0.1744	0.9842	0.052
Mof_C 	C 	0.4558	0.225	0.0428	-0.039
Mof_H 	H 	0.4686	0.1701	0.0534	0.036
Mof_C 	C 	0.4608	0.303	0.0684	-0.012
Mof_H 	H 	0.4769	0.3014	0.0965	0.021
Mof_C 	C 	0.4421	0.384	0.0529	-0.087
Mof_H 	H 	0.4455	0.4371	0.0704	0.053
Mof_C 	C 	0.3991	0.409	0.856	-0.028
Mof_H 	H 	0.4101	0.3618	0.8769	0.037
Mof_H 	H 	0.3949	0.382	0.8263	0.038
Mof_C 	C 	0.426	0.483	0.858	-0.125
Mof_H 	H 	0.4486	0.4626	0.8475	0.06
Mof_H 	H 	0.4133	0.5334	0.8396	0.077
Mof_C 	C 	0.436	0.512	0.897	-0.115
Mof_H 	H 	0.4582	0.475	0.9088	-0.024
Mof_C 	C 	0.433	0.563	0.928	-0.082
Mof_H 	H 	0.4418	0.6179	0.9174	0.054
Mof_C 	C 	0.425	0.604	0.974	-0.208
Mof_H 	H 	0.4499	0.6027	0.9959	0.091
Mof_H 	H 	0.4174	0.6688	0.9695	0.109
Mof_C 	C 	0.395	0.555	0.992	0.101
Mof_H 	H 	0.4016	0.5585	0.0244	0.007
Mof_H 	H 	0.3696	0.5849	0.9823	-0.004
Mof_C 	C 	0.207	0.85	0.8285	0.046
Mof_H 	H 	0.2211	0.8259	0.8072	0.036
Mof_H 	H 	0.1798	0.8266	0.8209	-0.083
Mof_C 	C 	0.2263	0.817	0.8746	-0.128
Mof_H 	H 	0.2233	0.7501	0.8765	0.075
Mof_H 	H 	0.2543	0.8312	0.8802	0.075
Mof_C 	C 	0.208	0.864	0.909	0.035
Mof_H 	H 	0.2247	0.9135	0.9239	0.027
Mof_H 	H 	0.2026	0.8199	0.9307	0.059
Mof_C 	C 	0.169	0.904	0.882	-0.289
Mof_H 	H 	0.1557	0.8581	0.8612	0.123
Mof_H 	H 	0.1517	0.923	0.9011	0.2
Mof_C 	C 	0.181	0.988	0.857	0.095
Mof_H 	H 	0.1575	0.0193	0.8409	-0.028
Mof_H 	H 	0.1958	0.0323	0.8781	0.016
Mof_C 	C 	0.206	0.955	0.826	0.029
Mof_H 	H 	0.1947	0.975	0.7963	0.041
Mof_H 	H 	0.2326	0.9793	0.8347	0.146
_end
