data_functionalizedCrystal
_audit_creation_method	'EQeq! by Chris Wilmer'
_symmetry_space_group_name_H-M	'P1'
_symmetry_Int_Tables_number	1
_symmetry_cell_setting	triclinic
loop_
_symmetry_equiv_pos_as_xyz
  x,y,z
_cell_length_a	11.0483
_cell_length_b	20.7209
_cell_length_c	22.0818
_cell_angle_alpha	115.715
_cell_angle_beta	99.403
_cell_angle_gamma	90.774
loop_
_atom_site_label
_atom_site_type_symbol
_atom_site_fract_x
_atom_site_fract_y
_atom_site_fract_z
_atom_site_charge
Mof_Co	Co	0.8317	0.17147	0.45629	1.165
Mof_Co	Co	0.7512	0.33651	0.57974	1.164
Mof_Co	Co	0.2678	0.67131	0.92495	1.164
Mof_Co	Co	0.1874	0.83654	0.04737	1.165
Mof_N 	N 	0.7932	0.0875	0.3528	-0.241
Mof_N 	N 	0.2247	0.9228	0.1497	-0.242
Mof_O 	O 	0.008	0.8469	0.0492	-0.441
Mof_O 	O 	0.8974	0.7557	0.96	-0.305
Mof_O 	O 	0.4269	0.7441	0.9638	-0.43
Mof_O 	O 	0.3701	0.8358	0.0502	-0.468
Mof_O 	O 	0.6504	0.17	0.4563	-0.47
Mof_O 	O 	0.5944	0.2631	0.5417	-0.427
Mof_O 	O 	0.122	0.2544	0.5428	-0.314
Mof_O 	O 	0.0114	0.1654	0.4522	-0.443
Mof_O 	O 	0.2676	0.6626	0.831	-0.433
Mof_O 	O 	0.172	0.7521	0.8198	-0.307
Mof_O 	O 	0.1734	0.7557	0.5859	-0.431
Mof_O 	O 	0.2524	0.6629	0.5112	-0.476
Mof_O 	O 	0.7546	0.3455	0.6742	-0.44
Mof_O 	O 	0.8396	0.2526	0.6823	-0.301
Mof_O 	O 	0.8103	0.2361	0.909	-0.418
Mof_O 	O 	0.731	0.3286	0.9844	-0.467
Mof_O 	O 	0.8828	0.2535	0.5635	-0.668
Mof_H 	H 	0.9663	0.2749	0.5724	0.22
Mof_H 	H 	0.8785	0.2318	0.5943	0.22
Mof_O 	O 	0.1371	0.754	0.9407	-0.673
Mof_H 	H 	0.1415	0.7753	0.9097	0.221
Mof_H 	H 	0.0536	0.7326	0.9319	0.22
Mof_C 	C 	0.716	0.0329	0.3341	0.119
Mof_H 	H 	0.6752	0.0301	0.3666	-0.028
Mof_C 	C 	0.689	0.9766	0.2669	-0.192
Mof_H 	H 	0.6308	0.9387	0.2563	0.097
Mof_C 	C 	0.7465	0.9774	0.2187	0.123
Mof_C 	C 	0.8283	0.0393	0.2375	-0.166
Mof_H 	H 	0.8675	0.0449	0.2056	0.091
Mof_C 	C 	0.848	0.0927	0.3071	0.102
Mof_H 	H 	0.9032	0.1329	0.3203	0.002
Mof_C 	C 	0.7219	0.9192	0.1473	-0.061
Mof_C 	C 	0.6053	0.8882	0.1154	0.022
Mof_H 	H 	0.5404	0.9055	0.1382	0.034
Mof_C 	C 	0.5802	0.8314	0.0499	-0.12
Mof_C 	C 	0.6799	0.805	0.0164	0.045
Mof_H 	H 	0.6662	0.7661	0.9732	0.038
Mof_C 	C 	0.7977	0.8371	0.0482	-0.108
Mof_C 	C 	0.8187	0.8941	0.113	0.015
Mof_H 	H 	0.8983	0.9158	0.1337	0.04
Mof_C 	C 	0.909	0.8102	0.0156	0.367
Mof_C 	C 	0.4486	0.7999	0.0175	0.405
Mof_C 	C 	0.3117	0.9227	0.1969	0.127
Mof_H 	H 	0.3566	0.8828	0.186	-0.013
Mof_C 	C 	0.342	0.9791	0.2632	-0.206
Mof_H 	H 	0.4107	0.978	0.2933	0.102
Mof_C 	C 	0.2735	0.0341	0.2829	0.148
Mof_C 	C 	0.184	0.0368	0.2337	-0.192
Mof_H 	H 	0.1362	0.0757	0.2441	0.099
Mof_C 	C 	0.164	0.9806	0.1675	0.111
Mof_H 	H 	0.1047	0.9842	0.1342	-0.022
Mof_C 	C 	0.2988	0.0938	0.354	-0.075
Mof_C 	C 	0.4174	0.1209	0.3887	0.033
Mof_H 	H 	0.4834	0.101	0.368	0.031
Mof_C 	C 	0.4396	0.1773	0.4539	-0.133
Mof_C 	C 	0.341	0.2052	0.4858	0.06
Mof_H 	H 	0.3556	0.2431	0.5296	0.032
Mof_C 	C 	0.2218	0.1774	0.4529	-0.119
Mof_C 	C 	0.202	0.1215	0.388	0.027
Mof_H 	H 	0.1218	0.1016	0.3662	0.036
Mof_C 	C 	0.1105	0.2019	0.4868	0.38
Mof_C 	C 	0.571	0.2062	0.4872	0.403
Mof_N 	N 	0.63	0.4219	0.603	-0.271
Mof_C 	C 	0.533	0.424	0.557	-0.227
Mof_H 	H 	0.5191	0.3852	0.5135	0.11
Mof_C 	C 	0.456	0.476	0.5691	0.14
Mof_H 	H 	0.3948	0.4756	0.5342	-0.024
Mof_C 	C 	0.469	0.5303	0.6334	0.129
Mof_C 	C 	0.58	0.5386	0.6806	0.111
Mof_H 	H 	0.6008	0.5796	0.7221	-0.01
Mof_C 	C 	0.655	0.4836	0.6624	-0.213
Mof_H 	H 	0.7281	0.4888	0.6926	0.089
Mof_C 	C 	0.383	0.5871	0.6489	-0.075
Mof_C 	C 	0.346	0.6167	0.712	0.019
Mof_H 	H 	0.3734	0.5987	0.7433	0.036
Mof_C 	C 	0.2708	0.6718	0.7295	-0.105
Mof_C 	C 	0.2322	0.7001	0.685	0.046
Mof_H 	H 	0.1839	0.7386	0.6973	0.037
Mof_C 	C 	0.2664	0.6706	0.6203	-0.118
Mof_C 	C 	0.3448	0.6154	0.605	0.027
Mof_H 	H 	0.3712	0.5976	0.5633	0.029
Mof_C 	C 	0.2264	0.6999	0.568	0.409
Mof_C 	C 	0.2313	0.6995	0.799	0.354
Mof_N 	N 	0.3863	0.5856	0.9017	-0.252
Mof_C 	C 	0.491	0.593	0.8751	0.095
Mof_H 	H 	0.5082	0.6343	0.8701	0.005
Mof_C 	C 	0.565	0.5392	0.8572	-0.151
Mof_H 	H 	0.6325	0.5423	0.8377	0.083
Mof_C 	C 	0.5401	0.4739	0.8685	0.145
Mof_C 	C 	0.44	0.4771	0.8955	-0.214
Mof_H 	H 	0.4186	0.4395	0.9051	0.103
Mof_C 	C 	0.367	0.5334	0.91	0.208
Mof_H 	H 	0.2976	0.5304	0.9277	-0.064
Mof_C 	C 	0.6217	0.4127	0.8504	-0.079
Mof_C 	C 	0.6668	0.388	0.7892	0.024
Mof_H 	H 	0.649	0.4103	0.7606	0.034
Mof_C 	C 	0.7382	0.33	0.7711	-0.119
Mof_C 	C 	0.7685	0.299	0.8148	0.063
Mof_H 	H 	0.8156	0.26	0.8022	0.034
Mof_C 	C 	0.7298	0.3248	0.8777	-0.137
Mof_C 	C 	0.6557	0.3809	0.8938	0.036
Mof_H 	H 	0.6278	0.3979	0.935	0.026
Mof_C 	C 	0.7802	0.3066	0.7041	0.364
Mof_C 	C 	0.7592	0.2933	0.9262	0.397
Mof_C 	C 	0.642	0.473	0.593	0.477
Mof_H 	H 	0.7091	0.4766	0.5733	-0.151
Mof_C 	C 	0.568	0.527	0.606	-0.435
Mof_H 	H 	0.5871	0.5638	0.5947	0.18
Mof_C 	C 	0.444	0.4654	0.647	-0.213
Mof_H 	H 	0.3768	0.4612	0.6661	0.105
Mof_C 	C 	0.528	0.4122	0.6296	0.18
Mof_H 	H 	0.516	0.371	0.6357	-0.026
Mof_C 	C 	0.481	0.5814	0.9478	-0.035
Mof_H 	H 	0.495	0.6185	0.9921	0.044
Mof_C 	C 	0.557	0.526	0.934	-0.043
Mof_H 	H 	0.6176	0.5241	0.9678	0.042
Mof_C 	C 	0.436	0.467	0.8224	-0.04
Mof_H 	H 	0.4167	0.4264	0.7805	0.043
Mof_C 	C 	0.361	0.5225	0.84	-0.049
Mof_H 	H 	0.2889	0.5175	0.8096	0.032
Mof_Co	Co	0.1683	0.82853	0.54371	1.164
Mof_Co	Co	0.2488	0.66349	0.42026	1.163
Mof_Co	Co	0.7322	0.32869	0.07505	1.163
Mof_Co	Co	0.8126	0.16346	0.95263	1.164
Mof_N 	N 	0.2068	0.9125	0.6472	-0.242
Mof_N 	N 	0.7753	0.0772	0.8503	-0.243
Mof_O 	O 	0.992	0.1531	0.9508	-0.441
Mof_O 	O 	0.1026	0.2443	0.04	-0.305
Mof_O 	O 	0.5731	0.2559	0.0362	-0.43
Mof_O 	O 	0.6299	0.1642	0.9498	-0.468
Mof_O 	O 	0.3496	0.83	0.5437	-0.47
Mof_O 	O 	0.4056	0.7369	0.4583	-0.427
Mof_O 	O 	0.878	0.7456	0.4572	-0.314
Mof_O 	O 	0.9886	0.8346	0.5478	-0.443
Mof_O 	O 	0.7324	0.3374	0.169	-0.433
Mof_O 	O 	0.828	0.2479	0.1802	-0.307
Mof_O 	O 	0.8266	0.2443	0.4141	-0.431
Mof_O 	O 	0.7476	0.3371	0.4888	-0.476
Mof_O 	O 	0.2454	0.6545	0.3258	-0.44
Mof_O 	O 	0.1604	0.7474	0.3177	-0.301
Mof_O 	O 	0.1897	0.7639	0.091	-0.418
Mof_O 	O 	0.269	0.6714	0.0156	-0.467
Mof_O 	O 	0.1172	0.7465	0.4365	-0.668
Mof_H 	H 	0.0337	0.7251	0.4276	0.22
Mof_H 	H 	0.1215	0.7682	0.4057	0.22
Mof_O 	O 	0.8629	0.246	0.0593	-0.673
Mof_H 	H 	0.8585	0.2247	0.0903	0.221
Mof_H 	H 	0.9464	0.2674	0.0681	0.22
Mof_C 	C 	0.284	0.9671	0.6659	0.119
Mof_H 	H 	0.3248	0.9699	0.6334	-0.028
Mof_C 	C 	0.311	0.0234	0.7331	-0.192
Mof_H 	H 	0.3692	0.0613	0.7437	0.097
Mof_C 	C 	0.2535	0.0226	0.7813	0.123
Mof_C 	C 	0.1717	0.9607	0.7625	-0.166
Mof_H 	H 	0.1325	0.9551	0.7944	0.091
Mof_C 	C 	0.152	0.9073	0.6929	0.102
Mof_H 	H 	0.0968	0.8671	0.6797	0.002
Mof_C 	C 	0.2781	0.0808	0.8527	-0.061
Mof_C 	C 	0.3947	0.1118	0.8846	0.022
Mof_H 	H 	0.4596	0.0945	0.8618	0.034
Mof_C 	C 	0.4198	0.1686	0.9501	-0.12
Mof_C 	C 	0.3201	0.195	0.9836	0.045
Mof_H 	H 	0.3338	0.2339	0.0268	0.038
Mof_C 	C 	0.2023	0.1629	0.9518	-0.108
Mof_C 	C 	0.1813	0.1059	0.887	0.015
Mof_H 	H 	0.1017	0.0842	0.8663	0.04
Mof_C 	C 	0.091	0.1898	0.9844	0.367
Mof_C 	C 	0.5514	0.2001	0.9825	0.405
Mof_C 	C 	0.6883	0.0773	0.8031	0.127
Mof_H 	H 	0.6434	0.1172	0.814	-0.013
Mof_C 	C 	0.658	0.0209	0.7368	-0.206
Mof_H 	H 	0.5893	0.022	0.7067	0.102
Mof_C 	C 	0.7265	0.9659	0.7171	0.148
Mof_C 	C 	0.816	0.9632	0.7663	-0.192
Mof_H 	H 	0.8638	0.9243	0.7559	0.099
Mof_C 	C 	0.836	0.0194	0.8325	0.111
Mof_H 	H 	0.8953	0.0158	0.8658	-0.022
Mof_C 	C 	0.7012	0.9062	0.646	-0.075
Mof_C 	C 	0.5826	0.8791	0.6113	0.033
Mof_H 	H 	0.5166	0.899	0.632	0.031
Mof_C 	C 	0.5604	0.8227	0.5461	-0.133
Mof_C 	C 	0.659	0.7948	0.5142	0.06
Mof_H 	H 	0.6444	0.7569	0.4704	0.032
Mof_C 	C 	0.7782	0.8226	0.5471	-0.119
Mof_C 	C 	0.798	0.8785	0.612	0.027
Mof_H 	H 	0.8782	0.8984	0.6338	0.036
Mof_C 	C 	0.8895	0.7981	0.5132	0.38
Mof_C 	C 	0.429	0.7938	0.5128	0.403
Mof_N 	N 	0.37	0.5781	0.397	-0.271
Mof_C 	C 	0.467	0.576	0.443	-0.227
Mof_H 	H 	0.4809	0.6148	0.4865	0.11
Mof_C 	C 	0.544	0.524	0.4309	0.14
Mof_H 	H 	0.6052	0.5244	0.4658	-0.024
Mof_C 	C 	0.531	0.4697	0.3666	0.129
Mof_C 	C 	0.42	0.4614	0.3194	0.111
Mof_H 	H 	0.3992	0.4204	0.2779	-0.01
Mof_C 	C 	0.345	0.5164	0.3376	-0.213
Mof_H 	H 	0.2719	0.5112	0.3074	0.089
Mof_C 	C 	0.617	0.4129	0.3511	-0.075
Mof_C 	C 	0.654	0.3833	0.288	0.019
Mof_H 	H 	0.6266	0.4013	0.2567	0.036
Mof_C 	C 	0.7292	0.3282	0.2705	-0.105
Mof_C 	C 	0.7678	0.2999	0.315	0.046
Mof_H 	H 	0.8161	0.2614	0.3027	0.037
Mof_C 	C 	0.7336	0.3294	0.3797	-0.118
Mof_C 	C 	0.6552	0.3846	0.395	0.027
Mof_H 	H 	0.6288	0.4024	0.4367	0.029
Mof_C 	C 	0.7736	0.3001	0.432	0.409
Mof_C 	C 	0.7687	0.3005	0.201	0.354
Mof_N 	N 	0.6137	0.4144	0.0983	-0.252
Mof_C 	C 	0.509	0.407	0.1249	0.095
Mof_H 	H 	0.4918	0.3657	0.1299	0.005
Mof_C 	C 	0.435	0.4608	0.1428	-0.151
Mof_H 	H 	0.3675	0.4577	0.1623	0.083
Mof_C 	C 	0.4599	0.5261	0.1315	0.145
Mof_C 	C 	0.56	0.5229	0.1045	-0.214
Mof_H 	H 	0.5814	0.5605	0.0949	0.103
Mof_C 	C 	0.633	0.4666	0.09	0.208
Mof_H 	H 	0.7024	0.4696	0.0723	-0.064
Mof_C 	C 	0.3783	0.5873	0.1496	-0.079
Mof_C 	C 	0.3332	0.612	0.2108	0.024
Mof_H 	H 	0.351	0.5897	0.2394	0.034
Mof_C 	C 	0.2618	0.67	0.2289	-0.119
Mof_C 	C 	0.2315	0.701	0.1852	0.063
Mof_H 	H 	0.1844	0.74	0.1978	0.034
Mof_C 	C 	0.2702	0.6752	0.1223	-0.137
Mof_C 	C 	0.3443	0.6191	0.1062	0.036
Mof_H 	H 	0.3722	0.6021	0.065	0.026
Mof_C 	C 	0.2198	0.6934	0.2959	0.364
Mof_C 	C 	0.2408	0.7067	0.0738	0.397
Mof_C 	C 	0.358	0.527	0.407	0.477
Mof_H 	H 	0.2909	0.5234	0.4267	-0.151
Mof_C 	C 	0.432	0.473	0.394	-0.435
Mof_H 	H 	0.4129	0.4362	0.4053	0.18
Mof_C 	C 	0.556	0.5346	0.353	-0.213
Mof_H 	H 	0.6232	0.5388	0.3339	0.105
Mof_C 	C 	0.472	0.5878	0.3704	0.18
Mof_H 	H 	0.484	0.629	0.3643	-0.026
Mof_C 	C 	0.519	0.4186	0.0522	-0.035
Mof_H 	H 	0.505	0.3815	0.0079	0.044
Mof_C 	C 	0.443	0.474	0.066	-0.043
Mof_H 	H 	0.3824	0.4759	0.0322	0.042
Mof_C 	C 	0.564	0.533	0.1776	-0.04
Mof_H 	H 	0.5833	0.5736	0.2195	0.043
Mof_C 	C 	0.639	0.4775	0.16	-0.049
Mof_H 	H 	0.7111	0.4825	0.1904	0.032
_end
