# CIF file generated by openbabel 3.1.0, see https://openbabel.org
data_I
_chemical_name_common 'image0'
_cell_length_a 12.874
_cell_length_b 13.079
_cell_length_c 16.471
_cell_angle_alpha 86.193
_cell_angle_beta 85.954
_cell_angle_gamma 80.815
_space_group_name_H-M_alt 'P 1'
_space_group_name_Hall 'P 1'
loop_
    _symmetry_equiv_pos_as_xyz
    x,y,z
loop_
    _atom_site_label
    _atom_site_type_symbol
    _atom_site_fract_x
    _atom_site_fract_y
    _atom_site_fract_z
    _atom_site_occupancy
    Pd1      Pd       0.99808    0.77153    0.98839    1.000
    Cu1      Cu       0.45856    0.23331    0.48954    1.000
    Na1      Na       0.60746    0.39761    0.49518    1.000
    C1       C        0.95110    0.84530    0.16040    1.000
    C2       C        0.87890    0.93090    0.13690    1.000
    C3       C        0.85600    0.95950    0.05660    1.000
    C4       C        0.78390    0.05000    0.03090    1.000
    H1       H        0.75030    0.10370    0.06420    1.000
    C5       C        0.77310    0.04390    0.95050    1.000
    H2       H        0.73030    0.09290    0.91700    1.000
    C6       C        0.83790    0.95020    0.92450    1.000
    C7       C        0.84010    0.91200    0.84710    1.000
    C8       C        0.90500    0.82200    0.82270    1.000
    C9       C        0.91480    0.78700    0.74100    1.000
    H3       H        0.87460    0.81670    0.69670    1.000
    C10      C        0.99220    0.70390    0.73920    1.000
    H4       H        0.01630    0.66420    0.69340    1.000
    C11      C        0.03120    0.68660    0.81940    1.000
    C12      C        0.11540    0.61060    0.84040    1.000
    C13      C        0.15370    0.59470    0.91790    1.000
    C14      C        0.24130    0.51770    0.94010    1.000
    H5       H        0.28410    0.47190    0.90460    1.000
    C15      C        0.25150    0.52230    0.02050    1.000
    H6       H        0.30220    0.48010    0.05240    1.000
    C16      C        0.17070    0.60340    0.04860    1.000
    C17      C        0.15490    0.63070    0.12950    1.000
    C18      C        0.07750    0.71060    0.15650    1.000
    C19      C        0.05610    0.73400    0.24070    1.000
    H7       H        0.09060    0.69880    0.28600    1.000
    C20      C        0.97710    0.81580    0.24290    1.000
    H8       H        0.94490    0.84790    0.29040    1.000
    N1       N        0.01260    0.77850    0.10871    1.000
    N2       N        0.88940    0.90160    0.99009    1.000
    N3       N        0.97660    0.75910    0.86942    1.000
    N4       N        0.11360    0.64760    0.98494    1.000
    C21      C        0.81850    0.99440    0.20210    1.000
    C22      C        0.74290    0.95180    0.25280    1.000
    H9       H        0.73430    0.88170    0.24770    1.000
    C23      C        0.68020    0.01010    0.31040    1.000
    H10      H        0.62780    0.98040    0.34320    1.000
    C24      C        0.69380    0.11230    0.32040    1.000
    C25      C        0.77190    0.15270    0.27230    1.000
    H11      H        0.78400    0.22110    0.27990    1.000
    C26      C        0.83280    0.09520    0.21330    1.000
    H12      H        0.88480    0.12530    0.18020    1.000
    C27      C        0.62430    0.17850    0.37950    1.000
    C28      C        0.77350    0.97450    0.78540    1.000
    C29      C        0.79680    0.07140    0.75820    1.000
    H13      H        0.85300    0.09710    0.78040    1.000
    C30      C        0.73950    0.13100    0.69950    1.000
    H14      H        0.75810    0.19630    0.68070    1.000
    C31      C        0.65490    0.09680    0.66770    1.000
    C32      C        0.63140    0.99850    0.69390    1.000
    H15      H        0.57470    0.97310    0.67210    1.000
    C33      C        0.69120    0.93760    0.75220    1.000
    H16      H        0.67560    0.87060    0.76920    1.000
    C34      C        0.59360    0.16620    0.60500    1.000
    C35      C        0.16500    0.53840    0.77660    1.000
    C36      C        0.26280    0.54510    0.73840    1.000
    H17      H        0.30010    0.59790    0.75220    1.000
    C37      C        0.30780    0.47650    0.68040    1.000
    H18      H        0.37520    0.48260    0.65470    1.000
    C38      C        0.25370    0.39870    0.66010    1.000
    C39      C        0.15560    0.39190    0.69800    1.000
    H19      H        0.11800    0.33930    0.68410    1.000
    C40      C        0.11130    0.46070    0.75590    1.000
    H20      H        0.04390    0.45470    0.78150    1.000
    C41      C        0.30020    0.31950    0.60000    1.000
    C42      C        0.22290    0.57040    0.19140    1.000
    C43      C        0.21030    0.46930    0.21780    1.000
    H21      H        0.16070    0.43620    0.19340    1.000
    C44      C        0.26930    0.41660    0.27910    1.000
    H22      H        0.26040    0.34760    0.29650    1.000
    C45      C        0.34160    0.46490    0.31520    1.000
    C46      C        0.35690    0.56490    0.28820    1.000
    H23      H        0.40710    0.59770    0.31210    1.000
    C47      C        0.29830    0.61600    0.22630    1.000
    H24      H        0.30970    0.68370    0.20720    1.000
    C48      C        0.40290    0.41020    0.38430    1.000
    O1       O        0.54600    0.13943    0.41447    1.000
    O2       O        0.64360    0.26632    0.39121    1.000
    O3       O        0.62200    0.24984    0.58245    1.000
    O4       O        0.51390    0.13401    0.57912    1.000
    O5       O        0.38990    0.33075    0.56703    1.000
    O6       O        0.24960    0.24980    0.58720    1.000
    O7       O        0.39350    0.31452    0.39880    1.000
    O8       O        0.45770    0.45905    0.42226    1.000
    N5       N        0.20550    0.60240    0.50100    1.000
    C49      C        0.14920    0.69430    0.52240    1.000
    H25      H        0.18390    0.73800    0.55140    1.000
    C50      C        0.04500    0.73000    0.50540    1.000
    H26      H        0.00980    0.79500    0.52290    1.000
    C51      C        0.99640    0.67060    0.46420    1.000
    H27      H        0.92540    0.69230    0.45080    1.000
    C52      C        0.05200    0.57370    0.44020    1.000
    H28      H        0.01990    0.53020    0.40890    1.000
    C53      C        0.15450    0.54390    0.46360    1.000
    H29      H        0.18920    0.47650    0.45140    1.000
    Pd2      Pd       0.00192    0.22847    0.01161    1.000
    Cu2      Cu       0.54144    0.76669    0.51046    1.000
    Na2      Na       0.39254    0.60239    0.50482    1.000
    C54      C        0.04890    0.15470    0.83960    1.000
    C55      C        0.12110    0.06910    0.86310    1.000
    C56      C        0.14400    0.04050    0.94340    1.000
    C57      C        0.21610    0.95000    0.96910    1.000
    H30      H        0.24970    0.89630    0.93580    1.000
    C58      C        0.22690    0.95610    0.04950    1.000
    H31      H        0.26970    0.90710    0.08300    1.000
    C59      C        0.16210    0.04980    0.07550    1.000
    C60      C        0.15990    0.08800    0.15290    1.000
    C61      C        0.09500    0.17800    0.17730    1.000
    C62      C        0.08520    0.21300    0.25900    1.000
    H32      H        0.12540    0.18330    0.30330    1.000
    C63      C        0.00780    0.29610    0.26080    1.000
    H33      H        0.98370    0.33580    0.30660    1.000
    C64      C        0.96880    0.31340    0.18060    1.000
    C65      C        0.88460    0.38940    0.15960    1.000
    C66      C        0.84630    0.40530    0.08210    1.000
    C67      C        0.75870    0.48230    0.05990    1.000
    H34      H        0.71590    0.52810    0.09540    1.000
    C68      C        0.74850    0.47770    0.97950    1.000
    H35      H        0.69780    0.51990    0.94760    1.000
    C69      C        0.82930    0.39660    0.95140    1.000
    C70      C        0.84510    0.36930    0.87050    1.000
    C71      C        0.92250    0.28940    0.84350    1.000
    C72      C        0.94390    0.26600    0.75930    1.000
    H36      H        0.90940    0.30120    0.71400    1.000
    C73      C        0.02290    0.18420    0.75710    1.000
    H37      H        0.05510    0.15210    0.70960    1.000
    N6       N        0.98740    0.22150    0.89129    1.000
    N7       N        0.11060    0.09840    0.00991    1.000
    N8       N        0.02340    0.24090    0.13058    1.000
    N9       N        0.88640    0.35240    0.01506    1.000
    C74      C        0.18150    0.00560    0.79790    1.000
    C75      C        0.25710    0.04820    0.74720    1.000
    H38      H        0.26570    0.11830    0.75230    1.000
    C76      C        0.31980    0.98990    0.68960    1.000
    H39      H        0.37220    0.01960    0.65680    1.000
    C77      C        0.30620    0.88770    0.67960    1.000
    C78      C        0.22810    0.84730    0.72770    1.000
    H40      H        0.21600    0.77890    0.72010    1.000
    C79      C        0.16720    0.90480    0.78670    1.000
    H41      H        0.11520    0.87470    0.81980    1.000
    C80      C        0.37570    0.82150    0.62050    1.000
    C81      C        0.22650    0.02550    0.21460    1.000
    C82      C        0.20320    0.92860    0.24180    1.000
    H42      H        0.14700    0.90290    0.21960    1.000
    C83      C        0.26050    0.86900    0.30050    1.000
    H43      H        0.24190    0.80370    0.31930    1.000
    C84      C        0.34510    0.90320    0.33230    1.000
    C85      C        0.36860    0.00150    0.30610    1.000
    H44      H        0.42530    0.02690    0.32790    1.000
    C86      C        0.30880    0.06240    0.24780    1.000
    H45      H        0.32440    0.12940    0.23080    1.000
    C87      C        0.40640    0.83380    0.39500    1.000
    C88      C        0.83500    0.46160    0.22340    1.000
    C89      C        0.73720    0.45490    0.26160    1.000
    H46      H        0.69990    0.40210    0.24780    1.000
    C90      C        0.69220    0.52350    0.31960    1.000
    H47      H        0.62480    0.51740    0.34530    1.000
    C91      C        0.74630    0.60130    0.33990    1.000
    C92      C        0.84440    0.60810    0.30200    1.000
    H48      H        0.88200    0.66070    0.31590    1.000
    C93      C        0.88870    0.53930    0.24410    1.000
    H49      H        0.95610    0.54530    0.21850    1.000
    C94      C        0.69980    0.68050    0.40000    1.000
    C95      C        0.77710    0.42960    0.80860    1.000
    C96      C        0.78970    0.53070    0.78220    1.000
    H50      H        0.83930    0.56380    0.80660    1.000
    C97      C        0.73070    0.58340    0.72090    1.000
    H51      H        0.73960    0.65240    0.70350    1.000
    C98      C        0.65840    0.53510    0.68480    1.000
    C99      C        0.64310    0.43510    0.71180    1.000
    H52      H        0.59290    0.40230    0.68790    1.000
    C100     C        0.70170    0.38400    0.77370    1.000
    H53      H        0.69030    0.31630    0.79280    1.000
    C101     C        0.59710    0.58980    0.61570    1.000
    O9       O        0.45400    0.86057    0.58553    1.000
    O10      O        0.35640    0.73368    0.60879    1.000
    O11      O        0.37800    0.75016    0.41755    1.000
    O12      O        0.48610    0.86599    0.42088    1.000
    O13      O        0.61010    0.66925    0.43297    1.000
    O14      O        0.75040    0.75020    0.41280    1.000
    O15      O        0.60650    0.68548    0.60120    1.000
    O16      O        0.54230    0.54095    0.57774    1.000
    N10      N        0.79450    0.39760    0.49900    1.000
    C102     C        0.85080    0.30570    0.47760    1.000
    H54      H        0.81610    0.26200    0.44860    1.000
    C103     C        0.95500    0.27000    0.49460    1.000
    H55      H        0.99020    0.20500    0.47710    1.000
    C104     C        0.00360    0.32940    0.53580    1.000
    H56      H        0.07460    0.30770    0.54920    1.000
    C105     C        0.94800    0.42630    0.55980    1.000
    H57      H        0.98010    0.46980    0.59110    1.000
    C106     C        0.84550    0.45610    0.53640    1.000
    H58      H        0.81080    0.52350    0.54860    1.000
    Na3      Na       0.50000    0.00000    0.50000    1.000
