data_functionalizedCrystal
_audit_creation_method	'EQeq! by Chris Wilmer'
_symmetry_space_group_name_H-M	'P1'
_symmetry_Int_Tables_number	1
_symmetry_cell_setting	triclinic
loop_
_symmetry_equiv_pos_as_xyz
  x,y,z
_cell_length_a	9.8078
_cell_length_b	13.1867
_cell_length_c	16.7923
_cell_angle_alpha	81.5216
_cell_angle_beta	73.0204
_cell_angle_gamma	68.1683
loop_
_atom_site_label
_atom_site_type_symbol
_atom_site_fract_x
_atom_site_fract_y
_atom_site_fract_z
_atom_site_charge
Mof_La	La	0.63209	0.38801	0.57397	2.14
Mof_La	La	0.59407	0.11199	0.92603	2.114
Mof_La	La	0.36791	0.61199	0.42603	2.141
Mof_La	La	0.40593	0.88801	0.07397	2.115
Mof_Zn	Zn	0.25493	0.10873	0.31575	1.199
Mof_Zn	Zn	0.18193	0.16126	0.5429	1.16
Mof_Zn	Zn	0.67941	0.39127	0.18425	1.199
Mof_Zn	Zn	0.88609	0.33874	0.9571	1.158
Mof_Zn	Zn	0.74507	0.89127	0.68425	1.199
Mof_Zn	Zn	0.81807	0.83874	0.4571	1.16
Mof_Zn	Zn	0.32059	0.60873	0.81575	1.199
Mof_Zn	Zn	0.11391	0.66126	0.0429	1.158
Mof_H 	H 	0.0307	0.1883	0.1833	-0.042
Mof_H 	H 	0.412	0.9349	0.6303	-0.046
Mof_H 	H 	0.4023	0.3117	0.3167	-0.044
Mof_H 	H 	0.9772	0.5651	0.8697	-0.047
Mof_H 	H 	0.9693	0.8117	0.8167	-0.042
Mof_H 	H 	0.588	0.0651	0.3697	-0.046
Mof_H 	H 	0.5977	0.6883	0.6833	-0.044
Mof_H 	H 	0.0228	0.4349	0.1303	-0.047
Mof_C 	C 	0.9868	0.2685	0.4347	0.395
Mof_C 	C 	0.9457	0.2731	0.3557	-0.069
Mof_C 	C 	0.8176	0.3328	0.3268	-0.073
Mof_C 	C 	0.6734	0.4215	0.3571	0.368
Mof_C 	C 	0.9835	0.224	0.2332	0.114
Mof_C 	C 	0.7333	0.1041	0.5943	0.355
Mof_C 	C 	0.5985	0.0851	0.5887	-0.078
Mof_C 	C 	0.4734	0.1452	0.5588	-0.076
Mof_C 	C 	0.4204	0.2544	0.519	0.371
Mof_C 	C 	0.4509	0.9911	0.6125	0.103
Mof_C 	C 	0.69	0.2315	0.0653	0.395
Mof_C 	C 	0.5745	0.2269	0.1443	-0.068
Mof_C 	C 	0.4772	0.1672	0.1732	-0.072
Mof_C 	C 	0.452	0.0785	0.1429	0.367
Mof_C 	C 	0.4407	0.276	0.2668	0.115
Mof_C 	C 	0.4317	0.3959	0.9057	0.353
Mof_C 	C 	0.2723	0.4149	0.9113	-0.075
Mof_C 	C 	0.1774	0.3548	0.9412	-0.075
Mof_C 	C 	0.1938	0.2456	0.981	0.365
Mof_C 	C 	0.0545	0.5089	0.8875	0.103
Mof_C 	C 	0.0132	0.7315	0.5653	0.395
Mof_C 	C 	0.0543	0.7269	0.6443	-0.069
Mof_C 	C 	0.1824	0.6672	0.6732	-0.073
Mof_C 	C 	0.3266	0.5785	0.6429	0.368
Mof_C 	C 	0.0165	0.776	0.7668	0.114
Mof_C 	C 	0.2667	0.8959	0.4057	0.355
Mof_C 	C 	0.4015	0.9149	0.4113	-0.078
Mof_C 	C 	0.5266	0.8548	0.4412	-0.076
Mof_C 	C 	0.5796	0.7456	0.481	0.371
Mof_C 	C 	0.5491	0.0089	0.3875	0.103
Mof_C 	C 	0.31	0.7685	0.9347	0.395
Mof_C 	C 	0.4255	0.7731	0.8557	-0.068
Mof_C 	C 	0.5228	0.8328	0.8268	-0.072
Mof_C 	C 	0.548	0.9215	0.8571	0.367
Mof_C 	C 	0.5593	0.724	0.7332	0.115
Mof_C 	C 	0.5683	0.6041	0.0943	0.353
Mof_C 	C 	0.7277	0.5851	0.0887	-0.075
Mof_C 	C 	0.8226	0.6452	0.0588	-0.075
Mof_C 	C 	0.8062	0.7544	0.019	0.365
Mof_C 	C 	0.9455	0.4911	0.1125	0.103
Mof_C 	C 	0.5346	0.25	0.75	0.279
Mof_C 	C 	0.6934	0.25	0.75	0.212
Mof_C 	C 	0.4654	0.75	0.25	0.279
Mof_C 	C 	0.3066	0.75	0.25	0.212
Mof_N 	N 	0.8457	0.2999	0.2477	-0.247
Mof_N 	N 	0.0486	0.2036	0.296	-0.249
Mof_N 	N 	0.3814	0.0835	0.5739	-0.277
Mof_N 	N 	0.5823	0.988	0.6228	-0.257
Mof_N 	N 	0.3933	0.2001	0.2523	-0.247
Mof_N 	N 	0.5482	0.2964	0.204	-0.25
Mof_N 	N 	0.0388	0.4165	0.9261	-0.276
Mof_N 	N 	0.1931	0.512	0.8772	-0.258
Mof_N 	N 	0.1543	0.7001	0.7523	-0.247
Mof_N 	N 	0.9514	0.7964	0.704	-0.249
Mof_N 	N 	0.6186	0.9165	0.4261	-0.277
Mof_N 	N 	0.4177	0.012	0.3772	-0.257
Mof_N 	N 	0.6067	0.7999	0.7477	-0.247
Mof_N 	N 	0.4518	0.7036	0.796	-0.25
Mof_N 	N 	0.9612	0.5835	0.0739	-0.276
Mof_N 	N 	0.8069	0.488	0.1228	-0.258
Mof_O 	O 	0.9047	0.3335	0.4909	-0.529
Mof_O 	O 	0.1145	0.195	0.4392	-0.609
Mof_O 	O 	0.6391	0.464	0.4272	-0.597
Mof_O 	O 	0.5826	0.4581	0.3111	-0.537
Mof_O 	O 	0.8178	0.0305	0.6343	-0.448
Mof_O 	O 	0.7612	0.1882	0.5614	-0.482
Mof_O 	O 	0.4913	0.319	0.5074	-0.494
Mof_O 	O 	0.2989	0.2788	0.4968	-0.459
Mof_O 	O 	0.4782	0.304	0.6926	-0.437
Mof_O 	O 	0.75114	0.31412	0.6962	-0.445
Mof_O 	O 	0.7291	0.1665	0.0091	-0.522
Mof_O 	O 	0.7487	0.305	0.0608	-0.608
Mof_O 	O 	0.5303	0.036	0.0728	-0.587
Mof_O 	O 	0.3518	0.0419	0.1889	-0.532
Mof_O 	O 	0.4826	0.4695	0.8657	-0.445
Mof_O 	O 	0.5108	0.3118	0.9386	-0.481
Mof_O 	O 	0.3177	0.181	0.9926	-0.494
Mof_O 	O 	0.0745	0.2212	0.0032	-0.452
Mof_O 	O 	0.4748	0.196	0.8074	-0.437
Mof_O 	O 	0.76146	0.18588	0.8038	-0.445
Mof_O 	O 	0.0953	0.6665	0.5091	-0.529
Mof_O 	O 	0.8855	0.805	0.5608	-0.609
Mof_O 	O 	0.3609	0.536	0.5728	-0.597
Mof_O 	O 	0.4174	0.5419	0.6889	-0.537
Mof_O 	O 	0.1822	0.9695	0.3657	-0.448
Mof_O 	O 	0.2388	0.8118	0.4386	-0.482
Mof_O 	O 	0.5087	0.681	0.4926	-0.494
Mof_O 	O 	0.7011	0.7212	0.5032	-0.459
Mof_O 	O 	0.5218	0.696	0.3074	-0.437
Mof_O 	O 	0.24886	0.68588	0.3038	-0.445
Mof_O 	O 	0.2709	0.8335	0.9909	-0.522
Mof_O 	O 	0.2513	0.695	0.9392	-0.608
Mof_O 	O 	0.4697	0.964	0.9272	-0.587
Mof_O 	O 	0.6482	0.9581	0.8111	-0.532
Mof_O 	O 	0.5174	0.5305	0.1343	-0.445
Mof_O 	O 	0.4892	0.6882	0.0614	-0.481
Mof_O 	O 	0.6823	0.819	0.0074	-0.494
Mof_O 	O 	0.9255	0.7788	0.9968	-0.452
Mof_O 	O 	0.5252	0.804	0.1926	-0.437
Mof_O 	O 	0.23854	0.81412	0.1962	-0.445
_end
