# CIF file generated by openbabel 3.1.0, see https://openbabel.org
data_I
_chemical_name_common 'image0'
_cell_length_a 9.032
_cell_length_b 9.032
_cell_length_c 31.322
_cell_angle_alpha 90
_cell_angle_beta 90
_cell_angle_gamma 90
_space_group_name_H-M_alt 'P 1'
_space_group_name_Hall 'P 1'
loop_
    _symmetry_equiv_pos_as_xyz
    x,y,z
loop_
    _atom_site_label
    _atom_site_type_symbol
    _atom_site_fract_x
    _atom_site_fract_y
    _atom_site_fract_z
    _atom_site_occupancy
    N1       N        0.62650    0.61840    0.04515    1.000
    N2       N        0.60700    0.47100    0.04427    1.000
    N3       N        0.32650    0.64060    0.20510    1.000
    N4       N        0.31460    0.49210    0.20437    1.000
    C1       C        0.56230    0.66380    0.08129    1.000
    C2       C        0.50120    0.54420    0.10354    1.000
    C3       C        0.53320    0.42380    0.07870    1.000
    C4       C        0.39490    0.67530    0.16866    1.000
    C5       C        0.42580    0.54960    0.14464    1.000
    C6       C        0.37230    0.43540    0.16901    1.000
    H1       H        0.56000    0.77800    0.09030    1.000
    H2       H        0.63400    0.42100    0.02340    1.000
    H3       H        0.52300    0.33700    0.08290    1.000
    H4       H        0.37200    0.34100    0.16350    1.000
    H5       H        0.28900    0.44800    0.22560    1.000
    H6       H        0.40700    0.78000    0.16190    1.000
    N5       N        0.37350    0.38160    0.54515    1.000
    N6       N        0.39300    0.52900    0.54427    1.000
    N7       N        0.67350    0.35940    0.70510    1.000
    N8       N        0.68540    0.50790    0.70437    1.000
    C7       C        0.43770    0.33620    0.58129    1.000
    C8       C        0.49880    0.45580    0.60354    1.000
    C9       C        0.46680    0.57620    0.57870    1.000
    C10      C        0.60510    0.32470    0.66866    1.000
    C11      C        0.57420    0.45040    0.64464    1.000
    C12      C        0.62770    0.56460    0.66901    1.000
    H7       H        0.44000    0.22200    0.59030    1.000
    H8       H        0.36600    0.57900    0.52340    1.000
    H9       H        0.47700    0.66300    0.58290    1.000
    H10      H        0.62800    0.65900    0.66350    1.000
    H11      H        0.71100    0.55200    0.72560    1.000
    H12      H        0.59300    0.22000    0.66190    1.000
    N9       N        0.88160    0.12650    0.79515    1.000
    N10      N        0.02900    0.10700    0.79427    1.000
    N11      N        0.85940    0.82650    0.95510    1.000
    N12      N        0.00790    0.81460    0.95437    1.000
    C13      C        0.83620    0.06230    0.83129    1.000
    C14      C        0.95580    0.00120    0.85354    1.000
    C15      C        0.07620    0.03320    0.82870    1.000
    C16      C        0.82470    0.89490    0.91866    1.000
    C17      C        0.95040    0.92580    0.89464    1.000
    C18      C        0.06460    0.87230    0.91901    1.000
    H13      H        0.72200    0.06000    0.84030    1.000
    H14      H        0.07900    0.13400    0.77340    1.000
    H15      H        0.16300    0.02300    0.83290    1.000
    H16      H        0.15900    0.87200    0.91350    1.000
    H17      H        0.05200    0.78900    0.97560    1.000
    H18      H        0.72000    0.90700    0.91190    1.000
    N13      N        0.11840    0.87350    0.29515    1.000
    N14      N        0.97100    0.89300    0.29427    1.000
    N15      N        0.14060    0.17350    0.45510    1.000
    N16      N        0.99210    0.18540    0.45437    1.000
    C19      C        0.16380    0.93770    0.33129    1.000
    C20      C        0.04420    0.99880    0.35354    1.000
    C21      C        0.92380    0.96680    0.32870    1.000
    C22      C        0.17530    0.10510    0.41866    1.000
    C23      C        0.04960    0.07420    0.39464    1.000
    C24      C        0.93540    0.12770    0.41901    1.000
    H19      H        0.27800    0.94000    0.34030    1.000
    H20      H        0.92100    0.86600    0.27340    1.000
    H21      H        0.83700    0.97700    0.33290    1.000
    H22      H        0.84100    0.12800    0.41350    1.000
    H23      H        0.94800    0.21100    0.47560    1.000
    H24      H        0.28000    0.09300    0.41190    1.000
    N17      N        0.87350    0.11840    0.70485    1.000
    N18      N        0.89300    0.97100    0.70573    1.000
    N19      N        0.17350    0.14060    0.54490    1.000
    N20      N        0.18540    0.99210    0.54563    1.000
    C25      C        0.93770    0.16380    0.66871    1.000
    C26      C        0.99880    0.04420    0.64646    1.000
    C27      C        0.96680    0.92380    0.67130    1.000
    C28      C        0.10510    0.17530    0.58134    1.000
    C29      C        0.07420    0.04960    0.60536    1.000
    C30      C        0.12770    0.93540    0.58099    1.000
    H25      H        0.94000    0.27800    0.65970    1.000
    H26      H        0.86600    0.92100    0.72660    1.000
    H27      H        0.97700    0.83700    0.66710    1.000
    H28      H        0.12800    0.84100    0.58650    1.000
    H29      H        0.21100    0.94800    0.52440    1.000
    H30      H        0.09300    0.28000    0.58810    1.000
    N21      N        0.12650    0.88160    0.20485    1.000
    N22      N        0.10700    0.02900    0.20573    1.000
    N23      N        0.82650    0.85940    0.04490    1.000
    N24      N        0.81460    0.00790    0.04563    1.000
    C31      C        0.06230    0.83620    0.16871    1.000
    C32      C        0.00120    0.95580    0.14646    1.000
    C33      C        0.03320    0.07620    0.17130    1.000
    C34      C        0.89490    0.82470    0.08134    1.000
    C35      C        0.92580    0.95040    0.10536    1.000
    C36      C        0.87230    0.06460    0.08099    1.000
    H31      H        0.06000    0.72200    0.15970    1.000
    H32      H        0.13400    0.07900    0.22660    1.000
    H33      H        0.02300    0.16300    0.16710    1.000
    H34      H        0.87200    0.15900    0.08650    1.000
    H35      H        0.78900    0.05200    0.02440    1.000
    H36      H        0.90700    0.72000    0.08810    1.000
    N25      N        0.61840    0.62650    0.95485    1.000
    N26      N        0.47100    0.60700    0.95573    1.000
    N27      N        0.64060    0.32650    0.79490    1.000
    N28      N        0.49210    0.31460    0.79563    1.000
    C37      C        0.66380    0.56230    0.91871    1.000
    C38      C        0.54420    0.50120    0.89646    1.000
    C39      C        0.42380    0.53320    0.92130    1.000
    C40      C        0.67530    0.39490    0.83134    1.000
    C41      C        0.54960    0.42580    0.85536    1.000
    C42      C        0.43540    0.37230    0.83099    1.000
    H37      H        0.77800    0.56000    0.90970    1.000
    H38      H        0.42100    0.63400    0.97660    1.000
    H39      H        0.33700    0.52300    0.91710    1.000
    H40      H        0.34100    0.37200    0.83650    1.000
    H41      H        0.44800    0.28900    0.77440    1.000
    H42      H        0.78000    0.40700    0.83810    1.000
    N29      N        0.38160    0.37350    0.45485    1.000
    N30      N        0.52900    0.39300    0.45573    1.000
    N31      N        0.35940    0.67350    0.29490    1.000
    N32      N        0.50790    0.68540    0.29563    1.000
    C43      C        0.33620    0.43770    0.41871    1.000
    C44      C        0.45580    0.49880    0.39646    1.000
    C45      C        0.57620    0.46680    0.42130    1.000
    C46      C        0.32470    0.60510    0.33134    1.000
    C47      C        0.45040    0.57420    0.35536    1.000
    C48      C        0.56460    0.62770    0.33099    1.000
    H43      H        0.22200    0.44000    0.40970    1.000
    H44      H        0.57900    0.36600    0.47660    1.000
    H45      H        0.66300    0.47700    0.41710    1.000
    H46      H        0.65900    0.62800    0.33650    1.000
    H47      H        0.55200    0.71100    0.27440    1.000
    H48      H        0.22000    0.59300    0.33810    1.000
    Cu1      Cu       0.73262    0.73262    0.00000    1.000
    Cu2      Cu       0.26738    0.26738    0.50000    1.000
    Cu3      Cu       0.76738    0.23262    0.75000    1.000
    Cu4      Cu       0.23262    0.76738    0.25000    1.000
