data_functionalizedCrystal
_audit_creation_method	'EQeq! by Chris Wilmer'
_symmetry_space_group_name_H-M	'P1'
_symmetry_Int_Tables_number	1
_symmetry_cell_setting	triclinic
loop_
_symmetry_equiv_pos_as_xyz
  x,y,z
_cell_length_a	10.1604
_cell_length_b	12.0085
_cell_length_c	7.1892
_cell_angle_alpha	90
_cell_angle_beta	90.797
_cell_angle_gamma	90
loop_
_atom_site_label
_atom_site_type_symbol
_atom_site_fract_x
_atom_site_fract_y
_atom_site_fract_z
_atom_site_charge
Mof_Ga	Ga	0.83394	0.13153	0.32426	3.566
Mof_P 	P 	0.11782	0.19412	0.25133	0.83
Mof_O 	O 	0.9748	0.23073	0.2901	-0.975
Mof_O 	O 	0.1939	0.3017	0.209	-1.163
Mof_O 	O 	0.1829	0.1369	0.4218	-1.206
Mof_O 	O 	0.8769	0.8844	0.9132	-0.605
Mof_Ga	Ga	0.33394	0.63153	0.32426	3.388
Mof_P 	P 	0.61782	0.69412	0.25133	0.932
Mof_O 	O 	0.4748	0.73073	0.2901	-1.074
Mof_O 	O 	0.6939	0.8017	0.209	-1.12
Mof_O 	O 	0.6829	0.6369	0.4218	-1.216
Mof_O 	O 	0.3769	0.3844	0.9132	-0.633
Mof_Ga	Ga	0.16606	0.13153	0.67574	3.715
Mof_P 	P 	0.88218	0.19412	0.74867	1.039
Mof_O 	O 	0.0252	0.23073	0.7099	-1.13
Mof_O 	O 	0.8061	0.3017	0.791	-1.016
Mof_O 	O 	0.8171	0.1369	0.5782	-1.154
Mof_O 	O 	0.1231	0.8844	0.0868	-0.959
Mof_Ga	Ga	0.66606	0.63153	0.67574	3.714
Mof_P 	P 	0.38218	0.69412	0.74867	0.928
Mof_O 	O 	0.5252	0.73073	0.7099	-1.028
Mof_O 	O 	0.3061	0.8017	0.791	-0.97
Mof_O 	O 	0.3171	0.6369	0.5782	-1.16
Mof_O 	O 	0.6231	0.3844	0.0868	-0.947
Mof_Ga	Ga	0.16606	0.86847	0.67574	3.344
Mof_P 	P 	0.88218	0.80588	0.74867	1.005
Mof_O 	O 	0.0252	0.76927	0.7099	-1.058
Mof_O 	O 	0.8061	0.6983	0.791	-1.008
Mof_O 	O 	0.8171	0.8631	0.5782	-1.144
Mof_O 	O 	0.1231	0.1156	0.0868	-0.909
Mof_Ga	Ga	0.66606	0.36847	0.67574	3.745
Mof_P 	P 	0.38218	0.30588	0.74867	0.942
Mof_O 	O 	0.5252	0.26927	0.7099	-1.013
Mof_O 	O 	0.3061	0.1983	0.791	-1.004
Mof_O 	O 	0.3171	0.3631	0.5782	-1.173
Mof_O 	O 	0.6231	0.6156	0.0868	-0.944
Mof_Ga	Ga	0.83394	0.86847	0.32426	3.174
Mof_P 	P 	0.11782	0.80588	0.25133	0.81
Mof_O 	O 	0.9748	0.76927	0.2901	-0.914
Mof_O 	O 	0.1939	0.6983	0.209	-1.153
Mof_O 	O 	0.1829	0.8631	0.4218	-1.192
Mof_O 	O 	0.8769	0.1156	0.9132	-0.531
Mof_Ga	Ga	0.33394	0.36847	0.32426	3.413
Mof_P 	P 	0.61782	0.30588	0.25133	0.947
Mof_O 	O 	0.4748	0.26927	0.2901	-1.061
Mof_O 	O 	0.6939	0.1983	0.209	-1.161
Mof_O 	O 	0.6829	0.3631	0.4218	-1.23
Mof_O 	O 	0.3769	0.6156	0.9132	-0.633
Mof_Ga	Ga	-0	0	-0	2.145
Mof_Ga	Ga	0.5	0.5	-0	2.433
Mof_O 	O 	0.8994	1.79884e-33	0.2372	-1.813
Mof_O 	O 	0.3994	0.5	0.2372	-2.014
Mof_O 	O 	0.1006	0	0.7628	-1.805
Mof_O 	O 	0.6006	0.5	0.7628	-1.954
_end
