data_functionalizedCrystal
_audit_creation_method	'EQeq! by Chris Wilmer'
_symmetry_space_group_name_H-M	'P1'
_symmetry_Int_Tables_number	1
_symmetry_cell_setting	triclinic
loop_
_symmetry_equiv_pos_as_xyz
  x,y,z
_cell_length_a	9.6515
_cell_length_b	11.655
_cell_length_c	12.264
_cell_angle_alpha	90
_cell_angle_beta	99.14
_cell_angle_gamma	90
loop_
_atom_site_label
_atom_site_type_symbol
_atom_site_fract_x
_atom_site_fract_y
_atom_site_fract_z
_atom_site_charge
Mof_Tb	Tb	0.71437	0.48614	0.33196	2.124
Mof_Tb	Tb	0.78563	0.98614	0.16804	2.079
Mof_Tb	Tb	0.28563	0.51386	0.66804	2.124
Mof_Tb	Tb	0.21437	0.01386	0.83196	2.079
Mof_C 	C 	0.6979	0.2125	0.2937	0.258
Mof_C 	C 	0.9955	0.5657	0.5004	0.275
Mof_C 	C 	0.5625	0.5001	0.5481	0.288
Mof_C 	C 	0.7993	0.2563	0.2165	0.29
Mof_C 	C 	0.8021	0.7125	0.2063	0.259
Mof_C 	C 	0.5045	0.0657	0.9996	0.262
Mof_C 	C 	0.9375	0.0001	0.9519	0.278
Mof_C 	C 	0.7007	0.7563	0.2835	0.29
Mof_C 	C 	0.3021	0.7875	0.7063	0.258
Mof_C 	C 	0.0045	0.4343	0.4996	0.275
Mof_C 	C 	0.4375	0.4999	0.4519	0.288
Mof_C 	C 	0.2007	0.7437	0.7835	0.29
Mof_C 	C 	0.1979	0.2875	0.7937	0.259
Mof_C 	C 	0.4955	0.9343	0.0004	0.262
Mof_C 	C 	0.0625	0.9999	0.0481	0.278
Mof_C 	C 	0.2993	0.2437	0.7165	0.29
Mof_O 	O 	0.6386	0.2869	0.3437	-0.395
Mof_O 	O 	0.6812	0.1057	0.2979	-0.386
Mof_O 	O 	0.8978	0.6108	0.4351	-0.389
Mof_O 	O 	0.0861	0.6182	0.5668	-0.397
Mof_O 	O 	0.6824	0.4886	0.522	-0.411
Mof_O 	O 	0.5329	0.5115	0.6431	-0.406
Mof_O 	O 	0.8652	0.1818	0.1715	-0.407
Mof_O 	O 	0.8089	0.3618	0.2063	-0.423
Mof_O 	O 	0.8614	0.7869	0.1563	-0.398
Mof_O 	O 	0.8188	0.6057	0.2021	-0.397
Mof_O 	O 	0.6022	0.1108	0.0649	-0.37
Mof_O 	O 	0.4139	0.1182	0.9332	-0.396
Mof_O 	O 	0.8176	0.9886	0.978	-0.393
Mof_O 	O 	0.9671	0.0115	0.8569	-0.398
Mof_O 	O 	0.6348	0.6818	0.3285	-0.416
Mof_O 	O 	0.6911	0.8618	0.2937	-0.421
Mof_O 	O 	0.3614	0.7131	0.6563	-0.395
Mof_O 	O 	0.3188	0.8943	0.7021	-0.386
Mof_O 	O 	0.1022	0.3892	0.5649	-0.389
Mof_O 	O 	0.9139	0.3818	0.4332	-0.397
Mof_O 	O 	0.3176	0.5114	0.478	-0.411
Mof_O 	O 	0.4671	0.4885	0.3569	-0.406
Mof_O 	O 	0.1348	0.8182	0.8285	-0.407
Mof_O 	O 	0.1911	0.6382	0.7937	-0.423
Mof_O 	O 	0.1386	0.2131	0.8437	-0.398
Mof_O 	O 	0.1812	0.3943	0.7979	-0.397
Mof_O 	O 	0.3978	0.8892	0.9351	-0.37
Mof_O 	O 	0.5861	0.8818	0.0668	-0.396
Mof_O 	O 	0.1824	0.0114	0.022	-0.393
Mof_O 	O 	0.0329	0.9885	0.1431	-0.398
Mof_O 	O 	0.3652	0.3182	0.6715	-0.416
Mof_O 	O 	0.3089	0.1382	0.7063	-0.421
_end
