# CIF file generated by openbabel 3.1.0, see https://openbabel.org
data_I
_chemical_name_common 'image0'
_cell_length_a 15.1173
_cell_length_b 16.7483
_cell_length_c 16.9101
_cell_angle_alpha 110.566
_cell_angle_beta 90.03
_cell_angle_gamma 100.933
_space_group_name_H-M_alt 'P 1'
_space_group_name_Hall 'P 1'
loop_
    _symmetry_equiv_pos_as_xyz
    x,y,z
loop_
    _atom_site_label
    _atom_site_type_symbol
    _atom_site_fract_x
    _atom_site_fract_y
    _atom_site_fract_z
    _atom_site_occupancy
    Tb1      Tb       0.56199    0.12357    0.52812    1.000
    Tb2      Tb       0.52200    0.36574    0.64743    1.000
    Tb3      Tb       0.45351    0.47118    0.88233    1.000
    O1       O        0.54340    0.78290    0.46440    1.000
    O2       O        0.62600    0.67980    0.42590    1.000
    O3       O        0.31090    0.93300    0.54000    1.000
    O4       O        0.42130    0.03610    0.53220    1.000
    O5       O        0.43360    0.33600    0.75280    1.000
    O6       O        0.30980    0.36770    0.81300    1.000
    O7       O        0.63300    0.22780    0.47370    1.000
    O8       O        0.58970    0.35490    0.52590    1.000
    O9       O        0.52260    0.50860    0.34410    1.000
    O10      O        0.58950    0.48200    0.22240    1.000
    O11      O        0.49050    0.93840    0.61640    1.000
    O12      O        0.56110    0.07670    0.64210    1.000
    O13      O        0.67570    0.44670    0.69130    1.000
    O14      O        0.58020    0.47380    0.79110    1.000
    O15      O        0.32780    0.53800    0.94130    1.000
    O16      O        0.42260    0.53470    0.03890    1.000
    O17      O        0.41230    0.74370    0.33640    1.000
    O18      O        0.29320    0.80380    0.37330    1.000
    O19      O        0.42380    0.34680    0.92720    1.000
    O20      O        0.48200    0.37990    0.06040    1.000
    N1       N        0.01310    0.01550    0.62050    1.000
    H1       H        0.03400    0.96990    0.58860    1.000
    N2       N        0.91790    0.09960    0.68600    1.000
    N3       N        0.00340    0.14610    0.70290    1.000
    N4       N        0.59890    0.16690    0.07430    1.000
    H2       H        0.57980    0.20860    0.06310    1.000
    N5       N        0.64090    0.04470    0.05910    1.000
    N6       N        0.64900    0.09370    0.14410    1.000
    N7       N        0.03100    0.62270    0.02250    1.000
    H3       H        0.05180    0.58650    0.97850    1.000
    N8       N        0.01850    0.71160    0.14970    1.000
    N9       N        0.93840    0.69690    0.10380    1.000
    C1       C        0.62040    0.75640    0.46910    1.000
    C2       C        0.69830    0.81970    0.51960    1.000
    C3       C        0.78650    0.80520    0.50470    1.000
    H4       H        0.79490    0.75040    0.46670    1.000
    C4       C        0.86050    0.86890    0.54410    1.000
    H5       H        0.91960    0.85800    0.53330    1.000
    C5       C        0.84920    0.94880    0.59950    1.000
    C6       C        0.76360    0.96420    0.61960    1.000
    H6       H        0.75600    0.01820    0.66000    1.000
    C7       C        0.68860    0.89880    0.57930    1.000
    H7       H        0.62970    0.90870    0.59300    1.000
    C8       C        0.92610    0.02140    0.63540    1.000
    C9       C        0.05960    0.09450    0.66510    1.000
    C10      C        0.16000    0.12140    0.66680    1.000
    C11      C        0.20640    0.05880    0.61730    1.000
    H8       H        0.17400    0.00240    0.58390    1.000
    C12      C        0.29860    0.07860    0.61680    1.000
    C13      C        0.34630    0.01160    0.56010    1.000
    C14      C        0.34760    0.16170    0.66460    1.000
    H9       H        0.41160    0.17530    0.66500    1.000
    C15      C        0.29880    0.22560    0.71290    1.000
    C16      C        0.35090    0.31510    0.76210    1.000
    C17      C        0.20680    0.20520    0.71380    1.000
    H10      H        0.17500    0.24810    0.74620    1.000
    C18      C        0.61090    0.29310    0.46550    1.000
    C19      C        0.61090    0.30200    0.38080    1.000
    C20      C        0.62250    0.23180    0.30840    1.000
    H11      H        0.63410    0.17990    0.31330    1.000
    C21      C        0.61650    0.23960    0.22930    1.000
    C22      C        0.62410    0.16610    0.15110    1.000
    C23      C        0.60080    0.31620    0.22260    1.000
    H12      H        0.59990    0.32190    0.16870    1.000
    C24      C        0.58630    0.38440    0.29360    1.000
    C25      C        0.56350    0.46430    0.28640    1.000
    C26      C        0.59070    0.37540    0.37310    1.000
    H13      H        0.57940    0.42090    0.42210    1.000
    C27      C        0.60990    0.08910    0.01880    1.000
    C28      C        0.58910    0.06680    0.92830    1.000
    C29      C        0.57860    0.98260    0.87110    1.000
    H14      H        0.58710    0.93740    0.89030    1.000
    C30      C        0.55610    0.96320    0.78660    1.000
    H15      H        0.54350    0.90430    0.74890    1.000
    C31      C        0.55170    0.02970    0.75590    1.000
    C32      C        0.53230    0.01380    0.66480    1.000
    C33      C        0.56440    0.11360    0.81300    1.000
    H16      H        0.56230    0.15990    0.79330    1.000
    C34      C        0.58000    0.13190    0.89840    1.000
    H17      H        0.58450    0.18980    0.93710    1.000
    C35      C        0.66190    0.48370    0.76620    1.000
    C36      C        0.74080    0.53480    0.83120    1.000
    C37      C        0.82740    0.52160    0.81250    1.000
    H18      H        0.83910    0.48790    0.75680    1.000
    C38      C        0.89640    0.55810    0.87620    1.000
    H19      H        0.95580    0.54880    0.86400    1.000
    C39      C        0.87980    0.60870    0.95820    1.000
    C40      C        0.79300    0.62580    0.97510    1.000
    H20      H        0.78190    0.66270    0.02970    1.000
    C41      C        0.72310    0.58830    0.91130    1.000
    H21      H        0.66410    0.59910    0.92230    1.000
    C42      C        0.95220    0.64290    0.02680    1.000
    C43      C        0.07550    0.66940    0.10050    1.000
    C44      C        0.16680    0.66730    0.12510    1.000
    C45      C        0.21690    0.61930    0.06390    1.000
    H22      H        0.19080    0.58760    0.00790    1.000
    C46      C        0.30580    0.61810    0.08540    1.000
    C47      C        0.35260    0.56050    0.01820    1.000
    C48      C        0.34440    0.66370    0.16620    1.000
    H23      H        0.40560    0.66410    0.17950    1.000
    C49      C        0.29300    0.71010    0.22940    1.000
    C50      C        0.33360    0.75630    0.31730    1.000
    C51      C        0.20480    0.71300    0.20750    1.000
    H24      H        0.17070    0.74620    0.24900    1.000
    C52      C        0.44820    0.32720    0.98700    1.000
    H25      H        0.44110    0.26680    0.97720    1.000
    Tb4      Tb       0.43801    0.87643    0.47188    1.000
    Tb5      Tb       0.47800    0.63426    0.35257    1.000
    Tb6      Tb       0.54649    0.52882    0.11767    1.000
    O21      O        0.45660    0.21710    0.53560    1.000
    O22      O        0.37400    0.32020    0.57410    1.000
    O23      O        0.68910    0.06700    0.46000    1.000
    O24      O        0.57870    0.96390    0.46780    1.000
    O25      O        0.56640    0.66400    0.24720    1.000
    O26      O        0.69020    0.63230    0.18700    1.000
    O27      O        0.36700    0.77220    0.52630    1.000
    O28      O        0.41030    0.64510    0.47410    1.000
    O29      O        0.47740    0.49140    0.65590    1.000
    O30      O        0.41050    0.51800    0.77760    1.000
    O31      O        0.50950    0.06160    0.38360    1.000
    O32      O        0.43890    0.92330    0.35790    1.000
    O33      O        0.32430    0.55330    0.30870    1.000
    O34      O        0.41980    0.52620    0.20890    1.000
    O35      O        0.67220    0.46200    0.05870    1.000
    O36      O        0.57740    0.46530    0.96110    1.000
    O37      O        0.58770    0.25630    0.66360    1.000
    O38      O        0.70680    0.19620    0.62670    1.000
    O39      O        0.57620    0.65320    0.07280    1.000
    O40      O        0.51800    0.62010    0.93960    1.000
    N10      N        0.98690    0.98450    0.37950    1.000
    H26      H        0.96600    0.03010    0.41140    1.000
    N11      N        0.08210    0.90040    0.31400    1.000
    N12      N        0.99660    0.85390    0.29710    1.000
    N13      N        0.40110    0.83310    0.92570    1.000
    H27      H        0.42020    0.79140    0.93690    1.000
    N14      N        0.35910    0.95530    0.94090    1.000
    N15      N        0.35100    0.90630    0.85590    1.000
    N16      N        0.96900    0.37730    0.97750    1.000
    H28      H        0.94820    0.41350    0.02150    1.000
    N17      N        0.98150    0.28840    0.85030    1.000
    N18      N        0.06160    0.30310    0.89620    1.000
    C53      C        0.37960    0.24360    0.53090    1.000
    C54      C        0.30170    0.18030    0.48040    1.000
    C55      C        0.21350    0.19480    0.49530    1.000
    H29      H        0.20510    0.24960    0.53330    1.000
    C56      C        0.13950    0.13110    0.45590    1.000
    H30      H        0.08040    0.14200    0.46670    1.000
    C57      C        0.15080    0.05120    0.40050    1.000
    C58      C        0.23640    0.03580    0.38040    1.000
    H31      H        0.24400    0.98180    0.34000    1.000
    C59      C        0.31140    0.10120    0.42070    1.000
    H32      H        0.37030    0.09130    0.40700    1.000
    C60      C        0.07390    0.97860    0.36460    1.000
    C61      C        0.94040    0.90550    0.33490    1.000
    C62      C        0.84000    0.87860    0.33320    1.000
    C63      C        0.79360    0.94120    0.38270    1.000
    H33      H        0.82600    0.99760    0.41610    1.000
    C64      C        0.70140    0.92140    0.38320    1.000
    C65      C        0.65370    0.98840    0.43990    1.000
    C66      C        0.65240    0.83830    0.33540    1.000
    H34      H        0.58840    0.82470    0.33500    1.000
    C67      C        0.70120    0.77440    0.28710    1.000
    C68      C        0.64910    0.68490    0.23790    1.000
    C69      C        0.79320    0.79480    0.28620    1.000
    H35      H        0.82500    0.75190    0.25380    1.000
    C70      C        0.38910    0.70690    0.53450    1.000
    C71      C        0.38910    0.69800    0.61920    1.000
    C72      C        0.37750    0.76820    0.69160    1.000
    H36      H        0.36590    0.82010    0.68670    1.000
    C73      C        0.38350    0.76040    0.77070    1.000
    C74      C        0.37590    0.83390    0.84890    1.000
    C75      C        0.39920    0.68380    0.77740    1.000
    H37      H        0.40010    0.67810    0.83130    1.000
    C76      C        0.41370    0.61560    0.70640    1.000
    C77      C        0.43650    0.53570    0.71360    1.000
    C78      C        0.40930    0.62460    0.62690    1.000
    H38      H        0.42060    0.57910    0.57790    1.000
    C79      C        0.39010    0.91090    0.98120    1.000
    C80      C        0.41090    0.93320    0.07170    1.000
    C81      C        0.42140    0.01740    0.12890    1.000
    H39      H        0.41290    0.06260    0.10970    1.000
    C82      C        0.44390    0.03680    0.21340    1.000
    H40      H        0.45650    0.09570    0.25110    1.000
    C83      C        0.44830    0.97030    0.24410    1.000
    C84      C        0.46770    0.98620    0.33520    1.000
    C85      C        0.43560    0.88640    0.18700    1.000
    H41      H        0.43770    0.84010    0.20670    1.000
    C86      C        0.42000    0.86810    0.10160    1.000
    H42      H        0.41550    0.81020    0.06290    1.000
    C87      C        0.33810    0.51630    0.23380    1.000
    C88      C        0.25920    0.46520    0.16880    1.000
    C89      C        0.17260    0.47840    0.18750    1.000
    H43      H        0.16090    0.51210    0.24320    1.000
    C90      C        0.10360    0.44190    0.12380    1.000
    H44      H        0.04420    0.45120    0.13600    1.000
    C91      C        0.12020    0.39130    0.04180    1.000
    C92      C        0.20700    0.37420    0.02490    1.000
    H45      H        0.21810    0.33730    0.97030    1.000
    C93      C        0.27690    0.41170    0.08870    1.000
    H46      H        0.33590    0.40090    0.07770    1.000
    C94      C        0.04780    0.35710    0.97320    1.000
    C95      C        0.92450    0.33060    0.89950    1.000
    C96      C        0.83320    0.33270    0.87490    1.000
    C97      C        0.78310    0.38070    0.93610    1.000
    H47      H        0.80920    0.41240    0.99210    1.000
    C98      C        0.69420    0.38190    0.91460    1.000
    C99      C        0.64740    0.43950    0.98180    1.000
    C100     C        0.65560    0.33630    0.83380    1.000
    H48      H        0.59440    0.33590    0.82050    1.000
    C101     C        0.70700    0.28990    0.77060    1.000
    C102     C        0.66640    0.24370    0.68270    1.000
    C103     C        0.79520    0.28700    0.79250    1.000
    H49      H        0.82930    0.25380    0.75100    1.000
    C104     C        0.55180    0.67280    0.01300    1.000
    H50      H        0.55890    0.73320    0.02280    1.000
