# CIF file generated by openbabel 3.1.0, see https://openbabel.org
data_I
_chemical_name_common 'image0'
_cell_length_a 10.8778
_cell_length_b 15.1518
_cell_length_c 11.6221
_cell_angle_alpha 90
_cell_angle_beta 96.249
_cell_angle_gamma 90
_space_group_name_H-M_alt 'P 1'
_space_group_name_Hall 'P 1'
loop_
    _symmetry_equiv_pos_as_xyz
    x,y,z
loop_
    _atom_site_label
    _atom_site_type_symbol
    _atom_site_fract_x
    _atom_site_fract_y
    _atom_site_fract_z
    _atom_site_occupancy
    Zn1      Zn       0.25483    0.01240    0.49878    1.000
    C1       C        0.41020    0.17550    0.26230    1.000
    C2       C        0.53640    0.16990    0.29820    1.000
    C3       C        0.61760    0.22260    0.24510    1.000
    H1       H        0.70190    0.21740    0.26810    1.000
    C4       C        0.57850    0.28280    0.15900    1.000
    C5       C        0.45140    0.28930    0.12490    1.000
    C6       C        0.37000    0.23520    0.17440    1.000
    H2       H        0.28610    0.23850    0.14880    1.000
    C7       C        0.31500    0.12180    0.31590    1.000
    C8       C        0.59200    0.11440    0.39950    1.000
    C9       C        0.67170    0.34180    0.11190    1.000
    C10      C        0.39530    0.35560    0.03730    1.000
    O1       O        0.35770    0.06210    0.38760    1.000
    O2       O        0.20450    0.13770    0.29080    1.000
    O3       O        0.63560    0.03970    0.37360    1.000
    O4       O        0.60090    0.14740    0.49710    1.000
    O5       O        0.63060    0.41200    0.06300    1.000
    O6       O        0.78140    0.32100    0.12360    1.000
    O7       O        0.35750    0.42590    0.08380    1.000
    O8       O        0.38180    0.33740    0.93400    1.000
    Zn2      Zn       0.24517    0.51240    0.00122    1.000
    C11      C        0.08980    0.67550    0.23770    1.000
    C12      C        0.96360    0.66990    0.20180    1.000
    C13      C        0.88240    0.72260    0.25490    1.000
    H3       H        0.79810    0.71740    0.23190    1.000
    C14      C        0.92150    0.78280    0.34100    1.000
    C15      C        0.04860    0.78930    0.37510    1.000
    C16      C        0.13000    0.73520    0.32560    1.000
    H4       H        0.21390    0.73850    0.35120    1.000
    C17      C        0.18500    0.62180    0.18410    1.000
    C18      C        0.90800    0.61440    0.10050    1.000
    C19      C        0.82830    0.84180    0.38810    1.000
    C20      C        0.10470    0.85560    0.46270    1.000
    O9       O        0.14230    0.56210    0.11240    1.000
    O10      O        0.29550    0.63770    0.20920    1.000
    O11      O        0.86440    0.53970    0.12640    1.000
    O12      O        0.89910    0.64740    0.00290    1.000
    O13      O        0.86940    0.91200    0.43700    1.000
    O14      O        0.71860    0.82100    0.37640    1.000
    O15      O        0.14250    0.92590    0.41620    1.000
    O16      O        0.11820    0.83740    0.56600    1.000
    Zn3      Zn       0.74517    0.98760    0.50122    1.000
    C21      C        0.58980    0.82450    0.73770    1.000
    C22      C        0.46360    0.83010    0.70180    1.000
    C23      C        0.38240    0.77740    0.75490    1.000
    H5       H        0.29810    0.78260    0.73190    1.000
    C24      C        0.42150    0.71720    0.84100    1.000
    C25      C        0.54860    0.71070    0.87510    1.000
    C26      C        0.63000    0.76480    0.82560    1.000
    H6       H        0.71390    0.76150    0.85120    1.000
    C27      C        0.68500    0.87820    0.68410    1.000
    C28      C        0.40800    0.88560    0.60050    1.000
    C29      C        0.32830    0.65820    0.88810    1.000
    C30      C        0.60470    0.64440    0.96270    1.000
    O17      O        0.64230    0.93790    0.61240    1.000
    O18      O        0.79550    0.86230    0.70920    1.000
    O19      O        0.36440    0.96030    0.62640    1.000
    O20      O        0.39910    0.85260    0.50290    1.000
    O21      O        0.36940    0.58800    0.93700    1.000
    O22      O        0.21860    0.67900    0.87640    1.000
    O23      O        0.64250    0.57410    0.91620    1.000
    O24      O        0.61820    0.66260    0.06600    1.000
    Zn4      Zn       0.75483    0.48760    0.99878    1.000
    C31      C        0.91020    0.32450    0.76230    1.000
    C32      C        0.03640    0.33010    0.79820    1.000
    C33      C        0.11760    0.27740    0.74510    1.000
    H7       H        0.20190    0.28260    0.76810    1.000
    C34      C        0.07850    0.21720    0.65900    1.000
    C35      C        0.95140    0.21070    0.62490    1.000
    C36      C        0.87000    0.26480    0.67440    1.000
    H8       H        0.78610    0.26150    0.64880    1.000
    C37      C        0.81500    0.37820    0.81590    1.000
    C38      C        0.09200    0.38560    0.89950    1.000
    C39      C        0.17170    0.15820    0.61190    1.000
    C40      C        0.89530    0.14440    0.53730    1.000
    O25      O        0.85770    0.43790    0.88760    1.000
    O26      O        0.70450    0.36230    0.79080    1.000
    O27      O        0.13560    0.46030    0.87360    1.000
    O28      O        0.10090    0.35260    0.99710    1.000
    O29      O        0.13060    0.08800    0.56300    1.000
    O30      O        0.28140    0.17900    0.62360    1.000
    O31      O        0.85750    0.07410    0.58380    1.000
    O32      O        0.88180    0.16260    0.43400    1.000
