data_functionalizedCrystal
_audit_creation_method	'EQeq! by Chris Wilmer'
_symmetry_space_group_name_H-M	'P1'
_symmetry_Int_Tables_number	1
_symmetry_cell_setting	triclinic
loop_
_symmetry_equiv_pos_as_xyz
  x,y,z
_cell_length_a	10.0358
_cell_length_b	15.9728
_cell_length_c	21.559
_cell_angle_alpha	98.333
_cell_angle_beta	93.782
_cell_angle_gamma	107.759
loop_
_atom_site_label
_atom_site_type_symbol
_atom_site_fract_x
_atom_site_fract_y
_atom_site_fract_z
_atom_site_charge
Mof_Cu	Cu	0.37353	0.29995	0.54186	0.913
Mof_Cu	Cu	0.04994	0.40772	0.63307	0.929
Mof_Cu	Cu	0.93344	0.58657	0.79864	0.854
Mof_Cu	Cu	0.62647	0.70005	0.45814	0.913
Mof_Cu	Cu	0.95006	0.59228	0.36693	0.929
Mof_Cu	Cu	0.06656	0.41343	0.20136	0.854
Mof_H 	H 	0.8796	0.5723	0.5685	0.03
Mof_H 	H 	0.1502	0.2057	0.443	-0.007
Mof_H 	H 	0.9269	0.106	0.429	0.1
Mof_H 	H 	0.9721	0.0839	0.609	0.105
Mof_H 	H 	0.1923	0.1854	0.6181	-0.008
Mof_H 	H 	0.7504	0.9914	0.5463	0.07
Mof_H 	H 	0.7277	0.0146	0.4261	0.05
Mof_H 	H 	0.5164	0.9397	0.361	0.079
Mof_H 	H 	0.2959	0.833	0.3364	0.035
Mof_H 	H 	0.3302	0.7667	0.507	0.034
Mof_H 	H 	0.5523	0.8753	0.5309	0.075
Mof_H 	H 	0.0615	0.3605	0.7549	-0.002
Mof_H 	H 	0.2188	0.3753	0.8414	0.11
Mof_H 	H 	0.5136	0.5311	0.7601	0.113
Mof_H 	H 	0.353	0.5087	0.6746	0.009
Mof_H 	H 	0.5777	0.5136	0.8671	0.063
Mof_H 	H 	0.3953	0.3797	0.9098	0.04
Mof_H 	H 	0.4836	0.331	0.0012	0.054
Mof_H 	H 	0.7039	0.3513	0.0798	0.053
Mof_H 	H 	0.9062	0.5831	0.0236	0.056
Mof_H 	H 	0.7314	0.539	0.9368	0.037
Mof_H 	H 	0.1204	0.4277	0.4315	0.03
Mof_H 	H 	0.8498	0.7943	0.557	-0.007
Mof_H 	H 	0.0731	0.894	0.571	0.1
Mof_H 	H 	0.0279	0.9161	0.391	0.105
Mof_H 	H 	0.8077	0.8146	0.3819	-0.008
Mof_H 	H 	0.2496	0.0086	0.4537	0.07
Mof_H 	H 	0.2723	0.9854	0.5739	0.05
Mof_H 	H 	0.4836	0.0603	0.639	0.079
Mof_H 	H 	0.7041	0.167	0.6636	0.035
Mof_H 	H 	0.6698	0.2333	0.493	0.034
Mof_H 	H 	0.4477	0.1247	0.4691	0.075
Mof_H 	H 	0.9385	0.6395	0.2451	-0.002
Mof_H 	H 	0.7812	0.6247	0.1586	0.11
Mof_H 	H 	0.4864	0.4689	0.2399	0.113
Mof_H 	H 	0.647	0.4913	0.3254	0.009
Mof_H 	H 	0.4223	0.4864	0.1329	0.063
Mof_H 	H 	0.6047	0.6203	0.0902	0.04
Mof_H 	H 	0.5164	0.669	0.9988	0.054
Mof_H 	H 	0.2961	0.6487	0.9202	0.053
Mof_H 	H 	0.0938	0.4169	0.9764	0.056
Mof_H 	H 	0.2686	0.461	0.0632	0.037
Mof_C 	C 	0.5551	0.3617	0.6548	0.275
Mof_C 	C 	0.6245	0.4169	0.6077	0.023
Mof_C 	C 	0.7518	0.4874	0.6153	-0.094
Mof_C 	C 	0.8437	0.5204	0.6787	0.373
Mof_C 	C 	0.7962	0.5248	0.5636	0.053
Mof_C 	C 	0.7201	0.4935	0.50446	-0.09
Mof_C 	C 	0.7764	0.5366	0.4494	0.365
Mof_C 	C 	0.5931	0.4238	0.4991	0.019
Mof_C 	C 	0.492	0.3772	0.4408	0.283
Mof_C 	C 	0.1143	0.1809	0.4773	0.117
Mof_C 	C 	0.9793	0.1205	0.4685	-0.197
Mof_C 	C 	0.9225	0.0819	0.5173	0.157
Mof_C 	C 	0.0053	0.1075	0.5739	-0.203
Mof_C 	C 	0.1384	0.1687	0.5789	0.119
Mof_C 	C 	0.7801	0.0151	0.5108	-0.11
Mof_C 	C 	0.696	0.9882	0.4603	-0.059
Mof_C 	C 	0.5539	0.9205	0.4481	0.089
Mof_C 	C 	0.4788	0.9057	0.391	-0.137
Mof_C 	C 	0.3466	0.841	0.3757	0.047
Mof_C 	C 	0.2921	0.7891	0.4194	-0.099
Mof_C 	C 	0.3672	0.8016	0.4774	0.029
Mof_C 	C 	0.5003	0.8674	0.4919	-0.151
Mof_C 	C 	0.1535	0.716	0.4015	0.3
Mof_C 	C 	0.155	0.3947	0.7551	0.12
Mof_C 	C 	0.2488	0.4042	0.808	-0.203
Mof_C 	C 	0.3857	0.4566	0.8103	0.171
Mof_C 	C 	0.4215	0.4948	0.7602	-0.21
Mof_C 	C 	0.3239	0.4813	0.7088	0.126
Mof_C 	C 	0.4929	0.468	0.8652	-0.128
Mof_C 	C 	0.4814	0.4228	0.9089	-0.02
Mof_C 	C 	0.5979	0.4346	0.9594	0.038
Mof_C 	C 	0.5698	0.3749	0.0019	-0.076
Mof_C 	C 	0.7051	0.3914	0.0525	-0.033
Mof_C 	C 	0.8235	0.4656	0.0551	-0.009
Mof_C 	C 	0.8334	0.5291	0.0174	-0.041
Mof_C 	C 	0.7199	0.5033	0.9678	-0.059
Mof_C 	C 	0.9546	0.4953	0.1081	0.205
Mof_C 	C 	0.4449	0.6383	0.3452	0.275
Mof_C 	C 	0.3755	0.5831	0.3923	0.023
Mof_C 	C 	0.2482	0.5126	0.3847	-0.094
Mof_C 	C 	0.1563	0.4796	0.3213	0.373
Mof_C 	C 	0.2038	0.4752	0.4364	0.053
Mof_C 	C 	0.2799	0.5065	0.49554	-0.09
Mof_C 	C 	0.2236	0.4634	0.5506	0.365
Mof_C 	C 	0.4069	0.5762	0.5009	0.019
Mof_C 	C 	0.508	0.6228	0.5592	0.283
Mof_C 	C 	0.8857	0.8191	0.5227	0.117
Mof_C 	C 	0.0207	0.8795	0.5315	-0.197
Mof_C 	C 	0.0775	0.9181	0.4827	0.157
Mof_C 	C 	0.9947	0.8925	0.4261	-0.203
Mof_C 	C 	0.8616	0.8313	0.4211	0.119
Mof_C 	C 	0.2199	0.9849	0.4892	-0.11
Mof_C 	C 	0.304	0.0118	0.5397	-0.059
Mof_C 	C 	0.4461	0.0795	0.5519	0.089
Mof_C 	C 	0.5212	0.0943	0.609	-0.137
Mof_C 	C 	0.6534	0.159	0.6243	0.047
Mof_C 	C 	0.7079	0.2109	0.5806	-0.099
Mof_C 	C 	0.6328	0.1984	0.5226	0.029
Mof_C 	C 	0.4997	0.1326	0.5081	-0.151
Mof_C 	C 	0.8465	0.284	0.5985	0.3
Mof_C 	C 	0.845	0.6053	0.2449	0.12
Mof_C 	C 	0.7512	0.5958	0.192	-0.203
Mof_C 	C 	0.6143	0.5434	0.1897	0.171
Mof_C 	C 	0.5785	0.5052	0.2398	-0.21
Mof_C 	C 	0.6761	0.5187	0.2912	0.126
Mof_C 	C 	0.5071	0.532	0.1348	-0.128
Mof_C 	C 	0.5186	0.5772	0.0911	-0.02
Mof_C 	C 	0.4021	0.5654	0.0406	0.038
Mof_C 	C 	0.4302	0.6251	0.9981	-0.076
Mof_C 	C 	0.2949	0.6086	0.9475	-0.033
Mof_C 	C 	0.1765	0.5344	0.9449	-0.009
Mof_C 	C 	0.1666	0.4709	0.9826	-0.041
Mof_C 	C 	0.2801	0.4967	0.0322	-0.059
Mof_C 	C 	0.0454	0.5047	0.8919	0.205
Mof_N 	N 	0.5526	0.3902	0.55013	-0.203
Mof_N 	N 	0.1937	0.2047	0.5315	-0.246
Mof_N 	N 	0.1909	0.4312	0.70558	-0.244
Mof_N 	N 	0.4474	0.6098	0.44987	-0.203
Mof_N 	N 	0.8063	0.7953	0.4685	-0.246
Mof_N 	N 	0.8091	0.5688	0.29442	-0.244
Mof_O 	O 	0.6162	0.3715	0.70805	-0.235
Mof_O 	O 	0.4346	0.304	0.63315	-0.35
Mof_O 	O 	0.9454	0.4929	0.68627	-0.412
Mof_O 	O 	0.8116	0.5722	0.71906	-0.42
Mof_O 	O 	0.7548	0.6064	0.44147	-0.396
Mof_O 	O 	0.8517	0.50213	0.41696	-0.372
Mof_O 	O 	0.5132	0.4026	0.39082	-0.236
Mof_O 	O 	0.3885	0.31152	0.45025	-0.353
Mof_O 	O 	0.0833	0.7079	0.3486	-0.353
Mof_O 	O 	0.1076	0.66022	0.4367	-0.346
Mof_O 	O 	0.0475	0.5755	0.121	-0.235
Mof_O 	O 	0.9371	0.4153	0.13185	-0.381
Mof_O 	O 	0.3838	0.6285	0.29195	-0.235
Mof_O 	O 	0.5654	0.696	0.36685	-0.35
Mof_O 	O 	0.0546	0.5071	0.31373	-0.412
Mof_O 	O 	0.1884	0.4278	0.28094	-0.42
Mof_O 	O 	0.2452	0.3936	0.55853	-0.396
Mof_O 	O 	0.1483	0.49787	0.58304	-0.372
Mof_O 	O 	0.4868	0.5974	0.60918	-0.236
Mof_O 	O 	0.6115	0.68848	0.54975	-0.353
Mof_O 	O 	0.9167	0.2921	0.6514	-0.353
Mof_O 	O 	0.8924	0.33978	0.5633	-0.346
Mof_O 	O 	0.9525	0.4245	0.879	-0.235
Mof_O 	O 	0.0629	0.5847	0.86815	-0.381
_end
