# CIF file generated by openbabel 3.1.0, see https://openbabel.org
data_I
_chemical_name_common 'image0'
_cell_length_a 8.4552
_cell_length_b 10.0614
_cell_length_c 12.8218
_cell_angle_alpha 109.012
_cell_angle_beta 90.922
_cell_angle_gamma 91.298
_space_group_name_H-M_alt 'P 1'
_space_group_name_Hall 'P 1'
loop_
    _symmetry_equiv_pos_as_xyz
    x,y,z
loop_
    _atom_site_label
    _atom_site_type_symbol
    _atom_site_fract_x
    _atom_site_fract_y
    _atom_site_fract_z
    _atom_site_occupancy
    Zn1      Zn       0.05299    0.18217    0.15604    1.000
    Zn2      Zn       0.25982    0.99832    0.54517    1.000
    Zn3      Zn       0.18587    0.38327    0.48538    1.000
    P1       P        0.01905    0.48974    0.30993    1.000
    P2       P        0.06043    0.08686    0.37536    1.000
    P3       P        0.50830    0.74784    0.44890    1.000
    P4       P        0.22787    0.05194    0.92913    1.000
    O1       O        0.17080    0.47960    0.37520    1.000
    O2       O        0.87150    0.47720    0.37356    1.000
    O3       O        0.02630    0.64010    0.29390    1.000
    O4       O        0.01370    0.38310    0.19410    1.000
    O5       O        0.17390    0.98230    0.40046    1.000
    O6       O        0.04930    0.22080    0.47667    1.000
    O7       O        0.89290    0.01550    0.34531    1.000
    O8       O        0.12570    0.12230    0.27649    1.000
    O9       O        0.40090    0.65280    0.34830    1.000
    O10      O        0.40420    0.84490    0.53540    1.000
    O11      O        0.61450    0.82700    0.39210    1.000
    O12      O        0.59340    0.65470    0.50210    1.000
    O13      O        0.21900    0.13650    0.05098    1.000
    O14      O        0.15640    0.90040    0.90120    1.000
    O15      O        0.12280    0.13100    0.86620    1.000
    O16      O        0.39750    0.04120    0.89180    1.000
    H1       H        0.32940    0.59650    0.36390    1.000
    H2       H        0.00910    0.71920    0.36140    1.000
    H3       H        0.12190    0.08250    0.79320    1.000
    Zn4      Zn       0.94701    0.81783    0.84396    1.000
    Zn5      Zn       0.74018    0.00168    0.45483    1.000
    Zn6      Zn       0.81413    0.61673    0.51462    1.000
    P5       P        0.98095    0.51026    0.69007    1.000
    P6       P        0.93957    0.91314    0.62464    1.000
    P7       P        0.49170    0.25216    0.55110    1.000
    P8       P        0.77213    0.94806    0.07087    1.000
    O17      O        0.82920    0.52040    0.62480    1.000
    O18      O        0.12850    0.52280    0.62644    1.000
    O19      O        0.97370    0.35990    0.70610    1.000
    O20      O        0.98630    0.61690    0.80590    1.000
    O21      O        0.82610    0.01770    0.59954    1.000
    O22      O        0.95070    0.77920    0.52333    1.000
    O23      O        0.10710    0.98450    0.65469    1.000
    O24      O        0.87430    0.87770    0.72351    1.000
    O25      O        0.59910    0.34720    0.65170    1.000
    O26      O        0.59580    0.15510    0.46460    1.000
    O27      O        0.38550    0.17300    0.60790    1.000
    O28      O        0.40660    0.34530    0.49790    1.000
    O29      O        0.78100    0.86350    0.94902    1.000
    O30      O        0.84360    0.09960    0.09880    1.000
    O31      O        0.87720    0.86900    0.13380    1.000
    O32      O        0.60250    0.95880    0.10820    1.000
    H4       H        0.67060    0.40350    0.63610    1.000
    H5       H        0.99090    0.28080    0.63860    1.000
    H6       H        0.87810    0.91750    0.20680    1.000
