data_functionalizedCrystal
_audit_creation_method	'EQeq! by Chris Wilmer'
_symmetry_space_group_name_H-M	'P1'
_symmetry_Int_Tables_number	1
_symmetry_cell_setting	triclinic
loop_
_symmetry_equiv_pos_as_xyz
  x,y,z
_cell_length_a	17.5154
_cell_length_b	17.5154
_cell_length_c	17.5154
_cell_angle_alpha	90
_cell_angle_beta	90
_cell_angle_gamma	90
loop_
_atom_site_label
_atom_site_type_symbol
_atom_site_fract_x
_atom_site_fract_y
_atom_site_fract_z
_atom_site_charge
Mof_C 	C 	0.7418	0.9971	0.0145	0.328
Mof_C 	C 	0.7653	0.9128	0.0089	-0.013
Mof_C 	C 	0.7909	0.8859	0.0903	0.334
Mof_O 	O 	0.8593	0.8672	0.0979	-0.377
Mof_O 	O 	0.741	0.8869	0.1403	-0.422
Mof_O 	O 	0.8218	0.9029	0.9552	-0.421
Mof_O 	O 	0.6993	0.8707	0.9924	-0.303
Mof_O 	O 	0.6802	0.0083	0.0496	-0.435
Mof_O 	O 	0.7801	0.0463	0.9818	-0.38
Mof_Cu	Cu	0.90772	0.84875	6e-05	0.894
Mof_C 	C 	0.7582	0.0029	0.5145	0.325
Mof_C 	C 	0.7347	0.0872	0.5089	0
Mof_C 	C 	0.7091	0.1141	0.5903	0.332
Mof_O 	O 	0.6407	0.1328	0.5979	-0.376
Mof_O 	O 	0.759	0.1131	0.6403	-0.421
Mof_O 	O 	0.6782	0.0971	0.4552	-0.432
Mof_O 	O 	0.8007	0.1293	0.4924	-0.312
Mof_O 	O 	0.8198	0.9917	0.5496	-0.435
Mof_O 	O 	0.7199	0.9537	0.4818	-0.376
Mof_Cu	Cu	0.59228	0.15125	0.50006	0.898
Mof_C 	C 	0.2582	0.4971	0.4855	0.333
Mof_C 	C 	0.2347	0.4128	0.4911	-0.001
Mof_C 	C 	0.2091	0.3859	0.4097	0.332
Mof_O 	O 	0.1407	0.3672	0.4021	-0.374
Mof_O 	O 	0.259	0.3869	0.3597	-0.421
Mof_O 	O 	0.1782	0.4029	0.5448	-0.431
Mof_O 	O 	0.3007	0.3707	0.5076	-0.312
Mof_O 	O 	0.3198	0.5083	0.4504	-0.44
Mof_O 	O 	0.2199	0.5463	0.5182	-0.379
Mof_Cu	Cu	0.09228	0.34875	0.49994	0.898
Mof_C 	C 	0.2418	0.5029	0.9855	0.328
Mof_C 	C 	0.2653	0.5872	0.9911	-0.004
Mof_C 	C 	0.2909	0.6141	0.9097	0.333
Mof_O 	O 	0.3593	0.6328	0.9021	-0.376
Mof_O 	O 	0.241	0.6131	0.8597	-0.421
Mof_O 	O 	0.3218	0.5971	0.0448	-0.43
Mof_O 	O 	0.1993	0.6293	0.0076	-0.308
Mof_O 	O 	0.1802	0.4917	0.9504	-0.44
Mof_O 	O 	0.2801	0.4537	0.0182	-0.374
Mof_Cu	Cu	0.40772	0.65125	0.99994	0.897
Mof_C 	C 	0.0145	0.7418	0.9971	0.329
Mof_C 	C 	0.0089	0.7653	0.9128	-0.013
Mof_C 	C 	0.0903	0.7909	0.8859	0.334
Mof_O 	O 	0.0979	0.8593	0.8672	-0.377
Mof_O 	O 	0.1403	0.741	0.8869	-0.422
Mof_O 	O 	0.9552	0.8218	0.9029	-0.421
Mof_O 	O 	0.9924	0.6993	0.8707	-0.303
Mof_O 	O 	0.0496	0.6802	0.0083	-0.435
Mof_O 	O 	0.9818	0.7801	0.0463	-0.38
Mof_Cu	Cu	6e-05	0.90772	0.84875	0.894
Mof_C 	C 	0.5145	0.7582	0.0029	0.325
Mof_C 	C 	0.5089	0.7347	0.0872	0
Mof_C 	C 	0.5903	0.7091	0.1141	0.332
Mof_O 	O 	0.5979	0.6407	0.1328	-0.376
Mof_O 	O 	0.6403	0.759	0.1131	-0.421
Mof_O 	O 	0.4552	0.6782	0.0971	-0.432
Mof_O 	O 	0.4924	0.8007	0.1293	-0.312
Mof_O 	O 	0.5496	0.8198	0.9917	-0.435
Mof_O 	O 	0.4818	0.7199	0.9537	-0.376
Mof_Cu	Cu	0.50006	0.59228	0.15125	0.898
Mof_C 	C 	0.4855	0.2582	0.4971	0.333
Mof_C 	C 	0.4911	0.2347	0.4128	-0.001
Mof_C 	C 	0.4097	0.2091	0.3859	0.332
Mof_O 	O 	0.4021	0.1407	0.3672	-0.374
Mof_O 	O 	0.3597	0.259	0.3869	-0.421
Mof_O 	O 	0.5448	0.1782	0.4029	-0.431
Mof_O 	O 	0.5076	0.3007	0.3707	-0.312
Mof_O 	O 	0.4504	0.3198	0.5083	-0.44
Mof_O 	O 	0.5182	0.2199	0.5463	-0.379
Mof_Cu	Cu	0.49994	0.09228	0.34875	0.898
Mof_C 	C 	0.9855	0.2418	0.5029	0.328
Mof_C 	C 	0.9911	0.2653	0.5872	-0.004
Mof_C 	C 	0.9097	0.2909	0.6141	0.333
Mof_O 	O 	0.9021	0.3593	0.6328	-0.376
Mof_O 	O 	0.8597	0.241	0.6131	-0.421
Mof_O 	O 	0.0448	0.3218	0.5971	-0.43
Mof_O 	O 	0.0076	0.1993	0.6293	-0.308
Mof_O 	O 	0.9504	0.1802	0.4917	-0.44
Mof_O 	O 	0.0182	0.2801	0.4537	-0.374
Mof_Cu	Cu	0.99994	0.40772	0.65125	0.897
Mof_C 	C 	0.9971	0.0145	0.7418	0.329
Mof_C 	C 	0.9128	0.0089	0.7653	-0.013
Mof_C 	C 	0.8859	0.0903	0.7909	0.334
Mof_O 	O 	0.8672	0.0979	0.8593	-0.377
Mof_O 	O 	0.8869	0.1403	0.741	-0.422
Mof_O 	O 	0.9029	0.9552	0.8218	-0.421
Mof_O 	O 	0.8707	0.9924	0.6993	-0.303
Mof_O 	O 	0.0083	0.0496	0.6802	-0.435
Mof_O 	O 	0.0463	0.9818	0.7801	-0.38
Mof_Cu	Cu	0.84875	6e-05	0.90772	0.894
Mof_C 	C 	0.0029	0.5145	0.7582	0.325
Mof_C 	C 	0.0872	0.5089	0.7347	0
Mof_C 	C 	0.1141	0.5903	0.7091	0.332
Mof_O 	O 	0.1328	0.5979	0.6407	-0.376
Mof_O 	O 	0.1131	0.6403	0.759	-0.421
Mof_O 	O 	0.0971	0.4552	0.6782	-0.432
Mof_O 	O 	0.1293	0.4924	0.8007	-0.312
Mof_O 	O 	0.9917	0.5496	0.8198	-0.435
Mof_O 	O 	0.9537	0.4818	0.7199	-0.376
Mof_Cu	Cu	0.15125	0.50006	0.59228	0.898
Mof_C 	C 	0.4971	0.4855	0.2582	0.333
Mof_C 	C 	0.4128	0.4911	0.2347	-0.001
Mof_C 	C 	0.3859	0.4097	0.2091	0.332
Mof_O 	O 	0.3672	0.4021	0.1407	-0.374
Mof_O 	O 	0.3869	0.3597	0.259	-0.421
Mof_O 	O 	0.4029	0.5448	0.1782	-0.431
Mof_O 	O 	0.3707	0.5076	0.3007	-0.312
Mof_O 	O 	0.5083	0.4504	0.3198	-0.44
Mof_O 	O 	0.5463	0.5182	0.2199	-0.379
Mof_Cu	Cu	0.34875	0.49994	0.09228	0.898
Mof_C 	C 	0.5029	0.9855	0.2418	0.328
Mof_C 	C 	0.5872	0.9911	0.2653	-0.004
Mof_C 	C 	0.6141	0.9097	0.2909	0.333
Mof_O 	O 	0.6328	0.9021	0.3593	-0.376
Mof_O 	O 	0.6131	0.8597	0.241	-0.421
Mof_O 	O 	0.5971	0.0448	0.3218	-0.43
Mof_O 	O 	0.6293	0.0076	0.1993	-0.308
Mof_O 	O 	0.4917	0.9504	0.1802	-0.44
Mof_O 	O 	0.4537	0.0182	0.2801	-0.374
Mof_Cu	Cu	0.65125	0.99994	0.40772	0.897
Mof_Nd	Nd	0.60324	0.89676	0.10324	2.383
Mof_Nd	Nd	0.89676	0.10324	0.60324	2.383
Mof_Nd	Nd	0.39676	0.39676	0.39676	2.395
Mof_Nd	Nd	0.10324	0.60324	0.89676	2.383
_end
