data_functionalizedCrystal
_audit_creation_method	'EQeq! by Chris Wilmer'
_symmetry_space_group_name_H-M	'P1'
_symmetry_Int_Tables_number	1
_symmetry_cell_setting	triclinic
loop_
_symmetry_equiv_pos_as_xyz
  x,y,z
_cell_length_a	17.656
_cell_length_b	19.4084
_cell_length_c	20.504
_cell_angle_alpha	106.261
_cell_angle_beta	90
_cell_angle_gamma	117.055
loop_
_atom_site_label
_atom_site_type_symbol
_atom_site_fract_x
_atom_site_fract_y
_atom_site_fract_z
_atom_site_charge
Mof_Mn	Mn	0.54667	0.8853	0.97626	0.823
Mof_Mn	Mn	0.33863	0.8853	0.47626	0.837
Mof_H 	H 	0.5164	0.0022	0.8096	0.09
Mof_H 	H 	0.3696	0.7558	0.7494	0.076
Mof_H 	H 	0.347	0.758	0.6396	0.028
Mof_H 	H 	0.4642	0.688	0.8828	0.008
Mof_H 	H 	0.7072	0.8678	0.9023	0.03
Mof_H 	H 	0.7114	0.7394	0.8543	0.04
Mof_H 	H 	0.6639	0.6016	0.8134	0.075
Mof_H 	H 	0.6093	0.4664	0.7466	0.038
Mof_H 	H 	0.3686	0.4368	0.753	0.039
Mof_H 	H 	0.4236	0.5726	0.8179	0.085
Mof_H 	H 	0.5471	0.326	0.7222	0.041
Mof_H 	H 	0.4813	0.1922	0.6479	0.085
Mof_H 	H 	0.2663	0.2072	0.6102	0.08
Mof_H 	H 	0.3392	0.342	0.6676	0.034
Mof_H 	H 	0.4343	0.0862	0.5492	0.006
Mof_H 	H 	0.2002	0.0628	0.5721	0.043
Mof_H 	H 	0.1804	0.9308	0.5089	0.018
Mof_H 	H 	0.534	0.0704	0.7354	0.173
Mof_H 	H 	0.4994	0.0324	0.6607	0.193
Mof_H 	H 	0.4858	0.0022	0.3096	0.089
Mof_H 	H 	0.3862	0.7558	0.2494	0.076
Mof_H 	H 	0.411	0.758	0.1396	0.028
Mof_H 	H 	0.2238	0.688	0.3828	0.009
Mof_H 	H 	0.1606	0.8678	0.4023	0.031
Mof_H 	H 	0.028	0.7394	0.3543	0.038
Mof_H 	H 	0.9377	0.6016	0.3134	0.063
Mof_H 	H 	0.8571	0.4664	0.2466	0.051
Mof_H 	H 	0.0682	0.4368	0.253	0.054
Mof_H 	H 	0.149	0.5726	0.3179	0.073
Mof_H 	H 	0.7789	0.326	0.2222	0.032
Mof_H 	H 	0.7109	0.1922	0.1479	0.092
Mof_H 	H 	0.9409	0.2072	0.1102	0.095
Mof_H 	H 	0.0028	0.342	0.1676	0.011
Mof_H 	H 	0.6519	0.0862	0.0492	0.007
Mof_H 	H 	0.8626	0.0628	0.0721	0.047
Mof_H 	H 	0.7504	0.9308	0.0089	0.021
Mof_H 	H 	0.5364	0.0704	0.2354	0.174
Mof_H 	H 	0.533	0.0324	0.1607	0.193
Mof_C 	C 	0.4167	0.8772	0.65768	-0.167
Mof_C 	C 	0.46895	0.9521	0.7088	0.198
Mof_C 	C 	0.48312	0.95284	0.7754	-0.145
Mof_C 	C 	0.44767	0.87954	0.7921	-0.015
Mof_C 	C 	0.39467	0.80474	0.7396	-0.096
Mof_C 	C 	0.3815	0.8068	0.6741	0.058
Mof_C 	C 	0.39108	0.87636	0.587	0.339
Mof_C 	C 	0.47194	0.88028	0.86162	0.3
Mof_C 	C 	0.52305	0.7161	0.8825	0.073
Mof_C 	C 	0.66012	0.81624	0.8933	0.007
Mof_C 	C 	0.66323	0.74526	0.8656	-0.005
Mof_C 	C 	0.54944	0.60048	0.823	0.126
Mof_C 	C 	0.60474	0.56848	0.8012	-0.12
Mof_C 	C 	0.57215	0.4875	0.7614	-0.014
Mof_C 	C 	0.48356	0.43792	0.7438	0.001
Mof_C 	C 	0.42775	0.4699	0.765	-0.009
Mof_C 	C 	0.46065	0.5511	0.8042	-0.123
Mof_C 	C 	0.44975	0.3507	0.7051	-0.011
Mof_C 	C 	0.49239	0.30358	0.6979	-0.009
Mof_C 	C 	0.4527	0.2232	0.6541	-0.123
Mof_C 	C 	0.37011	0.19002	0.62	0.124
Mof_C 	C 	0.32386	0.23192	0.629	-0.13
Mof_C 	C 	0.3667	0.3108	0.6667	0.002
Mof_C 	C 	0.37484	0.06468	0.5458	0.079
Mof_C 	C 	0.24436	0.05072	0.5593	-0.017
Mof_C 	C 	0.2331	0.978	0.5231	0.018
Mof_C 	C 	0.4605	0.8772	0.15768	-0.166
Mof_C 	C 	0.48315	0.9521	0.2088	0.198
Mof_C 	C 	0.46972	0.95284	0.2754	-0.143
Mof_C 	C 	0.43187	0.87954	0.2921	-0.015
Mof_C 	C 	0.41007	0.80474	0.2396	-0.095
Mof_C 	C 	0.4253	0.8068	0.1741	0.058
Mof_C 	C 	0.48528	0.87636	0.087	0.339
Mof_C 	C 	0.40834	0.88028	0.36162	0.301
Mof_C 	C 	0.19305	0.7161	0.3825	0.073
Mof_C 	C 	0.15612	0.81624	0.3933	0.007
Mof_C 	C 	0.08203	0.74526	0.3656	-0.005
Mof_C 	C 	0.05104	0.60048	0.323	0.093
Mof_C 	C 	0.96374	0.56848	0.3012	-0.076
Mof_C 	C 	0.91535	0.4875	0.2614	-0.051
Mof_C 	C 	0.95436	0.43792	0.2438	0.046
Mof_C 	C 	0.04215	0.4699	0.265	-0.055
Mof_C 	C 	0.09045	0.5511	0.3042	-0.09
Mof_C 	C 	0.90095	0.3507	0.2051	-0.043
Mof_C 	C 	0.81119	0.30358	0.1979	0.015
Mof_C 	C 	0.7705	0.2232	0.1541	-0.143
Mof_C 	C 	0.81991	0.19002	0.12	0.142
Mof_C 	C 	0.90806	0.23192	0.129	-0.162
Mof_C 	C 	0.9441	0.3108	0.1667	0.05
Mof_C 	C 	0.68984	0.06468	0.0458	0.078
Mof_C 	C 	0.80636	0.05072	0.0593	-0.024
Mof_C 	C 	0.7449	0.978	0.0231	0.028
Mof_N 	N 	0.50534	0.02768	0.7006	-0.345
Mof_N 	N 	0.57484	0.80168	0.9069	-0.189
Mof_N 	N 	0.57597	0.68054	0.8575	-0.139
Mof_N 	N 	0.3331	0.1078	0.5759	-0.137
Mof_N 	N 	0.31501	0.98322	0.5092	-0.192
Mof_N 	N 	0.52234	0.02768	0.2006	-0.346
Mof_N 	N 	0.22684	0.80168	0.4069	-0.188
Mof_N 	N 	0.10457	0.68054	0.3575	-0.133
Mof_N 	N 	0.7747	0.1078	0.0759	-0.138
Mof_N 	N 	0.66821	0.98322	0.0092	-0.187
Mof_O 	O 	0.3274	0.81676	0.54865	-0.368
Mof_O 	O 	0.43985	0.93968	0.57318	-0.345
Mof_O 	O 	0.52894	0.94218	0.90223	-0.346
Mof_O 	O 	0.43692	0.81844	0.88105	-0.323
Mof_O 	O 	0.48936	0.81676	0.04865	-0.363
Mof_O 	O 	0.49983	0.93968	0.07318	-0.34
Mof_O 	O 	0.41324	0.94218	0.40223	-0.344
Mof_O 	O 	0.38152	0.81844	0.38105	-0.323
Mof_Mn	Mn	0.9833	0.16838	0.92295	0.851
Mof_Mn	Mn	0.18508	0.16838	0.42295	0.845
Mof_H 	H 	0.1041	0.279	0.7539	0.107
Mof_H 	H 	0.0094	0.036	0.6885	0.072
Mof_H 	H 	0.0386	0.0398	0.5786	0.012
Mof_H 	H 	0.8725	0.9696	0.829	0.015
Mof_H 	H 	0.7731	0.1188	0.9217	0.028
Mof_H 	H 	0.6515	0.9768	0.8654	0.044
Mof_H 	H 	0.5864	0.8394	0.8168	0.083
Mof_H 	H 	0.521	0.7056	0.7761	0.039
Mof_H 	H 	0.7343	0.7046	0.7099	0.042
Mof_H 	H 	0.8045	0.842	0.7589	0.083
Mof_H 	H 	0.4469	0.6144	0.6919	0.042
Mof_H 	H 	0.3628	0.4918	0.6074	0.087
Mof_H 	H 	0.5628	0.4474	0.586	0.075
Mof_H 	H 	0.6486	0.5694	0.6711	0.039
Mof_H 	H 	0.2905	0.3636	0.5343	0.011
Mof_H 	H 	0.5061	0.3538	0.482	0.031
Mof_H 	H 	0.381	0.2342	0.3972	0.022
Mof_H 	H 	0.1679	0.354	0.6829	0.18
Mof_H 	H 	0.1657	0.3172	0.6082	0.191
Mof_H 	H 	0.1749	0.279	0.2539	0.107
Mof_H 	H 	0.0266	0.036	0.1885	0.071
Mof_H 	H 	0.0012	0.0398	0.0786	0.013
Mof_H 	H 	0.0971	0.9696	0.329	0.012
Mof_H 	H 	0.3457	0.1188	0.4217	0.029
Mof_H 	H 	0.3253	0.9768	0.3654	0.045
Mof_H 	H 	0.253	0.8394	0.3168	0.075
Mof_H 	H 	0.1846	0.7056	0.2761	0.047
Mof_H 	H 	0.9703	0.7046	0.2099	0.067
Mof_H 	H 	0.0375	0.842	0.2589	0.069
Mof_H 	H 	0.1675	0.6144	0.1919	0.039
Mof_H 	H 	0.129	0.4918	0.1074	0.087
Mof_H 	H 	0.8846	0.4474	0.086	0.075
Mof_H 	H 	0.9208	0.5694	0.1711	0.034
Mof_H 	H 	0.0731	0.3636	0.0343	0.015
Mof_H 	H 	0.8477	0.3538	0.982	0.033
Mof_H 	H 	0.8532	0.2342	0.8972	0.021
Mof_H 	H 	0.1861	0.354	0.1829	0.179
Mof_H 	H 	0.1515	0.3172	0.1082	0.191
Mof_C 	C 	0.09037	0.16194	0.6002	-0.214
Mof_C 	C 	0.10863	0.23446	0.6541	0.207
Mof_C 	C 	0.09091	0.23102	0.7188	-0.17
Mof_C 	C 	0.05383	0.15766	0.73303	0.003
Mof_C 	C 	0.03446	0.08572	0.67974	-0.107
Mof_C 	C 	0.05221	0.08782	0.61361	0.075
Mof_C 	C 	0.11477	0.16254	0.5335	0.386
Mof_C 	C 	0.03634	0.15408	0.8031	0.305
Mof_C 	C 	0.834	0.989	0.8438	0.075
Mof_C 	C 	0.77852	0.07384	0.8963	-0.005
Mof_C 	C 	0.70968	0.99276	0.86478	0.015
Mof_C 	C 	0.70326	0.85792	0.7925	0.11
Mof_C 	C 	0.6168	0.813	0.7957	-0.116
Mof_C 	C 	0.57772	0.73364	0.7691	0.01
Mof_C 	C 	0.61448	0.68656	0.7304	-0.011
Mof_C 	C 	0.70401	0.73142	0.7303	-0.011
Mof_C 	C 	0.74587	0.81374	0.76	-0.117
Mof_C 	C 	0.55686	0.60432	0.689	0.006
Mof_C 	C 	0.47033	0.58106	0.6705	-0.011
Mof_C 	C 	0.42045	0.5079	0.6199	-0.122
Mof_C 	C 	0.45457	0.45814	0.5876	0.117
Mof_C 	C 	0.53989	0.48118	0.6071	-0.11
Mof_C 	C 	0.59139	0.55418	0.658	-0.018
Mof_C 	C 	0.32732	0.34664	0.5111	0.081
Mof_C 	C 	0.44886	0.34192	0.48177	0.012
Mof_C 	C 	0.37838	0.27336	0.4343	-0.005
Mof_C 	C 	0.07157	0.16194	0.1002	-0.213
Mof_C 	C 	0.12583	0.23446	0.1541	0.207
Mof_C 	C 	0.14011	0.23102	0.2188	-0.169
Mof_C 	C 	0.10383	0.15766	0.23303	0.003
Mof_C 	C 	0.05126	0.08572	0.17974	-0.107
Mof_C 	C 	0.03561	0.08782	0.11361	0.074
Mof_C 	C 	0.04777	0.16254	0.0335	0.385
Mof_C 	C 	0.11774	0.15408	0.3031	0.304
Mof_C 	C 	0.155	0.989	0.3438	0.073
Mof_C 	C 	0.29532	0.07384	0.3963	-0.003
Mof_C 	C 	0.28308	0.99276	0.36478	0.014
Mof_C 	C 	0.15466	0.85792	0.2925	0.093
Mof_C 	C 	0.1962	0.813	0.2957	-0.095
Mof_C 	C 	0.15592	0.73364	0.2691	-0.013
Mof_C 	C 	0.07208	0.68656	0.2304	0.016
Mof_C 	C 	0.02741	0.73142	0.2303	-0.059
Mof_C 	C 	0.06787	0.81374	0.26	-0.087
Mof_C 	C 	0.04746	0.60432	0.189	-0.02
Mof_C 	C 	0.11073	0.58106	0.1705	-0.002
Mof_C 	C 	0.08745	0.5079	0.1199	-0.12
Mof_C 	C 	0.00357	0.45814	0.0876	0.101
Mof_C 	C 	0.94129	0.48118	0.1071	-0.101
Mof_C 	C 	0.96279	0.55418	0.158	0.002
Mof_C 	C 	0.01932	0.34664	0.0111	0.071
Mof_C 	C 	0.89306	0.34192	0.98177	0
Mof_C 	C 	0.89498	0.27336	0.9343	-0.002
Mof_N 	N 	0.15299	0.31164	0.64757	-0.346
Mof_N 	N 	0.85599	0.07238	0.88135	-0.187
Mof_N 	N 	0.74338	0.94256	0.8336	-0.136
Mof_N 	N 	0.41905	0.3881	0.52755	-0.134
Mof_N 	N 	0.30218	0.27716	0.45539	-0.182
Mof_N 	N 	0.15865	0.31164	0.14757	-0.346
Mof_N 	N 	0.21639	0.07238	0.38135	-0.186
Mof_N 	N 	0.19918	0.94256	0.3336	-0.133
Mof_N 	N 	0.96905	0.3881	0.02755	-0.119
Mof_N 	N 	0.97498	0.27716	0.95539	-0.18
Mof_O 	O 	0.10453	0.09914	0.48913	-0.377
Mof_O 	O 	0.14367	0.22486	0.51711	-0.376
Mof_O 	O 	0.04054	0.21734	0.84252	-0.353
Mof_O 	O 	0.02352	0.09886	0.82602	-0.338
Mof_O 	O 	0.99461	0.09914	0.98913	-0.377
Mof_O 	O 	0.08119	0.22486	0.01711	-0.374
Mof_O 	O 	0.1768	0.21734	0.34252	-0.349
Mof_O 	O 	0.07534	0.09886	0.32602	-0.336
Mof_Mn	Mn	0.71832	0.23158	0.75022	0.849
Mof_Mn	Mn	0.51326	0.23158	0.25022	0.85
Mof_H 	H 	0.6972	0.3538	0.587	0.095
Mof_H 	H 	0.5613	0.1106	0.5227	0.073
Mof_H 	H 	0.5294	0.1102	0.4129	0.025
Mof_H 	H 	0.6457	0.046	0.6191	0.016
Mof_H 	H 	0.8485	0.1508	0.7709	0.024
Mof_H 	H 	0.8265	0.0138	0.7112	0.037
Mof_H 	H 	0.5765	0.907	0.5611	0.085
Mof_H 	H 	0.5193	0.7742	0.4879	0.039
Mof_H 	H 	0.7262	0.7612	0.5517	0.049
Mof_H 	H 	0.7834	0.894	0.6249	0.078
Mof_H 	H 	0.4712	0.6466	0.4825	0.044
Mof_H 	H 	0.4006	0.5164	0.4036	0.078
Mof_H 	H 	0.631	0.5294	0.3745	0.07
Mof_H 	H 	0.7011	0.6634	0.4453	0.044
Mof_H 	H 	0.5624	0.3954	0.3313	0.005
Mof_H 	H 	0.3341	0.3896	0.3019	0.052
Mof_H 	H 	0.3169	0.2544	0.2372	0.027
Mof_H 	H 	0.6776	0.3916	0.4444	0.152
Mof_H 	H 	0.7174	0.4278	0.5206	0.129
Mof_H 	H 	0.6566	0.3538	0.087	0.088
Mof_H 	H 	0.5493	0.1106	0.0227	0.066
Mof_H 	H 	0.5808	0.1102	0.9129	0.033
Mof_H 	H 	0.4003	0.046	0.1191	0.017
Mof_H 	H 	0.3023	0.1508	0.2709	0.023
Mof_H 	H 	0.1873	0.0138	0.2112	0.036
Mof_H 	H 	0.3305	0.907	0.0611	0.087
Mof_H 	H 	0.2549	0.7742	0.9879	0.03
Mof_H 	H 	0.035	0.7612	0.0517	0.05
Mof_H 	H 	0.1106	0.894	0.1249	0.074
Mof_H 	H 	0.1754	0.6466	0.9825	0.029
Mof_H 	H 	0.1158	0.5164	0.9036	0.091
Mof_H 	H 	0.8984	0.5294	0.8745	0.081
Mof_H 	H 	0.9623	0.6634	0.9453	0.03
Mof_H 	H 	0.833	0.3954	0.8313	0.004
Mof_H 	H 	0.0555	0.3896	0.8019	0.038
Mof_H 	H 	0.9375	0.2544	0.7372	0.033
Mof_H 	H 	0.714	0.3916	0.9444	0.152
Mof_H 	H 	0.7104	0.4278	0.0206	0.137
Mof_C 	C 	0.59873	0.23426	0.434	-0.176
Mof_C 	C 	0.64819	0.30518	0.48483	0.189
Mof_C 	C 	0.6631	0.3052	0.5524	-0.154
Mof_C 	C 	0.62699	0.23298	0.5665	0
Mof_C 	C 	0.58071	0.15962	0.5135	-0.101
Mof_C 	C 	0.56339	0.15898	0.4475	0.053
Mof_C 	C 	0.57396	0.23392	0.3631	0.35
Mof_C 	C 	0.6461	0.2294	0.6364	0.286
Mof_C 	C 	0.69143	0.05506	0.6488	0.072
Mof_C 	C 	0.80557	0.11294	0.7342	0.009
Mof_C 	C 	0.7943	0.0372	0.7007	-0.009
Mof_C 	C 	0.68566	0.91372	0.6003	0.11
Mof_C 	C 	0.60651	0.87782	0.5592	-0.11
Mof_C 	C 	0.57223	0.79826	0.5153	-0.016
Mof_C 	C 	0.61709	0.75458	0.5125	0.001
Mof_C 	C 	0.69623	0.79046	0.5536	-0.02
Mof_C 	C 	0.73052	0.87004	0.5974	-0.104
Mof_C 	C 	0.58994	0.66948	0.4697	0.003
Mof_C 	C 	0.50353	0.62406	0.4586	-0.022
Mof_C 	C 	0.46023	0.54506	0.4131	-0.104
Mof_C 	C 	0.51181	0.51122	0.3826	0.098
Mof_C 	C 	0.59902	0.55424	0.3952	-0.108
Mof_C 	C 	0.64134	0.63388	0.4377	-0.022
Mof_C 	C 	0.50487	0.37774	0.3165	0.054
Mof_C 	C 	0.37706	0.37432	0.3004	-0.013
Mof_C 	C 	0.36751	0.29842	0.26328	0.028
Mof_C 	C 	0.63553	0.23426	0.934	-0.163
Mof_C 	C 	0.65699	0.30518	0.98483	0.17
Mof_C 	C 	0.6421	0.3052	0.0524	-0.131
Mof_C 	C 	0.60599	0.23298	0.0665	-0.016
Mof_C 	C 	0.57891	0.15962	0.0135	-0.074
Mof_C 	C 	0.59559	0.15898	0.9475	0.027
Mof_C 	C 	0.65996	0.23392	0.8631	0.345
Mof_C 	C 	0.5833	0.2294	0.1364	0.292
Mof_C 	C 	0.36363	0.05506	0.1488	0.073
Mof_C 	C 	0.30737	0.11294	0.2342	0.008
Mof_C 	C 	0.2429	0.0372	0.2007	-0.008
Mof_C 	C 	0.22806	0.91372	0.1003	0.109
Mof_C 	C 	0.27131	0.87782	0.0592	-0.113
Mof_C 	C 	0.22603	0.79826	0.0153	-0.006
Mof_C 	C 	0.13749	0.75458	0.0125	0.019
Mof_C 	C 	0.09423	0.79046	0.0536	-0.029
Mof_C 	C 	0.13952	0.87004	0.0974	-0.1
Mof_C 	C 	0.07954	0.66948	0.9697	-0.041
Mof_C 	C 	0.12053	0.62406	0.9586	0.013
Mof_C 	C 	0.08483	0.54506	0.9131	-0.147
Mof_C 	C 	0.99941	0.51122	0.8826	0.131
Mof_C 	C 	0.95522	0.55424	0.8952	-0.142
Mof_C 	C 	0.99254	0.63388	0.9377	0.021
Mof_C 	C 	0.87287	0.37774	0.8165	0.055
Mof_C 	C 	0.99726	0.37432	0.8004	0.01
Mof_C 	C 	0.93091	0.29842	0.76328	0.018
Mof_N 	N 	0.68533	0.38346	0.48438	-0.296
Mof_N 	N 	0.73993	0.12626	0.70421	-0.17
Mof_N 	N 	0.7236	0.9997	0.64576	-0.119
Mof_N 	N 	0.46108	0.42456	0.33508	-0.124
Mof_N 	N 	0.44622	0.29924	0.27155	-0.192
Mof_N 	N 	0.69813	0.38346	0.98438	-0.3
Mof_N 	N 	0.38633	0.12626	0.20421	-0.17
Mof_N 	N 	0.2761	0.9997	0.14576	-0.119
Mof_N 	N 	0.96348	0.42456	0.83508	-0.13
Mof_N 	N 	0.85302	0.29924	0.77155	-0.19
Mof_O 	O 	0.51512	0.17092	0.31942	-0.376
Mof_O 	O 	0.6157	0.29626	0.34906	-0.355
Mof_O 	O 	0.70337	0.29402	0.67642	-0.332
Mof_O 	O 	0.61511	0.1712	0.66039	-0.34
Mof_O 	O 	0.6558	0.17092	0.81942	-0.375
Mof_O 	O 	0.68056	0.29626	0.84906	-0.354
Mof_O 	O 	0.59065	0.29402	0.17642	-0.333
Mof_O 	O 	0.55609	0.1712	0.16039	-0.342
Mof_Mn	Mn	0.00966	0.81442	0.64789	0.824
Mof_Mn	Mn	0.80476	0.81442	0.14789	0.845
Mof_H 	H 	0.986	0.9186	0.479	0.113
Mof_H 	H 	0.8443	0.6768	0.4111	0.077
Mof_H 	H 	0.8171	0.68	0.3017	0.012
Mof_H 	H 	0.9141	0.6062	0.5786	0.001
Mof_H 	H 	0.1549	0.7728	0.5689	0.025
Mof_H 	H 	0.1319	0.6334	0.5001	0.037
Mof_H 	H 	0.0853	0.503	0.4658	0.104
Mof_H 	H 	0.028	0.3664	0.4063	0.005
Mof_H 	H 	0.7901	0.3356	0.4308	0.032
Mof_H 	H 	0.8477	0.4734	0.49	0.084
Mof_H 	H 	0.9737	0.233	0.3846	0.051
Mof_H 	H 	0.9108	0.0968	0.3196	0.077
Mof_H 	H 	0.6886	0.0958	0.2815	0.066
Mof_H 	H 	0.7499	0.2322	0.3433	0.05
Mof_H 	H 	0.8563	0.9808	0.2367	0.009
Mof_H 	H 	0.6159	0.9534	0.2559	0.04
Mof_H 	H 	0.603	0.819	0.182	0.03
Mof_H 	H 	0.9638	0.9554	0.3293	0.196
Mof_H 	H 	0.0065	0.992	0.4021	0.17
Mof_H 	H 	0.9326	0.9186	0.979	0.105
Mof_H 	H 	0.8325	0.6768	0.9111	0.071
Mof_H 	H 	0.8629	0.68	0.8017	0.015
Mof_H 	H 	0.6921	0.6062	0.0786	0.01
Mof_H 	H 	0.6179	0.7728	0.0689	0.025
Mof_H 	H 	0.5015	0.6334	0.0001	0.042
Mof_H 	H 	0.4177	0.503	0.9658	0.072
Mof_H 	H 	0.3384	0.3664	0.9063	0.043
Mof_H 	H 	0.5455	0.3356	0.9308	0.048
Mof_H 	H 	0.6257	0.4734	0.99	0.062
Mof_H 	H 	0.2593	0.233	0.8846	0.038
Mof_H 	H 	0.186	0.0968	0.8196	0.081
Mof_H 	H 	0.4072	0.0958	0.7815	0.072
Mof_H 	H 	0.4823	0.2322	0.8433	0.042
Mof_H 	H 	0.1245	0.9808	0.7367	0.004
Mof_H 	H 	0.3375	0.9534	0.7559	0.04
Mof_H 	H 	0.216	0.819	0.682	0.03
Mof_H 	H 	0.9916	0.9554	0.8293	0.199
Mof_H 	H 	0.9855	0.992	0.9021	0.185
Mof_C 	C 	0.88762	0.80304	0.3227	-0.219
Mof_C 	C 	0.93965	0.8733	0.37506	0.211
Mof_C 	C 	0.95319	0.87058	0.4434	-0.167
Mof_C 	C 	0.91753	0.79726	0.4557	0.018
Mof_C 	C 	0.86768	0.72656	0.40269	-0.118
Mof_C 	C 	0.85163	0.72826	0.3366	0.08
Mof_C 	C 	0.8702	0.8058	0.2566	0.372
Mof_C 	C 	0.93239	0.79638	0.52683	0.287
Mof_C 	C 	0.96928	0.62936	0.5673	0.108
Mof_C 	C 	0.10501	0.72382	0.5623	0.008
Mof_C 	C 	0.0919	0.645	0.5235	0.001
Mof_C 	C 	0.97204	0.50228	0.4838	0.161
Mof_C 	C 	0.02609	0.46958	0.4586	-0.191
Mof_C 	C 	0.99168	0.38776	0.4232	0.066
Mof_C 	C 	0.90325	0.3367	0.4123	-0.042
Mof_C 	C 	0.84933	0.36926	0.4377	0.018
Mof_C 	C 	0.88394	0.45188	0.4732	-0.148
Mof_C 	C 	0.86741	0.24782	0.3727	0.023
Mof_C 	C 	0.91648	0.20596	0.3644	-0.029
Mof_C 	C 	0.87827	0.12414	0.3258	-0.102
Mof_C 	C 	0.79412	0.08304	0.2969	0.097
Mof_C 	C 	0.74557	0.12354	0.3027	-0.095
Mof_C 	C 	0.78236	0.20512	0.3399	-0.037
Mof_C 	C 	0.79671	0.95782	0.2322	0.064
Mof_C 	C 	0.66082	0.94244	0.24308	-0.004
Mof_C 	C 	0.65414	0.86668	0.2015	0.021
Mof_C 	C 	0.91542	0.80304	0.8227	-0.215
Mof_C 	C 	0.93365	0.8733	0.87506	0.207
Mof_C 	C 	0.91739	0.87058	0.9434	-0.16
Mof_C 	C 	0.87973	0.79726	0.9557	0
Mof_C 	C 	0.85888	0.72656	0.90269	-0.108
Mof_C 	C 	0.87663	0.72826	0.8366	0.073
Mof_C 	C 	0.9356	0.8058	0.7566	0.37
Mof_C 	C 	0.86399	0.79638	0.02683	0.302
Mof_C 	C 	0.66008	0.62936	0.0673	0.086
Mof_C 	C 	0.61881	0.72382	0.0623	0.012
Mof_C 	C 	0.5531	0.645	0.0235	0.001
Mof_C 	C 	0.53024	0.50228	0.9838	0.094
Mof_C 	C 	0.44349	0.46958	0.9586	-0.102
Mof_C 	C 	0.39608	0.38776	0.9232	-0.025
Mof_C 	C 	0.43345	0.3367	0.9123	0.007
Mof_C 	C 	0.51993	0.36926	0.9377	-0.032
Mof_C 	C 	0.56794	0.45188	0.9732	-0.097
Mof_C 	C 	0.38041	0.24782	0.8727	-0.006
Mof_C 	C 	0.28948	0.20596	0.8644	-0.009
Mof_C 	C 	0.24587	0.12414	0.8258	-0.119
Mof_C 	C 	0.28892	0.08304	0.7969	0.111
Mof_C 	C 	0.37797	0.12354	0.8027	-0.111
Mof_C 	C 	0.42276	0.20512	0.8399	-0.016
Mof_C 	C 	0.16111	0.95782	0.7322	0.064
Mof_C 	C 	0.28162	0.94244	0.74308	-0.003
Mof_C 	C 	0.21254	0.86668	0.7015	0.02
Mof_N 	N 	0.97433	0.9498	0.36793	-0.337
Mof_N 	N 	0.02851	0.71362	0.58875	-0.185
Mof_N 	N 	0.00677	0.58654	0.52663	-0.152
Mof_N 	N 	0.74958	0.99696	0.26046	-0.123
Mof_N 	N 	0.73622	0.8758	0.19513	-0.189
Mof_N 	N 	0.97547	0.9498	0.86793	-0.35
Mof_N 	N 	0.68511	0.71362	0.08875	-0.178
Mof_N 	N 	0.57977	0.58654	0.02663	-0.128
Mof_N 	N 	0.24738	0.99696	0.76046	-0.127
Mof_N 	N 	0.13958	0.8758	0.69513	-0.189
Mof_O 	O 	0.81498	0.74164	0.21065	-0.349
Mof_O 	O 	0.90374	0.86742	0.23835	-0.369
Mof_O 	O 	0.99288	0.8601	0.56647	-0.336
Mof_O 	O 	0.89149	0.73966	0.54928	-0.296
Mof_O 	O 	0.92666	0.74164	0.71065	-0.342
Mof_O 	O 	0.96368	0.86742	0.73835	-0.366
Mof_O 	O 	0.86722	0.8601	0.06647	-0.343
Mof_O 	O 	0.84817	0.73966	0.04928	-0.299
Mof_Mn	Mn	0.34729	0.51092	0.19396	0.84
Mof_Mn	Mn	0.16363	0.51092	0.69396	0.838
Mof_H 	H 	0.3389	0.6384	0.0322	0.136
Mof_H 	H 	0.195	0.397	0.9738	0.096
Mof_H 	H 	0.1783	0.3938	0.8604	0.004
Mof_H 	H 	0.2715	0.3312	0.0724	0.012
Mof_H 	H 	0.4957	0.4488	0.2025	0.024
Mof_H 	H 	0.485	0.3176	0.1211	0.041
Mof_H 	H 	0.4445	0.223	0.0059	0.103
Mof_H 	H 	0.3881	0.0942	0.9338	0.022
Mof_H 	H 	0.1484	0.045	0.9757	0.03
Mof_H 	H 	0.2052	0.1794	0.0448	0.089
Mof_H 	H 	0.3447	0.9752	0.8862	0.042
Mof_H 	H 	0.2925	0.8404	0.8173	0.079
Mof_H 	H 	0.051	0.8034	0.8282	0.074
Mof_H 	H 	0.1019	0.9364	0.8978	0.042
Mof_H 	H 	0.2366	0.7022	0.7848	0.009
Mof_H 	H 	0.0095	0.6944	0.7349	0.042
Mof_H 	H 	0.0037	0.5618	0.6608	0.023
Mof_H 	H 	0.368	0.707	0.9565	0.17
Mof_H 	H 	0.3327	0.6694	0.882	0.193
Mof_H 	H 	0.2995	0.6384	0.5322	0.111
Mof_H 	H 	0.202	0.397	0.4738	0.084
Mof_H 	H 	0.2155	0.3938	0.3604	0.015
Mof_H 	H 	0.0597	0.3312	0.5724	0.013
Mof_H 	H 	0.9531	0.4488	0.7025	0.023
Mof_H 	H 	0.8326	0.3176	0.6211	0.042
Mof_H 	H 	0.7785	0.223	0.5059	0.086
Mof_H 	H 	0.7061	0.0942	0.4338	0.028
Mof_H 	H 	0.8966	0.045	0.4757	0.03
Mof_H 	H 	0.9742	0.1794	0.5448	0.093
Mof_H 	H 	0.6305	0.9752	0.3862	0.045
Mof_H 	H 	0.5479	0.8404	0.3173	0.079
Mof_H 	H 	0.7524	0.8034	0.3282	0.077
Mof_H 	H 	0.8345	0.9364	0.3978	0.048
Mof_H 	H 	0.4656	0.7022	0.2848	0.009
Mof_H 	H 	0.6849	0.6944	0.2349	0.045
Mof_H 	H 	0.5581	0.5618	0.1608	0.028
Mof_H 	H 	0.339	0.707	0.4565	0.171
Mof_H 	H 	0.3367	0.6694	0.382	0.192
Mof_C 	C 	0.24523	0.51466	0.8797	-0.218
Mof_C 	C 	0.29481	0.59062	0.931	0.234
Mof_C 	C 	0.30582	0.58964	0.9973	-0.241
Mof_C 	C 	0.26856	0.51752	0.0124	0.072
Mof_C 	C 	0.22044	0.44508	0.9626	-0.17
Mof_C 	C 	0.2096	0.4432	0.895	0.113
Mof_C 	C 	0.2307	0.5162	0.8078	0.37
Mof_C 	C 	0.28355	0.5177	0.0835	0.258
Mof_C 	C 	0.32368	0.34296	0.09502	0.081
Mof_C 	C 	0.45027	0.40994	0.1679	0.012
Mof_C 	C 	0.44386	0.33512	0.1221	-0.002
Mof_C 	C 	0.32901	0.21302	0.0354	0.142
Mof_C 	C 	0.38585	0.1877	0.9998	-0.166
Mof_C 	C 	0.3517	0.1114	0.9575	0.027
Mof_C 	C 	0.26245	0.0549	0.9466	-0.029
Mof_C 	C 	0.20686	0.08052	0.9811	-0.001
Mof_C 	C 	0.2418	0.1606	0.0236	-0.129
Mof_C 	C 	0.22863	0.96966	0.89957	0.016
Mof_C 	C 	0.28572	0.94064	0.8749	-0.02
Mof_C 	C 	0.25445	0.8599	0.8333	-0.114
Mof_C 	C 	0.16634	0.80868	0.8157	0.119
Mof_C 	C 	0.10994	0.83768	0.84	-0.113
Mof_C 	C 	0.14046	0.91752	0.8817	-0.022
Mof_C 	C 	0.18126	0.68412	0.764	0.073
Mof_C 	C 	0.05299	0.67998	0.735	-0.009
Mof_C 	C 	0.04887	0.60394	0.694	0.008
Mof_C 	C 	0.26943	0.51466	0.3797	-0.198
Mof_C 	C 	0.29581	0.59062	0.431	0.211
Mof_C 	C 	0.28382	0.58964	0.4973	-0.186
Mof_C 	C 	0.24896	0.51752	0.5124	0.022
Mof_C 	C 	0.22464	0.44508	0.4626	-0.126
Mof_C 	C 	0.2336	0.4432	0.395	0.084
Mof_C 	C 	0.2855	0.5162	0.3078	0.363
Mof_C 	C 	0.23415	0.5177	0.5835	0.274
Mof_C 	C 	0.01928	0.34296	0.59502	0.069
Mof_C 	C 	0.95967	0.40994	0.6679	0.022
Mof_C 	C 	0.89126	0.33512	0.6221	-0.006
Mof_C 	C 	0.88401	0.21302	0.5354	0.128
Mof_C 	C 	0.80185	0.1877	0.4998	-0.132
Mof_C 	C 	0.7597	0.1114	0.4575	0.013
Mof_C 	C 	0.79245	0.0549	0.4466	-0.03
Mof_C 	C 	0.87366	0.08052	0.4811	0.007
Mof_C 	C 	0.9188	0.1606	0.5236	-0.133
Mof_C 	C 	0.74103	0.96966	0.39957	0.023
Mof_C 	C 	0.65492	0.94064	0.3749	-0.023
Mof_C 	C 	0.60545	0.8599	0.3333	-0.111
Mof_C 	C 	0.64234	0.80868	0.3157	0.118
Mof_C 	C 	0.72774	0.83768	0.34	-0.109
Mof_C 	C 	0.77706	0.91752	0.3817	-0.025
Mof_C 	C 	0.50286	0.68412	0.264	0.074
Mof_C 	C 	0.62699	0.67998	0.235	-0.007
Mof_C 	C 	0.55507	0.60394	0.194	0.01
Mof_N 	N 	0.33693	0.66466	0.9221	-0.356
Mof_N 	N 	0.37522	0.41304	0.15041	-0.186
Mof_N 	N 	0.36413	0.29386	0.07953	-0.138
Mof_N 	N 	0.13548	0.72816	0.7753	-0.136
Mof_N 	N 	0.12787	0.60634	0.7146	-0.181
Mof_N 	N 	0.32773	0.66466	0.4221	-0.35
Mof_N 	N 	0.03782	0.41304	0.65041	-0.19
Mof_N 	N 	0.92973	0.29386	0.57953	-0.131
Mof_N 	N 	0.59268	0.72816	0.2753	-0.136
Mof_N 	N 	0.47847	0.60634	0.2146	-0.18
Mof_O 	O 	0.17987	0.4529	0.76486	-0.39
Mof_O 	O 	0.27248	0.57884	0.79036	-0.349
Mof_O 	O 	0.34107	0.58418	0.12419	-0.304
Mof_O 	O 	0.2484	0.4612	0.10751	-0.345
Mof_O 	O 	0.27303	0.4529	0.26486	-0.388
Mof_O 	O 	0.30636	0.57884	0.29036	-0.347
Mof_O 	O 	0.24311	0.58418	0.62419	-0.309
Mof_O 	O 	0.2128	0.4612	0.60751	-0.351
_end
