data_functionalizedCrystal
_audit_creation_method	'EQeq! by Chris Wilmer'
_symmetry_space_group_name_H-M	'P1'
_symmetry_Int_Tables_number	1
_symmetry_cell_setting	triclinic
loop_
_symmetry_equiv_pos_as_xyz
  x,y,z
_cell_length_a	17.953
_cell_length_b	19.8193
_cell_length_c	23.023
_cell_angle_alpha	90
_cell_angle_beta	90
_cell_angle_gamma	116.931
loop_
_atom_site_label
_atom_site_type_symbol
_atom_site_fract_x
_atom_site_fract_y
_atom_site_fract_z
_atom_site_charge
Mof_Zn	Zn	0.08535	0.56344	-0	1.182
Mof_Zn	Zn	0.91465	0.43656	-0	1.182
Mof_Zn	Zn	0.47809	0.56344	0.5	1.199
Mof_Zn	Zn	0.52191	0.43656	0.5	1.199
Mof_H 	H 	0.1918	0.4692	0.8723	-0.003
Mof_H 	H 	0.9972	0.2464	0.7945	0.117
Mof_H 	H 	0.9578	0.3054	0.866	-0.003
Mof_H 	H 	0.2321	0.4082	0.8051	0.119
Mof_H 	H 	0.1166	0.1862	0.8343	0.089
Mof_H 	H 	0.0513	0.0572	0.8343	0.034
Mof_H 	H 	0.8082	0.5308	0.8723	-0.003
Mof_H 	H 	0.0028	0.7536	0.7945	0.117
Mof_H 	H 	0.0422	0.6946	0.866	-0.003
Mof_H 	H 	0.7679	0.5918	0.8051	0.119
Mof_H 	H 	0.8834	0.8138	0.8343	0.089
Mof_H 	H 	0.9487	0.9428	0.8343	0.034
Mof_H 	H 	0.2774	0.4692	0.6277	-0.011
Mof_H 	H 	0.2492	0.2464	0.7055	0.119
Mof_H 	H 	0.3476	0.3054	0.634	-0.01
Mof_H 	H 	0.1761	0.4082	0.6949	0.118
Mof_H 	H 	0.0696	0.1862	0.6657	0.083
Mof_H 	H 	0.0059	0.0572	0.6657	0.028
Mof_H 	H 	0.7226	0.5308	0.6277	-0.011
Mof_H 	H 	0.7508	0.7536	0.7055	0.119
Mof_H 	H 	0.6524	0.6946	0.634	-0.01
Mof_H 	H 	0.8239	0.5918	0.6949	0.118
Mof_H 	H 	0.9304	0.8138	0.6657	0.083
Mof_H 	H 	0.9941	0.9428	0.6657	0.028
Mof_H 	H 	0.8082	0.5308	0.1277	-0.02
Mof_H 	H 	0.0028	0.7536	0.2055	0.116
Mof_H 	H 	0.0422	0.6946	0.134	-0.018
Mof_H 	H 	0.7679	0.5918	0.1949	0.115
Mof_H 	H 	0.8834	0.8138	0.1657	0.077
Mof_H 	H 	0.9487	0.9428	0.1657	0.022
Mof_H 	H 	0.1918	0.4692	0.1277	-0.02
Mof_H 	H 	0.9972	0.2464	0.2055	0.116
Mof_H 	H 	0.9578	0.3054	0.134	-0.018
Mof_H 	H 	0.2321	0.4082	0.1949	0.115
Mof_H 	H 	0.1166	0.1862	0.1657	0.077
Mof_H 	H 	0.0513	0.0572	0.1657	0.022
Mof_H 	H 	0.7226	0.5308	0.3723	-0.013
Mof_H 	H 	0.7508	0.7536	0.2945	0.115
Mof_H 	H 	0.6524	0.6946	0.366	-0.012
Mof_H 	H 	0.8239	0.5918	0.3051	0.117
Mof_H 	H 	0.9304	0.8138	0.3343	0.083
Mof_H 	H 	0.9941	0.9428	0.3343	0.027
Mof_H 	H 	0.2774	0.4692	0.3723	-0.013
Mof_H 	H 	0.2492	0.2464	0.2945	0.115
Mof_H 	H 	0.3476	0.3054	0.366	-0.012
Mof_H 	H 	0.1761	0.4082	0.3051	0.117
Mof_H 	H 	0.0696	0.1862	0.3343	0.083
Mof_H 	H 	0.0059	0.0572	0.3343	0.027
Mof_C 	C 	0.04628	0.43466	0.92152	0.428
Mof_C 	C 	0.07074	0.39522	0.87697	-0.199
Mof_C 	C 	0.15204	0.42362	0.85721	0.149
Mof_C 	C 	0.11731	0.3196	0.79193	0.204
Mof_C 	C 	0.03725	0.2913	0.81066	-0.236
Mof_C 	C 	0.01297	0.32716	0.85333	0.141
Mof_C 	C 	0.17641	0.38762	0.81652	-0.237
Mof_C 	C 	0.09396	0.16026	0.79995	-0.144
Mof_C 	C 	0.055	0.08296	0.79986	0.002
Mof_C 	C 	0.95372	0.56534	0.92152	0.428
Mof_C 	C 	0.92926	0.60478	0.87697	-0.199
Mof_C 	C 	0.84796	0.57638	0.85721	0.149
Mof_C 	C 	0.88269	0.6804	0.79193	0.204
Mof_C 	C 	0.96275	0.7087	0.81066	-0.236
Mof_C 	C 	0.98703	0.67284	0.85333	0.141
Mof_C 	C 	0.82359	0.61238	0.81652	-0.237
Mof_C 	C 	0.90604	0.83974	0.79995	-0.144
Mof_C 	C 	0.945	0.91704	0.79986	0.002
Mof_C 	C 	0.38838	0.43466	0.57848	0.434
Mof_C 	C 	0.32448	0.39522	0.62303	-0.211
Mof_C 	C 	0.27158	0.42362	0.64279	0.154
Mof_C 	C 	0.20229	0.3196	0.70807	0.207
Mof_C 	C 	0.25405	0.2913	0.68934	-0.243
Mof_C 	C 	0.31419	0.32716	0.64667	0.147
Mof_C 	C 	0.21121	0.38762	0.68348	-0.245
Mof_C 	C 	0.0663	0.16026	0.70005	-0.145
Mof_C 	C 	0.02796	0.08296	0.70014	0.002
Mof_C 	C 	0.61162	0.56534	0.57848	0.434
Mof_C 	C 	0.67552	0.60478	0.62303	-0.211
Mof_C 	C 	0.72842	0.57638	0.64279	0.154
Mof_C 	C 	0.79771	0.6804	0.70807	0.207
Mof_C 	C 	0.74595	0.7087	0.68934	-0.243
Mof_C 	C 	0.68581	0.67284	0.64667	0.147
Mof_C 	C 	0.78879	0.61238	0.68348	-0.245
Mof_C 	C 	0.9337	0.83974	0.70005	-0.145
Mof_C 	C 	0.97204	0.91704	0.70014	0.002
Mof_C 	C 	0.95372	0.56534	0.07848	0.435
Mof_C 	C 	0.92926	0.60478	0.12303	-0.222
Mof_C 	C 	0.84796	0.57638	0.14279	0.156
Mof_C 	C 	0.88269	0.6804	0.20807	0.206
Mof_C 	C 	0.96275	0.7087	0.18934	-0.249
Mof_C 	C 	0.98703	0.67284	0.14667	0.148
Mof_C 	C 	0.82359	0.61238	0.18348	-0.251
Mof_C 	C 	0.90604	0.83974	0.20005	-0.146
Mof_C 	C 	0.945	0.91704	0.20014	-0.001
Mof_C 	C 	0.04628	0.43466	0.07848	0.435
Mof_C 	C 	0.07074	0.39522	0.12303	-0.222
Mof_C 	C 	0.15204	0.42362	0.14279	0.156
Mof_C 	C 	0.11731	0.3196	0.20807	0.206
Mof_C 	C 	0.03725	0.2913	0.18934	-0.249
Mof_C 	C 	0.01297	0.32716	0.14667	0.148
Mof_C 	C 	0.17641	0.38762	0.18348	-0.251
Mof_C 	C 	0.09396	0.16026	0.20005	-0.146
Mof_C 	C 	0.055	0.08296	0.20014	-0.001
Mof_C 	C 	0.61162	0.56534	0.42152	0.433
Mof_C 	C 	0.67552	0.60478	0.37697	-0.212
Mof_C 	C 	0.72842	0.57638	0.35721	0.153
Mof_C 	C 	0.79771	0.6804	0.29193	0.204
Mof_C 	C 	0.74595	0.7087	0.31066	-0.244
Mof_C 	C 	0.68581	0.67284	0.35333	0.145
Mof_C 	C 	0.78879	0.61238	0.31652	-0.245
Mof_C 	C 	0.9337	0.83974	0.29995	-0.145
Mof_C 	C 	0.97204	0.91704	0.29986	-0
Mof_C 	C 	0.38838	0.43466	0.42152	0.433
Mof_C 	C 	0.32448	0.39522	0.37697	-0.212
Mof_C 	C 	0.27158	0.42362	0.35721	0.153
Mof_C 	C 	0.20229	0.3196	0.29193	0.204
Mof_C 	C 	0.25405	0.2913	0.31066	-0.244
Mof_C 	C 	0.31419	0.32716	0.35333	0.145
Mof_C 	C 	0.21121	0.38762	0.31652	-0.245
Mof_C 	C 	0.0663	0.16026	0.29995	-0.145
Mof_C 	C 	0.02796	0.08296	0.29986	-0
Mof_C 	C 	0.09989	0.19978	0.75	0.135
Mof_C 	C 	0.02118	0.04236	0.75	-0.015
Mof_C 	C 	0.90011	0.80022	0.75	0.135
Mof_C 	C 	0.97882	0.95764	0.75	-0.015
Mof_C 	C 	0.90011	0.80022	0.25	0.132
Mof_C 	C 	0.97882	0.95764	0.25	-0.018
Mof_C 	C 	0.09989	0.19978	0.25	0.132
Mof_C 	C 	0.02118	0.04236	0.25	-0.018
Mof_N 	N 	0.14054	0.28108	0.75	-0.198
Mof_N 	N 	0.85946	0.71892	0.75	-0.198
Mof_N 	N 	0.85946	0.71892	0.25	-0.2
Mof_N 	N 	0.14054	0.28108	0.25	-0.2
Mof_O 	O 	0.1014	0.49794	0.93857	-0.461
Mof_O 	O 	0.97131	0.40224	0.93885	-0.464
Mof_O 	O 	0.8986	0.50206	0.93857	-0.461
Mof_O 	O 	0.02869	0.59776	0.93885	-0.464
Mof_O 	O 	0.39654	0.49794	0.56143	-0.485
Mof_O 	O 	0.43093	0.40224	0.56115	-0.488
Mof_O 	O 	0.60346	0.50206	0.56143	-0.485
Mof_O 	O 	0.56907	0.59776	0.56115	-0.488
Mof_O 	O 	0.8986	0.50206	0.06143	-0.502
Mof_O 	O 	0.02869	0.59776	0.06115	-0.504
Mof_O 	O 	0.1014	0.49794	0.06143	-0.502
Mof_O 	O 	0.97131	0.40224	0.06115	-0.504
Mof_O 	O 	0.60346	0.50206	0.43857	-0.486
Mof_O 	O 	0.56907	0.59776	0.43885	-0.489
Mof_O 	O 	0.39654	0.49794	0.43857	-0.486
Mof_O 	O 	0.43093	0.40224	0.43885	-0.489
_end
