# CIF file generated by openbabel 3.1.0, see https://openbabel.org
data_I
_chemical_name_common 'image0'
_cell_length_a 12.5247
_cell_length_b 32.2184
_cell_length_c 7.6101
_cell_angle_alpha 90
_cell_angle_beta 98.856
_cell_angle_gamma 90
_space_group_name_H-M_alt 'P 1'
_space_group_name_Hall 'P 1'
loop_
    _symmetry_equiv_pos_as_xyz
    x,y,z
loop_
    _atom_site_label
    _atom_site_type_symbol
    _atom_site_fract_x
    _atom_site_fract_y
    _atom_site_fract_z
    _atom_site_occupancy
    Tb1      Tb       0.97132    0.61501    0.18995    1.000
    O1       O        0.13160    0.59160    0.09690    1.000
    O2       O        0.81470    0.58390    0.27600    1.000
    Cd1      Cd       0.47213    0.55056    0.18983    1.000
    N1       N        0.54840    0.60210    0.03780    1.000
    Cd2      Cd       0.07574    0.76239    0.44372    1.000
    N2       N        0.57530    0.66890    0.98300    1.000
    Cl1      Cl       0.97250    0.73319    0.66430    1.000
    C1       C        0.29630    0.61950    0.25370    1.000
    C2       C        0.65000    0.61190    0.11570    1.000
    C3       C        0.27350    0.65970    0.29690    1.000
    C4       C        0.71010    0.61680    0.66670    1.000
    H1       H        0.74590    0.59320    0.71520    1.000
    C5       C        0.66720    0.65360    0.08140    1.000
    C6       C        0.44330    0.64440    0.40050    1.000
    C7       C        0.24320    0.60810    0.68420    1.000
    H2       H        0.21230    0.58560    0.61890    1.000
    C8       C        0.50680    0.63710    0.96050    1.000
    C9       C        0.75820    0.68300    0.13900    1.000
    C10      C        0.71480    0.58080    0.22780    1.000
    N3       N        0.76320    0.65280    0.68020    1.000
    N4       N        0.18350    0.64190    0.69010    1.000
    C11      C        0.23030    0.58600    0.14470    1.000
    C12      C        0.71350    0.68650    0.60150    1.000
    H3       H        0.74990    0.71170    0.61340    1.000
    C13      C        0.39750    0.63940    0.86560    1.000
    C14      C        0.55510    0.64820    0.49530    1.000
    C15      C        0.22750    0.67460    0.78060    1.000
    H4       H        0.18540    0.69820    0.78800    1.000
    O3       O        0.66150    0.54910    0.27280    1.000
    C16      C        0.60960    0.68540    0.50270    1.000
    H5       H        0.57870    0.70890    0.44440    1.000
    C17      C        0.35010    0.60430    0.77050    1.000
    H6       H        0.38850    0.57970    0.76560    1.000
    O4       O        0.73940    0.72130    0.12600    1.000
    C18      C        0.33320    0.67480    0.86370    1.000
    H7       H        0.36230    0.69890    0.91930    1.000
    C19      C        0.60610    0.61300    0.58530    1.000
    H8       H        0.56910    0.58800    0.58820    1.000
    O5       O        0.90310    0.56250    0.98290    1.000
    H9       H        0.88390    0.53630    0.02090    1.000
    H10      H        0.83720    0.57230    0.00510    1.000
    N5       N        0.36860    0.67420    0.38970    1.000
    H11      H        0.37860    0.69870    0.43400    1.000
    N6       N        0.40260    0.61030    0.31750    1.000
    C20      C        0.17560    0.68690    0.27270    1.000
    Cl2      Cl       0.45780    0.48724    0.98880    1.000
    O6       O        0.19560    0.72330    0.33260    1.000
    O7       O        0.85120    0.66880    0.19910    1.000
    O8       O        0.08680    0.67400    0.20480    1.000
    O9       O        0.28180    0.55410    0.10820    1.000
    Tb2      Tb       0.47132    0.11501    0.18995    1.000
    O10      O        0.63160    0.09160    0.09690    1.000
    O11      O        0.31470    0.08390    0.27600    1.000
    Cd3      Cd       0.97213    0.05056    0.18983    1.000
    N7       N        0.04840    0.10210    0.03780    1.000
    Cd4      Cd       0.57574    0.26239    0.44372    1.000
    N8       N        0.07530    0.16890    0.98300    1.000
    Cl3      Cl       0.47250    0.23319    0.66430    1.000
    C21      C        0.79630    0.11950    0.25370    1.000
    C22      C        0.15000    0.11190    0.11570    1.000
    C23      C        0.77350    0.15970    0.29690    1.000
    C24      C        0.21010    0.11680    0.66670    1.000
    H12      H        0.24590    0.09320    0.71520    1.000
    C25      C        0.16720    0.15360    0.08140    1.000
    C26      C        0.94330    0.14440    0.40050    1.000
    C27      C        0.74320    0.10810    0.68420    1.000
    H13      H        0.71230    0.08560    0.61890    1.000
    C28      C        0.00680    0.13710    0.96050    1.000
    C29      C        0.25820    0.18300    0.13900    1.000
    C30      C        0.21480    0.08080    0.22780    1.000
    N9       N        0.26320    0.15280    0.68020    1.000
    N10      N        0.68350    0.14190    0.69010    1.000
    C31      C        0.73030    0.08600    0.14470    1.000
    C32      C        0.21350    0.18650    0.60150    1.000
    H14      H        0.24990    0.21170    0.61340    1.000
    C33      C        0.89750    0.13940    0.86560    1.000
    C34      C        0.05510    0.14820    0.49530    1.000
    C35      C        0.72750    0.17460    0.78060    1.000
    H15      H        0.68540    0.19820    0.78800    1.000
    O12      O        0.16150    0.04910    0.27280    1.000
    C36      C        0.10960    0.18540    0.50270    1.000
    H16      H        0.07870    0.20890    0.44440    1.000
    C37      C        0.85010    0.10430    0.77050    1.000
    H17      H        0.88850    0.07970    0.76560    1.000
    O13      O        0.23940    0.22130    0.12600    1.000
    C38      C        0.83320    0.17480    0.86370    1.000
    H18      H        0.86230    0.19890    0.91930    1.000
    C39      C        0.10610    0.11300    0.58530    1.000
    H19      H        0.06910    0.08800    0.58820    1.000
    O14      O        0.40310    0.06250    0.98290    1.000
    H20      H        0.38390    0.03630    0.02090    1.000
    H21      H        0.33720    0.07230    0.00510    1.000
    N11      N        0.86860    0.17420    0.38970    1.000
    H22      H        0.87860    0.19870    0.43400    1.000
    N12      N        0.90260    0.11030    0.31750    1.000
    C40      C        0.67560    0.18690    0.27270    1.000
    Cl4      Cl       0.95780    0.98724    0.98880    1.000
    O15      O        0.69560    0.22330    0.33260    1.000
    O16      O        0.35120    0.16880    0.19910    1.000
    O17      O        0.58680    0.17400    0.20480    1.000
    O18      O        0.78180    0.05410    0.10820    1.000
    Tb3      Tb       0.97132    0.38499    0.68995    1.000
    O19      O        0.13160    0.40840    0.59690    1.000
    O20      O        0.81470    0.41610    0.77600    1.000
    Cd5      Cd       0.47213    0.44944    0.68983    1.000
    N13      N        0.54840    0.39790    0.53780    1.000
    Cd6      Cd       0.07574    0.23761    0.94372    1.000
    N14      N        0.57530    0.33110    0.48300    1.000
    Cl5      Cl       0.97250    0.26681    0.16430    1.000
    C41      C        0.29630    0.38050    0.75370    1.000
    C42      C        0.65000    0.38810    0.61570    1.000
    C43      C        0.27350    0.34030    0.79690    1.000
    C44      C        0.71010    0.38320    0.16670    1.000
    H23      H        0.74590    0.40680    0.21520    1.000
    C45      C        0.66720    0.34640    0.58140    1.000
    C46      C        0.44330    0.35560    0.90050    1.000
    C47      C        0.24320    0.39190    0.18420    1.000
    H24      H        0.21230    0.41440    0.11890    1.000
    C48      C        0.50680    0.36290    0.46050    1.000
    C49      C        0.75820    0.31700    0.63900    1.000
    C50      C        0.71480    0.41920    0.72780    1.000
    N15      N        0.76320    0.34720    0.18020    1.000
    N16      N        0.18350    0.35810    0.19010    1.000
    C51      C        0.23030    0.41400    0.64470    1.000
    C52      C        0.71350    0.31350    0.10150    1.000
    H25      H        0.74990    0.28830    0.11340    1.000
    C53      C        0.39750    0.36060    0.36560    1.000
    C54      C        0.55510    0.35180    0.99530    1.000
    C55      C        0.22750    0.32540    0.28060    1.000
    H26      H        0.18540    0.30180    0.28800    1.000
    O21      O        0.66150    0.45090    0.77280    1.000
    C56      C        0.60960    0.31460    0.00270    1.000
    H27      H        0.57870    0.29110    0.94440    1.000
    C57      C        0.35010    0.39570    0.27050    1.000
    H28      H        0.38850    0.42030    0.26560    1.000
    O22      O        0.73940    0.27870    0.62600    1.000
    C58      C        0.33320    0.32520    0.36370    1.000
    H29      H        0.36230    0.30110    0.41930    1.000
    C59      C        0.60610    0.38700    0.08530    1.000
    H30      H        0.56910    0.41200    0.08820    1.000
    O23      O        0.90310    0.43750    0.48290    1.000
    H31      H        0.88390    0.46370    0.52090    1.000
    H32      H        0.83720    0.42770    0.50510    1.000
    N17      N        0.36860    0.32580    0.88970    1.000
    H33      H        0.37860    0.30130    0.93400    1.000
    N18      N        0.40260    0.38970    0.81750    1.000
    C60      C        0.17560    0.31310    0.77270    1.000
    Cl6      Cl       0.45780    0.51276    0.48880    1.000
    O24      O        0.19560    0.27670    0.83260    1.000
    O25      O        0.85120    0.33120    0.69910    1.000
    O26      O        0.08680    0.32600    0.70480    1.000
    O27      O        0.28180    0.44590    0.60820    1.000
    Tb4      Tb       0.47132    0.88499    0.68995    1.000
    O28      O        0.63160    0.90840    0.59690    1.000
    O29      O        0.31470    0.91610    0.77600    1.000
    Cd7      Cd       0.97213    0.94944    0.68983    1.000
    N19      N        0.04840    0.89790    0.53780    1.000
    Cd8      Cd       0.57574    0.73761    0.94372    1.000
    N20      N        0.07530    0.83110    0.48300    1.000
    Cl7      Cl       0.47250    0.76681    0.16430    1.000
    C61      C        0.79630    0.88050    0.75370    1.000
    C62      C        0.15000    0.88810    0.61570    1.000
    C63      C        0.77350    0.84030    0.79690    1.000
    C64      C        0.21010    0.88320    0.16670    1.000
    H34      H        0.24590    0.90680    0.21520    1.000
    C65      C        0.16720    0.84640    0.58140    1.000
    C66      C        0.94330    0.85560    0.90050    1.000
    C67      C        0.74320    0.89190    0.18420    1.000
    H35      H        0.71230    0.91440    0.11890    1.000
    C68      C        0.00680    0.86290    0.46050    1.000
    C69      C        0.25820    0.81700    0.63900    1.000
    C70      C        0.21480    0.91920    0.72780    1.000
    N21      N        0.26320    0.84720    0.18020    1.000
    N22      N        0.68350    0.85810    0.19010    1.000
    C71      C        0.73030    0.91400    0.64470    1.000
    C72      C        0.21350    0.81350    0.10150    1.000
    H36      H        0.24990    0.78830    0.11340    1.000
    C73      C        0.89750    0.86060    0.36560    1.000
    C74      C        0.05510    0.85180    0.99530    1.000
    C75      C        0.72750    0.82540    0.28060    1.000
    H37      H        0.68540    0.80180    0.28800    1.000
    O30      O        0.16150    0.95090    0.77280    1.000
    C76      C        0.10960    0.81460    0.00270    1.000
    H38      H        0.07870    0.79110    0.94440    1.000
    C77      C        0.85010    0.89570    0.27050    1.000
    H39      H        0.88850    0.92030    0.26560    1.000
    O31      O        0.23940    0.77870    0.62600    1.000
    C78      C        0.83320    0.82520    0.36370    1.000
    H40      H        0.86230    0.80110    0.41930    1.000
    C79      C        0.10610    0.88700    0.08530    1.000
    H41      H        0.06910    0.91200    0.08820    1.000
    O32      O        0.40310    0.93750    0.48290    1.000
    H42      H        0.38390    0.96370    0.52090    1.000
    H43      H        0.33720    0.92770    0.50510    1.000
    N23      N        0.86860    0.82580    0.88970    1.000
    H44      H        0.87860    0.80130    0.93400    1.000
    N24      N        0.90260    0.88970    0.81750    1.000
    C80      C        0.67560    0.81310    0.77270    1.000
    Cl8      Cl       0.95780    0.01276    0.48880    1.000
    O33      O        0.69560    0.77670    0.83260    1.000
    O34      O        0.35120    0.83120    0.69910    1.000
    O35      O        0.58680    0.82600    0.70480    1.000
    O36      O        0.78180    0.94590    0.60820    1.000
