# CIF file generated by openbabel 3.1.0, see https://openbabel.org
data_I
_chemical_name_common 'image0'
_cell_length_a 10.488
_cell_length_b 10.212
_cell_length_c 11.273
_cell_angle_alpha 90
_cell_angle_beta 92.89
_cell_angle_gamma 90
_space_group_name_H-M_alt 'P 1'
_space_group_name_Hall 'P 1'
loop_
    _symmetry_equiv_pos_as_xyz
    x,y,z
loop_
    _atom_site_label
    _atom_site_type_symbol
    _atom_site_fract_x
    _atom_site_fract_y
    _atom_site_fract_z
    _atom_site_occupancy
    Cd1      Cd       0.63410    0.13621    0.60660    1.000
    S1       S        0.39839    0.14701    0.56416    1.000
    N1       N        0.29090    0.90660    0.57120    1.000
    N2       N        0.23660    0.82410    0.65190    1.000
    N3       N        0.31070    0.99950    0.74930    1.000
    C1       C        0.33380    0.01130    0.63240    1.000
    C2       C        0.25090    0.88330    0.75560    1.000
    H1       H        0.22260    0.84840    0.82580    1.000
    Cd2      Cd       0.13410    0.63621    0.60660    1.000
    S2       S        0.89839    0.64701    0.56416    1.000
    N4       N        0.79090    0.40660    0.57120    1.000
    N5       N        0.73660    0.32410    0.65190    1.000
    N6       N        0.81070    0.49950    0.74930    1.000
    C3       C        0.83380    0.51130    0.63240    1.000
    C4       C        0.75090    0.38330    0.75560    1.000
    H2       H        0.72260    0.34840    0.82580    1.000
    Cd3      Cd       0.36590    0.13621    0.89340    1.000
    S3       S        0.60161    0.14701    0.93584    1.000
    N7       N        0.70910    0.90660    0.92880    1.000
    N8       N        0.76340    0.82410    0.84810    1.000
    N9       N        0.68930    0.99950    0.75070    1.000
    C5       C        0.66620    0.01130    0.86760    1.000
    C6       C        0.74910    0.88330    0.74440    1.000
    H3       H        0.77740    0.84840    0.67420    1.000
    Cd4      Cd       0.86590    0.63621    0.89340    1.000
    S4       S        0.10161    0.64701    0.93584    1.000
    N10      N        0.20910    0.40660    0.92880    1.000
    N11      N        0.26340    0.32410    0.84810    1.000
    N12      N        0.18930    0.49950    0.75070    1.000
    C7       C        0.16620    0.51130    0.86760    1.000
    C8       C        0.24910    0.38330    0.74440    1.000
    H4       H        0.27740    0.34840    0.67420    1.000
    Cd5      Cd       0.36590    0.86379    0.39340    1.000
    S5       S        0.60161    0.85299    0.43584    1.000
    N13      N        0.70910    0.09340    0.42880    1.000
    N14      N        0.76340    0.17590    0.34810    1.000
    N15      N        0.68930    0.00050    0.25070    1.000
    C9       C        0.66620    0.98870    0.36760    1.000
    C10      C        0.74910    0.11670    0.24440    1.000
    H5       H        0.77740    0.15160    0.17420    1.000
    Cd6      Cd       0.86590    0.36379    0.39340    1.000
    S6       S        0.10161    0.35299    0.43584    1.000
    N16      N        0.20910    0.59340    0.42880    1.000
    N17      N        0.26340    0.67590    0.34810    1.000
    N18      N        0.18930    0.50050    0.25070    1.000
    C11      C        0.16620    0.48870    0.36760    1.000
    C12      C        0.24910    0.61670    0.24440    1.000
    H6       H        0.27740    0.65160    0.17420    1.000
    Cd7      Cd       0.63410    0.86379    0.10660    1.000
    S7       S        0.39839    0.85299    0.06416    1.000
    N19      N        0.29090    0.09340    0.07120    1.000
    N20      N        0.23660    0.17590    0.15190    1.000
    N21      N        0.31070    0.00050    0.24930    1.000
    C13      C        0.33380    0.98870    0.13240    1.000
    C14      C        0.25090    0.11670    0.25560    1.000
    H7       H        0.22260    0.15160    0.32580    1.000
    Cd8      Cd       0.13410    0.36379    0.10660    1.000
    S8       S        0.89839    0.35299    0.06416    1.000
    N22      N        0.79090    0.59340    0.07120    1.000
    N23      N        0.73660    0.67590    0.15190    1.000
    N24      N        0.81070    0.50050    0.24930    1.000
    C15      C        0.83380    0.48870    0.13240    1.000
    C16      C        0.75090    0.61670    0.25560    1.000
    H8       H        0.72260    0.65160    0.32580    1.000
