# CIF file generated by openbabel 3.1.0, see https://openbabel.org
data_I
_chemical_name_common 'FIFPAM_clean'
_cell_length_a 8.1266
_cell_length_b 10.4815
_cell_length_c 11.3167
_cell_angle_alpha 62.4127
_cell_angle_beta 84.187
_cell_angle_gamma 77.367
_space_group_name_H-M_alt 'P 1'
_space_group_name_Hall 'P 1'
loop_
    _symmetry_equiv_pos_as_xyz
    x,y,z
loop_
    _atom_site_label
    _atom_site_type_symbol
    _atom_site_fract_x
    _atom_site_fract_y
    _atom_site_fract_z
    _atom_site_occupancy
    Ni1      Ni       0.48977    0.68815    0.50778    1.000
    Ni2      Ni       0.98977    0.19593    0.49222    1.000
    H1       H        0.60000    0.57310    0.78980    1.000
    H2       H        0.41500    0.38130    0.62740    1.000
    H3       H        0.60600    0.37440    0.99920    1.000
    H4       H        0.40080    0.17890    0.82740    1.000
    H5       H        0.52800    0.22080    0.19040    1.000
    H6       H        0.41800    0.98610    0.00980    1.000
    H7       H        0.55500    0.99450    0.39500    1.000
    H8       H        0.42500    0.77600    0.21800    1.000
    H9       H        0.70900    0.38130    0.55940    1.000
    H10      H        0.10000    0.36290    0.21020    1.000
    H11      H        0.91500    0.00870    0.37260    1.000
    H12      H        0.10600    0.37360    0.00080    1.000
    H13      H        0.90080    0.00630    0.17260    1.000
    H14      H        0.02800    0.41120    0.80960    1.000
    H15      H        0.91800    0.99590    0.99020    1.000
    H16      H        0.05500    0.38950    0.60500    1.000
    H17      H        0.92500    0.99400    0.78200    1.000
    H18      H        0.20900    0.94070    0.44060    1.000
    C1       C        0.54740    0.49285    0.80330    1.000
    C2       C        0.44330    0.38129    0.70542    1.000
    C3       C        0.54390    0.37388    0.92824    1.000
    C4       C        0.43820    0.25805    0.82450    1.000
    C5       C        0.48950    0.25258    0.94084    1.000
    C6       C        0.48370    0.12307    0.07306    1.000
    C7       C        0.51730    0.12527    0.19066    1.000
    C8       C        0.44560    0.99354    0.08652    1.000
    C9       C        0.51720    0.00139    0.31062    1.000
    C10      C        0.44550    0.87555    0.21050    1.000
    C11      C        0.72760    0.45460    0.45760    1.000
    C12      C        0.04740    0.29615    0.19670    1.000
    C13      C        0.94330    0.08671    0.29458    1.000
    C14      C        0.04390    0.30212    0.07176    1.000
    C15      C        0.93820    0.08255    0.17550    1.000
    C16      C        0.98950    0.19342    0.05916    1.000
    C17      C        0.98370    0.19613    0.92694    1.000
    C18      C        0.01730    0.31593    0.80934    1.000
    C19      C        0.94560    0.08006    0.91348    1.000
    C20      C        0.01720    0.31201    0.68938    1.000
    C21      C        0.94550    0.08605    0.78950    1.000
    C22      C        0.22760    0.91220    0.54240    1.000
    N1       N        0.49570    0.49877    0.69206    1.000
    N2       N        0.48190    0.87540    0.32300    1.000
    N3       N        0.99570    0.19083    0.30794    1.000
    N4       N        0.98190    0.19840    0.67700    1.000
    O1       O        0.63810    0.58053    0.40718    1.000
    O2       O        0.84320    0.40619    0.39864    1.000
    O3       O        0.13810    0.98771    0.59282    1.000
    O4       O        0.34320    0.80483    0.60136    1.000
