data_functionalizedCrystal
_audit_creation_method	'EQeq! by Chris Wilmer'
_symmetry_space_group_name_H-M	'P1'
_symmetry_Int_Tables_number	1
_symmetry_cell_setting	triclinic
loop_
_symmetry_equiv_pos_as_xyz
  x,y,z
_cell_length_a	9.507
_cell_length_b	9.507
_cell_length_c	17.443
_cell_angle_alpha	90
_cell_angle_beta	90
_cell_angle_gamma	120
loop_
_atom_site_label
_atom_site_type_symbol
_atom_site_fract_x
_atom_site_fract_y
_atom_site_fract_z
_atom_site_charge
Mof_C 	C 	0.3501	0.185	0.1046	0.446
Mof_C 	C 	0.4009	0.0941	0.0514	-0.179
Mof_O 	O 	0.45	0.2705	0.1549	-0.544
Mof_O 	O 	0.2146	0.1728	0.0953	-0.486
Mof_H 	H 	0.4307	0.0279	0.081	0.03
Mof_H 	H 	0.4947	0.1697	0.0227	0.055
Mof_C 	C 	0.815	0.1651	0.1046	0.44
Mof_C 	C 	0.9059	0.3068	0.0514	-0.052
Mof_O 	O 	0.7295	0.1795	0.1549	-0.534
Mof_O 	O 	0.8272	0.0418	0.0953	-0.435
Mof_H 	H 	0.9721	0.4028	0.081	0.081
Mof_H 	H 	0.8303	0.325	0.0227	0.047
Mof_C 	C 	0.8349	0.6499	0.1046	0.469
Mof_C 	C 	0.6932	0.5991	0.0514	-0.232
Mof_O 	O 	0.8205	0.55	0.1549	-0.502
Mof_O 	O 	0.9582	0.7854	0.0953	-0.321
Mof_H 	H 	0.5972	0.5693	0.081	0.092
Mof_H 	H 	0.675	0.5053	0.0227	0.091
Mof_C 	C 	0.3501	0.185	0.3954	0.458
Mof_C 	C 	0.4009	0.0941	0.4486	-0.199
Mof_O 	O 	0.45	0.2705	0.3451	-0.546
Mof_O 	O 	0.2146	0.1728	0.4047	-0.493
Mof_H 	H 	0.4307	0.0279	0.419	0.042
Mof_H 	H 	0.4947	0.1697	0.4773	0.071
Mof_C 	C 	0.815	0.1651	0.3954	0.452
Mof_C 	C 	0.9059	0.3068	0.4486	-0.076
Mof_O 	O 	0.7295	0.1795	0.3451	-0.536
Mof_O 	O 	0.8272	0.0418	0.4047	-0.443
Mof_H 	H 	0.9721	0.4028	0.419	0.093
Mof_H 	H 	0.8303	0.325	0.4773	0.064
Mof_C 	C 	0.8349	0.6499	0.3954	0.48
Mof_C 	C 	0.6932	0.5991	0.4486	-0.253
Mof_O 	O 	0.8205	0.55	0.3451	-0.504
Mof_O 	O 	0.9582	0.7854	0.4047	-0.328
Mof_H 	H 	0.5972	0.5693	0.419	0.104
Mof_H 	H 	0.675	0.5053	0.4773	0.106
Mof_C 	C 	0.185	0.3501	0.8954	0.438
Mof_C 	C 	0.0941	0.4009	0.9486	-0.128
Mof_O 	O 	0.2705	0.45	0.8451	-0.536
Mof_O 	O 	0.1728	0.2146	0.9047	-0.457
Mof_H 	H 	0.0279	0.4307	0.919	0.029
Mof_H 	H 	0.1697	0.4947	0.9773	0.063
Mof_C 	C 	0.1651	0.815	0.8954	0.441
Mof_C 	C 	0.3068	0.9059	0.9486	-0.034
Mof_O 	O 	0.1795	0.7295	0.8451	-0.532
Mof_O 	O 	0.0418	0.8272	0.9047	-0.421
Mof_H 	H 	0.4028	0.9721	0.919	0.087
Mof_H 	H 	0.325	0.8303	0.9773	0.063
Mof_C 	C 	0.6499	0.8349	0.8954	0.465
Mof_C 	C 	0.5991	0.6932	0.9486	-0.196
Mof_O 	O 	0.55	0.8205	0.8451	-0.498
Mof_O 	O 	0.7854	0.9582	0.9047	-0.301
Mof_H 	H 	0.5693	0.5972	0.919	0.098
Mof_H 	H 	0.5053	0.675	0.9773	0.103
Mof_C 	C 	0.185	0.3501	0.6046	0.455
Mof_C 	C 	0.0941	0.4009	0.5514	-0.192
Mof_O 	O 	0.2705	0.45	0.6549	-0.544
Mof_O 	O 	0.1728	0.2146	0.5953	-0.489
Mof_H 	H 	0.0279	0.4307	0.581	0.038
Mof_H 	H 	0.1697	0.4947	0.5227	0.066
Mof_C 	C 	0.1651	0.815	0.6046	0.456
Mof_C 	C 	0.3068	0.9059	0.5514	-0.093
Mof_O 	O 	0.1795	0.7295	0.6549	-0.539
Mof_O 	O 	0.0418	0.8272	0.5953	-0.451
Mof_H 	H 	0.4028	0.9721	0.581	0.096
Mof_H 	H 	0.325	0.8303	0.5227	0.066
Mof_C 	C 	0.6499	0.8349	0.6046	0.48
Mof_C 	C 	0.5991	0.6932	0.5514	-0.253
Mof_O 	O 	0.55	0.8205	0.6549	-0.505
Mof_O 	O 	0.7854	0.9582	0.5953	-0.328
Mof_H 	H 	0.5693	0.5972	0.581	0.106
Mof_H 	H 	0.5053	0.675	0.5227	0.105
Mof_La	La	0.66667	0.33333	0.25	2.169
Mof_La	La	0.33333	0.66667	0.75	2.174
Mof_La	La	-0	0	-0	1.629
Mof_La	La	-1.84889e-32	0	0.5	1.717
Mof_O 	O 	0.2716	0	-0	-0.377
Mof_O 	O 	-0	0.2716	-0	-0.39
Mof_O 	O 	0.7284	0.7284	-0	-0.19
Mof_O 	O 	0.2716	0	0.5	-0.341
Mof_O 	O 	1.25538e-17	0.2716	0.5	-0.352
Mof_O 	O 	0.7284	0.7284	0.5	-0.155
_end
