data_functionalizedCrystal
_audit_creation_method	'EQeq! by Chris Wilmer'
_symmetry_space_group_name_H-M	'P1'
_symmetry_Int_Tables_number	1
_symmetry_cell_setting	triclinic
loop_
_symmetry_equiv_pos_as_xyz
  x,y,z
_cell_length_a	30.3801
_cell_length_b	10.1204
_cell_length_c	10.0977
_cell_angle_alpha	90
_cell_angle_beta	107.712
_cell_angle_gamma	90
loop_
_atom_site_label
_atom_site_type_symbol
_atom_site_fract_x
_atom_site_fract_y
_atom_site_fract_z
_atom_site_charge
Mof_Fe	Fe	0.79644	0.16238	0.9187	0.961
Mof_Fe	Fe	0.79261	0.9225	0.6712	0.806
Mof_Fe	Fe	0.03442	0.6775	0.3999	0.994
Mof_Fe	Fe	0.86542	0.9281	0.0077	0.707
Mof_Fe	Fe	0.94907	0.4316	0.3383	0.849
Mof_Fe	Fe	0.87514	0.1777	0.7708	0.874
Mof_P 	P 	0.76994	0.2192	0.5994	0.546
Mof_P 	P 	0.92853	0.738	0.2859	0.551
Mof_P 	P 	0.88902	0.2193	0.0687	0.496
Mof_P 	P 	0.9004	0.8776	0.7502	0.438
Mof_P 	P 	0.05425	0.3804	0.3558	0.561
Mof_P 	P 	0.75886	0.8741	0.9271	0.46
Mof_O 	O 	0.7614	0.0692	0.5591	-0.247
Mof_O 	O 	0.7599	0.2422	0.7393	-0.323
Mof_O 	O 	0.8203	0.2553	0.6136	-0.308
Mof_O 	O 	0.736	0.3006	0.4901	-0.297
Mof_O 	O 	0.9791	0.7623	0.2823	-0.383
Mof_O 	O 	0.9273	0.7599	0.4362	-0.386
Mof_O 	O 	0.8955	0.8338	0.1934	-0.322
Mof_O 	O 	0.9148	0.594	0.2447	-0.332
Mof_O 	O 	0.8552	0.1085	0.0924	-0.313
Mof_O 	O 	0.8568	0.2789	0.9284	-0.375
Mof_O 	O 	0.9303	0.1599	0.0392	-0.22
Mof_O 	O 	0.8994	0.3193	0.1848	-0.27
Mof_O 	O 	0.8505	0.8421	0.658	-0.335
Mof_O 	O 	0.9352	0.7915	0.7125	-0.307
Mof_O 	O 	0.9044	0.85	0.9039	-0.337
Mof_O 	O 	0.9098	0.024	0.7253	-0.216
Mof_O 	O 	0.0598	0.5311	0.3326	-0.367
Mof_O 	O 	0.0026	0.3447	0.3024	-0.331
Mof_O 	O 	0.0793	0.309	0.269	-0.295
Mof_O 	O 	0.0738	0.3513	0.5113	-0.326
Mof_O 	O 	0.7542	0.8449	0.7711	-0.337
Mof_O 	O 	0.7534	0.0255	0.946	-0.227
Mof_O 	O 	0.8065	0.8265	0.9831	-0.342
Mof_O 	O 	0.7199	0.8027	0.9628	-0.319
Mof_O 	O 	0.8254	0.033	0.8214	-0.442
Mof_Fe	Fe	0.29644	0.66238	0.9187	0.942
Mof_Fe	Fe	0.29261	0.4225	0.6712	1.013
Mof_Fe	Fe	0.53442	0.1775	0.3999	1.021
Mof_Fe	Fe	0.36542	0.4281	0.0077	0.886
Mof_Fe	Fe	0.44907	0.9316	0.3383	0.688
Mof_Fe	Fe	0.37514	0.6777	0.7708	0.838
Mof_P 	P 	0.26994	0.7192	0.5994	0.543
Mof_P 	P 	0.42853	0.238	0.2859	0.553
Mof_P 	P 	0.38902	0.7193	0.0687	0.493
Mof_P 	P 	0.4004	0.3776	0.7502	0.555
Mof_P 	P 	0.55425	0.8804	0.3558	0.452
Mof_P 	P 	0.25886	0.3741	0.9271	0.574
Mof_O 	O 	0.2614	0.5692	0.5591	-0.346
Mof_O 	O 	0.2599	0.7422	0.7393	-0.352
Mof_O 	O 	0.3203	0.7553	0.6136	-0.337
Mof_O 	O 	0.236	0.8006	0.4901	-0.314
Mof_O 	O 	0.4791	0.2623	0.2823	-0.348
Mof_O 	O 	0.4273	0.2599	0.4362	-0.357
Mof_O 	O 	0.3955	0.3338	0.1934	-0.299
Mof_O 	O 	0.4148	0.094	0.2447	-0.243
Mof_O 	O 	0.3552	0.6085	0.0924	-0.385
Mof_O 	O 	0.3568	0.7789	0.9284	-0.397
Mof_O 	O 	0.4303	0.6599	0.0392	-0.264
Mof_O 	O 	0.3994	0.8193	0.1848	-0.295
Mof_O 	O 	0.3505	0.3421	0.658	-0.331
Mof_O 	O 	0.4352	0.2915	0.7125	-0.294
Mof_O 	O 	0.4044	0.35	0.9039	-0.33
Mof_O 	O 	0.4098	0.524	0.7253	-0.33
Mof_O 	O 	0.5598	0.0311	0.3326	-0.253
Mof_O 	O 	0.5026	0.8447	0.3024	-0.341
Mof_O 	O 	0.5793	0.809	0.269	-0.311
Mof_O 	O 	0.5738	0.8513	0.5113	-0.335
Mof_O 	O 	0.2542	0.3449	0.7711	-0.333
Mof_O 	O 	0.2534	0.5255	0.946	-0.339
Mof_O 	O 	0.3065	0.3265	0.9831	-0.345
Mof_O 	O 	0.2199	0.3027	0.9628	-0.306
Mof_O 	O 	0.3254	0.533	0.8214	-0.564
Mof_Fe	Fe	0.20356	0.16238	0.0813	0.962
Mof_Fe	Fe	0.20739	0.9225	0.3288	0.807
Mof_Fe	Fe	0.96558	0.6775	0.6001	0.977
Mof_Fe	Fe	0.13458	0.9281	0.9923	0.71
Mof_Fe	Fe	0.05093	0.4316	0.6617	0.865
Mof_Fe	Fe	0.12486	0.1777	0.2292	0.875
Mof_P 	P 	0.23006	0.2192	0.4006	0.546
Mof_P 	P 	0.07147	0.738	0.7141	0.552
Mof_P 	P 	0.11098	0.2193	0.9313	0.497
Mof_P 	P 	0.0996	0.8776	0.2498	0.439
Mof_P 	P 	0.94575	0.3804	0.6442	0.561
Mof_P 	P 	0.24114	0.8741	0.0729	0.46
Mof_O 	O 	0.2386	0.0692	0.4409	-0.247
Mof_O 	O 	0.2401	0.2422	0.2607	-0.323
Mof_O 	O 	0.1797	0.2553	0.3864	-0.308
Mof_O 	O 	0.264	0.3006	0.5099	-0.297
Mof_O 	O 	0.0209	0.7623	0.7177	-0.371
Mof_O 	O 	0.0727	0.7599	0.5638	-0.386
Mof_O 	O 	0.1045	0.8338	0.8066	-0.321
Mof_O 	O 	0.0852	0.594	0.7553	-0.332
Mof_O 	O 	0.1448	0.1085	0.9076	-0.313
Mof_O 	O 	0.1432	0.2789	0.0716	-0.375
Mof_O 	O 	0.0697	0.1599	0.9608	-0.215
Mof_O 	O 	0.1006	0.3193	0.8152	-0.269
Mof_O 	O 	0.1495	0.8421	0.342	-0.336
Mof_O 	O 	0.0648	0.7915	0.2875	-0.305
Mof_O 	O 	0.0956	0.85	0.0961	-0.336
Mof_O 	O 	0.0902	0.024	0.2747	-0.214
Mof_O 	O 	0.9402	0.5311	0.6674	-0.367
Mof_O 	O 	0.9974	0.3447	0.6976	-0.344
Mof_O 	O 	0.9207	0.309	0.731	-0.297
Mof_O 	O 	0.9262	0.3513	0.4887	-0.326
Mof_O 	O 	0.2458	0.8449	0.2289	-0.337
Mof_O 	O 	0.2466	0.0255	0.054	-0.228
Mof_O 	O 	0.1935	0.8265	0.0169	-0.343
Mof_O 	O 	0.2801	0.8027	0.0372	-0.319
Mof_O 	O 	0.1746	0.033	0.1786	-0.442
Mof_Fe	Fe	0.70356	0.66238	0.0813	0.942
Mof_Fe	Fe	0.70739	0.4225	0.3288	1.013
Mof_Fe	Fe	0.46558	0.1775	0.6001	1.021
Mof_Fe	Fe	0.63458	0.4281	0.9923	0.887
Mof_Fe	Fe	0.55093	0.9316	0.6617	0.688
Mof_Fe	Fe	0.62486	0.6777	0.2292	0.838
Mof_P 	P 	0.73006	0.7192	0.4006	0.543
Mof_P 	P 	0.57147	0.238	0.7141	0.553
Mof_P 	P 	0.61098	0.7193	0.9313	0.493
Mof_P 	P 	0.5996	0.3776	0.2498	0.555
Mof_P 	P 	0.44575	0.8804	0.6442	0.452
Mof_P 	P 	0.74114	0.3741	0.0729	0.574
Mof_O 	O 	0.7386	0.5692	0.4409	-0.346
Mof_O 	O 	0.7401	0.7422	0.2607	-0.352
Mof_O 	O 	0.6797	0.7553	0.3864	-0.337
Mof_O 	O 	0.764	0.8006	0.5099	-0.314
Mof_O 	O 	0.5209	0.2623	0.7177	-0.348
Mof_O 	O 	0.5727	0.2599	0.5638	-0.357
Mof_O 	O 	0.6045	0.3338	0.8066	-0.299
Mof_O 	O 	0.5852	0.094	0.7553	-0.243
Mof_O 	O 	0.6448	0.6085	0.9076	-0.385
Mof_O 	O 	0.6432	0.7789	0.0716	-0.397
Mof_O 	O 	0.5697	0.6599	0.9608	-0.264
Mof_O 	O 	0.6006	0.8193	0.8152	-0.295
Mof_O 	O 	0.6495	0.3421	0.342	-0.331
Mof_O 	O 	0.5648	0.2915	0.2875	-0.294
Mof_O 	O 	0.5956	0.35	0.0961	-0.33
Mof_O 	O 	0.5902	0.524	0.2747	-0.33
Mof_O 	O 	0.4402	0.0311	0.6674	-0.253
Mof_O 	O 	0.4974	0.8447	0.6976	-0.341
Mof_O 	O 	0.4207	0.809	0.731	-0.311
Mof_O 	O 	0.4262	0.8513	0.4887	-0.335
Mof_O 	O 	0.7458	0.3449	0.2289	-0.332
Mof_O 	O 	0.7466	0.5255	0.054	-0.339
Mof_O 	O 	0.6935	0.3265	0.0169	-0.345
Mof_O 	O 	0.7801	0.3027	0.0372	-0.306
Mof_O 	O 	0.6746	0.533	0.1786	-0.564
Mof_O 	O 	8.12681e-34	0.5773	0.5	-0.541
Mof_O 	O 	0.5	0.0773	0.5	-0.465
_end
