# CIF file generated by openbabel 3.1.0, see https://openbabel.org
data_I
_chemical_name_common 'image0'
_cell_length_a 40.8076
_cell_length_b 20.371
_cell_length_c 29.8948
_cell_angle_alpha 90
_cell_angle_beta 109.963
_cell_angle_gamma 90
_space_group_name_H-M_alt 'P 1'
_space_group_name_Hall 'P 1'
loop_
    _symmetry_equiv_pos_as_xyz
    x,y,z
loop_
    _atom_site_label
    _atom_site_type_symbol
    _atom_site_fract_x
    _atom_site_fract_y
    _atom_site_fract_z
    _atom_site_occupancy
    Th1      Th       0.22719    0.59822    0.21182    1.000
    Th2      Th       0.12683    0.60172    0.13650    1.000
    Th3      Th       0.19622    0.65139    0.07715    1.000
    Th4      Th       0.24386    0.48077    0.11588    1.000
    Th5      Th       0.14332    0.48580    0.04000    1.000
    Th6      Th       0.17424    0.43079    0.17475    1.000
    Th7      Th       0.17945    0.86962    0.20149    1.000
    Th8      Th       0.97838    0.61075    0.92720    1.000
    Th9      Th       0.23272    0.46891    0.41941    1.000
    Th10     Th       0.21007    0.47643    0.40534    1.000
    Th11     Th       0.03408    0.51690    0.25820    1.000
    S1       S        0.31543    0.52653    0.22939    1.000
    S2       S        0.24544    0.76389    0.17256    1.000
    S3       S        0.23749    0.46315    0.29503    1.000
    S4       S        0.12965    0.77129    0.08972    1.000
    S5       S        0.25042    0.32546    0.18241    1.000
    S6       S        0.16391    0.70214    0.24231    1.000
    S7       S        0.20817    0.40135    0.99602    1.000
    S8       S        0.11094    0.33070    0.08064    1.000
    S9       S        0.05445    0.54347    0.03131    1.000
    S10      S        0.08783    0.46539    0.18403    1.000
    S11      S        0.15486    0.39661    0.45227    1.000
    S12      S        0.27062    0.40492    0.53950    1.000
    S13      S        0.01070    0.46330    0.87560    1.000
    O1       O        0.22195    0.49380    0.17770    1.000
    O2       O        0.18287    0.63470    0.14580    1.000
    O3       O        0.13914    0.49760    0.11470    1.000
    O4       O        0.19636    0.53900    0.06680    1.000
    O5       O        0.17018    0.54310    0.20510    1.000
    O6       O        0.24659    0.59860    0.14100    1.000
    O7       O        0.13664    0.60490    0.05870    1.000
    O8       O        0.18777    0.41800    0.10020    1.000
    O9       O        0.28944    0.56770    0.24040    1.000
    O10      O        0.29979    0.49630    0.18180    1.000
    O11      O        0.32713    0.47380    0.26520    1.000
    O12      O        0.34523    0.56700    0.23050    1.000
    O13      O        0.23581    0.73630    0.12430    1.000
    O14      O        0.21830    0.81190    0.17210    1.000
    O15      O        0.24677    0.71170    0.20700    1.000
    O16      O        0.27925    0.79580    0.18470    1.000
    O17      O        0.23992    0.45150    0.34490    1.000
    O18      O        0.23433    0.53470    0.28620    1.000
    O19      O        0.20610    0.43060    0.26290    1.000
    O20      O        0.26859    0.43870    0.28710    1.000
    O21      O        0.11635    0.71680    0.11110    1.000
    O22      O        0.15721    0.74640    0.07260    1.000
    O23      O        0.14426    0.82350    0.12520    1.000
    O24      O        0.10082    0.79820    0.04970    1.000
    O25      O        0.25831    0.37080    0.14910    1.000
    O26      O        0.21614    0.34090    0.18520    1.000
    O27      O        0.25060    0.25860    0.16550    1.000
    O28      O        0.27680    0.33320    0.22950    1.000
    O29      O        0.13505    0.65990    0.21300    1.000
    O30      O        0.16606    0.75940    0.21320    1.000
    O31      O        0.19699    0.66510    0.25550    1.000
    O32      O        0.15745    0.72460    0.28470    1.000
    O33      O        0.23440    0.41720    0.04250    1.000
    O34      O        0.17337    0.42010    0.99610    1.000
    O35      O        0.21580    0.43940    0.95860    1.000
    O36      O        0.20940    0.33200    0.98580    1.000
    O37      O        0.13573    0.34230    0.12850    1.000
    O38      O        0.11550    0.37980    0.04710    1.000
    O39      O        0.11670    0.26560    0.06540    1.000
    O40      O        0.07560    0.33200    0.08100    1.000
    O41      O        0.07075    0.59050    0.06950    1.000
    O42      O        0.08038    0.51540    0.01290    1.000
    O43      O        0.03840    0.49090    0.04920    1.000
    O44      O        0.02770    0.57820    0.99350    1.000
    O45      O        0.12195    0.43360    0.20080    1.000
    O46      O        0.09110    0.53340    0.17050    1.000
    O47      O        0.07370    0.46450    0.22240    1.000
    O48      O        0.06550    0.42900    0.14270    1.000
    O49      O        0.16534    0.34640    0.48960    1.000
    O50      O        0.13790    0.45160    0.46740    1.000
    O51      O        0.19220    0.42610    0.45380    1.000
    O52      O        0.16920    0.40600    0.42160    1.000
    O53      O        0.13680    0.37300    0.40770    1.000
    O54      O        0.24475    0.35820    0.54430    1.000
    O55      O        0.27570    0.45900    0.57350    1.000
    O56      O        0.30440    0.37070    0.55140    1.000
    O57      O        0.26510    0.42990    0.49520    1.000
    O58      O        0.23660    0.43920    0.48570    1.000
    O59      O        0.00470    0.52570    0.89340    1.000
    O60      O        0.21970    0.57410    0.36650    1.000
    O61      O        0.21850    0.35980    0.39320    1.000
    O62      O        0.17280    0.48040    0.36230    1.000
    O63      O        0.16730    0.43900    0.32810    1.000
    O64      O        0.28620    0.54090    0.44750    1.000
    O65      O        0.27220    0.51350    0.43290    1.000
    O66      O        0.99670    0.40280    0.89930    1.000
    O67      O        0.98900    0.45760    0.82420    1.000
    O68      O        0.04660    0.45510    0.88070    1.000
    Th12     Th       0.72719    0.09822    0.21182    1.000
    Th13     Th       0.62683    0.10172    0.13650    1.000
    Th14     Th       0.69622    0.15139    0.07715    1.000
    Th15     Th       0.74386    0.98077    0.11588    1.000
    Th16     Th       0.64332    0.98580    0.04000    1.000
    Th17     Th       0.67424    0.93079    0.17475    1.000
    Th18     Th       0.67945    0.36962    0.20149    1.000
    Th19     Th       0.47838    0.11075    0.92720    1.000
    Th20     Th       0.73272    0.96891    0.41941    1.000
    Th21     Th       0.71007    0.97643    0.40534    1.000
    Th22     Th       0.53408    0.01690    0.25820    1.000
    S14      S        0.81543    0.02653    0.22939    1.000
    S15      S        0.74544    0.26389    0.17256    1.000
    S16      S        0.73749    0.96315    0.29503    1.000
    S17      S        0.62965    0.27129    0.08972    1.000
    S18      S        0.75042    0.82546    0.18241    1.000
    S19      S        0.66391    0.20214    0.24231    1.000
    S20      S        0.70817    0.90135    0.99602    1.000
    S21      S        0.61094    0.83070    0.08064    1.000
    S22      S        0.55445    0.04347    0.03131    1.000
    S23      S        0.58783    0.96539    0.18403    1.000
    S24      S        0.65486    0.89661    0.45227    1.000
    S25      S        0.77062    0.90492    0.53950    1.000
    S26      S        0.51070    0.96330    0.87560    1.000
    O69      O        0.72195    0.99380    0.17770    1.000
    O70      O        0.68287    0.13470    0.14580    1.000
    O71      O        0.63914    0.99760    0.11470    1.000
    O72      O        0.69636    0.03900    0.06680    1.000
    O73      O        0.67018    0.04310    0.20510    1.000
    O74      O        0.74659    0.09860    0.14100    1.000
    O75      O        0.63664    0.10490    0.05870    1.000
    O76      O        0.68777    0.91800    0.10020    1.000
    O77      O        0.78944    0.06770    0.24040    1.000
    O78      O        0.79979    0.99630    0.18180    1.000
    O79      O        0.82713    0.97380    0.26520    1.000
    O80      O        0.84523    0.06700    0.23050    1.000
    O81      O        0.73581    0.23630    0.12430    1.000
    O82      O        0.71830    0.31190    0.17210    1.000
    O83      O        0.74677    0.21170    0.20700    1.000
    O84      O        0.77925    0.29580    0.18470    1.000
    O85      O        0.73992    0.95150    0.34490    1.000
    O86      O        0.73433    0.03470    0.28620    1.000
    O87      O        0.70610    0.93060    0.26290    1.000
    O88      O        0.76859    0.93870    0.28710    1.000
    O89      O        0.61635    0.21680    0.11110    1.000
    O90      O        0.65721    0.24640    0.07260    1.000
    O91      O        0.64426    0.32350    0.12520    1.000
    O92      O        0.60082    0.29820    0.04970    1.000
    O93      O        0.75831    0.87080    0.14910    1.000
    O94      O        0.71614    0.84090    0.18520    1.000
    O95      O        0.75060    0.75860    0.16550    1.000
    O96      O        0.77680    0.83320    0.22950    1.000
    O97      O        0.63505    0.15990    0.21300    1.000
    O98      O        0.66606    0.25940    0.21320    1.000
    O99      O        0.69699    0.16510    0.25550    1.000
    O100     O        0.65745    0.22460    0.28470    1.000
    O101     O        0.73440    0.91720    0.04250    1.000
    O102     O        0.67337    0.92010    0.99610    1.000
    O103     O        0.71580    0.93940    0.95860    1.000
    O104     O        0.70940    0.83200    0.98580    1.000
    O105     O        0.63573    0.84230    0.12850    1.000
    O106     O        0.61550    0.87980    0.04710    1.000
    O107     O        0.61670    0.76560    0.06540    1.000
    O108     O        0.57560    0.83200    0.08100    1.000
    O109     O        0.57075    0.09050    0.06950    1.000
    O110     O        0.58038    0.01540    0.01290    1.000
    O111     O        0.53840    0.99090    0.04920    1.000
    O112     O        0.52770    0.07820    0.99350    1.000
    O113     O        0.62195    0.93360    0.20080    1.000
    O114     O        0.59110    0.03340    0.17050    1.000
    O115     O        0.57370    0.96450    0.22240    1.000
    O116     O        0.56550    0.92900    0.14270    1.000
    O117     O        0.66534    0.84640    0.48960    1.000
    O118     O        0.63790    0.95160    0.46740    1.000
    O119     O        0.69220    0.92610    0.45380    1.000
    O120     O        0.66920    0.90600    0.42160    1.000
    O121     O        0.63680    0.87300    0.40770    1.000
    O122     O        0.74475    0.85820    0.54430    1.000
    O123     O        0.77570    0.95900    0.57350    1.000
    O124     O        0.80440    0.87070    0.55140    1.000
    O125     O        0.76510    0.92990    0.49520    1.000
    O126     O        0.73660    0.93920    0.48570    1.000
    O127     O        0.50470    0.02570    0.89340    1.000
    O128     O        0.71970    0.07410    0.36650    1.000
    O129     O        0.71850    0.85980    0.39320    1.000
    O130     O        0.67280    0.98040    0.36230    1.000
    O131     O        0.66730    0.93900    0.32810    1.000
    O132     O        0.78620    0.04090    0.44750    1.000
    O133     O        0.77220    0.01350    0.43290    1.000
    O134     O        0.49670    0.90280    0.89930    1.000
    O135     O        0.48900    0.95760    0.82420    1.000
    O136     O        0.54660    0.95510    0.88070    1.000
    Th23     Th       0.77281    0.59822    0.28818    1.000
    Th24     Th       0.87317    0.60172    0.36350    1.000
    Th25     Th       0.80378    0.65139    0.42285    1.000
    Th26     Th       0.75614    0.48077    0.38412    1.000
    Th27     Th       0.85668    0.48580    0.46000    1.000
    Th28     Th       0.82576    0.43079    0.32525    1.000
    Th29     Th       0.82055    0.86962    0.29851    1.000
    Th30     Th       0.02162    0.61075    0.57280    1.000
    Th31     Th       0.76728    0.46891    0.08059    1.000
    Th32     Th       0.78993    0.47643    0.09466    1.000
    Th33     Th       0.96592    0.51690    0.24180    1.000
    S27      S        0.68457    0.52653    0.27061    1.000
    S28      S        0.75456    0.76389    0.32744    1.000
    S29      S        0.76251    0.46315    0.20497    1.000
    S30      S        0.87035    0.77129    0.41028    1.000
    S31      S        0.74958    0.32546    0.31759    1.000
    S32      S        0.83609    0.70214    0.25769    1.000
    S33      S        0.79183    0.40135    0.50398    1.000
    S34      S        0.88906    0.33070    0.41936    1.000
    S35      S        0.94555    0.54347    0.46869    1.000
    S36      S        0.91217    0.46539    0.31597    1.000
    S37      S        0.84514    0.39661    0.04773    1.000
    S38      S        0.72938    0.40492    0.96050    1.000
    S39      S        0.98930    0.46330    0.62440    1.000
    O137     O        0.77805    0.49380    0.32230    1.000
    O138     O        0.81713    0.63470    0.35420    1.000
    O139     O        0.86086    0.49760    0.38530    1.000
    O140     O        0.80364    0.53900    0.43320    1.000
    O141     O        0.82982    0.54310    0.29490    1.000
    O142     O        0.75341    0.59860    0.35900    1.000
    O143     O        0.86336    0.60490    0.44130    1.000
    O144     O        0.81223    0.41800    0.39980    1.000
    O145     O        0.71056    0.56770    0.25960    1.000
    O146     O        0.70021    0.49630    0.31820    1.000
    O147     O        0.67287    0.47380    0.23480    1.000
    O148     O        0.65477    0.56700    0.26950    1.000
    O149     O        0.76419    0.73630    0.37570    1.000
    O150     O        0.78170    0.81190    0.32790    1.000
    O151     O        0.75323    0.71170    0.29300    1.000
    O152     O        0.72075    0.79580    0.31530    1.000
    O153     O        0.76008    0.45150    0.15510    1.000
    O154     O        0.76567    0.53470    0.21380    1.000
    O155     O        0.79390    0.43060    0.23710    1.000
    O156     O        0.73141    0.43870    0.21290    1.000
    O157     O        0.88365    0.71680    0.38890    1.000
    O158     O        0.84279    0.74640    0.42740    1.000
    O159     O        0.85574    0.82350    0.37480    1.000
    O160     O        0.89918    0.79820    0.45030    1.000
    O161     O        0.74169    0.37080    0.35090    1.000
    O162     O        0.78386    0.34090    0.31480    1.000
    O163     O        0.74940    0.25860    0.33450    1.000
    O164     O        0.72320    0.33320    0.27050    1.000
    O165     O        0.86495    0.65990    0.28700    1.000
    O166     O        0.83394    0.75940    0.28680    1.000
    O167     O        0.80301    0.66510    0.24450    1.000
    O168     O        0.84255    0.72460    0.21530    1.000
    O169     O        0.76560    0.41720    0.45750    1.000
    O170     O        0.82663    0.42010    0.50390    1.000
    O171     O        0.78420    0.43940    0.54140    1.000
    O172     O        0.79060    0.33200    0.51420    1.000
    O173     O        0.86427    0.34230    0.37150    1.000
    O174     O        0.88450    0.37980    0.45290    1.000
    O175     O        0.88330    0.26560    0.43460    1.000
    O176     O        0.92440    0.33200    0.41900    1.000
    O177     O        0.92925    0.59050    0.43050    1.000
    O178     O        0.91962    0.51540    0.48710    1.000
    O179     O        0.96160    0.49090    0.45080    1.000
    O180     O        0.97230    0.57820    0.50650    1.000
    O181     O        0.87805    0.43360    0.29920    1.000
    O182     O        0.90890    0.53340    0.32950    1.000
    O183     O        0.92630    0.46450    0.27760    1.000
    O184     O        0.93450    0.42900    0.35730    1.000
    O185     O        0.83466    0.34640    0.01040    1.000
    O186     O        0.86210    0.45160    0.03260    1.000
    O187     O        0.80780    0.42610    0.04620    1.000
    O188     O        0.83080    0.40600    0.07840    1.000
    O189     O        0.86320    0.37300    0.09230    1.000
    O190     O        0.75525    0.35820    0.95570    1.000
    O191     O        0.72430    0.45900    0.92650    1.000
    O192     O        0.69560    0.37070    0.94860    1.000
    O193     O        0.73490    0.42990    0.00480    1.000
    O194     O        0.76340    0.43920    0.01430    1.000
    O195     O        0.99530    0.52570    0.60660    1.000
    O196     O        0.78030    0.57410    0.13350    1.000
    O197     O        0.78150    0.35980    0.10680    1.000
    O198     O        0.82720    0.48040    0.13770    1.000
    O199     O        0.83270    0.43900    0.17190    1.000
    O200     O        0.71380    0.54090    0.05250    1.000
    O201     O        0.72780    0.51350    0.06710    1.000
    O202     O        0.00330    0.40280    0.60070    1.000
    O203     O        0.01100    0.45760    0.67580    1.000
    O204     O        0.95340    0.45510    0.61930    1.000
    Th34     Th       0.27281    0.09822    0.28818    1.000
    Th35     Th       0.37317    0.10172    0.36350    1.000
    Th36     Th       0.30378    0.15139    0.42285    1.000
    Th37     Th       0.25614    0.98077    0.38412    1.000
    Th38     Th       0.35668    0.98580    0.46000    1.000
    Th39     Th       0.32576    0.93079    0.32525    1.000
    Th40     Th       0.32055    0.36962    0.29851    1.000
    Th41     Th       0.52162    0.11075    0.57280    1.000
    Th42     Th       0.26728    0.96891    0.08059    1.000
    Th43     Th       0.28993    0.97643    0.09466    1.000
    Th44     Th       0.46592    0.01690    0.24180    1.000
    S40      S        0.18457    0.02653    0.27061    1.000
    S41      S        0.25456    0.26389    0.32744    1.000
    S42      S        0.26251    0.96315    0.20497    1.000
    S43      S        0.37035    0.27129    0.41028    1.000
    S44      S        0.24958    0.82546    0.31759    1.000
    S45      S        0.33609    0.20214    0.25769    1.000
    S46      S        0.29183    0.90135    0.50398    1.000
    S47      S        0.38906    0.83070    0.41936    1.000
    S48      S        0.44555    0.04347    0.46869    1.000
    S49      S        0.41217    0.96539    0.31597    1.000
    S50      S        0.34514    0.89661    0.04773    1.000
    S51      S        0.22938    0.90492    0.96050    1.000
    S52      S        0.48930    0.96330    0.62440    1.000
    O205     O        0.27805    0.99380    0.32230    1.000
    O206     O        0.31713    0.13470    0.35420    1.000
    O207     O        0.36086    0.99760    0.38530    1.000
    O208     O        0.30364    0.03900    0.43320    1.000
    O209     O        0.32982    0.04310    0.29490    1.000
    O210     O        0.25341    0.09860    0.35900    1.000
    O211     O        0.36336    0.10490    0.44130    1.000
    O212     O        0.31223    0.91800    0.39980    1.000
    O213     O        0.21056    0.06770    0.25960    1.000
    O214     O        0.20021    0.99630    0.31820    1.000
    O215     O        0.17287    0.97380    0.23480    1.000
    O216     O        0.15477    0.06700    0.26950    1.000
    O217     O        0.26419    0.23630    0.37570    1.000
    O218     O        0.28170    0.31190    0.32790    1.000
    O219     O        0.25323    0.21170    0.29300    1.000
    O220     O        0.22075    0.29580    0.31530    1.000
    O221     O        0.26008    0.95150    0.15510    1.000
    O222     O        0.26567    0.03470    0.21380    1.000
    O223     O        0.29390    0.93060    0.23710    1.000
    O224     O        0.23141    0.93870    0.21290    1.000
    O225     O        0.38365    0.21680    0.38890    1.000
    O226     O        0.34279    0.24640    0.42740    1.000
    O227     O        0.35574    0.32350    0.37480    1.000
    O228     O        0.39918    0.29820    0.45030    1.000
    O229     O        0.24169    0.87080    0.35090    1.000
    O230     O        0.28386    0.84090    0.31480    1.000
    O231     O        0.24940    0.75860    0.33450    1.000
    O232     O        0.22320    0.83320    0.27050    1.000
    O233     O        0.36495    0.15990    0.28700    1.000
    O234     O        0.33394    0.25940    0.28680    1.000
    O235     O        0.30301    0.16510    0.24450    1.000
    O236     O        0.34255    0.22460    0.21530    1.000
    O237     O        0.26560    0.91720    0.45750    1.000
    O238     O        0.32663    0.92010    0.50390    1.000
    O239     O        0.28420    0.93940    0.54140    1.000
    O240     O        0.29060    0.83200    0.51420    1.000
    O241     O        0.36427    0.84230    0.37150    1.000
    O242     O        0.38450    0.87980    0.45290    1.000
    O243     O        0.38330    0.76560    0.43460    1.000
    O244     O        0.42440    0.83200    0.41900    1.000
    O245     O        0.42925    0.09050    0.43050    1.000
    O246     O        0.41962    0.01540    0.48710    1.000
    O247     O        0.46160    0.99090    0.45080    1.000
    O248     O        0.47230    0.07820    0.50650    1.000
    O249     O        0.37805    0.93360    0.29920    1.000
    O250     O        0.40890    0.03340    0.32950    1.000
    O251     O        0.42630    0.96450    0.27760    1.000
    O252     O        0.43450    0.92900    0.35730    1.000
    O253     O        0.33466    0.84640    0.01040    1.000
    O254     O        0.36210    0.95160    0.03260    1.000
    O255     O        0.30780    0.92610    0.04620    1.000
    O256     O        0.33080    0.90600    0.07840    1.000
    O257     O        0.36320    0.87300    0.09230    1.000
    O258     O        0.25525    0.85820    0.95570    1.000
    O259     O        0.22430    0.95900    0.92650    1.000
    O260     O        0.19560    0.87070    0.94860    1.000
    O261     O        0.23490    0.92990    0.00480    1.000
    O262     O        0.26340    0.93920    0.01430    1.000
    O263     O        0.49530    0.02570    0.60660    1.000
    O264     O        0.28030    0.07410    0.13350    1.000
    O265     O        0.28150    0.85980    0.10680    1.000
    O266     O        0.32720    0.98040    0.13770    1.000
    O267     O        0.33270    0.93900    0.17190    1.000
    O268     O        0.21380    0.04090    0.05250    1.000
    O269     O        0.22780    0.01350    0.06710    1.000
    O270     O        0.50330    0.90280    0.60070    1.000
    O271     O        0.51100    0.95760    0.67580    1.000
    O272     O        0.45340    0.95510    0.61930    1.000
    Th45     Th       0.77281    0.40178    0.78818    1.000
    Th46     Th       0.87317    0.39828    0.86350    1.000
    Th47     Th       0.80378    0.34861    0.92285    1.000
    Th48     Th       0.75614    0.51923    0.88412    1.000
    Th49     Th       0.85668    0.51420    0.96000    1.000
    Th50     Th       0.82576    0.56921    0.82525    1.000
    Th51     Th       0.82055    0.13038    0.79851    1.000
    Th52     Th       0.02162    0.38925    0.07280    1.000
    Th53     Th       0.76728    0.53109    0.58059    1.000
    Th54     Th       0.78993    0.52357    0.59466    1.000
    Th55     Th       0.96592    0.48310    0.74180    1.000
    S53      S        0.68457    0.47347    0.77061    1.000
    S54      S        0.75456    0.23611    0.82744    1.000
    S55      S        0.76251    0.53685    0.70497    1.000
    S56      S        0.87035    0.22871    0.91028    1.000
    S57      S        0.74958    0.67454    0.81759    1.000
    S58      S        0.83609    0.29786    0.75769    1.000
    S59      S        0.79183    0.59865    0.00398    1.000
    S60      S        0.88906    0.66930    0.91936    1.000
    S61      S        0.94555    0.45653    0.96869    1.000
    S62      S        0.91217    0.53461    0.81597    1.000
    S63      S        0.84514    0.60339    0.54773    1.000
    S64      S        0.72938    0.59508    0.46050    1.000
    S65      S        0.98930    0.53670    0.12440    1.000
    O273     O        0.77805    0.50620    0.82230    1.000
    O274     O        0.81713    0.36530    0.85420    1.000
    O275     O        0.86086    0.50240    0.88530    1.000
    O276     O        0.80364    0.46100    0.93320    1.000
    O277     O        0.82982    0.45690    0.79490    1.000
    O278     O        0.75341    0.40140    0.85900    1.000
    O279     O        0.86336    0.39510    0.94130    1.000
    O280     O        0.81223    0.58200    0.89980    1.000
    O281     O        0.71056    0.43230    0.75960    1.000
    O282     O        0.70021    0.50370    0.81820    1.000
    O283     O        0.67287    0.52620    0.73480    1.000
    O284     O        0.65477    0.43300    0.76950    1.000
    O285     O        0.76419    0.26370    0.87570    1.000
    O286     O        0.78170    0.18810    0.82790    1.000
    O287     O        0.75323    0.28830    0.79300    1.000
    O288     O        0.72075    0.20420    0.81530    1.000
    O289     O        0.76008    0.54850    0.65510    1.000
    O290     O        0.76567    0.46530    0.71380    1.000
    O291     O        0.79390    0.56940    0.73710    1.000
    O292     O        0.73141    0.56130    0.71290    1.000
    O293     O        0.88365    0.28320    0.88890    1.000
    O294     O        0.84279    0.25360    0.92740    1.000
    O295     O        0.85574    0.17650    0.87480    1.000
    O296     O        0.89918    0.20180    0.95030    1.000
    O297     O        0.74169    0.62920    0.85090    1.000
    O298     O        0.78386    0.65910    0.81480    1.000
    O299     O        0.74940    0.74140    0.83450    1.000
    O300     O        0.72320    0.66680    0.77050    1.000
    O301     O        0.86495    0.34010    0.78700    1.000
    O302     O        0.83394    0.24060    0.78680    1.000
    O303     O        0.80301    0.33490    0.74450    1.000
    O304     O        0.84255    0.27540    0.71530    1.000
    O305     O        0.76560    0.58280    0.95750    1.000
    O306     O        0.82663    0.57990    0.00390    1.000
    O307     O        0.78420    0.56060    0.04140    1.000
    O308     O        0.79060    0.66800    0.01420    1.000
    O309     O        0.86427    0.65770    0.87150    1.000
    O310     O        0.88450    0.62020    0.95290    1.000
    O311     O        0.88330    0.73440    0.93460    1.000
    O312     O        0.92440    0.66800    0.91900    1.000
    O313     O        0.92925    0.40950    0.93050    1.000
    O314     O        0.91962    0.48460    0.98710    1.000
    O315     O        0.96160    0.50910    0.95080    1.000
    O316     O        0.97230    0.42180    0.00650    1.000
    O317     O        0.87805    0.56640    0.79920    1.000
    O318     O        0.90890    0.46660    0.82950    1.000
    O319     O        0.92630    0.53550    0.77760    1.000
    O320     O        0.93450    0.57100    0.85730    1.000
    O321     O        0.83466    0.65360    0.51040    1.000
    O322     O        0.86210    0.54840    0.53260    1.000
    O323     O        0.80780    0.57390    0.54620    1.000
    O324     O        0.83080    0.59400    0.57840    1.000
    O325     O        0.86320    0.62700    0.59230    1.000
    O326     O        0.75525    0.64180    0.45570    1.000
    O327     O        0.72430    0.54100    0.42650    1.000
    O328     O        0.69560    0.62930    0.44860    1.000
    O329     O        0.73490    0.57010    0.50480    1.000
    O330     O        0.76340    0.56080    0.51430    1.000
    O331     O        0.99530    0.47430    0.10660    1.000
    O332     O        0.78030    0.42590    0.63350    1.000
    O333     O        0.78150    0.64020    0.60680    1.000
    O334     O        0.82720    0.51960    0.63770    1.000
    O335     O        0.83270    0.56100    0.67190    1.000
    O336     O        0.71380    0.45910    0.55250    1.000
    O337     O        0.72780    0.48650    0.56710    1.000
    O338     O        0.00330    0.59720    0.10070    1.000
    O339     O        0.01100    0.54240    0.17580    1.000
    O340     O        0.95340    0.54490    0.11930    1.000
    Th56     Th       0.27281    0.90178    0.78818    1.000
    Th57     Th       0.37317    0.89828    0.86350    1.000
    Th58     Th       0.30378    0.84861    0.92285    1.000
    Th59     Th       0.25614    0.01923    0.88412    1.000
    Th60     Th       0.35668    0.01420    0.96000    1.000
    Th61     Th       0.32576    0.06921    0.82525    1.000
    Th62     Th       0.32055    0.63038    0.79851    1.000
    Th63     Th       0.52162    0.88925    0.07280    1.000
    Th64     Th       0.26728    0.03109    0.58059    1.000
    Th65     Th       0.28993    0.02357    0.59466    1.000
    Th66     Th       0.46592    0.98310    0.74180    1.000
    S66      S        0.18457    0.97347    0.77061    1.000
    S67      S        0.25456    0.73611    0.82744    1.000
    S68      S        0.26251    0.03685    0.70497    1.000
    S69      S        0.37035    0.72871    0.91028    1.000
    S70      S        0.24958    0.17454    0.81759    1.000
    S71      S        0.33609    0.79786    0.75769    1.000
    S72      S        0.29183    0.09865    0.00398    1.000
    S73      S        0.38906    0.16930    0.91936    1.000
    S74      S        0.44555    0.95653    0.96869    1.000
    S75      S        0.41217    0.03461    0.81597    1.000
    S76      S        0.34514    0.10339    0.54773    1.000
    S77      S        0.22938    0.09508    0.46050    1.000
    S78      S        0.48930    0.03670    0.12440    1.000
    O341     O        0.27805    0.00620    0.82230    1.000
    O342     O        0.31713    0.86530    0.85420    1.000
    O343     O        0.36086    0.00240    0.88530    1.000
    O344     O        0.30364    0.96100    0.93320    1.000
    O345     O        0.32982    0.95690    0.79490    1.000
    O346     O        0.25341    0.90140    0.85900    1.000
    O347     O        0.36336    0.89510    0.94130    1.000
    O348     O        0.31223    0.08200    0.89980    1.000
    O349     O        0.21056    0.93230    0.75960    1.000
    O350     O        0.20021    0.00370    0.81820    1.000
    O351     O        0.17287    0.02620    0.73480    1.000
    O352     O        0.15477    0.93300    0.76950    1.000
    O353     O        0.26419    0.76370    0.87570    1.000
    O354     O        0.28170    0.68810    0.82790    1.000
    O355     O        0.25323    0.78830    0.79300    1.000
    O356     O        0.22075    0.70420    0.81530    1.000
    O357     O        0.26008    0.04850    0.65510    1.000
    O358     O        0.26567    0.96530    0.71380    1.000
    O359     O        0.29390    0.06940    0.73710    1.000
    O360     O        0.23141    0.06130    0.71290    1.000
    O361     O        0.38365    0.78320    0.88890    1.000
    O362     O        0.34279    0.75360    0.92740    1.000
    O363     O        0.35574    0.67650    0.87480    1.000
    O364     O        0.39918    0.70180    0.95030    1.000
    O365     O        0.24169    0.12920    0.85090    1.000
    O366     O        0.28386    0.15910    0.81480    1.000
    O367     O        0.24940    0.24140    0.83450    1.000
    O368     O        0.22320    0.16680    0.77050    1.000
    O369     O        0.36495    0.84010    0.78700    1.000
    O370     O        0.33394    0.74060    0.78680    1.000
    O371     O        0.30301    0.83490    0.74450    1.000
    O372     O        0.34255    0.77540    0.71530    1.000
    O373     O        0.26560    0.08280    0.95750    1.000
    O374     O        0.32663    0.07990    0.00390    1.000
    O375     O        0.28420    0.06060    0.04140    1.000
    O376     O        0.29060    0.16800    0.01420    1.000
    O377     O        0.36427    0.15770    0.87150    1.000
    O378     O        0.38450    0.12020    0.95290    1.000
    O379     O        0.38330    0.23440    0.93460    1.000
    O380     O        0.42440    0.16800    0.91900    1.000
    O381     O        0.42925    0.90950    0.93050    1.000
    O382     O        0.41962    0.98460    0.98710    1.000
    O383     O        0.46160    0.00910    0.95080    1.000
    O384     O        0.47230    0.92180    0.00650    1.000
    O385     O        0.37805    0.06640    0.79920    1.000
    O386     O        0.40890    0.96660    0.82950    1.000
    O387     O        0.42630    0.03550    0.77760    1.000
    O388     O        0.43450    0.07100    0.85730    1.000
    O389     O        0.33466    0.15360    0.51040    1.000
    O390     O        0.36210    0.04840    0.53260    1.000
    O391     O        0.30780    0.07390    0.54620    1.000
    O392     O        0.33080    0.09400    0.57840    1.000
    O393     O        0.36320    0.12700    0.59230    1.000
    O394     O        0.25525    0.14180    0.45570    1.000
    O395     O        0.22430    0.04100    0.42650    1.000
    O396     O        0.19560    0.12930    0.44860    1.000
    O397     O        0.23490    0.07010    0.50480    1.000
    O398     O        0.26340    0.06080    0.51430    1.000
    O399     O        0.49530    0.97430    0.10660    1.000
    O400     O        0.28030    0.92590    0.63350    1.000
    O401     O        0.28150    0.14020    0.60680    1.000
    O402     O        0.32720    0.01960    0.63770    1.000
    O403     O        0.33270    0.06100    0.67190    1.000
    O404     O        0.21380    0.95910    0.55250    1.000
    O405     O        0.22780    0.98650    0.56710    1.000
    O406     O        0.50330    0.09720    0.10070    1.000
    O407     O        0.51100    0.04240    0.17580    1.000
    O408     O        0.45340    0.04490    0.11930    1.000
    Th67     Th       0.22719    0.40178    0.71182    1.000
    Th68     Th       0.12683    0.39828    0.63650    1.000
    Th69     Th       0.19622    0.34861    0.57715    1.000
    Th70     Th       0.24386    0.51923    0.61588    1.000
    Th71     Th       0.14332    0.51420    0.54000    1.000
    Th72     Th       0.17424    0.56921    0.67475    1.000
    Th73     Th       0.17945    0.13038    0.70149    1.000
    Th74     Th       0.97838    0.38925    0.42720    1.000
    Th75     Th       0.23272    0.53109    0.91941    1.000
    Th76     Th       0.21007    0.52357    0.90534    1.000
    Th77     Th       0.03408    0.48310    0.75820    1.000
    S79      S        0.31543    0.47347    0.72939    1.000
    S80      S        0.24544    0.23611    0.67256    1.000
    S81      S        0.23749    0.53685    0.79503    1.000
    S82      S        0.12965    0.22871    0.58972    1.000
    S83      S        0.25042    0.67454    0.68241    1.000
    S84      S        0.16391    0.29786    0.74231    1.000
    S85      S        0.20817    0.59865    0.49602    1.000
    S86      S        0.11094    0.66930    0.58064    1.000
    S87      S        0.05445    0.45653    0.53131    1.000
    S88      S        0.08783    0.53461    0.68403    1.000
    S89      S        0.15486    0.60339    0.95227    1.000
    S90      S        0.27062    0.59508    0.03950    1.000
    S91      S        0.01070    0.53670    0.37560    1.000
    O409     O        0.22195    0.50620    0.67770    1.000
    O410     O        0.18287    0.36530    0.64580    1.000
    O411     O        0.13914    0.50240    0.61470    1.000
    O412     O        0.19636    0.46100    0.56680    1.000
    O413     O        0.17018    0.45690    0.70510    1.000
    O414     O        0.24659    0.40140    0.64100    1.000
    O415     O        0.13664    0.39510    0.55870    1.000
    O416     O        0.18777    0.58200    0.60020    1.000
    O417     O        0.28944    0.43230    0.74040    1.000
    O418     O        0.29979    0.50370    0.68180    1.000
    O419     O        0.32713    0.52620    0.76520    1.000
    O420     O        0.34523    0.43300    0.73050    1.000
    O421     O        0.23581    0.26370    0.62430    1.000
    O422     O        0.21830    0.18810    0.67210    1.000
    O423     O        0.24677    0.28830    0.70700    1.000
    O424     O        0.27925    0.20420    0.68470    1.000
    O425     O        0.23992    0.54850    0.84490    1.000
    O426     O        0.23433    0.46530    0.78620    1.000
    O427     O        0.20610    0.56940    0.76290    1.000
    O428     O        0.26859    0.56130    0.78710    1.000
    O429     O        0.11635    0.28320    0.61110    1.000
    O430     O        0.15721    0.25360    0.57260    1.000
    O431     O        0.14426    0.17650    0.62520    1.000
    O432     O        0.10082    0.20180    0.54970    1.000
    O433     O        0.25831    0.62920    0.64910    1.000
    O434     O        0.21614    0.65910    0.68520    1.000
    O435     O        0.25060    0.74140    0.66550    1.000
    O436     O        0.27680    0.66680    0.72950    1.000
    O437     O        0.13505    0.34010    0.71300    1.000
    O438     O        0.16606    0.24060    0.71320    1.000
    O439     O        0.19699    0.33490    0.75550    1.000
    O440     O        0.15745    0.27540    0.78470    1.000
    O441     O        0.23440    0.58280    0.54250    1.000
    O442     O        0.17337    0.57990    0.49610    1.000
    O443     O        0.21580    0.56060    0.45860    1.000
    O444     O        0.20940    0.66800    0.48580    1.000
    O445     O        0.13573    0.65770    0.62850    1.000
    O446     O        0.11550    0.62020    0.54710    1.000
    O447     O        0.11670    0.73440    0.56540    1.000
    O448     O        0.07560    0.66800    0.58100    1.000
    O449     O        0.07075    0.40950    0.56950    1.000
    O450     O        0.08038    0.48460    0.51290    1.000
    O451     O        0.03840    0.50910    0.54920    1.000
    O452     O        0.02770    0.42180    0.49350    1.000
    O453     O        0.12195    0.56640    0.70080    1.000
    O454     O        0.09110    0.46660    0.67050    1.000
    O455     O        0.07370    0.53550    0.72240    1.000
    O456     O        0.06550    0.57100    0.64270    1.000
    O457     O        0.16534    0.65360    0.98960    1.000
    O458     O        0.13790    0.54840    0.96740    1.000
    O459     O        0.19220    0.57390    0.95380    1.000
    O460     O        0.16920    0.59400    0.92160    1.000
    O461     O        0.13680    0.62700    0.90770    1.000
    O462     O        0.24475    0.64180    0.04430    1.000
    O463     O        0.27570    0.54100    0.07350    1.000
    O464     O        0.30440    0.62930    0.05140    1.000
    O465     O        0.26510    0.57010    0.99520    1.000
    O466     O        0.23660    0.56080    0.98570    1.000
    O467     O        0.00470    0.47430    0.39340    1.000
    O468     O        0.21970    0.42590    0.86650    1.000
    O469     O        0.21850    0.64020    0.89320    1.000
    O470     O        0.17280    0.51960    0.86230    1.000
    O471     O        0.16730    0.56100    0.82810    1.000
    O472     O        0.28620    0.45910    0.94750    1.000
    O473     O        0.27220    0.48650    0.93290    1.000
    O474     O        0.99670    0.59720    0.39930    1.000
    O475     O        0.98900    0.54240    0.32420    1.000
    O476     O        0.04660    0.54490    0.38070    1.000
    Th78     Th       0.72719    0.90178    0.71182    1.000
    Th79     Th       0.62683    0.89828    0.63650    1.000
    Th80     Th       0.69622    0.84861    0.57715    1.000
    Th81     Th       0.74386    0.01923    0.61588    1.000
    Th82     Th       0.64332    0.01420    0.54000    1.000
    Th83     Th       0.67424    0.06921    0.67475    1.000
    Th84     Th       0.67945    0.63038    0.70149    1.000
    Th85     Th       0.47838    0.88925    0.42720    1.000
    Th86     Th       0.73272    0.03109    0.91941    1.000
    Th87     Th       0.71007    0.02357    0.90534    1.000
    Th88     Th       0.53408    0.98310    0.75820    1.000
    S92      S        0.81543    0.97347    0.72939    1.000
    S93      S        0.74544    0.73611    0.67256    1.000
    S94      S        0.73749    0.03685    0.79503    1.000
    S95      S        0.62965    0.72871    0.58972    1.000
    S96      S        0.75042    0.17454    0.68241    1.000
    S97      S        0.66391    0.79786    0.74231    1.000
    S98      S        0.70817    0.09865    0.49602    1.000
    S99      S        0.61094    0.16930    0.58064    1.000
    S100     S        0.55445    0.95653    0.53131    1.000
    S101     S        0.58783    0.03461    0.68403    1.000
    S102     S        0.65486    0.10339    0.95227    1.000
    S103     S        0.77062    0.09508    0.03950    1.000
    S104     S        0.51070    0.03670    0.37560    1.000
    O477     O        0.72195    0.00620    0.67770    1.000
    O478     O        0.68287    0.86530    0.64580    1.000
    O479     O        0.63914    0.00240    0.61470    1.000
    O480     O        0.69636    0.96100    0.56680    1.000
    O481     O        0.67018    0.95690    0.70510    1.000
    O482     O        0.74659    0.90140    0.64100    1.000
    O483     O        0.63664    0.89510    0.55870    1.000
    O484     O        0.68777    0.08200    0.60020    1.000
    O485     O        0.78944    0.93230    0.74040    1.000
    O486     O        0.79979    0.00370    0.68180    1.000
    O487     O        0.82713    0.02620    0.76520    1.000
    O488     O        0.84523    0.93300    0.73050    1.000
    O489     O        0.73581    0.76370    0.62430    1.000
    O490     O        0.71830    0.68810    0.67210    1.000
    O491     O        0.74677    0.78830    0.70700    1.000
    O492     O        0.77925    0.70420    0.68470    1.000
    O493     O        0.73992    0.04850    0.84490    1.000
    O494     O        0.73433    0.96530    0.78620    1.000
    O495     O        0.70610    0.06940    0.76290    1.000
    O496     O        0.76859    0.06130    0.78710    1.000
    O497     O        0.61635    0.78320    0.61110    1.000
    O498     O        0.65721    0.75360    0.57260    1.000
    O499     O        0.64426    0.67650    0.62520    1.000
    O500     O        0.60082    0.70180    0.54970    1.000
    O501     O        0.75831    0.12920    0.64910    1.000
    O502     O        0.71614    0.15910    0.68520    1.000
    O503     O        0.75060    0.24140    0.66550    1.000
    O504     O        0.77680    0.16680    0.72950    1.000
    O505     O        0.63505    0.84010    0.71300    1.000
    O506     O        0.66606    0.74060    0.71320    1.000
    O507     O        0.69699    0.83490    0.75550    1.000
    O508     O        0.65745    0.77540    0.78470    1.000
    O509     O        0.73440    0.08280    0.54250    1.000
    O510     O        0.67337    0.07990    0.49610    1.000
    O511     O        0.71580    0.06060    0.45860    1.000
    O512     O        0.70940    0.16800    0.48580    1.000
    O513     O        0.63573    0.15770    0.62850    1.000
    O514     O        0.61550    0.12020    0.54710    1.000
    O515     O        0.61670    0.23440    0.56540    1.000
    O516     O        0.57560    0.16800    0.58100    1.000
    O517     O        0.57075    0.90950    0.56950    1.000
    O518     O        0.58038    0.98460    0.51290    1.000
    O519     O        0.53840    0.00910    0.54920    1.000
    O520     O        0.52770    0.92180    0.49350    1.000
    O521     O        0.62195    0.06640    0.70080    1.000
    O522     O        0.59110    0.96660    0.67050    1.000
    O523     O        0.57370    0.03550    0.72240    1.000
    O524     O        0.56550    0.07100    0.64270    1.000
    O525     O        0.66534    0.15360    0.98960    1.000
    O526     O        0.63790    0.04840    0.96740    1.000
    O527     O        0.69220    0.07390    0.95380    1.000
    O528     O        0.66920    0.09400    0.92160    1.000
    O529     O        0.63680    0.12700    0.90770    1.000
    O530     O        0.74475    0.14180    0.04430    1.000
    O531     O        0.77570    0.04100    0.07350    1.000
    O532     O        0.80440    0.12930    0.05140    1.000
    O533     O        0.76510    0.07010    0.99520    1.000
    O534     O        0.73660    0.06080    0.98570    1.000
    O535     O        0.50470    0.97430    0.39340    1.000
    O536     O        0.71970    0.92590    0.86650    1.000
    O537     O        0.71850    0.14020    0.89320    1.000
    O538     O        0.67280    0.01960    0.86230    1.000
    O539     O        0.66730    0.06100    0.82810    1.000
    O540     O        0.78620    0.95910    0.94750    1.000
    O541     O        0.77220    0.98650    0.93290    1.000
    O542     O        0.49670    0.09720    0.39930    1.000
    O543     O        0.48900    0.04240    0.32420    1.000
    O544     O        0.54660    0.04490    0.38070    1.000
    O545     O        0.00000    0.62130    0.25000    1.000
    O546     O        0.50000    0.12130    0.25000    1.000
    O547     O        0.00000    0.37870    0.75000    1.000
    O548     O        0.50000    0.87870    0.75000    1.000
