# CIF file generated by openbabel 3.1.0, see https://openbabel.org
data_I
_chemical_name_common 'XEHTUB_clean'
_cell_length_a 6.804
_cell_length_b 10.347
_cell_length_c 11.498
_cell_angle_alpha 68.145
_cell_angle_beta 77.492
_cell_angle_gamma 73.837
_space_group_name_H-M_alt 'P 1'
_space_group_name_Hall 'P 1'
loop_
    _symmetry_equiv_pos_as_xyz
    x,y,z
loop_
    _atom_site_label
    _atom_site_type_symbol
    _atom_site_fract_x
    _atom_site_fract_y
    _atom_site_fract_z
    _atom_site_occupancy
    Cd1      Cd       0.89000    0.57719    0.62964    1.000
    Cd2      Cd       0.63799    0.32123    0.92237    1.000
    Cd3      Cd       0.11000    0.42281    0.37036    1.000
    Cd4      Cd       0.36201    0.67877    0.07763    1.000
    H1       H        0.32910    0.94500    0.67270    1.000
    H2       H        0.19880    0.95610    0.34350    1.000
    H3       H        0.40360    0.58000    0.60410    1.000
    H4       H        0.19200    0.19500    0.14400    1.000
    H5       H        0.98700    0.20600    0.14000    1.000
    H6       H        0.67090    0.05500    0.32730    1.000
    H7       H        0.80120    0.04390    0.65650    1.000
    H8       H        0.59640    0.42000    0.39590    1.000
    H9       H        0.80800    0.80500    0.85600    1.000
    H10      H        0.01300    0.79400    0.86000    1.000
    C1       C        0.37540    0.74990    0.65720    1.000
    C2       C        0.32110    0.89820    0.61930    1.000
    C3       C        0.25500    0.97640    0.50140    1.000
    C4       C        0.24050    0.90460    0.42300    1.000
    C5       C        0.28840    0.75620    0.46380    1.000
    C6       C        0.36270    0.67890    0.57940    1.000
    C7       C        0.45500    0.66770    0.78330    1.000
    C8       C        0.20120    0.13680    0.45600    1.000
    C9       C        0.24890    0.67790    0.38700    1.000
    C10      C        0.12300    0.29020    0.98120    1.000
    C11      C        0.62460    0.25010    0.34280    1.000
    C12      C        0.67890    0.10180    0.38070    1.000
    C13      C        0.74500    0.02360    0.49860    1.000
    C14      C        0.75950    0.09540    0.57700    1.000
    C15      C        0.71160    0.24380    0.53620    1.000
    C16      C        0.63730    0.32110    0.42060    1.000
    C17      C        0.54500    0.33230    0.21670    1.000
    C18      C        0.79880    0.86320    0.54400    1.000
    C19      C        0.75110    0.32210    0.61300    1.000
    C20      C        0.87700    0.70980    0.01880    1.000
    N1       N        0.97370    0.34340    0.90600    1.000
    N2       N        0.05620    0.42930    0.79860    1.000
    N3       N        0.24390    0.43110    0.80620    1.000
    N4       N        0.29440    0.34200    0.92130    1.000
    N5       N        0.10880    0.19070    0.09940    1.000
    N6       N        0.02630    0.65660    0.09400    1.000
    N7       N        0.94380    0.57070    0.20140    1.000
    N8       N        0.75610    0.56890    0.19380    1.000
    N9       N        0.70560    0.65800    0.07870    1.000
    N10      N        0.89120    0.80930    0.90060    1.000
    O1       O        0.60190    0.55760    0.79100    1.000
    O2       O        0.36570    0.71150    0.87270    1.000
    O3       O        0.20320    0.20080    0.53020    1.000
    O4       O        0.15900    0.20330    0.34650    1.000
    O5       O        0.28730    0.72250    0.27160    1.000
    O6       O        0.17940    0.56500    0.45320    1.000
    O7       O        0.39810    0.44240    0.20900    1.000
    O8       O        0.63430    0.28850    0.12730    1.000
    O9       O        0.79680    0.79920    0.46980    1.000
    O10      O        0.84100    0.79670    0.65350    1.000
    O11      O        0.71270    0.27750    0.72840    1.000
    O12      O        0.82060    0.43500    0.54680    1.000
