# CIF file generated by openbabel 3.1.0, see https://openbabel.org
data_I
_chemical_name_common 'image0'
_cell_length_a 12.1584
_cell_length_b 12.1584
_cell_length_c 17.8082
_cell_angle_alpha 90
_cell_angle_beta 90
_cell_angle_gamma 90
_space_group_name_H-M_alt 'P 1'
_space_group_name_Hall 'P 1'
loop_
    _symmetry_equiv_pos_as_xyz
    x,y,z
loop_
    _atom_site_label
    _atom_site_type_symbol
    _atom_site_fract_x
    _atom_site_fract_y
    _atom_site_fract_z
    _atom_site_occupancy
    Np1      Np       0.39685    0.42142    0.22130    1.000
    O1       O        0.24630    0.40280    0.20480    1.000
    O2       O        0.41400    0.52180    0.09870    1.000
    O3       O        0.37880    0.62360    0.19730    1.000
    O4       O        0.48850    0.87380    0.84180    1.000
    O5       O        0.55870    0.71120    0.87210    1.000
    C1       C        0.39900    0.61520    0.12840    1.000
    C2       C        0.40520    0.71640    0.08110    1.000
    C3       C        0.44590    0.70950    0.00780    1.000
    H1       H        0.47070    0.64080    0.98890    1.000
    C4       C        0.45030    0.80180    0.96290    1.000
    C5       C        0.41030    0.90170    0.99020    1.000
    H2       H        0.40860    0.96430    0.95830    1.000
    C6       C        0.37310    0.91020    0.06340    1.000
    H3       H        0.34880    0.97900    0.08250    1.000
    C7       C        0.37180    0.81710    0.10910    1.000
    H4       H        0.34780    0.82280    0.15970    1.000
    C8       C        0.50210    0.79510    0.88640    1.000
    Np2      Np       0.10315    0.07858    0.22130    1.000
    O6       O        0.25370    0.09720    0.20480    1.000
    O7       O        0.08600    0.97820    0.09870    1.000
    O8       O        0.12120    0.87640    0.19730    1.000
    O9       O        0.01150    0.62620    0.84180    1.000
    O10      O        0.94130    0.78880    0.87210    1.000
    C9       C        0.10100    0.88480    0.12840    1.000
    C10      C        0.09480    0.78360    0.08110    1.000
    C11      C        0.05410    0.79050    0.00780    1.000
    H5       H        0.02930    0.85920    0.98890    1.000
    C12      C        0.04970    0.69820    0.96290    1.000
    C13      C        0.08970    0.59830    0.99020    1.000
    H6       H        0.09140    0.53570    0.95830    1.000
    C14      C        0.12690    0.58980    0.06340    1.000
    H7       H        0.15120    0.52100    0.08250    1.000
    C15      C        0.12820    0.68290    0.10910    1.000
    H8       H        0.15220    0.67720    0.15970    1.000
    C16      C        0.99790    0.70490    0.88640    1.000
    Np3      Np       0.57858    0.89685    0.72130    1.000
    O11      O        0.59720    0.74630    0.70480    1.000
    O12      O        0.47820    0.91400    0.59870    1.000
    O13      O        0.37640    0.87880    0.69730    1.000
    O14      O        0.12620    0.98850    0.34180    1.000
    O15      O        0.28880    0.05870    0.37210    1.000
    C17      C        0.38480    0.89900    0.62840    1.000
    C18      C        0.28360    0.90520    0.58110    1.000
    C19      C        0.29050    0.94590    0.50780    1.000
    H9       H        0.35920    0.97070    0.48890    1.000
    C20      C        0.19820    0.95030    0.46290    1.000
    C21      C        0.09830    0.91030    0.49020    1.000
    H10      H        0.03570    0.90860    0.45830    1.000
    C22      C        0.08980    0.87310    0.56340    1.000
    H11      H        0.02100    0.84880    0.58250    1.000
    C23      C        0.18290    0.87180    0.60910    1.000
    H12      H        0.17720    0.84780    0.65970    1.000
    C24      C        0.20490    0.00210    0.38640    1.000
    Np4      Np       0.92142    0.60315    0.72130    1.000
    O16      O        0.90280    0.75370    0.70480    1.000
    O17      O        0.02180    0.58600    0.59870    1.000
    O18      O        0.12360    0.62120    0.69730    1.000
    O19      O        0.37380    0.51150    0.34180    1.000
    O20      O        0.21120    0.44130    0.37210    1.000
    C25      C        0.11520    0.60100    0.62840    1.000
    C26      C        0.21640    0.59480    0.58110    1.000
    C27      C        0.20950    0.55410    0.50780    1.000
    H13      H        0.14080    0.52930    0.48890    1.000
    C28      C        0.30180    0.54970    0.46290    1.000
    C29      C        0.40170    0.58970    0.49020    1.000
    H14      H        0.46430    0.59140    0.45830    1.000
    C30      C        0.41020    0.62690    0.56340    1.000
    H15      H        0.47900    0.65120    0.58250    1.000
    C31      C        0.31710    0.62820    0.60910    1.000
    H16      H        0.32280    0.65220    0.65970    1.000
    C32      C        0.29510    0.49790    0.38640    1.000
    Np5      Np       0.60315    0.57858    0.77870    1.000
    O21      O        0.75370    0.59720    0.79520    1.000
    O22      O        0.58600    0.47820    0.90130    1.000
    O23      O        0.62120    0.37640    0.80270    1.000
    O24      O        0.51150    0.12620    0.15820    1.000
    O25      O        0.44130    0.28880    0.12790    1.000
    C33      C        0.60100    0.38480    0.87160    1.000
    C34      C        0.59480    0.28360    0.91890    1.000
    C35      C        0.55410    0.29050    0.99220    1.000
    H17      H        0.52930    0.35920    0.01110    1.000
    C36      C        0.54970    0.19820    0.03710    1.000
    C37      C        0.58970    0.09830    0.00980    1.000
    H18      H        0.59140    0.03570    0.04170    1.000
    C38      C        0.62690    0.08980    0.93660    1.000
    H19      H        0.65120    0.02100    0.91750    1.000
    C39      C        0.62820    0.18290    0.89090    1.000
    H20      H        0.65220    0.17720    0.84030    1.000
    C40      C        0.49790    0.20490    0.11360    1.000
    Np6      Np       0.89685    0.92142    0.77870    1.000
    O26      O        0.74630    0.90280    0.79520    1.000
    O27      O        0.91400    0.02180    0.90130    1.000
    O28      O        0.87880    0.12360    0.80270    1.000
    O29      O        0.98850    0.37380    0.15820    1.000
    O30      O        0.05870    0.21120    0.12790    1.000
    C41      C        0.89900    0.11520    0.87160    1.000
    C42      C        0.90520    0.21640    0.91890    1.000
    C43      C        0.94590    0.20950    0.99220    1.000
    H21      H        0.97070    0.14080    0.01110    1.000
    C44      C        0.95030    0.30180    0.03710    1.000
    C45      C        0.91030    0.40170    0.00980    1.000
    H22      H        0.90860    0.46430    0.04170    1.000
    C46      C        0.87310    0.41020    0.93660    1.000
    H23      H        0.84880    0.47900    0.91750    1.000
    C47      C        0.87180    0.31710    0.89090    1.000
    H24      H        0.84780    0.32280    0.84030    1.000
    C48      C        0.00210    0.29510    0.11360    1.000
    Np7      Np       0.42142    0.10315    0.27870    1.000
    O31      O        0.40280    0.25370    0.29520    1.000
    O32      O        0.52180    0.08600    0.40130    1.000
    O33      O        0.62360    0.12120    0.30270    1.000
    O34      O        0.87380    0.01150    0.65820    1.000
    O35      O        0.71120    0.94130    0.62790    1.000
    C49      C        0.61520    0.10100    0.37160    1.000
    C50      C        0.71640    0.09480    0.41890    1.000
    C51      C        0.70950    0.05410    0.49220    1.000
    H25      H        0.64080    0.02930    0.51110    1.000
    C52      C        0.80180    0.04970    0.53710    1.000
    C53      C        0.90170    0.08970    0.50980    1.000
    H26      H        0.96430    0.09140    0.54170    1.000
    C54      C        0.91020    0.12690    0.43660    1.000
    H27      H        0.97900    0.15120    0.41750    1.000
    C55      C        0.81710    0.12820    0.39090    1.000
    H28      H        0.82280    0.15220    0.34030    1.000
    C56      C        0.79510    0.99790    0.61360    1.000
    Np8      Np       0.07858    0.39685    0.27870    1.000
    O36      O        0.09720    0.24630    0.29520    1.000
    O37      O        0.97820    0.41400    0.40130    1.000
    O38      O        0.87640    0.37880    0.30270    1.000
    O39      O        0.62620    0.48850    0.65820    1.000
    O40      O        0.78880    0.55870    0.62790    1.000
    C57      C        0.88480    0.39900    0.37160    1.000
    C58      C        0.78360    0.40520    0.41890    1.000
    C59      C        0.79050    0.44590    0.49220    1.000
    H29      H        0.85920    0.47070    0.51110    1.000
    C60      C        0.69820    0.45030    0.53710    1.000
    C61      C        0.59830    0.41030    0.50980    1.000
    H30      H        0.53570    0.40860    0.54170    1.000
    C62      C        0.58980    0.37310    0.43660    1.000
    H31      H        0.52100    0.34880    0.41750    1.000
    C63      C        0.68290    0.37180    0.39090    1.000
    H32      H        0.67720    0.34780    0.34030    1.000
    C64      C        0.70490    0.50210    0.61360    1.000
