# CIF file generated by openbabel 3.1.0, see https://openbabel.org
data_I
_chemical_name_common 'image0'
_cell_length_a 18.944
_cell_length_b 23.156
_cell_length_c 14.411
_cell_angle_alpha 90
_cell_angle_beta 126.63
_cell_angle_gamma 90
_space_group_name_H-M_alt 'P 1'
_space_group_name_Hall 'P 1'
loop_
    _symmetry_equiv_pos_as_xyz
    x,y,z
loop_
    _atom_site_label
    _atom_site_type_symbol
    _atom_site_fract_x
    _atom_site_fract_y
    _atom_site_fract_z
    _atom_site_occupancy
    Cd1      Cd       0.44251    0.15314    0.99642    1.000
    O1       O        0.33690    0.10661    0.99290    1.000
    O2       O        0.44901    0.04981    0.09220    1.000
    O3       O        0.43593    0.92068    0.37340    1.000
    O4       O        0.31970    0.86550    0.27870    1.000
    O5       O        0.62395    0.95430    0.59980    1.000
    O6       O        0.58880    0.86246    0.60150    1.000
    O7       O        0.82620    0.73461    0.90810    1.000
    O8       O        0.95120    0.74243    0.93380    1.000
    O9       O        0.48230    0.20020    0.16100    1.000
    N1       N        0.04110    0.94320    0.92800    1.000
    N2       N        0.03300    0.03440    0.88800    1.000
    H1       H        0.04770    0.06930    0.88620    1.000
    N3       N        0.94680    0.01370    0.82990    1.000
    C1       C        0.37310    0.06280    0.05300    1.000
    C2       C        0.31990    0.02450    0.07300    1.000
    C3       C        0.22950    0.02640    0.00000    1.000
    H2       H        0.20100    0.05110    0.93670    1.000
    C4       C        0.18080    0.99120    0.02060    1.000
    C5       C        0.22310    0.95300    0.11080    1.000
    H3       H        0.19080    0.92850    0.12340    1.000
    C6       C        0.31390    0.95090    0.18310    1.000
    C7       C        0.36290    0.98750    0.16850    1.000
    H4       H        0.42390    0.98780    0.22120    1.000
    C8       C        0.35850    0.91000    0.28650    1.000
    C9       C        0.08490    0.99340    0.94290    1.000
    C10      C        0.95550    0.96030    0.85690    1.000
    C11      C        0.88920    0.91600    0.82460    1.000
    C12      C        0.80050    0.93090    0.74580    1.000
    H5       H        0.78380    0.96760    0.71290    1.000
    C13      C        0.73780    0.88920    0.71850    1.000
    C14      C        0.76290    0.83480    0.76770    1.000
    H6       H        0.72000    0.80770    0.74860    1.000
    C15      C        0.85040    0.82010    0.84460    1.000
    C16      C        0.91300    0.86130    0.87020    1.000
    H7       H        0.97230    0.85170    0.91930    1.000
    C17      C        0.64160    0.90330    0.63210    1.000
    C18      C        0.87680    0.76120    0.89660    1.000
    Cd2      Cd       0.94251    0.65314    0.99642    1.000
    O10      O        0.83690    0.60661    0.99290    1.000
    O11      O        0.94901    0.54981    0.09220    1.000
    O12      O        0.93593    0.42068    0.37340    1.000
    O13      O        0.81970    0.36550    0.27870    1.000
    O14      O        0.12395    0.45430    0.59980    1.000
    O15      O        0.08880    0.36246    0.60150    1.000
    O16      O        0.32620    0.23461    0.90810    1.000
    O17      O        0.45120    0.24243    0.93380    1.000
    O18      O        0.98230    0.70020    0.16100    1.000
    N4       N        0.54110    0.44320    0.92800    1.000
    N5       N        0.53300    0.53440    0.88800    1.000
    H8       H        0.54770    0.56930    0.88620    1.000
    N6       N        0.44680    0.51370    0.82990    1.000
    C19      C        0.87310    0.56280    0.05300    1.000
    C20      C        0.81990    0.52450    0.07300    1.000
    C21      C        0.72950    0.52640    0.00000    1.000
    H9       H        0.70100    0.55110    0.93670    1.000
    C22      C        0.68080    0.49120    0.02060    1.000
    C23      C        0.72310    0.45300    0.11080    1.000
    H10      H        0.69080    0.42850    0.12340    1.000
    C24      C        0.81390    0.45090    0.18310    1.000
    C25      C        0.86290    0.48750    0.16850    1.000
    H11      H        0.92390    0.48780    0.22120    1.000
    C26      C        0.85850    0.41000    0.28650    1.000
    C27      C        0.58490    0.49340    0.94290    1.000
    C28      C        0.45550    0.46030    0.85690    1.000
    C29      C        0.38920    0.41600    0.82460    1.000
    C30      C        0.30050    0.43090    0.74580    1.000
    H12      H        0.28380    0.46760    0.71290    1.000
    C31      C        0.23780    0.38920    0.71850    1.000
    C32      C        0.26290    0.33480    0.76770    1.000
    H13      H        0.22000    0.30770    0.74860    1.000
    C33      C        0.35040    0.32010    0.84460    1.000
    C34      C        0.41300    0.36130    0.87020    1.000
    H14      H        0.47230    0.35170    0.91930    1.000
    C35      C        0.14160    0.40330    0.63210    1.000
    C36      C        0.37680    0.26120    0.89660    1.000
    Cd3      Cd       0.55749    0.15314    0.50358    1.000
    O19      O        0.66310    0.10661    0.50710    1.000
    O20      O        0.55099    0.04981    0.40780    1.000
    O21      O        0.56407    0.92068    0.12660    1.000
    O22      O        0.68030    0.86550    0.22130    1.000
    O23      O        0.37605    0.95430    0.90020    1.000
    O24      O        0.41120    0.86246    0.89850    1.000
    O25      O        0.17380    0.73461    0.59190    1.000
    O26      O        0.04880    0.74243    0.56620    1.000
    O27      O        0.51770    0.20020    0.33900    1.000
    N7       N        0.95890    0.94320    0.57200    1.000
    N8       N        0.96700    0.03440    0.61200    1.000
    H15      H        0.95230    0.06930    0.61380    1.000
    N9       N        0.05320    0.01370    0.67010    1.000
    C37      C        0.62690    0.06280    0.44700    1.000
    C38      C        0.68010    0.02450    0.42700    1.000
    C39      C        0.77050    0.02640    0.50000    1.000
    H16      H        0.79900    0.05110    0.56330    1.000
    C40      C        0.81920    0.99120    0.47940    1.000
    C41      C        0.77690    0.95300    0.38920    1.000
    H17      H        0.80920    0.92850    0.37660    1.000
    C42      C        0.68610    0.95090    0.31690    1.000
    C43      C        0.63710    0.98750    0.33150    1.000
    H18      H        0.57610    0.98780    0.27880    1.000
    C44      C        0.64150    0.91000    0.21350    1.000
    C45      C        0.91510    0.99340    0.55710    1.000
    C46      C        0.04450    0.96030    0.64310    1.000
    C47      C        0.11080    0.91600    0.67540    1.000
    C48      C        0.19950    0.93090    0.75420    1.000
    H19      H        0.21620    0.96760    0.78710    1.000
    C49      C        0.26220    0.88920    0.78150    1.000
    C50      C        0.23710    0.83480    0.73230    1.000
    H20      H        0.28000    0.80770    0.75140    1.000
    C51      C        0.14960    0.82010    0.65540    1.000
    C52      C        0.08700    0.86130    0.62980    1.000
    H21      H        0.02770    0.85170    0.58070    1.000
    C53      C        0.35840    0.90330    0.86790    1.000
    C54      C        0.12320    0.76120    0.60340    1.000
    Cd4      Cd       0.05749    0.65314    0.50358    1.000
    O28      O        0.16310    0.60661    0.50710    1.000
    O29      O        0.05099    0.54981    0.40780    1.000
    O30      O        0.06407    0.42068    0.12660    1.000
    O31      O        0.18030    0.36550    0.22130    1.000
    O32      O        0.87605    0.45430    0.90020    1.000
    O33      O        0.91120    0.36246    0.89850    1.000
    O34      O        0.67380    0.23461    0.59190    1.000
    O35      O        0.54880    0.24243    0.56620    1.000
    O36      O        0.01770    0.70020    0.33900    1.000
    N10      N        0.45890    0.44320    0.57200    1.000
    N11      N        0.46700    0.53440    0.61200    1.000
    H22      H        0.45230    0.56930    0.61380    1.000
    N12      N        0.55320    0.51370    0.67010    1.000
    C55      C        0.12690    0.56280    0.44700    1.000
    C56      C        0.18010    0.52450    0.42700    1.000
    C57      C        0.27050    0.52640    0.50000    1.000
    H23      H        0.29900    0.55110    0.56330    1.000
    C58      C        0.31920    0.49120    0.47940    1.000
    C59      C        0.27690    0.45300    0.38920    1.000
    H24      H        0.30920    0.42850    0.37660    1.000
    C60      C        0.18610    0.45090    0.31690    1.000
    C61      C        0.13710    0.48750    0.33150    1.000
    H25      H        0.07610    0.48780    0.27880    1.000
    C62      C        0.14150    0.41000    0.21350    1.000
    C63      C        0.41510    0.49340    0.55710    1.000
    C64      C        0.54450    0.46030    0.64310    1.000
    C65      C        0.61080    0.41600    0.67540    1.000
    C66      C        0.69950    0.43090    0.75420    1.000
    H26      H        0.71620    0.46760    0.78710    1.000
    C67      C        0.76220    0.38920    0.78150    1.000
    C68      C        0.73710    0.33480    0.73230    1.000
    H27      H        0.78000    0.30770    0.75140    1.000
    C69      C        0.64960    0.32010    0.65540    1.000
    C70      C        0.58700    0.36130    0.62980    1.000
    H28      H        0.52770    0.35170    0.58070    1.000
    C71      C        0.85840    0.40330    0.86790    1.000
    C72      C        0.62320    0.26120    0.60340    1.000
    Cd5      Cd       0.55749    0.84686    0.00358    1.000
    O37      O        0.66310    0.89339    0.00710    1.000
    O38      O        0.55099    0.95019    0.90780    1.000
    O39      O        0.56407    0.07932    0.62660    1.000
    O40      O        0.68030    0.13450    0.72130    1.000
    O41      O        0.37605    0.04570    0.40020    1.000
    O42      O        0.41120    0.13754    0.39850    1.000
    O43      O        0.17380    0.26539    0.09190    1.000
    O44      O        0.04880    0.25757    0.06620    1.000
    O45      O        0.51770    0.79980    0.83900    1.000
    N13      N        0.95890    0.05680    0.07200    1.000
    N14      N        0.96700    0.96560    0.11200    1.000
    H29      H        0.95230    0.93070    0.11380    1.000
    N15      N        0.05320    0.98630    0.17010    1.000
    C73      C        0.62690    0.93720    0.94700    1.000
    C74      C        0.68010    0.97550    0.92700    1.000
    C75      C        0.77050    0.97360    0.00000    1.000
    H30      H        0.79900    0.94890    0.06330    1.000
    C76      C        0.81920    0.00880    0.97940    1.000
    C77      C        0.77690    0.04700    0.88920    1.000
    H31      H        0.80920    0.07150    0.87660    1.000
    C78      C        0.68610    0.04910    0.81690    1.000
    C79      C        0.63710    0.01250    0.83150    1.000
    H32      H        0.57610    0.01220    0.77880    1.000
    C80      C        0.64150    0.09000    0.71350    1.000
    C81      C        0.91510    0.00660    0.05710    1.000
    C82      C        0.04450    0.03970    0.14310    1.000
    C83      C        0.11080    0.08400    0.17540    1.000
    C84      C        0.19950    0.06910    0.25420    1.000
    H33      H        0.21620    0.03240    0.28710    1.000
    C85      C        0.26220    0.11080    0.28150    1.000
    C86      C        0.23710    0.16520    0.23230    1.000
    H34      H        0.28000    0.19230    0.25140    1.000
    C87      C        0.14960    0.17990    0.15540    1.000
    C88      C        0.08700    0.13870    0.12980    1.000
    H35      H        0.02770    0.14830    0.08070    1.000
    C89      C        0.35840    0.09670    0.36790    1.000
    C90      C        0.12320    0.23880    0.10340    1.000
    Cd6      Cd       0.05749    0.34686    0.00358    1.000
    O46      O        0.16310    0.39339    0.00710    1.000
    O47      O        0.05099    0.45019    0.90780    1.000
    O48      O        0.06407    0.57932    0.62660    1.000
    O49      O        0.18030    0.63450    0.72130    1.000
    O50      O        0.87605    0.54570    0.40020    1.000
    O51      O        0.91120    0.63754    0.39850    1.000
    O52      O        0.67380    0.76539    0.09190    1.000
    O53      O        0.54880    0.75757    0.06620    1.000
    O54      O        0.01770    0.29980    0.83900    1.000
    N16      N        0.45890    0.55680    0.07200    1.000
    N17      N        0.46700    0.46560    0.11200    1.000
    H36      H        0.45230    0.43070    0.11380    1.000
    N18      N        0.55320    0.48630    0.17010    1.000
    C91      C        0.12690    0.43720    0.94700    1.000
    C92      C        0.18010    0.47550    0.92700    1.000
    C93      C        0.27050    0.47360    0.00000    1.000
    H37      H        0.29900    0.44890    0.06330    1.000
    C94      C        0.31920    0.50880    0.97940    1.000
    C95      C        0.27690    0.54700    0.88920    1.000
    H38      H        0.30920    0.57150    0.87660    1.000
    C96      C        0.18610    0.54910    0.81690    1.000
    C97      C        0.13710    0.51250    0.83150    1.000
    H39      H        0.07610    0.51220    0.77880    1.000
    C98      C        0.14150    0.59000    0.71350    1.000
    C99      C        0.41510    0.50660    0.05710    1.000
    C100     C        0.54450    0.53970    0.14310    1.000
    C101     C        0.61080    0.58400    0.17540    1.000
    C102     C        0.69950    0.56910    0.25420    1.000
    H40      H        0.71620    0.53240    0.28710    1.000
    C103     C        0.76220    0.61080    0.28150    1.000
    C104     C        0.73710    0.66520    0.23230    1.000
    H41      H        0.78000    0.69230    0.25140    1.000
    C105     C        0.64960    0.67990    0.15540    1.000
    C106     C        0.58700    0.63870    0.12980    1.000
    H42      H        0.52770    0.64830    0.08070    1.000
    C107     C        0.85840    0.59670    0.36790    1.000
    C108     C        0.62320    0.73880    0.10340    1.000
    Cd7      Cd       0.44251    0.84686    0.49642    1.000
    O55      O        0.33690    0.89339    0.49290    1.000
    O56      O        0.44901    0.95019    0.59220    1.000
    O57      O        0.43593    0.07932    0.87340    1.000
    O58      O        0.31970    0.13450    0.77870    1.000
    O59      O        0.62395    0.04570    0.09980    1.000
    O60      O        0.58880    0.13754    0.10150    1.000
    O61      O        0.82620    0.26539    0.40810    1.000
    O62      O        0.95120    0.25757    0.43380    1.000
    O63      O        0.48230    0.79980    0.66100    1.000
    N19      N        0.04110    0.05680    0.42800    1.000
    N20      N        0.03300    0.96560    0.38800    1.000
    H43      H        0.04770    0.93070    0.38620    1.000
    N21      N        0.94680    0.98630    0.32990    1.000
    C109     C        0.37310    0.93720    0.55300    1.000
    C110     C        0.31990    0.97550    0.57300    1.000
    C111     C        0.22950    0.97360    0.50000    1.000
    H44      H        0.20100    0.94890    0.43670    1.000
    C112     C        0.18080    0.00880    0.52060    1.000
    C113     C        0.22310    0.04700    0.61080    1.000
    H45      H        0.19080    0.07150    0.62340    1.000
    C114     C        0.31390    0.04910    0.68310    1.000
    C115     C        0.36290    0.01250    0.66850    1.000
    H46      H        0.42390    0.01220    0.72120    1.000
    C116     C        0.35850    0.09000    0.78650    1.000
    C117     C        0.08490    0.00660    0.44290    1.000
    C118     C        0.95550    0.03970    0.35690    1.000
    C119     C        0.88920    0.08400    0.32460    1.000
    C120     C        0.80050    0.06910    0.24580    1.000
    H47      H        0.78380    0.03240    0.21290    1.000
    C121     C        0.73780    0.11080    0.21850    1.000
    C122     C        0.76290    0.16520    0.26770    1.000
    H48      H        0.72000    0.19230    0.24860    1.000
    C123     C        0.85040    0.17990    0.34460    1.000
    C124     C        0.91300    0.13870    0.37020    1.000
    H49      H        0.97230    0.14830    0.41930    1.000
    C125     C        0.64160    0.09670    0.13210    1.000
    C126     C        0.87680    0.23880    0.39660    1.000
    Cd8      Cd       0.94251    0.34686    0.49642    1.000
    O64      O        0.83690    0.39339    0.49290    1.000
    O65      O        0.94901    0.45019    0.59220    1.000
    O66      O        0.93593    0.57932    0.87340    1.000
    O67      O        0.81970    0.63450    0.77870    1.000
    O68      O        0.12395    0.54570    0.09980    1.000
    O69      O        0.08880    0.63754    0.10150    1.000
    O70      O        0.32620    0.76539    0.40810    1.000
    O71      O        0.45120    0.75757    0.43380    1.000
    O72      O        0.98230    0.29980    0.66100    1.000
    N22      N        0.54110    0.55680    0.42800    1.000
    N23      N        0.53300    0.46560    0.38800    1.000
    H50      H        0.54770    0.43070    0.38620    1.000
    N24      N        0.44680    0.48630    0.32990    1.000
    C127     C        0.87310    0.43720    0.55300    1.000
    C128     C        0.81990    0.47550    0.57300    1.000
    C129     C        0.72950    0.47360    0.50000    1.000
    H51      H        0.70100    0.44890    0.43670    1.000
    C130     C        0.68080    0.50880    0.52060    1.000
    C131     C        0.72310    0.54700    0.61080    1.000
    H52      H        0.69080    0.57150    0.62340    1.000
    C132     C        0.81390    0.54910    0.68310    1.000
    C133     C        0.86290    0.51250    0.66850    1.000
    H53      H        0.92390    0.51220    0.72120    1.000
    C134     C        0.85850    0.59000    0.78650    1.000
    C135     C        0.58490    0.50660    0.44290    1.000
    C136     C        0.45550    0.53970    0.35690    1.000
    C137     C        0.38920    0.58400    0.32460    1.000
    C138     C        0.30050    0.56910    0.24580    1.000
    H54      H        0.28380    0.53240    0.21290    1.000
    C139     C        0.23780    0.61080    0.21850    1.000
    C140     C        0.26290    0.66520    0.26770    1.000
    H55      H        0.22000    0.69230    0.24860    1.000
    C141     C        0.35040    0.67990    0.34460    1.000
    C142     C        0.41300    0.63870    0.37020    1.000
    H56      H        0.47230    0.64830    0.41930    1.000
    C143     C        0.14160    0.59670    0.13210    1.000
    C144     C        0.37680    0.73880    0.39660    1.000
    Cd9      Cd       0.50000    0.00000    0.00000    1.000
    Cd10     Cd       0.00000    0.50000    0.00000    1.000
    Cd11     Cd       0.50000    0.00000    0.50000    1.000
    Cd12     Cd       0.00000    0.50000    0.50000    1.000
    C145     C        0.50000    0.17580    0.25000    1.000
    H57      H        0.50000    0.13560    0.25000    1.000
    C146     C        0.00000    0.67580    0.25000    1.000
    H58      H        0.00000    0.63560    0.25000    1.000
    C147     C        0.50000    0.82420    0.75000    1.000
    H59      H        0.50000    0.86440    0.75000    1.000
    C148     C        0.00000    0.32420    0.75000    1.000
    H60      H        0.00000    0.36440    0.75000    1.000
