data_functionalizedCrystal
_audit_creation_method	'EQeq! by Chris Wilmer'
_symmetry_space_group_name_H-M	'P1'
_symmetry_Int_Tables_number	1
_symmetry_cell_setting	triclinic
loop_
_symmetry_equiv_pos_as_xyz
  x,y,z
_cell_length_a	25.616
_cell_length_b	28.157
_cell_length_c	40.549
_cell_angle_alpha	90
_cell_angle_beta	90
_cell_angle_gamma	90
loop_
_atom_site_label
_atom_site_type_symbol
_atom_site_fract_x
_atom_site_fract_y
_atom_site_fract_z
_atom_site_charge
Mof_C 	C 	0.8009	0.0655	0.27895	0.346
Mof_C 	C 	0.8271	0.1069	0.29557	-0.076
Mof_C 	C 	0.8663	0.1307	0.27953	0.017
Mof_H 	H 	0.8773	0.1209	0.2588	0.055
Mof_C 	C 	0.8892	0.1692	0.2946	-0.067
Mof_C 	C 	0.9305	0.1996	0.2769	0.364
Mof_C 	C 	0.8115	0.1207	0.32705	-0.03
Mof_H 	H 	0.785	0.104	0.3376	0.049
Mof_C 	C 	0.8738	0.1827	0.32601	-0.033
Mof_H 	H 	0.8902	0.2085	0.336	0.059
Mof_C 	C 	0.8346	0.1589	0.34295	0.009
Mof_C 	C 	0.8177	0.1742	0.37636	-0.012
Mof_C 	C 	0.7665	0.1701	0.38673	-0.022
Mof_H 	H 	0.7425	0.1553	0.3729	0.034
Mof_C 	C 	0.8516	0.1963	0.39759	-0.024
Mof_H 	H 	0.8864	0.1995	0.3914	0.035
Mof_C 	C 	0.7496	0.1871	0.41673	-0.116
Mof_H 	H 	0.7148	0.1837	0.4228	0.065
Mof_C 	C 	0.8355	0.2142	0.42843	-0.13
Mof_H 	H 	0.8594	0.2291	0.4423	0.06
Mof_C 	C 	0.7843	0.2094	0.43792	0.085
Mof_C 	C 	0.767	0.2303	0.47023	-0.146
Mof_H 	H 	0.8226	0.1545	0.5223	0.283
Mof_H 	H 	0.8488	0.1711	0.4893	0.276
Mof_H 	H 	0.7987	0.1392	0.4884	0.271
Mof_O 	O 	0.8192	0.05	0.25239	-0.408
Mof_O 	O 	0.74007	0.9512	0.20712	-0.382
Mof_O 	O 	0.05421	0.2643	0.20857	-0.428
Mof_O 	O 	0.94584	0.185	0.24947	-0.388
Mof_C 	C 	0.8009	0.5655	0.77895	0.344
Mof_C 	C 	0.8271	0.6069	0.79557	-0.071
Mof_C 	C 	0.8663	0.6307	0.77953	0.014
Mof_H 	H 	0.8773	0.6209	0.7588	0.057
Mof_C 	C 	0.8892	0.6692	0.7946	-0.065
Mof_C 	C 	0.9305	0.6996	0.7769	0.362
Mof_C 	C 	0.8115	0.6207	0.82705	-0.032
Mof_H 	H 	0.785	0.604	0.8376	0.054
Mof_C 	C 	0.8738	0.6827	0.82601	-0.034
Mof_H 	H 	0.8902	0.7085	0.836	0.061
Mof_C 	C 	0.8346	0.6589	0.84295	0.012
Mof_C 	C 	0.8177	0.6742	0.87636	-0.01
Mof_C 	C 	0.7665	0.6701	0.88673	-0.021
Mof_H 	H 	0.7425	0.6553	0.8729	0.036
Mof_C 	C 	0.8516	0.6963	0.89759	-0.023
Mof_H 	H 	0.8864	0.6995	0.8914	0.037
Mof_C 	C 	0.7496	0.6871	0.91673	-0.114
Mof_H 	H 	0.7148	0.6837	0.9228	0.066
Mof_C 	C 	0.8355	0.7142	0.92843	-0.127
Mof_H 	H 	0.8594	0.7291	0.9423	0.061
Mof_C 	C 	0.7843	0.7094	0.93792	0.085
Mof_C 	C 	0.767	0.7303	0.97023	-0.146
Mof_H 	H 	0.8226	0.6545	0.0223	0.256
Mof_H 	H 	0.8488	0.6711	0.9893	0.241
Mof_H 	H 	0.7987	0.6392	0.9884	0.239
Mof_O 	O 	0.8192	0.55	0.75239	-0.398
Mof_O 	O 	0.74007	0.4512	0.70712	-0.402
Mof_O 	O 	0.05421	0.7643	0.70857	-0.427
Mof_O 	O 	0.94584	0.685	0.74947	-0.386
Mof_C 	C 	0.3009	0.0655	0.77895	0.347
Mof_C 	C 	0.3271	0.1069	0.79557	-0.084
Mof_C 	C 	0.3663	0.1307	0.77953	0.022
Mof_H 	H 	0.3773	0.1209	0.7588	0.047
Mof_C 	C 	0.3892	0.1692	0.7946	-0.08
Mof_C 	C 	0.4305	0.1996	0.7769	0.368
Mof_C 	C 	0.3115	0.1207	0.82705	-0.026
Mof_H 	H 	0.285	0.104	0.8376	0.045
Mof_C 	C 	0.3738	0.1827	0.82601	-0.027
Mof_H 	H 	0.3902	0.2085	0.836	0.053
Mof_C 	C 	0.3346	0.1589	0.84295	0.001
Mof_C 	C 	0.3177	0.1742	0.87636	-0.008
Mof_C 	C 	0.2665	0.1701	0.88673	-0.027
Mof_H 	H 	0.2425	0.1553	0.8729	0.034
Mof_C 	C 	0.3516	0.1963	0.89759	-0.03
Mof_H 	H 	0.3864	0.1995	0.8914	0.031
Mof_C 	C 	0.2496	0.1871	0.91673	-0.109
Mof_H 	H 	0.2148	0.1837	0.9228	0.06
Mof_C 	C 	0.3355	0.2142	0.92843	-0.123
Mof_H 	H 	0.3594	0.2291	0.9423	0.053
Mof_C 	C 	0.2843	0.2094	0.93792	0.077
Mof_C 	C 	0.267	0.2303	0.97023	-0.138
Mof_H 	H 	0.3226	0.1545	0.0223	0.233
Mof_H 	H 	0.3488	0.1711	0.9893	0.217
Mof_H 	H 	0.2987	0.1392	0.9884	0.215
Mof_O 	O 	0.3192	0.05	0.75239	-0.413
Mof_O 	O 	0.24007	0.9512	0.70712	-0.386
Mof_O 	O 	0.55421	0.2643	0.70857	-0.417
Mof_O 	O 	0.44584	0.185	0.74947	-0.411
Mof_C 	C 	0.3009	0.5655	0.27895	0.346
Mof_C 	C 	0.3271	0.6069	0.29557	-0.077
Mof_C 	C 	0.3663	0.6307	0.27953	0.018
Mof_H 	H 	0.3773	0.6209	0.2588	0.051
Mof_C 	C 	0.3892	0.6692	0.2946	-0.075
Mof_C 	C 	0.4305	0.6996	0.2769	0.367
Mof_C 	C 	0.3115	0.6207	0.32705	-0.029
Mof_H 	H 	0.285	0.604	0.3376	0.05
Mof_C 	C 	0.3738	0.6827	0.32601	-0.03
Mof_H 	H 	0.3902	0.7085	0.336	0.055
Mof_C 	C 	0.3346	0.6589	0.34295	0.006
Mof_C 	C 	0.3177	0.6742	0.37636	-0.011
Mof_C 	C 	0.2665	0.6701	0.38673	-0.022
Mof_H 	H 	0.2425	0.6553	0.3729	0.035
Mof_C 	C 	0.3516	0.6963	0.39759	-0.024
Mof_H 	H 	0.3864	0.6995	0.3914	0.031
Mof_C 	C 	0.2496	0.6871	0.41673	-0.114
Mof_H 	H 	0.2148	0.6837	0.4228	0.064
Mof_C 	C 	0.3355	0.7142	0.42843	-0.13
Mof_H 	H 	0.3594	0.7291	0.4423	0.056
Mof_C 	C 	0.2843	0.7094	0.43792	0.084
Mof_C 	C 	0.267	0.7303	0.47023	-0.145
Mof_H 	H 	0.3226	0.6545	0.5223	0.281
Mof_H 	H 	0.3488	0.6711	0.4893	0.273
Mof_H 	H 	0.2987	0.6392	0.4884	0.27
Mof_O 	O 	0.3192	0.55	0.25239	-0.403
Mof_O 	O 	0.24007	0.4512	0.20712	-0.404
Mof_O 	O 	0.55421	0.7643	0.20857	-0.415
Mof_O 	O 	0.44584	0.685	0.24947	-0.408
Mof_C 	C 	0.1991	0.9345	0.27895	0.342
Mof_C 	C 	0.1729	0.8931	0.29557	-0.073
Mof_C 	C 	0.1337	0.8693	0.27953	0.017
Mof_H 	H 	0.1227	0.8791	0.2588	0.051
Mof_C 	C 	0.1108	0.8308	0.2946	-0.078
Mof_C 	C 	0.0695	0.8004	0.2769	0.367
Mof_C 	C 	0.1885	0.8793	0.32705	-0.032
Mof_H 	H 	0.215	0.896	0.3376	0.055
Mof_C 	C 	0.1262	0.8173	0.32601	-0.03
Mof_H 	H 	0.1098	0.7915	0.336	0.051
Mof_C 	C 	0.1654	0.8411	0.34295	0.008
Mof_C 	C 	0.1823	0.8258	0.37636	-0.013
Mof_C 	C 	0.2335	0.8299	0.38673	-0.019
Mof_H 	H 	0.2575	0.8447	0.3729	0.038
Mof_C 	C 	0.1484	0.8037	0.39759	-0.023
Mof_H 	H 	0.1136	0.8005	0.3914	0.024
Mof_C 	C 	0.2504	0.8129	0.41673	-0.116
Mof_H 	H 	0.2852	0.8163	0.4228	0.07
Mof_C 	C 	0.1645	0.7858	0.42843	-0.134
Mof_H 	H 	0.1406	0.7709	0.4423	0.052
Mof_C 	C 	0.2157	0.7906	0.43792	0.087
Mof_C 	C 	0.233	0.7697	0.47023	-0.151
Mof_H 	H 	0.1774	0.8455	0.5223	0.285
Mof_H 	H 	0.1512	0.8289	0.4893	0.275
Mof_H 	H 	0.2013	0.8608	0.4884	0.277
Mof_O 	O 	0.1808	0.95	0.25239	-0.388
Mof_O 	O 	0.25993	0.0488	0.20712	-0.414
Mof_O 	O 	0.94579	0.7357	0.20857	-0.393
Mof_O 	O 	0.05416	0.815	0.24947	-0.417
Mof_C 	C 	0.1991	0.4345	0.77895	0.346
Mof_C 	C 	0.1729	0.3931	0.79557	-0.082
Mof_C 	C 	0.1337	0.3693	0.77953	0.022
Mof_H 	H 	0.1227	0.3791	0.7588	0.046
Mof_C 	C 	0.1108	0.3308	0.7946	-0.084
Mof_C 	C 	0.0695	0.3004	0.7769	0.369
Mof_C 	C 	0.1885	0.3793	0.82705	-0.027
Mof_H 	H 	0.215	0.396	0.8376	0.05
Mof_C 	C 	0.1262	0.3173	0.82601	-0.026
Mof_H 	H 	0.1098	0.2915	0.836	0.048
Mof_C 	C 	0.1654	0.3411	0.84295	0.001
Mof_C 	C 	0.1823	0.3258	0.87636	-0.009
Mof_C 	C 	0.2335	0.3299	0.88673	-0.025
Mof_H 	H 	0.2575	0.3447	0.8729	0.037
Mof_C 	C 	0.1484	0.3037	0.89759	-0.029
Mof_H 	H 	0.1136	0.3005	0.8914	0.025
Mof_C 	C 	0.2504	0.3129	0.91673	-0.111
Mof_H 	H 	0.2852	0.3163	0.9228	0.065
Mof_C 	C 	0.1645	0.2858	0.92843	-0.126
Mof_H 	H 	0.1406	0.2709	0.9423	0.048
Mof_C 	C 	0.2157	0.2906	0.93792	0.08
Mof_C 	C 	0.233	0.2697	0.97023	-0.143
Mof_H 	H 	0.1774	0.3455	0.0223	0.237
Mof_H 	H 	0.1512	0.3289	0.9893	0.219
Mof_H 	H 	0.2013	0.3608	0.9884	0.22
Mof_O 	O 	0.1808	0.45	0.75239	-0.407
Mof_O 	O 	0.25993	0.5488	0.70712	-0.405
Mof_O 	O 	0.94579	0.2357	0.70857	-0.395
Mof_O 	O 	0.05416	0.315	0.74947	-0.42
Mof_C 	C 	0.6991	0.9345	0.77895	0.341
Mof_C 	C 	0.6729	0.8931	0.79557	-0.068
Mof_C 	C 	0.6337	0.8693	0.77953	0.014
Mof_H 	H 	0.6227	0.8791	0.7588	0.056
Mof_C 	C 	0.6108	0.8308	0.7946	-0.07
Mof_C 	C 	0.5695	0.8004	0.7769	0.366
Mof_C 	C 	0.6885	0.8793	0.82705	-0.034
Mof_H 	H 	0.715	0.896	0.8376	0.059
Mof_C 	C 	0.6262	0.8173	0.82601	-0.033
Mof_H 	H 	0.6098	0.7915	0.836	0.056
Mof_C 	C 	0.6654	0.8411	0.84295	0.012
Mof_C 	C 	0.6823	0.8258	0.87636	-0.011
Mof_C 	C 	0.7335	0.8299	0.88673	-0.018
Mof_H 	H 	0.7575	0.8447	0.8729	0.04
Mof_C 	C 	0.6484	0.8037	0.89759	-0.022
Mof_H 	H 	0.6136	0.8005	0.8914	0.031
Mof_C 	C 	0.7504	0.8129	0.91673	-0.115
Mof_H 	H 	0.7852	0.8163	0.9228	0.072
Mof_C 	C 	0.6645	0.7858	0.92843	-0.13
Mof_H 	H 	0.6406	0.7709	0.9423	0.056
Mof_C 	C 	0.7157	0.7906	0.93792	0.088
Mof_C 	C 	0.733	0.7697	0.97023	-0.151
Mof_H 	H 	0.6774	0.8455	0.0223	0.26
Mof_H 	H 	0.6512	0.8289	0.9893	0.243
Mof_H 	H 	0.7013	0.8608	0.9884	0.245
Mof_O 	O 	0.6808	0.95	0.75239	-0.384
Mof_O 	O 	0.75993	0.0488	0.70712	-0.412
Mof_O 	O 	0.44579	0.7357	0.70857	-0.416
Mof_O 	O 	0.55416	0.815	0.74947	-0.405
Mof_C 	C 	0.6991	0.4345	0.27895	0.345
Mof_C 	C 	0.6729	0.3931	0.29557	-0.076
Mof_C 	C 	0.6337	0.3693	0.27953	0.018
Mof_H 	H 	0.6227	0.3791	0.2588	0.052
Mof_C 	C 	0.6108	0.3308	0.2946	-0.075
Mof_C 	C 	0.5695	0.3004	0.2769	0.367
Mof_C 	C 	0.6885	0.3793	0.32705	-0.031
Mof_H 	H 	0.715	0.396	0.3376	0.053
Mof_C 	C 	0.6262	0.3173	0.32601	-0.031
Mof_H 	H 	0.6098	0.2915	0.336	0.054
Mof_C 	C 	0.6654	0.3411	0.34295	0.008
Mof_C 	C 	0.6823	0.3258	0.37636	-0.013
Mof_C 	C 	0.7335	0.3299	0.38673	-0.019
Mof_H 	H 	0.7575	0.3447	0.3729	0.038
Mof_C 	C 	0.6484	0.3037	0.39759	-0.023
Mof_H 	H 	0.6136	0.3005	0.3914	0.029
Mof_C 	C 	0.7504	0.3129	0.41673	-0.117
Mof_H 	H 	0.7852	0.3163	0.4228	0.071
Mof_C 	C 	0.6645	0.2858	0.42843	-0.133
Mof_H 	H 	0.6406	0.2709	0.4423	0.055
Mof_C 	C 	0.7157	0.2906	0.43792	0.088
Mof_C 	C 	0.733	0.2697	0.47023	-0.151
Mof_H 	H 	0.6774	0.3455	0.5223	0.286
Mof_H 	H 	0.6512	0.3289	0.4893	0.277
Mof_H 	H 	0.7013	0.3608	0.4884	0.276
Mof_O 	O 	0.6808	0.45	0.25239	-0.402
Mof_O 	O 	0.75993	0.5488	0.20712	-0.402
Mof_O 	O 	0.44579	0.2357	0.20857	-0.417
Mof_O 	O 	0.55416	0.315	0.24947	-0.408
Mof_C 	C 	0.1991	0.0655	0.72105	0.347
Mof_C 	C 	0.1729	0.1069	0.70443	-0.088
Mof_C 	C 	0.1337	0.1307	0.72047	0.024
Mof_H 	H 	0.1227	0.1209	0.7412	0.042
Mof_C 	C 	0.1108	0.1692	0.7054	-0.087
Mof_C 	C 	0.0695	0.1996	0.7231	0.369
Mof_C 	C 	0.1885	0.1207	0.67295	-0.025
Mof_H 	H 	0.215	0.104	0.6624	0.045
Mof_C 	C 	0.1262	0.1827	0.67399	-0.025
Mof_H 	H 	0.1098	0.2085	0.664	0.048
Mof_C 	C 	0.1654	0.1589	0.65705	-0.003
Mof_C 	C 	0.1823	0.1742	0.62364	-0.009
Mof_C 	C 	0.2335	0.1701	0.61327	-0.028
Mof_H 	H 	0.2575	0.1553	0.6271	0.036
Mof_C 	C 	0.1484	0.1963	0.60241	-0.031
Mof_H 	H 	0.1136	0.1995	0.6086	0.025
Mof_C 	C 	0.2504	0.1871	0.58327	-0.109
Mof_H 	H 	0.2852	0.1837	0.5772	0.063
Mof_C 	C 	0.1645	0.2142	0.57157	-0.125
Mof_H 	H 	0.1406	0.2291	0.5577	0.048
Mof_C 	C 	0.2157	0.2094	0.56208	0.075
Mof_C 	C 	0.233	0.2303	0.52977	-0.13
Mof_H 	H 	0.1774	0.1545	0.4777	0.26
Mof_H 	H 	0.1512	0.1711	0.5107	0.251
Mof_H 	H 	0.2013	0.1392	0.5116	0.25
Mof_O 	O 	0.1808	0.05	0.74761	-0.416
Mof_O 	O 	0.25993	0.9512	0.79288	-0.386
Mof_O 	O 	0.94579	0.2643	0.79143	-0.396
Mof_O 	O 	0.05416	0.185	0.75053	-0.422
Mof_C 	C 	0.1991	0.5655	0.22105	0.346
Mof_C 	C 	0.1729	0.6069	0.20443	-0.082
Mof_C 	C 	0.1337	0.6307	0.22047	0.021
Mof_H 	H 	0.1227	0.6209	0.2412	0.046
Mof_C 	C 	0.1108	0.6692	0.2054	-0.083
Mof_C 	C 	0.0695	0.6996	0.2231	0.368
Mof_C 	C 	0.1885	0.6207	0.17295	-0.027
Mof_H 	H 	0.215	0.604	0.1624	0.05
Mof_C 	C 	0.1262	0.6827	0.17399	-0.027
Mof_H 	H 	0.1098	0.7085	0.164	0.05
Mof_C 	C 	0.1654	0.6589	0.15705	0.002
Mof_C 	C 	0.1823	0.6742	0.12364	-0.007
Mof_C 	C 	0.2335	0.6701	0.11327	-0.027
Mof_H 	H 	0.2575	0.6553	0.1271	0.039
Mof_C 	C 	0.1484	0.6963	0.10241	-0.03
Mof_H 	H 	0.1136	0.6995	0.1086	0.028
Mof_C 	C 	0.2504	0.6871	0.08327	-0.105
Mof_H 	H 	0.2852	0.6837	0.0772	0.065
Mof_C 	C 	0.1645	0.7142	0.07157	-0.12
Mof_H 	H 	0.1406	0.7291	0.0577	0.052
Mof_C 	C 	0.2157	0.7094	0.06208	0.074
Mof_C 	C 	0.233	0.7303	0.02977	-0.12
Mof_H 	H 	0.1774	0.6545	0.9777	0.242
Mof_H 	H 	0.1512	0.6711	0.0107	0.241
Mof_H 	H 	0.2013	0.6392	0.0116	0.24
Mof_O 	O 	0.1808	0.55	0.24761	-0.407
Mof_O 	O 	0.25993	0.4512	0.29288	-0.405
Mof_O 	O 	0.94579	0.7643	0.29143	-0.394
Mof_O 	O 	0.05416	0.685	0.25053	-0.42
Mof_C 	C 	0.6991	0.0655	0.22105	0.346
Mof_C 	C 	0.6729	0.1069	0.20443	-0.082
Mof_C 	C 	0.6337	0.1307	0.22047	0.021
Mof_H 	H 	0.6227	0.1209	0.2412	0.048
Mof_C 	C 	0.6108	0.1692	0.2054	-0.079
Mof_C 	C 	0.5695	0.1996	0.2231	0.368
Mof_C 	C 	0.6885	0.1207	0.17295	-0.027
Mof_H 	H 	0.715	0.104	0.1624	0.049
Mof_C 	C 	0.6262	0.1827	0.17399	-0.028
Mof_H 	H 	0.6098	0.2085	0.164	0.053
Mof_C 	C 	0.6654	0.1589	0.15705	0.003
Mof_C 	C 	0.6823	0.1742	0.12364	-0.007
Mof_C 	C 	0.7335	0.1701	0.11327	-0.027
Mof_H 	H 	0.7575	0.1553	0.1271	0.039
Mof_C 	C 	0.6484	0.1963	0.10241	-0.03
Mof_H 	H 	0.6136	0.1995	0.1086	0.032
Mof_C 	C 	0.7504	0.1871	0.08327	-0.106
Mof_H 	H 	0.7852	0.1837	0.0772	0.066
Mof_C 	C 	0.6645	0.2142	0.07157	-0.12
Mof_H 	H 	0.6406	0.2291	0.0577	0.055
Mof_C 	C 	0.7157	0.2094	0.06208	0.075
Mof_C 	C 	0.733	0.2303	0.02977	-0.121
Mof_H 	H 	0.6774	0.1545	0.9777	0.243
Mof_H 	H 	0.6512	0.1711	0.0107	0.244
Mof_H 	H 	0.7013	0.1392	0.0116	0.241
Mof_O 	O 	0.6808	0.05	0.24761	-0.412
Mof_O 	O 	0.75993	0.9512	0.29288	-0.383
Mof_O 	O 	0.44579	0.2643	0.29143	-0.417
Mof_O 	O 	0.55416	0.185	0.25053	-0.41
Mof_C 	C 	0.6991	0.5655	0.72105	0.345
Mof_C 	C 	0.6729	0.6069	0.70443	-0.076
Mof_C 	C 	0.6337	0.6307	0.72047	0.018
Mof_H 	H 	0.6227	0.6209	0.7412	0.051
Mof_C 	C 	0.6108	0.6692	0.7054	-0.074
Mof_C 	C 	0.5695	0.6996	0.7231	0.367
Mof_C 	C 	0.6885	0.6207	0.67295	-0.03
Mof_H 	H 	0.715	0.604	0.6624	0.053
Mof_C 	C 	0.6262	0.6827	0.67399	-0.031
Mof_H 	H 	0.6098	0.7085	0.664	0.055
Mof_C 	C 	0.6654	0.6589	0.65705	0.008
Mof_C 	C 	0.6823	0.6742	0.62364	-0.01
Mof_C 	C 	0.7335	0.6701	0.61327	-0.022
Mof_H 	H 	0.7575	0.6553	0.6271	0.039
Mof_C 	C 	0.6484	0.6963	0.60241	-0.025
Mof_H 	H 	0.6136	0.6995	0.6086	0.031
Mof_C 	C 	0.7504	0.6871	0.58327	-0.113
Mof_H 	H 	0.7852	0.6837	0.5772	0.069
Mof_C 	C 	0.6645	0.7142	0.57157	-0.129
Mof_H 	H 	0.6406	0.7291	0.5577	0.056
Mof_C 	C 	0.7157	0.7094	0.56208	0.082
Mof_C 	C 	0.733	0.7303	0.52977	-0.138
Mof_H 	H 	0.6774	0.6545	0.4777	0.283
Mof_H 	H 	0.6512	0.6711	0.5107	0.274
Mof_H 	H 	0.7013	0.6392	0.5116	0.273
Mof_O 	O 	0.6808	0.55	0.74761	-0.403
Mof_O 	O 	0.75993	0.4512	0.79288	-0.402
Mof_O 	O 	0.44579	0.7643	0.79143	-0.416
Mof_O 	O 	0.55416	0.685	0.75053	-0.408
Mof_C 	C 	0.8009	0.9345	0.72105	0.34
Mof_C 	C 	0.8271	0.8931	0.70443	-0.062
Mof_C 	C 	0.8663	0.8693	0.72047	0.009
Mof_H 	H 	0.8773	0.8791	0.7412	0.062
Mof_C 	C 	0.8892	0.8308	0.7054	-0.06
Mof_C 	C 	0.9305	0.8004	0.7231	0.361
Mof_C 	C 	0.8115	0.8793	0.67295	-0.037
Mof_H 	H 	0.785	0.896	0.6624	0.059
Mof_C 	C 	0.8738	0.8173	0.67399	-0.038
Mof_H 	H 	0.8902	0.7915	0.664	0.062
Mof_C 	C 	0.8346	0.8411	0.65705	0.019
Mof_C 	C 	0.8177	0.8258	0.62364	-0.016
Mof_C 	C 	0.7665	0.8299	0.61327	-0.012
Mof_H 	H 	0.7425	0.8447	0.6271	0.036
Mof_C 	C 	0.8516	0.8037	0.60241	-0.015
Mof_H 	H 	0.8864	0.8005	0.6086	0.035
Mof_C 	C 	0.7496	0.8129	0.58327	-0.123
Mof_H 	H 	0.7148	0.8163	0.5772	0.073
Mof_C 	C 	0.8355	0.7858	0.57157	-0.139
Mof_H 	H 	0.8594	0.7709	0.5577	0.063
Mof_C 	C 	0.7843	0.7906	0.56208	0.097
Mof_C 	C 	0.767	0.7697	0.52977	-0.167
Mof_H 	H 	0.8226	0.8455	0.4777	0.308
Mof_H 	H 	0.8488	0.8289	0.5107	0.3
Mof_H 	H 	0.7987	0.8608	0.5116	0.298
Mof_O 	O 	0.8192	0.95	0.74761	-0.38
Mof_O 	O 	0.74007	0.0488	0.79288	-0.412
Mof_O 	O 	0.05421	0.7357	0.79143	-0.427
Mof_O 	O 	0.94584	0.815	0.75053	-0.383
Mof_C 	C 	0.8009	0.4345	0.22105	0.344
Mof_C 	C 	0.8271	0.3931	0.20443	-0.07
Mof_C 	C 	0.8663	0.3693	0.22047	0.014
Mof_H 	H 	0.8773	0.3791	0.2412	0.057
Mof_C 	C 	0.8892	0.3308	0.2054	-0.065
Mof_C 	C 	0.9305	0.3004	0.2231	0.363
Mof_C 	C 	0.8115	0.3793	0.17295	-0.033
Mof_H 	H 	0.785	0.396	0.1624	0.054
Mof_C 	C 	0.8738	0.3173	0.17399	-0.034
Mof_H 	H 	0.8902	0.2915	0.164	0.06
Mof_C 	C 	0.8346	0.3411	0.15705	0.013
Mof_C 	C 	0.8177	0.3258	0.12364	-0.012
Mof_C 	C 	0.7665	0.3299	0.11327	-0.018
Mof_H 	H 	0.7425	0.3447	0.1271	0.036
Mof_C 	C 	0.8516	0.3037	0.10241	-0.02
Mof_H 	H 	0.8864	0.3005	0.1086	0.036
Mof_C 	C 	0.7496	0.3129	0.08327	-0.116
Mof_H 	H 	0.7148	0.3163	0.0772	0.069
Mof_C 	C 	0.8355	0.2858	0.07157	-0.13
Mof_H 	H 	0.8594	0.2709	0.0577	0.062
Mof_C 	C 	0.7843	0.2906	0.06208	0.089
Mof_C 	C 	0.767	0.2697	0.02977	-0.149
Mof_H 	H 	0.8226	0.3455	0.9777	0.268
Mof_H 	H 	0.8488	0.3289	0.0107	0.269
Mof_H 	H 	0.7987	0.3608	0.0116	0.265
Mof_O 	O 	0.8192	0.45	0.24761	-0.398
Mof_O 	O 	0.74007	0.5488	0.29288	-0.402
Mof_O 	O 	0.05421	0.2357	0.29143	-0.428
Mof_O 	O 	0.94584	0.315	0.25053	-0.386
Mof_C 	C 	0.3009	0.9345	0.22105	0.342
Mof_C 	C 	0.3271	0.8931	0.20443	-0.069
Mof_C 	C 	0.3663	0.8693	0.22047	0.015
Mof_H 	H 	0.3773	0.8791	0.2412	0.056
Mof_C 	C 	0.3892	0.8308	0.2054	-0.07
Mof_C 	C 	0.4305	0.8004	0.2231	0.366
Mof_C 	C 	0.3115	0.8793	0.17295	-0.033
Mof_H 	H 	0.285	0.896	0.1624	0.057
Mof_C 	C 	0.3738	0.8173	0.17399	-0.033
Mof_H 	H 	0.3902	0.7915	0.164	0.056
Mof_C 	C 	0.3346	0.8411	0.15705	0.012
Mof_C 	C 	0.3177	0.8258	0.12364	-0.012
Mof_C 	C 	0.2665	0.8299	0.11327	-0.018
Mof_H 	H 	0.2425	0.8447	0.1271	0.037
Mof_C 	C 	0.3516	0.8037	0.10241	-0.021
Mof_H 	H 	0.3864	0.8005	0.1086	0.032
Mof_C 	C 	0.2496	0.8129	0.08327	-0.115
Mof_H 	H 	0.2148	0.8163	0.0772	0.069
Mof_C 	C 	0.3355	0.7858	0.07157	-0.131
Mof_H 	H 	0.3594	0.7709	0.0577	0.059
Mof_C 	C 	0.2843	0.7906	0.06208	0.089
Mof_C 	C 	0.267	0.7697	0.02977	-0.149
Mof_H 	H 	0.3226	0.8455	0.9777	0.267
Mof_H 	H 	0.3488	0.8289	0.0107	0.267
Mof_H 	H 	0.2987	0.8608	0.0116	0.265
Mof_O 	O 	0.3192	0.95	0.24761	-0.384
Mof_O 	O 	0.24007	0.0488	0.29288	-0.414
Mof_O 	O 	0.55421	0.7357	0.29143	-0.415
Mof_O 	O 	0.44584	0.815	0.25053	-0.405
Mof_C 	C 	0.3009	0.4345	0.72105	0.346
Mof_C 	C 	0.3271	0.3931	0.70443	-0.078
Mof_C 	C 	0.3663	0.3693	0.72047	0.019
Mof_H 	H 	0.3773	0.3791	0.7412	0.051
Mof_C 	C 	0.3892	0.3308	0.7054	-0.076
Mof_C 	C 	0.4305	0.3004	0.7231	0.368
Mof_C 	C 	0.3115	0.3793	0.67295	-0.03
Mof_H 	H 	0.285	0.396	0.6624	0.05
Mof_C 	C 	0.3738	0.3173	0.67399	-0.03
Mof_H 	H 	0.3902	0.2915	0.664	0.054
Mof_C 	C 	0.3346	0.3411	0.65705	0.007
Mof_C 	C 	0.3177	0.3258	0.62364	-0.013
Mof_C 	C 	0.2665	0.3299	0.61327	-0.02
Mof_H 	H 	0.2425	0.3447	0.6271	0.034
Mof_C 	C 	0.3516	0.3037	0.60241	-0.023
Mof_H 	H 	0.3864	0.3005	0.6086	0.029
Mof_C 	C 	0.2496	0.3129	0.58327	-0.118
Mof_H 	H 	0.2148	0.3163	0.5772	0.066
Mof_C 	C 	0.3355	0.2858	0.57157	-0.134
Mof_H 	H 	0.3594	0.2709	0.5577	0.055
Mof_C 	C 	0.2843	0.2906	0.56208	0.089
Mof_C 	C 	0.267	0.2697	0.52977	-0.158
Mof_H 	H 	0.3226	0.3455	0.4777	0.284
Mof_H 	H 	0.3488	0.3289	0.5107	0.276
Mof_H 	H 	0.2987	0.3608	0.5116	0.273
Mof_O 	O 	0.3192	0.45	0.74761	-0.403
Mof_O 	O 	0.24007	0.5488	0.79288	-0.404
Mof_O 	O 	0.55421	0.2357	0.79143	-0.417
Mof_O 	O 	0.44584	0.315	0.75053	-0.408
Mof_C 	C 	0.1991	0.9345	0.72105	0.342
Mof_C 	C 	0.1729	0.8931	0.70443	-0.073
Mof_C 	C 	0.1337	0.8693	0.72047	0.017
Mof_H 	H 	0.1227	0.8791	0.7412	0.051
Mof_C 	C 	0.1108	0.8308	0.7054	-0.078
Mof_C 	C 	0.0695	0.8004	0.7231	0.367
Mof_C 	C 	0.1885	0.8793	0.67295	-0.032
Mof_H 	H 	0.215	0.896	0.6624	0.055
Mof_C 	C 	0.1262	0.8173	0.67399	-0.03
Mof_H 	H 	0.1098	0.7915	0.664	0.051
Mof_C 	C 	0.1654	0.8411	0.65705	0.008
Mof_C 	C 	0.1823	0.8258	0.62364	-0.013
Mof_C 	C 	0.2335	0.8299	0.61327	-0.019
Mof_H 	H 	0.2575	0.8447	0.6271	0.038
Mof_C 	C 	0.1484	0.8037	0.60241	-0.023
Mof_H 	H 	0.1136	0.8005	0.6086	0.025
Mof_C 	C 	0.2504	0.8129	0.58327	-0.116
Mof_H 	H 	0.2852	0.8163	0.5772	0.07
Mof_C 	C 	0.1645	0.7858	0.57157	-0.134
Mof_H 	H 	0.1406	0.7709	0.5577	0.052
Mof_C 	C 	0.2157	0.7906	0.56208	0.087
Mof_C 	C 	0.233	0.7697	0.52977	-0.151
Mof_H 	H 	0.1774	0.8455	0.4777	0.285
Mof_H 	H 	0.1512	0.8289	0.5107	0.275
Mof_H 	H 	0.2013	0.8608	0.5116	0.277
Mof_O 	O 	0.1808	0.95	0.74761	-0.388
Mof_O 	O 	0.25993	0.0488	0.79288	-0.415
Mof_O 	O 	0.94579	0.7357	0.79143	-0.394
Mof_O 	O 	0.05416	0.815	0.75053	-0.417
Mof_C 	C 	0.1991	0.4345	0.22105	0.346
Mof_C 	C 	0.1729	0.3931	0.20443	-0.082
Mof_C 	C 	0.1337	0.3693	0.22047	0.022
Mof_H 	H 	0.1227	0.3791	0.2412	0.046
Mof_C 	C 	0.1108	0.3308	0.2054	-0.083
Mof_C 	C 	0.0695	0.3004	0.2231	0.369
Mof_C 	C 	0.1885	0.3793	0.17295	-0.027
Mof_H 	H 	0.215	0.396	0.1624	0.05
Mof_C 	C 	0.1262	0.3173	0.17399	-0.027
Mof_H 	H 	0.1098	0.2915	0.164	0.049
Mof_C 	C 	0.1654	0.3411	0.15705	0.002
Mof_C 	C 	0.1823	0.3258	0.12364	-0.009
Mof_C 	C 	0.2335	0.3299	0.11327	-0.024
Mof_H 	H 	0.2575	0.3447	0.1271	0.038
Mof_C 	C 	0.1484	0.3037	0.10241	-0.028
Mof_H 	H 	0.1136	0.3005	0.1086	0.026
Mof_C 	C 	0.2504	0.3129	0.08327	-0.109
Mof_H 	H 	0.2852	0.3163	0.0772	0.067
Mof_C 	C 	0.1645	0.2858	0.07157	-0.125
Mof_H 	H 	0.1406	0.2709	0.0577	0.051
Mof_C 	C 	0.2157	0.2906	0.06208	0.08
Mof_C 	C 	0.233	0.2697	0.02977	-0.133
Mof_H 	H 	0.1774	0.3455	0.9777	0.245
Mof_H 	H 	0.1512	0.3289	0.0107	0.244
Mof_H 	H 	0.2013	0.3608	0.0116	0.244
Mof_O 	O 	0.1808	0.45	0.24761	-0.407
Mof_O 	O 	0.25993	0.5488	0.29288	-0.405
Mof_O 	O 	0.94579	0.2357	0.29143	-0.395
Mof_O 	O 	0.05416	0.315	0.25053	-0.42
Mof_C 	C 	0.6991	0.9345	0.22105	0.341
Mof_C 	C 	0.6729	0.8931	0.20443	-0.067
Mof_C 	C 	0.6337	0.8693	0.22047	0.014
Mof_H 	H 	0.6227	0.8791	0.2412	0.056
Mof_C 	C 	0.6108	0.8308	0.2054	-0.07
Mof_C 	C 	0.5695	0.8004	0.2231	0.366
Mof_C 	C 	0.6885	0.8793	0.17295	-0.034
Mof_H 	H 	0.715	0.896	0.1624	0.059
Mof_C 	C 	0.6262	0.8173	0.17399	-0.033
Mof_H 	H 	0.6098	0.7915	0.164	0.056
Mof_C 	C 	0.6654	0.8411	0.15705	0.013
Mof_C 	C 	0.6823	0.8258	0.12364	-0.011
Mof_C 	C 	0.7335	0.8299	0.11327	-0.018
Mof_H 	H 	0.7575	0.8447	0.1271	0.041
Mof_C 	C 	0.6484	0.8037	0.10241	-0.021
Mof_H 	H 	0.6136	0.8005	0.1086	0.032
Mof_C 	C 	0.7504	0.8129	0.08327	-0.114
Mof_H 	H 	0.7852	0.8163	0.0772	0.074
Mof_C 	C 	0.6645	0.7858	0.07157	-0.129
Mof_H 	H 	0.6406	0.7709	0.0577	0.058
Mof_C 	C 	0.7157	0.7906	0.06208	0.087
Mof_C 	C 	0.733	0.7697	0.02977	-0.142
Mof_H 	H 	0.6774	0.8455	0.9777	0.268
Mof_H 	H 	0.6512	0.8289	0.0107	0.268
Mof_H 	H 	0.7013	0.8608	0.0116	0.268
Mof_O 	O 	0.6808	0.95	0.24761	-0.384
Mof_O 	O 	0.75993	0.0488	0.29288	-0.412
Mof_O 	O 	0.44579	0.7357	0.29143	-0.416
Mof_O 	O 	0.55416	0.815	0.25053	-0.405
Mof_C 	C 	0.6991	0.4345	0.72105	0.345
Mof_C 	C 	0.6729	0.3931	0.70443	-0.076
Mof_C 	C 	0.6337	0.3693	0.72047	0.018
Mof_H 	H 	0.6227	0.3791	0.7412	0.051
Mof_C 	C 	0.6108	0.3308	0.7054	-0.075
Mof_C 	C 	0.5695	0.3004	0.7231	0.368
Mof_C 	C 	0.6885	0.3793	0.67295	-0.031
Mof_H 	H 	0.715	0.396	0.6624	0.053
Mof_C 	C 	0.6262	0.3173	0.67399	-0.03
Mof_H 	H 	0.6098	0.2915	0.664	0.054
Mof_C 	C 	0.6654	0.3411	0.65705	0.008
Mof_C 	C 	0.6823	0.3258	0.62364	-0.012
Mof_C 	C 	0.7335	0.3299	0.61327	-0.019
Mof_H 	H 	0.7575	0.3447	0.6271	0.038
Mof_C 	C 	0.6484	0.3037	0.60241	-0.023
Mof_H 	H 	0.6136	0.3005	0.6086	0.029
Mof_C 	C 	0.7504	0.3129	0.58327	-0.117
Mof_H 	H 	0.7852	0.3163	0.5772	0.071
Mof_C 	C 	0.6645	0.2858	0.57157	-0.133
Mof_H 	H 	0.6406	0.2709	0.5577	0.055
Mof_C 	C 	0.7157	0.2906	0.56208	0.088
Mof_C 	C 	0.733	0.2697	0.52977	-0.151
Mof_H 	H 	0.6774	0.3455	0.4777	0.286
Mof_H 	H 	0.6512	0.3289	0.5107	0.277
Mof_H 	H 	0.7013	0.3608	0.5116	0.276
Mof_O 	O 	0.6808	0.45	0.74761	-0.403
Mof_O 	O 	0.75993	0.5488	0.79288	-0.402
Mof_O 	O 	0.44579	0.2357	0.79143	-0.417
Mof_O 	O 	0.55416	0.315	0.75053	-0.408
Mof_C 	C 	0.8009	0.0655	0.72105	0.345
Mof_C 	C 	0.8271	0.1069	0.70443	-0.077
Mof_C 	C 	0.8663	0.1307	0.72047	0.016
Mof_H 	H 	0.8773	0.1209	0.7412	0.053
Mof_C 	C 	0.8892	0.1692	0.7054	-0.069
Mof_C 	C 	0.9305	0.1996	0.7231	0.363
Mof_C 	C 	0.8115	0.1207	0.67295	-0.03
Mof_H 	H 	0.785	0.104	0.6624	0.049
Mof_C 	C 	0.8738	0.1827	0.67399	-0.032
Mof_H 	H 	0.8902	0.2085	0.664	0.059
Mof_C 	C 	0.8346	0.1589	0.65705	0.009
Mof_C 	C 	0.8177	0.1742	0.62364	-0.012
Mof_C 	C 	0.7665	0.1701	0.61327	-0.022
Mof_H 	H 	0.7425	0.1553	0.6271	0.034
Mof_C 	C 	0.8516	0.1963	0.60241	-0.024
Mof_H 	H 	0.8864	0.1995	0.6086	0.035
Mof_C 	C 	0.7496	0.1871	0.58327	-0.116
Mof_H 	H 	0.7148	0.1837	0.5772	0.065
Mof_C 	C 	0.8355	0.2142	0.57157	-0.13
Mof_H 	H 	0.8594	0.2291	0.5577	0.06
Mof_C 	C 	0.7843	0.2094	0.56208	0.085
Mof_C 	C 	0.767	0.2303	0.52977	-0.146
Mof_H 	H 	0.8226	0.1545	0.4777	0.283
Mof_H 	H 	0.8488	0.1711	0.5107	0.276
Mof_H 	H 	0.7987	0.1392	0.5116	0.271
Mof_O 	O 	0.8192	0.05	0.74761	-0.408
Mof_O 	O 	0.74007	0.9512	0.79288	-0.383
Mof_O 	O 	0.05421	0.2643	0.79143	-0.429
Mof_O 	O 	0.94584	0.185	0.75053	-0.388
Mof_C 	C 	0.8009	0.5655	0.22105	0.344
Mof_C 	C 	0.8271	0.6069	0.20443	-0.07
Mof_C 	C 	0.8663	0.6307	0.22047	0.013
Mof_H 	H 	0.8773	0.6209	0.2412	0.057
Mof_C 	C 	0.8892	0.6692	0.2054	-0.064
Mof_C 	C 	0.9305	0.6996	0.2231	0.362
Mof_C 	C 	0.8115	0.6207	0.17295	-0.033
Mof_H 	H 	0.785	0.604	0.1624	0.054
Mof_C 	C 	0.8738	0.6827	0.17399	-0.034
Mof_H 	H 	0.8902	0.7085	0.164	0.062
Mof_C 	C 	0.8346	0.6589	0.15705	0.013
Mof_C 	C 	0.8177	0.6742	0.12364	-0.01
Mof_C 	C 	0.7665	0.6701	0.11327	-0.021
Mof_H 	H 	0.7425	0.6553	0.1271	0.037
Mof_C 	C 	0.8516	0.6963	0.10241	-0.022
Mof_H 	H 	0.8864	0.6995	0.1086	0.039
Mof_C 	C 	0.7496	0.6871	0.08327	-0.112
Mof_H 	H 	0.7148	0.6837	0.0772	0.068
Mof_C 	C 	0.8355	0.7142	0.07157	-0.126
Mof_H 	H 	0.8594	0.7291	0.0577	0.063
Mof_C 	C 	0.7843	0.7094	0.06208	0.084
Mof_C 	C 	0.767	0.7303	0.02977	-0.136
Mof_H 	H 	0.8226	0.6545	0.9777	0.265
Mof_H 	H 	0.8488	0.6711	0.0107	0.267
Mof_H 	H 	0.7987	0.6392	0.0116	0.262
Mof_O 	O 	0.8192	0.55	0.24761	-0.398
Mof_O 	O 	0.74007	0.4512	0.29288	-0.402
Mof_O 	O 	0.05421	0.7643	0.29143	-0.427
Mof_O 	O 	0.94584	0.685	0.25053	-0.386
Mof_C 	C 	0.3009	0.0655	0.22105	0.347
Mof_C 	C 	0.3271	0.1069	0.20443	-0.084
Mof_C 	C 	0.3663	0.1307	0.22047	0.022
Mof_H 	H 	0.3773	0.1209	0.2412	0.047
Mof_C 	C 	0.3892	0.1692	0.2054	-0.079
Mof_C 	C 	0.4305	0.1996	0.2231	0.368
Mof_C 	C 	0.3115	0.1207	0.17295	-0.026
Mof_H 	H 	0.285	0.104	0.1624	0.046
Mof_C 	C 	0.3738	0.1827	0.17399	-0.027
Mof_H 	H 	0.3902	0.2085	0.164	0.053
Mof_C 	C 	0.3346	0.1589	0.15705	0.002
Mof_C 	C 	0.3177	0.1742	0.12364	-0.007
Mof_C 	C 	0.2665	0.1701	0.11327	-0.027
Mof_H 	H 	0.2425	0.1553	0.1271	0.035
Mof_C 	C 	0.3516	0.1963	0.10241	-0.029
Mof_H 	H 	0.3864	0.1995	0.1086	0.032
Mof_C 	C 	0.2496	0.1871	0.08327	-0.108
Mof_H 	H 	0.2148	0.1837	0.0772	0.061
Mof_C 	C 	0.3355	0.2142	0.07157	-0.122
Mof_H 	H 	0.3594	0.2291	0.0577	0.056
Mof_C 	C 	0.2843	0.2094	0.06208	0.076
Mof_C 	C 	0.267	0.2303	0.02977	-0.128
Mof_H 	H 	0.3226	0.1545	0.9777	0.242
Mof_H 	H 	0.3488	0.1711	0.0107	0.243
Mof_H 	H 	0.2987	0.1392	0.0116	0.238
Mof_O 	O 	0.3192	0.05	0.24761	-0.413
Mof_O 	O 	0.24007	0.9512	0.29288	-0.386
Mof_O 	O 	0.55421	0.2643	0.29143	-0.417
Mof_O 	O 	0.44584	0.185	0.25053	-0.411
Mof_C 	C 	0.3009	0.5655	0.72105	0.346
Mof_C 	C 	0.3271	0.6069	0.70443	-0.078
Mof_C 	C 	0.3663	0.6307	0.72047	0.019
Mof_H 	H 	0.3773	0.6209	0.7412	0.051
Mof_C 	C 	0.3892	0.6692	0.7054	-0.075
Mof_C 	C 	0.4305	0.6996	0.7231	0.367
Mof_C 	C 	0.3115	0.6207	0.67295	-0.029
Mof_H 	H 	0.285	0.604	0.6624	0.05
Mof_C 	C 	0.3738	0.6827	0.67399	-0.03
Mof_H 	H 	0.3902	0.7085	0.664	0.055
Mof_C 	C 	0.3346	0.6589	0.65705	0.006
Mof_C 	C 	0.3177	0.6742	0.62364	-0.011
Mof_C 	C 	0.2665	0.6701	0.61327	-0.022
Mof_H 	H 	0.2425	0.6553	0.6271	0.035
Mof_C 	C 	0.3516	0.6963	0.60241	-0.024
Mof_H 	H 	0.3864	0.6995	0.6086	0.031
Mof_C 	C 	0.2496	0.6871	0.58327	-0.114
Mof_H 	H 	0.2148	0.6837	0.5772	0.064
Mof_C 	C 	0.3355	0.7142	0.57157	-0.13
Mof_H 	H 	0.3594	0.7291	0.5577	0.056
Mof_C 	C 	0.2843	0.7094	0.56208	0.084
Mof_C 	C 	0.267	0.7303	0.52977	-0.145
Mof_H 	H 	0.3226	0.6545	0.4777	0.281
Mof_H 	H 	0.3488	0.6711	0.5107	0.273
Mof_H 	H 	0.2987	0.6392	0.5116	0.27
Mof_O 	O 	0.3192	0.55	0.74761	-0.403
Mof_O 	O 	0.24007	0.4512	0.79288	-0.404
Mof_O 	O 	0.55421	0.7643	0.79143	-0.416
Mof_O 	O 	0.44584	0.685	0.75053	-0.408
Mof_C 	C 	0.8009	0.9345	0.27895	0.34
Mof_C 	C 	0.8271	0.8931	0.29557	-0.062
Mof_C 	C 	0.8663	0.8693	0.27953	0.009
Mof_H 	H 	0.8773	0.8791	0.2588	0.062
Mof_C 	C 	0.8892	0.8308	0.2946	-0.06
Mof_C 	C 	0.9305	0.8004	0.2769	0.361
Mof_C 	C 	0.8115	0.8793	0.32705	-0.037
Mof_H 	H 	0.785	0.896	0.3376	0.059
Mof_C 	C 	0.8738	0.8173	0.32601	-0.038
Mof_H 	H 	0.8902	0.7915	0.336	0.062
Mof_C 	C 	0.8346	0.8411	0.34295	0.019
Mof_C 	C 	0.8177	0.8258	0.37636	-0.016
Mof_C 	C 	0.7665	0.8299	0.38673	-0.012
Mof_H 	H 	0.7425	0.8447	0.3729	0.036
Mof_C 	C 	0.8516	0.8037	0.39759	-0.015
Mof_H 	H 	0.8864	0.8005	0.3914	0.035
Mof_C 	C 	0.7496	0.8129	0.41673	-0.123
Mof_H 	H 	0.7148	0.8163	0.4228	0.073
Mof_C 	C 	0.8355	0.7858	0.42843	-0.139
Mof_H 	H 	0.8594	0.7709	0.4423	0.063
Mof_C 	C 	0.7843	0.7906	0.43792	0.097
Mof_C 	C 	0.767	0.7697	0.47023	-0.167
Mof_H 	H 	0.8226	0.8455	0.5223	0.308
Mof_H 	H 	0.8488	0.8289	0.4893	0.3
Mof_H 	H 	0.7987	0.8608	0.4884	0.298
Mof_O 	O 	0.8192	0.95	0.25239	-0.38
Mof_O 	O 	0.74007	0.0488	0.20712	-0.411
Mof_O 	O 	0.05421	0.7357	0.20857	-0.426
Mof_O 	O 	0.94584	0.815	0.24947	-0.383
Mof_C 	C 	0.8009	0.4345	0.77895	0.344
Mof_C 	C 	0.8271	0.3931	0.79557	-0.071
Mof_C 	C 	0.8663	0.3693	0.77953	0.014
Mof_H 	H 	0.8773	0.3791	0.7588	0.057
Mof_C 	C 	0.8892	0.3308	0.7946	-0.065
Mof_C 	C 	0.9305	0.3004	0.7769	0.363
Mof_C 	C 	0.8115	0.3793	0.82705	-0.033
Mof_H 	H 	0.785	0.396	0.8376	0.054
Mof_C 	C 	0.8738	0.3173	0.82601	-0.034
Mof_H 	H 	0.8902	0.2915	0.836	0.06
Mof_C 	C 	0.8346	0.3411	0.84295	0.013
Mof_C 	C 	0.8177	0.3258	0.87636	-0.012
Mof_C 	C 	0.7665	0.3299	0.88673	-0.018
Mof_H 	H 	0.7425	0.3447	0.8729	0.035
Mof_C 	C 	0.8516	0.3037	0.89759	-0.021
Mof_H 	H 	0.8864	0.3005	0.8914	0.035
Mof_C 	C 	0.7496	0.3129	0.91673	-0.118
Mof_H 	H 	0.7148	0.3163	0.9228	0.068
Mof_C 	C 	0.8355	0.2858	0.92843	-0.131
Mof_H 	H 	0.8594	0.2709	0.9423	0.06
Mof_C 	C 	0.7843	0.2906	0.93792	0.09
Mof_C 	C 	0.767	0.2697	0.97023	-0.159
Mof_H 	H 	0.8226	0.3455	0.0223	0.259
Mof_H 	H 	0.8488	0.3289	0.9893	0.244
Mof_H 	H 	0.7987	0.3608	0.9884	0.242
Mof_O 	O 	0.8192	0.45	0.75239	-0.398
Mof_O 	O 	0.74007	0.5488	0.70712	-0.402
Mof_O 	O 	0.05421	0.2357	0.70857	-0.428
Mof_O 	O 	0.94584	0.315	0.74947	-0.386
Mof_C 	C 	0.3009	0.9345	0.77895	0.342
Mof_C 	C 	0.3271	0.8931	0.79557	-0.069
Mof_C 	C 	0.3663	0.8693	0.77953	0.015
Mof_H 	H 	0.3773	0.8791	0.7588	0.056
Mof_C 	C 	0.3892	0.8308	0.7946	-0.071
Mof_C 	C 	0.4305	0.8004	0.7769	0.366
Mof_C 	C 	0.3115	0.8793	0.82705	-0.033
Mof_H 	H 	0.285	0.896	0.8376	0.056
Mof_C 	C 	0.3738	0.8173	0.82601	-0.032
Mof_H 	H 	0.3902	0.7915	0.836	0.056
Mof_C 	C 	0.3346	0.8411	0.84295	0.011
Mof_C 	C 	0.3177	0.8258	0.87636	-0.012
Mof_C 	C 	0.2665	0.8299	0.88673	-0.018
Mof_H 	H 	0.2425	0.8447	0.8729	0.036
Mof_C 	C 	0.3516	0.8037	0.89759	-0.021
Mof_H 	H 	0.3864	0.8005	0.8914	0.031
Mof_C 	C 	0.2496	0.8129	0.91673	-0.117
Mof_H 	H 	0.2148	0.8163	0.9228	0.067
Mof_C 	C 	0.3355	0.7858	0.92843	-0.132
Mof_H 	H 	0.3594	0.7709	0.9423	0.056
Mof_C 	C 	0.2843	0.7906	0.93792	0.09
Mof_C 	C 	0.267	0.7697	0.97023	-0.159
Mof_H 	H 	0.3226	0.8455	0.0223	0.258
Mof_H 	H 	0.3488	0.8289	0.9893	0.242
Mof_H 	H 	0.2987	0.8608	0.9884	0.242
Mof_O 	O 	0.3192	0.95	0.75239	-0.384
Mof_O 	O 	0.24007	0.0488	0.70712	-0.414
Mof_O 	O 	0.55421	0.7357	0.70857	-0.415
Mof_O 	O 	0.44584	0.815	0.74947	-0.405
Mof_C 	C 	0.3009	0.4345	0.27895	0.346
Mof_C 	C 	0.3271	0.3931	0.29557	-0.077
Mof_C 	C 	0.3663	0.3693	0.27953	0.019
Mof_H 	H 	0.3773	0.3791	0.2588	0.051
Mof_C 	C 	0.3892	0.3308	0.2946	-0.076
Mof_C 	C 	0.4305	0.3004	0.2769	0.368
Mof_C 	C 	0.3115	0.3793	0.32705	-0.03
Mof_H 	H 	0.285	0.396	0.3376	0.05
Mof_C 	C 	0.3738	0.3173	0.32601	-0.03
Mof_H 	H 	0.3902	0.2915	0.336	0.054
Mof_C 	C 	0.3346	0.3411	0.34295	0.007
Mof_C 	C 	0.3177	0.3258	0.37636	-0.013
Mof_C 	C 	0.2665	0.3299	0.38673	-0.02
Mof_H 	H 	0.2425	0.3447	0.3729	0.034
Mof_C 	C 	0.3516	0.3037	0.39759	-0.023
Mof_H 	H 	0.3864	0.3005	0.3914	0.029
Mof_C 	C 	0.2496	0.3129	0.41673	-0.118
Mof_H 	H 	0.2148	0.3163	0.4228	0.066
Mof_C 	C 	0.3355	0.2858	0.42843	-0.134
Mof_H 	H 	0.3594	0.2709	0.4423	0.055
Mof_C 	C 	0.2843	0.2906	0.43792	0.089
Mof_C 	C 	0.267	0.2697	0.47023	-0.158
Mof_H 	H 	0.3226	0.3455	0.5223	0.284
Mof_H 	H 	0.3488	0.3289	0.4893	0.276
Mof_H 	H 	0.2987	0.3608	0.4884	0.273
Mof_O 	O 	0.3192	0.45	0.25239	-0.403
Mof_O 	O 	0.24007	0.5488	0.20712	-0.404
Mof_O 	O 	0.55421	0.2357	0.20857	-0.417
Mof_O 	O 	0.44584	0.315	0.24947	-0.408
Mof_C 	C 	0.1991	0.0655	0.27895	0.347
Mof_C 	C 	0.1729	0.1069	0.29557	-0.088
Mof_C 	C 	0.1337	0.1307	0.27953	0.024
Mof_H 	H 	0.1227	0.1209	0.2588	0.043
Mof_C 	C 	0.1108	0.1692	0.2946	-0.087
Mof_C 	C 	0.0695	0.1996	0.2769	0.369
Mof_C 	C 	0.1885	0.1207	0.32705	-0.025
Mof_H 	H 	0.215	0.104	0.3376	0.045
Mof_C 	C 	0.1262	0.1827	0.32601	-0.025
Mof_H 	H 	0.1098	0.2085	0.336	0.048
Mof_C 	C 	0.1654	0.1589	0.34295	-0.003
Mof_C 	C 	0.1823	0.1742	0.37636	-0.009
Mof_C 	C 	0.2335	0.1701	0.38673	-0.028
Mof_H 	H 	0.2575	0.1553	0.3729	0.036
Mof_C 	C 	0.1484	0.1963	0.39759	-0.031
Mof_H 	H 	0.1136	0.1995	0.3914	0.025
Mof_C 	C 	0.2504	0.1871	0.41673	-0.109
Mof_H 	H 	0.2852	0.1837	0.4228	0.063
Mof_C 	C 	0.1645	0.2142	0.42843	-0.125
Mof_H 	H 	0.1406	0.2291	0.4423	0.048
Mof_C 	C 	0.2157	0.2094	0.43792	0.075
Mof_C 	C 	0.233	0.2303	0.47023	-0.13
Mof_H 	H 	0.1774	0.1545	0.5223	0.26
Mof_H 	H 	0.1512	0.1711	0.4893	0.251
Mof_H 	H 	0.2013	0.1392	0.4884	0.25
Mof_O 	O 	0.1808	0.05	0.25239	-0.416
Mof_O 	O 	0.25993	0.9512	0.20712	-0.385
Mof_O 	O 	0.94579	0.2643	0.20857	-0.395
Mof_O 	O 	0.05416	0.185	0.24947	-0.422
Mof_C 	C 	0.1991	0.5655	0.77895	0.346
Mof_C 	C 	0.1729	0.6069	0.79557	-0.082
Mof_C 	C 	0.1337	0.6307	0.77953	0.022
Mof_H 	H 	0.1227	0.6209	0.7588	0.046
Mof_C 	C 	0.1108	0.6692	0.7946	-0.083
Mof_C 	C 	0.0695	0.6996	0.7769	0.368
Mof_C 	C 	0.1885	0.6207	0.82705	-0.027
Mof_H 	H 	0.215	0.604	0.8376	0.05
Mof_C 	C 	0.1262	0.6827	0.82601	-0.027
Mof_H 	H 	0.1098	0.7085	0.836	0.049
Mof_C 	C 	0.1654	0.6589	0.84295	0.001
Mof_C 	C 	0.1823	0.6742	0.87636	-0.007
Mof_C 	C 	0.2335	0.6701	0.88673	-0.027
Mof_H 	H 	0.2575	0.6553	0.8729	0.038
Mof_C 	C 	0.1484	0.6963	0.89759	-0.031
Mof_H 	H 	0.1136	0.6995	0.8914	0.027
Mof_C 	C 	0.2504	0.6871	0.91673	-0.107
Mof_H 	H 	0.2852	0.6837	0.9228	0.064
Mof_C 	C 	0.1645	0.7142	0.92843	-0.122
Mof_H 	H 	0.1406	0.7291	0.9423	0.049
Mof_C 	C 	0.2157	0.7094	0.93792	0.075
Mof_C 	C 	0.233	0.7303	0.97023	-0.13
Mof_H 	H 	0.1774	0.6545	0.0223	0.233
Mof_H 	H 	0.1512	0.6711	0.9893	0.216
Mof_H 	H 	0.2013	0.6392	0.9884	0.217
Mof_O 	O 	0.1808	0.55	0.75239	-0.407
Mof_O 	O 	0.25993	0.4512	0.70712	-0.405
Mof_O 	O 	0.94579	0.7643	0.70857	-0.394
Mof_O 	O 	0.05416	0.685	0.74947	-0.42
Mof_C 	C 	0.6991	0.0655	0.77895	0.346
Mof_C 	C 	0.6729	0.1069	0.79557	-0.083
Mof_C 	C 	0.6337	0.1307	0.77953	0.021
Mof_H 	H 	0.6227	0.1209	0.7588	0.047
Mof_C 	C 	0.6108	0.1692	0.7946	-0.079
Mof_C 	C 	0.5695	0.1996	0.7769	0.368
Mof_C 	C 	0.6885	0.1207	0.82705	-0.027
Mof_H 	H 	0.715	0.104	0.8376	0.048
Mof_C 	C 	0.6262	0.1827	0.82601	-0.028
Mof_H 	H 	0.6098	0.2085	0.836	0.053
Mof_C 	C 	0.6654	0.1589	0.84295	0.002
Mof_C 	C 	0.6823	0.1742	0.87636	-0.007
Mof_C 	C 	0.7335	0.1701	0.88673	-0.027
Mof_H 	H 	0.7575	0.1553	0.8729	0.038
Mof_C 	C 	0.6484	0.1963	0.89759	-0.03
Mof_H 	H 	0.6136	0.1995	0.8914	0.031
Mof_C 	C 	0.7504	0.1871	0.91673	-0.108
Mof_H 	H 	0.7852	0.1837	0.9228	0.065
Mof_C 	C 	0.6645	0.2142	0.92843	-0.121
Mof_H 	H 	0.6406	0.2291	0.9423	0.052
Mof_C 	C 	0.7157	0.2094	0.93792	0.076
Mof_C 	C 	0.733	0.2303	0.97023	-0.13
Mof_H 	H 	0.6774	0.1545	0.0223	0.235
Mof_H 	H 	0.6512	0.1711	0.9893	0.219
Mof_H 	H 	0.7013	0.1392	0.9884	0.218
Mof_O 	O 	0.6808	0.05	0.75239	-0.412
Mof_O 	O 	0.75993	0.9512	0.70712	-0.383
Mof_O 	O 	0.44579	0.2643	0.70857	-0.417
Mof_O 	O 	0.55416	0.185	0.74947	-0.411
Mof_C 	C 	0.6991	0.5655	0.27895	0.345
Mof_C 	C 	0.6729	0.6069	0.29557	-0.076
Mof_C 	C 	0.6337	0.6307	0.27953	0.017
Mof_H 	H 	0.6227	0.6209	0.2588	0.052
Mof_C 	C 	0.6108	0.6692	0.2946	-0.074
Mof_C 	C 	0.5695	0.6996	0.2769	0.367
Mof_C 	C 	0.6885	0.6207	0.32705	-0.031
Mof_H 	H 	0.715	0.604	0.3376	0.053
Mof_C 	C 	0.6262	0.6827	0.32601	-0.031
Mof_H 	H 	0.6098	0.7085	0.336	0.055
Mof_C 	C 	0.6654	0.6589	0.34295	0.008
Mof_C 	C 	0.6823	0.6742	0.37636	-0.01
Mof_C 	C 	0.7335	0.6701	0.38673	-0.022
Mof_H 	H 	0.7575	0.6553	0.3729	0.039
Mof_C 	C 	0.6484	0.6963	0.39759	-0.025
Mof_H 	H 	0.6136	0.6995	0.3914	0.031
Mof_C 	C 	0.7504	0.6871	0.41673	-0.113
Mof_H 	H 	0.7852	0.6837	0.4228	0.069
Mof_C 	C 	0.6645	0.7142	0.42843	-0.129
Mof_H 	H 	0.6406	0.7291	0.4423	0.056
Mof_C 	C 	0.7157	0.7094	0.43792	0.082
Mof_C 	C 	0.733	0.7303	0.47023	-0.138
Mof_H 	H 	0.6774	0.6545	0.5223	0.283
Mof_H 	H 	0.6512	0.6711	0.4893	0.274
Mof_H 	H 	0.7013	0.6392	0.4884	0.273
Mof_O 	O 	0.6808	0.55	0.25239	-0.402
Mof_O 	O 	0.75993	0.4512	0.20712	-0.402
Mof_O 	O 	0.44579	0.7643	0.20857	-0.415
Mof_O 	O 	0.55416	0.685	0.24947	-0.408
Mof_Cu	Cu	-2.12172e-33	0.21917	0.22422	0.881
Mof_Cu	Cu	-2.33216e-32	0.71917	0.72422	0.881
Mof_Cu	Cu	0.5	0.21917	0.72422	0.901
Mof_Cu	Cu	0.5	0.71917	0.22422	0.902
Mof_Cu	Cu	-1.59317e-32	0.78083	0.22422	0.882
Mof_Cu	Cu	-9.51162e-33	0.28083	0.72422	0.881
Mof_Cu	Cu	0.5	0.78083	0.72422	0.902
Mof_Cu	Cu	0.5	0.28083	0.22422	0.902
Mof_Cu	Cu	4.60436e-33	0.21917	0.77578	0.881
Mof_Cu	Cu	1.63679e-33	0.71917	0.27578	0.881
Mof_Cu	Cu	0.5	0.21917	0.27578	0.901
Mof_Cu	Cu	0.5	0.71917	0.77578	0.901
Mof_Cu	Cu	-9.20561e-33	0.78083	0.77578	0.882
Mof_Cu	Cu	-8.72068e-33	0.28083	0.27578	0.881
Mof_Cu	Cu	0.5	0.78083	0.27578	0.902
Mof_Cu	Cu	0.5	0.28083	0.77578	0.902
Mof_Cu	Cu	0.78524	-3.45249e-33	0.22595	0.887
Mof_Cu	Cu	0.78524	0.5	0.72595	0.904
Mof_Cu	Cu	0.28524	-1.381e-32	0.72595	0.885
Mof_Cu	Cu	0.28524	0.5	0.22595	0.903
Mof_Cu	Cu	0.21476	-3.45249e-33	0.22595	0.884
Mof_Cu	Cu	0.21476	0.5	0.72595	0.901
Mof_Cu	Cu	0.71476	-1.381e-32	0.72595	0.885
Mof_Cu	Cu	0.71476	0.5	0.22595	0.903
Mof_Cu	Cu	0.21476	0	0.77405	0.884
Mof_Cu	Cu	0.21476	0.5	0.27405	0.901
Mof_Cu	Cu	0.71476	3.45249e-33	0.27405	0.885
Mof_Cu	Cu	0.71476	0.5	0.77405	0.902
Mof_Cu	Cu	0.78524	0	0.77405	0.887
Mof_Cu	Cu	0.78524	0.5	0.27405	0.904
Mof_Cu	Cu	0.28524	3.45249e-33	0.27405	0.885
Mof_Cu	Cu	0.28524	0.5	0.77405	0.902
Mof_C 	C 	0.7816	0.2093	0.5	0.393
Mof_C 	C 	0.8162	0.1643	0.5	-1.61
Mof_C 	C 	0.7816	0.7093	-0	0.375
Mof_C 	C 	0.8162	0.6643	-0	-1.472
Mof_C 	C 	0.2816	0.2093	-0	0.341
Mof_C 	C 	0.3162	0.1643	-0	-1.355
Mof_C 	C 	0.2816	0.7093	0.5	0.389
Mof_C 	C 	0.3162	0.6643	0.5	-1.601
Mof_C 	C 	0.2184	0.7907	0.5	0.399
Mof_C 	C 	0.1838	0.8357	0.5	-1.624
Mof_C 	C 	0.2184	0.2907	-0	0.349
Mof_C 	C 	0.1838	0.3357	-0	-1.373
Mof_C 	C 	0.7184	0.7907	-0	0.383
Mof_C 	C 	0.6838	0.8357	-0	-1.493
Mof_C 	C 	0.7184	0.2907	0.5	0.4
Mof_C 	C 	0.6838	0.3357	0.5	-1.627
Mof_C 	C 	0.2184	0.2093	0.5	0.355
Mof_C 	C 	0.1838	0.1643	0.5	-1.492
Mof_C 	C 	0.2184	0.7093	-0	0.337
Mof_C 	C 	0.1838	0.6643	-0	-1.353
Mof_C 	C 	0.7184	0.2093	-0	0.34
Mof_C 	C 	0.6838	0.1643	-0	-1.361
Mof_C 	C 	0.7184	0.7093	0.5	0.388
Mof_C 	C 	0.6838	0.6643	0.5	-1.608
Mof_C 	C 	0.7816	0.7907	0.5	0.436
Mof_C 	C 	0.8162	0.8357	0.5	-1.742
Mof_C 	C 	0.7816	0.2907	-0	0.387
Mof_C 	C 	0.8162	0.3357	-0	-1.492
Mof_C 	C 	0.2816	0.7907	-0	0.385
Mof_C 	C 	0.3162	0.8357	-0	-1.487
Mof_C 	C 	0.2816	0.2907	0.5	0.401
Mof_C 	C 	0.3162	0.3357	0.5	-1.62
_end
