# CIF file generated by openbabel 3.1.0, see https://openbabel.org
data_I
_chemical_name_common 'image0'
_cell_length_a 8.4738
_cell_length_b 16.6853
_cell_length_c 16.2148
_cell_angle_alpha 90
_cell_angle_beta 95.919
_cell_angle_gamma 90
_space_group_name_H-M_alt 'P 1'
_space_group_name_Hall 'P 1'
loop_
    _symmetry_equiv_pos_as_xyz
    x,y,z
loop_
    _atom_site_label
    _atom_site_type_symbol
    _atom_site_fract_x
    _atom_site_fract_y
    _atom_site_fract_z
    _atom_site_occupancy
    P1       P        0.81365    0.53488    0.76918    1.000
    H1       H        0.76960    0.49970    0.80940    1.000
    P2       P        0.30060    0.23584    0.70784    1.000
    H2       H        0.40380    0.25330    0.73460    1.000
    P3       P        0.01817    0.28537    0.89068    1.000
    H3       H        0.13330    0.28790    0.90480    1.000
    P4       P        0.80155    0.24924    0.66253    1.000
    H4       H        0.74810    0.25210    0.71330    1.000
    O1       O        0.20160    0.31037    0.69233    1.000
    O2       O        0.91240    0.48385    0.71646    1.000
    O3       O        0.97390    0.34365    0.82036    1.000
    O4       O        0.87560    0.33088    0.64918    1.000
    O5       O        0.22240    0.44349    0.80046    1.000
    O6       O        0.16280    0.45961    0.63569    1.000
    O7       O        0.33160    0.19757    0.62548    1.000
    O8       O        0.91330    0.59837    0.81689    1.000
    O9       O        0.67620    0.23060    0.59037    1.000
    O10      O        0.93900    0.30763    0.96742    1.000
    O11      O        0.35280    0.05230    0.54403    1.000
    O12      O        0.34360    0.93250    0.48112    1.000
    O13      O        0.97460    0.19969    0.86495    1.000
    O14      O        0.67630    0.57030    0.71327    1.000
    O15      O        0.92600    0.18325    0.67393    1.000
    O16      O        0.23280    0.17864    0.76728    1.000
    O17      O        0.40460    0.54032    0.80164    1.000
    O18      O        0.35290    0.55306    0.63809    1.000
    C1       C        0.26800    0.50290    0.67140    1.000
    C2       C        0.30050    0.49470    0.76620    1.000
    C3       C        0.41180    0.99530    0.50735    1.000
    Fe1      Fe       0.04622    0.38793    0.71993    1.000
    Fe2      Fe       0.50940    0.14865    0.57818    1.000
    Fe3      Fe       0.02136    0.12854    0.77519    1.000
    P5       P        0.68635    0.03488    0.73082    1.000
    H5       H        0.73040    0.99970    0.69060    1.000
    P6       P        0.19940    0.73584    0.79216    1.000
    H6       H        0.09620    0.75330    0.76540    1.000
    P7       P        0.48183    0.78537    0.60932    1.000
    H7       H        0.36670    0.78790    0.59520    1.000
    P8       P        0.69845    0.74924    0.83747    1.000
    H8       H        0.75190    0.75210    0.78670    1.000
    O19      O        0.29840    0.81037    0.80767    1.000
    O20      O        0.58760    0.98385    0.78354    1.000
    O21      O        0.52610    0.84365    0.67964    1.000
    O22      O        0.62440    0.83088    0.85082    1.000
    O23      O        0.27760    0.94349    0.69954    1.000
    O24      O        0.33720    0.95961    0.86431    1.000
    O25      O        0.16840    0.69757    0.87452    1.000
    O26      O        0.58670    0.09837    0.68311    1.000
    O27      O        0.82380    0.73060    0.90963    1.000
    O28      O        0.56100    0.80763    0.53258    1.000
    O29      O        0.14720    0.55230    0.95597    1.000
    O30      O        0.15640    0.43250    0.01888    1.000
    O31      O        0.52540    0.69969    0.63505    1.000
    O32      O        0.82370    0.07030    0.78673    1.000
    O33      O        0.57400    0.68325    0.82607    1.000
    O34      O        0.26720    0.67864    0.73272    1.000
    O35      O        0.09540    0.04032    0.69836    1.000
    O36      O        0.14710    0.05306    0.86191    1.000
    C4       C        0.23200    0.00290    0.82860    1.000
    C5       C        0.19950    0.99470    0.73380    1.000
    C6       C        0.08820    0.49530    0.99265    1.000
    Fe4      Fe       0.45378    0.88793    0.78007    1.000
    Fe5      Fe       0.99060    0.64865    0.92182    1.000
    Fe6      Fe       0.47864    0.62854    0.72481    1.000
    P9       P        0.18635    0.46512    0.23082    1.000
    H9       H        0.23040    0.50030    0.19060    1.000
    P10      P        0.69940    0.76416    0.29216    1.000
    H10      H        0.59620    0.74670    0.26540    1.000
    P11      P        0.98183    0.71463    0.10932    1.000
    H11      H        0.86670    0.71210    0.09520    1.000
    P12      P        0.19845    0.75076    0.33747    1.000
    H12      H        0.25190    0.74790    0.28670    1.000
    O37      O        0.79840    0.68963    0.30767    1.000
    O38      O        0.08760    0.51615    0.28354    1.000
    O39      O        0.02610    0.65635    0.17964    1.000
    O40      O        0.12440    0.66912    0.35082    1.000
    O41      O        0.77760    0.55651    0.19954    1.000
    O42      O        0.83720    0.54039    0.36431    1.000
    O43      O        0.66840    0.80243    0.37452    1.000
    O44      O        0.08670    0.40163    0.18311    1.000
    O45      O        0.32380    0.76940    0.40963    1.000
    O46      O        0.06100    0.69237    0.03258    1.000
    O47      O        0.64720    0.94770    0.45597    1.000
    O48      O        0.65640    0.06750    0.51888    1.000
    O49      O        0.02540    0.80031    0.13505    1.000
    O50      O        0.32370    0.42970    0.28673    1.000
    O51      O        0.07400    0.81675    0.32607    1.000
    O52      O        0.76720    0.82136    0.23272    1.000
    O53      O        0.59540    0.45968    0.19836    1.000
    O54      O        0.64710    0.44694    0.36191    1.000
    C7       C        0.73200    0.49710    0.32860    1.000
    C8       C        0.69950    0.50530    0.23380    1.000
    C9       C        0.58820    0.00470    0.49265    1.000
    Fe7      Fe       0.95378    0.61207    0.28007    1.000
    Fe8      Fe       0.49060    0.85135    0.42182    1.000
    Fe9      Fe       0.97864    0.87146    0.22481    1.000
    P13      P        0.31365    0.96512    0.26918    1.000
    H13      H        0.26960    0.00030    0.30940    1.000
    P14      P        0.80060    0.26416    0.20784    1.000
    H14      H        0.90380    0.24670    0.23460    1.000
    P15      P        0.51817    0.21463    0.39068    1.000
    H15      H        0.63330    0.21210    0.40480    1.000
    P16      P        0.30155    0.25076    0.16253    1.000
    H16      H        0.24810    0.24790    0.21330    1.000
    O55      O        0.70160    0.18963    0.19233    1.000
    O56      O        0.41240    0.01615    0.21646    1.000
    O57      O        0.47390    0.15635    0.32036    1.000
    O58      O        0.37560    0.16912    0.14918    1.000
    O59      O        0.72240    0.05651    0.30046    1.000
    O60      O        0.66280    0.04039    0.13569    1.000
    O61      O        0.83160    0.30243    0.12548    1.000
    O62      O        0.41330    0.90163    0.31689    1.000
    O63      O        0.17620    0.26940    0.09037    1.000
    O64      O        0.43900    0.19237    0.46742    1.000
    O65      O        0.85280    0.44770    0.04403    1.000
    O66      O        0.84360    0.56750    0.98112    1.000
    O67      O        0.47460    0.30031    0.36495    1.000
    O68      O        0.17630    0.92970    0.21327    1.000
    O69      O        0.42600    0.31675    0.17393    1.000
    O70      O        0.73280    0.32136    0.26728    1.000
    O71      O        0.90460    0.95968    0.30164    1.000
    O72      O        0.85290    0.94694    0.13809    1.000
    C10      C        0.76800    0.99710    0.17140    1.000
    C11      C        0.80050    0.00530    0.26620    1.000
    C12      C        0.91180    0.50470    0.00735    1.000
    Fe10     Fe       0.54622    0.11207    0.21993    1.000
    Fe11     Fe       0.00940    0.35135    0.07818    1.000
    Fe12     Fe       0.52136    0.37146    0.27519    1.000
