# CIF file generated by openbabel 3.1.0, see https://openbabel.org
data_I
_chemical_name_common 'image0'
_cell_length_a 25.8504
_cell_length_b 25.8504
_cell_length_c 6.8072
_cell_angle_alpha 90
_cell_angle_beta 90
_cell_angle_gamma 120
_space_group_name_H-M_alt 'P 1'
_space_group_name_Hall 'P 1'
loop_
    _symmetry_equiv_pos_as_xyz
    x,y,z
loop_
    _atom_site_label
    _atom_site_type_symbol
    _atom_site_fract_x
    _atom_site_fract_y
    _atom_site_fract_z
    _atom_site_occupancy
    Zn1      Zn       0.38190    0.35090    0.14540    1.000
    O1       O        0.33250    0.29550    0.37190    1.000
    O2       O        0.35580    0.27420    0.00950    1.000
    O3       O        0.43870    0.40930    0.93280    1.000
    C1       C        0.31650    0.24520    0.42910    1.000
    C2       C        0.34560    0.22120    0.09660    1.000
    C3       C        0.32690    0.20810    0.28790    1.000
    C4       C        0.35030    0.18160    0.96950    1.000
    H1       H        0.36330    0.19050    0.84500    1.000
    Zn2      Zn       0.04857    0.68423    0.47873    1.000
    O4       O        0.99917    0.62883    0.70523    1.000
    O5       O        0.02247    0.60753    0.34283    1.000
    O6       O        0.10537    0.74263    0.26613    1.000
    C5       C        0.98317    0.57853    0.76243    1.000
    C6       C        0.01227    0.55453    0.42993    1.000
    C7       C        0.99357    0.54143    0.62123    1.000
    C8       C        0.01697    0.51493    0.30283    1.000
    H2       H        0.02997    0.52383    0.17833    1.000
    Zn3      Zn       0.71523    0.01757    0.81207    1.000
    O7       O        0.66583    0.96217    0.03857    1.000
    O8       O        0.68913    0.94087    0.67617    1.000
    O9       O        0.77203    0.07597    0.59947    1.000
    C9       C        0.64983    0.91187    0.09577    1.000
    C10      C        0.67893    0.88787    0.76327    1.000
    C11      C        0.66023    0.87477    0.95457    1.000
    C12      C        0.68363    0.84827    0.63617    1.000
    H3       H        0.69663    0.85717    0.51167    1.000
    Zn4      Zn       0.64910    0.03100    0.14540    1.000
    O10      O        0.70450    0.03700    0.37190    1.000
    O11      O        0.72580    0.08160    0.00950    1.000
    O12      O        0.59070    0.02940    0.93280    1.000
    C13      C        0.75480    0.07130    0.42910    1.000
    C14      C        0.77880    0.12440    0.09660    1.000
    C15      C        0.79190    0.11880    0.28790    1.000
    C16      C        0.81840    0.16870    0.96950    1.000
    H4       H        0.80950    0.17280    0.84500    1.000
    Zn5      Zn       0.31577    0.36433    0.47873    1.000
    O13      O        0.37117    0.37033    0.70523    1.000
    O14      O        0.39247    0.41493    0.34283    1.000
    O15      O        0.25737    0.36273    0.26613    1.000
    C17      C        0.42147    0.40463    0.76243    1.000
    C18      C        0.44547    0.45773    0.42993    1.000
    C19      C        0.45857    0.45213    0.62123    1.000
    C20      C        0.48507    0.50203    0.30283    1.000
    H5       H        0.47617    0.50613    0.17833    1.000
    Zn6      Zn       0.98243    0.69767    0.81207    1.000
    O16      O        0.03783    0.70367    0.03857    1.000
    O17      O        0.05913    0.74827    0.67617    1.000
    O18      O        0.92403    0.69607    0.59947    1.000
    C21      C        0.08813    0.73797    0.09577    1.000
    C22      C        0.11213    0.79107    0.76327    1.000
    C23      C        0.12523    0.78547    0.95457    1.000
    C24      C        0.15173    0.83537    0.63617    1.000
    H6       H        0.14283    0.83947    0.51167    1.000
    Zn7      Zn       0.96900    0.61810    0.14540    1.000
    O19      O        0.96300    0.66750    0.37190    1.000
    O20      O        0.91840    0.64420    0.00950    1.000
    O21      O        0.97060    0.56130    0.93280    1.000
    C25      C        0.92870    0.68350    0.42910    1.000
    C26      C        0.87560    0.65440    0.09660    1.000
    C27      C        0.88120    0.67310    0.28790    1.000
    C28      C        0.83130    0.64970    0.96950    1.000
    H7       H        0.82720    0.63670    0.84500    1.000
    Zn8      Zn       0.63567    0.95143    0.47873    1.000
    O22      O        0.62967    0.00083    0.70523    1.000
    O23      O        0.58507    0.97753    0.34283    1.000
    O24      O        0.63727    0.89463    0.26613    1.000
    C29      C        0.59537    0.01683    0.76243    1.000
    C30      C        0.54227    0.98773    0.42993    1.000
    C31      C        0.54787    0.00643    0.62123    1.000
    C32      C        0.49797    0.98303    0.30283    1.000
    H8       H        0.49387    0.97003    0.17833    1.000
    Zn9      Zn       0.30233    0.28477    0.81207    1.000
    O25      O        0.29633    0.33417    0.03857    1.000
    O26      O        0.25173    0.31087    0.67617    1.000
    O27      O        0.30393    0.22797    0.59947    1.000
    C33      C        0.26203    0.35017    0.09577    1.000
    C34      C        0.20893    0.32107    0.76327    1.000
    C35      C        0.21453    0.33977    0.95457    1.000
    C36      C        0.16463    0.31637    0.63617    1.000
    H9       H        0.16053    0.30337    0.51167    1.000
    Zn10     Zn       0.61810    0.64910    0.85460    1.000
    O28      O        0.66750    0.70450    0.62810    1.000
    O29      O        0.64420    0.72580    0.99050    1.000
    O30      O        0.56130    0.59070    0.06720    1.000
    C37      C        0.68350    0.75480    0.57090    1.000
    C38      C        0.65440    0.77880    0.90340    1.000
    C39      C        0.67310    0.79190    0.71210    1.000
    C40      C        0.64970    0.81840    0.03050    1.000
    H10      H        0.63670    0.80950    0.15500    1.000
    Zn11     Zn       0.28477    0.98243    0.18793    1.000
    O31      O        0.33417    0.03783    0.96143    1.000
    O32      O        0.31087    0.05913    0.32383    1.000
    O33      O        0.22797    0.92403    0.40053    1.000
    C41      C        0.35017    0.08813    0.90423    1.000
    C42      C        0.32107    0.11213    0.23673    1.000
    C43      C        0.33977    0.12523    0.04543    1.000
    C44      C        0.31637    0.15173    0.36383    1.000
    H11      H        0.30337    0.14283    0.48833    1.000
    Zn12     Zn       0.95143    0.31577    0.52127    1.000
    O34      O        0.00083    0.37117    0.29477    1.000
    O35      O        0.97753    0.39247    0.65717    1.000
    O36      O        0.89463    0.25737    0.73387    1.000
    C45      C        0.01683    0.42147    0.23757    1.000
    C46      C        0.98773    0.44547    0.57007    1.000
    C47      C        0.00643    0.45857    0.37877    1.000
    C48      C        0.98303    0.48507    0.69717    1.000
    H12      H        0.97003    0.47617    0.82167    1.000
    Zn13     Zn       0.35090    0.96900    0.85460    1.000
    O37      O        0.29550    0.96300    0.62810    1.000
    O38      O        0.27420    0.91840    0.99050    1.000
    O39      O        0.40930    0.97060    0.06720    1.000
    C49      C        0.24520    0.92870    0.57090    1.000
    C50      C        0.22120    0.87560    0.90340    1.000
    C51      C        0.20810    0.88120    0.71210    1.000
    C52      C        0.18160    0.83130    0.03050    1.000
    H13      H        0.19050    0.82720    0.15500    1.000
    Zn14     Zn       0.01757    0.30233    0.18793    1.000
    O40      O        0.96217    0.29633    0.96143    1.000
    O41      O        0.94087    0.25173    0.32383    1.000
    O42      O        0.07597    0.30393    0.40053    1.000
    C53      C        0.91187    0.26203    0.90423    1.000
    C54      C        0.88787    0.20893    0.23673    1.000
    C55      C        0.87477    0.21453    0.04543    1.000
    C56      C        0.84827    0.16463    0.36383    1.000
    H14      H        0.85717    0.16053    0.48833    1.000
    Zn15     Zn       0.68423    0.63567    0.52127    1.000
    O43      O        0.62883    0.62967    0.29477    1.000
    O44      O        0.60753    0.58507    0.65717    1.000
    O45      O        0.74263    0.63727    0.73387    1.000
    C57      C        0.57853    0.59537    0.23757    1.000
    C58      C        0.55453    0.54227    0.57007    1.000
    C59      C        0.54143    0.54787    0.37877    1.000
    C60      C        0.51493    0.49797    0.69717    1.000
    H15      H        0.52383    0.49387    0.82167    1.000
    Zn16     Zn       0.03100    0.38190    0.85460    1.000
    O46      O        0.03700    0.33250    0.62810    1.000
    O47      O        0.08160    0.35580    0.99050    1.000
    O48      O        0.02940    0.43870    0.06720    1.000
    C61      C        0.07130    0.31650    0.57090    1.000
    C62      C        0.12440    0.34560    0.90340    1.000
    C63      C        0.11880    0.32690    0.71210    1.000
    C64      C        0.16870    0.35030    0.03050    1.000
    H16      H        0.17280    0.36330    0.15500    1.000
    Zn17     Zn       0.69767    0.71523    0.18793    1.000
    O49      O        0.70367    0.66583    0.96143    1.000
    O50      O        0.74827    0.68913    0.32383    1.000
    O51      O        0.69607    0.77203    0.40053    1.000
    C65      C        0.73797    0.64983    0.90423    1.000
    C66      C        0.79107    0.67893    0.23673    1.000
    C67      C        0.78547    0.66023    0.04543    1.000
    C68      C        0.83537    0.68363    0.36383    1.000
    H17      H        0.83947    0.69663    0.48833    1.000
    Zn18     Zn       0.36433    0.04857    0.52127    1.000
    O52      O        0.37033    0.99917    0.29477    1.000
    O53      O        0.41493    0.02247    0.65717    1.000
    O54      O        0.36273    0.10537    0.73387    1.000
    C69      C        0.40463    0.98317    0.23757    1.000
    C70      C        0.45773    0.01227    0.57007    1.000
    C71      C        0.45213    0.99357    0.37877    1.000
    C72      C        0.50203    0.01697    0.69717    1.000
    H18      H        0.50613    0.02997    0.82167    1.000
