data_functionalizedCrystal
_audit_creation_method	'EQeq! by Chris Wilmer'
_symmetry_space_group_name_H-M	'P1'
_symmetry_Int_Tables_number	1
_symmetry_cell_setting	triclinic
loop_
_symmetry_equiv_pos_as_xyz
  x,y,z
_cell_length_a	19.4251
_cell_length_b	36.589
_cell_length_c	37.762
_cell_angle_alpha	90
_cell_angle_beta	114.202
_cell_angle_gamma	90
loop_
_atom_site_label
_atom_site_type_symbol
_atom_site_fract_x
_atom_site_fract_y
_atom_site_fract_z
_atom_site_charge
Mof_Cu	Cu	0.09641	0.18928	0.24703	0.896
Mof_C 	C 	0.67548	0.98846	0.30985	-0.003
Mof_H 	H 	0.7157	0.9707	0.3242	0.015
Mof_H 	H 	0.6476	0.9941	0.326	0.003
Mof_C 	C 	0.67134	0.3559	0.3309	-0.009
Mof_H 	H 	0.6924	0.3436	0.3565	0.023
Mof_H 	H 	0.6701	0.3825	0.3355	0.008
Mof_C 	C 	0.4879	0.43387	0.17947	-0.004
Mof_H 	H 	0.4498	0.4476	0.1577	0.016
Mof_H 	H 	0.4649	0.4269	0.1975	0.007
Mof_C 	C 	0.39284	0.41904	0.71849	-0.009
Mof_H 	H 	0.3831	0.4453	0.7209	0.009
Mof_H 	H 	0.3435	0.4067	0.7052	0.023
Mof_Cu	Cu	0.16201	0.18876	0.32339	0.902
Mof_Cu	Cu	0.40693	0.20514	0.94716	0.901
Mof_Cu	Cu	0.55494	0.2009	0.97309	0.896
Mof_Cu	Cu	0.54789	0.45667	0.76222	0.854
Mof_Cu	Cu	0.60501	0.39218	0.24922	0.854
Mof_N 	N 	0.62448	0.97255	0.27348	-0.138
Mof_N 	N 	0.71992	0.34895	0.31097	-0.137
Mof_N 	N 	0.55249	0.4568	0.19941	-0.138
Mof_N 	N 	0.43649	0.41518	0.69499	-0.143
Mof_N 	N 	0.55492	0.98856	0.25407	-0.228
Mof_N 	N 	0.71141	0.37026	0.27979	-0.231
Mof_N 	N 	0.60507	0.44531	0.23428	-0.235
Mof_N 	N 	0.50256	0.43409	0.70614	-0.224
Mof_C 	C 	0.52233	0.97049	0.22025	0.223
Mof_C 	C 	0.76589	0.35971	0.26914	0.227
Mof_C 	C 	0.65978	0.47052	0.24542	0.232
Mof_C 	C 	0.5248	0.4286	0.67735	0.239
Mof_C 	C 	0.5731	0.9435	0.21741	-0.23
Mof_C 	C 	0.81045	0.33187	0.29355	-0.232
Mof_C 	C 	0.64122	0.49848	0.21701	-0.236
Mof_C 	C 	0.4731	0.40692	0.648	-0.245
Mof_C 	C 	0.63699	0.94562	0.25216	0.233
Mof_C 	C 	0.77864	0.32532	0.32007	0.239
Mof_C 	C 	0.57171	0.48877	0.18807	0.242
Mof_C 	C 	0.4162	0.39865	0.65998	0.267
Mof_C 	C 	0.44489	0.98003	0.19222	-0.583
Mof_H 	H 	0.4098	0.9607	0.1921	0.168
Mof_H 	H 	0.444	0.9825	0.1662	0.186
Mof_H 	H 	0.4297	0.0032	0.1999	0.168
Mof_C 	C 	0.7745	0.37881	0.23553	-0.583
Mof_H 	H 	0.7545	0.3631	0.2125	0.174
Mof_H 	H 	0.8281	0.3837	0.2424	0.187
Mof_H 	H 	0.7466	0.4019	0.23	0.171
Mof_C 	C 	0.72755	0.46606	0.28259	-0.603
Mof_H 	H 	0.7239	0.4826	0.3022	0.18
Mof_H 	H 	0.773	0.4719	0.2785	0.19
Mof_H 	H 	0.7304	0.4408	0.2916	0.168
Mof_C 	C 	0.5966	0.44713	0.68002	-0.591
Mof_H 	H 	0.6088	0.4674	0.6986	0.178
Mof_H 	H 	0.5892	0.4566	0.6544	0.192
Mof_H 	H 	0.6381	0.4294	0.6888	0.18
Mof_C 	C 	0.70785	0.92371	0.26809	-0.583
Mof_H 	H 	0.7478	0.9368	0.2638	0.179
Mof_H 	H 	0.6991	0.8999	0.255	0.185
Mof_H 	H 	0.7233	0.92	0.296	0.179
Mof_C 	C 	0.7973	0.2981	0.35213	-0.588
Mof_H 	H 	0.8208	0.3106	0.3772	0.184
Mof_H 	H 	0.8324	0.2799	0.35	0.19
Mof_H 	H 	0.751	0.2859	0.3502	0.181
Mof_C 	C 	0.52192	0.5075	0.15197	-0.603
Mof_H 	H 	0.5326	0.4986	0.1303	0.185
Mof_H 	H 	0.531	0.5339	0.1549	0.19
Mof_H 	H 	0.4691	0.5025	0.1468	0.177
Mof_C 	C 	0.3493	0.3759	0.64266	-0.632
Mof_H 	H 	0.3502	0.3569	0.6612	0.195
Mof_H 	H 	0.3484	0.3644	0.619	0.202
Mof_H 	H 	0.3041	0.391	0.6361	0.196
Mof_C 	C 	0.56124	0.91899	0.18433	0.153
Mof_C 	C 	0.8751	0.31242	0.29181	0.166
Mof_C 	C 	0.68487	0.53176	0.21739	0.159
Mof_C 	C 	0.4774	0.39432	0.61162	0.163
Mof_C 	C 	0.48989	0.90603	0.16002	-0.174
Mof_H 	H 	0.4473	0.9132	0.1647	0.074
Mof_C 	C 	0.8746	0.30152	0.25619	-0.185
Mof_H 	H 	0.8342	0.3088	0.2328	0.08
Mof_C 	C 	0.73195	0.54855	0.25242	-0.181
Mof_H 	H 	0.7375	0.538	0.2764	0.077
Mof_C 	C 	0.5446	0.38167	0.6116	-0.181
Mof_H 	H 	0.5895	0.3831	0.6347	0.081
Mof_C 	C 	0.47983	0.88297	0.12916	0.077
Mof_H 	H 	0.4306	0.8749	0.1126	0.006
Mof_C 	C 	0.9325	0.28015	0.25455	0.081
Mof_H 	H 	0.9317	0.2731	0.2302	0.01
Mof_C 	C 	0.77046	0.58043	0.25224	0.075
Mof_H 	H 	0.803	0.5913	0.2761	0.005
Mof_C 	C 	0.5474	0.36679	0.5779	0.073
Mof_H 	H 	0.5942	0.3589	0.5782	0.015
Mof_C 	C 	0.54162	0.87158	0.12247	-0.14
Mof_C 	C 	0.992	0.26901	0.28901	-0.147
Mof_C 	C 	0.7615	0.59656	0.21696	-0.152
Mof_C 	C 	0.4819	0.36368	0.54427	-0.133
Mof_C 	C 	0.61378	0.8845	0.14631	0.077
Mof_H 	H 	0.6564	0.8769	0.1419	0.015
Mof_C 	C 	0.99425	0.28129	0.3242	0.091
Mof_H 	H 	0.0353	0.2747	0.3477	0.008
Mof_C 	C 	0.71709	0.58	0.18292	0.086
Mof_H 	H 	0.7114	0.5909	0.1591	0.009
Mof_C 	C 	0.4136	0.37732	0.54383	0.077
Mof_H 	H 	0.3686	0.3758	0.5208	0.013
Mof_C 	C 	0.62252	0.90833	0.17613	-0.178
Mof_H 	H 	0.6713	0.9178	0.1915	0.081
Mof_C 	C 	0.9374	0.30302	0.32518	-0.197
Mof_H 	H 	0.9409	0.3119	0.3495	0.087
Mof_C 	C 	0.67984	0.5473	0.18237	-0.184
Mof_H 	H 	0.6511	0.5355	0.1584	0.081
Mof_C 	C 	0.4123	0.39276	0.57679	-0.186
Mof_H 	H 	0.3664	0.4026	0.5759	0.082
Mof_C 	C 	0.5321	0.84464	0.09034	0.356
Mof_C 	C 	0.04892	0.2421	0.2878	0.36
Mof_C 	C 	0.80073	0.63192	0.21677	0.362
Mof_C 	C 	0.4822	0.34252	0.51022	0.346
Mof_O 	O 	0.59285	0.83066	0.09121	-0.411
Mof_O 	O 	0.04701	0.23367	0.25443	-0.408
Mof_O 	O 	0.84841	0.64355	0.2492	-0.417
Mof_O 	O 	0.41746	0.33386	0.48423	-0.405
Mof_O 	O 	0.46588	0.83741	0.0666	-0.419
Mof_O 	O 	0.09249	0.22863	0.31989	-0.411
Mof_O 	O 	0.78212	0.64733	0.18433	-0.419
Mof_O 	O 	0.5464	0.334	0.51092	-0.403
Mof_N 	N 	0.70903	0.02159	0.30306	-0.137
Mof_N 	N 	0.59535	0.34297	0.30875	-0.135
Mof_N 	N 	0.50933	0.40101	0.16458	-0.138
Mof_N 	N 	0.43162	0.40364	0.75682	-0.137
Mof_N 	N 	0.66275	0.05072	0.28787	-0.229
Mof_N 	N 	0.55302	0.36013	0.27506	-0.233
Mof_N 	N 	0.55641	0.377	0.19136	-0.228
Mof_N 	N 	0.49398	0.4213	0.78295	-0.236
Mof_C 	C 	0.7067	0.07672	0.28325	0.23
Mof_C 	C 	0.48584	0.34372	0.26175	0.255
Mof_C 	C 	0.5638	0.34925	0.17023	0.245
Mof_C 	C 	0.51864	0.40078	0.81537	0.242
Mof_C 	C 	0.78127	0.06403	0.29559	-0.234
Mof_C 	C 	0.48524	0.31646	0.28778	-0.241
Mof_C 	C 	0.5228	0.35567	0.13074	-0.244
Mof_C 	C 	0.46996	0.37034	0.80966	-0.242
Mof_C 	C 	0.78031	0.02858	0.30793	0.236
Mof_C 	C 	0.55559	0.31654	0.31748	0.249
Mof_C 	C 	0.4877	0.38924	0.12772	0.248
Mof_C 	C 	0.41625	0.3725	0.77193	0.265
Mof_C 	C 	0.6743	0.11404	0.26824	-0.591
Mof_H 	H 	0.663	0.1157	0.2405	0.18
Mof_H 	H 	0.711	0.1329	0.2824	0.19
Mof_H 	H 	0.6278	0.1176	0.2721	0.172
Mof_C 	C 	0.4229	0.35572	0.22434	-0.63
Mof_H 	H 	0.4227	0.3824	0.2226	0.193
Mof_H 	H 	0.3745	0.3474	0.2237	0.201
Mof_H 	H 	0.4305	0.3451	0.2024	0.195
Mof_C 	C 	0.6108	0.31663	0.19032	-0.602
Mof_H 	H 	0.6621	0.3196	0.1917	0.182
Mof_H 	H 	0.5881	0.2944	0.1757	0.194
Mof_H 	H 	0.6129	0.3147	0.2166	0.179
Mof_C 	C 	0.58699	0.41098	0.84996	-0.609
Mof_H 	H 	0.6297	0.396	0.851	0.185
Mof_H 	H 	0.5782	0.4068	0.8734	0.192
Mof_H 	H 	0.5984	0.4369	0.8484	0.168
Mof_C 	C 	0.8427	0.00078	0.32427	-0.569
Mof_H 	H 	0.8574	0.9983	0.3523	0.177
Mof_H 	H 	0.8864	0.0088	0.3196	0.183
Mof_H 	H 	0.825	0.9771	0.3116	0.175
Mof_C 	C 	0.59029	0.29332	0.35381	-0.603
Mof_H 	H 	0.6392	0.2839	0.3562	0.187
Mof_H 	H 	0.5566	0.2728	0.3521	0.205
Mof_H 	H 	0.5975	0.3082	0.3766	0.204
Mof_C 	C 	0.4375	0.41076	0.09335	-0.597
Mof_H 	H 	0.3858	0.4102	0.0916	0.184
Mof_H 	H 	0.4385	0.4002	0.0697	0.19
Mof_H 	H 	0.4551	0.4361	0.0961	0.185
Mof_C 	C 	0.35382	0.34727	0.74899	-0.633
Mof_H 	H 	0.3059	0.3607	0.7389	0.211
Mof_H 	H 	0.3513	0.3273	0.7657	0.215
Mof_H 	H 	0.3631	0.3373	0.7273	0.199
Mof_C 	C 	0.84557	0.08452	0.29434	0.168
Mof_C 	C 	0.42	0.29377	0.28551	0.168
Mof_C 	C 	0.5148	0.33058	0.09808	0.172
Mof_C 	C 	0.47532	0.34178	0.83836	0.168
Mof_C 	C 	0.9134	0.0887	0.32674	-0.198
Mof_H 	H 	0.92	0.0771	0.3504	0.087
Mof_C 	C 	0.40277	0.29056	0.31797	-0.191
Mof_H 	H 	0.4329	0.303	0.3413	0.102
Mof_C 	C 	0.5775	0.31542	0.09555	-0.194
Mof_H 	H 	0.6262	0.3225	0.1137	0.086
Mof_C 	C 	0.54283	0.32349	0.85938	-0.19
Mof_H 	H 	0.5874	0.3301	0.8563	0.081
Mof_C 	C 	0.9711	0.10941	0.32504	0.092
Mof_H 	H 	0.0161	0.1129	0.3478	0.007
Mof_C 	C 	0.34277	0.26955	0.31661	0.096
Mof_H 	H 	0.3329	0.2673	0.3392	0.02
Mof_C 	C 	0.5711	0.28965	0.06671	0.086
Mof_H 	H 	0.615	0.2791	0.0657	0.01
Mof_C 	C 	0.54499	0.2955	0.88501	0.08
Mof_H 	H 	0.5912	0.2833	0.8995	0.003
Mof_C 	C 	0.96417	0.12517	0.29028	-0.153
Mof_C 	C 	0.29735	0.25193	0.28324	-0.155
Mof_C 	C 	0.5007	0.27985	0.03997	-0.149
Mof_C 	C 	0.48017	0.28538	0.88939	-0.153
Mof_C 	C 	0.8985	0.12072	0.25771	0.088
Mof_H 	H 	0.8935	0.131	0.2337	0.009
Mof_C 	C 	0.3121	0.25513	0.24998	0.081
Mof_H 	H 	0.2807	0.2431	0.2266	0.003
Mof_C 	C 	0.4363	0.29569	0.04125	0.086
Mof_H 	H 	0.3874	0.2896	0.0224	0.009
Mof_C 	C 	0.41243	0.30395	0.86905	0.091
Mof_H 	H 	0.3681	0.2973	0.8724	0.016
Mof_C 	C 	0.839	0.10101	0.26005	-0.191
Mof_H 	H 	0.793	0.0988	0.2376	0.082
Mof_C 	C 	0.37316	0.27603	0.2515	-0.192
Mof_H 	H 	0.3831	0.2782	0.2289	0.082
Mof_C 	C 	0.4453	0.32069	0.07082	-0.196
Mof_H 	H 	0.4016	0.3312	0.0721	0.086
Mof_C 	C 	0.41035	0.33211	0.84398	-0.193
Mof_H 	H 	0.3645	0.345	0.8305	0.103
Mof_C 	C 	0.0269	0.1486	0.2889	0.37
Mof_C 	C 	0.23355	0.22886	0.28268	0.361
Mof_C 	C 	0.4928	0.25146	0.01005	0.363
Mof_C 	C 	0.48107	0.25393	0.91528	0.373
Mof_O 	O 	0.08276	0.15452	0.32052	-0.413
Mof_O 	O 	0.23122	0.22291	0.31526	-0.415
Mof_O 	O 	0.5536	0.24022	0.00845	-0.408
Mof_O 	O 	0.41871	0.24507	0.9158	-0.418
Mof_O 	O 	0.01854	0.16079	0.25605	-0.412
Mof_O 	O 	0.18595	0.21714	0.25018	-0.413
Mof_O 	O 	0.42705	0.24032	0.98942	-0.411
Mof_O 	O 	0.54324	0.23855	0.93385	-0.424
Mof_Cu	Cu	0.90359	0.68928	0.25297	0.897
Mof_C 	C 	0.32452	0.48846	0.19015	-0.002
Mof_H 	H 	0.2843	0.4707	0.1758	0.016
Mof_H 	H 	0.3524	0.4941	0.174	0.004
Mof_C 	C 	0.32866	0.8559	0.1691	-0.008
Mof_H 	H 	0.3076	0.8436	0.1435	0.024
Mof_H 	H 	0.3299	0.8825	0.1645	0.009
Mof_C 	C 	0.5121	0.93387	0.32053	-0.003
Mof_H 	H 	0.5502	0.9476	0.3423	0.017
Mof_H 	H 	0.5351	0.9269	0.3025	0.008
Mof_C 	C 	0.60716	0.91904	0.78151	-0.008
Mof_H 	H 	0.6169	0.9453	0.7791	0.01
Mof_H 	H 	0.6565	0.9067	0.7948	0.024
Mof_Cu	Cu	0.83799	0.68876	0.17661	0.903
Mof_Cu	Cu	0.59307	0.70514	0.55284	0.902
Mof_Cu	Cu	0.44506	0.7009	0.52691	0.897
Mof_Cu	Cu	0.45211	0.95667	0.73778	0.854
Mof_Cu	Cu	0.39499	0.89218	0.25078	0.854
Mof_N 	N 	0.37552	0.47255	0.22652	-0.138
Mof_N 	N 	0.28008	0.84895	0.18903	-0.137
Mof_N 	N 	0.44751	0.9568	0.30059	-0.138
Mof_N 	N 	0.56351	0.91518	0.80501	-0.143
Mof_N 	N 	0.44508	0.48856	0.24593	-0.228
Mof_N 	N 	0.28859	0.87026	0.22021	-0.231
Mof_N 	N 	0.39493	0.94531	0.26572	-0.235
Mof_N 	N 	0.49744	0.93409	0.79386	-0.224
Mof_C 	C 	0.47767	0.47049	0.27975	0.223
Mof_C 	C 	0.23411	0.85971	0.23086	0.227
Mof_C 	C 	0.34022	0.97052	0.25458	0.232
Mof_C 	C 	0.4752	0.9286	0.82265	0.239
Mof_C 	C 	0.4269	0.4435	0.28259	-0.23
Mof_C 	C 	0.18955	0.83187	0.20645	-0.232
Mof_C 	C 	0.35878	0.99848	0.28299	-0.236
Mof_C 	C 	0.5269	0.90692	0.852	-0.245
Mof_C 	C 	0.36301	0.44562	0.24784	0.233
Mof_C 	C 	0.22136	0.82532	0.17993	0.239
Mof_C 	C 	0.42829	0.98877	0.31193	0.242
Mof_C 	C 	0.5838	0.89865	0.84002	0.267
Mof_C 	C 	0.55511	0.48003	0.30778	-0.583
Mof_H 	H 	0.5902	0.4607	0.3079	0.168
Mof_H 	H 	0.556	0.4825	0.3338	0.186
Mof_H 	H 	0.5703	0.5032	0.3001	0.168
Mof_C 	C 	0.2255	0.87881	0.26447	-0.583
Mof_H 	H 	0.2455	0.8631	0.2875	0.174
Mof_H 	H 	0.1719	0.8837	0.2576	0.187
Mof_H 	H 	0.2534	0.9019	0.27	0.171
Mof_C 	C 	0.27245	0.96606	0.21741	-0.603
Mof_H 	H 	0.2761	0.9826	0.1978	0.18
Mof_H 	H 	0.227	0.9719	0.2215	0.19
Mof_H 	H 	0.2696	0.9408	0.2084	0.168
Mof_C 	C 	0.4034	0.94713	0.81998	-0.591
Mof_H 	H 	0.3912	0.9674	0.8014	0.178
Mof_H 	H 	0.4108	0.9566	0.8456	0.192
Mof_H 	H 	0.3619	0.9294	0.8112	0.18
Mof_C 	C 	0.29215	0.42371	0.23191	-0.583
Mof_H 	H 	0.2522	0.4368	0.2362	0.179
Mof_H 	H 	0.3009	0.3999	0.245	0.185
Mof_H 	H 	0.2767	0.42	0.204	0.179
Mof_C 	C 	0.2027	0.7981	0.14787	-0.588
Mof_H 	H 	0.1792	0.8106	0.1228	0.184
Mof_H 	H 	0.1676	0.7799	0.15	0.19
Mof_H 	H 	0.249	0.7859	0.1498	0.181
Mof_C 	C 	0.47808	0.0075	0.34803	-0.603
Mof_H 	H 	0.4674	0.9986	0.3697	0.185
Mof_H 	H 	0.469	0.0339	0.3451	0.19
Mof_H 	H 	0.5309	0.0025	0.3532	0.177
Mof_C 	C 	0.6507	0.8759	0.85734	-0.632
Mof_H 	H 	0.6498	0.8569	0.8388	0.195
Mof_H 	H 	0.6516	0.8644	0.881	0.202
Mof_H 	H 	0.6959	0.891	0.8639	0.196
Mof_C 	C 	0.43876	0.41899	0.31567	0.153
Mof_C 	C 	0.1249	0.81242	0.20819	0.166
Mof_C 	C 	0.31513	0.03176	0.28261	0.158
Mof_C 	C 	0.5226	0.89432	0.88838	0.163
Mof_C 	C 	0.51011	0.40603	0.33998	-0.174
Mof_H 	H 	0.5527	0.4132	0.3353	0.074
Mof_C 	C 	0.1254	0.80152	0.24381	-0.185
Mof_H 	H 	0.1658	0.8088	0.2672	0.08
Mof_C 	C 	0.26805	0.04855	0.24758	-0.181
Mof_H 	H 	0.2625	0.038	0.2236	0.077
Mof_C 	C 	0.4554	0.88167	0.8884	-0.181
Mof_H 	H 	0.4105	0.8831	0.8653	0.081
Mof_C 	C 	0.52017	0.38297	0.37084	0.077
Mof_H 	H 	0.5694	0.3749	0.3874	0.006
Mof_C 	C 	0.0675	0.78015	0.24545	0.081
Mof_H 	H 	0.0683	0.7731	0.2698	0.01
Mof_C 	C 	0.22954	0.08043	0.24776	0.075
Mof_H 	H 	0.197	0.0913	0.2239	0.005
Mof_C 	C 	0.4526	0.86679	0.9221	0.073
Mof_H 	H 	0.4058	0.8589	0.9218	0.015
Mof_C 	C 	0.45838	0.37158	0.37753	-0.14
Mof_C 	C 	0.008	0.76901	0.21099	-0.147
Mof_C 	C 	0.2385	0.09656	0.28304	-0.152
Mof_C 	C 	0.5181	0.86368	0.95573	-0.133
Mof_C 	C 	0.38622	0.3845	0.35369	0.077
Mof_H 	H 	0.3436	0.3769	0.3581	0.015
Mof_C 	C 	0.00575	0.78129	0.1758	0.091
Mof_H 	H 	0.9647	0.7747	0.1523	0.008
Mof_C 	C 	0.28291	0.08	0.31708	0.086
Mof_H 	H 	0.2886	0.0909	0.3409	0.009
Mof_C 	C 	0.5864	0.87732	0.95617	0.077
Mof_H 	H 	0.6314	0.8758	0.9792	0.013
Mof_C 	C 	0.37748	0.40833	0.32387	-0.178
Mof_H 	H 	0.3287	0.4178	0.3085	0.081
Mof_C 	C 	0.0626	0.80302	0.17482	-0.197
Mof_H 	H 	0.0591	0.8119	0.1505	0.087
Mof_C 	C 	0.32016	0.0473	0.31763	-0.184
Mof_H 	H 	0.3489	0.0355	0.3416	0.081
Mof_C 	C 	0.5877	0.89276	0.92321	-0.186
Mof_H 	H 	0.6336	0.9026	0.9241	0.082
Mof_C 	C 	0.4679	0.34464	0.40966	0.356
Mof_C 	C 	0.95108	0.7421	0.2122	0.36
Mof_C 	C 	0.19927	0.13192	0.28323	0.362
Mof_C 	C 	0.5178	0.84252	0.98978	0.346
Mof_O 	O 	0.40715	0.33066	0.40879	-0.411
Mof_O 	O 	0.95299	0.73367	0.24557	-0.408
Mof_O 	O 	0.15159	0.14355	0.2508	-0.417
Mof_O 	O 	0.58254	0.83386	0.01577	-0.405
Mof_O 	O 	0.53412	0.33741	0.4334	-0.419
Mof_O 	O 	0.90751	0.72863	0.18011	-0.411
Mof_O 	O 	0.21788	0.14733	0.31567	-0.419
Mof_O 	O 	0.4536	0.834	0.98908	-0.403
Mof_N 	N 	0.29097	0.52159	0.19694	-0.137
Mof_N 	N 	0.40465	0.84297	0.19125	-0.135
Mof_N 	N 	0.49067	0.90101	0.33542	-0.138
Mof_N 	N 	0.56838	0.90364	0.74318	-0.137
Mof_N 	N 	0.33725	0.55072	0.21213	-0.229
Mof_N 	N 	0.44698	0.86013	0.22494	-0.233
Mof_N 	N 	0.44359	0.877	0.30864	-0.228
Mof_N 	N 	0.50602	0.9213	0.71705	-0.236
Mof_C 	C 	0.2933	0.57672	0.21675	0.23
Mof_C 	C 	0.51416	0.84372	0.23825	0.255
Mof_C 	C 	0.4362	0.84925	0.32977	0.245
Mof_C 	C 	0.48136	0.90078	0.68463	0.242
Mof_C 	C 	0.21873	0.56403	0.20441	-0.234
Mof_C 	C 	0.51476	0.81646	0.21222	-0.241
Mof_C 	C 	0.4772	0.85567	0.36926	-0.244
Mof_C 	C 	0.53004	0.87034	0.69034	-0.242
Mof_C 	C 	0.21969	0.52858	0.19207	0.236
Mof_C 	C 	0.44441	0.81654	0.18252	0.249
Mof_C 	C 	0.5123	0.88924	0.37228	0.248
Mof_C 	C 	0.58375	0.8725	0.72807	0.265
Mof_C 	C 	0.3257	0.61404	0.23176	-0.591
Mof_H 	H 	0.337	0.6157	0.2595	0.18
Mof_H 	H 	0.289	0.6329	0.2176	0.19
Mof_H 	H 	0.3722	0.6176	0.2279	0.172
Mof_C 	C 	0.5771	0.85572	0.27566	-0.63
Mof_H 	H 	0.5773	0.8824	0.2774	0.193
Mof_H 	H 	0.6255	0.8474	0.2763	0.201
Mof_H 	H 	0.5695	0.8451	0.2976	0.195
Mof_C 	C 	0.3892	0.81663	0.30968	-0.602
Mof_H 	H 	0.3379	0.8196	0.3083	0.182
Mof_H 	H 	0.4119	0.7944	0.3243	0.194
Mof_H 	H 	0.3871	0.8147	0.2834	0.179
Mof_C 	C 	0.41301	0.91098	0.65004	-0.609
Mof_H 	H 	0.3703	0.896	0.649	0.185
Mof_H 	H 	0.4218	0.9068	0.6266	0.192
Mof_H 	H 	0.4016	0.9369	0.6516	0.168
Mof_C 	C 	0.1573	0.50078	0.17573	-0.57
Mof_H 	H 	0.1426	0.4983	0.1477	0.177
Mof_H 	H 	0.1136	0.5088	0.1804	0.183
Mof_H 	H 	0.175	0.4771	0.1884	0.175
Mof_C 	C 	0.40971	0.79332	0.14619	-0.603
Mof_H 	H 	0.3608	0.7839	0.1438	0.187
Mof_H 	H 	0.4434	0.7728	0.1479	0.205
Mof_H 	H 	0.4025	0.8082	0.1234	0.204
Mof_C 	C 	0.5625	0.91076	0.40665	-0.597
Mof_H 	H 	0.6142	0.9102	0.4084	0.184
Mof_H 	H 	0.5615	0.9002	0.4303	0.19
Mof_H 	H 	0.5449	0.9361	0.4039	0.185
Mof_C 	C 	0.64618	0.84727	0.75101	-0.633
Mof_H 	H 	0.6941	0.8607	0.7611	0.211
Mof_H 	H 	0.6487	0.8273	0.7343	0.215
Mof_H 	H 	0.6369	0.8373	0.7727	0.199
Mof_C 	C 	0.15443	0.58452	0.20566	0.168
Mof_C 	C 	0.58	0.79377	0.21449	0.168
Mof_C 	C 	0.4852	0.83058	0.40192	0.172
Mof_C 	C 	0.52468	0.84178	0.66164	0.168
Mof_C 	C 	0.0866	0.5887	0.17326	-0.197
Mof_H 	H 	0.08	0.5771	0.1496	0.087
Mof_C 	C 	0.59723	0.79056	0.18203	-0.191
Mof_H 	H 	0.5671	0.803	0.1587	0.102
Mof_C 	C 	0.4225	0.81542	0.40445	-0.194
Mof_H 	H 	0.3738	0.8225	0.3863	0.086
Mof_C 	C 	0.45717	0.82349	0.64062	-0.19
Mof_H 	H 	0.4126	0.8301	0.6437	0.081
Mof_C 	C 	0.0289	0.60941	0.17496	0.091
Mof_H 	H 	0.9839	0.6129	0.1522	0.007
Mof_C 	C 	0.65723	0.76955	0.18339	0.096
Mof_H 	H 	0.6671	0.7673	0.1608	0.02
Mof_C 	C 	0.4289	0.78965	0.43329	0.086
Mof_H 	H 	0.385	0.7791	0.4343	0.01
Mof_C 	C 	0.45501	0.7955	0.61499	0.08
Mof_H 	H 	0.4088	0.7833	0.6005	0.003
Mof_C 	C 	0.03583	0.62517	0.20972	-0.153
Mof_C 	C 	0.70265	0.75193	0.21676	-0.155
Mof_C 	C 	0.4993	0.77985	0.46003	-0.149
Mof_C 	C 	0.51983	0.78538	0.61061	-0.153
Mof_C 	C 	0.1015	0.62072	0.24229	0.088
Mof_H 	H 	0.1065	0.631	0.2663	0.009
Mof_C 	C 	0.6879	0.75513	0.25002	0.081
Mof_H 	H 	0.7193	0.7431	0.2734	0.003
Mof_C 	C 	0.5637	0.79569	0.45875	0.086
Mof_H 	H 	0.6126	0.7896	0.4776	0.009
Mof_C 	C 	0.58757	0.80395	0.63095	0.091
Mof_H 	H 	0.6319	0.7973	0.6276	0.016
Mof_C 	C 	0.161	0.60101	0.23995	-0.191
Mof_H 	H 	0.207	0.5988	0.2624	0.082
Mof_C 	C 	0.62684	0.77603	0.2485	-0.192
Mof_H 	H 	0.6169	0.7782	0.2711	0.082
Mof_C 	C 	0.5547	0.82069	0.42918	-0.196
Mof_H 	H 	0.5984	0.8312	0.4279	0.086
Mof_C 	C 	0.58965	0.83211	0.65602	-0.193
Mof_H 	H 	0.6355	0.845	0.6695	0.103
Mof_C 	C 	0.9731	0.6486	0.2111	0.37
Mof_C 	C 	0.76645	0.72886	0.21732	0.361
Mof_C 	C 	0.5072	0.75146	0.48995	0.363
Mof_C 	C 	0.51893	0.75393	0.58472	0.373
Mof_O 	O 	0.91724	0.65452	0.17948	-0.413
Mof_O 	O 	0.76878	0.72291	0.18474	-0.415
Mof_O 	O 	0.4464	0.74022	0.49155	-0.408
Mof_O 	O 	0.58129	0.74507	0.5842	-0.418
Mof_O 	O 	0.98146	0.66079	0.24395	-0.412
Mof_O 	O 	0.81405	0.71714	0.24982	-0.413
Mof_O 	O 	0.57295	0.74032	0.51058	-0.411
Mof_O 	O 	0.45676	0.73855	0.56615	-0.424
Mof_Cu	Cu	0.90359	0.81072	0.75297	0.897
Mof_C 	C 	0.32452	0.01154	0.69015	-0.002
Mof_H 	H 	0.2843	0.0293	0.6758	0.016
Mof_H 	H 	0.3524	0.0059	0.674	0.004
Mof_C 	C 	0.32866	0.6441	0.6691	-0.008
Mof_H 	H 	0.3076	0.6564	0.6435	0.024
Mof_H 	H 	0.3299	0.6175	0.6645	0.009
Mof_C 	C 	0.5121	0.56613	0.82053	-0.003
Mof_H 	H 	0.5502	0.5524	0.8423	0.017
Mof_H 	H 	0.5351	0.5731	0.8025	0.008
Mof_C 	C 	0.60716	0.58096	0.28151	-0.008
Mof_H 	H 	0.6169	0.5547	0.2791	0.01
Mof_H 	H 	0.6565	0.5933	0.2948	0.024
Mof_Cu	Cu	0.83799	0.81124	0.67661	0.903
Mof_Cu	Cu	0.59307	0.79486	0.05284	0.902
Mof_Cu	Cu	0.44506	0.7991	0.02691	0.897
Mof_Cu	Cu	0.45211	0.54333	0.23778	0.854
Mof_Cu	Cu	0.39499	0.60782	0.75078	0.854
Mof_N 	N 	0.37552	0.02745	0.72652	-0.138
Mof_N 	N 	0.28008	0.65105	0.68903	-0.137
Mof_N 	N 	0.44751	0.5432	0.80059	-0.138
Mof_N 	N 	0.56351	0.58482	0.30501	-0.143
Mof_N 	N 	0.44508	0.01144	0.74593	-0.228
Mof_N 	N 	0.28859	0.62974	0.72021	-0.231
Mof_N 	N 	0.39493	0.55469	0.76572	-0.235
Mof_N 	N 	0.49744	0.56591	0.29386	-0.224
Mof_C 	C 	0.47767	0.02951	0.77975	0.223
Mof_C 	C 	0.23411	0.64029	0.73086	0.227
Mof_C 	C 	0.34022	0.52948	0.75458	0.232
Mof_C 	C 	0.4752	0.5714	0.32265	0.239
Mof_C 	C 	0.4269	0.0565	0.78259	-0.23
Mof_C 	C 	0.18955	0.66813	0.70645	-0.232
Mof_C 	C 	0.35878	0.50152	0.78299	-0.236
Mof_C 	C 	0.5269	0.59308	0.352	-0.245
Mof_C 	C 	0.36301	0.05438	0.74784	0.233
Mof_C 	C 	0.22136	0.67468	0.67993	0.239
Mof_C 	C 	0.42829	0.51123	0.81193	0.242
Mof_C 	C 	0.5838	0.60135	0.34002	0.267
Mof_C 	C 	0.55511	0.01997	0.80778	-0.583
Mof_H 	H 	0.5902	0.0393	0.8079	0.168
Mof_H 	H 	0.556	0.0175	0.8338	0.186
Mof_H 	H 	0.5703	0.9968	0.8001	0.168
Mof_C 	C 	0.2255	0.62119	0.76447	-0.583
Mof_H 	H 	0.2455	0.6369	0.7875	0.174
Mof_H 	H 	0.1719	0.6163	0.7576	0.187
Mof_H 	H 	0.2534	0.5981	0.77	0.171
Mof_C 	C 	0.27245	0.53394	0.71741	-0.603
Mof_H 	H 	0.2761	0.5174	0.6978	0.18
Mof_H 	H 	0.227	0.5281	0.7215	0.19
Mof_H 	H 	0.2696	0.5592	0.7084	0.168
Mof_C 	C 	0.4034	0.55287	0.31998	-0.591
Mof_H 	H 	0.3912	0.5326	0.3014	0.178
Mof_H 	H 	0.4108	0.5434	0.3456	0.192
Mof_H 	H 	0.3619	0.5706	0.3112	0.18
Mof_C 	C 	0.29215	0.07629	0.73191	-0.583
Mof_H 	H 	0.2522	0.0632	0.7362	0.179
Mof_H 	H 	0.3009	0.1001	0.745	0.185
Mof_H 	H 	0.2767	0.08	0.704	0.179
Mof_C 	C 	0.2027	0.7019	0.64787	-0.588
Mof_H 	H 	0.1792	0.6894	0.6228	0.184
Mof_H 	H 	0.1676	0.7201	0.65	0.19
Mof_H 	H 	0.249	0.7141	0.6498	0.181
Mof_C 	C 	0.47808	0.4925	0.84803	-0.603
Mof_H 	H 	0.4674	0.5014	0.8697	0.185
Mof_H 	H 	0.469	0.4661	0.8451	0.19
Mof_H 	H 	0.5309	0.4975	0.8532	0.177
Mof_C 	C 	0.6507	0.6241	0.35734	-0.632
Mof_H 	H 	0.6498	0.6431	0.3388	0.195
Mof_H 	H 	0.6516	0.6356	0.381	0.202
Mof_H 	H 	0.6959	0.609	0.3639	0.196
Mof_C 	C 	0.43876	0.08101	0.81567	0.153
Mof_C 	C 	0.1249	0.68758	0.70819	0.166
Mof_C 	C 	0.31513	0.46824	0.78261	0.159
Mof_C 	C 	0.5226	0.60568	0.38838	0.163
Mof_C 	C 	0.51011	0.09397	0.83998	-0.174
Mof_H 	H 	0.5527	0.0868	0.8353	0.074
Mof_C 	C 	0.1254	0.69848	0.74381	-0.185
Mof_H 	H 	0.1658	0.6912	0.7672	0.08
Mof_C 	C 	0.26805	0.45145	0.74758	-0.181
Mof_H 	H 	0.2625	0.462	0.7236	0.077
Mof_C 	C 	0.4554	0.61833	0.3884	-0.181
Mof_H 	H 	0.4105	0.6169	0.3653	0.081
Mof_C 	C 	0.52017	0.11703	0.87084	0.077
Mof_H 	H 	0.5694	0.1251	0.8874	0.006
Mof_C 	C 	0.0675	0.71985	0.74545	0.081
Mof_H 	H 	0.0683	0.7269	0.7698	0.01
Mof_C 	C 	0.22954	0.41957	0.74776	0.075
Mof_H 	H 	0.197	0.4087	0.7239	0.005
Mof_C 	C 	0.4526	0.63321	0.4221	0.073
Mof_H 	H 	0.4058	0.6411	0.4218	0.015
Mof_C 	C 	0.45838	0.12842	0.87753	-0.14
Mof_C 	C 	0.008	0.73099	0.71099	-0.147
Mof_C 	C 	0.2385	0.40344	0.78304	-0.152
Mof_C 	C 	0.5181	0.63632	0.45573	-0.133
Mof_C 	C 	0.38622	0.1155	0.85369	0.077
Mof_H 	H 	0.3436	0.1231	0.8581	0.015
Mof_C 	C 	0.00575	0.71871	0.6758	0.091
Mof_H 	H 	0.9647	0.7253	0.6523	0.008
Mof_C 	C 	0.28291	0.42	0.81708	0.086
Mof_H 	H 	0.2886	0.4091	0.8409	0.009
Mof_C 	C 	0.5864	0.62268	0.45617	0.077
Mof_H 	H 	0.6314	0.6242	0.4792	0.013
Mof_C 	C 	0.37748	0.09167	0.82387	-0.178
Mof_H 	H 	0.3287	0.0822	0.8085	0.081
Mof_C 	C 	0.0626	0.69698	0.67482	-0.197
Mof_H 	H 	0.0591	0.6881	0.6505	0.087
Mof_C 	C 	0.32016	0.4527	0.81763	-0.184
Mof_H 	H 	0.3489	0.4645	0.8416	0.081
Mof_C 	C 	0.5877	0.60724	0.42321	-0.186
Mof_H 	H 	0.6336	0.5974	0.4241	0.082
Mof_C 	C 	0.4679	0.15536	0.90966	0.356
Mof_C 	C 	0.95108	0.7579	0.7122	0.36
Mof_C 	C 	0.19927	0.36808	0.78323	0.362
Mof_C 	C 	0.5178	0.65748	0.48978	0.346
Mof_O 	O 	0.40715	0.16934	0.90879	-0.411
Mof_O 	O 	0.95299	0.76633	0.74557	-0.408
Mof_O 	O 	0.15159	0.35645	0.7508	-0.417
Mof_O 	O 	0.58254	0.66614	0.51577	-0.405
Mof_O 	O 	0.53412	0.16259	0.9334	-0.419
Mof_O 	O 	0.90751	0.77137	0.68011	-0.411
Mof_O 	O 	0.21788	0.35267	0.81567	-0.419
Mof_O 	O 	0.4536	0.666	0.48908	-0.403
Mof_N 	N 	0.29097	0.97841	0.69694	-0.137
Mof_N 	N 	0.40465	0.65703	0.69125	-0.135
Mof_N 	N 	0.49067	0.59899	0.83542	-0.138
Mof_N 	N 	0.56838	0.59636	0.24318	-0.137
Mof_N 	N 	0.33725	0.94928	0.71213	-0.229
Mof_N 	N 	0.44698	0.63987	0.72494	-0.233
Mof_N 	N 	0.44359	0.623	0.80864	-0.228
Mof_N 	N 	0.50602	0.5787	0.21705	-0.236
Mof_C 	C 	0.2933	0.92328	0.71675	0.23
Mof_C 	C 	0.51416	0.65628	0.73825	0.255
Mof_C 	C 	0.4362	0.65075	0.82977	0.245
Mof_C 	C 	0.48136	0.59922	0.18463	0.242
Mof_C 	C 	0.21873	0.93597	0.70441	-0.234
Mof_C 	C 	0.51476	0.68354	0.71222	-0.241
Mof_C 	C 	0.4772	0.64433	0.86926	-0.244
Mof_C 	C 	0.53004	0.62966	0.19034	-0.242
Mof_C 	C 	0.21969	0.97142	0.69207	0.236
Mof_C 	C 	0.44441	0.68346	0.68252	0.249
Mof_C 	C 	0.5123	0.61076	0.87228	0.248
Mof_C 	C 	0.58375	0.6275	0.22807	0.265
Mof_C 	C 	0.3257	0.88596	0.73176	-0.591
Mof_H 	H 	0.337	0.8843	0.7595	0.18
Mof_H 	H 	0.289	0.8671	0.7176	0.19
Mof_H 	H 	0.3722	0.8824	0.7279	0.172
Mof_C 	C 	0.5771	0.64428	0.77566	-0.63
Mof_H 	H 	0.5773	0.6176	0.7774	0.193
Mof_H 	H 	0.6255	0.6526	0.7763	0.201
Mof_H 	H 	0.5695	0.6549	0.7976	0.195
Mof_C 	C 	0.3892	0.68337	0.80968	-0.602
Mof_H 	H 	0.3379	0.6804	0.8083	0.182
Mof_H 	H 	0.4119	0.7056	0.8243	0.194
Mof_H 	H 	0.3871	0.6853	0.7834	0.179
Mof_C 	C 	0.41301	0.58902	0.15004	-0.609
Mof_H 	H 	0.3703	0.604	0.149	0.185
Mof_H 	H 	0.4218	0.5932	0.1266	0.192
Mof_H 	H 	0.4016	0.5631	0.1516	0.168
Mof_C 	C 	0.1573	0.99922	0.67573	-0.569
Mof_H 	H 	0.1426	0.0017	0.6477	0.177
Mof_H 	H 	0.1136	0.9912	0.6804	0.183
Mof_H 	H 	0.175	0.0229	0.6884	0.175
Mof_C 	C 	0.40971	0.70668	0.64619	-0.603
Mof_H 	H 	0.3608	0.7161	0.6438	0.187
Mof_H 	H 	0.4434	0.7272	0.6479	0.205
Mof_H 	H 	0.4025	0.6918	0.6234	0.204
Mof_C 	C 	0.5625	0.58924	0.90665	-0.597
Mof_H 	H 	0.6142	0.5898	0.9084	0.184
Mof_H 	H 	0.5615	0.5998	0.9303	0.19
Mof_H 	H 	0.5449	0.5639	0.9039	0.185
Mof_C 	C 	0.64618	0.65273	0.25101	-0.633
Mof_H 	H 	0.6941	0.6393	0.2611	0.211
Mof_H 	H 	0.6487	0.6727	0.2343	0.215
Mof_H 	H 	0.6369	0.6627	0.2727	0.199
Mof_C 	C 	0.15443	0.91548	0.70566	0.168
Mof_C 	C 	0.58	0.70623	0.71449	0.168
Mof_C 	C 	0.4852	0.66942	0.90192	0.172
Mof_C 	C 	0.52468	0.65822	0.16164	0.168
Mof_C 	C 	0.0866	0.9113	0.67326	-0.198
Mof_H 	H 	0.08	0.9229	0.6496	0.087
Mof_C 	C 	0.59723	0.70944	0.68203	-0.191
Mof_H 	H 	0.5671	0.697	0.6587	0.102
Mof_C 	C 	0.4225	0.68458	0.90445	-0.194
Mof_H 	H 	0.3738	0.6775	0.8863	0.086
Mof_C 	C 	0.45717	0.67651	0.14062	-0.19
Mof_H 	H 	0.4126	0.6699	0.1437	0.081
Mof_C 	C 	0.0289	0.89059	0.67496	0.092
Mof_H 	H 	0.9839	0.8871	0.6522	0.007
Mof_C 	C 	0.65723	0.73045	0.68339	0.096
Mof_H 	H 	0.6671	0.7327	0.6608	0.02
Mof_C 	C 	0.4289	0.71035	0.93329	0.086
Mof_H 	H 	0.385	0.7209	0.9343	0.01
Mof_C 	C 	0.45501	0.7045	0.11499	0.08
Mof_H 	H 	0.4088	0.7167	0.1005	0.003
Mof_C 	C 	0.03583	0.87483	0.70972	-0.153
Mof_C 	C 	0.70265	0.74807	0.71676	-0.155
Mof_C 	C 	0.4993	0.72015	0.96003	-0.149
Mof_C 	C 	0.51983	0.71462	0.11061	-0.153
Mof_C 	C 	0.1015	0.87928	0.74229	0.088
Mof_H 	H 	0.1065	0.869	0.7663	0.009
Mof_C 	C 	0.6879	0.74487	0.75002	0.081
Mof_H 	H 	0.7193	0.7569	0.7734	0.003
Mof_C 	C 	0.5637	0.70431	0.95875	0.086
Mof_H 	H 	0.6126	0.7104	0.9776	0.009
Mof_C 	C 	0.58757	0.69605	0.13095	0.091
Mof_H 	H 	0.6319	0.7027	0.1276	0.016
Mof_C 	C 	0.161	0.89899	0.73995	-0.191
Mof_H 	H 	0.207	0.9012	0.7624	0.082
Mof_C 	C 	0.62684	0.72397	0.7485	-0.192
Mof_H 	H 	0.6169	0.7218	0.7711	0.082
Mof_C 	C 	0.5547	0.67931	0.92918	-0.196
Mof_H 	H 	0.5984	0.6688	0.9279	0.086
Mof_C 	C 	0.58965	0.66789	0.15602	-0.193
Mof_H 	H 	0.6355	0.655	0.1695	0.103
Mof_C 	C 	0.9731	0.8514	0.7111	0.37
Mof_C 	C 	0.76645	0.77114	0.71732	0.361
Mof_C 	C 	0.5072	0.74854	0.98995	0.363
Mof_C 	C 	0.51893	0.74607	0.08472	0.373
Mof_O 	O 	0.91724	0.84548	0.67948	-0.413
Mof_O 	O 	0.76878	0.77709	0.68474	-0.415
Mof_O 	O 	0.4464	0.75978	0.99155	-0.408
Mof_O 	O 	0.58129	0.75493	0.0842	-0.418
Mof_O 	O 	0.98146	0.83921	0.74395	-0.412
Mof_O 	O 	0.81405	0.78286	0.74982	-0.413
Mof_O 	O 	0.57295	0.75968	0.01058	-0.411
Mof_O 	O 	0.45676	0.76145	0.06615	-0.424
Mof_Cu	Cu	0.09641	0.31072	0.74703	0.897
Mof_C 	C 	0.67548	0.51154	0.80985	-0.002
Mof_H 	H 	0.7157	0.5293	0.8242	0.016
Mof_H 	H 	0.6476	0.5059	0.826	0.004
Mof_C 	C 	0.67134	0.1441	0.8309	-0.008
Mof_H 	H 	0.6924	0.1564	0.8565	0.024
Mof_H 	H 	0.6701	0.1175	0.8355	0.009
Mof_C 	C 	0.4879	0.06613	0.67947	-0.003
Mof_H 	H 	0.4498	0.0524	0.6577	0.017
Mof_H 	H 	0.4649	0.0731	0.6975	0.008
Mof_C 	C 	0.39284	0.08096	0.21849	-0.008
Mof_H 	H 	0.3831	0.0547	0.2209	0.01
Mof_H 	H 	0.3435	0.0933	0.2052	0.024
Mof_Cu	Cu	0.16201	0.31124	0.82339	0.903
Mof_Cu	Cu	0.40693	0.29486	0.44716	0.902
Mof_Cu	Cu	0.55494	0.2991	0.47309	0.897
Mof_Cu	Cu	0.54789	0.04333	0.26222	0.854
Mof_Cu	Cu	0.60501	0.10782	0.74922	0.854
Mof_N 	N 	0.62448	0.52745	0.77348	-0.138
Mof_N 	N 	0.71992	0.15105	0.81097	-0.137
Mof_N 	N 	0.55249	0.0432	0.69941	-0.138
Mof_N 	N 	0.43649	0.08482	0.19499	-0.143
Mof_N 	N 	0.55492	0.51144	0.75407	-0.228
Mof_N 	N 	0.71141	0.12974	0.77979	-0.231
Mof_N 	N 	0.60507	0.05469	0.73428	-0.235
Mof_N 	N 	0.50256	0.06591	0.20614	-0.224
Mof_C 	C 	0.52233	0.52951	0.72025	0.223
Mof_C 	C 	0.76589	0.14029	0.76914	0.227
Mof_C 	C 	0.65978	0.02948	0.74542	0.232
Mof_C 	C 	0.5248	0.0714	0.17735	0.239
Mof_C 	C 	0.5731	0.5565	0.71741	-0.23
Mof_C 	C 	0.81045	0.16813	0.79355	-0.232
Mof_C 	C 	0.64122	0.00152	0.71701	-0.236
Mof_C 	C 	0.4731	0.09308	0.148	-0.245
Mof_C 	C 	0.63699	0.55438	0.75216	0.233
Mof_C 	C 	0.77864	0.17468	0.82007	0.239
Mof_C 	C 	0.57171	0.01123	0.68807	0.242
Mof_C 	C 	0.4162	0.10135	0.15998	0.267
Mof_C 	C 	0.44489	0.51997	0.69222	-0.583
Mof_H 	H 	0.4098	0.5393	0.6921	0.168
Mof_H 	H 	0.444	0.5175	0.6662	0.186
Mof_H 	H 	0.4297	0.4968	0.6999	0.168
Mof_C 	C 	0.7745	0.12119	0.73553	-0.583
Mof_H 	H 	0.7545	0.1369	0.7125	0.174
Mof_H 	H 	0.8281	0.1163	0.7424	0.187
Mof_H 	H 	0.7466	0.0981	0.73	0.171
Mof_C 	C 	0.72755	0.03394	0.78259	-0.603
Mof_H 	H 	0.7239	0.0174	0.8022	0.18
Mof_H 	H 	0.773	0.0281	0.7785	0.19
Mof_H 	H 	0.7304	0.0592	0.7916	0.168
Mof_C 	C 	0.5966	0.05287	0.18002	-0.591
Mof_H 	H 	0.6088	0.0326	0.1986	0.178
Mof_H 	H 	0.5892	0.0434	0.1544	0.192
Mof_H 	H 	0.6381	0.0706	0.1888	0.18
Mof_C 	C 	0.70785	0.57629	0.76809	-0.583
Mof_H 	H 	0.7478	0.5632	0.7638	0.179
Mof_H 	H 	0.6991	0.6001	0.755	0.185
Mof_H 	H 	0.7233	0.58	0.796	0.179
Mof_C 	C 	0.7973	0.2019	0.85213	-0.588
Mof_H 	H 	0.8208	0.1894	0.8772	0.184
Mof_H 	H 	0.8324	0.2201	0.85	0.19
Mof_H 	H 	0.751	0.2141	0.8502	0.181
Mof_C 	C 	0.52192	0.9925	0.65197	-0.603
Mof_H 	H 	0.5326	0.0014	0.6303	0.185
Mof_H 	H 	0.531	0.9661	0.6549	0.19
Mof_H 	H 	0.4691	0.9975	0.6468	0.177
Mof_C 	C 	0.3493	0.1241	0.14266	-0.632
Mof_H 	H 	0.3502	0.1431	0.1612	0.195
Mof_H 	H 	0.3484	0.1356	0.119	0.202
Mof_H 	H 	0.3041	0.109	0.1361	0.196
Mof_C 	C 	0.56124	0.58101	0.68433	0.153
Mof_C 	C 	0.8751	0.18758	0.79181	0.166
Mof_C 	C 	0.68487	0.96824	0.71739	0.158
Mof_C 	C 	0.4774	0.10568	0.11162	0.163
Mof_C 	C 	0.48989	0.59397	0.66002	-0.174
Mof_H 	H 	0.4473	0.5868	0.6647	0.074
Mof_C 	C 	0.8746	0.19848	0.75619	-0.185
Mof_H 	H 	0.8342	0.1912	0.7328	0.08
Mof_C 	C 	0.73195	0.95145	0.75242	-0.181
Mof_H 	H 	0.7375	0.962	0.7764	0.077
Mof_C 	C 	0.5446	0.11833	0.1116	-0.181
Mof_H 	H 	0.5895	0.1169	0.1347	0.081
Mof_C 	C 	0.47983	0.61703	0.62916	0.077
Mof_H 	H 	0.4306	0.6251	0.6126	0.006
Mof_C 	C 	0.9325	0.21985	0.75455	0.081
Mof_H 	H 	0.9317	0.2269	0.7302	0.01
Mof_C 	C 	0.77046	0.91957	0.75224	0.075
Mof_H 	H 	0.803	0.9087	0.7761	0.005
Mof_C 	C 	0.5474	0.13321	0.0779	0.073
Mof_H 	H 	0.5942	0.1411	0.0782	0.015
Mof_C 	C 	0.54162	0.62842	0.62247	-0.14
Mof_C 	C 	0.992	0.23099	0.78901	-0.147
Mof_C 	C 	0.7615	0.90344	0.71696	-0.152
Mof_C 	C 	0.4819	0.13632	0.04427	-0.133
Mof_C 	C 	0.61378	0.6155	0.64631	0.077
Mof_H 	H 	0.6564	0.6231	0.6419	0.015
Mof_C 	C 	0.99425	0.21871	0.8242	0.091
Mof_H 	H 	0.0353	0.2253	0.8477	0.008
Mof_C 	C 	0.71709	0.92	0.68292	0.086
Mof_H 	H 	0.7114	0.9091	0.6591	0.009
Mof_C 	C 	0.4136	0.12268	0.04383	0.077
Mof_H 	H 	0.3686	0.1242	0.0208	0.013
Mof_C 	C 	0.62252	0.59167	0.67613	-0.178
Mof_H 	H 	0.6713	0.5822	0.6915	0.081
Mof_C 	C 	0.9374	0.19698	0.82518	-0.197
Mof_H 	H 	0.9409	0.1881	0.8495	0.087
Mof_C 	C 	0.67984	0.9527	0.68237	-0.184
Mof_H 	H 	0.6511	0.9645	0.6584	0.081
Mof_C 	C 	0.4123	0.10724	0.07679	-0.186
Mof_H 	H 	0.3664	0.0974	0.0759	0.082
Mof_C 	C 	0.5321	0.65536	0.59034	0.356
Mof_C 	C 	0.04892	0.2579	0.7878	0.36
Mof_C 	C 	0.80073	0.86808	0.71677	0.362
Mof_C 	C 	0.4822	0.15748	0.01022	0.346
Mof_O 	O 	0.59285	0.66934	0.59121	-0.411
Mof_O 	O 	0.04701	0.26633	0.75443	-0.408
Mof_O 	O 	0.84841	0.85645	0.7492	-0.417
Mof_O 	O 	0.41746	0.16614	0.98423	-0.405
Mof_O 	O 	0.46588	0.66259	0.5666	-0.419
Mof_O 	O 	0.09249	0.27137	0.81989	-0.411
Mof_O 	O 	0.78212	0.85267	0.68433	-0.419
Mof_O 	O 	0.5464	0.166	0.01092	-0.403
Mof_N 	N 	0.70903	0.47841	0.80306	-0.137
Mof_N 	N 	0.59535	0.15703	0.80875	-0.135
Mof_N 	N 	0.50933	0.09899	0.66458	-0.138
Mof_N 	N 	0.43162	0.09636	0.25682	-0.137
Mof_N 	N 	0.66275	0.44928	0.78787	-0.229
Mof_N 	N 	0.55302	0.13987	0.77506	-0.233
Mof_N 	N 	0.55641	0.123	0.69136	-0.228
Mof_N 	N 	0.49398	0.0787	0.28295	-0.236
Mof_C 	C 	0.7067	0.42328	0.78325	0.23
Mof_C 	C 	0.48584	0.15628	0.76175	0.255
Mof_C 	C 	0.5638	0.15075	0.67023	0.245
Mof_C 	C 	0.51864	0.09922	0.31537	0.242
Mof_C 	C 	0.78127	0.43597	0.79559	-0.234
Mof_C 	C 	0.48524	0.18354	0.78778	-0.241
Mof_C 	C 	0.5228	0.14433	0.63074	-0.244
Mof_C 	C 	0.46996	0.12966	0.30966	-0.242
Mof_C 	C 	0.78031	0.47142	0.80793	0.236
Mof_C 	C 	0.55559	0.18346	0.81748	0.249
Mof_C 	C 	0.4877	0.11076	0.62772	0.248
Mof_C 	C 	0.41625	0.1275	0.27193	0.265
Mof_C 	C 	0.6743	0.38596	0.76824	-0.591
Mof_H 	H 	0.663	0.3843	0.7405	0.18
Mof_H 	H 	0.711	0.3671	0.7824	0.19
Mof_H 	H 	0.6278	0.3824	0.7721	0.172
Mof_C 	C 	0.4229	0.14428	0.72434	-0.63
Mof_H 	H 	0.4227	0.1176	0.7226	0.193
Mof_H 	H 	0.3745	0.1526	0.7237	0.201
Mof_H 	H 	0.4305	0.1549	0.7024	0.195
Mof_C 	C 	0.6108	0.18337	0.69032	-0.602
Mof_H 	H 	0.6621	0.1804	0.6917	0.182
Mof_H 	H 	0.5881	0.2056	0.6757	0.194
Mof_H 	H 	0.6129	0.1853	0.7166	0.179
Mof_C 	C 	0.58699	0.08902	0.34996	-0.609
Mof_H 	H 	0.6297	0.104	0.351	0.185
Mof_H 	H 	0.5782	0.0932	0.3734	0.192
Mof_H 	H 	0.5984	0.0631	0.3484	0.168
Mof_C 	C 	0.8427	0.49922	0.82427	-0.57
Mof_H 	H 	0.8574	0.5017	0.8523	0.177
Mof_H 	H 	0.8864	0.4912	0.8196	0.183
Mof_H 	H 	0.825	0.5229	0.8116	0.175
Mof_C 	C 	0.59029	0.20668	0.85381	-0.603
Mof_H 	H 	0.6392	0.2161	0.8562	0.187
Mof_H 	H 	0.5566	0.2272	0.8521	0.205
Mof_H 	H 	0.5975	0.1918	0.8766	0.204
Mof_C 	C 	0.4375	0.08924	0.59335	-0.597
Mof_H 	H 	0.3858	0.0898	0.5916	0.184
Mof_H 	H 	0.4385	0.0998	0.5697	0.19
Mof_H 	H 	0.4551	0.0639	0.5961	0.185
Mof_C 	C 	0.35382	0.15273	0.24899	-0.633
Mof_H 	H 	0.3059	0.1393	0.2389	0.211
Mof_H 	H 	0.3513	0.1727	0.2657	0.215
Mof_H 	H 	0.3631	0.1627	0.2273	0.199
Mof_C 	C 	0.84557	0.41548	0.79434	0.168
Mof_C 	C 	0.42	0.20623	0.78551	0.168
Mof_C 	C 	0.5148	0.16942	0.59808	0.172
Mof_C 	C 	0.47532	0.15822	0.33836	0.168
Mof_C 	C 	0.9134	0.4113	0.82674	-0.197
Mof_H 	H 	0.92	0.4229	0.8504	0.087
Mof_C 	C 	0.40277	0.20944	0.81797	-0.191
Mof_H 	H 	0.4329	0.197	0.8413	0.102
Mof_C 	C 	0.5775	0.18458	0.59555	-0.194
Mof_H 	H 	0.6262	0.1775	0.6137	0.086
Mof_C 	C 	0.54283	0.17651	0.35938	-0.19
Mof_H 	H 	0.5874	0.1699	0.3563	0.081
Mof_C 	C 	0.9711	0.39059	0.82504	0.091
Mof_H 	H 	0.0161	0.3871	0.8478	0.007
Mof_C 	C 	0.34277	0.23045	0.81661	0.096
Mof_H 	H 	0.3329	0.2327	0.8392	0.02
Mof_C 	C 	0.5711	0.21035	0.56671	0.086
Mof_H 	H 	0.615	0.2209	0.5657	0.01
Mof_C 	C 	0.54499	0.2045	0.38501	0.08
Mof_H 	H 	0.5912	0.2167	0.3995	0.003
Mof_C 	C 	0.96417	0.37483	0.79028	-0.153
Mof_C 	C 	0.29735	0.24807	0.78324	-0.155
Mof_C 	C 	0.5007	0.22015	0.53997	-0.149
Mof_C 	C 	0.48017	0.21462	0.38939	-0.153
Mof_C 	C 	0.8985	0.37928	0.75771	0.088
Mof_H 	H 	0.8935	0.369	0.7337	0.009
Mof_C 	C 	0.3121	0.24487	0.74998	0.081
Mof_H 	H 	0.2807	0.2569	0.7266	0.003
Mof_C 	C 	0.4363	0.20431	0.54125	0.086
Mof_H 	H 	0.3874	0.2104	0.5224	0.009
Mof_C 	C 	0.41243	0.19605	0.36905	0.091
Mof_H 	H 	0.3681	0.2027	0.3724	0.016
Mof_C 	C 	0.839	0.39899	0.76005	-0.191
Mof_H 	H 	0.793	0.4012	0.7376	0.082
Mof_C 	C 	0.37316	0.22397	0.7515	-0.192
Mof_H 	H 	0.3831	0.2218	0.7289	0.082
Mof_C 	C 	0.4453	0.17931	0.57082	-0.196
Mof_H 	H 	0.4016	0.1688	0.5721	0.086
Mof_C 	C 	0.41035	0.16789	0.34398	-0.193
Mof_H 	H 	0.3645	0.155	0.3305	0.103
Mof_C 	C 	0.0269	0.3514	0.7889	0.37
Mof_C 	C 	0.23355	0.27114	0.78268	0.361
Mof_C 	C 	0.4928	0.24854	0.51005	0.363
Mof_C 	C 	0.48107	0.24607	0.41528	0.373
Mof_O 	O 	0.08276	0.34548	0.82052	-0.413
Mof_O 	O 	0.23122	0.27709	0.81526	-0.415
Mof_O 	O 	0.5536	0.25978	0.50845	-0.408
Mof_O 	O 	0.41871	0.25493	0.4158	-0.418
Mof_O 	O 	0.01854	0.33921	0.75605	-0.412
Mof_O 	O 	0.18595	0.28286	0.75018	-0.413
Mof_O 	O 	0.42705	0.25968	0.48942	-0.411
Mof_O 	O 	0.54324	0.26145	0.43385	-0.424
_end
