data_functionalizedCrystal
_audit_creation_method	'EQeq! by Chris Wilmer'
_symmetry_space_group_name_H-M	'P1'
_symmetry_Int_Tables_number	1
_symmetry_cell_setting	triclinic
loop_
_symmetry_equiv_pos_as_xyz
  x,y,z
_cell_length_a	27.318
_cell_length_b	27.318
_cell_length_c	15.102
_cell_angle_alpha	90
_cell_angle_beta	90
_cell_angle_gamma	120
loop_
_atom_site_label
_atom_site_type_symbol
_atom_site_fract_x
_atom_site_fract_y
_atom_site_fract_z
_atom_site_charge
Mof_S 	S 	0.2878	0.2291	0.052	-0.294
Mof_O 	O 	0.3712	0.3185	0.1923	-0.392
Mof_O 	O 	0.3381	0.2794	0.3252	-0.48
Mof_C 	C 	0.3395	0.2181	0.1975	-0.131
Mof_C 	C 	0.3164	0.1972	0.1138	0.081
Mof_C 	C 	0.3578	0.1876	0.2451	-0.036
Mof_C 	C 	0.3443	0.2681	0.2347	0.322
Mof_H 	H 	0.3732	0.2031	0.3085	0.035
Mof_S 	S 	0.95447	0.56243	0.38533	-0.271
Mof_O 	O 	0.03787	0.65183	0.52563	-0.41
Mof_O 	O 	0.00477	0.61273	0.65853	-0.485
Mof_C 	C 	0.00617	0.55143	0.53083	-0.207
Mof_C 	C 	0.98307	0.53053	0.44713	0.153
Mof_C 	C 	0.02447	0.52093	0.57843	0.011
Mof_C 	C 	0.01097	0.60143	0.56803	0.332
Mof_H 	H 	0.03987	0.53643	0.64183	0.019
Mof_S 	S 	0.62113	0.89577	0.71867	-0.269
Mof_O 	O 	0.70453	0.98517	0.85897	-0.36
Mof_O 	O 	0.67143	0.94607	0.99187	-0.477
Mof_C 	C 	0.67283	0.88477	0.86417	-0.124
Mof_C 	C 	0.64973	0.86387	0.78047	0.078
Mof_C 	C 	0.69113	0.85427	0.91177	-0.036
Mof_C 	C 	0.67763	0.93477	0.90137	0.325
Mof_H 	H 	0.70653	0.86977	0.97517	0.04
Mof_S 	S 	0.7709	0.0587	0.052	-0.31
Mof_O 	O 	0.6815	0.0527	0.1923	-0.401
Mof_O 	O 	0.7206	0.0587	0.3252	-0.477
Mof_C 	C 	0.7819	0.1214	0.1975	-0.134
Mof_C 	C 	0.8028	0.1192	0.1138	0.086
Mof_C 	C 	0.8124	0.1702	0.2451	-0.034
Mof_C 	C 	0.7319	0.0762	0.2347	0.317
Mof_H 	H 	0.7969	0.1701	0.3085	0.035
Mof_S 	S 	0.43757	0.39203	0.38533	-0.287
Mof_O 	O 	0.34817	0.38603	0.52563	-0.393
Mof_O 	O 	0.38727	0.39203	0.65853	-0.48
Mof_C 	C 	0.44857	0.45473	0.53083	-0.13
Mof_C 	C 	0.46947	0.45253	0.44713	0.08
Mof_C 	C 	0.47907	0.50353	0.57843	-0.037
Mof_C 	C 	0.39857	0.40953	0.56803	0.322
Mof_H 	H 	0.46357	0.50343	0.64183	0.036
Mof_S 	S 	0.10423	0.72537	0.71867	-0.285
Mof_O 	O 	0.01483	0.71937	0.85897	-0.411
Mof_O 	O 	0.05393	0.72537	0.99187	-0.479
Mof_C 	C 	0.11523	0.78807	0.86417	-0.132
Mof_C 	C 	0.13613	0.78587	0.78047	0.08
Mof_C 	C 	0.14573	0.83687	0.91177	-0.034
Mof_C 	C 	0.06523	0.74287	0.90137	0.319
Mof_H 	H 	0.13023	0.83677	0.97517	0.034
Mof_S 	S 	0.9413	0.7122	0.052	-0.255
Mof_O 	O 	0.9473	0.6288	0.1923	-0.367
Mof_O 	O 	0.9413	0.6619	0.3252	-0.478
Mof_C 	C 	0.8786	0.6605	0.1975	-0.124
Mof_C 	C 	0.8808	0.6836	0.1138	0.074
Mof_C 	C 	0.8298	0.6422	0.2451	-0.039
Mof_C 	C 	0.9238	0.6557	0.2347	0.325
Mof_H 	H 	0.8299	0.6268	0.3085	0.037
Mof_S 	S 	0.60797	0.04553	0.38533	-0.275
Mof_O 	O 	0.61397	0.96213	0.52563	-0.373
Mof_O 	O 	0.60797	0.99523	0.65853	-0.436
Mof_C 	C 	0.54527	0.99383	0.53083	-0.047
Mof_C 	C 	0.54747	0.01693	0.44713	0.003
Mof_C 	C 	0.49647	0.97553	0.57843	-0.084
Mof_C 	C 	0.59047	0.98903	0.56803	0.301
Mof_H 	H 	0.49657	0.96013	0.64183	0.057
Mof_S 	S 	0.27463	0.37887	0.71867	-0.288
Mof_O 	O 	0.28063	0.29547	0.85897	-0.395
Mof_O 	O 	0.27463	0.32857	0.99187	-0.481
Mof_C 	C 	0.21193	0.32717	0.86417	-0.13
Mof_C 	C 	0.21413	0.35027	0.78047	0.078
Mof_C 	C 	0.16313	0.30887	0.91177	-0.042
Mof_C 	C 	0.25713	0.32237	0.90137	0.321
Mof_H 	H 	0.16323	0.29347	0.97517	0.035
Mof_S 	S 	0.2291	0.2878	0.448	-0.295
Mof_O 	O 	0.3185	0.3712	0.3077	-0.393
Mof_O 	O 	0.2794	0.3381	0.1748	-0.481
Mof_C 	C 	0.2181	0.3395	0.3025	-0.132
Mof_C 	C 	0.1972	0.3164	0.3862	0.08
Mof_C 	C 	0.1876	0.3578	0.2549	-0.037
Mof_C 	C 	0.2681	0.3443	0.2653	0.322
Mof_H 	H 	0.2031	0.3732	0.1915	0.035
Mof_S 	S 	0.89577	0.62113	0.78133	-0.27
Mof_O 	O 	0.98517	0.70453	0.64103	-0.361
Mof_O 	O 	0.94607	0.67143	0.50813	-0.478
Mof_C 	C 	0.88477	0.67283	0.63583	-0.124
Mof_C 	C 	0.86387	0.64973	0.71953	0.078
Mof_C 	C 	0.85427	0.69113	0.58823	-0.036
Mof_C 	C 	0.93477	0.67763	0.59863	0.325
Mof_H 	H 	0.86977	0.70653	0.52483	0.04
Mof_S 	S 	0.56243	0.95447	0.11467	-0.272
Mof_O 	O 	0.65183	0.03787	0.97437	-0.41
Mof_O 	O 	0.61273	0.00477	0.84147	-0.484
Mof_C 	C 	0.55143	0.00617	0.96917	-0.206
Mof_C 	C 	0.53053	0.98307	0.05287	0.152
Mof_C 	C 	0.52093	0.02447	0.92157	0.01
Mof_C 	C 	0.60143	0.01097	0.93197	0.331
Mof_H 	H 	0.53643	0.03987	0.85817	0.019
Mof_S 	S 	0.0587	0.7709	0.448	-0.313
Mof_O 	O 	0.0527	0.6815	0.3077	-0.402
Mof_O 	O 	0.0587	0.7206	0.1748	-0.477
Mof_C 	C 	0.1214	0.7819	0.3025	-0.134
Mof_C 	C 	0.1192	0.8028	0.3862	0.087
Mof_C 	C 	0.1702	0.8124	0.2549	-0.034
Mof_C 	C 	0.0762	0.7319	0.2653	0.317
Mof_H 	H 	0.1701	0.7969	0.1915	0.034
Mof_S 	S 	0.72537	0.10423	0.78133	-0.285
Mof_O 	O 	0.71937	0.01483	0.64103	-0.412
Mof_O 	O 	0.72537	0.05393	0.50813	-0.482
Mof_C 	C 	0.78807	0.11523	0.63583	-0.133
Mof_C 	C 	0.78587	0.13613	0.71953	0.08
Mof_C 	C 	0.83687	0.14573	0.58823	-0.034
Mof_C 	C 	0.74287	0.06523	0.59863	0.32
Mof_H 	H 	0.83677	0.13023	0.52483	0.033
Mof_S 	S 	0.39203	0.43757	0.11467	-0.288
Mof_O 	O 	0.38603	0.34817	0.97437	-0.393
Mof_O 	O 	0.39203	0.38727	0.84147	-0.48
Mof_C 	C 	0.45473	0.44857	0.96917	-0.13
Mof_C 	C 	0.45253	0.46947	0.05287	0.08
Mof_C 	C 	0.50353	0.47907	0.92157	-0.037
Mof_C 	C 	0.40953	0.39857	0.93197	0.322
Mof_H 	H 	0.50343	0.46357	0.85817	0.036
Mof_S 	S 	0.7122	0.9413	0.448	-0.256
Mof_O 	O 	0.6288	0.9473	0.3077	-0.368
Mof_O 	O 	0.6619	0.9413	0.1748	-0.478
Mof_C 	C 	0.6605	0.8786	0.3025	-0.124
Mof_C 	C 	0.6836	0.8808	0.3862	0.074
Mof_C 	C 	0.6422	0.8298	0.2549	-0.039
Mof_C 	C 	0.6557	0.9238	0.2653	0.325
Mof_H 	H 	0.6268	0.8299	0.1915	0.037
Mof_S 	S 	0.37887	0.27463	0.78133	-0.288
Mof_O 	O 	0.29547	0.28063	0.64103	-0.395
Mof_O 	O 	0.32857	0.27463	0.50813	-0.481
Mof_C 	C 	0.32717	0.21193	0.63583	-0.13
Mof_C 	C 	0.35027	0.21413	0.71953	0.078
Mof_C 	C 	0.30887	0.16313	0.58823	-0.042
Mof_C 	C 	0.32237	0.25713	0.59863	0.321
Mof_H 	H 	0.29347	0.16323	0.52483	0.035
Mof_S 	S 	0.04553	0.60797	0.11467	-0.275
Mof_O 	O 	0.96213	0.61397	0.97437	-0.374
Mof_O 	O 	0.99523	0.60797	0.84147	-0.438
Mof_C 	C 	0.99383	0.54527	0.96917	-0.049
Mof_C 	C 	0.01693	0.54747	0.05287	0.004
Mof_C 	C 	0.97553	0.49647	0.92157	-0.083
Mof_C 	C 	0.98903	0.59047	0.93197	0.301
Mof_H 	H 	0.96013	0.49657	0.85817	0.056
Mof_S 	S 	0.7122	0.7709	0.948	-0.281
Mof_O 	O 	0.6288	0.6815	0.8077	-0.394
Mof_O 	O 	0.6619	0.7206	0.6748	-0.479
Mof_C 	C 	0.6605	0.7819	0.8025	-0.13
Mof_C 	C 	0.6836	0.8028	0.8862	0.082
Mof_C 	C 	0.6422	0.8124	0.7549	-0.034
Mof_C 	C 	0.6557	0.7319	0.7653	0.323
Mof_H 	H 	0.6268	0.7969	0.6915	0.035
Mof_S 	S 	0.37887	0.10423	0.28133	-0.285
Mof_O 	O 	0.29547	0.01483	0.14103	-0.413
Mof_O 	O 	0.32857	0.05393	0.00813	-0.481
Mof_C 	C 	0.32717	0.11523	0.13583	-0.131
Mof_C 	C 	0.35027	0.13613	0.21953	0.077
Mof_C 	C 	0.30887	0.14573	0.08823	-0.04
Mof_C 	C 	0.32237	0.06523	0.09863	0.318
Mof_H 	H 	0.29347	0.13023	0.02483	0.032
Mof_S 	S 	0.04553	0.43757	0.61467	-0.274
Mof_O 	O 	0.96213	0.34817	0.47437	-0.372
Mof_O 	O 	0.99523	0.38727	0.34147	-0.436
Mof_C 	C 	0.99383	0.44857	0.46917	-0.047
Mof_C 	C 	0.01693	0.46947	0.55287	0.003
Mof_C 	C 	0.97553	0.47907	0.42157	-0.084
Mof_C 	C 	0.98903	0.39857	0.43197	0.301
Mof_H 	H 	0.96013	0.46357	0.35817	0.057
Mof_S 	S 	0.2291	0.9413	0.948	-0.259
Mof_O 	O 	0.3185	0.9473	0.8077	-0.367
Mof_O 	O 	0.2794	0.9413	0.6748	-0.479
Mof_C 	C 	0.2181	0.8786	0.8025	-0.125
Mof_C 	C 	0.1972	0.8808	0.8862	0.074
Mof_C 	C 	0.1876	0.8298	0.7549	-0.038
Mof_C 	C 	0.2681	0.9238	0.7653	0.324
Mof_H 	H 	0.2031	0.8299	0.6915	0.037
Mof_S 	S 	0.89577	0.27463	0.28133	-0.269
Mof_O 	O 	0.98517	0.28063	0.14103	-0.361
Mof_O 	O 	0.94607	0.27463	0.00813	-0.476
Mof_C 	C 	0.88477	0.21193	0.13583	-0.123
Mof_C 	C 	0.86387	0.21413	0.21953	0.076
Mof_C 	C 	0.85427	0.16313	0.08823	-0.041
Mof_C 	C 	0.93477	0.25713	0.09863	0.323
Mof_H 	H 	0.86977	0.16323	0.02483	0.04
Mof_S 	S 	0.56243	0.60797	0.61467	-0.288
Mof_O 	O 	0.65183	0.61397	0.47437	-0.394
Mof_O 	O 	0.61273	0.60797	0.34147	-0.48
Mof_C 	C 	0.55143	0.54527	0.46917	-0.13
Mof_C 	C 	0.53053	0.54747	0.55287	0.08
Mof_C 	C 	0.52093	0.49647	0.42157	-0.037
Mof_C 	C 	0.60143	0.59047	0.43197	0.322
Mof_H 	H 	0.53643	0.49657	0.35817	0.036
Mof_S 	S 	0.0587	0.2878	0.948	-0.318
Mof_O 	O 	0.0527	0.3712	0.8077	-0.401
Mof_O 	O 	0.0587	0.3381	0.6748	-0.478
Mof_C 	C 	0.1214	0.3395	0.8025	-0.134
Mof_C 	C 	0.1192	0.3164	0.8862	0.085
Mof_C 	C 	0.1702	0.3578	0.7549	-0.036
Mof_C 	C 	0.0762	0.3443	0.7653	0.316
Mof_H 	H 	0.1701	0.3732	0.6915	0.035
Mof_S 	S 	0.72537	0.62113	0.28133	-0.288
Mof_O 	O 	0.71937	0.70453	0.14103	-0.392
Mof_O 	O 	0.72537	0.67143	0.00813	-0.48
Mof_C 	C 	0.78807	0.67283	0.13583	-0.131
Mof_C 	C 	0.78587	0.64973	0.21953	0.083
Mof_C 	C 	0.83687	0.69113	0.08823	-0.031
Mof_C 	C 	0.74287	0.67763	0.09863	0.324
Mof_H 	H 	0.83677	0.70653	0.02483	0.037
Mof_S 	S 	0.39203	0.95447	0.61467	-0.271
Mof_O 	O 	0.38603	0.03787	0.47437	-0.409
Mof_O 	O 	0.39203	0.00477	0.34147	-0.484
Mof_C 	C 	0.45473	0.00617	0.46917	-0.206
Mof_C 	C 	0.45253	0.98307	0.55287	0.153
Mof_C 	C 	0.50353	0.02447	0.42157	0.011
Mof_C 	C 	0.40953	0.01097	0.43197	0.332
Mof_H 	H 	0.50343	0.03987	0.35817	0.019
Mof_S 	S 	0.7709	0.7122	0.552	-0.281
Mof_O 	O 	0.6815	0.6288	0.6923	-0.394
Mof_O 	O 	0.7206	0.6619	0.8252	-0.479
Mof_C 	C 	0.7819	0.6605	0.6975	-0.13
Mof_C 	C 	0.8028	0.6836	0.6138	0.082
Mof_C 	C 	0.8124	0.6422	0.7451	-0.035
Mof_C 	C 	0.7319	0.6557	0.7347	0.323
Mof_H 	H 	0.7969	0.6268	0.8085	0.035
Mof_S 	S 	0.43757	0.04553	0.88533	-0.275
Mof_O 	O 	0.34817	0.96213	0.02563	-0.373
Mof_O 	O 	0.38727	0.99523	0.15853	-0.438
Mof_C 	C 	0.44857	0.99383	0.03083	-0.049
Mof_C 	C 	0.46947	0.01693	0.94713	0.004
Mof_C 	C 	0.47907	0.97553	0.07843	-0.083
Mof_C 	C 	0.39857	0.98903	0.06803	0.301
Mof_H 	H 	0.46357	0.96013	0.14183	0.056
Mof_S 	S 	0.10423	0.37887	0.21867	-0.285
Mof_O 	O 	0.01483	0.29547	0.35897	-0.414
Mof_O 	O 	0.05393	0.32857	0.49187	-0.482
Mof_C 	C 	0.11523	0.32717	0.36417	-0.132
Mof_C 	C 	0.13613	0.35027	0.28047	0.077
Mof_C 	C 	0.14573	0.30887	0.41177	-0.04
Mof_C 	C 	0.06523	0.32237	0.40137	0.318
Mof_H 	H 	0.13023	0.29347	0.47517	0.032
Mof_S 	S 	0.9413	0.2291	0.552	-0.262
Mof_O 	O 	0.9473	0.3185	0.6923	-0.368
Mof_O 	O 	0.9413	0.2794	0.8252	-0.479
Mof_C 	C 	0.8786	0.2181	0.6975	-0.126
Mof_C 	C 	0.8808	0.1972	0.6138	0.074
Mof_C 	C 	0.8298	0.1876	0.7451	-0.038
Mof_C 	C 	0.9238	0.2681	0.7347	0.324
Mof_H 	H 	0.8299	0.2031	0.8085	0.036
Mof_S 	S 	0.60797	0.56243	0.88533	-0.288
Mof_O 	O 	0.61397	0.65183	0.02563	-0.394
Mof_O 	O 	0.60797	0.61273	0.15853	-0.48
Mof_C 	C 	0.54527	0.55143	0.03083	-0.131
Mof_C 	C 	0.54747	0.53053	0.94713	0.08
Mof_C 	C 	0.49647	0.52093	0.07843	-0.037
Mof_C 	C 	0.59047	0.60143	0.06803	0.322
Mof_H 	H 	0.49657	0.53643	0.14183	0.036
Mof_S 	S 	0.27463	0.89577	0.21867	-0.27
Mof_O 	O 	0.28063	0.98517	0.35897	-0.363
Mof_O 	O 	0.27463	0.94607	0.49187	-0.478
Mof_C 	C 	0.21193	0.88477	0.36417	-0.124
Mof_C 	C 	0.21413	0.86387	0.28047	0.076
Mof_C 	C 	0.16313	0.85427	0.41177	-0.042
Mof_C 	C 	0.25713	0.93477	0.40137	0.324
Mof_H 	H 	0.16323	0.86977	0.47517	0.039
Mof_S 	S 	0.2878	0.0587	0.552	-0.32
Mof_O 	O 	0.3712	0.0527	0.6923	-0.402
Mof_O 	O 	0.3381	0.0587	0.8252	-0.478
Mof_C 	C 	0.3395	0.1214	0.6975	-0.135
Mof_C 	C 	0.3164	0.1192	0.6138	0.085
Mof_C 	C 	0.3578	0.1702	0.7451	-0.036
Mof_C 	C 	0.3443	0.0762	0.7347	0.316
Mof_H 	H 	0.3732	0.1701	0.8085	0.035
Mof_S 	S 	0.95447	0.39203	0.88533	-0.272
Mof_O 	O 	0.03787	0.38603	0.02563	-0.409
Mof_O 	O 	0.00477	0.39203	0.15853	-0.484
Mof_C 	C 	0.00617	0.45473	0.03083	-0.205
Mof_C 	C 	0.98307	0.45253	0.94713	0.151
Mof_C 	C 	0.02447	0.50353	0.07843	0.01
Mof_C 	C 	0.01097	0.40953	0.06803	0.331
Mof_H 	H 	0.03987	0.50343	0.14183	0.019
Mof_S 	S 	0.62113	0.72537	0.21867	-0.288
Mof_O 	O 	0.70453	0.71937	0.35897	-0.392
Mof_O 	O 	0.67143	0.72537	0.49187	-0.48
Mof_C 	C 	0.67283	0.78807	0.36417	-0.131
Mof_C 	C 	0.64973	0.78587	0.28047	0.083
Mof_C 	C 	0.69113	0.83687	0.41177	-0.031
Mof_C 	C 	0.67763	0.74287	0.40137	0.324
Mof_H 	H 	0.70653	0.83677	0.47517	0.037
Mof_Mn	Mn	0.3125	0.33333	0.08333	1.067
Mof_Mn	Mn	0.66667	0.97917	0.08333	1.116
Mof_Mn	Mn	0.33333	0.3125	0.41667	1.067
Mof_Mn	Mn	0.02083	0.6875	0.08333	1.015
Mof_Mn	Mn	0.35417	0.35417	0.75	1.067
Mof_Mn	Mn	-5.07759e-17	0.64583	0.75	1.001
Mof_Mn	Mn	0.97917	0.66667	0.41667	1.12
Mof_Mn	Mn	0.64583	0	0.75	0.997
Mof_Mn	Mn	0.6875	0.02083	0.41667	1.019
Mof_Mn	Mn	0.6875	0.66667	0.91667	1.068
Mof_Mn	Mn	0.35417	0	0.25	1.001
Mof_Mn	Mn	0.02083	0.33333	0.58333	1.019
Mof_Mn	Mn	0.33333	0.02083	0.91667	1.017
Mof_Mn	Mn	-4.02211e-17	0.35417	0.25	0.997
Mof_Mn	Mn	0.97917	0.3125	0.91667	1.114
Mof_Mn	Mn	0.64583	0.64583	0.25	1.068
Mof_Mn	Mn	0.66667	0.6875	0.58333	1.068
Mof_Mn	Mn	0.3125	0.97917	0.58333	1.12
Mof_Mn	Mn	0.4027	0.4027	0.25	0.713
Mof_Mn	Mn	0.06937	0.73603	0.58333	0.695
Mof_Mn	Mn	0.73603	0.06937	0.91667	0.691
Mof_Mn	Mn	0.5973	0	0.25	0.66
Mof_Mn	Mn	0.26397	0.33333	0.58333	0.71
Mof_Mn	Mn	0.93063	0.66667	0.91667	0.733
Mof_Mn	Mn	-6.35169e-17	0.5973	0.25	0.657
Mof_Mn	Mn	0.66667	0.93063	0.58333	0.735
Mof_Mn	Mn	0.33333	0.26397	0.91667	0.71
Mof_Mn	Mn	0.5973	0.5973	0.75	0.713
Mof_Mn	Mn	0.26397	0.93063	0.08333	0.729
Mof_Mn	Mn	0.93063	0.26397	0.41667	0.733
Mof_Mn	Mn	0.4027	0	0.75	0.657
Mof_Mn	Mn	0.06937	0.33333	0.08333	0.691
Mof_Mn	Mn	0.73603	0.66667	0.41667	0.715
Mof_Mn	Mn	-2.74801e-17	0.4027	0.75	0.66
Mof_Mn	Mn	0.66667	0.73603	0.08333	0.715
Mof_Mn	Mn	0.33333	0.06937	0.41667	0.692
_end
