data_functionalizedCrystal
_audit_creation_method	'EQeq! by Chris Wilmer'
_symmetry_space_group_name_H-M	'P1'
_symmetry_Int_Tables_number	1
_symmetry_cell_setting	triclinic
loop_
_symmetry_equiv_pos_as_xyz
  x,y,z
_cell_length_a	25.997
_cell_length_b	25.997
_cell_length_c	26.7847
_cell_angle_alpha	90
_cell_angle_beta	90
_cell_angle_gamma	90
loop_
_atom_site_label
_atom_site_type_symbol
_atom_site_fract_x
_atom_site_fract_y
_atom_site_fract_z
_atom_site_charge
Mof_La	La	0.75106	0.74073	0.08273	2.262
Mof_O 	O 	0.7894	0.3078	0.1904	-0.329
Mof_O 	O 	0.718	0.1687	0.2027	-0.326
Mof_O 	O 	0.828	0.2034	0.1988	-0.337
Mof_O 	O 	0.6854	0.2762	0.2035	-0.335
Mof_O 	O 	0.8278	0.7792	0.0455	-0.344
Mof_O 	O 	0.7794	0.8065	0.1406	-0.344
Mof_O 	O 	0.6888	0.7127	0.0189	-0.333
Mof_O 	O 	0.7923	0.6719	0.0276	-0.312
Mof_O 	O 	0.326	0.2301	0.1283	-0.335
Mof_O 	O 	0.7209	0.8144	0.0356	-0.342
Mof_O 	O 	0.184	0.2968	0.1411	-0.33
Mof_O 	O 	0.7079	0.6612	0.1183	-0.321
Mof_N 	N 	0.7748	0.35669	0.18792	-0.068
Mof_C 	C 	0.73835	0.36752	0.15478	0.063
Mof_H 	H 	0.7214	0.3403	0.1377	0.029
Mof_C 	C 	0.72481	0.41777	0.14499	-0.116
Mof_H 	H 	0.6987	0.4248	0.1211	0.07
Mof_C 	C 	0.74838	0.4578	0.16915	0.049
Mof_C 	C 	0.7861	0.44488	0.2031	-0.113
Mof_H 	H 	0.8037	0.4714	0.2205	0.067
Mof_C 	C 	0.7989	0.39429	0.21233	0.057
Mof_H 	H 	0.8248	0.3863	0.2361	0.019
Mof_N 	N 	0.7252	0.1174	0.1989	-0.066
Mof_C 	C 	0.6934	0.08205	0.2173	0.053
Mof_H 	H 	0.6665	0.0919	0.2393	0.021
Mof_C 	C 	0.6996	0.031	0.2043	-0.109
Mof_H 	H 	0.6746	0.0066	0.2147	0.064
Mof_C 	C 	0.7413	0.0148	0.1768	0.043
Mof_C 	C 	0.7746	0.05275	0.1618	-0.11
Mof_H 	H 	0.8066	0.0434	0.1472	0.065
Mof_C 	C 	0.7628	0.10436	0.1673	0.055
Mof_H 	H 	0.7811	0.1299	0.1492	0.026
Mof_N 	N 	0.87551	0.21417	0.1893	-0.054
Mof_C 	C 	0.88693	0.2548	0.161	0.041
Mof_H 	H 	0.8603	0.2762	0.1482	0.035
Mof_C 	C 	0.93783	0.2656	0.1503	-0.101
Mof_H 	H 	0.9458	0.2903	0.1253	0.064
Mof_C 	C 	0.9773	0.2411	0.1751	0.039
Mof_C 	C 	0.96385	0.2	0.2047	-0.105
Mof_H 	H 	0.9898	0.1809	0.2214	0.063
Mof_C 	C 	0.91278	0.1863	0.2101	0.05
Mof_H 	H 	0.9041	0.1566	0.229	0.023
Mof_N 	N 	0.6354	0.2668	0.1885	-0.066
Mof_C 	C 	0.60156	0.3004	0.2068	0.062
Mof_H 	H 	0.6127	0.3281	0.2273	0.023
Mof_C 	C 	0.54993	0.2944	0.1956	-0.115
Mof_H 	H 	0.5254	0.3169	0.2103	0.066
Mof_C 	C 	0.5335	0.2566	0.1635	0.045
Mof_C 	C 	0.56997	0.2226	0.1473	-0.11
Mof_H 	H 	0.5595	0.1933	0.1287	0.066
Mof_C 	C 	0.6214	0.2298	0.1571	0.052
Mof_H 	H 	0.6466	0.2087	0.1416	0.028
Mof_N 	N 	0.87538	0.7715	0.0276	-0.058
Mof_C 	C 	0.88939	0.7322	0.9988	0.039
Mof_H 	H 	0.8651	0.7068	0.989	0.032
Mof_C 	C 	0.94026	0.7292	0.9833	-0.104
Mof_H 	H 	0.949	0.7076	0.956	0.065
Mof_C 	C 	0.9783	0.7569	0.0071	0.041
Mof_C 	C 	0.96187	0.7945	0.0398	-0.111
Mof_H 	H 	0.9864	0.817	0.0545	0.066
Mof_C 	C 	0.91044	0.8001	0.0513	0.058
Mof_H 	H 	0.9	0.8241	0.0761	0.024
Mof_N 	N 	0.76718	0.8567	0.1498	-0.064
Mof_C 	C 	0.8012	0.89079	0.1328	0.06
Mof_H 	H 	0.8315	0.8792	0.1163	0.022
Mof_C 	C 	0.7928	0.9429	0.139	-0.111
Mof_H 	H 	0.8155	0.9667	0.1235	0.065
Mof_C 	C 	0.7524	0.961	0.1672	0.041
Mof_C 	C 	0.7161	0.92443	0.1796	-0.105
Mof_H 	H 	0.6829	0.9351	0.1901	0.064
Mof_C 	C 	0.7272	0.8725	0.177	0.049
Mof_H 	H 	0.7065	0.8483	0.1945	0.029
Mof_N 	N 	0.6386	0.72487	0.0104	-0.066
Mof_C 	C 	0.62572	0.7663	0.9839	0.054
Mof_H 	H 	0.6515	0.7877	0.9698	0.031
Mof_C 	C 	0.57409	0.7777	0.9771	-0.11
Mof_H 	H 	0.5647	0.8051	0.9555	0.067
Mof_C 	C 	0.5362	0.7502	0.0009	0.046
Mof_C 	C 	0.55203	0.71	0.0304	-0.111
Mof_H 	H 	0.5276	0.6923	0.0505	0.066
Mof_C 	C 	0.60307	0.695	0.0315	0.058
Mof_H 	H 	0.6127	0.6636	0.047	0.02
Mof_N 	N 	0.7808	0.6213	0.0241	-0.071
Mof_C 	C 	0.7414	0.6077	0.9952	0.052
Mof_H 	H 	0.721	0.6334	0.9796	0.031
Mof_C 	C 	0.73	0.55635	0.9877	-0.106
Mof_H 	H 	0.6998	0.5472	0.9698	0.064
Mof_C 	C 	0.482	0.7619	0.9942	0.041
Mof_C 	C 	0.4655	0.8029	0.9659	-0.108
Mof_H 	H 	0.4899	0.8277	0.955	0.064
Mof_C 	C 	0.809	0.5856	0.0469	0.056
Mof_H 	H 	0.8331	0.5952	0.0719	0.018
Mof_N 	N 	0.3773	0.23504	0.1305	-0.061
Mof_C 	C 	0.39043	0.2767	0.1563	0.057
Mof_H 	H 	0.3651	0.3004	0.1673	0.024
Mof_C 	C 	0.44181	0.2846	0.1665	-0.111
Mof_H 	H 	0.4519	0.3159	0.182	0.064
Mof_C 	C 	0.479	0.2489	0.1551	0.042
Mof_C 	C 	0.4626	0.2068	0.129	-0.107
Mof_H 	H 	0.4873	0.1834	0.1159	0.063
Mof_C 	C 	0.4109	0.1973	0.1214	0.051
Mof_H 	H 	0.3994	0.1647	0.1098	0.023
Mof_N 	N 	0.73101	0.8644	0.0271	-0.058
Mof_C 	C 	0.7761	0.87764	0.0068	0.046
Mof_H 	H 	0.8018	0.8525	0.0004	0.032
Mof_C 	C 	0.7845	0.92878	0.9953	-0.105
Mof_H 	H 	0.8148	0.9381	0.9776	0.064
Mof_C 	C 	0.0332	0.7501	0.9911	0.042
Mof_C 	C 	0.0495	0.7038	0.972	-0.11
Mof_H 	H 	0.0249	0.6779	0.9645	0.064
Mof_C 	C 	0.6943	0.8989	0.0365	0.055
Mof_H 	H 	0.6619	0.8881	0.049	0.023
Mof_N 	N 	0.1333	0.2816	0.1487	-0.074
Mof_C 	C 	0.12208	0.2448	0.1817	0.057
Mof_H 	H 	0.1489	0.2274	0.1988	0.03
Mof_C 	C 	0.07148	0.2319	0.1908	-0.113
Mof_H 	H 	0.0639	0.2056	0.2143	0.068
Mof_C 	C 	0.0318	0.2564	0.1664	0.048
Mof_C 	C 	0.04527	0.295	0.1337	-0.114
Mof_H 	H 	0.0191	0.315	0.1182	0.066
Mof_C 	C 	0.0963	0.305	0.1229	0.061
Mof_H 	H 	0.105	0.3286	0.0971	0.017
Mof_N 	N 	0.71761	0.6148	0.1326	-0.056
Mof_C 	C 	0.7593	0.6031	0.1593	0.037
Mof_H 	H 	0.7847	0.6286	0.1657	0.031
Mof_C 	C 	0.7657	0.554	0.1776	-0.101
Mof_H 	H 	0.7902	0.5479	0.2032	0.063
Mof_C 	C 	0.737	0.5137	0.1596	0.038
Mof_C 	C 	0.6942	0.52743	0.1324	-0.107
Mof_H 	H 	0.671	0.5015	0.1218	0.064
Mof_C 	C 	0.6844	0.578	0.1202	0.052
Mof_H 	H 	0.6537	0.5866	0.1029	0.023
Mof_La	La	0.24894	0.25927	0.08273	2.263
Mof_O 	O 	0.2106	0.6922	0.1904	-0.328
Mof_O 	O 	0.282	0.8313	0.2027	-0.325
Mof_O 	O 	0.172	0.7966	0.1988	-0.336
Mof_O 	O 	0.3146	0.7238	0.2035	-0.334
Mof_O 	O 	0.1722	0.2208	0.0455	-0.343
Mof_O 	O 	0.2206	0.1935	0.1406	-0.343
Mof_O 	O 	0.3112	0.2873	0.0189	-0.332
Mof_O 	O 	0.2077	0.3281	0.0276	-0.312
Mof_O 	O 	0.674	0.7699	0.1283	-0.335
Mof_O 	O 	0.2791	0.1856	0.0356	-0.342
Mof_O 	O 	0.816	0.7032	0.1411	-0.33
Mof_O 	O 	0.2921	0.3388	0.1183	-0.321
Mof_N 	N 	0.2252	0.64331	0.18792	-0.068
Mof_C 	C 	0.26165	0.63248	0.15478	0.063
Mof_H 	H 	0.2786	0.6597	0.1377	0.029
Mof_C 	C 	0.27519	0.58223	0.14499	-0.116
Mof_H 	H 	0.3013	0.5752	0.1211	0.07
Mof_C 	C 	0.25162	0.5422	0.16915	0.049
Mof_C 	C 	0.2139	0.55512	0.2031	-0.113
Mof_H 	H 	0.1963	0.5286	0.2205	0.067
Mof_C 	C 	0.2011	0.60571	0.21233	0.057
Mof_H 	H 	0.1752	0.6137	0.2361	0.019
Mof_N 	N 	0.2748	0.8826	0.1989	-0.066
Mof_C 	C 	0.3066	0.91795	0.2173	0.053
Mof_H 	H 	0.3335	0.9081	0.2393	0.021
Mof_C 	C 	0.3004	0.969	0.2043	-0.109
Mof_H 	H 	0.3254	0.9934	0.2147	0.064
Mof_C 	C 	0.2587	0.9852	0.1768	0.043
Mof_C 	C 	0.2254	0.94725	0.1618	-0.11
Mof_H 	H 	0.1934	0.9566	0.1472	0.065
Mof_C 	C 	0.2372	0.89564	0.1673	0.055
Mof_H 	H 	0.2189	0.8701	0.1492	0.026
Mof_N 	N 	0.12449	0.78583	0.1893	-0.054
Mof_C 	C 	0.11307	0.7452	0.161	0.041
Mof_H 	H 	0.1397	0.7238	0.1482	0.035
Mof_C 	C 	0.06217	0.7344	0.1503	-0.101
Mof_H 	H 	0.0542	0.7097	0.1253	0.064
Mof_C 	C 	0.0227	0.7589	0.1751	0.039
Mof_C 	C 	0.03615	0.8	0.2047	-0.105
Mof_H 	H 	0.0102	0.8191	0.2214	0.063
Mof_C 	C 	0.08722	0.8137	0.2101	0.05
Mof_H 	H 	0.0959	0.8434	0.229	0.023
Mof_N 	N 	0.3646	0.7332	0.1885	-0.066
Mof_C 	C 	0.39844	0.6996	0.2068	0.062
Mof_H 	H 	0.3873	0.6719	0.2273	0.023
Mof_C 	C 	0.45007	0.7056	0.1956	-0.115
Mof_H 	H 	0.4746	0.6831	0.2103	0.066
Mof_C 	C 	0.4665	0.7434	0.1635	0.045
Mof_C 	C 	0.43003	0.7774	0.1473	-0.11
Mof_H 	H 	0.4405	0.8067	0.1287	0.066
Mof_C 	C 	0.3786	0.7702	0.1571	0.052
Mof_H 	H 	0.3534	0.7913	0.1416	0.028
Mof_N 	N 	0.12462	0.2285	0.0276	-0.058
Mof_C 	C 	0.11061	0.2678	0.9988	0.039
Mof_H 	H 	0.1349	0.2932	0.989	0.032
Mof_C 	C 	0.05974	0.2708	0.9833	-0.104
Mof_H 	H 	0.051	0.2924	0.956	0.065
Mof_C 	C 	0.0217	0.2431	0.0071	0.041
Mof_C 	C 	0.03813	0.2055	0.0398	-0.111
Mof_H 	H 	0.0136	0.183	0.0545	0.066
Mof_C 	C 	0.08956	0.1999	0.0513	0.058
Mof_H 	H 	0.1	0.1759	0.0761	0.024
Mof_N 	N 	0.23282	0.1433	0.1498	-0.064
Mof_C 	C 	0.1988	0.10921	0.1328	0.06
Mof_H 	H 	0.1685	0.1208	0.1163	0.022
Mof_C 	C 	0.2072	0.0571	0.139	-0.111
Mof_H 	H 	0.1845	0.0333	0.1235	0.065
Mof_C 	C 	0.2476	0.039	0.1672	0.041
Mof_C 	C 	0.2839	0.07557	0.1796	-0.105
Mof_H 	H 	0.3171	0.0649	0.1901	0.064
Mof_C 	C 	0.2728	0.1275	0.177	0.049
Mof_H 	H 	0.2935	0.1517	0.1945	0.029
Mof_N 	N 	0.3614	0.27513	0.0104	-0.066
Mof_C 	C 	0.37428	0.2337	0.9839	0.054
Mof_H 	H 	0.3485	0.2123	0.9698	0.031
Mof_C 	C 	0.42591	0.2223	0.9771	-0.11
Mof_H 	H 	0.4353	0.1949	0.9555	0.067
Mof_C 	C 	0.4638	0.2498	0.0009	0.046
Mof_C 	C 	0.44797	0.29	0.0304	-0.111
Mof_H 	H 	0.4724	0.3077	0.0505	0.066
Mof_C 	C 	0.39693	0.305	0.0315	0.058
Mof_H 	H 	0.3873	0.3364	0.047	0.02
Mof_N 	N 	0.2192	0.3787	0.0241	-0.071
Mof_C 	C 	0.2586	0.3923	0.9952	0.052
Mof_H 	H 	0.279	0.3666	0.9796	0.031
Mof_C 	C 	0.27	0.44365	0.9877	-0.106
Mof_H 	H 	0.3002	0.4528	0.9698	0.064
Mof_C 	C 	0.518	0.2381	0.9942	0.041
Mof_C 	C 	0.5345	0.1971	0.9659	-0.108
Mof_H 	H 	0.5101	0.1723	0.955	0.064
Mof_C 	C 	0.191	0.4144	0.0469	0.056
Mof_H 	H 	0.1669	0.4048	0.0719	0.018
Mof_N 	N 	0.6227	0.76496	0.1305	-0.061
Mof_C 	C 	0.60957	0.7233	0.1563	0.057
Mof_H 	H 	0.6349	0.6996	0.1673	0.024
Mof_C 	C 	0.55819	0.7154	0.1665	-0.111
Mof_H 	H 	0.5481	0.6841	0.182	0.064
Mof_C 	C 	0.521	0.7511	0.1551	0.042
Mof_C 	C 	0.5374	0.7932	0.129	-0.107
Mof_H 	H 	0.5127	0.8166	0.1159	0.063
Mof_C 	C 	0.5891	0.8027	0.1214	0.051
Mof_H 	H 	0.6006	0.8353	0.1098	0.023
Mof_N 	N 	0.26899	0.1356	0.0271	-0.058
Mof_C 	C 	0.2239	0.12236	0.0068	0.046
Mof_H 	H 	0.1982	0.1475	0.0004	0.032
Mof_C 	C 	0.2155	0.07122	0.9953	-0.105
Mof_H 	H 	0.1852	0.0619	0.9776	0.064
Mof_C 	C 	0.9668	0.2499	0.9911	0.042
Mof_C 	C 	0.9505	0.2962	0.972	-0.11
Mof_H 	H 	0.9751	0.3221	0.9645	0.064
Mof_C 	C 	0.3057	0.1011	0.0365	0.055
Mof_H 	H 	0.3381	0.1119	0.049	0.023
Mof_N 	N 	0.8667	0.7184	0.1487	-0.074
Mof_C 	C 	0.87792	0.7552	0.1817	0.057
Mof_H 	H 	0.8511	0.7726	0.1988	0.03
Mof_C 	C 	0.92852	0.7681	0.1908	-0.113
Mof_H 	H 	0.9361	0.7944	0.2143	0.068
Mof_C 	C 	0.9682	0.7436	0.1664	0.048
Mof_C 	C 	0.95473	0.705	0.1337	-0.114
Mof_H 	H 	0.9809	0.685	0.1182	0.066
Mof_C 	C 	0.9037	0.695	0.1229	0.061
Mof_H 	H 	0.895	0.6714	0.0971	0.017
Mof_N 	N 	0.28239	0.3852	0.1326	-0.056
Mof_C 	C 	0.2407	0.3969	0.1593	0.037
Mof_H 	H 	0.2153	0.3714	0.1657	0.031
Mof_C 	C 	0.2343	0.446	0.1776	-0.101
Mof_H 	H 	0.2098	0.4521	0.2032	0.063
Mof_C 	C 	0.263	0.4863	0.1596	0.038
Mof_C 	C 	0.3058	0.47257	0.1324	-0.107
Mof_H 	H 	0.329	0.4985	0.1218	0.064
Mof_C 	C 	0.3156	0.422	0.1202	0.052
Mof_H 	H 	0.3463	0.4134	0.1029	0.023
Mof_La	La	0.74073	0.24894	0.91727	2.263
Mof_O 	O 	0.3078	0.2106	0.8096	-0.328
Mof_O 	O 	0.1687	0.282	0.7973	-0.325
Mof_O 	O 	0.2034	0.172	0.8012	-0.336
Mof_O 	O 	0.2762	0.3146	0.7965	-0.334
Mof_O 	O 	0.7792	0.1722	0.9545	-0.343
Mof_O 	O 	0.8065	0.2206	0.8594	-0.343
Mof_O 	O 	0.7127	0.3112	0.9811	-0.332
Mof_O 	O 	0.6719	0.2077	0.9724	-0.312
Mof_O 	O 	0.2301	0.674	0.8717	-0.335
Mof_O 	O 	0.8144	0.2791	0.9644	-0.342
Mof_O 	O 	0.2968	0.816	0.8589	-0.33
Mof_O 	O 	0.6612	0.2921	0.8817	-0.321
Mof_N 	N 	0.35669	0.2252	0.81208	-0.068
Mof_C 	C 	0.36752	0.26165	0.84522	0.063
Mof_H 	H 	0.3403	0.2786	0.8623	0.029
Mof_C 	C 	0.41777	0.27519	0.85501	-0.116
Mof_H 	H 	0.4248	0.3013	0.8789	0.07
Mof_C 	C 	0.4578	0.25162	0.83085	0.049
Mof_C 	C 	0.44488	0.2139	0.7969	-0.113
Mof_H 	H 	0.4714	0.1963	0.7795	0.067
Mof_C 	C 	0.39429	0.2011	0.78767	0.057
Mof_H 	H 	0.3863	0.1752	0.7639	0.019
Mof_N 	N 	0.1174	0.2748	0.8011	-0.066
Mof_C 	C 	0.08205	0.3066	0.7827	0.053
Mof_H 	H 	0.0919	0.3335	0.7607	0.021
Mof_C 	C 	0.031	0.3004	0.7957	-0.109
Mof_H 	H 	0.0066	0.3254	0.7853	0.064
Mof_C 	C 	0.0148	0.2587	0.8232	0.043
Mof_C 	C 	0.05275	0.2254	0.8382	-0.11
Mof_H 	H 	0.0434	0.1934	0.8528	0.065
Mof_C 	C 	0.10436	0.2372	0.8327	0.055
Mof_H 	H 	0.1299	0.2189	0.8508	0.026
Mof_N 	N 	0.21417	0.12449	0.8107	-0.054
Mof_C 	C 	0.2548	0.11307	0.839	0.041
Mof_H 	H 	0.2762	0.1397	0.8518	0.035
Mof_C 	C 	0.2656	0.06217	0.8497	-0.101
Mof_H 	H 	0.2903	0.0542	0.8747	0.064
Mof_C 	C 	0.2411	0.0227	0.8249	0.039
Mof_C 	C 	0.2	0.03615	0.7953	-0.105
Mof_H 	H 	0.1809	0.0102	0.7786	0.063
Mof_C 	C 	0.1863	0.08722	0.7899	0.05
Mof_H 	H 	0.1566	0.0959	0.771	0.023
Mof_N 	N 	0.2668	0.3646	0.8115	-0.066
Mof_C 	C 	0.3004	0.39844	0.7932	0.062
Mof_H 	H 	0.3281	0.3873	0.7727	0.023
Mof_C 	C 	0.2944	0.45007	0.8044	-0.115
Mof_H 	H 	0.3169	0.4746	0.7897	0.066
Mof_C 	C 	0.2566	0.4665	0.8365	0.045
Mof_C 	C 	0.2226	0.43003	0.8527	-0.11
Mof_H 	H 	0.1933	0.4405	0.8713	0.066
Mof_C 	C 	0.2298	0.3786	0.8429	0.052
Mof_H 	H 	0.2087	0.3534	0.8584	0.028
Mof_N 	N 	0.7715	0.12462	0.9724	-0.058
Mof_C 	C 	0.7322	0.11061	0.0012	0.039
Mof_H 	H 	0.7068	0.1349	0.011	0.032
Mof_C 	C 	0.7292	0.05974	0.0167	-0.104
Mof_H 	H 	0.7076	0.051	0.044	0.065
Mof_C 	C 	0.7569	0.0217	0.9929	0.041
Mof_C 	C 	0.7945	0.03813	0.9602	-0.111
Mof_H 	H 	0.817	0.0136	0.9455	0.066
Mof_C 	C 	0.8001	0.08956	0.9487	0.058
Mof_H 	H 	0.8241	0.1	0.9239	0.024
Mof_N 	N 	0.8567	0.23282	0.8502	-0.064
Mof_C 	C 	0.89079	0.1988	0.8672	0.06
Mof_H 	H 	0.8792	0.1685	0.8837	0.022
Mof_C 	C 	0.9429	0.2072	0.861	-0.111
Mof_H 	H 	0.9667	0.1845	0.8765	0.065
Mof_C 	C 	0.961	0.2476	0.8328	0.041
Mof_C 	C 	0.92443	0.2839	0.8204	-0.105
Mof_H 	H 	0.9351	0.3171	0.8099	0.064
Mof_C 	C 	0.8725	0.2728	0.823	0.049
Mof_H 	H 	0.8483	0.2935	0.8055	0.029
Mof_N 	N 	0.72487	0.3614	0.9896	-0.066
Mof_C 	C 	0.7663	0.37428	0.0161	0.054
Mof_H 	H 	0.7877	0.3485	0.0302	0.031
Mof_C 	C 	0.7777	0.42591	0.0229	-0.11
Mof_H 	H 	0.8051	0.4353	0.0445	0.067
Mof_C 	C 	0.7502	0.4638	0.9991	0.046
Mof_C 	C 	0.71	0.44797	0.9696	-0.111
Mof_H 	H 	0.6923	0.4724	0.9495	0.066
Mof_C 	C 	0.695	0.39693	0.9685	0.058
Mof_H 	H 	0.6636	0.3873	0.953	0.02
Mof_N 	N 	0.6213	0.2192	0.9759	-0.071
Mof_C 	C 	0.6077	0.2586	0.0048	0.052
Mof_H 	H 	0.6334	0.279	0.0204	0.031
Mof_C 	C 	0.55635	0.27	0.0123	-0.106
Mof_H 	H 	0.5472	0.3002	0.0302	0.064
Mof_C 	C 	0.7619	0.518	0.0058	0.041
Mof_C 	C 	0.8029	0.5345	0.0341	-0.108
Mof_H 	H 	0.8277	0.5101	0.045	0.064
Mof_C 	C 	0.5856	0.191	0.9531	0.056
Mof_H 	H 	0.5952	0.1669	0.9281	0.018
Mof_N 	N 	0.23504	0.6227	0.8695	-0.061
Mof_C 	C 	0.2767	0.60957	0.8437	0.057
Mof_H 	H 	0.3004	0.6349	0.8327	0.024
Mof_C 	C 	0.2846	0.55819	0.8335	-0.111
Mof_H 	H 	0.3159	0.5481	0.818	0.064
Mof_C 	C 	0.2489	0.521	0.8449	0.042
Mof_C 	C 	0.2068	0.5374	0.871	-0.107
Mof_H 	H 	0.1834	0.5127	0.8841	0.063
Mof_C 	C 	0.1973	0.5891	0.8786	0.051
Mof_H 	H 	0.1647	0.6006	0.8902	0.023
Mof_N 	N 	0.8644	0.26899	0.9729	-0.058
Mof_C 	C 	0.87764	0.2239	0.9932	0.046
Mof_H 	H 	0.8525	0.1982	0.9996	0.032
Mof_C 	C 	0.92878	0.2155	0.0047	-0.105
Mof_H 	H 	0.9381	0.1852	0.0224	0.064
Mof_C 	C 	0.7501	0.9668	0.0089	0.042
Mof_C 	C 	0.7038	0.9505	0.028	-0.11
Mof_H 	H 	0.6779	0.9751	0.0355	0.064
Mof_C 	C 	0.8989	0.3057	0.9635	0.055
Mof_H 	H 	0.8881	0.3381	0.951	0.023
Mof_N 	N 	0.2816	0.8667	0.8513	-0.074
Mof_C 	C 	0.2448	0.87792	0.8183	0.057
Mof_H 	H 	0.2274	0.8511	0.8012	0.03
Mof_C 	C 	0.2319	0.92852	0.8092	-0.113
Mof_H 	H 	0.2056	0.9361	0.7857	0.068
Mof_C 	C 	0.2564	0.9682	0.8336	0.048
Mof_C 	C 	0.295	0.95473	0.8663	-0.114
Mof_H 	H 	0.315	0.9809	0.8818	0.066
Mof_C 	C 	0.305	0.9037	0.8771	0.061
Mof_H 	H 	0.3286	0.895	0.9029	0.017
Mof_N 	N 	0.6148	0.28239	0.8674	-0.056
Mof_C 	C 	0.6031	0.2407	0.8407	0.037
Mof_H 	H 	0.6286	0.2153	0.8343	0.031
Mof_C 	C 	0.554	0.2343	0.8224	-0.101
Mof_H 	H 	0.5479	0.2098	0.7968	0.063
Mof_C 	C 	0.5137	0.263	0.8404	0.038
Mof_C 	C 	0.52743	0.3058	0.8676	-0.107
Mof_H 	H 	0.5015	0.329	0.8782	0.064
Mof_C 	C 	0.578	0.3156	0.8798	0.052
Mof_H 	H 	0.5866	0.3463	0.8971	0.023
Mof_La	La	0.25927	0.75106	0.91727	2.263
Mof_O 	O 	0.6922	0.7894	0.8096	-0.328
Mof_O 	O 	0.8313	0.718	0.7973	-0.325
Mof_O 	O 	0.7966	0.828	0.8012	-0.336
Mof_O 	O 	0.7238	0.6854	0.7965	-0.334
Mof_O 	O 	0.2208	0.8278	0.9545	-0.343
Mof_O 	O 	0.1935	0.7794	0.8594	-0.343
Mof_O 	O 	0.2873	0.6888	0.9811	-0.332
Mof_O 	O 	0.3281	0.7923	0.9724	-0.312
Mof_O 	O 	0.7699	0.326	0.8717	-0.335
Mof_O 	O 	0.1856	0.7209	0.9644	-0.342
Mof_O 	O 	0.7032	0.184	0.8589	-0.33
Mof_O 	O 	0.3388	0.7079	0.8817	-0.321
Mof_N 	N 	0.64331	0.7748	0.81208	-0.068
Mof_C 	C 	0.63248	0.73835	0.84522	0.063
Mof_H 	H 	0.6597	0.7214	0.8623	0.029
Mof_C 	C 	0.58223	0.72481	0.85501	-0.116
Mof_H 	H 	0.5752	0.6987	0.8789	0.07
Mof_C 	C 	0.5422	0.74838	0.83085	0.049
Mof_C 	C 	0.55512	0.7861	0.7969	-0.113
Mof_H 	H 	0.5286	0.8037	0.7795	0.067
Mof_C 	C 	0.60571	0.7989	0.78767	0.057
Mof_H 	H 	0.6137	0.8248	0.7639	0.019
Mof_N 	N 	0.8826	0.7252	0.8011	-0.066
Mof_C 	C 	0.91795	0.6934	0.7827	0.053
Mof_H 	H 	0.9081	0.6665	0.7607	0.021
Mof_C 	C 	0.969	0.6996	0.7957	-0.109
Mof_H 	H 	0.9934	0.6746	0.7853	0.064
Mof_C 	C 	0.9852	0.7413	0.8232	0.043
Mof_C 	C 	0.94725	0.7746	0.8382	-0.11
Mof_H 	H 	0.9566	0.8066	0.8528	0.065
Mof_C 	C 	0.89564	0.7628	0.8327	0.055
Mof_H 	H 	0.8701	0.7811	0.8508	0.026
Mof_N 	N 	0.78583	0.87551	0.8107	-0.054
Mof_C 	C 	0.7452	0.88693	0.839	0.041
Mof_H 	H 	0.7238	0.8603	0.8518	0.035
Mof_C 	C 	0.7344	0.93783	0.8497	-0.101
Mof_H 	H 	0.7097	0.9458	0.8747	0.064
Mof_C 	C 	0.7589	0.9773	0.8249	0.039
Mof_C 	C 	0.8	0.96385	0.7953	-0.105
Mof_H 	H 	0.8191	0.9898	0.7786	0.063
Mof_C 	C 	0.8137	0.91278	0.7899	0.05
Mof_H 	H 	0.8434	0.9041	0.771	0.023
Mof_N 	N 	0.7332	0.6354	0.8115	-0.066
Mof_C 	C 	0.6996	0.60156	0.7932	0.062
Mof_H 	H 	0.6719	0.6127	0.7727	0.023
Mof_C 	C 	0.7056	0.54993	0.8044	-0.115
Mof_H 	H 	0.6831	0.5254	0.7897	0.066
Mof_C 	C 	0.7434	0.5335	0.8365	0.045
Mof_C 	C 	0.7774	0.56997	0.8527	-0.11
Mof_H 	H 	0.8067	0.5595	0.8713	0.066
Mof_C 	C 	0.7702	0.6214	0.8429	0.052
Mof_H 	H 	0.7913	0.6466	0.8584	0.028
Mof_N 	N 	0.2285	0.87538	0.9724	-0.058
Mof_C 	C 	0.2678	0.88939	0.0012	0.039
Mof_H 	H 	0.2932	0.8651	0.011	0.032
Mof_C 	C 	0.2708	0.94026	0.0167	-0.104
Mof_H 	H 	0.2924	0.949	0.044	0.065
Mof_C 	C 	0.2431	0.9783	0.9929	0.041
Mof_C 	C 	0.2055	0.96187	0.9602	-0.111
Mof_H 	H 	0.183	0.9864	0.9455	0.066
Mof_C 	C 	0.1999	0.91044	0.9487	0.058
Mof_H 	H 	0.1759	0.9	0.9239	0.024
Mof_N 	N 	0.1433	0.76718	0.8502	-0.064
Mof_C 	C 	0.10921	0.8012	0.8672	0.06
Mof_H 	H 	0.1208	0.8315	0.8837	0.022
Mof_C 	C 	0.0571	0.7928	0.861	-0.111
Mof_H 	H 	0.0333	0.8155	0.8765	0.065
Mof_C 	C 	0.039	0.7524	0.8328	0.041
Mof_C 	C 	0.07557	0.7161	0.8204	-0.105
Mof_H 	H 	0.0649	0.6829	0.8099	0.064
Mof_C 	C 	0.1275	0.7272	0.823	0.049
Mof_H 	H 	0.1517	0.7065	0.8055	0.029
Mof_N 	N 	0.27513	0.6386	0.9896	-0.066
Mof_C 	C 	0.2337	0.62572	0.0161	0.054
Mof_H 	H 	0.2123	0.6515	0.0302	0.031
Mof_C 	C 	0.2223	0.57409	0.0229	-0.11
Mof_H 	H 	0.1949	0.5647	0.0445	0.067
Mof_C 	C 	0.2498	0.5362	0.9991	0.046
Mof_C 	C 	0.29	0.55203	0.9696	-0.111
Mof_H 	H 	0.3077	0.5276	0.9495	0.066
Mof_C 	C 	0.305	0.60307	0.9685	0.058
Mof_H 	H 	0.3364	0.6127	0.953	0.02
Mof_N 	N 	0.3787	0.7808	0.9759	-0.071
Mof_C 	C 	0.3923	0.7414	0.0048	0.052
Mof_H 	H 	0.3666	0.721	0.0204	0.031
Mof_C 	C 	0.44365	0.73	0.0123	-0.106
Mof_H 	H 	0.4528	0.6998	0.0302	0.064
Mof_C 	C 	0.2381	0.482	0.0058	0.041
Mof_C 	C 	0.1971	0.4655	0.0341	-0.108
Mof_H 	H 	0.1723	0.4899	0.045	0.064
Mof_C 	C 	0.4144	0.809	0.9531	0.056
Mof_H 	H 	0.4048	0.8331	0.9281	0.018
Mof_N 	N 	0.76496	0.3773	0.8695	-0.061
Mof_C 	C 	0.7233	0.39043	0.8437	0.057
Mof_H 	H 	0.6996	0.3651	0.8327	0.024
Mof_C 	C 	0.7154	0.44181	0.8335	-0.111
Mof_H 	H 	0.6841	0.4519	0.818	0.064
Mof_C 	C 	0.7511	0.479	0.8449	0.042
Mof_C 	C 	0.7932	0.4626	0.871	-0.107
Mof_H 	H 	0.8166	0.4873	0.8841	0.063
Mof_C 	C 	0.8027	0.4109	0.8786	0.051
Mof_H 	H 	0.8353	0.3994	0.8902	0.023
Mof_N 	N 	0.1356	0.73101	0.9729	-0.058
Mof_C 	C 	0.12236	0.7761	0.9932	0.046
Mof_H 	H 	0.1475	0.8018	0.9996	0.032
Mof_C 	C 	0.07122	0.7845	0.0047	-0.105
Mof_H 	H 	0.0619	0.8148	0.0224	0.064
Mof_C 	C 	0.2499	0.0332	0.0089	0.042
Mof_C 	C 	0.2962	0.0495	0.028	-0.11
Mof_H 	H 	0.3221	0.0249	0.0355	0.064
Mof_C 	C 	0.1011	0.6943	0.9635	0.055
Mof_H 	H 	0.1119	0.6619	0.951	0.023
Mof_N 	N 	0.7184	0.1333	0.8513	-0.074
Mof_C 	C 	0.7552	0.12208	0.8183	0.057
Mof_H 	H 	0.7726	0.1489	0.8012	0.03
Mof_C 	C 	0.7681	0.07148	0.8092	-0.113
Mof_H 	H 	0.7944	0.0639	0.7857	0.068
Mof_C 	C 	0.7436	0.0318	0.8336	0.048
Mof_C 	C 	0.705	0.04527	0.8663	-0.114
Mof_H 	H 	0.685	0.0191	0.8818	0.066
Mof_C 	C 	0.695	0.0963	0.8771	0.061
Mof_H 	H 	0.6714	0.105	0.9029	0.017
Mof_N 	N 	0.3852	0.71761	0.8674	-0.056
Mof_C 	C 	0.3969	0.7593	0.8407	0.037
Mof_H 	H 	0.3714	0.7847	0.8343	0.031
Mof_C 	C 	0.446	0.7657	0.8224	-0.101
Mof_H 	H 	0.4521	0.7902	0.7968	0.063
Mof_C 	C 	0.4863	0.737	0.8404	0.038
Mof_C 	C 	0.47257	0.6942	0.8676	-0.107
Mof_H 	H 	0.4985	0.671	0.8782	0.064
Mof_C 	C 	0.422	0.6844	0.8798	0.052
Mof_H 	H 	0.4134	0.6537	0.8971	0.023
Mof_La	La	0.75106	0.25927	0.58273	2.263
Mof_O 	O 	0.7894	0.6922	0.6904	-0.328
Mof_O 	O 	0.718	0.8313	0.7027	-0.325
Mof_O 	O 	0.828	0.7966	0.6988	-0.336
Mof_O 	O 	0.6854	0.7238	0.7035	-0.334
Mof_O 	O 	0.8278	0.2208	0.5455	-0.343
Mof_O 	O 	0.7794	0.1935	0.6406	-0.343
Mof_O 	O 	0.6888	0.2873	0.5189	-0.332
Mof_O 	O 	0.7923	0.3281	0.5276	-0.312
Mof_O 	O 	0.326	0.7699	0.6283	-0.335
Mof_O 	O 	0.7209	0.1856	0.5356	-0.342
Mof_O 	O 	0.184	0.7032	0.6411	-0.33
Mof_O 	O 	0.7079	0.3388	0.6183	-0.321
Mof_N 	N 	0.7748	0.64331	0.68792	-0.068
Mof_C 	C 	0.73835	0.63248	0.65478	0.063
Mof_H 	H 	0.7214	0.6597	0.6377	0.029
Mof_C 	C 	0.72481	0.58223	0.64499	-0.116
Mof_H 	H 	0.6987	0.5752	0.6211	0.07
Mof_C 	C 	0.74838	0.5422	0.66915	0.049
Mof_C 	C 	0.7861	0.55512	0.7031	-0.113
Mof_H 	H 	0.8037	0.5286	0.7205	0.067
Mof_C 	C 	0.7989	0.60571	0.71233	0.057
Mof_H 	H 	0.8248	0.6137	0.7361	0.019
Mof_N 	N 	0.7252	0.8826	0.6989	-0.066
Mof_C 	C 	0.6934	0.91795	0.7173	0.053
Mof_H 	H 	0.6665	0.9081	0.7393	0.021
Mof_C 	C 	0.6996	0.969	0.7043	-0.109
Mof_H 	H 	0.6746	0.9934	0.7147	0.064
Mof_C 	C 	0.7413	0.9852	0.6768	0.043
Mof_C 	C 	0.7746	0.94725	0.6618	-0.11
Mof_H 	H 	0.8066	0.9566	0.6472	0.065
Mof_C 	C 	0.7628	0.89564	0.6673	0.055
Mof_H 	H 	0.7811	0.8701	0.6492	0.026
Mof_N 	N 	0.87551	0.78583	0.6893	-0.054
Mof_C 	C 	0.88693	0.7452	0.661	0.041
Mof_H 	H 	0.8603	0.7238	0.6482	0.035
Mof_C 	C 	0.93783	0.7344	0.6503	-0.101
Mof_H 	H 	0.9458	0.7097	0.6253	0.064
Mof_C 	C 	0.9773	0.7589	0.6751	0.039
Mof_C 	C 	0.96385	0.8	0.7047	-0.105
Mof_H 	H 	0.9898	0.8191	0.7214	0.063
Mof_C 	C 	0.91278	0.8137	0.7101	0.05
Mof_H 	H 	0.9041	0.8434	0.729	0.023
Mof_N 	N 	0.6354	0.7332	0.6885	-0.066
Mof_C 	C 	0.60156	0.6996	0.7068	0.062
Mof_H 	H 	0.6127	0.6719	0.7273	0.023
Mof_C 	C 	0.54993	0.7056	0.6956	-0.115
Mof_H 	H 	0.5254	0.6831	0.7103	0.066
Mof_C 	C 	0.5335	0.7434	0.6635	0.045
Mof_C 	C 	0.56997	0.7774	0.6473	-0.11
Mof_H 	H 	0.5595	0.8067	0.6287	0.066
Mof_C 	C 	0.6214	0.7702	0.6571	0.052
Mof_H 	H 	0.6466	0.7913	0.6416	0.028
Mof_N 	N 	0.87538	0.2285	0.5276	-0.058
Mof_C 	C 	0.88939	0.2678	0.4988	0.039
Mof_H 	H 	0.8651	0.2932	0.489	0.032
Mof_C 	C 	0.94026	0.2708	0.4833	-0.104
Mof_H 	H 	0.949	0.2924	0.456	0.065
Mof_C 	C 	0.9783	0.2431	0.5071	0.041
Mof_C 	C 	0.96187	0.2055	0.5398	-0.111
Mof_H 	H 	0.9864	0.183	0.5545	0.066
Mof_C 	C 	0.91044	0.1999	0.5513	0.058
Mof_H 	H 	0.9	0.1759	0.5761	0.024
Mof_N 	N 	0.76718	0.1433	0.6498	-0.064
Mof_C 	C 	0.8012	0.10921	0.6328	0.06
Mof_H 	H 	0.8315	0.1208	0.6163	0.022
Mof_C 	C 	0.7928	0.0571	0.639	-0.111
Mof_H 	H 	0.8155	0.0333	0.6235	0.065
Mof_C 	C 	0.7524	0.039	0.6672	0.041
Mof_C 	C 	0.7161	0.07557	0.6796	-0.105
Mof_H 	H 	0.6829	0.0649	0.6901	0.064
Mof_C 	C 	0.7272	0.1275	0.677	0.049
Mof_H 	H 	0.7065	0.1517	0.6945	0.029
Mof_N 	N 	0.6386	0.27513	0.5104	-0.066
Mof_C 	C 	0.62572	0.2337	0.4839	0.054
Mof_H 	H 	0.6515	0.2123	0.4698	0.031
Mof_C 	C 	0.57409	0.2223	0.4771	-0.11
Mof_H 	H 	0.5647	0.1949	0.4555	0.067
Mof_C 	C 	0.5362	0.2498	0.5009	0.046
Mof_C 	C 	0.55203	0.29	0.5304	-0.111
Mof_H 	H 	0.5276	0.3077	0.5505	0.066
Mof_C 	C 	0.60307	0.305	0.5315	0.058
Mof_H 	H 	0.6127	0.3364	0.547	0.02
Mof_N 	N 	0.7808	0.3787	0.5241	-0.071
Mof_C 	C 	0.7414	0.3923	0.4952	0.052
Mof_H 	H 	0.721	0.3666	0.4796	0.031
Mof_C 	C 	0.73	0.44365	0.4877	-0.106
Mof_H 	H 	0.6998	0.4528	0.4698	0.064
Mof_C 	C 	0.482	0.2381	0.4942	0.041
Mof_C 	C 	0.4655	0.1971	0.4659	-0.108
Mof_H 	H 	0.4899	0.1723	0.455	0.064
Mof_C 	C 	0.809	0.4144	0.5469	0.056
Mof_H 	H 	0.8331	0.4048	0.5719	0.018
Mof_N 	N 	0.3773	0.76496	0.6305	-0.061
Mof_C 	C 	0.39043	0.7233	0.6563	0.057
Mof_H 	H 	0.3651	0.6996	0.6673	0.024
Mof_C 	C 	0.44181	0.7154	0.6665	-0.111
Mof_H 	H 	0.4519	0.6841	0.682	0.064
Mof_C 	C 	0.479	0.7511	0.6551	0.042
Mof_C 	C 	0.4626	0.7932	0.629	-0.107
Mof_H 	H 	0.4873	0.8166	0.6159	0.063
Mof_C 	C 	0.4109	0.8027	0.6214	0.051
Mof_H 	H 	0.3994	0.8353	0.6098	0.023
Mof_N 	N 	0.73101	0.1356	0.5271	-0.058
Mof_C 	C 	0.7761	0.12236	0.5068	0.046
Mof_H 	H 	0.8018	0.1475	0.5004	0.032
Mof_C 	C 	0.7845	0.07122	0.4953	-0.105
Mof_H 	H 	0.8148	0.0619	0.4776	0.064
Mof_C 	C 	0.0332	0.2499	0.4911	0.042
Mof_C 	C 	0.0495	0.2962	0.472	-0.11
Mof_H 	H 	0.0249	0.3221	0.4645	0.065
Mof_C 	C 	0.6943	0.1011	0.5365	0.055
Mof_H 	H 	0.6619	0.1119	0.549	0.023
Mof_N 	N 	0.1333	0.7184	0.6487	-0.074
Mof_C 	C 	0.12208	0.7552	0.6817	0.057
Mof_H 	H 	0.1489	0.7726	0.6988	0.03
Mof_C 	C 	0.07148	0.7681	0.6908	-0.113
Mof_H 	H 	0.0639	0.7944	0.7143	0.068
Mof_C 	C 	0.0318	0.7436	0.6664	0.048
Mof_C 	C 	0.04527	0.705	0.6337	-0.114
Mof_H 	H 	0.0191	0.685	0.6182	0.066
Mof_C 	C 	0.0963	0.695	0.6229	0.061
Mof_H 	H 	0.105	0.6714	0.5971	0.017
Mof_N 	N 	0.71761	0.3852	0.6326	-0.056
Mof_C 	C 	0.7593	0.3969	0.6593	0.037
Mof_H 	H 	0.7847	0.3714	0.6657	0.031
Mof_C 	C 	0.7657	0.446	0.6776	-0.101
Mof_H 	H 	0.7902	0.4521	0.7032	0.063
Mof_C 	C 	0.737	0.4863	0.6596	0.038
Mof_C 	C 	0.6942	0.47257	0.6324	-0.107
Mof_H 	H 	0.671	0.4985	0.6218	0.064
Mof_C 	C 	0.6844	0.422	0.6202	0.052
Mof_H 	H 	0.6537	0.4134	0.6029	0.023
Mof_La	La	0.24894	0.74073	0.58273	2.263
Mof_O 	O 	0.2106	0.3078	0.6904	-0.328
Mof_O 	O 	0.282	0.1687	0.7027	-0.325
Mof_O 	O 	0.172	0.2034	0.6988	-0.336
Mof_O 	O 	0.3146	0.2762	0.7035	-0.334
Mof_O 	O 	0.1722	0.7792	0.5455	-0.343
Mof_O 	O 	0.2206	0.8065	0.6406	-0.343
Mof_O 	O 	0.3112	0.7127	0.5189	-0.332
Mof_O 	O 	0.2077	0.6719	0.5276	-0.312
Mof_O 	O 	0.674	0.2301	0.6283	-0.335
Mof_O 	O 	0.2791	0.8144	0.5356	-0.342
Mof_O 	O 	0.816	0.2968	0.6411	-0.33
Mof_O 	O 	0.2921	0.6612	0.6183	-0.321
Mof_N 	N 	0.2252	0.35669	0.68792	-0.068
Mof_C 	C 	0.26165	0.36752	0.65478	0.063
Mof_H 	H 	0.2786	0.3403	0.6377	0.029
Mof_C 	C 	0.27519	0.41777	0.64499	-0.116
Mof_H 	H 	0.3013	0.4248	0.6211	0.07
Mof_C 	C 	0.25162	0.4578	0.66915	0.049
Mof_C 	C 	0.2139	0.44488	0.7031	-0.113
Mof_H 	H 	0.1963	0.4714	0.7205	0.067
Mof_C 	C 	0.2011	0.39429	0.71233	0.057
Mof_H 	H 	0.1752	0.3863	0.7361	0.019
Mof_N 	N 	0.2748	0.1174	0.6989	-0.066
Mof_C 	C 	0.3066	0.08205	0.7173	0.053
Mof_H 	H 	0.3335	0.0919	0.7393	0.021
Mof_C 	C 	0.3004	0.031	0.7043	-0.109
Mof_H 	H 	0.3254	0.0066	0.7147	0.064
Mof_C 	C 	0.2587	0.0148	0.6768	0.043
Mof_C 	C 	0.2254	0.05275	0.6618	-0.11
Mof_H 	H 	0.1934	0.0434	0.6472	0.065
Mof_C 	C 	0.2372	0.10436	0.6673	0.055
Mof_H 	H 	0.2189	0.1299	0.6492	0.026
Mof_N 	N 	0.12449	0.21417	0.6893	-0.054
Mof_C 	C 	0.11307	0.2548	0.661	0.041
Mof_H 	H 	0.1397	0.2762	0.6482	0.035
Mof_C 	C 	0.06217	0.2656	0.6503	-0.101
Mof_H 	H 	0.0542	0.2903	0.6253	0.064
Mof_C 	C 	0.0227	0.2411	0.6751	0.039
Mof_C 	C 	0.03615	0.2	0.7047	-0.105
Mof_H 	H 	0.0102	0.1809	0.7214	0.063
Mof_C 	C 	0.08722	0.1863	0.7101	0.05
Mof_H 	H 	0.0959	0.1566	0.729	0.023
Mof_N 	N 	0.3646	0.2668	0.6885	-0.066
Mof_C 	C 	0.39844	0.3004	0.7068	0.062
Mof_H 	H 	0.3873	0.3281	0.7273	0.023
Mof_C 	C 	0.45007	0.2944	0.6956	-0.115
Mof_H 	H 	0.4746	0.3169	0.7103	0.066
Mof_C 	C 	0.4665	0.2566	0.6635	0.045
Mof_C 	C 	0.43003	0.2226	0.6473	-0.11
Mof_H 	H 	0.4405	0.1933	0.6287	0.066
Mof_C 	C 	0.3786	0.2298	0.6571	0.052
Mof_H 	H 	0.3534	0.2087	0.6416	0.028
Mof_N 	N 	0.12462	0.7715	0.5276	-0.058
Mof_C 	C 	0.11061	0.7322	0.4988	0.039
Mof_H 	H 	0.1349	0.7068	0.489	0.032
Mof_C 	C 	0.05974	0.7292	0.4833	-0.104
Mof_H 	H 	0.051	0.7076	0.456	0.065
Mof_C 	C 	0.0217	0.7569	0.5071	0.041
Mof_C 	C 	0.03813	0.7945	0.5398	-0.111
Mof_H 	H 	0.0136	0.817	0.5545	0.066
Mof_C 	C 	0.08956	0.8001	0.5513	0.058
Mof_H 	H 	0.1	0.8241	0.5761	0.024
Mof_N 	N 	0.23282	0.8567	0.6498	-0.064
Mof_C 	C 	0.1988	0.89079	0.6328	0.06
Mof_H 	H 	0.1685	0.8792	0.6163	0.022
Mof_C 	C 	0.2072	0.9429	0.639	-0.111
Mof_H 	H 	0.1845	0.9667	0.6235	0.065
Mof_C 	C 	0.2476	0.961	0.6672	0.041
Mof_C 	C 	0.2839	0.92443	0.6796	-0.105
Mof_H 	H 	0.3171	0.9351	0.6901	0.064
Mof_C 	C 	0.2728	0.8725	0.677	0.049
Mof_H 	H 	0.2935	0.8483	0.6945	0.029
Mof_N 	N 	0.3614	0.72487	0.5104	-0.066
Mof_C 	C 	0.37428	0.7663	0.4839	0.054
Mof_H 	H 	0.3485	0.7877	0.4698	0.031
Mof_C 	C 	0.42591	0.7777	0.4771	-0.11
Mof_H 	H 	0.4353	0.8051	0.4555	0.067
Mof_C 	C 	0.4638	0.7502	0.5009	0.046
Mof_C 	C 	0.44797	0.71	0.5304	-0.111
Mof_H 	H 	0.4724	0.6923	0.5505	0.066
Mof_C 	C 	0.39693	0.695	0.5315	0.058
Mof_H 	H 	0.3873	0.6636	0.547	0.02
Mof_N 	N 	0.2192	0.6213	0.5241	-0.071
Mof_C 	C 	0.2586	0.6077	0.4952	0.052
Mof_H 	H 	0.279	0.6334	0.4796	0.031
Mof_C 	C 	0.27	0.55635	0.4877	-0.106
Mof_H 	H 	0.3002	0.5472	0.4698	0.064
Mof_C 	C 	0.518	0.7619	0.4942	0.041
Mof_C 	C 	0.5345	0.8029	0.4659	-0.108
Mof_H 	H 	0.5101	0.8277	0.455	0.064
Mof_C 	C 	0.191	0.5856	0.5469	0.056
Mof_H 	H 	0.1669	0.5952	0.5719	0.018
Mof_N 	N 	0.6227	0.23504	0.6305	-0.061
Mof_C 	C 	0.60957	0.2767	0.6563	0.057
Mof_H 	H 	0.6349	0.3004	0.6673	0.024
Mof_C 	C 	0.55819	0.2846	0.6665	-0.111
Mof_H 	H 	0.5481	0.3159	0.682	0.064
Mof_C 	C 	0.521	0.2489	0.6551	0.042
Mof_C 	C 	0.5374	0.2068	0.629	-0.107
Mof_H 	H 	0.5127	0.1834	0.6159	0.063
Mof_C 	C 	0.5891	0.1973	0.6214	0.051
Mof_H 	H 	0.6006	0.1647	0.6098	0.023
Mof_N 	N 	0.26899	0.8644	0.5271	-0.058
Mof_C 	C 	0.2239	0.87764	0.5068	0.046
Mof_H 	H 	0.1982	0.8525	0.5004	0.032
Mof_C 	C 	0.2155	0.92878	0.4953	-0.105
Mof_H 	H 	0.1852	0.9381	0.4776	0.064
Mof_C 	C 	0.9668	0.7501	0.4911	0.042
Mof_C 	C 	0.9505	0.7038	0.472	-0.11
Mof_H 	H 	0.9751	0.6779	0.4645	0.065
Mof_C 	C 	0.3057	0.8989	0.5365	0.055
Mof_H 	H 	0.3381	0.8881	0.549	0.023
Mof_N 	N 	0.8667	0.2816	0.6487	-0.074
Mof_C 	C 	0.87792	0.2448	0.6817	0.057
Mof_H 	H 	0.8511	0.2274	0.6988	0.03
Mof_C 	C 	0.92852	0.2319	0.6908	-0.113
Mof_H 	H 	0.9361	0.2056	0.7143	0.068
Mof_C 	C 	0.9682	0.2564	0.6664	0.048
Mof_C 	C 	0.95473	0.295	0.6337	-0.114
Mof_H 	H 	0.9809	0.315	0.6182	0.066
Mof_C 	C 	0.9037	0.305	0.6229	0.061
Mof_H 	H 	0.895	0.3286	0.5971	0.017
Mof_N 	N 	0.28239	0.6148	0.6326	-0.056
Mof_C 	C 	0.2407	0.6031	0.6593	0.037
Mof_H 	H 	0.2153	0.6286	0.6657	0.031
Mof_C 	C 	0.2343	0.554	0.6776	-0.101
Mof_H 	H 	0.2098	0.5479	0.7032	0.063
Mof_C 	C 	0.263	0.5137	0.6596	0.038
Mof_C 	C 	0.3058	0.52743	0.6324	-0.107
Mof_H 	H 	0.329	0.5015	0.6218	0.064
Mof_C 	C 	0.3156	0.578	0.6202	0.052
Mof_H 	H 	0.3463	0.5866	0.6029	0.023
Mof_La	La	0.74073	0.75106	0.41727	2.263
Mof_O 	O 	0.3078	0.7894	0.3096	-0.328
Mof_O 	O 	0.1687	0.718	0.2973	-0.325
Mof_O 	O 	0.2034	0.828	0.3012	-0.336
Mof_O 	O 	0.2762	0.6854	0.2965	-0.334
Mof_O 	O 	0.7792	0.8278	0.4545	-0.343
Mof_O 	O 	0.8065	0.7794	0.3594	-0.343
Mof_O 	O 	0.7127	0.6888	0.4811	-0.332
Mof_O 	O 	0.6719	0.7923	0.4724	-0.312
Mof_O 	O 	0.2301	0.326	0.3717	-0.335
Mof_O 	O 	0.8144	0.7209	0.4644	-0.342
Mof_O 	O 	0.2968	0.184	0.3589	-0.33
Mof_O 	O 	0.6612	0.7079	0.3817	-0.321
Mof_N 	N 	0.35669	0.7748	0.31208	-0.068
Mof_C 	C 	0.36752	0.73835	0.34522	0.063
Mof_H 	H 	0.3403	0.7214	0.3623	0.029
Mof_C 	C 	0.41777	0.72481	0.35501	-0.116
Mof_H 	H 	0.4248	0.6987	0.3789	0.07
Mof_C 	C 	0.4578	0.74838	0.33085	0.049
Mof_C 	C 	0.44488	0.7861	0.2969	-0.113
Mof_H 	H 	0.4714	0.8037	0.2795	0.067
Mof_C 	C 	0.39429	0.7989	0.28767	0.057
Mof_H 	H 	0.3863	0.8248	0.2639	0.019
Mof_N 	N 	0.1174	0.7252	0.3011	-0.066
Mof_C 	C 	0.08205	0.6934	0.2827	0.053
Mof_H 	H 	0.0919	0.6665	0.2607	0.021
Mof_C 	C 	0.031	0.6996	0.2957	-0.109
Mof_H 	H 	0.0066	0.6746	0.2853	0.064
Mof_C 	C 	0.0148	0.7413	0.3232	0.043
Mof_C 	C 	0.05275	0.7746	0.3382	-0.11
Mof_H 	H 	0.0434	0.8066	0.3528	0.065
Mof_C 	C 	0.10436	0.7628	0.3327	0.055
Mof_H 	H 	0.1299	0.7811	0.3508	0.026
Mof_N 	N 	0.21417	0.87551	0.3107	-0.054
Mof_C 	C 	0.2548	0.88693	0.339	0.041
Mof_H 	H 	0.2762	0.8603	0.3518	0.035
Mof_C 	C 	0.2656	0.93783	0.3497	-0.101
Mof_H 	H 	0.2903	0.9458	0.3747	0.064
Mof_C 	C 	0.2411	0.9773	0.3249	0.039
Mof_C 	C 	0.2	0.96385	0.2953	-0.105
Mof_H 	H 	0.1809	0.9898	0.2786	0.063
Mof_C 	C 	0.1863	0.91278	0.2899	0.05
Mof_H 	H 	0.1566	0.9041	0.271	0.023
Mof_N 	N 	0.2668	0.6354	0.3115	-0.066
Mof_C 	C 	0.3004	0.60156	0.2932	0.062
Mof_H 	H 	0.3281	0.6127	0.2727	0.023
Mof_C 	C 	0.2944	0.54993	0.3044	-0.115
Mof_H 	H 	0.3169	0.5254	0.2897	0.066
Mof_C 	C 	0.2566	0.5335	0.3365	0.045
Mof_C 	C 	0.2226	0.56997	0.3527	-0.11
Mof_H 	H 	0.1933	0.5595	0.3713	0.066
Mof_C 	C 	0.2298	0.6214	0.3429	0.052
Mof_H 	H 	0.2087	0.6466	0.3584	0.028
Mof_N 	N 	0.7715	0.87538	0.4724	-0.058
Mof_C 	C 	0.7322	0.88939	0.5012	0.039
Mof_H 	H 	0.7068	0.8651	0.511	0.032
Mof_C 	C 	0.7292	0.94026	0.5167	-0.104
Mof_H 	H 	0.7076	0.949	0.544	0.065
Mof_C 	C 	0.7569	0.9783	0.4929	0.041
Mof_C 	C 	0.7945	0.96187	0.4602	-0.111
Mof_H 	H 	0.817	0.9864	0.4455	0.066
Mof_C 	C 	0.8001	0.91044	0.4487	0.058
Mof_H 	H 	0.8241	0.9	0.4239	0.024
Mof_N 	N 	0.8567	0.76718	0.3502	-0.064
Mof_C 	C 	0.89079	0.8012	0.3672	0.06
Mof_H 	H 	0.8792	0.8315	0.3837	0.022
Mof_C 	C 	0.9429	0.7928	0.361	-0.111
Mof_H 	H 	0.9667	0.8155	0.3765	0.065
Mof_C 	C 	0.961	0.7524	0.3328	0.041
Mof_C 	C 	0.92443	0.7161	0.3204	-0.105
Mof_H 	H 	0.9351	0.6829	0.3099	0.064
Mof_C 	C 	0.8725	0.7272	0.323	0.049
Mof_H 	H 	0.8483	0.7065	0.3055	0.029
Mof_N 	N 	0.72487	0.6386	0.4896	-0.066
Mof_C 	C 	0.7663	0.62572	0.5161	0.054
Mof_H 	H 	0.7877	0.6515	0.5302	0.031
Mof_C 	C 	0.7777	0.57409	0.5229	-0.11
Mof_H 	H 	0.8051	0.5647	0.5445	0.067
Mof_C 	C 	0.7502	0.5362	0.4991	0.046
Mof_C 	C 	0.71	0.55203	0.4696	-0.111
Mof_H 	H 	0.6923	0.5276	0.4495	0.066
Mof_C 	C 	0.695	0.60307	0.4685	0.058
Mof_H 	H 	0.6636	0.6127	0.453	0.02
Mof_N 	N 	0.6213	0.7808	0.4759	-0.071
Mof_C 	C 	0.6077	0.7414	0.5048	0.052
Mof_H 	H 	0.6334	0.721	0.5204	0.031
Mof_C 	C 	0.55635	0.73	0.5123	-0.106
Mof_H 	H 	0.5472	0.6998	0.5302	0.064
Mof_C 	C 	0.7619	0.482	0.5058	0.041
Mof_C 	C 	0.8029	0.4655	0.5341	-0.108
Mof_H 	H 	0.8277	0.4899	0.545	0.064
Mof_C 	C 	0.5856	0.809	0.4531	0.056
Mof_H 	H 	0.5952	0.8331	0.4281	0.018
Mof_N 	N 	0.23504	0.3773	0.3695	-0.061
Mof_C 	C 	0.2767	0.39043	0.3437	0.057
Mof_H 	H 	0.3004	0.3651	0.3327	0.024
Mof_C 	C 	0.2846	0.44181	0.3335	-0.111
Mof_H 	H 	0.3159	0.4519	0.318	0.064
Mof_C 	C 	0.2489	0.479	0.3449	0.042
Mof_C 	C 	0.2068	0.4626	0.371	-0.107
Mof_H 	H 	0.1834	0.4873	0.3841	0.063
Mof_C 	C 	0.1973	0.4109	0.3786	0.051
Mof_H 	H 	0.1647	0.3994	0.3902	0.023
Mof_N 	N 	0.8644	0.73101	0.4729	-0.058
Mof_C 	C 	0.87764	0.7761	0.4932	0.046
Mof_H 	H 	0.8525	0.8018	0.4996	0.032
Mof_C 	C 	0.92878	0.7845	0.5047	-0.105
Mof_H 	H 	0.9381	0.8148	0.5224	0.064
Mof_C 	C 	0.7501	0.0332	0.5089	0.042
Mof_C 	C 	0.7038	0.0495	0.528	-0.11
Mof_H 	H 	0.6779	0.0249	0.5355	0.065
Mof_C 	C 	0.8989	0.6943	0.4635	0.055
Mof_H 	H 	0.8881	0.6619	0.451	0.023
Mof_N 	N 	0.2816	0.1333	0.3513	-0.074
Mof_C 	C 	0.2448	0.12208	0.3183	0.057
Mof_H 	H 	0.2274	0.1489	0.3012	0.03
Mof_C 	C 	0.2319	0.07148	0.3092	-0.113
Mof_H 	H 	0.2056	0.0639	0.2857	0.068
Mof_C 	C 	0.2564	0.0318	0.3336	0.048
Mof_C 	C 	0.295	0.04527	0.3663	-0.114
Mof_H 	H 	0.315	0.0191	0.3818	0.066
Mof_C 	C 	0.305	0.0963	0.3771	0.061
Mof_H 	H 	0.3286	0.105	0.4029	0.017
Mof_N 	N 	0.6148	0.71761	0.3674	-0.056
Mof_C 	C 	0.6031	0.7593	0.3407	0.037
Mof_H 	H 	0.6286	0.7847	0.3343	0.031
Mof_C 	C 	0.554	0.7657	0.3224	-0.101
Mof_H 	H 	0.5479	0.7902	0.2968	0.063
Mof_C 	C 	0.5137	0.737	0.3404	0.038
Mof_C 	C 	0.52743	0.6942	0.3676	-0.107
Mof_H 	H 	0.5015	0.671	0.3782	0.064
Mof_C 	C 	0.578	0.6844	0.3798	0.052
Mof_H 	H 	0.5866	0.6537	0.3971	0.023
Mof_La	La	0.25927	0.24894	0.41727	2.263
Mof_O 	O 	0.6922	0.2106	0.3096	-0.328
Mof_O 	O 	0.8313	0.282	0.2973	-0.325
Mof_O 	O 	0.7966	0.172	0.3012	-0.336
Mof_O 	O 	0.7238	0.3146	0.2965	-0.334
Mof_O 	O 	0.2208	0.1722	0.4545	-0.343
Mof_O 	O 	0.1935	0.2206	0.3594	-0.343
Mof_O 	O 	0.2873	0.3112	0.4811	-0.332
Mof_O 	O 	0.3281	0.2077	0.4724	-0.312
Mof_O 	O 	0.7699	0.674	0.3717	-0.335
Mof_O 	O 	0.1856	0.2791	0.4644	-0.342
Mof_O 	O 	0.7032	0.816	0.3589	-0.33
Mof_O 	O 	0.3388	0.2921	0.3817	-0.321
Mof_N 	N 	0.64331	0.2252	0.31208	-0.068
Mof_C 	C 	0.63248	0.26165	0.34522	0.063
Mof_H 	H 	0.6597	0.2786	0.3623	0.029
Mof_C 	C 	0.58223	0.27519	0.35501	-0.116
Mof_H 	H 	0.5752	0.3013	0.3789	0.07
Mof_C 	C 	0.5422	0.25162	0.33085	0.049
Mof_C 	C 	0.55512	0.2139	0.2969	-0.113
Mof_H 	H 	0.5286	0.1963	0.2795	0.067
Mof_C 	C 	0.60571	0.2011	0.28767	0.057
Mof_H 	H 	0.6137	0.1752	0.2639	0.019
Mof_N 	N 	0.8826	0.2748	0.3011	-0.066
Mof_C 	C 	0.91795	0.3066	0.2827	0.053
Mof_H 	H 	0.9081	0.3335	0.2607	0.021
Mof_C 	C 	0.969	0.3004	0.2957	-0.109
Mof_H 	H 	0.9934	0.3254	0.2853	0.064
Mof_C 	C 	0.9852	0.2587	0.3232	0.043
Mof_C 	C 	0.94725	0.2254	0.3382	-0.11
Mof_H 	H 	0.9566	0.1934	0.3528	0.065
Mof_C 	C 	0.89564	0.2372	0.3327	0.055
Mof_H 	H 	0.8701	0.2189	0.3508	0.026
Mof_N 	N 	0.78583	0.12449	0.3107	-0.054
Mof_C 	C 	0.7452	0.11307	0.339	0.041
Mof_H 	H 	0.7238	0.1397	0.3518	0.035
Mof_C 	C 	0.7344	0.06217	0.3497	-0.101
Mof_H 	H 	0.7097	0.0542	0.3747	0.064
Mof_C 	C 	0.7589	0.0227	0.3249	0.039
Mof_C 	C 	0.8	0.03615	0.2953	-0.105
Mof_H 	H 	0.8191	0.0102	0.2786	0.063
Mof_C 	C 	0.8137	0.08722	0.2899	0.05
Mof_H 	H 	0.8434	0.0959	0.271	0.023
Mof_N 	N 	0.7332	0.3646	0.3115	-0.066
Mof_C 	C 	0.6996	0.39844	0.2932	0.062
Mof_H 	H 	0.6719	0.3873	0.2727	0.023
Mof_C 	C 	0.7056	0.45007	0.3044	-0.115
Mof_H 	H 	0.6831	0.4746	0.2897	0.066
Mof_C 	C 	0.7434	0.4665	0.3365	0.045
Mof_C 	C 	0.7774	0.43003	0.3527	-0.11
Mof_H 	H 	0.8067	0.4405	0.3713	0.066
Mof_C 	C 	0.7702	0.3786	0.3429	0.052
Mof_H 	H 	0.7913	0.3534	0.3584	0.028
Mof_N 	N 	0.2285	0.12462	0.4724	-0.058
Mof_C 	C 	0.2678	0.11061	0.5012	0.039
Mof_H 	H 	0.2932	0.1349	0.511	0.032
Mof_C 	C 	0.2708	0.05974	0.5167	-0.104
Mof_H 	H 	0.2924	0.051	0.544	0.065
Mof_C 	C 	0.2431	0.0217	0.4929	0.041
Mof_C 	C 	0.2055	0.03813	0.4602	-0.111
Mof_H 	H 	0.183	0.0136	0.4455	0.066
Mof_C 	C 	0.1999	0.08956	0.4487	0.058
Mof_H 	H 	0.1759	0.1	0.4239	0.024
Mof_N 	N 	0.1433	0.23282	0.3502	-0.064
Mof_C 	C 	0.10921	0.1988	0.3672	0.06
Mof_H 	H 	0.1208	0.1685	0.3837	0.022
Mof_C 	C 	0.0571	0.2072	0.361	-0.111
Mof_H 	H 	0.0333	0.1845	0.3765	0.065
Mof_C 	C 	0.039	0.2476	0.3328	0.041
Mof_C 	C 	0.07557	0.2839	0.3204	-0.105
Mof_H 	H 	0.0649	0.3171	0.3099	0.064
Mof_C 	C 	0.1275	0.2728	0.323	0.049
Mof_H 	H 	0.1517	0.2935	0.3055	0.029
Mof_N 	N 	0.27513	0.3614	0.4896	-0.066
Mof_C 	C 	0.2337	0.37428	0.5161	0.054
Mof_H 	H 	0.2123	0.3485	0.5302	0.031
Mof_C 	C 	0.2223	0.42591	0.5229	-0.11
Mof_H 	H 	0.1949	0.4353	0.5445	0.067
Mof_C 	C 	0.2498	0.4638	0.4991	0.046
Mof_C 	C 	0.29	0.44797	0.4696	-0.111
Mof_H 	H 	0.3077	0.4724	0.4495	0.066
Mof_C 	C 	0.305	0.39693	0.4685	0.058
Mof_H 	H 	0.3364	0.3873	0.453	0.02
Mof_N 	N 	0.3787	0.2192	0.4759	-0.071
Mof_C 	C 	0.3923	0.2586	0.5048	0.052
Mof_H 	H 	0.3666	0.279	0.5204	0.031
Mof_C 	C 	0.44365	0.27	0.5123	-0.106
Mof_H 	H 	0.4528	0.3002	0.5302	0.064
Mof_C 	C 	0.2381	0.518	0.5058	0.041
Mof_C 	C 	0.1971	0.5345	0.5341	-0.108
Mof_H 	H 	0.1723	0.5101	0.545	0.064
Mof_C 	C 	0.4144	0.191	0.4531	0.056
Mof_H 	H 	0.4048	0.1669	0.4281	0.018
Mof_N 	N 	0.76496	0.6227	0.3695	-0.061
Mof_C 	C 	0.7233	0.60957	0.3437	0.057
Mof_H 	H 	0.6996	0.6349	0.3327	0.024
Mof_C 	C 	0.7154	0.55819	0.3335	-0.111
Mof_H 	H 	0.6841	0.5481	0.318	0.064
Mof_C 	C 	0.7511	0.521	0.3449	0.042
Mof_C 	C 	0.7932	0.5374	0.371	-0.107
Mof_H 	H 	0.8166	0.5127	0.3841	0.063
Mof_C 	C 	0.8027	0.5891	0.3786	0.051
Mof_H 	H 	0.8353	0.6006	0.3902	0.023
Mof_N 	N 	0.1356	0.26899	0.4729	-0.058
Mof_C 	C 	0.12236	0.2239	0.4932	0.046
Mof_H 	H 	0.1475	0.1982	0.4996	0.032
Mof_C 	C 	0.07122	0.2155	0.5047	-0.105
Mof_H 	H 	0.0619	0.1852	0.5224	0.064
Mof_C 	C 	0.2499	0.9668	0.5089	0.042
Mof_C 	C 	0.2962	0.9505	0.528	-0.11
Mof_H 	H 	0.3221	0.9751	0.5355	0.065
Mof_C 	C 	0.1011	0.3057	0.4635	0.055
Mof_H 	H 	0.1119	0.3381	0.451	0.023
Mof_N 	N 	0.7184	0.8667	0.3513	-0.074
Mof_C 	C 	0.7552	0.87792	0.3183	0.057
Mof_H 	H 	0.7726	0.8511	0.3012	0.03
Mof_C 	C 	0.7681	0.92852	0.3092	-0.113
Mof_H 	H 	0.7944	0.9361	0.2857	0.068
Mof_C 	C 	0.7436	0.9682	0.3336	0.048
Mof_C 	C 	0.705	0.95473	0.3663	-0.114
Mof_H 	H 	0.685	0.9809	0.3818	0.066
Mof_C 	C 	0.695	0.9037	0.3771	0.061
Mof_H 	H 	0.6714	0.895	0.4029	0.017
Mof_N 	N 	0.3852	0.28239	0.3674	-0.056
Mof_C 	C 	0.3969	0.2407	0.3407	0.037
Mof_H 	H 	0.3714	0.2153	0.3343	0.031
Mof_C 	C 	0.446	0.2343	0.3224	-0.101
Mof_H 	H 	0.4521	0.2098	0.2968	0.063
Mof_C 	C 	0.4863	0.263	0.3404	0.038
Mof_C 	C 	0.47257	0.3058	0.3676	-0.107
Mof_H 	H 	0.4985	0.329	0.3782	0.064
Mof_C 	C 	0.422	0.3156	0.3798	0.052
Mof_H 	H 	0.4134	0.3463	0.3971	0.023
Mof_La	La	0.75863	0.24137	0.25	2.255
Mof_La	La	0.24137	0.75863	0.25	2.255
Mof_La	La	0.24137	0.24137	0.75	2.255
Mof_La	La	0.75863	0.75863	0.75	2.255
_end
