data_functionalizedCrystal
_audit_creation_method	'EQeq! by Chris Wilmer'
_symmetry_space_group_name_H-M	'P1'
_symmetry_Int_Tables_number	1
_symmetry_cell_setting	triclinic
loop_
_symmetry_equiv_pos_as_xyz
  x,y,z
_cell_length_a	10.439
_cell_length_b	14.44
_cell_length_c	28.415
_cell_angle_alpha	90
_cell_angle_beta	97.67
_cell_angle_gamma	90
loop_
_atom_site_label
_atom_site_type_symbol
_atom_site_fract_x
_atom_site_fract_y
_atom_site_fract_z
_atom_site_charge
Mof_Cu	Cu	0.32176	0.70672	0.17843	0.895
Mof_Cu	Cu	0.82176	0.79328	0.67843	0.895
Mof_H 	H 	0.5731	0.7945	0.1733	-0.005
Mof_H 	H 	0.6926	0.9262	0.1951	0.111
Mof_H 	H 	0.3745	0.0282	0.247	0.093
Mof_H 	H 	0.2689	0.8954	0.2223	0.005
Mof_H 	H 	0.694	0.057	0.269	0.069
Mof_H 	H 	0.582	0.134	0.255	0.072
Mof_H 	H 	0.6034	0.1427	0.1746	0.045
Mof_H 	H 	0.7315	0.081	0.1826	0.051
Mof_H 	H 	0.705	0.2578	0.2251	0.073
Mof_H 	H 	0.8331	0.1955	0.2345	0.069
Mof_H 	H 	0.7282	0.2689	0.1435	0.073
Mof_H 	H 	0.8518	0.2028	0.1512	0.061
Mof_H 	H 	0.9704	0.319	0.1966	0.039
Mof_H 	H 	0.8463	0.3852	0.19	0.042
Mof_H 	H 	0.9736	0.3228	0.1125	0.094
Mof_H 	H 	0.8544	0.3936	0.1076	0.107
Mof_H 	H 	0.8943	0.5571	0.1351	0.101
Mof_H 	H 	0.0422	0.6757	0.1525	-0.004
Mof_H 	H 	0.3306	0.4991	0.1658	-0.009
Mof_H 	H 	0.1916	0.3768	0.1451	0.108
Mof_H 	H 	0.2406	0.8592	0.1101	-0.004
Mof_H 	H 	0.229	0.8915	0.0298	0.095
Mof_H 	H 	0.3795	0.6349	0.0124	0.118
Mof_H 	H 	0.3796	0.6131	0.0917	-0.003
Mof_H 	H 	0.2108	0.8041	0.9452	0.1
Mof_H 	H 	0.326	0.732	0.9428	0.115
Mof_H 	H 	0.358	0.9245	0.9622	0.017
Mof_H 	H 	0.3809	0.8754	0.9136	0.019
Mof_H 	H 	0.554	0.7904	0.9568	0.085
Mof_H 	H 	0.5353	0.8501	0.0027	0.074
Mof_H 	H 	0.7009	0.9164	0.9739	0.049
Mof_H 	H 	0.5822	0.9848	0.9597	0.049
Mof_H 	H 	0.5614	0.9128	0.8803	0.039
Mof_H 	H 	0.6811	0.9817	0.8935	0.037
Mof_H 	H 	0.7017	0.7848	0.9037	0.111
Mof_H 	H 	0.8204	0.8555	0.9132	0.095
Mof_H 	H 	0.917	0.9162	0.8442	0.118
Mof_H 	H 	0.9487	0.8955	0.7664	-0.009
Mof_H 	H 	0.6377	0.7425	0.7422	-0.001
Mof_H 	H 	0.6022	0.7541	0.8202	0.119
Mof_H 	H 	0.5512	0.6327	0.1572	0.314
Mof_H 	H 	0.5134	0.5732	0.1898	0.333
Mof_H 	H 	0.0731	0.7055	0.6733	-0.005
Mof_H 	H 	0.1926	0.5738	0.6951	0.111
Mof_H 	H 	0.8745	0.4718	0.747	0.094
Mof_H 	H 	0.7689	0.6046	0.7223	0.004
Mof_H 	H 	0.194	0.443	0.769	0.069
Mof_H 	H 	0.082	0.366	0.755	0.073
Mof_H 	H 	0.1034	0.3573	0.6746	0.045
Mof_H 	H 	0.2315	0.419	0.6826	0.051
Mof_H 	H 	0.205	0.2422	0.7251	0.073
Mof_H 	H 	0.3331	0.3045	0.7345	0.069
Mof_H 	H 	0.2282	0.2311	0.6435	0.073
Mof_H 	H 	0.3518	0.2972	0.6512	0.061
Mof_H 	H 	0.4704	0.181	0.6966	0.038
Mof_H 	H 	0.3463	0.1148	0.69	0.041
Mof_H 	H 	0.4736	0.1772	0.6125	0.094
Mof_H 	H 	0.3544	0.1064	0.6076	0.107
Mof_H 	H 	0.3943	0.9429	0.6351	0.102
Mof_H 	H 	0.5422	0.8243	0.6525	-0.004
Mof_H 	H 	0.8306	0.0009	0.6658	-0.008
Mof_H 	H 	0.6916	0.1232	0.6451	0.108
Mof_H 	H 	0.7406	0.6408	0.6101	-0.004
Mof_H 	H 	0.729	0.6085	0.5298	0.094
Mof_H 	H 	0.8795	0.8651	0.5124	0.117
Mof_H 	H 	0.8796	0.8869	0.5917	-0.003
Mof_H 	H 	0.7108	0.6959	0.4452	0.099
Mof_H 	H 	0.826	0.768	0.4428	0.115
Mof_H 	H 	0.858	0.5755	0.4622	0.017
Mof_H 	H 	0.8809	0.6246	0.4136	0.019
Mof_H 	H 	0.054	0.7096	0.4568	0.085
Mof_H 	H 	0.0353	0.6499	0.5027	0.074
Mof_H 	H 	0.2009	0.5836	0.4739	0.049
Mof_H 	H 	0.0822	0.5152	0.4597	0.049
Mof_H 	H 	0.0614	0.5872	0.3803	0.039
Mof_H 	H 	0.1811	0.5183	0.3935	0.037
Mof_H 	H 	0.2017	0.7152	0.4037	0.111
Mof_H 	H 	0.3204	0.6445	0.4132	0.095
Mof_H 	H 	0.417	0.5838	0.3442	0.118
Mof_H 	H 	0.4487	0.6045	0.2664	-0.009
Mof_H 	H 	0.1377	0.7575	0.2422	-0.001
Mof_H 	H 	0.1022	0.7459	0.3202	0.119
Mof_H 	H 	0.0512	0.8673	0.6572	0.314
Mof_H 	H 	0.0134	0.9268	0.6898	0.333
Mof_C 	C 	0.5328	0.8428	0.1886	0.1
Mof_C 	C 	0.606	0.9215	0.2017	-0.183
Mof_C 	C 	0.5504	0.993	0.2246	0.129
Mof_C 	C 	0.4182	0.9812	0.232	-0.169
Mof_C 	C 	0.3567	0.9016	0.2173	0.091
Mof_C 	C 	0.6294	0.0782	0.2396	-0.158
Mof_C 	C 	0.6784	0.1256	0.1981	-0.048
Mof_C 	C 	0.7578	0.2112	0.2108	-0.104
Mof_C 	C 	0.8047	0.2517	0.1663	-0.117
Mof_C 	C 	0.8921	0.336	0.1747	-0.014
Mof_C 	C 	0.9322	0.373	0.1288	-0.236
Mof_C 	C 	0.0267	0.4545	0.1383	0.169
Mof_C 	C 	0.9841	0.5436	0.1408	-0.197
Mof_C 	C 	0.073	0.6139	0.1518	0.101
Mof_C 	C 	0.2406	0.5112	0.159	0.116
Mof_C 	C 	0.1586	0.4378	0.1472	-0.197
Mof_C 	C 	0.2697	0.8136	0.0899	0.104
Mof_C 	C 	0.2627	0.8337	0.0416	-0.198
Mof_C 	C 	0.3049	0.7695	0.0111	0.169
Mof_C 	C 	0.3506	0.6827	0.0314	-0.201
Mof_C 	C 	0.3508	0.6713	0.0788	0.114
Mof_C 	C 	0.3007	0.7887	0.9587	-0.265
Mof_C 	C 	0.3881	0.8667	0.9485	0.03
Mof_C 	C 	0.5271	0.8517	0.9676	-0.149
Mof_C 	C 	0.6172	0.9231	0.9533	-0.084
Mof_C 	C 	0.6437	0.9215	0.9015	-0.023
Mof_C 	C 	0.7364	0.8442	0.8934	-0.241
Mof_C 	C 	0.7583	0.8359	0.8415	0.18
Mof_C 	C 	0.8592	0.8781	0.8241	-0.219
Mof_C 	C 	0.8774	0.8656	0.7774	0.12
Mof_C 	C 	0.698	0.7764	0.7636	0.104
Mof_C 	C 	0.6746	0.784	0.81	-0.211
Mof_C 	C 	0.0328	0.6572	0.6886	0.101
Mof_C 	C 	0.106	0.5785	0.7017	-0.184
Mof_C 	C 	0.0504	0.507	0.7246	0.131
Mof_C 	C 	0.9182	0.5188	0.732	-0.172
Mof_C 	C 	0.8567	0.5984	0.7173	0.092
Mof_C 	C 	0.1294	0.4218	0.7396	-0.158
Mof_C 	C 	0.1784	0.3744	0.6981	-0.048
Mof_C 	C 	0.2578	0.2888	0.7108	-0.103
Mof_C 	C 	0.3047	0.2483	0.6663	-0.117
Mof_C 	C 	0.3921	0.164	0.6747	-0.012
Mof_C 	C 	0.4322	0.127	0.6288	-0.238
Mof_C 	C 	0.5267	0.0455	0.6383	0.171
Mof_C 	C 	0.4841	0.9564	0.6408	-0.201
Mof_C 	C 	0.573	0.8861	0.6518	0.103
Mof_C 	C 	0.7406	0.9888	0.659	0.114
Mof_C 	C 	0.6586	0.0622	0.6472	-0.197
Mof_C 	C 	0.7697	0.6864	0.5899	0.104
Mof_C 	C 	0.7627	0.6663	0.5416	-0.198
Mof_C 	C 	0.8049	0.7305	0.5111	0.169
Mof_C 	C 	0.8506	0.8173	0.5314	-0.201
Mof_C 	C 	0.8508	0.8287	0.5788	0.114
Mof_C 	C 	0.8007	0.7113	0.4587	-0.265
Mof_C 	C 	0.8881	0.6333	0.4485	0.029
Mof_C 	C 	0.0271	0.6483	0.4676	-0.148
Mof_C 	C 	0.1172	0.5769	0.4533	-0.085
Mof_C 	C 	0.1437	0.5785	0.4015	-0.023
Mof_C 	C 	0.2364	0.6558	0.3934	-0.241
Mof_C 	C 	0.2583	0.6641	0.3415	0.18
Mof_C 	C 	0.3592	0.6219	0.3241	-0.219
Mof_C 	C 	0.3774	0.6344	0.2774	0.121
Mof_C 	C 	0.198	0.7236	0.2636	0.104
Mof_C 	C 	0.1746	0.716	0.31	-0.211
Mof_N 	N 	0.4106	0.83	0.19594	-0.228
Mof_N 	N 	0.2	0.5992	0.16143	-0.237
Mof_N 	N 	0.3148	0.7338	0.1093	-0.24
Mof_N 	N 	0.7998	0.8135	0.74669	-0.242
Mof_N 	N 	0.9106	0.67	0.69594	-0.229
Mof_N 	N 	0.7	0.9008	0.66143	-0.238
Mof_N 	N 	0.8148	0.7662	0.6093	-0.24
Mof_N 	N 	0.2998	0.6865	0.24669	-0.242
Mof_O 	O 	0.5083	0.6286	0.18093	-0.748
Mof_O 	O 	0.0083	0.8714	0.68093	-0.748
Mof_Cu	Cu	0.17824	0.20672	0.32157	0.895
Mof_Cu	Cu	0.67824	0.29328	0.82157	0.895
Mof_H 	H 	0.9269	0.2945	0.3267	-0.005
Mof_H 	H 	0.8074	0.4262	0.3049	0.111
Mof_H 	H 	0.1255	0.5282	0.253	0.094
Mof_H 	H 	0.2311	0.3954	0.2777	0.004
Mof_H 	H 	0.806	0.557	0.231	0.069
Mof_H 	H 	0.918	0.634	0.245	0.073
Mof_H 	H 	0.8966	0.6427	0.3254	0.045
Mof_H 	H 	0.7685	0.581	0.3174	0.051
Mof_H 	H 	0.795	0.7578	0.2749	0.073
Mof_H 	H 	0.6669	0.6955	0.2655	0.069
Mof_H 	H 	0.7718	0.7689	0.3565	0.073
Mof_H 	H 	0.6482	0.7028	0.3488	0.061
Mof_H 	H 	0.5296	0.819	0.3034	0.038
Mof_H 	H 	0.6537	0.8852	0.31	0.041
Mof_H 	H 	0.5264	0.8228	0.3875	0.094
Mof_H 	H 	0.6456	0.8936	0.3924	0.107
Mof_H 	H 	0.6057	0.0571	0.3649	0.102
Mof_H 	H 	0.4578	0.1757	0.3475	-0.004
Mof_H 	H 	0.1694	0.9991	0.3342	-0.008
Mof_H 	H 	0.3084	0.8768	0.3549	0.108
Mof_H 	H 	0.2594	0.3592	0.3899	-0.004
Mof_H 	H 	0.271	0.3915	0.4702	0.094
Mof_H 	H 	0.1205	0.1349	0.4876	0.117
Mof_H 	H 	0.1204	0.1131	0.4083	-0.003
Mof_H 	H 	0.2892	0.3041	0.5548	0.099
Mof_H 	H 	0.174	0.232	0.5572	0.115
Mof_H 	H 	0.142	0.4245	0.5378	0.017
Mof_H 	H 	0.1191	0.3754	0.5864	0.019
Mof_H 	H 	0.946	0.2904	0.5432	0.085
Mof_H 	H 	0.9647	0.3501	0.4973	0.074
Mof_H 	H 	0.7991	0.4164	0.5261	0.049
Mof_H 	H 	0.9178	0.4848	0.5403	0.049
Mof_H 	H 	0.9386	0.4128	0.6197	0.039
Mof_H 	H 	0.8189	0.4817	0.6065	0.037
Mof_H 	H 	0.7983	0.2848	0.5963	0.111
Mof_H 	H 	0.6796	0.3555	0.5868	0.095
Mof_H 	H 	0.583	0.4162	0.6558	0.118
Mof_H 	H 	0.5513	0.3955	0.7336	-0.009
Mof_H 	H 	0.8623	0.2425	0.7578	-0.001
Mof_H 	H 	0.8978	0.2541	0.6798	0.119
Mof_H 	H 	0.9488	0.1327	0.3428	0.314
Mof_H 	H 	0.9866	0.0732	0.3102	0.333
Mof_H 	H 	0.4269	0.2055	0.8267	-0.005
Mof_H 	H 	0.3074	0.0738	0.8049	0.111
Mof_H 	H 	0.6255	0.9718	0.753	0.093
Mof_H 	H 	0.7311	0.1046	0.7777	0.005
Mof_H 	H 	0.306	0.943	0.731	0.069
Mof_H 	H 	0.418	0.866	0.745	0.072
Mof_H 	H 	0.3966	0.8573	0.8254	0.045
Mof_H 	H 	0.2685	0.919	0.8174	0.051
Mof_H 	H 	0.295	0.7422	0.7749	0.073
Mof_H 	H 	0.1669	0.8045	0.7655	0.069
Mof_H 	H 	0.2718	0.7311	0.8565	0.073
Mof_H 	H 	0.1482	0.7972	0.8488	0.061
Mof_H 	H 	0.0296	0.681	0.8034	0.039
Mof_H 	H 	0.1537	0.6148	0.81	0.042
Mof_H 	H 	0.0264	0.6772	0.8875	0.094
Mof_H 	H 	0.1456	0.6064	0.8924	0.107
Mof_H 	H 	0.1057	0.4429	0.8649	0.101
Mof_H 	H 	0.9578	0.3243	0.8475	-0.004
Mof_H 	H 	0.6694	0.5009	0.8342	-0.009
Mof_H 	H 	0.8084	0.6232	0.8549	0.108
Mof_H 	H 	0.7594	0.1408	0.8899	-0.004
Mof_H 	H 	0.771	0.1085	0.9702	0.095
Mof_H 	H 	0.6205	0.3651	0.9876	0.118
Mof_H 	H 	0.6204	0.3869	0.9083	-0.003
Mof_H 	H 	0.7892	0.1959	0.0548	0.1
Mof_H 	H 	0.674	0.268	0.0572	0.115
Mof_H 	H 	0.642	0.0755	0.0378	0.017
Mof_H 	H 	0.6191	0.1246	0.0864	0.019
Mof_H 	H 	0.446	0.2096	0.0432	0.085
Mof_H 	H 	0.4647	0.1499	0.9973	0.074
Mof_H 	H 	0.2991	0.0836	0.0261	0.049
Mof_H 	H 	0.4178	0.0152	0.0403	0.049
Mof_H 	H 	0.4386	0.0872	0.1197	0.039
Mof_H 	H 	0.3189	0.0183	0.1065	0.037
Mof_H 	H 	0.2983	0.2152	0.0963	0.111
Mof_H 	H 	0.1796	0.1445	0.0868	0.095
Mof_H 	H 	0.083	0.0838	0.1558	0.118
Mof_H 	H 	0.0513	0.1045	0.2336	-0.009
Mof_H 	H 	0.3623	0.2575	0.2578	-0.001
Mof_H 	H 	0.3978	0.2459	0.1798	0.119
Mof_H 	H 	0.4488	0.3673	0.8428	0.314
Mof_H 	H 	0.4866	0.4268	0.8102	0.333
Mof_C 	C 	0.9672	0.3428	0.3114	0.101
Mof_C 	C 	0.894	0.4215	0.2983	-0.184
Mof_C 	C 	0.9496	0.493	0.2754	0.131
Mof_C 	C 	0.0818	0.4812	0.268	-0.172
Mof_C 	C 	0.1433	0.4016	0.2827	0.092
Mof_C 	C 	0.8706	0.5782	0.2604	-0.158
Mof_C 	C 	0.8216	0.6256	0.3019	-0.048
Mof_C 	C 	0.7422	0.7112	0.2892	-0.103
Mof_C 	C 	0.6953	0.7517	0.3337	-0.117
Mof_C 	C 	0.6079	0.836	0.3253	-0.012
Mof_C 	C 	0.5678	0.873	0.3712	-0.238
Mof_C 	C 	0.4733	0.9545	0.3617	0.171
Mof_C 	C 	0.5159	0.0436	0.3592	-0.201
Mof_C 	C 	0.427	0.1139	0.3482	0.103
Mof_C 	C 	0.2594	0.0112	0.341	0.114
Mof_C 	C 	0.3414	0.9378	0.3528	-0.197
Mof_C 	C 	0.2303	0.3136	0.4101	0.104
Mof_C 	C 	0.2373	0.3337	0.4584	-0.198
Mof_C 	C 	0.1951	0.2695	0.4889	0.169
Mof_C 	C 	0.1494	0.1827	0.4686	-0.201
Mof_C 	C 	0.1492	0.1713	0.4212	0.114
Mof_C 	C 	0.1993	0.2887	0.5413	-0.265
Mof_C 	C 	0.1119	0.3667	0.5515	0.029
Mof_C 	C 	0.9729	0.3517	0.5324	-0.148
Mof_C 	C 	0.8828	0.4231	0.5467	-0.085
Mof_C 	C 	0.8563	0.4215	0.5985	-0.023
Mof_C 	C 	0.7636	0.3442	0.6066	-0.241
Mof_C 	C 	0.7417	0.3359	0.6585	0.18
Mof_C 	C 	0.6408	0.3781	0.6759	-0.219
Mof_C 	C 	0.6226	0.3656	0.7226	0.121
Mof_C 	C 	0.802	0.2764	0.7364	0.104
Mof_C 	C 	0.8254	0.284	0.69	-0.211
Mof_C 	C 	0.4672	0.1572	0.8114	0.1
Mof_C 	C 	0.394	0.0785	0.7983	-0.183
Mof_C 	C 	0.4496	0.007	0.7754	0.129
Mof_C 	C 	0.5818	0.0188	0.768	-0.169
Mof_C 	C 	0.6433	0.0984	0.7827	0.091
Mof_C 	C 	0.3706	0.9218	0.7604	-0.158
Mof_C 	C 	0.3216	0.8744	0.8019	-0.048
Mof_C 	C 	0.2422	0.7888	0.7892	-0.104
Mof_C 	C 	0.1953	0.7483	0.8337	-0.117
Mof_C 	C 	0.1079	0.664	0.8253	-0.014
Mof_C 	C 	0.0678	0.627	0.8712	-0.236
Mof_C 	C 	0.9733	0.5455	0.8617	0.169
Mof_C 	C 	0.0159	0.4564	0.8592	-0.197
Mof_C 	C 	0.927	0.3861	0.8482	0.101
Mof_C 	C 	0.7594	0.4888	0.841	0.116
Mof_C 	C 	0.8414	0.5622	0.8528	-0.197
Mof_C 	C 	0.7303	0.1864	0.9101	0.104
Mof_C 	C 	0.7373	0.1663	0.9584	-0.198
Mof_C 	C 	0.6951	0.2305	0.9889	0.169
Mof_C 	C 	0.6494	0.3173	0.9686	-0.201
Mof_C 	C 	0.6492	0.3287	0.9212	0.114
Mof_C 	C 	0.6993	0.2113	0.0413	-0.265
Mof_C 	C 	0.6119	0.1333	0.0515	0.03
Mof_C 	C 	0.4729	0.1483	0.0324	-0.149
Mof_C 	C 	0.3828	0.0769	0.0467	-0.084
Mof_C 	C 	0.3563	0.0785	0.0985	-0.023
Mof_C 	C 	0.2636	0.1558	0.1066	-0.241
Mof_C 	C 	0.2417	0.1641	0.1585	0.18
Mof_C 	C 	0.1408	0.1219	0.1759	-0.219
Mof_C 	C 	0.1226	0.1344	0.2226	0.12
Mof_C 	C 	0.302	0.2236	0.2364	0.104
Mof_C 	C 	0.3254	0.216	0.19	-0.211
Mof_N 	N 	0.0894	0.33	0.30406	-0.229
Mof_N 	N 	0.3	0.0992	0.33857	-0.238
Mof_N 	N 	0.1852	0.2338	0.3907	-0.24
Mof_N 	N 	0.7002	0.3135	0.75331	-0.242
Mof_N 	N 	0.5894	0.17	0.80406	-0.228
Mof_N 	N 	0.8	0.4008	0.83857	-0.237
Mof_N 	N 	0.6852	0.2662	0.8907	-0.24
Mof_N 	N 	0.2002	0.1865	0.25331	-0.242
Mof_O 	O 	0.9917	0.1286	0.31907	-0.748
Mof_O 	O 	0.4917	0.3714	0.81907	-0.748
Mof_N 	N 	0.9863	0.8831	0.18036	0.063
Mof_O 	O 	0.074	0.8486	0.1619	-0.167
Mof_O 	O 	0.9517	0.8452	0.2151	-0.145
Mof_O 	O 	0.9252	0.9506	0.1637	-0.145
Mof_N 	N 	0.4936	0.4113	0.0992	0.053
Mof_O 	O 	0.6068	0.4373	0.1114	-0.151
Mof_O 	O 	0.4313	0.4483	0.0638	-0.131
Mof_O 	O 	0.4459	0.3488	0.12	-0.152
Mof_N 	N 	0.5137	0.3831	0.31964	0.063
Mof_O 	O 	0.426	0.3486	0.3381	-0.167
Mof_O 	O 	0.5483	0.3452	0.2849	-0.145
Mof_O 	O 	0.5748	0.4506	0.3363	-0.145
Mof_N 	N 	0.0064	0.9113	0.4008	0.053
Mof_O 	O 	0.8932	0.9373	0.3886	-0.152
Mof_O 	O 	0.0687	0.9483	0.4362	-0.131
Mof_O 	O 	0.0541	0.8488	0.38	-0.152
Mof_N 	N 	0.0137	0.1169	0.81964	0.063
Mof_O 	O 	0.926	0.1514	0.8381	-0.167
Mof_O 	O 	0.0483	0.1548	0.7849	-0.145
Mof_O 	O 	0.0748	0.0494	0.8363	-0.145
Mof_N 	N 	0.5064	0.5887	0.9008	0.053
Mof_O 	O 	0.3932	0.5627	0.8886	-0.151
Mof_O 	O 	0.5687	0.5517	0.9362	-0.131
Mof_O 	O 	0.5541	0.6512	0.88	-0.152
Mof_N 	N 	0.4863	0.6169	0.68036	0.063
Mof_O 	O 	0.574	0.6514	0.6619	-0.167
Mof_O 	O 	0.4517	0.6548	0.7151	-0.145
Mof_O 	O 	0.4252	0.5494	0.6637	-0.145
Mof_N 	N 	0.9936	0.0887	0.5992	0.053
Mof_O 	O 	0.1068	0.0627	0.6114	-0.152
Mof_O 	O 	0.9313	0.0517	0.5638	-0.131
Mof_O 	O 	0.9459	0.1512	0.62	-0.152
_end
