# CIF file generated by openbabel 3.1.0, see https://openbabel.org
data_I
_chemical_name_common 'image0'
_cell_length_a 6.6667
_cell_length_b 18.408
_cell_length_c 8.4468
_cell_angle_alpha 90
_cell_angle_beta 90
_cell_angle_gamma 90
_space_group_name_H-M_alt 'P 1'
_space_group_name_Hall 'P 1'
loop_
    _symmetry_equiv_pos_as_xyz
    x,y,z
loop_
    _atom_site_label
    _atom_site_type_symbol
    _atom_site_fract_x
    _atom_site_fract_y
    _atom_site_fract_z
    _atom_site_occupancy
    O1       O        0.01270    0.54980    0.06960    1.000
    O2       O        0.66480    0.59460    0.22830    1.000
    O3       O        0.68040    0.75780    0.65220    1.000
    O4       O        0.82490    0.68340    0.48180    1.000
    C1       C        0.76410    0.74340    0.52520    1.000
    H1       H        0.78300    0.78190    0.45530    1.000
    O5       O        0.51270    0.04980    0.06960    1.000
    O6       O        0.16480    0.09460    0.22830    1.000
    O7       O        0.18040    0.25780    0.65220    1.000
    O8       O        0.32490    0.18340    0.48180    1.000
    C2       C        0.26410    0.24340    0.52520    1.000
    H2       H        0.28300    0.28190    0.45530    1.000
    O9       O        0.98730    0.45020    0.56960    1.000
    O10      O        0.33520    0.40540    0.72830    1.000
    O11      O        0.31960    0.24220    0.15220    1.000
    O12      O        0.17510    0.31660    0.98180    1.000
    C3       C        0.23590    0.25660    0.02520    1.000
    H3       H        0.21700    0.21810    0.95530    1.000
    O13      O        0.48730    0.95020    0.56960    1.000
    O14      O        0.83520    0.90540    0.72830    1.000
    O15      O        0.81960    0.74220    0.15220    1.000
    O16      O        0.67510    0.81660    0.98180    1.000
    C4       C        0.73590    0.75660    0.02520    1.000
    H4       H        0.71700    0.71810    0.95530    1.000
    O17      O        0.98730    0.54980    0.43040    1.000
    O18      O        0.33520    0.59460    0.27170    1.000
    O19      O        0.31960    0.75780    0.84780    1.000
    O20      O        0.17510    0.68340    0.01820    1.000
    C5       C        0.23590    0.74340    0.97480    1.000
    H5       H        0.21700    0.78190    0.04470    1.000
    O21      O        0.48730    0.04980    0.43040    1.000
    O22      O        0.83520    0.09460    0.27170    1.000
    O23      O        0.81960    0.25780    0.84780    1.000
    O24      O        0.67510    0.18340    0.01820    1.000
    C6       C        0.73590    0.24340    0.97480    1.000
    H6       H        0.71700    0.28190    0.04470    1.000
    O25      O        0.01270    0.45020    0.93040    1.000
    O26      O        0.66480    0.40540    0.77170    1.000
    O27      O        0.68040    0.24220    0.34780    1.000
    O28      O        0.82490    0.31660    0.51820    1.000
    C7       C        0.76410    0.25660    0.47480    1.000
    H7       H        0.78300    0.21810    0.54470    1.000
    O29      O        0.51270    0.95020    0.93040    1.000
    O30      O        0.16480    0.90540    0.77170    1.000
    O31      O        0.18040    0.74220    0.34780    1.000
    O32      O        0.32490    0.81660    0.51820    1.000
    C8       C        0.26410    0.75660    0.47480    1.000
    H8       H        0.28300    0.71810    0.54470    1.000
    Ho1      Ho       0.00000    0.64269    0.25000    1.000
    Ho2      Ho       0.50000    0.14269    0.25000    1.000
    Ho3      Ho       0.00000    0.35731    0.75000    1.000
    Ho4      Ho       0.50000    0.85731    0.75000    1.000
    C9       C        0.50000    0.62560    0.25000    1.000
    H9       H        0.50000    0.67620    0.25000    1.000
    C10      C        0.00000    0.12560    0.25000    1.000
    H10      H        0.00000    0.17620    0.25000    1.000
    C11      C        0.50000    0.37440    0.75000    1.000
    H11      H        0.50000    0.32380    0.75000    1.000
    C12      C        0.00000    0.87440    0.75000    1.000
    H12      H        0.00000    0.82380    0.75000    1.000
    C13      C        0.92530    0.50000    0.00000    1.000
    H13      H        0.78580    0.50000    0.00000    1.000
    C14      C        0.42530    0.00000    0.00000    1.000
    H14      H        0.28580    0.00000    0.00000    1.000
    C15      C        0.07470    0.50000    0.50000    1.000
    H15      H        0.21420    0.50000    0.50000    1.000
    C16      C        0.57470    0.00000    0.50000    1.000
    H16      H        0.71420    0.00000    0.50000    1.000
