data_functionalizedCrystal
_audit_creation_method	'EQeq! by Chris Wilmer'
_symmetry_space_group_name_H-M	'P1'
_symmetry_Int_Tables_number	1
_symmetry_cell_setting	triclinic
loop_
_symmetry_equiv_pos_as_xyz
  x,y,z
_cell_length_a	6.4618
_cell_length_b	39.8715
_cell_length_c	39.8715
_cell_angle_alpha	60.2892
_cell_angle_beta	86.9032
_cell_angle_gamma	93.0968
loop_
_atom_site_label
_atom_site_type_symbol
_atom_site_fract_x
_atom_site_fract_y
_atom_site_fract_z
_atom_site_charge
Mof_Mg	Mg	0.86931	0.63819	0.6729	1.485
Mof_Mg	Mg	0.54221	0.6729	0.68891	1.486
Mof_Mg	Mg	0.23112	0.68891	0.63819	1.485
Mof_Mg	Mg	0.13069	0.36181	0.3271	1.484
Mof_Mg	Mg	0.45779	0.3271	0.31109	1.485
Mof_Mg	Mg	0.76888	0.31109	0.36181	1.485
Mof_H 	H 	0.8618	0.62552	0.59231	0.086
Mof_H 	H 	0.55958	0.57898	0.62401	0.007
Mof_H 	H 	0.33636	0.55388	0.59237	0.066
Mof_H 	H 	0.93918	0.51362	0.62207	0.035
Mof_H 	H 	0.70702	0.59291	0.49055	0.047
Mof_H 	H 	0.33474	0.49549	0.56005	0.045
Mof_H 	H 	0.89003	0.64933	0.48133	0.049
Mof_H 	H 	0.85931	0.65226	0.52482	0.051
Mof_H 	H 	0.66113	0.45583	0.58489	0.064
Mof_H 	H 	0.87478	0.45549	0.61164	0.056
Mof_H 	H 	0.61731	0.46164	0.62673	0.059
Mof_H 	H 	0.00525	0.52207	0.45964	0.048
Mof_H 	H 	0.99819	0.54945	0.48372	0.049
Mof_H 	H 	0.23787	0.62027	0.36692	0.036
Mof_H 	H 	0.15493	0.57888	0.39342	0.035
Mof_H 	H 	0.15498	0.55842	0.45852	0.028
Mof_H 	H 	0.14761	0.60531	0.43602	0.042
Mof_H 	H 	0.45411	0.59231	0.78217	0.1
Mof_H 	H 	0.18359	0.62401	0.79701	-0
Mof_H 	H 	0.92873	0.59237	0.85375	0.068
Mof_H 	H 	0.56125	0.62207	0.86431	0.038
Mof_H 	H 	0.19757	0.49055	0.91654	0.047
Mof_H 	H 	0.89479	0.56005	0.94446	0.043
Mof_H 	H 	0.37136	0.48133	0.86934	0.05
Mof_H 	H 	0.38413	0.52482	0.82292	0.052
Mof_H 	H 	0.24602	0.58489	0.95928	0.064
Mof_H 	H 	0.48642	0.61164	0.93287	0.057
Mof_H 	H 	0.24404	0.62673	0.91163	0.06
Mof_H 	H 	0.46489	0.45964	0.01829	0.048
Mof_H 	H 	0.48191	0.48372	0.96683	0.05
Mof_H 	H 	0.60479	0.36692	0.01281	0.036
Mof_H 	H 	0.54835	0.39342	0.0277	0.035
Mof_H 	H 	0.6135	0.45852	0.98306	0.028
Mof_H 	H 	0.58363	0.43602	0.95867	0.041
Mof_H 	H 	0.23628	0.78217	0.62552	0.099
Mof_H 	H 	0.9806	0.79701	0.57898	0.003
Mof_H 	H 	0.78248	0.85375	0.55388	0.063
Mof_H 	H 	0.42556	0.86431	0.51362	0.039
Mof_H 	H 	0.11411	0.91654	0.59291	0.047
Mof_H 	H 	0.83925	0.94446	0.49549	0.043
Mof_H 	H 	0.2407	0.86934	0.64933	0.05
Mof_H 	H 	0.20705	0.82292	0.65226	0.053
Mof_H 	H 	0.2053	0.95928	0.45583	0.064
Mof_H 	H 	0.41929	0.93287	0.45549	0.057
Mof_H 	H 	0.15567	0.91163	0.46164	0.062
Mof_H 	H 	0.48318	0.01829	0.52207	0.048
Mof_H 	H 	0.44874	0.96683	0.54945	0.05
Mof_H 	H 	0.6176	0.01281	0.62027	0.036
Mof_H 	H 	0.57605	0.0277	0.57888	0.035
Mof_H 	H 	0.59656	0.98306	0.55842	0.028
Mof_H 	H 	0.5423	0.95867	0.60531	0.041
Mof_H 	H 	0.1382	0.37448	0.40769	0.086
Mof_H 	H 	0.44042	0.42102	0.37599	0.007
Mof_H 	H 	0.66364	0.44612	0.40763	0.066
Mof_H 	H 	0.06082	0.48638	0.37793	0.035
Mof_H 	H 	0.29298	0.40709	0.50945	0.047
Mof_H 	H 	0.66526	0.50451	0.43995	0.045
Mof_H 	H 	0.10997	0.35067	0.51867	0.049
Mof_H 	H 	0.14069	0.34774	0.47518	0.051
Mof_H 	H 	0.33887	0.54417	0.41511	0.064
Mof_H 	H 	0.12522	0.54451	0.38836	0.056
Mof_H 	H 	0.38269	0.53836	0.37327	0.059
Mof_H 	H 	0.99475	0.47793	0.54036	0.048
Mof_H 	H 	0.00181	0.45055	0.51628	0.049
Mof_H 	H 	0.76213	0.37973	0.63308	0.036
Mof_H 	H 	0.84507	0.42112	0.60658	0.035
Mof_H 	H 	0.84502	0.44158	0.54148	0.028
Mof_H 	H 	0.85239	0.39469	0.56398	0.042
Mof_H 	H 	0.54589	0.40769	0.21783	0.1
Mof_H 	H 	0.81641	0.37599	0.20299	-0
Mof_H 	H 	0.07127	0.40763	0.14625	0.068
Mof_H 	H 	0.43875	0.37793	0.13569	0.038
Mof_H 	H 	0.80243	0.50945	0.08346	0.047
Mof_H 	H 	0.10521	0.43995	0.05554	0.043
Mof_H 	H 	0.62864	0.51867	0.13066	0.05
Mof_H 	H 	0.61587	0.47518	0.17708	0.052
Mof_H 	H 	0.75398	0.41511	0.04072	0.064
Mof_H 	H 	0.51358	0.38836	0.06713	0.057
Mof_H 	H 	0.75596	0.37327	0.08837	0.06
Mof_H 	H 	0.53511	0.54036	0.98171	0.048
Mof_H 	H 	0.51809	0.51628	0.03317	0.05
Mof_H 	H 	0.39521	0.63308	0.98719	0.036
Mof_H 	H 	0.45165	0.60658	0.9723	0.035
Mof_H 	H 	0.3865	0.54148	0.01694	0.028
Mof_H 	H 	0.41637	0.56398	0.04133	0.041
Mof_H 	H 	0.76372	0.21783	0.37448	0.099
Mof_H 	H 	0.0194	0.20299	0.42102	0.003
Mof_H 	H 	0.21752	0.14625	0.44612	0.063
Mof_H 	H 	0.57444	0.13569	0.48638	0.039
Mof_H 	H 	0.88589	0.08346	0.40709	0.047
Mof_H 	H 	0.16075	0.05554	0.50451	0.043
Mof_H 	H 	0.7593	0.13066	0.35067	0.05
Mof_H 	H 	0.79295	0.17708	0.34774	0.053
Mof_H 	H 	0.7947	0.04072	0.54417	0.064
Mof_H 	H 	0.58071	0.06713	0.54451	0.057
Mof_H 	H 	0.84433	0.08837	0.53836	0.062
Mof_H 	H 	0.51682	0.98171	0.47793	0.048
Mof_H 	H 	0.55126	0.03317	0.45055	0.05
Mof_H 	H 	0.3824	0.98719	0.37973	0.036
Mof_H 	H 	0.42395	0.9723	0.42112	0.035
Mof_H 	H 	0.40344	0.01694	0.44158	0.028
Mof_H 	H 	0.4577	0.04133	0.39469	0.041
Mof_C 	C 	0.48313	0.63177	0.6462	0.549
Mof_C 	C 	0.34089	0.61786	0.62647	-0.319
Mof_C 	C 	0.13831	0.6301	0.61771	0.267
Mof_C 	C 	0.01413	0.6154	0.59932	-0.186
Mof_C 	C 	0.08266	0.58793	0.59018	0.114
Mof_C 	C 	0.28054	0.57522	0.59925	-0.144
Mof_C 	C 	0.40811	0.58995	0.61707	0.12
Mof_C 	C 	0.94492	0.57111	0.57261	-0.056
Mof_C 	C 	0.87635	0.59391	0.53532	0.047
Mof_C 	C 	0.75768	0.57569	0.51932	-0.071
Mof_C 	C 	0.71156	0.53515	0.53908	-0.009
Mof_C 	C 	0.77341	0.51258	0.57711	0.035
Mof_C 	C 	0.88853	0.53093	0.5933	-0.053
Mof_C 	C 	0.60567	0.51734	0.51863	-0.007
Mof_C 	C 	0.4073	0.49734	0.53388	-0.064
Mof_C 	C 	0.69845	0.52037	0.48398	0.023
Mof_C 	C 	0.93685	0.63703	0.51136	-0.12
Mof_C 	C 	0.72808	0.46903	0.60118	-0.179
Mof_C 	C 	0.91	0.54137	0.46523	-0.097
Mof_C 	C 	0.04618	0.57967	0.43846	-0.049
Mof_C 	C 	0.13895	0.60593	0.39602	-0.091
Mof_C 	C 	0.12933	0.6462	0.72203	0.568
Mof_C 	C 	0.96736	0.62647	0.75567	-0.355
Mof_C 	C 	0.75602	0.61771	0.75219	0.282
Mof_C 	C 	0.61345	0.59932	0.78528	-0.213
Mof_C 	C 	0.67284	0.59018	0.82189	0.118
Mof_C 	C 	0.87979	0.59925	0.82553	-0.168
Mof_C 	C 	0.02518	0.61707	0.79298	0.156
Mof_C 	C 	0.51753	0.57261	0.85628	-0.048
Mof_C 	C 	0.41167	0.53532	0.87077	0.046
Mof_C 	C 	0.277	0.51932	0.90499	-0.069
Mof_C 	C 	0.25064	0.53908	0.92577	-0.01
Mof_C 	C 	0.35052	0.57711	0.91031	0.037
Mof_C 	C 	0.48183	0.5933	0.87577	-0.054
Mof_C 	C 	0.1243	0.51863	0.96403	-0.005
Mof_C 	C 	0.94118	0.53388	0.96878	-0.066
Mof_C 	C 	0.18243	0.48398	0.99565	0.022
Mof_C 	C 	0.44821	0.51136	0.85161	-0.116
Mof_C 	C 	0.32926	0.60118	0.92979	-0.18
Mof_C 	C 	0.37523	0.46523	0.9934	-0.097
Mof_C 	C 	0.48464	0.43846	0.98187	-0.05
Mof_C 	C 	0.53497	0.39602	0.99805	-0.091
Mof_C 	C 	0.85136	0.72203	0.63177	0.531
Mof_C 	C 	0.72303	0.75567	0.61786	-0.317
Mof_C 	C 	0.50821	0.75219	0.6301	0.269
Mof_C 	C 	0.39873	0.78528	0.6154	-0.202
Mof_C 	C 	0.49473	0.82189	0.58793	0.106
Mof_C 	C 	0.70532	0.82553	0.57522	-0.143
Mof_C 	C 	0.81816	0.79298	0.58995	0.116
Mof_C 	C 	0.37381	0.85628	0.57111	-0.043
Mof_C 	C 	0.28244	0.87077	0.59391	0.044
Mof_C 	C 	0.18199	0.90499	0.57569	-0.068
Mof_C 	C 	0.17641	0.92577	0.53515	-0.01
Mof_C 	C 	0.26083	0.91031	0.51258	0.039
Mof_C 	C 	0.3576	0.87577	0.53093	-0.055
Mof_C 	C 	0.08833	0.96403	0.51734	-0.004
Mof_C 	C 	0.90996	0.96878	0.49734	-0.067
Mof_C 	C 	0.17808	0.99565	0.52037	0.022
Mof_C 	C 	0.29982	0.85161	0.63703	-0.115
Mof_C 	C 	0.25905	0.92979	0.46903	-0.181
Mof_C 	C 	0.36863	0.9934	0.54137	-0.097
Mof_C 	C 	0.46651	0.98187	0.57967	-0.05
Mof_C 	C 	0.53302	0.99805	0.60593	-0.091
Mof_C 	C 	0.51687	0.36823	0.3538	0.549
Mof_C 	C 	0.65911	0.38214	0.37353	-0.319
Mof_C 	C 	0.86169	0.3699	0.38229	0.267
Mof_C 	C 	0.98587	0.3846	0.40068	-0.186
Mof_C 	C 	0.91734	0.41207	0.40982	0.114
Mof_C 	C 	0.71946	0.42478	0.40075	-0.144
Mof_C 	C 	0.59189	0.41005	0.38293	0.12
Mof_C 	C 	0.05508	0.42889	0.42739	-0.056
Mof_C 	C 	0.12365	0.40609	0.46468	0.047
Mof_C 	C 	0.24232	0.42431	0.48068	-0.071
Mof_C 	C 	0.28844	0.46485	0.46092	-0.009
Mof_C 	C 	0.22659	0.48742	0.42289	0.035
Mof_C 	C 	0.11147	0.46907	0.4067	-0.053
Mof_C 	C 	0.39433	0.48266	0.48137	-0.007
Mof_C 	C 	0.5927	0.50266	0.46612	-0.064
Mof_C 	C 	0.30155	0.47963	0.51602	0.023
Mof_C 	C 	0.06315	0.36297	0.48864	-0.12
Mof_C 	C 	0.27192	0.53097	0.39882	-0.179
Mof_C 	C 	0.09	0.45863	0.53477	-0.097
Mof_C 	C 	0.95382	0.42033	0.56154	-0.049
Mof_C 	C 	0.86105	0.39407	0.60398	-0.091
Mof_C 	C 	0.87067	0.3538	0.27797	0.568
Mof_C 	C 	0.03264	0.37353	0.24433	-0.355
Mof_C 	C 	0.24398	0.38229	0.24781	0.282
Mof_C 	C 	0.38655	0.40068	0.21472	-0.213
Mof_C 	C 	0.32716	0.40982	0.17811	0.118
Mof_C 	C 	0.12021	0.40075	0.17447	-0.168
Mof_C 	C 	0.97482	0.38293	0.20702	0.156
Mof_C 	C 	0.48247	0.42739	0.14372	-0.048
Mof_C 	C 	0.58833	0.46468	0.12923	0.046
Mof_C 	C 	0.723	0.48068	0.09501	-0.069
Mof_C 	C 	0.74936	0.46092	0.07423	-0.01
Mof_C 	C 	0.64948	0.42289	0.08969	0.037
Mof_C 	C 	0.51817	0.4067	0.12423	-0.054
Mof_C 	C 	0.8757	0.48137	0.03597	-0.005
Mof_C 	C 	0.05882	0.46612	0.03122	-0.066
Mof_C 	C 	0.81757	0.51602	0.00435	0.022
Mof_C 	C 	0.55179	0.48864	0.14839	-0.116
Mof_C 	C 	0.67074	0.39882	0.07021	-0.18
Mof_C 	C 	0.62477	0.53477	0.0066	-0.097
Mof_C 	C 	0.51536	0.56154	0.01813	-0.05
Mof_C 	C 	0.46503	0.60398	0.00195	-0.091
Mof_C 	C 	0.14864	0.27797	0.36823	0.531
Mof_C 	C 	0.27697	0.24433	0.38214	-0.317
Mof_C 	C 	0.49179	0.24781	0.3699	0.269
Mof_C 	C 	0.60127	0.21472	0.3846	-0.202
Mof_C 	C 	0.50527	0.17811	0.41207	0.106
Mof_C 	C 	0.29468	0.17447	0.42478	-0.143
Mof_C 	C 	0.18184	0.20702	0.41005	0.116
Mof_C 	C 	0.62619	0.14372	0.42889	-0.043
Mof_C 	C 	0.71756	0.12923	0.40609	0.044
Mof_C 	C 	0.81801	0.09501	0.42431	-0.068
Mof_C 	C 	0.82359	0.07423	0.46485	-0.01
Mof_C 	C 	0.73917	0.08969	0.48742	0.039
Mof_C 	C 	0.6424	0.12423	0.46907	-0.055
Mof_C 	C 	0.91167	0.03597	0.48266	-0.004
Mof_C 	C 	0.09004	0.03122	0.50266	-0.067
Mof_C 	C 	0.82192	0.00435	0.47963	0.022
Mof_C 	C 	0.70018	0.14839	0.36297	-0.115
Mof_C 	C 	0.74095	0.07021	0.53097	-0.181
Mof_C 	C 	0.63137	0.0066	0.45863	-0.097
Mof_C 	C 	0.53349	0.01813	0.42033	-0.05
Mof_C 	C 	0.46698	0.00195	0.39407	-0.091
Mof_O 	O 	0.6632	0.61979	0.65195	-0.56
Mof_O 	O 	0.42913	0.65501	0.65708	-0.811
Mof_O 	O 	0.054	0.65749	0.62503	-0.627
Mof_O 	O 	0.31515	0.65195	0.72826	-0.561
Mof_O 	O 	0.08621	0.65708	0.68791	-0.81
Mof_O 	O 	0.67903	0.62503	0.71748	-0.639
Mof_O 	O 	0.04341	0.72826	0.61979	-0.542
Mof_O 	O 	0.77412	0.68791	0.65501	-0.81
Mof_O 	O 	0.39651	0.71748	0.65749	-0.634
Mof_O 	O 	0.3368	0.38021	0.34805	-0.56
Mof_O 	O 	0.57087	0.34499	0.34292	-0.811
Mof_O 	O 	0.946	0.34251	0.37497	-0.627
Mof_O 	O 	0.68485	0.34805	0.27174	-0.561
Mof_O 	O 	0.91379	0.34292	0.31209	-0.81
Mof_O 	O 	0.32097	0.37497	0.28252	-0.639
Mof_O 	O 	0.95659	0.27174	0.38021	-0.542
Mof_O 	O 	0.22588	0.31209	0.34499	-0.81
Mof_O 	O 	0.60349	0.28252	0.34251	-0.634
_end
