data_functionalizedCrystal
_audit_creation_method	'EQeq! by Chris Wilmer'
_symmetry_space_group_name_H-M	'P1'
_symmetry_Int_Tables_number	1
_symmetry_cell_setting	triclinic
loop_
_symmetry_equiv_pos_as_xyz
  x,y,z
_cell_length_a	13.987
_cell_length_b	26.971
_cell_length_c	7.595
_cell_angle_alpha	90
_cell_angle_beta	90
_cell_angle_gamma	91.74
loop_
_atom_site_label
_atom_site_type_symbol
_atom_site_fract_x
_atom_site_fract_y
_atom_site_fract_z
_atom_site_charge
Mof_Cd	Cd	0.27557	0.13524	0.8791	0.364
Mof_N 	N 	0.2549	0.08	0.0958	-0.08
Mof_N 	N 	0.2499	0.9217	0.6536	-0.076
Mof_N 	N 	0.1739	0.8004	0.0892	-0.063
Mof_N 	N 	0.8758	0.8322	0.1312	-0.072
Mof_N 	N 	0.3181	0.193	0.6521	-0.112
Mof_N 	N 	0.4425	0.1256	0.8363	-0.128
Mof_C 	C 	0.2521	0.0492	0.1992	-0.258
Mof_C 	C 	0.25	0.0488	0.546	-0.261
Mof_C 	C 	0.1083	0.7812	0.1515	-0.238
Mof_C 	C 	0.9243	0.8014	0.1753	-0.171
Mof_C 	C 	0.4202	0.1901	0.622	-0.025
Mof_C 	C 	0.4764	0.1595	0.7	0.039
Mof_C 	C 	0.5816	0.1583	0.656	-0.031
Mof_Cd	Cd	0.27557	0.63524	0.3791	0.369
Mof_N 	N 	0.2549	0.58	0.5958	-0.081
Mof_N 	N 	0.2499	0.4217	0.1536	-0.075
Mof_N 	N 	0.1739	0.3004	0.5892	-0.063
Mof_N 	N 	0.8758	0.3322	0.6312	-0.073
Mof_N 	N 	0.3181	0.693	0.1521	-0.112
Mof_N 	N 	0.4425	0.6256	0.3363	-0.124
Mof_C 	C 	0.2521	0.5492	0.6992	-0.238
Mof_C 	C 	0.25	0.5488	0.046	-0.24
Mof_C 	C 	0.1083	0.2812	0.6515	-0.24
Mof_C 	C 	0.9243	0.3014	0.6753	-0.17
Mof_C 	C 	0.4202	0.6901	0.122	-0.024
Mof_C 	C 	0.4764	0.6595	0.2	0.041
Mof_C 	C 	0.5816	0.6583	0.156	-0.029
Mof_Cd	Cd	0.22443	0.86476	0.8791	0.374
Mof_N 	N 	0.2451	0.92	0.0958	-0.083
Mof_N 	N 	0.2501	0.0783	0.6536	-0.077
Mof_N 	N 	0.3261	0.1996	0.0892	-0.065
Mof_N 	N 	0.6242	0.1678	0.1312	-0.073
Mof_N 	N 	0.1819	0.807	0.6521	-0.115
Mof_N 	N 	0.0575	0.8744	0.8363	-0.131
Mof_C 	C 	0.2479	0.9508	0.1992	-0.203
Mof_C 	C 	0.25	0.9512	0.546	-0.206
Mof_C 	C 	0.3917	0.2188	0.1515	-0.218
Mof_C 	C 	0.5757	0.1986	0.1753	-0.22
Mof_C 	C 	0.0798	0.8099	0.622	-0.025
Mof_C 	C 	0.0236	0.8405	0.7	-0.033
Mof_C 	C 	0.9184	0.8417	0.656	0.045
Mof_Cd	Cd	0.22443	0.36476	0.3791	0.368
Mof_N 	N 	0.2451	0.42	0.5958	-0.081
Mof_N 	N 	0.2501	0.5783	0.1536	-0.076
Mof_N 	N 	0.3261	0.6996	0.5892	-0.065
Mof_N 	N 	0.6242	0.6678	0.6312	-0.072
Mof_N 	N 	0.1819	0.307	0.1521	-0.114
Mof_N 	N 	0.0575	0.3744	0.3363	-0.135
Mof_C 	C 	0.2479	0.4508	0.6992	-0.238
Mof_C 	C 	0.25	0.4512	0.046	-0.24
Mof_C 	C 	0.3917	0.7188	0.6515	-0.217
Mof_C 	C 	0.5757	0.6986	0.6753	-0.219
Mof_C 	C 	0.0798	0.3099	0.122	-0.025
Mof_C 	C 	0.0236	0.3405	0.2	-0.032
Mof_C 	C 	0.9184	0.3417	0.156	0.039
Mof_Cd	Cd	0.72443	0.86476	0.1209	0.384
Mof_N 	N 	0.7451	0.92	0.9042	-0.079
Mof_N 	N 	0.7501	0.0783	0.3464	-0.074
Mof_N 	N 	0.8261	0.1996	0.9108	-0.071
Mof_N 	N 	0.1242	0.1678	0.8688	-0.076
Mof_N 	N 	0.6819	0.807	0.3479	-0.112
Mof_N 	N 	0.5575	0.8744	0.1637	-0.12
Mof_C 	C 	0.7479	0.9508	0.8008	-0.188
Mof_C 	C 	0.75	0.9512	0.454	-0.192
Mof_C 	C 	0.8917	0.2188	0.8485	-0.176
Mof_C 	C 	0.0757	0.1986	0.8247	-0.251
Mof_C 	C 	0.5798	0.8099	0.378	-0.024
Mof_C 	C 	0.5236	0.8405	0.3	0.042
Mof_C 	C 	0.4184	0.8417	0.344	-0.026
Mof_Cd	Cd	0.72443	0.36476	0.6209	0.38
Mof_N 	N 	0.7451	0.42	0.4042	-0.077
Mof_N 	N 	0.7501	0.5783	0.8464	-0.073
Mof_N 	N 	0.8261	0.6996	0.4108	-0.071
Mof_N 	N 	0.1242	0.6678	0.3688	-0.075
Mof_N 	N 	0.6819	0.307	0.8479	-0.112
Mof_N 	N 	0.5575	0.3744	0.6637	-0.125
Mof_C 	C 	0.7479	0.4508	0.3008	-0.223
Mof_C 	C 	0.75	0.4512	0.954	-0.226
Mof_C 	C 	0.8917	0.7188	0.3485	-0.177
Mof_C 	C 	0.0757	0.6986	0.3247	-0.25
Mof_C 	C 	0.5798	0.3099	0.878	-0.024
Mof_C 	C 	0.5236	0.3405	0.8	0.041
Mof_C 	C 	0.4184	0.3417	0.844	-0.03
Mof_Cd	Cd	0.77557	0.13524	0.1209	0.374
Mof_N 	N 	0.7549	0.08	0.9042	-0.077
Mof_N 	N 	0.7499	0.9217	0.3464	-0.074
Mof_N 	N 	0.6739	0.8004	0.9108	-0.064
Mof_N 	N 	0.3758	0.8322	0.8688	-0.07
Mof_N 	N 	0.8181	0.193	0.3479	-0.109
Mof_N 	N 	0.9425	0.1256	0.1637	-0.118
Mof_C 	C 	0.7521	0.0492	0.8008	-0.243
Mof_C 	C 	0.75	0.0488	0.454	-0.247
Mof_C 	C 	0.6083	0.7812	0.8485	-0.216
Mof_C 	C 	0.4243	0.8014	0.8247	-0.219
Mof_C 	C 	0.9202	0.1901	0.378	-0.02
Mof_C 	C 	0.9764	0.1595	0.3	0.112
Mof_C 	C 	0.0816	0.1583	0.344	-0.1
Mof_Cd	Cd	0.77557	0.63524	0.6209	0.38
Mof_N 	N 	0.7549	0.58	0.4042	-0.077
Mof_N 	N 	0.7499	0.4217	0.8464	-0.072
Mof_N 	N 	0.6739	0.3004	0.4108	-0.064
Mof_N 	N 	0.3758	0.3322	0.3688	-0.072
Mof_N 	N 	0.8181	0.693	0.8479	-0.109
Mof_N 	N 	0.9425	0.6256	0.6637	-0.114
Mof_C 	C 	0.7521	0.5492	0.3008	-0.223
Mof_C 	C 	0.75	0.5488	0.954	-0.226
Mof_C 	C 	0.6083	0.2812	0.3485	-0.217
Mof_C 	C 	0.4243	0.3014	0.3247	-0.22
Mof_C 	C 	0.9202	0.6901	0.878	-0.02
Mof_C 	C 	0.9764	0.6595	0.8	0.115
Mof_C 	C 	0.0816	0.6583	0.844	-0.099
Mof_Ni	Ni	0.25	0	0.3722	1.036
Mof_Ni	Ni	0.25	0.5	0.8722	1.059
Mof_Ni	Ni	0.75	-2.20364e-33	0.6278	1.04
Mof_Ni	Ni	0.75	0.5	0.1278	1.063
Mof_Ni	Ni	-3.61049e-18	0.75	0.25	1.035
Mof_Ni	Ni	0.5	0.25	0.25	1.067
Mof_Ni	Ni	1.57393e-18	0.25	0.75	1.034
Mof_Ni	Ni	0.5	0.75	0.75	1.068
_end
