# CIF file generated by openbabel 3.1.0, see https://openbabel.org
data_I
_chemical_name_common 'image0'
_cell_length_a 10.8237
_cell_length_b 12.1862
_cell_length_c 12.2493
_cell_angle_alpha 94.301
_cell_angle_beta 106.53
_cell_angle_gamma 101.281
_space_group_name_H-M_alt 'P 1'
_space_group_name_Hall 'P 1'
loop_
    _symmetry_equiv_pos_as_xyz
    x,y,z
loop_
    _atom_site_label
    _atom_site_type_symbol
    _atom_site_fract_x
    _atom_site_fract_y
    _atom_site_fract_z
    _atom_site_occupancy
    Dy1      Dy       0.08325    0.30978    0.49819    1.000
    C1       C        0.35150    0.53390    0.56510    1.000
    H1       H        0.28730    0.56820    0.52300    1.000
    C2       C        0.48070    0.59670    0.60820    1.000
    H2       H        0.50100    0.67130    0.59520    1.000
    C3       C        0.57780    0.54990    0.66910    1.000
    H3       H        0.66490    0.59120    0.69710    1.000
    C4       C        0.54360    0.43750    0.68910    1.000
    C5       C        0.41060    0.37890    0.64370    1.000
    C6       C        0.37220    0.26380    0.66350    1.000
    C7       C        0.20860    0.10650    0.64360    1.000
    H4       H        0.12000    0.06920    0.61510    1.000
    C8       C        0.29780    0.05050    0.70640    1.000
    H5       H        0.26870    0.97750    0.72060    1.000
    C9       C        0.42660    0.10170    0.74680    1.000
    H6       H        0.48740    0.06360    0.78760    1.000
    C10      C        0.46980    0.21340    0.72740    1.000
    C11      C        0.60300    0.27320    0.76790    1.000
    H7       H        0.66750    0.23750    0.80670    1.000
    C12      C        0.63810    0.38100    0.75140    1.000
    H8       H        0.72630    0.41950    0.78130    1.000
    C13      C        0.08770    0.18110    0.30580    1.000
    C14      C        0.07570    0.12320    0.19100    1.000
    C15      C        0.17900    0.14530    0.14450    1.000
    H9       H        0.25630    0.19820    0.18450    1.000
    C16      C        0.96360    0.04780    0.13260    1.000
    H10      H        0.89480    0.03320    0.16460    1.000
    C17      C        0.94790    0.98920    0.02170    1.000
    C18      C        0.83230    0.91020    0.95980    1.000
    H11      H        0.76210    0.89520    0.99020    1.000
    C19      C        0.00970    0.49470    0.67600    1.000
    C20      C        0.00620    0.47860    0.79770    1.000
    C21      C        0.01620    0.37410    0.83560    1.000
    H12      H        0.02360    0.31500    0.78700    1.000
    C22      C        0.99380    0.56440    0.86500    1.000
    H13      H        0.98440    0.63190    0.83650    1.000
    C23      C        0.99490    0.55310    0.98160    1.000
    C24      C        0.98500    0.63990    0.05400    1.000
    H14      H        0.97910    0.70920    0.02830    1.000
    C25      C        0.85020    0.19440    0.52970    1.000
    C26      C        0.72980    0.11740    0.53520    1.000
    C27      C        0.60850    0.11690    0.46280    1.000
    H15      H        0.60170    0.16990    0.41180    1.000
    C28      C        0.49400    0.04060    0.46160    1.000
    C29      C        0.73940    0.03980    0.61290    1.000
    H16      H        0.82180    0.03960    0.66320    1.000
    C30      C        0.63190    0.96490    0.61710    1.000
    H17      H        0.64070    0.91620    0.67230    1.000
    N1       N        0.24360    0.21150    0.62210    1.000
    N2       N        0.31500    0.42770    0.58090    1.000
    O1       O        0.06890    0.43470    0.63480    1.000
    O2       O        0.96120    0.18240    0.58680    1.000
    O3       O        0.84260    0.26860    0.46140    1.000
    O4       O        0.99210    0.16150    0.34640    1.000
    O5       O        0.19210    0.25170    0.36290    1.000
    O6       O        0.95440    0.56610    0.62790    1.000
    Dy2      Dy       0.91675    0.69022    0.50181    1.000
    C31      C        0.64850    0.46610    0.43490    1.000
    H18      H        0.71270    0.43180    0.47700    1.000
    C32      C        0.51930    0.40330    0.39180    1.000
    H19      H        0.49900    0.32870    0.40480    1.000
    C33      C        0.42220    0.45010    0.33090    1.000
    H20      H        0.33510    0.40880    0.30290    1.000
    C34      C        0.45640    0.56250    0.31090    1.000
    C35      C        0.58940    0.62110    0.35630    1.000
    C36      C        0.62780    0.73620    0.33650    1.000
    C37      C        0.79140    0.89350    0.35640    1.000
    H21      H        0.88000    0.93080    0.38490    1.000
    C38      C        0.70220    0.94950    0.29360    1.000
    H22      H        0.73130    0.02250    0.27940    1.000
    C39      C        0.57340    0.89830    0.25320    1.000
    H23      H        0.51260    0.93640    0.21240    1.000
    C40      C        0.53020    0.78660    0.27260    1.000
    C41      C        0.39700    0.72680    0.23210    1.000
    H24      H        0.33250    0.76250    0.19330    1.000
    C42      C        0.36190    0.61900    0.24860    1.000
    H25      H        0.27370    0.58050    0.21870    1.000
    C43      C        0.91230    0.81890    0.69420    1.000
    C44      C        0.92430    0.87680    0.80900    1.000
    C45      C        0.82100    0.85470    0.85550    1.000
    H26      H        0.74370    0.80180    0.81550    1.000
    C46      C        0.03640    0.95220    0.86740    1.000
    H27      H        0.10520    0.96680    0.83540    1.000
    C47      C        0.05210    0.01080    0.97830    1.000
    C48      C        0.16770    0.08980    0.04020    1.000
    H28      H        0.23790    0.10480    0.00980    1.000
    C49      C        0.99030    0.50530    0.32400    1.000
    C50      C        0.99380    0.52140    0.20230    1.000
    C51      C        0.98380    0.62590    0.16440    1.000
    H29      H        0.97640    0.68500    0.21300    1.000
    C52      C        0.00620    0.43560    0.13500    1.000
    H30      H        0.01560    0.36810    0.16350    1.000
    C53      C        0.00510    0.44690    0.01840    1.000
    C54      C        0.01500    0.36010    0.94600    1.000
    H31      H        0.02090    0.29080    0.97170    1.000
    C55      C        0.14980    0.80560    0.47030    1.000
    C56      C        0.27020    0.88260    0.46480    1.000
    C57      C        0.39150    0.88310    0.53720    1.000
    H32      H        0.39830    0.83010    0.58820    1.000
    C58      C        0.50600    0.95940    0.53840    1.000
    C59      C        0.26060    0.96020    0.38710    1.000
    H33      H        0.17820    0.96040    0.33680    1.000
    C60      C        0.36810    0.03510    0.38290    1.000
    H34      H        0.35930    0.08380    0.32770    1.000
    N3       N        0.75640    0.78850    0.37790    1.000
    N4       N        0.68500    0.57230    0.41910    1.000
    O7       O        0.93110    0.56530    0.36520    1.000
    O8       O        0.03880    0.81760    0.41320    1.000
    O9       O        0.15740    0.73140    0.53860    1.000
    O10      O        0.00790    0.83850    0.65360    1.000
    O11      O        0.80790    0.74830    0.63710    1.000
    O12      O        0.04560    0.43390    0.37210    1.000
