data_functionalizedCrystal
_audit_creation_method	'EQeq! by Chris Wilmer'
_symmetry_space_group_name_H-M	'P1'
_symmetry_Int_Tables_number	1
_symmetry_cell_setting	triclinic
loop_
_symmetry_equiv_pos_as_xyz
  x,y,z
_cell_length_a	7.0688
_cell_length_b	11.4644
_cell_length_c	16.421
_cell_angle_alpha	82.92
_cell_angle_beta	77.5706
_cell_angle_gamma	72.0436
loop_
_atom_site_label
_atom_site_type_symbol
_atom_site_fract_x
_atom_site_fract_y
_atom_site_fract_z
_atom_site_charge
Mof_Cd	Cd	0.27149	0.75069	0.77851	0.455
Mof_Cd	Cd	0.80069	0.74931	0.72149	0.454
Mof_Cd	Cd	0.19931	0.25069	0.27851	0.454
Mof_Cd	Cd	0.72851	0.24931	0.22149	0.455
Mof_H 	H 	0.5684	0.6454	0.2354	0.059
Mof_H 	H 	0.4316	0.3546	0.7646	0.059
Mof_H 	H 	0.0019	0.3557	0.7563	0.06
Mof_H 	H 	0.8861	0.8557	0.2563	0.059
Mof_H 	H 	0.524	0.5494	0.628	0.053
Mof_H 	H 	0.476	0.4506	0.372	0.053
Mof_H 	H 	0.4492	0.8546	0.2646	0.06
Mof_H 	H 	0.9981	0.6443	0.2437	0.06
Mof_H 	H 	0.1909	0.5639	0.4567	0.063
Mof_H 	H 	0.5508	0.1454	0.7354	0.06
Mof_H 	H 	0.2986	0.0494	0.128	0.053
Mof_H 	H 	0.7885	0.0639	0.9567	0.063
Mof_H 	H 	0.2115	0.9361	0.0433	0.063
Mof_H 	H 	0.1139	0.1443	0.7437	0.059
Mof_H 	H 	0.7014	0.9506	0.872	0.053
Mof_H 	H 	0.8091	0.4361	0.5433	0.063
Mof_C 	C 	0.5144	0.5288	0.5764	-0.016
Mof_C 	C 	0.6196	0.9712	0.9236	-0.017
Mof_C 	C 	0.6851	0.4622	0.5256	-0.022
Mof_C 	C 	0.671	0.4345	0.4475	-0.055
Mof_C 	C 	0.61	0.1395	0.1085	0.315
Mof_C 	C 	0.0889	0.6875	0.2447	-0.021
Mof_C 	C 	0.3594	0.813	0.2582	-0.024
Mof_C 	C 	0.5694	0.313	0.7582	-0.021
Mof_C 	C 	0.082	0.0098	0.2782	0.326
Mof_C 	C 	0.3271	0.9622	0.0256	-0.022
Mof_C 	C 	0.1573	0.8727	0.2647	-0.051
Mof_C 	C 	0.0211	0.8125	0.2553	-0.021
Mof_C 	C 	0.858	0.3605	0.3915	0.316
Mof_C 	C 	0.918	0.9902	0.7218	0.326
Mof_C 	C 	0.7053	0.3727	0.7647	-0.054
Mof_C 	C 	0.447	0.9345	0.9475	-0.054
Mof_C 	C 	0.37	0.4902	0.2218	0.33
Mof_C 	C 	0.8427	0.1273	0.7353	-0.051
Mof_C 	C 	0.6406	0.187	0.7418	-0.024
Mof_C 	C 	0.39	0.8605	0.8915	0.315
Mof_C 	C 	0.553	0.0655	0.0525	-0.054
Mof_C 	C 	0.3804	0.0288	0.0764	-0.017
Mof_C 	C 	0.4856	0.4712	0.4236	-0.016
Mof_C 	C 	0.6729	0.0378	0.9744	-0.022
Mof_C 	C 	0.9789	0.1875	0.7447	-0.021
Mof_C 	C 	0.4306	0.687	0.2418	-0.021
Mof_C 	C 	0.3149	0.5378	0.4744	-0.022
Mof_C 	C 	0.2947	0.6273	0.2353	-0.054
Mof_C 	C 	0.142	0.6395	0.6085	0.316
Mof_C 	C 	0.329	0.5655	0.5525	-0.055
Mof_C 	C 	0.9111	0.3125	0.7553	-0.021
Mof_C 	C 	0.63	0.5098	0.7782	0.33
Mof_O 	O 	0.7598	0.1732	0.0872	-0.273
Mof_O 	O 	0.1621	0.6613	0.6805	-0.29
Mof_O 	O 	0.7605	0.5633	0.7657	-0.295
Mof_O 	O 	0.0202	0.3268	0.4128	-0.275
Mof_O 	O 	0.9105	0.0633	0.2657	-0.292
Mof_O 	O 	0.1957	0.0567	0.3019	-0.286
Mof_O 	O 	0.4457	0.5567	0.8019	-0.287
Mof_O 	O 	0.4961	0.1613	0.1805	-0.29
Mof_O 	O 	0.8043	0.9433	0.6981	-0.286
Mof_O 	O 	0.2402	0.8268	0.9128	-0.273
Mof_O 	O 	0.5039	0.8387	0.8195	-0.29
Mof_O 	O 	0.5543	0.4433	0.1981	-0.287
Mof_O 	O 	0.9798	0.6732	0.5872	-0.275
Mof_O 	O 	0.0895	0.9367	0.7343	-0.292
Mof_O 	O 	0.2395	0.4367	0.2343	-0.295
Mof_O 	O 	0.8379	0.3387	0.3195	-0.29
_end
