data_functionalizedCrystal
_audit_creation_method	'EQeq! by Chris Wilmer'
_symmetry_space_group_name_H-M	'P1'
_symmetry_Int_Tables_number	1
_symmetry_cell_setting	triclinic
loop_
_symmetry_equiv_pos_as_xyz
  x,y,z
_cell_length_a	9.1004
_cell_length_b	9.3972
_cell_length_c	14.9287
_cell_angle_alpha	82.088
_cell_angle_beta	85.458
_cell_angle_gamma	65.335
loop_
_atom_site_label
_atom_site_type_symbol
_atom_site_fract_x
_atom_site_fract_y
_atom_site_fract_z
_atom_site_charge
Mof_C 	C 	0.6148	0.8443	0.1965	0.332
Mof_C 	C 	0.6415	0.657	0.05434	0.217
Mof_C 	C 	0.2845	0.8485	0.02449	0.187
Mof_C 	C 	0.0658	0.8787	0.17975	0.125
Mof_C 	C 	0.2429	0.7753	0.19123	-0.041
Mof_H 	H 	0.2506	0.6811	0.2317	0.04
Mof_C 	C 	0.3391	0.8473	0.23366	-0.092
Mof_H 	H 	0.32	0.8438	0.2986	0.069
Mof_H 	H 	0.3094	0.956	0.2082	0.085
Mof_C 	C 	0.5185	0.7447	0.21089	-0.121
Mof_H 	H 	0.5631	0.6651	0.2628	0.083
Mof_C 	C 	0.5155	0.6569	0.12898	-0.091
Mof_H 	H 	0.5477	0.5462	0.1536	0.066
Mof_C 	C 	0.3355	0.7177	0.10195	-0.086
Mof_H 	H 	0.3147	0.6294	0.0872	0.029
Mof_C 	C 	0.4453	0.2693	0.23244	-0.009
Mof_H 	H 	0.386	0.2578	0.1882	-0
Mof_C 	C 	0.3827	0.3628	0.29895	-0.01
Mof_H 	H 	0.2741	0.4259	0.3093	0.015
Mof_C 	C 	0.6457	0.2432	0.30987	0.092
Mof_H 	H 	0.75	0.2113	0.3301	-0.019
Mof_C 	C 	0.5055	0.4251	0.4257	0.08
Mof_C 	C 	0.6404	0.4275	0.4547	-0.068
Mof_H 	H 	0.7384	0.3791	0.4241	0.06
Mof_C 	C 	0.3651	0.4982	0.4698	-0.068
Mof_H 	H 	0.2704	0.4993	0.4498	0.05
Mof_Co	Co	0.76592	0.02557	0.16199	1.119
Mof_N 	N 	0.6108	0.1933	0.24016	-0.25
Mof_N 	N 	0.5117	0.3465	0.34889	-0.138
Mof_O 	O 	0.58338	0.95454	0.13101	-0.476
Mof_O 	O 	0.72148	0.8257	0.24974	-0.332
Mof_O 	O 	0.77931	0.548	0.0678	-0.431
Mof_O 	O 	0.60703	0.76076	0.98805	-0.267
Mof_O 	O 	0.2412	0.8241	0.95238	-0.291
Mof_O 	O 	0.28554	0.97934	0.03652	-0.381
Mof_O 	O 	0.9865	0.8402	0.12934	-0.287
Mof_O 	O 	0.9936	0.9992	0.21963	-0.22
Mof_C 	C 	0.3852	0.1557	0.8035	0.341
Mof_C 	C 	0.3585	0.343	0.94566	0.532
Mof_C 	C 	0.7155	0.1515	0.97551	0.508
Mof_C 	C 	0.9342	0.1213	0.82025	0.435
Mof_C 	C 	0.7571	0.2247	0.80877	-0.142
Mof_H 	H 	0.7494	0.3189	0.7683	0.083
Mof_C 	C 	0.6609	0.1527	0.76634	-0.019
Mof_H 	H 	0.68	0.1562	0.7014	0.036
Mof_H 	H 	0.6906	0.044	0.7918	0.046
Mof_C 	C 	0.4815	0.2553	0.78911	-0.133
Mof_H 	H 	0.4369	0.3349	0.7372	0.08
Mof_C 	C 	0.4845	0.3431	0.87102	-0.147
Mof_H 	H 	0.4523	0.4538	0.8464	0.091
Mof_C 	C 	0.6645	0.2823	0.89805	-0.116
Mof_H 	H 	0.6853	0.3706	0.9128	0.101
Mof_C 	C 	0.5547	0.7307	0.76756	0.013
Mof_H 	H 	0.614	0.7422	0.8118	0.046
Mof_C 	C 	0.6173	0.6372	0.70105	0.007
Mof_H 	H 	0.7259	0.5741	0.6907	0.039
Mof_C 	C 	0.3543	0.7568	0.69013	0.11
Mof_H 	H 	0.25	0.7887	0.6699	0.001
Mof_C 	C 	0.4945	0.5749	0.5743	0.107
Mof_C 	C 	0.3596	0.5725	0.5453	-0.093
Mof_H 	H 	0.2616	0.6209	0.5759	0.065
Mof_C 	C 	0.6349	0.5018	0.5302	-0.09
Mof_H 	H 	0.7296	0.5007	0.5502	0.076
Mof_Co	Co	0.23408	0.97443	0.83801	1.21
Mof_N 	N 	0.3892	0.8067	0.75984	-0.222
Mof_N 	N 	0.4883	0.6535	0.65111	-0.138
Mof_O 	O 	0.41662	0.04546	0.86899	-0.525
Mof_O 	O 	0.27852	0.1743	0.75026	-0.394
Mof_O 	O 	0.22069	0.452	0.9322	-0.46
Mof_O 	O 	0.39297	0.23924	0.01195	-0.605
Mof_O 	O 	0.7588	0.1759	0.04762	-0.559
Mof_O 	O 	0.71446	0.02066	0.96348	-0.429
Mof_O 	O 	0.0135	0.1598	0.87066	-0.46
Mof_O 	O 	0.0064	0.0008	0.78037	-0.477
Mof_Co	Co	0.5	0	-0	1.106
Mof_Co	Co	-0	0.5	-0	1.005
_end
