data_functionalizedCrystal
_audit_creation_method	'EQeq! by Chris Wilmer'
_symmetry_space_group_name_H-M	'P1'
_symmetry_Int_Tables_number	1
_symmetry_cell_setting	triclinic
loop_
_symmetry_equiv_pos_as_xyz
  x,y,z
_cell_length_a	17.8892
_cell_length_b	17.8892
_cell_length_c	52.1012
_cell_angle_alpha	90
_cell_angle_beta	90
_cell_angle_gamma	120
loop_
_atom_site_label
_atom_site_type_symbol
_atom_site_fract_x
_atom_site_fract_y
_atom_site_fract_z
_atom_site_charge
Mof_C 	C 	0.8852	0.2503	0.1572	-0.008
Mof_H 	H 	0.0574	0.4089	0.483	0.055
Mof_O 	O 	0.4934	0.31	0.1199	-0.286
Mof_C 	C 	0.55187	0.58363	0.49053	-0.008
Mof_H 	H 	0.72407	0.74223	0.81633	0.053
Mof_O 	O 	0.16007	0.64333	0.45323	-0.285
Mof_C 	C 	0.21853	0.91697	0.82387	-0.008
Mof_H 	H 	0.39073	0.07557	0.14967	0.049
Mof_O 	O 	0.82673	0.97667	0.78657	-0.275
Mof_C 	C 	0.7497	0.6349	0.1572	-0.007
Mof_H 	H 	0.5911	0.6485	0.483	0.054
Mof_O 	O 	0.69	0.1834	0.1199	-0.286
Mof_C 	C 	0.41637	0.96823	0.49053	0.025
Mof_H 	H 	0.25777	0.98183	0.81633	0.055
Mof_O 	O 	0.35667	0.51673	0.45323	-0.287
Mof_C 	C 	0.08303	0.30157	0.82387	-0.01
Mof_H 	H 	0.92443	0.31517	0.14967	0.053
Mof_O 	O 	0.02333	0.85007	0.78657	-0.292
Mof_C 	C 	0.3651	0.1148	0.1572	-0.011
Mof_H 	H 	0.3515	0.9426	0.483	0.046
Mof_O 	O 	0.8166	0.5066	0.1199	-0.284
Mof_C 	C 	0.03177	0.44813	0.49053	-0.044
Mof_H 	H 	0.01817	0.27593	0.81633	0.046
Mof_O 	O 	0.48327	0.83993	0.45323	-0.286
Mof_C 	C 	0.69843	0.78147	0.82387	-0.009
Mof_H 	H 	0.68483	0.60927	0.14967	0.051
Mof_O 	O 	0.14993	0.17327	0.78657	-0.29
Mof_C 	C 	0.2503	0.8852	0.8428	-0.009
Mof_H 	H 	0.4089	0.0574	0.517	0.054
Mof_O 	O 	0.31	0.4934	0.8801	-0.287
Mof_C 	C 	0.91697	0.21853	0.17613	-0.009
Mof_H 	H 	0.07557	0.39073	0.85033	0.048
Mof_O 	O 	0.97667	0.82673	0.21343	-0.276
Mof_C 	C 	0.58363	0.55187	0.50947	-0.009
Mof_H 	H 	0.74223	0.72407	0.18367	0.052
Mof_O 	O 	0.64333	0.16007	0.54677	-0.286
Mof_C 	C 	0.6349	0.7497	0.8428	-0.008
Mof_H 	H 	0.6485	0.5911	0.517	0.053
Mof_O 	O 	0.1834	0.69	0.8801	-0.287
Mof_C 	C 	0.30157	0.08303	0.17613	-0.01
Mof_H 	H 	0.31517	0.92443	0.85033	0.053
Mof_O 	O 	0.85007	0.02333	0.21343	-0.292
Mof_C 	C 	0.96823	0.41637	0.50947	0.024
Mof_H 	H 	0.98183	0.25777	0.18367	0.054
Mof_O 	O 	0.51673	0.35667	0.54677	-0.287
Mof_C 	C 	0.1148	0.3651	0.8428	-0.011
Mof_H 	H 	0.9426	0.3515	0.517	0.046
Mof_O 	O 	0.5066	0.8166	0.8801	-0.284
Mof_C 	C 	0.78147	0.69843	0.17613	-0.009
Mof_H 	H 	0.60927	0.68483	0.85033	0.051
Mof_O 	O 	0.17327	0.14993	0.21343	-0.29
Mof_C 	C 	0.44813	0.03177	0.50947	-0.044
Mof_H 	H 	0.27593	0.01817	0.18367	0.046
Mof_O 	O 	0.83993	0.48327	0.54677	-0.286
Mof_C 	C 	0.1148	0.7497	0.8428	-0.01
Mof_H 	H 	0.9426	0.5911	0.517	0.047
Mof_O 	O 	0.5066	0.69	0.8801	-0.285
Mof_C 	C 	0.78147	0.08303	0.17613	-0.01
Mof_H 	H 	0.60927	0.92443	0.85033	0.054
Mof_O 	O 	0.17327	0.02333	0.21343	-0.296
Mof_C 	C 	0.44813	0.41637	0.50947	-0.01
Mof_H 	H 	0.27593	0.25777	0.18367	0.049
Mof_O 	O 	0.83993	0.35667	0.54677	-0.287
Mof_C 	C 	0.2503	0.3651	0.8428	-0.011
Mof_H 	H 	0.4089	0.3515	0.517	0.049
Mof_O 	O 	0.31	0.8166	0.8801	-0.285
Mof_C 	C 	0.91697	0.69843	0.17613	-0.008
Mof_H 	H 	0.07557	0.68483	0.85033	0.049
Mof_O 	O 	0.97667	0.14993	0.21343	-0.279
Mof_C 	C 	0.58363	0.03177	0.50947	-0.043
Mof_H 	H 	0.74223	0.01817	0.18367	0.048
Mof_O 	O 	0.64333	0.48327	0.54677	-0.285
Mof_C 	C 	0.6349	0.8852	0.8428	-0.008
Mof_H 	H 	0.6485	0.0574	0.517	0.056
Mof_O 	O 	0.1834	0.4934	0.8801	-0.288
Mof_C 	C 	0.30157	0.21853	0.17613	-0.01
Mof_H 	H 	0.31517	0.39073	0.85033	0.05
Mof_O 	O 	0.85007	0.82673	0.21343	-0.283
Mof_C 	C 	0.96823	0.55187	0.50947	0.024
Mof_H 	H 	0.98183	0.72407	0.18367	0.056
Mof_O 	O 	0.51673	0.16007	0.54677	-0.287
Mof_C 	C 	0.7497	0.1148	0.1572	-0.01
Mof_H 	H 	0.5911	0.9426	0.483	0.047
Mof_O 	O 	0.69	0.5066	0.1199	-0.285
Mof_C 	C 	0.41637	0.44813	0.49053	-0.01
Mof_H 	H 	0.25777	0.27593	0.81633	0.049
Mof_O 	O 	0.35667	0.83993	0.45323	-0.287
Mof_C 	C 	0.08303	0.78147	0.82387	-0.01
Mof_H 	H 	0.92443	0.60927	0.14967	0.054
Mof_O 	O 	0.02333	0.17327	0.78657	-0.296
Mof_C 	C 	0.3651	0.2503	0.1572	-0.011
Mof_H 	H 	0.3515	0.4089	0.483	0.049
Mof_O 	O 	0.8166	0.31	0.1199	-0.285
Mof_C 	C 	0.03177	0.58363	0.49053	-0.043
Mof_H 	H 	0.01817	0.74223	0.81633	0.048
Mof_O 	O 	0.48327	0.64333	0.45323	-0.285
Mof_C 	C 	0.69843	0.91697	0.82387	-0.008
Mof_H 	H 	0.68483	0.07557	0.14967	0.049
Mof_O 	O 	0.14993	0.97667	0.78657	-0.279
Mof_C 	C 	0.8852	0.6349	0.1572	-0.008
Mof_H 	H 	0.0574	0.6485	0.483	0.056
Mof_O 	O 	0.4934	0.1834	0.1199	-0.288
Mof_C 	C 	0.55187	0.96823	0.49053	0.024
Mof_H 	H 	0.72407	0.98183	0.81633	0.056
Mof_O 	O 	0.16007	0.51673	0.45323	-0.287
Mof_C 	C 	0.21853	0.30157	0.82387	-0.01
Mof_H 	H 	0.39073	0.31517	0.14967	0.05
Mof_O 	O 	0.82673	0.85007	0.78657	-0.283
Mof_C 	C 	0.5695	0.4305	0.0374	0.343
Mof_C 	C 	0.7666	0.2334	0.1276	0.302
Mof_C 	C 	0.5429	0.4571	0.9917	-0.005
Mof_C 	C 	0.4905	0.5095	0.0262	-0.007
Mof_C 	C 	0.5336	0.4664	0.018	-0.075
Mof_C 	C 	0.8014	0.1986	0.1477	-0.06
Mof_H 	H 	0.0903	0.9097	0.3478	0.046
Mof_O 	O 	0.5587	0.4413	0.0609	-0.316
Mof_O 	O 	0.6078	0.3922	0.0287	-0.457
Mof_C 	C 	0.23617	0.76383	0.37073	0.343
Mof_C 	C 	0.43327	0.56673	0.46093	0.302
Mof_C 	C 	0.20957	0.79043	0.32503	-0.005
Mof_C 	C 	0.15717	0.84283	0.35953	-0.007
Mof_C 	C 	0.20027	0.79973	0.35133	-0.075
Mof_C 	C 	0.46807	0.53193	0.48103	-0.06
Mof_H 	H 	0.75697	0.24303	0.68113	0.045
Mof_O 	O 	0.22537	0.77463	0.39423	-0.316
Mof_O 	O 	0.27447	0.72553	0.36203	-0.457
Mof_C 	C 	0.90283	0.09717	0.70407	0.342
Mof_C 	C 	0.09993	0.90007	0.79427	0.302
Mof_C 	C 	0.87623	0.12377	0.65837	-0.005
Mof_C 	C 	0.82383	0.17617	0.69287	-0.007
Mof_C 	C 	0.86693	0.13307	0.68467	-0.075
Mof_C 	C 	0.13473	0.86527	0.81437	-0.06
Mof_H 	H 	0.42363	0.57637	0.01447	0.045
Mof_O 	O 	0.89203	0.10797	0.72757	-0.316
Mof_O 	O 	0.94113	0.05887	0.69537	-0.455
Mof_C 	C 	0.5695	0.139	0.0374	0.35
Mof_C 	C 	0.7666	0.5332	0.1276	0.303
Mof_C 	C 	0.5429	0.0858	0.9917	0.011
Mof_C 	C 	0.4905	0.981	0.0262	0.023
Mof_C 	C 	0.5336	0.0672	0.018	-0.103
Mof_C 	C 	0.8014	0.6028	0.1477	-0.059
Mof_H 	H 	0.0903	0.1806	0.3478	0.04
Mof_O 	O 	0.5587	0.1174	0.0609	-0.322
Mof_O 	O 	0.6078	0.2156	0.0287	-0.46
Mof_C 	C 	0.23617	0.47233	0.37073	0.342
Mof_C 	C 	0.43327	0.86653	0.46093	0.309
Mof_C 	C 	0.20957	0.41913	0.32503	-0.007
Mof_C 	C 	0.15717	0.31433	0.35953	-0.009
Mof_C 	C 	0.20027	0.40053	0.35133	-0.076
Mof_C 	C 	0.46807	0.93613	0.48103	-0.077
Mof_H 	H 	0.75697	0.51393	0.68113	0.046
Mof_O 	O 	0.22537	0.45073	0.39423	-0.318
Mof_O 	O 	0.27447	0.54893	0.36203	-0.458
Mof_C 	C 	0.90283	0.80567	0.70407	0.342
Mof_C 	C 	0.09993	0.19987	0.79427	0.302
Mof_C 	C 	0.87623	0.75247	0.65837	-0.004
Mof_C 	C 	0.82383	0.64767	0.69287	-0.007
Mof_C 	C 	0.86693	0.73387	0.68467	-0.072
Mof_C 	C 	0.13473	0.26947	0.81437	-0.063
Mof_H 	H 	0.42363	0.84727	0.01447	0.051
Mof_O 	O 	0.89203	0.78407	0.72757	-0.312
Mof_O 	O 	0.94113	0.88227	0.69537	-0.444
Mof_C 	C 	0.861	0.4305	0.0374	0.335
Mof_C 	C 	0.4668	0.2334	0.1276	0.302
Mof_C 	C 	0.9142	0.4571	0.9917	-0.022
Mof_C 	C 	0.019	0.5095	0.0262	-0.037
Mof_C 	C 	0.9328	0.4664	0.018	-0.047
Mof_C 	C 	0.3972	0.1986	0.1477	-0.061
Mof_H 	H 	0.8194	0.9097	0.3478	0.051
Mof_O 	O 	0.8826	0.4413	0.0609	-0.31
Mof_O 	O 	0.7844	0.3922	0.0287	-0.455
Mof_C 	C 	0.52767	0.76383	0.37073	0.343
Mof_C 	C 	0.13347	0.56673	0.46093	0.295
Mof_C 	C 	0.58087	0.79043	0.32503	-0.004
Mof_C 	C 	0.68567	0.84283	0.35953	-0.005
Mof_C 	C 	0.59947	0.79973	0.35133	-0.074
Mof_C 	C 	0.06387	0.53193	0.48103	-0.043
Mof_H 	H 	0.48607	0.24303	0.68113	0.045
Mof_O 	O 	0.54927	0.77463	0.39423	-0.314
Mof_O 	O 	0.45107	0.72553	0.36203	-0.457
Mof_C 	C 	0.19433	0.09717	0.70407	0.342
Mof_C 	C 	0.80013	0.90007	0.79427	0.303
Mof_C 	C 	0.24753	0.12377	0.65837	-0.006
Mof_C 	C 	0.35233	0.17617	0.69287	-0.008
Mof_C 	C 	0.26613	0.13307	0.68467	-0.078
Mof_C 	C 	0.73053	0.86527	0.81437	-0.057
Mof_H 	H 	0.15273	0.57637	0.01447	0.04
Mof_O 	O 	0.21593	0.10797	0.72757	-0.319
Mof_O 	O 	0.11773	0.05887	0.69537	-0.466
Mof_C 	C 	0.4305	0.5695	0.9626	0.343
Mof_C 	C 	0.2334	0.7666	0.8724	0.302
Mof_C 	C 	0.4571	0.5429	0.0083	-0.005
Mof_C 	C 	0.5095	0.4905	0.9738	-0.007
Mof_C 	C 	0.4664	0.5336	0.982	-0.075
Mof_C 	C 	0.1986	0.8014	0.8523	-0.06
Mof_H 	H 	0.9097	0.0903	0.6522	0.046
Mof_O 	O 	0.4413	0.5587	0.9391	-0.316
Mof_O 	O 	0.3922	0.6078	0.9713	-0.457
Mof_C 	C 	0.09717	0.90283	0.29593	0.342
Mof_C 	C 	0.90007	0.09993	0.20573	0.302
Mof_C 	C 	0.12377	0.87623	0.34163	-0.005
Mof_C 	C 	0.17617	0.82383	0.30713	-0.007
Mof_C 	C 	0.13307	0.86693	0.31533	-0.075
Mof_C 	C 	0.86527	0.13473	0.18563	-0.06
Mof_H 	H 	0.57637	0.42363	0.98553	0.045
Mof_O 	O 	0.10797	0.89203	0.27243	-0.316
Mof_O 	O 	0.05887	0.94113	0.30463	-0.455
Mof_C 	C 	0.76383	0.23617	0.62927	0.343
Mof_C 	C 	0.56673	0.43327	0.53907	0.302
Mof_C 	C 	0.79043	0.20957	0.67497	-0.005
Mof_C 	C 	0.84283	0.15717	0.64047	-0.007
Mof_C 	C 	0.79973	0.20027	0.64867	-0.075
Mof_C 	C 	0.53193	0.46807	0.51897	-0.06
Mof_H 	H 	0.24303	0.75697	0.31887	0.045
Mof_O 	O 	0.77463	0.22537	0.60577	-0.316
Mof_O 	O 	0.72553	0.27447	0.63797	-0.457
Mof_C 	C 	0.139	0.5695	0.9626	0.35
Mof_C 	C 	0.5332	0.7666	0.8724	0.303
Mof_C 	C 	0.0858	0.5429	0.0083	0.011
Mof_C 	C 	0.981	0.4905	0.9738	0.023
Mof_C 	C 	0.0672	0.5336	0.982	-0.103
Mof_C 	C 	0.6028	0.8014	0.8523	-0.059
Mof_H 	H 	0.1806	0.0903	0.6522	0.04
Mof_O 	O 	0.1174	0.5587	0.9391	-0.322
Mof_O 	O 	0.2156	0.6078	0.9713	-0.46
Mof_C 	C 	0.80567	0.90283	0.29593	0.342
Mof_C 	C 	0.19987	0.09993	0.20573	0.302
Mof_C 	C 	0.75247	0.87623	0.34163	-0.004
Mof_C 	C 	0.64767	0.82383	0.30713	-0.007
Mof_C 	C 	0.73387	0.86693	0.31533	-0.072
Mof_C 	C 	0.26947	0.13473	0.18563	-0.063
Mof_H 	H 	0.84727	0.42363	0.98553	0.051
Mof_O 	O 	0.78407	0.89203	0.27243	-0.312
Mof_O 	O 	0.88227	0.94113	0.30463	-0.444
Mof_C 	C 	0.47233	0.23617	0.62927	0.342
Mof_C 	C 	0.86653	0.43327	0.53907	0.309
Mof_C 	C 	0.41913	0.20957	0.67497	-0.007
Mof_C 	C 	0.31433	0.15717	0.64047	-0.009
Mof_C 	C 	0.40053	0.20027	0.64867	-0.076
Mof_C 	C 	0.93613	0.46807	0.51897	-0.077
Mof_H 	H 	0.51393	0.75697	0.31887	0.046
Mof_O 	O 	0.45073	0.22537	0.60577	-0.318
Mof_O 	O 	0.54893	0.27447	0.63797	-0.458
Mof_C 	C 	0.4305	0.861	0.9626	0.335
Mof_C 	C 	0.2334	0.4668	0.8724	0.302
Mof_C 	C 	0.4571	0.9142	0.0083	-0.022
Mof_C 	C 	0.5095	0.019	0.9738	-0.037
Mof_C 	C 	0.4664	0.9328	0.982	-0.047
Mof_C 	C 	0.1986	0.3972	0.8523	-0.061
Mof_H 	H 	0.9097	0.8194	0.6522	0.051
Mof_O 	O 	0.4413	0.8826	0.9391	-0.31
Mof_O 	O 	0.3922	0.7844	0.9713	-0.455
Mof_C 	C 	0.09717	0.19433	0.29593	0.342
Mof_C 	C 	0.90007	0.80013	0.20573	0.303
Mof_C 	C 	0.12377	0.24753	0.34163	-0.006
Mof_C 	C 	0.17617	0.35233	0.30713	-0.008
Mof_C 	C 	0.13307	0.26613	0.31533	-0.078
Mof_C 	C 	0.86527	0.73053	0.18563	-0.057
Mof_H 	H 	0.57637	0.15273	0.98553	0.04
Mof_O 	O 	0.10797	0.21593	0.27243	-0.319
Mof_O 	O 	0.05887	0.11773	0.30463	-0.466
Mof_C 	C 	0.76383	0.52767	0.62927	0.343
Mof_C 	C 	0.56673	0.13347	0.53907	0.295
Mof_C 	C 	0.79043	0.58087	0.67497	-0.004
Mof_C 	C 	0.84283	0.68567	0.64047	-0.005
Mof_C 	C 	0.79973	0.59947	0.64867	-0.074
Mof_C 	C 	0.53193	0.06387	0.51897	-0.043
Mof_H 	H 	0.24303	0.48607	0.31887	0.045
Mof_O 	O 	0.77463	0.54927	0.60577	-0.314
Mof_O 	O 	0.72553	0.45107	0.63797	-0.457
Mof_Cd	Cd	0.2008	0.6004	0.905	0.423
Mof_H 	H 	0.6993	0.84965	0.38	0.052
Mof_Cd	Cd	0.86747	0.93373	0.23833	0.445
Mof_H 	H 	0.36597	0.18298	0.71333	0.048
Mof_Cd	Cd	0.53413	0.26707	0.57167	0.422
Mof_H 	H 	0.03263	0.51632	0.04667	0.051
Mof_Cd	Cd	0.3996	0.6004	0.905	0.424
Mof_H 	H 	0.15035	0.84965	0.38	0.049
Mof_Cd	Cd	0.06627	0.93373	0.23833	0.429
Mof_H 	H 	0.81702	0.18298	0.71333	0.049
Mof_Cd	Cd	0.73293	0.26707	0.57167	0.424
Mof_H 	H 	0.48368	0.51632	0.04667	0.049
Mof_Cd	Cd	0.3996	0.7992	0.905	0.426
Mof_H 	H 	0.15035	0.3007	0.38	0.046
Mof_Cd	Cd	0.06627	0.13253	0.23833	0.411
Mof_H 	H 	0.81702	0.63403	0.71333	0.051
Mof_Cd	Cd	0.73293	0.46587	0.57167	0.426
Mof_H 	H 	0.48368	0.96737	0.04667	0.047
Mof_Cd	Cd	0.6004	0.2008	0.095	0.423
Mof_H 	H 	0.84965	0.6993	0.62	0.052
Mof_Cd	Cd	0.26707	0.53413	0.42833	0.422
Mof_H 	H 	0.51632	0.03263	0.95333	0.051
Mof_Cd	Cd	0.93373	0.86747	0.76167	0.445
Mof_H 	H 	0.18298	0.36597	0.28667	0.048
Mof_Cd	Cd	0.6004	0.3996	0.095	0.424
Mof_H 	H 	0.84965	0.15035	0.62	0.049
Mof_Cd	Cd	0.26707	0.73293	0.42833	0.424
Mof_H 	H 	0.51632	0.48368	0.95333	0.049
Mof_Cd	Cd	0.93373	0.06627	0.76167	0.429
Mof_H 	H 	0.18298	0.81702	0.28667	0.049
Mof_Cd	Cd	0.7992	0.3996	0.095	0.426
Mof_H 	H 	0.3007	0.15035	0.62	0.046
Mof_Cd	Cd	0.46587	0.73293	0.42833	0.426
Mof_H 	H 	0.96737	0.48368	0.95333	0.047
Mof_Cd	Cd	0.13253	0.06627	0.76167	0.411
Mof_H 	H 	0.63403	0.81702	0.28667	0.051
Mof_O 	O 	0.33333	0.66667	0.9196	-0.484
Mof_O 	O 	6.99279e-33	0	0.25293	-0.502
Mof_O 	O 	0.66667	0.33333	0.58627	-0.484
Mof_O 	O 	0.66667	0.33333	0.0804	-0.484
Mof_O 	O 	0.33333	0.66667	0.41373	-0.484
Mof_O 	O 	-2.79711e-32	0	0.74707	-0.502
Mof_Zn	Zn	-6.99279e-33	-1.39856e-32	0.2901	1.216
Mof_Zn	Zn	0.66667	0.33333	0.62343	1.224
Mof_Zn	Zn	0.33333	0.66667	0.95677	1.224
Mof_Zn	Zn	2.79711e-32	0	0.7099	1.216
Mof_Zn	Zn	0.66667	0.33333	0.04323	1.224
Mof_Zn	Zn	0.33333	0.66667	0.37657	1.224
_end
