# CIF file generated by openbabel 3.1.0, see https://openbabel.org
data_I
_chemical_name_common 'image0'
_cell_length_a 22.5557
_cell_length_b 22.5557
_cell_length_c 22.5557
_cell_angle_alpha 90
_cell_angle_beta 90
_cell_angle_gamma 90
_space_group_name_H-M_alt 'P 1'
_space_group_name_Hall 'P 1'
loop_
    _symmetry_equiv_pos_as_xyz
    x,y,z
loop_
    _atom_site_label
    _atom_site_type_symbol
    _atom_site_fract_x
    _atom_site_fract_y
    _atom_site_fract_z
    _atom_site_occupancy
    O1       O        0.43701    0.24728    0.24567    1.000
    O2       O        0.34068    0.25989    0.24766    1.000
    N1       N        0.43330    0.13360    0.23400    1.000
    N2       N        0.42370    0.07560    0.23280    1.000
    C1       C        0.38010    0.16270    0.24960    1.000
    C2       C        0.38450    0.22775    0.24780    1.000
    N3       N        0.23790    0.36480    0.06770    1.000
    O3       O        0.56299    0.75272    0.24567    1.000
    O4       O        0.65932    0.74011    0.24766    1.000
    N4       N        0.56670    0.86640    0.23400    1.000
    N5       N        0.57630    0.92440    0.23280    1.000
    C3       C        0.61990    0.83730    0.24960    1.000
    C4       C        0.61550    0.77225    0.24780    1.000
    N6       N        0.76210    0.63520    0.06770    1.000
    O5       O        0.56299    0.24728    0.75433    1.000
    O6       O        0.65932    0.25989    0.75234    1.000
    N7       N        0.56670    0.13360    0.76600    1.000
    N8       N        0.57630    0.07560    0.76720    1.000
    C5       C        0.61990    0.16270    0.75040    1.000
    C6       C        0.61550    0.22775    0.75220    1.000
    N9       N        0.76210    0.36480    0.93230    1.000
    O7       O        0.43701    0.75272    0.75433    1.000
    O8       O        0.34068    0.74011    0.75234    1.000
    N10      N        0.43330    0.86640    0.76600    1.000
    N11      N        0.42370    0.92440    0.76720    1.000
    C7       C        0.38010    0.83730    0.75040    1.000
    C8       C        0.38450    0.77225    0.75220    1.000
    N12      N        0.23790    0.63520    0.93230    1.000
    O9       O        0.24567    0.43701    0.24728    1.000
    O10      O        0.24766    0.34068    0.25989    1.000
    N13      N        0.23400    0.43330    0.13360    1.000
    N14      N        0.23280    0.42370    0.07560    1.000
    C9       C        0.24960    0.38010    0.16270    1.000
    C10      C        0.24780    0.38450    0.22775    1.000
    N15      N        0.06770    0.23790    0.36480    1.000
    O11      O        0.24567    0.56299    0.75272    1.000
    O12      O        0.24766    0.65932    0.74011    1.000
    N16      N        0.23400    0.56670    0.86640    1.000
    N17      N        0.23280    0.57630    0.92440    1.000
    C11      C        0.24960    0.61990    0.83730    1.000
    C12      C        0.24780    0.61550    0.77225    1.000
    N18      N        0.06770    0.76210    0.63520    1.000
    O13      O        0.75433    0.56299    0.24728    1.000
    O14      O        0.75234    0.65932    0.25989    1.000
    N19      N        0.76600    0.56670    0.13360    1.000
    N20      N        0.76720    0.57630    0.07560    1.000
    C13      C        0.75040    0.61990    0.16270    1.000
    C14      C        0.75220    0.61550    0.22775    1.000
    N21      N        0.93230    0.76210    0.36480    1.000
    O15      O        0.75433    0.43701    0.75272    1.000
    O16      O        0.75234    0.34068    0.74011    1.000
    N22      N        0.76600    0.43330    0.86640    1.000
    N23      N        0.76720    0.42370    0.92440    1.000
    C15      C        0.75040    0.38010    0.83730    1.000
    C16      C        0.75220    0.38450    0.77225    1.000
    N24      N        0.93230    0.23790    0.63520    1.000
    O17      O        0.24728    0.24567    0.43701    1.000
    O18      O        0.25989    0.24766    0.34068    1.000
    N25      N        0.13360    0.23400    0.43330    1.000
    N26      N        0.07560    0.23280    0.42370    1.000
    C17      C        0.16270    0.24960    0.38010    1.000
    C18      C        0.22775    0.24780    0.38450    1.000
    N27      N        0.36480    0.06770    0.23790    1.000
    O19      O        0.75272    0.24567    0.56299    1.000
    O20      O        0.74011    0.24766    0.65932    1.000
    N28      N        0.86640    0.23400    0.56670    1.000
    N29      N        0.92440    0.23280    0.57630    1.000
    C19      C        0.83730    0.24960    0.61990    1.000
    C20      C        0.77225    0.24780    0.61550    1.000
    N30      N        0.63520    0.06770    0.76210    1.000
    O21      O        0.24728    0.75433    0.56299    1.000
    O22      O        0.25989    0.75234    0.65932    1.000
    N31      N        0.13360    0.76600    0.56670    1.000
    N32      N        0.07560    0.76720    0.57630    1.000
    C21      C        0.16270    0.75040    0.61990    1.000
    C22      C        0.22775    0.75220    0.61550    1.000
    N33      N        0.36480    0.93230    0.76210    1.000
    O23      O        0.75272    0.75433    0.43701    1.000
    O24      O        0.74011    0.75234    0.34068    1.000
    N34      N        0.86640    0.76600    0.43330    1.000
    N35      N        0.92440    0.76720    0.42370    1.000
    C23      C        0.83730    0.75040    0.38010    1.000
    C24      C        0.77225    0.75220    0.38450    1.000
    N36      N        0.63520    0.93230    0.23790    1.000
    O25      O        0.74728    0.93701    0.25433    1.000
    O26      O        0.75989    0.84068    0.25234    1.000
    N37      N        0.63360    0.93330    0.26600    1.000
    N38      N        0.57560    0.92370    0.26720    1.000
    C25      C        0.66270    0.88010    0.25040    1.000
    C26      C        0.72775    0.88450    0.25220    1.000
    N39      N        0.86480    0.73790    0.43230    1.000
    O27      O        0.25272    0.06299    0.25433    1.000
    O28      O        0.24011    0.15932    0.25234    1.000
    N40      N        0.36640    0.06670    0.26600    1.000
    N41      N        0.42440    0.07630    0.26720    1.000
    C27      C        0.33730    0.11990    0.25040    1.000
    C28      C        0.27225    0.11550    0.25220    1.000
    N42      N        0.13520    0.26210    0.43230    1.000
    O29      O        0.74728    0.06299    0.74567    1.000
    O30      O        0.75989    0.15932    0.74766    1.000
    N43      N        0.63360    0.06670    0.73400    1.000
    N44      N        0.57560    0.07630    0.73280    1.000
    C29      C        0.66270    0.11990    0.74960    1.000
    C30      C        0.72775    0.11550    0.74780    1.000
    N45      N        0.86480    0.26210    0.56770    1.000
    O31      O        0.25272    0.93701    0.74567    1.000
    O32      O        0.24011    0.84068    0.74766    1.000
    N46      N        0.36640    0.93330    0.73400    1.000
    N47      N        0.42440    0.92370    0.73280    1.000
    C31      C        0.33730    0.88010    0.74960    1.000
    C32      C        0.27225    0.88450    0.74780    1.000
    N48      N        0.13520    0.73790    0.56770    1.000
    O33      O        0.93701    0.74567    0.25272    1.000
    O34      O        0.84068    0.74766    0.24011    1.000
    N49      N        0.93330    0.73400    0.36640    1.000
    N50      N        0.92370    0.73280    0.42440    1.000
    C33      C        0.88010    0.74960    0.33730    1.000
    C34      C        0.88450    0.74780    0.27225    1.000
    N51      N        0.73790    0.56770    0.13520    1.000
    O35      O        0.06299    0.74567    0.74728    1.000
    O36      O        0.15932    0.74766    0.75989    1.000
    N52      N        0.06670    0.73400    0.63360    1.000
    N53      N        0.07630    0.73280    0.57560    1.000
    C35      C        0.11990    0.74960    0.66270    1.000
    C36      C        0.11550    0.74780    0.72775    1.000
    N54      N        0.26210    0.56770    0.86480    1.000
    O37      O        0.06299    0.25433    0.25272    1.000
    O38      O        0.15932    0.25234    0.24011    1.000
    N55      N        0.06670    0.26600    0.36640    1.000
    N56      N        0.07630    0.26720    0.42440    1.000
    C37      C        0.11990    0.25040    0.33730    1.000
    C38      C        0.11550    0.25220    0.27225    1.000
    N57      N        0.26210    0.43230    0.13520    1.000
    O39      O        0.93701    0.25433    0.74728    1.000
    O40      O        0.84068    0.25234    0.75989    1.000
    N58      N        0.93330    0.26600    0.63360    1.000
    N59      N        0.92370    0.26720    0.57560    1.000
    C39      C        0.88010    0.25040    0.66270    1.000
    C40      C        0.88450    0.25220    0.72775    1.000
    N60      N        0.73790    0.43230    0.86480    1.000
    O41      O        0.74567    0.74728    0.06299    1.000
    O42      O        0.74766    0.75989    0.15932    1.000
    N61      N        0.73400    0.63360    0.06670    1.000
    N62      N        0.73280    0.57560    0.07630    1.000
    C41      C        0.74960    0.66270    0.11990    1.000
    C42      C        0.74780    0.72775    0.11550    1.000
    N63      N        0.56770    0.86480    0.26210    1.000
    O43      O        0.74567    0.25272    0.93701    1.000
    O44      O        0.74766    0.24011    0.84068    1.000
    N64      N        0.73400    0.36640    0.93330    1.000
    N65      N        0.73280    0.42440    0.92370    1.000
    C43      C        0.74960    0.33730    0.88010    1.000
    C44      C        0.74780    0.27225    0.88450    1.000
    N66      N        0.56770    0.13520    0.73790    1.000
    O45      O        0.25433    0.74728    0.93701    1.000
    O46      O        0.25234    0.75989    0.84068    1.000
    N67      N        0.26600    0.63360    0.93330    1.000
    N68      N        0.26720    0.57560    0.92370    1.000
    C45      C        0.25040    0.66270    0.88010    1.000
    C46      C        0.25220    0.72775    0.88450    1.000
    N69      N        0.43230    0.86480    0.73790    1.000
    O47      O        0.25433    0.25272    0.06299    1.000
    O48      O        0.25234    0.24011    0.15932    1.000
    N70      N        0.26600    0.36640    0.06670    1.000
    N71      N        0.26720    0.42440    0.07630    1.000
    C47      C        0.25040    0.33730    0.11990    1.000
    C48      C        0.25220    0.27225    0.11550    1.000
    N72      N        0.43230    0.13520    0.26210    1.000
    O49      O        0.56299    0.75272    0.75433    1.000
    O50      O        0.65932    0.74011    0.75234    1.000
    N73      N        0.56670    0.86640    0.76600    1.000
    N74      N        0.57630    0.92440    0.76720    1.000
    C49      C        0.61990    0.83730    0.75040    1.000
    C50      C        0.61550    0.77225    0.75220    1.000
    N75      N        0.76210    0.63520    0.93230    1.000
    O51      O        0.43701    0.24728    0.75433    1.000
    O52      O        0.34068    0.25989    0.75234    1.000
    N76      N        0.43330    0.13360    0.76600    1.000
    N77      N        0.42370    0.07560    0.76720    1.000
    C51      C        0.38010    0.16270    0.75040    1.000
    C52      C        0.38450    0.22775    0.75220    1.000
    N78      N        0.23790    0.36480    0.93230    1.000
    O53      O        0.43701    0.75272    0.24567    1.000
    O54      O        0.34068    0.74011    0.24766    1.000
    N79      N        0.43330    0.86640    0.23400    1.000
    N80      N        0.42370    0.92440    0.23280    1.000
    C53      C        0.38010    0.83730    0.24960    1.000
    C54      C        0.38450    0.77225    0.24780    1.000
    N81      N        0.23790    0.63520    0.06770    1.000
    O55      O        0.56299    0.24728    0.24567    1.000
    O56      O        0.65932    0.25989    0.24766    1.000
    N82      N        0.56670    0.13360    0.23400    1.000
    N83      N        0.57630    0.07560    0.23280    1.000
    C55      C        0.61990    0.16270    0.24960    1.000
    C56      C        0.61550    0.22775    0.24780    1.000
    N84      N        0.76210    0.36480    0.06770    1.000
    O57      O        0.75433    0.56299    0.75272    1.000
    O58      O        0.75234    0.65932    0.74011    1.000
    N85      N        0.76600    0.56670    0.86640    1.000
    N86      N        0.76720    0.57630    0.92440    1.000
    C57      C        0.75040    0.61990    0.83730    1.000
    C58      C        0.75220    0.61550    0.77225    1.000
    N87      N        0.93230    0.76210    0.63520    1.000
    O59      O        0.75433    0.43701    0.24728    1.000
    O60      O        0.75234    0.34068    0.25989    1.000
    N88      N        0.76600    0.43330    0.13360    1.000
    N89      N        0.76720    0.42370    0.07560    1.000
    C59      C        0.75040    0.38010    0.16270    1.000
    C60      C        0.75220    0.38450    0.22775    1.000
    N90      N        0.93230    0.23790    0.36480    1.000
    O61      O        0.24567    0.43701    0.75272    1.000
    O62      O        0.24766    0.34068    0.74011    1.000
    N91      N        0.23400    0.43330    0.86640    1.000
    N92      N        0.23280    0.42370    0.92440    1.000
    C61      C        0.24960    0.38010    0.83730    1.000
    C62      C        0.24780    0.38450    0.77225    1.000
    N93      N        0.06770    0.23790    0.63520    1.000
    O63      O        0.24567    0.56299    0.24728    1.000
    O64      O        0.24766    0.65932    0.25989    1.000
    N94      N        0.23400    0.56670    0.13360    1.000
    N95      N        0.23280    0.57630    0.07560    1.000
    C63      C        0.24960    0.61990    0.16270    1.000
    C64      C        0.24780    0.61550    0.22775    1.000
    N96      N        0.06770    0.76210    0.36480    1.000
    O65      O        0.75272    0.75433    0.56299    1.000
    O66      O        0.74011    0.75234    0.65932    1.000
    N97      N        0.86640    0.76600    0.56670    1.000
    N98      N        0.92440    0.76720    0.57630    1.000
    C65      C        0.83730    0.75040    0.61990    1.000
    C66      C        0.77225    0.75220    0.61550    1.000
    N99      N        0.63520    0.93230    0.76210    1.000
    O67      O        0.24728    0.75433    0.43701    1.000
    O68      O        0.25989    0.75234    0.34068    1.000
    N100     N        0.13360    0.76600    0.43330    1.000
    N101     N        0.07560    0.76720    0.42370    1.000
    C67      C        0.16270    0.75040    0.38010    1.000
    C68      C        0.22775    0.75220    0.38450    1.000
    N102     N        0.36480    0.93230    0.23790    1.000
    O69      O        0.75272    0.24567    0.43701    1.000
    O70      O        0.74011    0.24766    0.34068    1.000
    N103     N        0.86640    0.23400    0.43330    1.000
    N104     N        0.92440    0.23280    0.42370    1.000
    C69      C        0.83730    0.24960    0.38010    1.000
    C70      C        0.77225    0.24780    0.38450    1.000
    N105     N        0.63520    0.06770    0.23790    1.000
    O71      O        0.24728    0.24567    0.56299    1.000
    O72      O        0.25989    0.24766    0.65932    1.000
    N106     N        0.13360    0.23400    0.56670    1.000
    N107     N        0.07560    0.23280    0.57630    1.000
    C71      C        0.16270    0.24960    0.61990    1.000
    C72      C        0.22775    0.24780    0.61550    1.000
    N108     N        0.36480    0.06770    0.76210    1.000
    O73      O        0.25272    0.06299    0.74567    1.000
    O74      O        0.24011    0.15932    0.74766    1.000
    N109     N        0.36640    0.06670    0.73400    1.000
    N110     N        0.42440    0.07630    0.73280    1.000
    C73      C        0.33730    0.11990    0.74960    1.000
    C74      C        0.27225    0.11550    0.74780    1.000
    N111     N        0.13520    0.26210    0.56770    1.000
    O75      O        0.74728    0.93701    0.74567    1.000
    O76      O        0.75989    0.84068    0.74766    1.000
    N112     N        0.63360    0.93330    0.73400    1.000
    N113     N        0.57560    0.92370    0.73280    1.000
    C75      C        0.66270    0.88010    0.74960    1.000
    C76      C        0.72775    0.88450    0.74780    1.000
    N114     N        0.86480    0.73790    0.56770    1.000
    O77      O        0.25272    0.93701    0.25433    1.000
    O78      O        0.24011    0.84068    0.25234    1.000
    N115     N        0.36640    0.93330    0.26600    1.000
    N116     N        0.42440    0.92370    0.26720    1.000
    C77      C        0.33730    0.88010    0.25040    1.000
    C78      C        0.27225    0.88450    0.25220    1.000
    N117     N        0.13520    0.73790    0.43230    1.000
    O79      O        0.74728    0.06299    0.25433    1.000
    O80      O        0.75989    0.15932    0.25234    1.000
    N118     N        0.63360    0.06670    0.26600    1.000
    N119     N        0.57560    0.07630    0.26720    1.000
    C79      C        0.66270    0.11990    0.25040    1.000
    C80      C        0.72775    0.11550    0.25220    1.000
    N120     N        0.86480    0.26210    0.43230    1.000
    O81      O        0.06299    0.25433    0.74728    1.000
    O82      O        0.15932    0.25234    0.75989    1.000
    N121     N        0.06670    0.26600    0.63360    1.000
    N122     N        0.07630    0.26720    0.57560    1.000
    C81      C        0.11990    0.25040    0.66270    1.000
    C82      C        0.11550    0.25220    0.72775    1.000
    N123     N        0.26210    0.43230    0.86480    1.000
    O83      O        0.93701    0.25433    0.25272    1.000
    O84      O        0.84068    0.25234    0.24011    1.000
    N124     N        0.93330    0.26600    0.36640    1.000
    N125     N        0.92370    0.26720    0.42440    1.000
    C83      C        0.88010    0.25040    0.33730    1.000
    C84      C        0.88450    0.25220    0.27225    1.000
    N126     N        0.73790    0.43230    0.13520    1.000
    O85      O        0.93701    0.74567    0.74728    1.000
    O86      O        0.84068    0.74766    0.75989    1.000
    N127     N        0.93330    0.73400    0.63360    1.000
    N128     N        0.92370    0.73280    0.57560    1.000
    C85      C        0.88010    0.74960    0.66270    1.000
    C86      C        0.88450    0.74780    0.72775    1.000
    N129     N        0.73790    0.56770    0.86480    1.000
    O87      O        0.06299    0.74567    0.25272    1.000
    O88      O        0.15932    0.74766    0.24011    1.000
    N130     N        0.06670    0.73400    0.36640    1.000
    N131     N        0.07630    0.73280    0.42440    1.000
    C87      C        0.11990    0.74960    0.33730    1.000
    C88      C        0.11550    0.74780    0.27225    1.000
    N132     N        0.26210    0.56770    0.13520    1.000
    O89      O        0.25433    0.25272    0.93701    1.000
    O90      O        0.25234    0.24011    0.84068    1.000
    N133     N        0.26600    0.36640    0.93330    1.000
    N134     N        0.26720    0.42440    0.92370    1.000
    C89      C        0.25040    0.33730    0.88010    1.000
    C90      C        0.25220    0.27225    0.88450    1.000
    N135     N        0.43230    0.13520    0.73790    1.000
    O91      O        0.25433    0.74728    0.06299    1.000
    O92      O        0.25234    0.75989    0.15932    1.000
    N136     N        0.26600    0.63360    0.06670    1.000
    N137     N        0.26720    0.57560    0.07630    1.000
    C91      C        0.25040    0.66270    0.11990    1.000
    C92      C        0.25220    0.72775    0.11550    1.000
    N138     N        0.43230    0.86480    0.26210    1.000
    O93      O        0.74567    0.25272    0.06299    1.000
    O94      O        0.74766    0.24011    0.15932    1.000
    N139     N        0.73400    0.36640    0.06670    1.000
    N140     N        0.73280    0.42440    0.07630    1.000
    C93      C        0.74960    0.33730    0.11990    1.000
    C94      C        0.74780    0.27225    0.11550    1.000
    N141     N        0.56770    0.13520    0.26210    1.000
    O95      O        0.74567    0.74728    0.93701    1.000
    O96      O        0.74766    0.75989    0.84068    1.000
    N142     N        0.73400    0.63360    0.93330    1.000
    N143     N        0.73280    0.57560    0.92370    1.000
    C95      C        0.74960    0.66270    0.88010    1.000
    C96      C        0.74780    0.72775    0.88450    1.000
    N144     N        0.56770    0.86480    0.73790    1.000
    Cu1      Cu       0.50000    0.18740    0.23640    1.000
    Cu2      Cu       0.50000    0.81260    0.23640    1.000
    Cu3      Cu       0.50000    0.18740    0.76360    1.000
    Cu4      Cu       0.50000    0.81260    0.76360    1.000
    Cu5      Cu       0.23640    0.50000    0.18740    1.000
    Cu6      Cu       0.23640    0.50000    0.81260    1.000
    Cu7      Cu       0.76360    0.50000    0.18740    1.000
    Cu8      Cu       0.76360    0.50000    0.81260    1.000
    Cu9      Cu       0.18740    0.23640    0.50000    1.000
    Cu10     Cu       0.81260    0.23640    0.50000    1.000
    Cu11     Cu       0.18740    0.76360    0.50000    1.000
    Cu12     Cu       0.81260    0.76360    0.50000    1.000
    Cu13     Cu       0.68740    0.00000    0.26360    1.000
    Cu14     Cu       0.31260    0.00000    0.26360    1.000
    Cu15     Cu       0.68740    0.00000    0.73640    1.000
    Cu16     Cu       0.31260    0.00000    0.73640    1.000
    Cu17     Cu       0.00000    0.73640    0.31260    1.000
    Cu18     Cu       0.00000    0.73640    0.68740    1.000
    Cu19     Cu       0.00000    0.26360    0.31260    1.000
    Cu20     Cu       0.00000    0.26360    0.68740    1.000
    Cu21     Cu       0.73640    0.68740    0.00000    1.000
    Cu22     Cu       0.73640    0.31260    0.00000    1.000
    Cu23     Cu       0.26360    0.68740    0.00000    1.000
    Cu24     Cu       0.26360    0.31260    0.00000    1.000
    Cu25     Cu       0.25000    0.25000    0.25000    1.000
    Cu26     Cu       0.75000    0.75000    0.25000    1.000
    Cu27     Cu       0.75000    0.25000    0.75000    1.000
    Cu28     Cu       0.25000    0.75000    0.75000    1.000
    Cu29     Cu       0.75000    0.75000    0.75000    1.000
    Cu30     Cu       0.25000    0.25000    0.75000    1.000
    Cu31     Cu       0.25000    0.75000    0.25000    1.000
    Cu32     Cu       0.75000    0.25000    0.25000    1.000
    Cu33     Cu       0.24200    0.31200    0.00000    1.000
    Cu34     Cu       0.75800    0.68800    0.00000    1.000
    Cu35     Cu       0.75800    0.31200    0.00000    1.000
    Cu36     Cu       0.24200    0.68800    0.00000    1.000
    Cu37     Cu       0.00000    0.24200    0.31200    1.000
    Cu38     Cu       0.00000    0.75800    0.68800    1.000
    Cu39     Cu       0.00000    0.75800    0.31200    1.000
    Cu40     Cu       0.00000    0.24200    0.68800    1.000
    Cu41     Cu       0.31200    0.00000    0.24200    1.000
    Cu42     Cu       0.68800    0.00000    0.75800    1.000
    Cu43     Cu       0.31200    0.00000    0.75800    1.000
    Cu44     Cu       0.68800    0.00000    0.24200    1.000
    Cu45     Cu       0.81200    0.74200    0.50000    1.000
    Cu46     Cu       0.18800    0.25800    0.50000    1.000
    Cu47     Cu       0.81200    0.25800    0.50000    1.000
    Cu48     Cu       0.18800    0.74200    0.50000    1.000
    Cu49     Cu       0.74200    0.50000    0.18800    1.000
    Cu50     Cu       0.25800    0.50000    0.81200    1.000
    Cu51     Cu       0.25800    0.50000    0.18800    1.000
    Cu52     Cu       0.74200    0.50000    0.81200    1.000
    Cu53     Cu       0.50000    0.81200    0.25800    1.000
    Cu54     Cu       0.50000    0.18800    0.74200    1.000
    Cu55     Cu       0.50000    0.81200    0.74200    1.000
    Cu56     Cu       0.50000    0.18800    0.25800    1.000
