data_functionalizedCrystal
_audit_creation_method	'EQeq! by Chris Wilmer'
_symmetry_space_group_name_H-M	'P1'
_symmetry_Int_Tables_number	1
_symmetry_cell_setting	triclinic
loop_
_symmetry_equiv_pos_as_xyz
  x,y,z
_cell_length_a	10.3371
_cell_length_b	11.1671
_cell_length_c	11.8689
_cell_angle_alpha	94.257
_cell_angle_beta	107.004
_cell_angle_gamma	108.419
loop_
_atom_site_label
_atom_site_type_symbol
_atom_site_fract_x
_atom_site_fract_y
_atom_site_fract_z
_atom_site_charge
Mof_C 	C 	0.3024	0.2613	0.3429	0.346
Mof_C 	C 	0.4008	0.3826	0.4226	-0.088
Mof_C 	C 	0.3634	0.4454	0.5034	-0.062
Mof_H 	H 	0.2707	0.4094	0.5071	0.076
Mof_C 	C 	0.5434	0.4382	0.4181	0.093
Mof_C 	C 	0.7951	0.01	0.0801	0.44
Mof_C 	C 	0.6435	0.0057	0.0393	-0.147
Mof_C 	C 	0.5994	0.085	0.1059	0.11
Mof_C 	C 	0.5462	0.9259	0.9351	-0.057
Mof_H 	H 	0.578	0.8771	0.8899	0.046
Mof_C 	C 	0.9633	0.7448	0.9979	0.471
Mof_C 	C 	0.9798	0.6184	0.9981	-0.165
Mof_C 	C 	0.9937	0.5629	0.0989	-0.011
Mof_H 	H 	0.9879	0.6052	0.1668	0.048
Mof_C 	C 	0.9844	0.5508	0.8963	0.098
Mof_C 	C 	0.1898	0.9652	0.4558	0.036
Mof_H 	H 	0.2848	0.008	0.4604	-0.021
Mof_C 	C 	0.1504	0.927	0.5534	-0.013
Mof_H 	H 	0.2087	0.9453	0.6334	0.057
Mof_C 	C 	0.9691	0.8546	0.3858	0.32
Mof_C 	C 	0.8181	0.786	0.3009	-0.807
Mof_H 	H 	0.8141	0.7989	0.2211	0.265
Mof_H 	H 	0.7528	0.8189	0.3243	0.272
Mof_H 	H 	0.7906	0.6957	0.3029	0.274
Mof_N 	N 	0.602	0.391	0.335	-0.098
Mof_N 	N 	0.686	0.17	0.207	-0.104
Mof_N 	N 	0.986	0.602	0.788	-0.096
Mof_N 	N 	0.0757	0.9338	0.3538	-0.304
Mof_N 	N 	0.0076	0.8557	0.5053	-0.145
Mof_O 	O 	0.1749	0.2113	0.3512	-0.408
Mof_O 	O 	0.338	0.2057	0.2722	-0.464
Mof_O 	O 	0.8701	0.0418	0.1881	-0.474
Mof_O 	O 	0.8463	0.9816	0.0012	-0.627
Mof_O 	O 	0.9948	0.8139	0.1003	-0.55
Mof_O 	O 	0.9202	0.7794	0.9007	-0.513
Mof_Eu	Eu	0.09977	0.03499	0.17766	2.201
Mof_C 	C 	0.6976	0.7387	0.6571	0.347
Mof_C 	C 	0.5992	0.6174	0.5774	-0.087
Mof_C 	C 	0.6366	0.5546	0.4966	-0.062
Mof_H 	H 	0.7293	0.5906	0.4929	0.076
Mof_C 	C 	0.4566	0.5618	0.5819	0.093
Mof_C 	C 	0.2049	0.99	0.9199	0.44
Mof_C 	C 	0.3565	0.9943	0.9607	-0.147
Mof_C 	C 	0.4006	0.915	0.8941	0.11
Mof_C 	C 	0.4538	0.0741	0.0649	-0.057
Mof_H 	H 	0.422	0.1229	0.1101	0.046
Mof_C 	C 	0.0367	0.2552	0.0021	0.471
Mof_C 	C 	0.0202	0.3816	0.0019	-0.165
Mof_C 	C 	0.0063	0.4371	0.9011	-0.011
Mof_H 	H 	0.0121	0.3948	0.8332	0.048
Mof_C 	C 	0.0156	0.4492	0.1037	0.098
Mof_C 	C 	0.8102	0.0348	0.5442	0.036
Mof_H 	H 	0.7152	0.992	0.5396	-0.021
Mof_C 	C 	0.8496	0.073	0.4466	-0.013
Mof_H 	H 	0.7913	0.0547	0.3666	0.057
Mof_C 	C 	0.0309	0.1454	0.6142	0.32
Mof_C 	C 	0.1819	0.214	0.6991	-0.807
Mof_H 	H 	0.1859	0.2011	0.7789	0.265
Mof_H 	H 	0.2472	0.1811	0.6757	0.272
Mof_H 	H 	0.2094	0.3043	0.6971	0.274
Mof_N 	N 	0.398	0.609	0.665	-0.098
Mof_N 	N 	0.314	0.83	0.793	-0.104
Mof_N 	N 	0.014	0.398	0.212	-0.096
Mof_N 	N 	0.9243	0.0662	0.6462	-0.304
Mof_N 	N 	0.9924	0.1443	0.4947	-0.145
Mof_O 	O 	0.8251	0.7887	0.6488	-0.408
Mof_O 	O 	0.662	0.7943	0.7278	-0.464
Mof_O 	O 	0.1299	0.9582	0.8119	-0.474
Mof_O 	O 	0.1537	0.0184	0.9988	-0.627
Mof_O 	O 	0.0052	0.1861	0.8997	-0.55
Mof_O 	O 	0.0798	0.2206	0.0993	-0.513
Mof_Eu	Eu	0.90023	0.96501	0.82234	2.201
_end
