# CIF file generated by openbabel 3.1.0, see https://openbabel.org
data_I
_chemical_name_common 'image0'
_cell_length_a 30.4265
_cell_length_b 15.6032
_cell_length_c 21.9006
_cell_angle_alpha 90
_cell_angle_beta 133.016
_cell_angle_gamma 90
_space_group_name_H-M_alt 'P 1'
_space_group_name_Hall 'P 1'
loop_
    _symmetry_equiv_pos_as_xyz
    x,y,z
loop_
    _atom_site_label
    _atom_site_type_symbol
    _atom_site_fract_x
    _atom_site_fract_y
    _atom_site_fract_z
    _atom_site_occupancy
    Sm1      Sm       0.83148    0.87253    0.98570    1.000
    Sm2      Sm       0.11041    0.86397    0.17475    1.000
    O1       O        0.75240    0.77200    0.87130    1.000
    O2       O        0.72240    0.65340    0.79510    1.000
    O3       O        0.94000    0.85930    0.06950    1.000
    O4       O        0.02110    0.78680    0.11570    1.000
    O5       O        0.13400    0.96990    0.11800    1.000
    O6       O        0.17260    0.09470    0.12410    1.000
    O7       O        0.12160    0.88290    0.29510    1.000
    O8       O        0.15680    0.95230    0.40950    1.000
    N1       N        0.86580    0.73700    0.96390    1.000
    N2       N        0.16170    0.00060    0.25820    1.000
    C1       C        0.82690    0.67850    0.90600    1.000
    C2       C        0.84530    0.60240    0.89570    1.000
    H1       H        0.81690    0.56160    0.85470    1.000
    C3       C        0.90680    0.58820    0.94740    1.000
    H2       H        0.92080    0.53700    0.94200    1.000
    C4       C        0.94710    0.64820    0.00600    1.000
    H3       H        0.98910    0.63920    0.04130    1.000
    C5       C        0.92560    0.72230    0.01300    1.000
    C6       C        0.76200    0.70240    0.85350    1.000
    C7       C        0.96560    0.79390    0.07160    1.000
    C8       C        0.18480    0.05390    0.23830    1.000
    C9       C        0.22550    0.11660    0.29210    1.000
    H4       H        0.24380    0.15100    0.27870    1.000
    C10      C        0.23930    0.12830    0.36630    1.000
    H5       H        0.26660    0.17180    0.40440    1.000
    C11      C        0.21260    0.07550    0.38400    1.000
    H6       H        0.22040    0.08390    0.43360    1.000
    C12      C        0.17490    0.01120    0.32970    1.000
    C13      C        0.16250    0.03840    0.15350    1.000
    C14      C        0.14830    0.94420    0.34570    1.000
    Sm3      Sm       0.33148    0.37253    0.98570    1.000
    Sm4      Sm       0.61041    0.36397    0.17475    1.000
    O9       O        0.25240    0.27200    0.87130    1.000
    O10      O        0.22240    0.15340    0.79510    1.000
    O11      O        0.44000    0.35930    0.06950    1.000
    O12      O        0.52110    0.28680    0.11570    1.000
    O13      O        0.63400    0.46990    0.11800    1.000
    O14      O        0.67260    0.59470    0.12410    1.000
    O15      O        0.62160    0.38290    0.29510    1.000
    O16      O        0.65680    0.45230    0.40950    1.000
    N3       N        0.36580    0.23700    0.96390    1.000
    N4       N        0.66170    0.50060    0.25820    1.000
    C15      C        0.32690    0.17850    0.90600    1.000
    C16      C        0.34530    0.10240    0.89570    1.000
    H7       H        0.31690    0.06160    0.85470    1.000
    C17      C        0.40680    0.08820    0.94740    1.000
    H8       H        0.42080    0.03700    0.94200    1.000
    C18      C        0.44710    0.14820    0.00600    1.000
    H9       H        0.48910    0.13920    0.04130    1.000
    C19      C        0.42560    0.22230    0.01300    1.000
    C20      C        0.26200    0.20240    0.85350    1.000
    C21      C        0.46560    0.29390    0.07160    1.000
    C22      C        0.68480    0.55390    0.23830    1.000
    C23      C        0.72550    0.61660    0.29210    1.000
    H10      H        0.74380    0.65100    0.27870    1.000
    C24      C        0.73930    0.62830    0.36630    1.000
    H11      H        0.76660    0.67180    0.40440    1.000
    C25      C        0.71260    0.57550    0.38400    1.000
    H12      H        0.72040    0.58390    0.43360    1.000
    C26      C        0.67490    0.51120    0.32970    1.000
    C27      C        0.66250    0.53840    0.15350    1.000
    C28      C        0.64830    0.44420    0.34570    1.000
    Sm5      Sm       0.16852    0.87253    0.51430    1.000
    Sm6      Sm       0.88959    0.86397    0.32525    1.000
    O17      O        0.24760    0.77200    0.62870    1.000
    O18      O        0.27760    0.65340    0.70490    1.000
    O19      O        0.06000    0.85930    0.43050    1.000
    O20      O        0.97890    0.78680    0.38430    1.000
    O21      O        0.86600    0.96990    0.38200    1.000
    O22      O        0.82740    0.09470    0.37590    1.000
    O23      O        0.87840    0.88290    0.20490    1.000
    O24      O        0.84320    0.95230    0.09050    1.000
    N5       N        0.13420    0.73700    0.53610    1.000
    N6       N        0.83830    0.00060    0.24180    1.000
    C29      C        0.17310    0.67850    0.59400    1.000
    C30      C        0.15470    0.60240    0.60430    1.000
    H13      H        0.18310    0.56160    0.64530    1.000
    C31      C        0.09320    0.58820    0.55260    1.000
    H14      H        0.07920    0.53700    0.55800    1.000
    C32      C        0.05290    0.64820    0.49400    1.000
    H15      H        0.01090    0.63920    0.45870    1.000
    C33      C        0.07440    0.72230    0.48700    1.000
    C34      C        0.23800    0.70240    0.64650    1.000
    C35      C        0.03440    0.79390    0.42840    1.000
    C36      C        0.81520    0.05390    0.26170    1.000
    C37      C        0.77450    0.11660    0.20790    1.000
    H16      H        0.75620    0.15100    0.22130    1.000
    C38      C        0.76070    0.12830    0.13370    1.000
    H17      H        0.73340    0.17180    0.09560    1.000
    C39      C        0.78740    0.07550    0.11600    1.000
    H18      H        0.77960    0.08390    0.06640    1.000
    C40      C        0.82510    0.01120    0.17030    1.000
    C41      C        0.83750    0.03840    0.34650    1.000
    C42      C        0.85170    0.94420    0.15430    1.000
    Sm7      Sm       0.66852    0.37253    0.51430    1.000
    Sm8      Sm       0.38959    0.36397    0.32525    1.000
    O25      O        0.74760    0.27200    0.62870    1.000
    O26      O        0.77760    0.15340    0.70490    1.000
    O27      O        0.56000    0.35930    0.43050    1.000
    O28      O        0.47890    0.28680    0.38430    1.000
    O29      O        0.36600    0.46990    0.38200    1.000
    O30      O        0.32740    0.59470    0.37590    1.000
    O31      O        0.37840    0.38290    0.20490    1.000
    O32      O        0.34320    0.45230    0.09050    1.000
    N7       N        0.63420    0.23700    0.53610    1.000
    N8       N        0.33830    0.50060    0.24180    1.000
    C43      C        0.67310    0.17850    0.59400    1.000
    C44      C        0.65470    0.10240    0.60430    1.000
    H19      H        0.68310    0.06160    0.64530    1.000
    C45      C        0.59320    0.08820    0.55260    1.000
    H20      H        0.57920    0.03700    0.55800    1.000
    C46      C        0.55290    0.14820    0.49400    1.000
    H21      H        0.51090    0.13920    0.45870    1.000
    C47      C        0.57440    0.22230    0.48700    1.000
    C48      C        0.73800    0.20240    0.64650    1.000
    C49      C        0.53440    0.29390    0.42840    1.000
    C50      C        0.31520    0.55390    0.26170    1.000
    C51      C        0.27450    0.61660    0.20790    1.000
    H22      H        0.25620    0.65100    0.22130    1.000
    C52      C        0.26070    0.62830    0.13370    1.000
    H23      H        0.23340    0.67180    0.09560    1.000
    C53      C        0.28740    0.57550    0.11600    1.000
    H24      H        0.27960    0.58390    0.06640    1.000
    C54      C        0.32510    0.51120    0.17030    1.000
    C55      C        0.33750    0.53840    0.34650    1.000
    C56      C        0.35170    0.44420    0.15430    1.000
    Sm9      Sm       0.16852    0.12747    0.01430    1.000
    Sm10     Sm       0.88959    0.13603    0.82525    1.000
    O33      O        0.24760    0.22800    0.12870    1.000
    O34      O        0.27760    0.34660    0.20490    1.000
    O35      O        0.06000    0.14070    0.93050    1.000
    O36      O        0.97890    0.21320    0.88430    1.000
    O37      O        0.86600    0.03010    0.88200    1.000
    O38      O        0.82740    0.90530    0.87590    1.000
    O39      O        0.87840    0.11710    0.70490    1.000
    O40      O        0.84320    0.04770    0.59050    1.000
    N9       N        0.13420    0.26300    0.03610    1.000
    N10      N        0.83830    0.99940    0.74180    1.000
    C57      C        0.17310    0.32150    0.09400    1.000
    C58      C        0.15470    0.39760    0.10430    1.000
    H25      H        0.18310    0.43840    0.14530    1.000
    C59      C        0.09320    0.41180    0.05260    1.000
    H26      H        0.07920    0.46300    0.05800    1.000
    C60      C        0.05290    0.35180    0.99400    1.000
    H27      H        0.01090    0.36080    0.95870    1.000
    C61      C        0.07440    0.27770    0.98700    1.000
    C62      C        0.23800    0.29760    0.14650    1.000
    C63      C        0.03440    0.20610    0.92840    1.000
    C64      C        0.81520    0.94610    0.76170    1.000
    C65      C        0.77450    0.88340    0.70790    1.000
    H28      H        0.75620    0.84900    0.72130    1.000
    C66      C        0.76070    0.87170    0.63370    1.000
    H29      H        0.73340    0.82820    0.59560    1.000
    C67      C        0.78740    0.92450    0.61600    1.000
    H30      H        0.77960    0.91610    0.56640    1.000
    C68      C        0.82510    0.98880    0.67030    1.000
    C69      C        0.83750    0.96160    0.84650    1.000
    C70      C        0.85170    0.05580    0.65430    1.000
    Sm11     Sm       0.66852    0.62747    0.01430    1.000
    Sm12     Sm       0.38959    0.63603    0.82525    1.000
    O41      O        0.74760    0.72800    0.12870    1.000
    O42      O        0.77760    0.84660    0.20490    1.000
    O43      O        0.56000    0.64070    0.93050    1.000
    O44      O        0.47890    0.71320    0.88430    1.000
    O45      O        0.36600    0.53010    0.88200    1.000
    O46      O        0.32740    0.40530    0.87590    1.000
    O47      O        0.37840    0.61710    0.70490    1.000
    O48      O        0.34320    0.54770    0.59050    1.000
    N11      N        0.63420    0.76300    0.03610    1.000
    N12      N        0.33830    0.49940    0.74180    1.000
    C71      C        0.67310    0.82150    0.09400    1.000
    C72      C        0.65470    0.89760    0.10430    1.000
    H31      H        0.68310    0.93840    0.14530    1.000
    C73      C        0.59320    0.91180    0.05260    1.000
    H32      H        0.57920    0.96300    0.05800    1.000
    C74      C        0.55290    0.85180    0.99400    1.000
    H33      H        0.51090    0.86080    0.95870    1.000
    C75      C        0.57440    0.77770    0.98700    1.000
    C76      C        0.73800    0.79760    0.14650    1.000
    C77      C        0.53440    0.70610    0.92840    1.000
    C78      C        0.31520    0.44610    0.76170    1.000
    C79      C        0.27450    0.38340    0.70790    1.000
    H34      H        0.25620    0.34900    0.72130    1.000
    C80      C        0.26070    0.37170    0.63370    1.000
    H35      H        0.23340    0.32820    0.59560    1.000
    C81      C        0.28740    0.42450    0.61600    1.000
    H36      H        0.27960    0.41610    0.56640    1.000
    C82      C        0.32510    0.48880    0.67030    1.000
    C83      C        0.33750    0.46160    0.84650    1.000
    C84      C        0.35170    0.55580    0.65430    1.000
    Sm13     Sm       0.83148    0.12747    0.48570    1.000
    Sm14     Sm       0.11041    0.13603    0.67475    1.000
    O49      O        0.75240    0.22800    0.37130    1.000
    O50      O        0.72240    0.34660    0.29510    1.000
    O51      O        0.94000    0.14070    0.56950    1.000
    O52      O        0.02110    0.21320    0.61570    1.000
    O53      O        0.13400    0.03010    0.61800    1.000
    O54      O        0.17260    0.90530    0.62410    1.000
    O55      O        0.12160    0.11710    0.79510    1.000
    O56      O        0.15680    0.04770    0.90950    1.000
    N13      N        0.86580    0.26300    0.46390    1.000
    N14      N        0.16170    0.99940    0.75820    1.000
    C85      C        0.82690    0.32150    0.40600    1.000
    C86      C        0.84530    0.39760    0.39570    1.000
    H37      H        0.81690    0.43840    0.35470    1.000
    C87      C        0.90680    0.41180    0.44740    1.000
    H38      H        0.92080    0.46300    0.44200    1.000
    C88      C        0.94710    0.35180    0.50600    1.000
    H39      H        0.98910    0.36080    0.54130    1.000
    C89      C        0.92560    0.27770    0.51300    1.000
    C90      C        0.76200    0.29760    0.35350    1.000
    C91      C        0.96560    0.20610    0.57160    1.000
    C92      C        0.18480    0.94610    0.73830    1.000
    C93      C        0.22550    0.88340    0.79210    1.000
    H40      H        0.24380    0.84900    0.77870    1.000
    C94      C        0.23930    0.87170    0.86630    1.000
    H41      H        0.26660    0.82820    0.90440    1.000
    C95      C        0.21260    0.92450    0.88400    1.000
    H42      H        0.22040    0.91610    0.93360    1.000
    C96      C        0.17490    0.98880    0.82970    1.000
    C97      C        0.16250    0.96160    0.65350    1.000
    C98      C        0.14830    0.05580    0.84570    1.000
    Sm15     Sm       0.33148    0.62747    0.48570    1.000
    Sm16     Sm       0.61041    0.63603    0.67475    1.000
    O57      O        0.25240    0.72800    0.37130    1.000
    O58      O        0.22240    0.84660    0.29510    1.000
    O59      O        0.44000    0.64070    0.56950    1.000
    O60      O        0.52110    0.71320    0.61570    1.000
    O61      O        0.63400    0.53010    0.61800    1.000
    O62      O        0.67260    0.40530    0.62410    1.000
    O63      O        0.62160    0.61710    0.79510    1.000
    O64      O        0.65680    0.54770    0.90950    1.000
    N15      N        0.36580    0.76300    0.46390    1.000
    N16      N        0.66170    0.49940    0.75820    1.000
    C99      C        0.32690    0.82150    0.40600    1.000
    C100     C        0.34530    0.89760    0.39570    1.000
    H43      H        0.31690    0.93840    0.35470    1.000
    C101     C        0.40680    0.91180    0.44740    1.000
    H44      H        0.42080    0.96300    0.44200    1.000
    C102     C        0.44710    0.85180    0.50600    1.000
    H45      H        0.48910    0.86080    0.54130    1.000
    C103     C        0.42560    0.77770    0.51300    1.000
    C104     C        0.26200    0.79760    0.35350    1.000
    C105     C        0.46560    0.70610    0.57160    1.000
    C106     C        0.68480    0.44610    0.73830    1.000
    C107     C        0.72550    0.38340    0.79210    1.000
    H46      H        0.74380    0.34900    0.77870    1.000
    C108     C        0.73930    0.37170    0.86630    1.000
    H47      H        0.76660    0.32820    0.90440    1.000
    C109     C        0.71260    0.42450    0.88400    1.000
    H48      H        0.72040    0.41610    0.93360    1.000
    C110     C        0.67490    0.48880    0.82970    1.000
    C111     C        0.66250    0.46160    0.65350    1.000
    C112     C        0.64830    0.55580    0.84570    1.000
