data_functionalizedCrystal
_audit_creation_method	'EQeq! by Chris Wilmer'
_symmetry_space_group_name_H-M	'P1'
_symmetry_Int_Tables_number	1
_symmetry_cell_setting	triclinic
loop_
_symmetry_equiv_pos_as_xyz
  x,y,z
_cell_length_a	6.8687
_cell_length_b	15.1109
_cell_length_c	15.1109
_cell_angle_alpha	62.2533
_cell_angle_beta	81.2851
_cell_angle_gamma	98.7149
loop_
_atom_site_label
_atom_site_type_symbol
_atom_site_fract_x
_atom_site_fract_y
_atom_site_fract_z
_atom_site_charge
Mof_Co	Co	0.7793	0.2594	0.3241	1.16
Mof_Co	Co	0.5199	0.4165	0.2594	1.16
Mof_Co	Co	0.1034	0.3241	0.4165	1.159
Mof_Co	Co	0.8966	0.6759	0.5835	1.159
Mof_Co	Co	0.4801	0.5835	0.7406	1.159
Mof_Co	Co	0.2207	0.7406	0.6759	1.159
Mof_H 	H 	0.7992	0.4723	0.5526	0.099
Mof_H 	H 	0.6731	0.0249	0.5277	0.099
Mof_H 	H 	0.6482	0.4474	0.0249	0.1
Mof_H 	H 	0.3269	0.9751	0.4723	0.099
Mof_H 	H 	0.3518	0.5526	0.9751	0.1
Mof_H 	H 	0.2008	0.5277	0.4474	0.099
Mof_C 	C 	0.6111	0.4514	0.4614	-0.179
Mof_C 	C 	0.4386	0.4704	0.4231	0.241
Mof_C 	C 	0.1597	0.0872	0.4514	-0.18
Mof_C 	C 	0.7814	0.4636	0.0153	-0.14
Mof_C 	C 	0.3889	0.5486	0.5386	-0.179
Mof_C 	C 	0.182	0.439	0.1779	0.439
Mof_C 	C 	0.2033	0.9847	0.4789	-0.139
Mof_C 	C 	0.3178	0.5211	0.4636	-0.139
Mof_C 	C 	0.257	0.6169	0.561	0.439
Mof_C 	C 	0.9682	0.1065	0.4704	0.242
Mof_C 	C 	0.6401	0.8221	0.6169	0.439
Mof_C 	C 	0.1383	0.5769	0.8935	0.24
Mof_C 	C 	0.5614	0.5296	0.5769	0.241
Mof_C 	C 	0.9275	0.5386	0.9128	-0.178
Mof_C 	C 	0.0318	0.8935	0.5296	0.242
Mof_C 	C 	0.8617	0.4231	0.1065	0.24
Mof_C 	C 	0.3599	0.1779	0.3831	0.439
Mof_C 	C 	0.2186	0.5364	0.9847	-0.14
Mof_C 	C 	0.743	0.3831	0.439	0.439
Mof_C 	C 	0.7967	0.0153	0.5211	-0.139
Mof_C 	C 	0.0725	0.4614	0.0872	-0.178
Mof_C 	C 	0.8403	0.9128	0.5486	-0.18
Mof_C 	C 	0.6822	0.4789	0.5364	-0.139
Mof_C 	C 	0.818	0.561	0.8221	0.439
Mof_O 	O 	0.9045	0.3788	0.4668	-0.494
Mof_O 	O 	0.0818	0.8093	0.5588	-0.546
Mof_O 	O 	0.3433	0.2663	0.3512	-0.58
Mof_O 	O 	0.0955	0.6212	0.5332	-0.494
Mof_O 	O 	0.3055	0.6488	0.6175	-0.58
Mof_O 	O 	0.7275	0.3681	0.1907	-0.546
Mof_O 	O 	0.6567	0.7337	0.6488	-0.58
Mof_O 	O 	0.6287	0.5332	0.8456	-0.494
Mof_O 	O 	0.9182	0.1907	0.4412	-0.546
Mof_O 	O 	0.4743	0.8456	0.6212	-0.495
Mof_O 	O 	0.2725	0.6319	0.8093	-0.546
Mof_O 	O 	0.077	0.3825	0.2663	-0.58
Mof_O 	O 	0.3594	0.4412	0.3681	-0.546
Mof_O 	O 	0.3713	0.4668	0.1544	-0.494
Mof_O 	O 	0.6406	0.5588	0.6319	-0.546
Mof_O 	O 	0.5257	0.1544	0.3788	-0.495
Mof_O 	O 	0.923	0.6175	0.7337	-0.58
Mof_O 	O 	0.6945	0.3512	0.3825	-0.58
_end
