data_functionalizedCrystal
_audit_creation_method	'EQeq! by Chris Wilmer'
_symmetry_space_group_name_H-M	'P1'
_symmetry_Int_Tables_number	1
_symmetry_cell_setting	triclinic
loop_
_symmetry_equiv_pos_as_xyz
  x,y,z
_cell_length_a	11.7554
_cell_length_b	14.4359
_cell_length_c	14.6933
_cell_angle_alpha	111.146
_cell_angle_beta	112.698
_cell_angle_gamma	93.215
loop_
_atom_site_label
_atom_site_type_symbol
_atom_site_fract_x
_atom_site_fract_y
_atom_site_fract_z
_atom_site_charge
Mof_W 	W 	0.07366	0.90259	0.19997	1.075
Mof_W 	W 	0.27859	0.90823	0.07574	1.13
Mof_W 	W 	0.25847	0.13707	0.25979	1.143
Mof_W 	W 	0.0189	0.76809	0.81706	1.354
Mof_W 	W 	0.20309	0.00088	0.87264	0.942
Mof_W 	W 	0.18801	0.23282	0.05962	1.288
Mof_Ce	Ce	0.0856	0.47283	0.6519	2.058
Mof_Ce	Ce	0.286	0.52395	0.0646	1.765
Mof_N 	N 	0.268	0.638	0.74	-0.178
Mof_N 	N 	0.623	0.459	0.738	-0.206
Mof_O 	O 	0.109	0.991	0.097	-0.739
Mof_O 	O 	0.104	0.939	0.966	-0.622
Mof_O 	O 	0.087	0.121	0.101	-0.787
Mof_O 	O 	0.956	0.948	0.057	-0.797
Mof_O 	O 	0.194	0.861	0.145	-0.496
Mof_O 	O 	0.181	0.038	0.286	-0.559
Mof_O 	O 	0.945	0.968	0.208	-0.39
Mof_O 	O 	0.954	0.786	0.082	-0.495
Mof_O 	O 	0.334	0.037	0.187	-0.568
Mof_O 	O 	0.3	0.966	0.992	-0.317
Mof_O 	O 	0.176	0.786	0.946	-0.432
Mof_O 	O 	0.123	0.198	0.267	-0.575
Mof_O 	O 	0.109	0.867	0.792	-0.411
Mof_O 	O 	0.917	0.711	0.867	-0.447
Mof_O 	O 	0.023	0.662	0.725	-0.617
Mof_O 	O 	0.252	0.14	0.975	-0.412
Mof_O 	O 	0.288	0.219	0.188	-0.464
Mof_O 	O 	0.269	0.346	0.079	-0.598
Mof_O 	O 	0.115	0.56	0.531	-0.716
Mof_O 	O 	0.166	0.698	0.52	-0.456
Mof_O 	O 	0.225	0.539	0.854	-0.627
Mof_O 	O 	0.392	0.636	0.003	-0.605
Mof_O 	O 	0.301	0.427	0.682	-0.532
Mof_O 	O 	0.477	0.457	0.833	-0.513
Mof_O 	O 	0.87	0.481	0.849	-0.541
Mof_O 	O 	0.914	0.47	0.716	-0.524
Mof_C 	C 	0.178	0.647	0.572	0.443
Mof_C 	C 	0.282	0.695	0.685	-0.098
Mof_C 	C 	0.377	0.782	0.733	0.047
Mof_H 	H 	0.3855	0.8207	0.6961	0.005
Mof_C 	C 	0.46	0.807	0.84	-0.122
Mof_H 	H 	0.5284	0.8614	0.8731	0.113
Mof_C 	C 	0.45	0.758	0.904	0.066
Mof_H 	H 	0.5042	0.7813	0.9773	0.022
Mof_C 	C 	0.352	0.671	0.849	-0.111
Mof_C 	C 	0.316	0.613	0.904	0.511
Mof_C 	C 	0.42	0.441	0.733	0.401
Mof_C 	C 	0.495	0.44	0.67	-0.109
Mof_C 	C 	0.443	0.405	0.558	0.036
Mof_H 	H 	0.3554	0.3869	0.5162	-0.021
Mof_C 	C 	0.525	0.397	0.51	-0.146
Mof_H 	H 	0.4952	0.3693	0.4354	0.063
Mof_C 	C 	0.654	0.432	0.578	0.062
Mof_H 	H 	0.7096	0.4402	0.5482	0.006
Mof_C 	C 	0.703	0.456	0.688	-0.147
Mof_C 	C 	0.842	0.473	0.755	0.516
Mof_W 	W 	0.92634	0.09741	0.80003	1.218
Mof_W 	W 	0.72141	0.09177	0.92426	1.284
Mof_W 	W 	0.74153	0.86293	0.74021	1.203
Mof_W 	W 	0.9811	0.23191	0.18294	1.722
Mof_W 	W 	0.79691	0.99912	0.12736	1.392
Mof_W 	W 	0.81199	0.76718	0.94038	1.578
Mof_Ce	Ce	0.9144	0.52717	0.3481	2.528
Mof_Ce	Ce	0.714	0.47605	0.9354	2.136
Mof_N 	N 	0.732	0.362	0.26	-0.21
Mof_N 	N 	0.377	0.541	0.262	-0.178
Mof_O 	O 	0.891	0.009	0.903	-0.77
Mof_O 	O 	0.896	0.061	0.034	-0.78
Mof_O 	O 	0.913	0.879	0.899	-0.605
Mof_O 	O 	0.044	0.052	0.943	-0.888
Mof_O 	O 	0.806	0.139	0.855	-0.516
Mof_O 	O 	0.819	0.962	0.714	-0.388
Mof_O 	O 	0.055	0.032	0.792	-0.546
Mof_O 	O 	0.046	0.214	0.918	-0.489
Mof_O 	O 	0.666	0.963	0.813	-0.419
Mof_O 	O 	0.7	0.034	0.008	-0.652
Mof_O 	O 	0.824	0.214	0.054	-0.544
Mof_O 	O 	0.877	0.802	0.733	-0.425
Mof_O 	O 	0.891	0.133	0.208	-0.565
Mof_O 	O 	0.083	0.289	0.133	-0.576
Mof_O 	O 	0.977	0.338	0.275	-0.619
Mof_O 	O 	0.748	0.86	0.025	-0.591
Mof_O 	O 	0.712	0.781	0.812	-0.484
Mof_O 	O 	0.731	0.654	0.921	-0.611
Mof_O 	O 	0.885	0.44	0.469	-0.637
Mof_O 	O 	0.834	0.302	0.48	-0.41
Mof_O 	O 	0.775	0.461	0.146	-0.647
Mof_O 	O 	0.608	0.364	0.997	-0.436
Mof_O 	O 	0.699	0.573	0.318	-0.56
Mof_O 	O 	0.523	0.543	0.167	-0.512
Mof_O 	O 	0.13	0.519	0.151	-0.628
Mof_O 	O 	0.086	0.53	0.284	-0.693
Mof_C 	C 	0.822	0.353	0.428	0.422
Mof_C 	C 	0.718	0.305	0.315	-0.089
Mof_C 	C 	0.623	0.218	0.267	0.006
Mof_H 	H 	0.6145	0.1793	0.3039	-0.017
Mof_C 	C 	0.54	0.193	0.16	-0.103
Mof_H 	H 	0.4716	0.1386	0.1269	0.024
Mof_C 	C 	0.55	0.242	0.096	0.006
Mof_H 	H 	0.4958	0.2187	0.0227	-0.047
Mof_C 	C 	0.648	0.329	0.151	-0.074
Mof_C 	C 	0.684	0.387	0.096	0.297
Mof_C 	C 	0.58	0.559	0.267	0.421
Mof_C 	C 	0.505	0.56	0.33	-0.11
Mof_C 	C 	0.557	0.595	0.442	0.048
Mof_H 	H 	0.6446	0.6131	0.4838	-0.011
Mof_C 	C 	0.475	0.603	0.49	-0.154
Mof_H 	H 	0.5048	0.6307	0.5646	0.071
Mof_C 	C 	0.346	0.568	0.422	0.085
Mof_H 	H 	0.2904	0.5598	0.4518	-0.012
Mof_C 	C 	0.297	0.544	0.312	-0.174
Mof_C 	C 	0.158	0.527	0.245	0.574
Mof_Si	Si	-0	0	-0	3.487
_end
