# CIF file generated by openbabel 3.1.0, see https://openbabel.org
data_I
_chemical_name_common 'image0'
_cell_length_a 21.918
_cell_length_b 14.033
_cell_length_c 22.467
_cell_angle_alpha 90
_cell_angle_beta 92.639
_cell_angle_gamma 90
_space_group_name_H-M_alt 'P 1'
_space_group_name_Hall 'P 1'
loop_
    _symmetry_equiv_pos_as_xyz
    x,y,z
loop_
    _atom_site_label
    _atom_site_type_symbol
    _atom_site_fract_x
    _atom_site_fract_y
    _atom_site_fract_z
    _atom_site_occupancy
    Cr1      Cr       0.76410    0.96190    0.65939    1.000
    Cr2      Cr       0.51994    0.96637    0.67579    1.000
    Cr3      Cr       0.88276    0.22569    0.53793    1.000
    Cr4      Cr       0.91044    0.74084    0.80089    1.000
    O1       O        0.68670    0.94340    0.60640    1.000
    O2       O        0.69930    0.96290    0.72330    1.000
    O3       O        0.58420    0.95930    0.61190    1.000
    O4       O        0.59850    0.96280    0.73110    1.000
    O5       O        0.76260    0.10690    0.64630    1.000
    O6       O        0.82450    0.96960    0.59230    1.000
    O7       O        0.80800    0.21730    0.59350    1.000
    O8       O        0.87320    0.07980    0.54120    1.000
    O9       O        0.83400    0.97600    0.72380    1.000
    O10      O        0.78320    0.82290    0.67490    1.000
    O11      O        0.89510    0.88320    0.78490    1.000
    O12      O        0.84510    0.72970    0.73230    1.000
    O13      O        0.44960    0.96960    0.61060    1.000
    O14      O        0.50190    0.82080    0.67030    1.000
    O15      O        0.39280    0.87080    0.55590    1.000
    O16      O        0.44680    0.72150    0.61030    1.000
    O17      O        0.51990    0.11600    0.68330    1.000
    O18      O        0.46020    0.98280    0.74270    1.000
    O19      O        0.47780    0.22840    0.73990    1.000
    O20      O        0.41950    0.09530    0.79910    1.000
    O21      O        0.83080    0.25160    0.45840    1.000
    O22      O        0.95060    0.22360    0.47490    1.000
    O23      O        0.84200    0.26470    0.36130    1.000
    O24      O        0.96270    0.23890    0.37750    1.000
    C1       C        0.63730    0.95400    0.63370    1.000
    C2       C        0.64680    0.95880    0.70210    1.000
    C3       C        0.79860    0.13020    0.60690    1.000
    C4       C        0.83420    0.05210    0.57950    1.000
    C5       C        0.85460    0.89590    0.74500    1.000
    C6       C        0.82380    0.81030    0.71460    1.000
    C7       C        0.43230    0.88760    0.59600    1.000
    C8       C        0.46250    0.80140    0.62770    1.000
    C9       C        0.48640    0.14430    0.72370    1.000
    C10      C        0.45280    0.06770    0.75920    1.000
    C11      C        0.86030    0.25280    0.41090    1.000
    C12      C        0.93140    0.23730    0.42090    1.000
    Mn1      Mn       0.41044    0.24084    0.80089    1.000
    Cr5      Cr       0.26410    0.46190    0.65939    1.000
    Cr6      Cr       0.01994    0.46637    0.67579    1.000
    Cr7      Cr       0.38276    0.72569    0.53793    1.000
    O25      O        0.18670    0.44340    0.60640    1.000
    O26      O        0.19930    0.46290    0.72330    1.000
    O27      O        0.08420    0.45930    0.61190    1.000
    O28      O        0.09850    0.46280    0.73110    1.000
    O29      O        0.26260    0.60690    0.64630    1.000
    O30      O        0.32450    0.46960    0.59230    1.000
    O31      O        0.30800    0.71730    0.59350    1.000
    O32      O        0.37320    0.57980    0.54120    1.000
    O33      O        0.33400    0.47600    0.72380    1.000
    O34      O        0.28320    0.32290    0.67490    1.000
    O35      O        0.39510    0.38320    0.78490    1.000
    O36      O        0.34510    0.22970    0.73230    1.000
    O37      O        0.94960    0.46960    0.61060    1.000
    O38      O        0.00190    0.32080    0.67030    1.000
    O39      O        0.89280    0.37080    0.55590    1.000
    O40      O        0.94680    0.22150    0.61030    1.000
    O41      O        0.01990    0.61600    0.68330    1.000
    O42      O        0.96020    0.48280    0.74270    1.000
    O43      O        0.97780    0.72840    0.73990    1.000
    O44      O        0.91950    0.59530    0.79910    1.000
    O45      O        0.33080    0.75160    0.45840    1.000
    O46      O        0.45060    0.72360    0.47490    1.000
    O47      O        0.34200    0.76470    0.36130    1.000
    O48      O        0.46270    0.73890    0.37750    1.000
    C13      C        0.13730    0.45400    0.63370    1.000
    C14      C        0.14680    0.45880    0.70210    1.000
    C15      C        0.29860    0.63020    0.60690    1.000
    C16      C        0.33420    0.55210    0.57950    1.000
    C17      C        0.35460    0.39590    0.74500    1.000
    C18      C        0.32380    0.31030    0.71460    1.000
    C19      C        0.93230    0.38760    0.59600    1.000
    C20      C        0.96250    0.30140    0.62770    1.000
    C21      C        0.98640    0.64430    0.72370    1.000
    C22      C        0.95280    0.56770    0.75920    1.000
    C23      C        0.36030    0.75280    0.41090    1.000
    C24      C        0.43140    0.73730    0.42090    1.000
    Cr8      Cr       0.76410    0.03810    0.15939    1.000
    Cr9      Cr       0.51994    0.03363    0.17579    1.000
    Cr10     Cr       0.88276    0.77431    0.03793    1.000
    Cr11     Cr       0.91044    0.25916    0.30089    1.000
    O49      O        0.68670    0.05660    0.10640    1.000
    O50      O        0.69930    0.03710    0.22330    1.000
    O51      O        0.58420    0.04070    0.11190    1.000
    O52      O        0.59850    0.03720    0.23110    1.000
    O53      O        0.76260    0.89310    0.14630    1.000
    O54      O        0.82450    0.03040    0.09230    1.000
    O55      O        0.80800    0.78270    0.09350    1.000
    O56      O        0.87320    0.92020    0.04120    1.000
    O57      O        0.83400    0.02400    0.22380    1.000
    O58      O        0.78320    0.17710    0.17490    1.000
    O59      O        0.89510    0.11680    0.28490    1.000
    O60      O        0.84510    0.27030    0.23230    1.000
    O61      O        0.44960    0.03040    0.11060    1.000
    O62      O        0.50190    0.17920    0.17030    1.000
    O63      O        0.39280    0.12920    0.05590    1.000
    O64      O        0.44680    0.27850    0.11030    1.000
    O65      O        0.51990    0.88400    0.18330    1.000
    O66      O        0.46020    0.01720    0.24270    1.000
    O67      O        0.47780    0.77160    0.23990    1.000
    O68      O        0.41950    0.90470    0.29910    1.000
    O69      O        0.83080    0.74840    0.95840    1.000
    O70      O        0.95060    0.77640    0.97490    1.000
    O71      O        0.84200    0.73530    0.86130    1.000
    O72      O        0.96270    0.76110    0.87750    1.000
    C25      C        0.63730    0.04600    0.13370    1.000
    C26      C        0.64680    0.04120    0.20210    1.000
    C27      C        0.79860    0.86980    0.10690    1.000
    C28      C        0.83420    0.94790    0.07950    1.000
    C29      C        0.85460    0.10410    0.24500    1.000
    C30      C        0.82380    0.18970    0.21460    1.000
    C31      C        0.43230    0.11240    0.09600    1.000
    C32      C        0.46250    0.19860    0.12770    1.000
    C33      C        0.48640    0.85570    0.22370    1.000
    C34      C        0.45280    0.93230    0.25920    1.000
    C35      C        0.86030    0.74720    0.91090    1.000
    C36      C        0.93140    0.76270    0.92090    1.000
    Mn2      Mn       0.41044    0.75916    0.30089    1.000
    Cr12     Cr       0.26410    0.53810    0.15939    1.000
    Cr13     Cr       0.01994    0.53363    0.17579    1.000
    Cr14     Cr       0.38276    0.27431    0.03793    1.000
    O73      O        0.18670    0.55660    0.10640    1.000
    O74      O        0.19930    0.53710    0.22330    1.000
    O75      O        0.08420    0.54070    0.11190    1.000
    O76      O        0.09850    0.53720    0.23110    1.000
    O77      O        0.26260    0.39310    0.14630    1.000
    O78      O        0.32450    0.53040    0.09230    1.000
    O79      O        0.30800    0.28270    0.09350    1.000
    O80      O        0.37320    0.42020    0.04120    1.000
    O81      O        0.33400    0.52400    0.22380    1.000
    O82      O        0.28320    0.67710    0.17490    1.000
    O83      O        0.39510    0.61680    0.28490    1.000
    O84      O        0.34510    0.77030    0.23230    1.000
    O85      O        0.94960    0.53040    0.11060    1.000
    O86      O        0.00190    0.67920    0.17030    1.000
    O87      O        0.89280    0.62920    0.05590    1.000
    O88      O        0.94680    0.77850    0.11030    1.000
    O89      O        0.01990    0.38400    0.18330    1.000
    O90      O        0.96020    0.51720    0.24270    1.000
    O91      O        0.97780    0.27160    0.23990    1.000
    O92      O        0.91950    0.40470    0.29910    1.000
    O93      O        0.33080    0.24840    0.95840    1.000
    O94      O        0.45060    0.27640    0.97490    1.000
    O95      O        0.34200    0.23530    0.86130    1.000
    O96      O        0.46270    0.26110    0.87750    1.000
    C37      C        0.13730    0.54600    0.13370    1.000
    C38      C        0.14680    0.54120    0.20210    1.000
    C39      C        0.29860    0.36980    0.10690    1.000
    C40      C        0.33420    0.44790    0.07950    1.000
    C41      C        0.35460    0.60410    0.24500    1.000
    C42      C        0.32380    0.68970    0.21460    1.000
    C43      C        0.93230    0.61240    0.09600    1.000
    C44      C        0.96250    0.69860    0.12770    1.000
    C45      C        0.98640    0.35570    0.22370    1.000
    C46      C        0.95280    0.43230    0.25920    1.000
    C47      C        0.36030    0.24720    0.91090    1.000
    C48      C        0.43140    0.26270    0.92090    1.000
