# CIF file generated by openbabel 3.1.0, see https://openbabel.org
data_I
_chemical_name_common 'image0'
_cell_length_a 23.452
_cell_length_b 23.452
_cell_length_c 79.27
_cell_angle_alpha 90
_cell_angle_beta 90
_cell_angle_gamma 120
_space_group_name_H-M_alt 'P 1'
_space_group_name_Hall 'P 1'
loop_
    _symmetry_equiv_pos_as_xyz
    x,y,z
loop_
    _atom_site_label
    _atom_site_type_symbol
    _atom_site_fract_x
    _atom_site_fract_y
    _atom_site_fract_z
    _atom_site_occupancy
    Zn1      Zn       0.08258    0.07007    0.14830    1.000
    O1       O        0.14249    0.13046    0.16362    1.000
    O2       O        0.13348    0.04127    0.13449    1.000
    O3       O        0.06305    0.11645    0.13048    1.000
    C1       C        0.13160    0.12360    0.18000    1.000
    C2       C        0.11080    0.98650    0.12833    1.000
    C3       C        0.18930    0.17700    0.19070    1.000
    O4       O        0.08000    0.08560    0.18651    1.000
    C4       C        0.15440    0.97730    0.11512    1.000
    C5       C        0.24650    0.21800    0.18463    1.000
    C6       C        0.18320    0.17930    0.20767    1.000
    C7       C        0.21910    0.02470    0.11284    1.000
    C8       C        0.12720    0.91830    0.10539    1.000
    H1       H        0.25360    0.21500    0.17320    1.000
    C9       C        0.29620    0.26420    0.19359    1.000
    C10      C        0.23330    0.22490    0.21814    1.000
    H2       H        0.14360    0.14880    0.21260    1.000
    H3       H        0.23950    0.06290    0.11930    1.000
    C11      C        0.25220    0.01130    0.10013    1.000
    C12      C        0.15990    0.91120    0.09252    1.000
    H4       H        0.08550    0.88380    0.10810    1.000
    H5       H        0.33550    0.29170    0.18800    1.000
    C13      C        0.29300    0.27320    0.21017    1.000
    H6       H        0.22810    0.22390    0.22980    1.000
    C14      C        0.22080    0.95760    0.08934    1.000
    H7       H        0.29720    0.03960    0.09880    1.000
    H8       H        0.13970    0.87370    0.08580    1.000
    C15      C        0.34640    0.32070    0.22053    1.000
    C16      C        0.26030    0.94570    0.07615    1.000
    C17      C        0.41110    0.33610    0.21752    1.000
    C18      C        0.33550    0.35530    0.23356    1.000
    C19      C        0.23880    0.88070    0.07078    1.000
    H9       H        0.42010    0.31010    0.21030    1.000
    C20      C        0.45820    0.38660    0.22480    1.000
    H10      H        0.29240    0.34400    0.23620    1.000
    H11      H        0.20110    0.84450    0.07500    1.000
    H12      H        0.50070    0.39790    0.22160    1.000
    Zn2      Zn       0.74924    0.40340    0.48163    1.000
    O5       O        0.80916    0.46379    0.49695    1.000
    O6       O        0.80015    0.37460    0.46782    1.000
    O7       O        0.72972    0.44978    0.46381    1.000
    C21      C        0.79827    0.45693    0.51333    1.000
    C22      C        0.77747    0.31983    0.46166    1.000
    C23      C        0.85597    0.51033    0.52403    1.000
    O8       O        0.74667    0.41893    0.51984    1.000
    C24      C        0.82107    0.31063    0.44845    1.000
    C25      C        0.91317    0.55133    0.51796    1.000
    C26      C        0.84987    0.51263    0.54100    1.000
    C27      C        0.88577    0.35803    0.44617    1.000
    C28      C        0.79387    0.25163    0.43872    1.000
    H13      H        0.92027    0.54833    0.50653    1.000
    C29      C        0.96287    0.59753    0.52692    1.000
    C30      C        0.89997    0.55823    0.55147    1.000
    H14      H        0.81027    0.48213    0.54593    1.000
    H15      H        0.90617    0.39623    0.45263    1.000
    C31      C        0.91887    0.34463    0.43346    1.000
    C32      C        0.82657    0.24453    0.42585    1.000
    H16      H        0.75217    0.21713    0.44143    1.000
    H17      H        0.00217    0.62503    0.52133    1.000
    C33      C        0.95967    0.60653    0.54350    1.000
    H18      H        0.89477    0.55723    0.56313    1.000
    C34      C        0.88747    0.29093    0.42267    1.000
    H19      H        0.96387    0.37293    0.43213    1.000
    H20      H        0.80637    0.20703    0.41913    1.000
    C35      C        0.01307    0.65403    0.55386    1.000
    C36      C        0.92697    0.27903    0.40948    1.000
    C37      C        0.07777    0.66943    0.55085    1.000
    C38      C        0.00217    0.68863    0.56689    1.000
    C39      C        0.90547    0.21403    0.40411    1.000
    H21      H        0.08677    0.64343    0.54363    1.000
    C40      C        0.12487    0.71993    0.55813    1.000
    H22      H        0.95907    0.67733    0.56953    1.000
    H23      H        0.86777    0.17783    0.40833    1.000
    H24      H        0.16737    0.73123    0.55493    1.000
    Zn3      Zn       0.41591    0.73674    0.81497    1.000
    O9       O        0.47582    0.79713    0.83029    1.000
    O10      O        0.46681    0.70794    0.80116    1.000
    O11      O        0.39638    0.78312    0.79715    1.000
    C41      C        0.46493    0.79027    0.84667    1.000
    C42      C        0.44413    0.65317    0.79500    1.000
    C43      C        0.52263    0.84367    0.85737    1.000
    O12      O        0.41333    0.75227    0.85318    1.000
    C44      C        0.48773    0.64397    0.78179    1.000
    C45      C        0.57983    0.88467    0.85130    1.000
    C46      C        0.51653    0.84597    0.87434    1.000
    C47      C        0.55243    0.69137    0.77951    1.000
    C48      C        0.46053    0.58497    0.77206    1.000
    H25      H        0.58693    0.88167    0.83987    1.000
    C49      C        0.62953    0.93087    0.86026    1.000
    C50      C        0.56663    0.89157    0.88481    1.000
    H26      H        0.47693    0.81547    0.87927    1.000
    H27      H        0.57283    0.72957    0.78597    1.000
    C51      C        0.58553    0.67797    0.76680    1.000
    C52      C        0.49323    0.57787    0.75919    1.000
    H28      H        0.41883    0.55047    0.77477    1.000
    H29      H        0.66883    0.95837    0.85467    1.000
    C53      C        0.62633    0.93987    0.87684    1.000
    H30      H        0.56143    0.89057    0.89647    1.000
    C54      C        0.55413    0.62427    0.75601    1.000
    H31      H        0.63053    0.70627    0.76547    1.000
    H32      H        0.47303    0.54037    0.75247    1.000
    C55      C        0.67973    0.98737    0.88720    1.000
    C56      C        0.59363    0.61237    0.74282    1.000
    C57      C        0.74443    0.00277    0.88419    1.000
    C58      C        0.66883    0.02197    0.90023    1.000
    C59      C        0.57213    0.54737    0.73745    1.000
    H33      H        0.75343    0.97677    0.87697    1.000
    C60      C        0.79153    0.05327    0.89147    1.000
    H34      H        0.62573    0.01067    0.90287    1.000
    H35      H        0.53443    0.51117    0.74167    1.000
    H36      H        0.83403    0.06457    0.88827    1.000
    Zn4      Zn       0.92993    0.01251    0.14830    1.000
    O13      O        0.86954    0.01203    0.16362    1.000
    O14      O        0.95873    0.09221    0.13449    1.000
    O15      O        0.88355    0.94660    0.13048    1.000
    C61      C        0.87640    0.00800    0.18000    1.000
    C62      C        0.01350    0.12430    0.12833    1.000
    C63      C        0.82300    0.01230    0.19070    1.000
    O16      O        0.91440    0.99440    0.18651    1.000
    C64      C        0.02270    0.17710    0.11512    1.000
    C65      C        0.78200    0.02850    0.18463    1.000
    C66      C        0.82070    0.00390    0.20767    1.000
    C67      C        0.97530    0.19440    0.11284    1.000
    C68      C        0.08170    0.20890    0.10539    1.000
    H37      H        0.78500    0.03860    0.17320    1.000
    C69      C        0.73580    0.03200    0.19359    1.000
    C70      C        0.77510    0.00840    0.21814    1.000
    H38      H        0.85120    0.99480    0.21260    1.000
    H39      H        0.93710    0.17660    0.11930    1.000
    C71      C        0.98870    0.24090    0.10013    1.000
    C72      C        0.08880    0.24870    0.09252    1.000
    H40      H        0.11620    0.20170    0.10810    1.000
    H41      H        0.70830    0.04380    0.18800    1.000
    C73      C        0.72680    0.01980    0.21017    1.000
    H42      H        0.77610    0.00420    0.22980    1.000
    C74      C        0.04240    0.26320    0.08934    1.000
    H43      H        0.96040    0.25760    0.09880    1.000
    H44      H        0.12630    0.26600    0.08580    1.000
    C75      C        0.67930    0.02570    0.22053    1.000
    C76      C        0.05430    0.31460    0.07615    1.000
    C77      C        0.66390    0.07500    0.21752    1.000
    C78      C        0.64470    0.98020    0.23356    1.000
    C79      C        0.11930    0.35810    0.07078    1.000
    H45      H        0.68990    0.11000    0.21030    1.000
    C80      C        0.61340    0.07160    0.22480    1.000
    H46      H        0.65600    0.94840    0.23620    1.000
    H47      H        0.15550    0.35660    0.07500    1.000
    H48      H        0.60210    0.10280    0.22160    1.000
    Zn5      Zn       0.59660    0.34584    0.48163    1.000
    O17      O        0.53621    0.34536    0.49695    1.000
    O18      O        0.62540    0.42554    0.46782    1.000
    O19      O        0.55022    0.27993    0.46381    1.000
    C81      C        0.54307    0.34133    0.51333    1.000
    C82      C        0.68017    0.45763    0.46166    1.000
    C83      C        0.48967    0.34563    0.52403    1.000
    O20      O        0.58107    0.32773    0.51984    1.000
    C84      C        0.68937    0.51043    0.44845    1.000
    C85      C        0.44867    0.36183    0.51796    1.000
    C86      C        0.48737    0.33723    0.54100    1.000
    C87      C        0.64197    0.52773    0.44617    1.000
    C88      C        0.74837    0.54223    0.43872    1.000
    H49      H        0.45167    0.37193    0.50653    1.000
    C89      C        0.40247    0.36533    0.52692    1.000
    C90      C        0.44177    0.34173    0.55147    1.000
    H50      H        0.51787    0.32813    0.54593    1.000
    H51      H        0.60377    0.50993    0.45263    1.000
    C91      C        0.65537    0.57423    0.43346    1.000
    C92      C        0.75547    0.58203    0.42585    1.000
    H52      H        0.78287    0.53503    0.44143    1.000
    H53      H        0.37497    0.37713    0.52133    1.000
    C93      C        0.39347    0.35313    0.54350    1.000
    H54      H        0.44277    0.33753    0.56313    1.000
    C94      C        0.70907    0.59653    0.42267    1.000
    H55      H        0.62707    0.59093    0.43213    1.000
    H56      H        0.79297    0.59933    0.41913    1.000
    C95      C        0.34597    0.35903    0.55386    1.000
    C96      C        0.72097    0.64793    0.40948    1.000
    C97      C        0.33057    0.40833    0.55085    1.000
    C98      C        0.31137    0.31353    0.56689    1.000
    C99      C        0.78597    0.69143    0.40411    1.000
    H57      H        0.35657    0.44333    0.54363    1.000
    C100     C        0.28007    0.40493    0.55813    1.000
    H58      H        0.32267    0.28173    0.56953    1.000
    H59      H        0.82217    0.68993    0.40833    1.000
    H60      H        0.26877    0.43613    0.55493    1.000
    Zn6      Zn       0.26326    0.67917    0.81497    1.000
    O21      O        0.20287    0.67870    0.83029    1.000
    O22      O        0.29206    0.75888    0.80116    1.000
    O23      O        0.21688    0.61327    0.79715    1.000
    C101     C        0.20973    0.67467    0.84667    1.000
    C102     C        0.34683    0.79097    0.79500    1.000
    C103     C        0.15633    0.67897    0.85737    1.000
    O24      O        0.24773    0.66107    0.85318    1.000
    C104     C        0.35603    0.84377    0.78179    1.000
    C105     C        0.11533    0.69517    0.85130    1.000
    C106     C        0.15403    0.67057    0.87434    1.000
    C107     C        0.30863    0.86107    0.77951    1.000
    C108     C        0.41503    0.87557    0.77206    1.000
    H61      H        0.11833    0.70527    0.83987    1.000
    C109     C        0.06913    0.69867    0.86026    1.000
    C110     C        0.10843    0.67507    0.88481    1.000
    H62      H        0.18453    0.66147    0.87927    1.000
    H63      H        0.27043    0.84327    0.78597    1.000
    C111     C        0.32203    0.90757    0.76680    1.000
    C112     C        0.42213    0.91537    0.75919    1.000
    H64      H        0.44953    0.86837    0.77477    1.000
    H65      H        0.04163    0.71047    0.85467    1.000
    C113     C        0.06013    0.68647    0.87684    1.000
    H66      H        0.10943    0.67087    0.89647    1.000
    C114     C        0.37573    0.92987    0.75601    1.000
    H67      H        0.29373    0.92427    0.76547    1.000
    H68      H        0.45963    0.93267    0.75247    1.000
    C115     C        0.01263    0.69237    0.88720    1.000
    C116     C        0.38763    0.98127    0.74282    1.000
    C117     C        0.99723    0.74167    0.88419    1.000
    C118     C        0.97803    0.64687    0.90023    1.000
    C119     C        0.45263    0.02477    0.73745    1.000
    H69      H        0.02323    0.77667    0.87697    1.000
    C120     C        0.94673    0.73827    0.89147    1.000
    H70      H        0.98933    0.61507    0.90287    1.000
    H71      H        0.48883    0.02327    0.74167    1.000
    H72      H        0.93543    0.76947    0.88827    1.000
    Zn7      Zn       0.98749    0.91742    0.14830    1.000
    O25      O        0.98797    0.85751    0.16362    1.000
    O26      O        0.90779    0.86652    0.13449    1.000
    O27      O        0.05340    0.93695    0.13048    1.000
    C121     C        0.99200    0.86840    0.18000    1.000
    C122     C        0.87570    0.88920    0.12833    1.000
    C123     C        0.98770    0.81070    0.19070    1.000
    O28      O        0.00560    0.92000    0.18651    1.000
    C124     C        0.82290    0.84560    0.11512    1.000
    C125     C        0.97150    0.75350    0.18463    1.000
    C126     C        0.99610    0.81680    0.20767    1.000
    C127     C        0.80560    0.78090    0.11284    1.000
    C128     C        0.79110    0.87280    0.10539    1.000
    H73      H        0.96140    0.74640    0.17320    1.000
    C129     C        0.96800    0.70380    0.19359    1.000
    C130     C        0.99160    0.76670    0.21814    1.000
    H74      H        0.00520    0.85640    0.21260    1.000
    H75      H        0.82340    0.76050    0.11930    1.000
    C131     C        0.75910    0.74780    0.10013    1.000
    C132     C        0.75130    0.84010    0.09252    1.000
    H76      H        0.79830    0.91450    0.10810    1.000
    H77      H        0.95620    0.66450    0.18800    1.000
    C133     C        0.98020    0.70700    0.21017    1.000
    H78      H        0.99580    0.77190    0.22980    1.000
    C134     C        0.73680    0.77920    0.08934    1.000
    H79      H        0.74240    0.70280    0.09880    1.000
    H80      H        0.73400    0.86030    0.08580    1.000
    C135     C        0.97430    0.65360    0.22053    1.000
    C136     C        0.68540    0.73970    0.07615    1.000
    C137     C        0.92500    0.58890    0.21752    1.000
    C138     C        0.01980    0.66450    0.23356    1.000
    C139     C        0.64190    0.76120    0.07078    1.000
    H81      H        0.89000    0.57990    0.21030    1.000
    C140     C        0.92840    0.54180    0.22480    1.000
    H82      H        0.05160    0.70760    0.23620    1.000
    H83      H        0.64340    0.79890    0.07500    1.000
    H84      H        0.89720    0.49930    0.22160    1.000
    Zn8      Zn       0.65416    0.25076    0.48163    1.000
    O29      O        0.65464    0.19084    0.49695    1.000
    O30      O        0.57446    0.19985    0.46782    1.000
    O31      O        0.72007    0.27028    0.46381    1.000
    C141     C        0.65867    0.20173    0.51333    1.000
    C142     C        0.54237    0.22253    0.46166    1.000
    C143     C        0.65437    0.14403    0.52403    1.000
    O32      O        0.67227    0.25333    0.51984    1.000
    C144     C        0.48957    0.17893    0.44845    1.000
    C145     C        0.63817    0.08683    0.51796    1.000
    C146     C        0.66277    0.15013    0.54100    1.000
    C147     C        0.47227    0.11423    0.44617    1.000
    C148     C        0.45777    0.20613    0.43872    1.000
    H85      H        0.62807    0.07973    0.50653    1.000
    C149     C        0.63467    0.03713    0.52692    1.000
    C150     C        0.65827    0.10003    0.55147    1.000
    H86      H        0.67187    0.18973    0.54593    1.000
    H87      H        0.49007    0.09383    0.45263    1.000
    C151     C        0.42577    0.08113    0.43346    1.000
    C152     C        0.41797    0.17343    0.42585    1.000
    H88      H        0.46497    0.24783    0.44143    1.000
    H89      H        0.62287    0.99783    0.52133    1.000
    C153     C        0.64687    0.04033    0.54350    1.000
    H90      H        0.66247    0.10523    0.56313    1.000
    C154     C        0.40347    0.11253    0.42267    1.000
    H91      H        0.40907    0.03613    0.43213    1.000
    H92      H        0.40067    0.19363    0.41913    1.000
    C155     C        0.64097    0.98693    0.55386    1.000
    C156     C        0.35207    0.07303    0.40948    1.000
    C157     C        0.59167    0.92223    0.55085    1.000
    C158     C        0.68647    0.99783    0.56689    1.000
    C159     C        0.30857    0.09453    0.40411    1.000
    H93      H        0.55667    0.91323    0.54363    1.000
    C160     C        0.59507    0.87513    0.55813    1.000
    H94      H        0.71827    0.04093    0.56953    1.000
    H95      H        0.31007    0.13223    0.40833    1.000
    H96      H        0.56387    0.83263    0.55493    1.000
    Zn9      Zn       0.32083    0.58409    0.81497    1.000
    O33      O        0.32130    0.52418    0.83029    1.000
    O34      O        0.24112    0.53319    0.80116    1.000
    O35      O        0.38673    0.60362    0.79715    1.000
    C161     C        0.32533    0.53507    0.84667    1.000
    C162     C        0.20903    0.55587    0.79500    1.000
    C163     C        0.32103    0.47737    0.85737    1.000
    O36      O        0.33893    0.58667    0.85318    1.000
    C164     C        0.15623    0.51227    0.78179    1.000
    C165     C        0.30483    0.42017    0.85130    1.000
    C166     C        0.32943    0.48347    0.87434    1.000
    C167     C        0.13893    0.44757    0.77951    1.000
    C168     C        0.12443    0.53947    0.77206    1.000
    H97      H        0.29473    0.41307    0.83987    1.000
    C169     C        0.30133    0.37047    0.86026    1.000
    C170     C        0.32493    0.43337    0.88481    1.000
    H98      H        0.33853    0.52307    0.87927    1.000
    H99      H        0.15673    0.42717    0.78597    1.000
    C171     C        0.09243    0.41447    0.76680    1.000
    C172     C        0.08463    0.50677    0.75919    1.000
    H100     H        0.13163    0.58117    0.77477    1.000
    H101     H        0.28953    0.33117    0.85467    1.000
    C173     C        0.31353    0.37367    0.87684    1.000
    H102     H        0.32913    0.43857    0.89647    1.000
    C174     C        0.07013    0.44587    0.75601    1.000
    H103     H        0.07573    0.36947    0.76547    1.000
    H104     H        0.06733    0.52697    0.75247    1.000
    C175     C        0.30763    0.32027    0.88720    1.000
    C176     C        0.01873    0.40637    0.74282    1.000
    C177     C        0.25833    0.25557    0.88419    1.000
    C178     C        0.35313    0.33117    0.90023    1.000
    C179     C        0.97523    0.42787    0.73745    1.000
    H105     H        0.22333    0.24657    0.87697    1.000
    C180     C        0.26173    0.20847    0.89147    1.000
    H106     H        0.38493    0.37427    0.90287    1.000
    H107     H        0.97673    0.46557    0.74167    1.000
    H108     H        0.23053    0.16597    0.88827    1.000
    Zn10     Zn       0.92993    0.91742    0.64830    1.000
    O37      O        0.86954    0.85751    0.66362    1.000
    O38      O        0.95873    0.86652    0.63449    1.000
    O39      O        0.88355    0.93695    0.63048    1.000
    C181     C        0.87640    0.86840    0.68000    1.000
    C182     C        0.01350    0.88920    0.62833    1.000
    C183     C        0.82300    0.81070    0.69070    1.000
    O40      O        0.91440    0.92000    0.68651    1.000
    C184     C        0.02270    0.84560    0.61512    1.000
    C185     C        0.78200    0.75350    0.68463    1.000
    C186     C        0.82070    0.81680    0.70767    1.000
    C187     C        0.97530    0.78090    0.61284    1.000
    C188     C        0.08170    0.87280    0.60539    1.000
    H109     H        0.78500    0.74640    0.67320    1.000
    C189     C        0.73580    0.70380    0.69359    1.000
    C190     C        0.77510    0.76670    0.71814    1.000
    H110     H        0.85120    0.85640    0.71260    1.000
    H111     H        0.93710    0.76050    0.61930    1.000
    C191     C        0.98870    0.74780    0.60013    1.000
    C192     C        0.08880    0.84010    0.59252    1.000
    H112     H        0.11620    0.91450    0.60810    1.000
    H113     H        0.70830    0.66450    0.68800    1.000
    C193     C        0.72680    0.70700    0.71017    1.000
    H114     H        0.77610    0.77190    0.72980    1.000
    C194     C        0.04240    0.77920    0.58934    1.000
    H115     H        0.96040    0.70280    0.59880    1.000
    H116     H        0.12630    0.86030    0.58580    1.000
    C195     C        0.67930    0.65360    0.72053    1.000
    C196     C        0.05430    0.73970    0.57615    1.000
    C197     C        0.66390    0.58890    0.71752    1.000
    C198     C        0.64470    0.66450    0.73356    1.000
    C199     C        0.11930    0.76120    0.57078    1.000
    H117     H        0.68990    0.57990    0.71030    1.000
    C200     C        0.61340    0.54180    0.72480    1.000
    H118     H        0.65600    0.70760    0.73620    1.000
    H119     H        0.15550    0.79890    0.57500    1.000
    H120     H        0.60210    0.49930    0.72160    1.000
    Zn11     Zn       0.59660    0.25076    0.98163    1.000
    O41      O        0.53621    0.19084    0.99695    1.000
    O42      O        0.62540    0.19985    0.96782    1.000
    O43      O        0.55022    0.27028    0.96381    1.000
    C201     C        0.54307    0.20173    0.01333    1.000
    C202     C        0.68017    0.22253    0.96166    1.000
    C203     C        0.48967    0.14403    0.02403    1.000
    O44      O        0.58107    0.25333    0.01984    1.000
    C204     C        0.68937    0.17893    0.94845    1.000
    C205     C        0.44867    0.08683    0.01796    1.000
    C206     C        0.48737    0.15013    0.04100    1.000
    C207     C        0.64197    0.11423    0.94617    1.000
    C208     C        0.74837    0.20613    0.93872    1.000
    H121     H        0.45167    0.07973    0.00653    1.000
    C209     C        0.40247    0.03713    0.02692    1.000
    C210     C        0.44177    0.10003    0.05147    1.000
    H122     H        0.51787    0.18973    0.04593    1.000
    H123     H        0.60377    0.09383    0.95263    1.000
    C211     C        0.65537    0.08113    0.93346    1.000
    C212     C        0.75547    0.17343    0.92585    1.000
    H124     H        0.78287    0.24783    0.94143    1.000
    H125     H        0.37497    0.99783    0.02133    1.000
    C213     C        0.39347    0.04033    0.04350    1.000
    H126     H        0.44277    0.10523    0.06313    1.000
    C214     C        0.70907    0.11253    0.92267    1.000
    H127     H        0.62707    0.03613    0.93213    1.000
    H128     H        0.79297    0.19363    0.91913    1.000
    C215     C        0.34597    0.98693    0.05386    1.000
    C216     C        0.72097    0.07303    0.90948    1.000
    C217     C        0.33057    0.92223    0.05085    1.000
    C218     C        0.31137    0.99783    0.06689    1.000
    C219     C        0.78597    0.09453    0.90411    1.000
    H129     H        0.35657    0.91323    0.04363    1.000
    C220     C        0.28007    0.87513    0.05813    1.000
    H130     H        0.32267    0.04093    0.06953    1.000
    H131     H        0.82217    0.13223    0.90833    1.000
    H132     H        0.26877    0.83263    0.05493    1.000
    Zn12     Zn       0.26326    0.58409    0.31497    1.000
    O45      O        0.20287    0.52418    0.33029    1.000
    O46      O        0.29206    0.53319    0.30116    1.000
    O47      O        0.21688    0.60362    0.29715    1.000
    C221     C        0.20973    0.53507    0.34667    1.000
    C222     C        0.34683    0.55587    0.29500    1.000
    C223     C        0.15633    0.47737    0.35737    1.000
    O48      O        0.24773    0.58667    0.35318    1.000
    C224     C        0.35603    0.51227    0.28179    1.000
    C225     C        0.11533    0.42017    0.35130    1.000
    C226     C        0.15403    0.48347    0.37434    1.000
    C227     C        0.30863    0.44757    0.27951    1.000
    C228     C        0.41503    0.53947    0.27206    1.000
    H133     H        0.11833    0.41307    0.33987    1.000
    C229     C        0.06913    0.37047    0.36026    1.000
    C230     C        0.10843    0.43337    0.38481    1.000
    H134     H        0.18453    0.52307    0.37927    1.000
    H135     H        0.27043    0.42717    0.28597    1.000
    C231     C        0.32203    0.41447    0.26680    1.000
    C232     C        0.42213    0.50677    0.25919    1.000
    H136     H        0.44953    0.58117    0.27477    1.000
    H137     H        0.04163    0.33117    0.35467    1.000
    C233     C        0.06013    0.37367    0.37684    1.000
    H138     H        0.10943    0.43857    0.39647    1.000
    C234     C        0.37573    0.44587    0.25601    1.000
    H139     H        0.29373    0.36947    0.26547    1.000
    H140     H        0.45963    0.52697    0.25247    1.000
    C235     C        0.01263    0.32027    0.38720    1.000
    C236     C        0.38763    0.40637    0.24282    1.000
    C237     C        0.99723    0.25557    0.38419    1.000
    C238     C        0.97803    0.33117    0.40023    1.000
    C239     C        0.45263    0.42787    0.23745    1.000
    H141     H        0.02323    0.24657    0.37697    1.000
    C240     C        0.94673    0.20847    0.39147    1.000
    H142     H        0.98933    0.37427    0.40287    1.000
    H143     H        0.48883    0.46557    0.24167    1.000
    H144     H        0.93543    0.16597    0.38827    1.000
    Zn13     Zn       0.98749    0.07007    0.64830    1.000
    O49      O        0.98797    0.13046    0.66362    1.000
    O50      O        0.90779    0.04127    0.63449    1.000
    O51      O        0.05340    0.11645    0.63048    1.000
    C241     C        0.99200    0.12360    0.68000    1.000
    C242     C        0.87570    0.98650    0.62833    1.000
    C243     C        0.98770    0.17700    0.69070    1.000
    O52      O        0.00560    0.08560    0.68651    1.000
    C244     C        0.82290    0.97730    0.61512    1.000
    C245     C        0.97150    0.21800    0.68463    1.000
    C246     C        0.99610    0.17930    0.70767    1.000
    C247     C        0.80560    0.02470    0.61284    1.000
    C248     C        0.79110    0.91830    0.60539    1.000
    H145     H        0.96140    0.21500    0.67320    1.000
    C249     C        0.96800    0.26420    0.69359    1.000
    C250     C        0.99160    0.22490    0.71814    1.000
    H146     H        0.00520    0.14880    0.71260    1.000
    H147     H        0.82340    0.06290    0.61930    1.000
    C251     C        0.75910    0.01130    0.60013    1.000
    C252     C        0.75130    0.91120    0.59252    1.000
    H148     H        0.79830    0.88380    0.60810    1.000
    H149     H        0.95620    0.29170    0.68800    1.000
    C253     C        0.98020    0.27320    0.71017    1.000
    H150     H        0.99580    0.22390    0.72980    1.000
    C254     C        0.73680    0.95760    0.58934    1.000
    H151     H        0.74240    0.03960    0.59880    1.000
    H152     H        0.73400    0.87370    0.58580    1.000
    C255     C        0.97430    0.32070    0.72053    1.000
    C256     C        0.68540    0.94570    0.57615    1.000
    C257     C        0.92500    0.33610    0.71752    1.000
    C258     C        0.01980    0.35530    0.73356    1.000
    C259     C        0.64190    0.88070    0.57078    1.000
    H153     H        0.89000    0.31010    0.71030    1.000
    C260     C        0.92840    0.38660    0.72480    1.000
    H154     H        0.05160    0.34400    0.73620    1.000
    H155     H        0.64340    0.84450    0.57500    1.000
    H156     H        0.89720    0.39790    0.72160    1.000
    Zn14     Zn       0.65416    0.40340    0.98163    1.000
    O53      O        0.65464    0.46379    0.99695    1.000
    O54      O        0.57446    0.37460    0.96782    1.000
    O55      O        0.72007    0.44978    0.96381    1.000
    C261     C        0.65867    0.45693    0.01333    1.000
    C262     C        0.54237    0.31983    0.96166    1.000
    C263     C        0.65437    0.51033    0.02403    1.000
    O56      O        0.67227    0.41893    0.01984    1.000
    C264     C        0.48957    0.31063    0.94845    1.000
    C265     C        0.63817    0.55133    0.01796    1.000
    C266     C        0.66277    0.51263    0.04100    1.000
    C267     C        0.47227    0.35803    0.94617    1.000
    C268     C        0.45777    0.25163    0.93872    1.000
    H157     H        0.62807    0.54833    0.00653    1.000
    C269     C        0.63467    0.59753    0.02692    1.000
    C270     C        0.65827    0.55823    0.05147    1.000
    H158     H        0.67187    0.48213    0.04593    1.000
    H159     H        0.49007    0.39623    0.95263    1.000
    C271     C        0.42577    0.34463    0.93346    1.000
    C272     C        0.41797    0.24453    0.92585    1.000
    H160     H        0.46497    0.21713    0.94143    1.000
    H161     H        0.62287    0.62503    0.02133    1.000
    C273     C        0.64687    0.60653    0.04350    1.000
    H162     H        0.66247    0.55723    0.06313    1.000
    C274     C        0.40347    0.29093    0.92267    1.000
    H163     H        0.40907    0.37293    0.93213    1.000
    H164     H        0.40067    0.20703    0.91913    1.000
    C275     C        0.64097    0.65403    0.05386    1.000
    C276     C        0.35207    0.27903    0.90948    1.000
    C277     C        0.59167    0.66943    0.05085    1.000
    C278     C        0.68647    0.68863    0.06689    1.000
    C279     C        0.30857    0.21403    0.90411    1.000
    H165     H        0.55667    0.64343    0.04363    1.000
    C280     C        0.59507    0.71993    0.05813    1.000
    H166     H        0.71827    0.67733    0.06953    1.000
    H167     H        0.31007    0.17783    0.90833    1.000
    H168     H        0.56387    0.73123    0.05493    1.000
    Zn15     Zn       0.32083    0.73674    0.31497    1.000
    O57      O        0.32130    0.79713    0.33029    1.000
    O58      O        0.24112    0.70794    0.30116    1.000
    O59      O        0.38673    0.78312    0.29715    1.000
    C281     C        0.32533    0.79027    0.34667    1.000
    C282     C        0.20903    0.65317    0.29500    1.000
    C283     C        0.32103    0.84367    0.35737    1.000
    O60      O        0.33893    0.75227    0.35318    1.000
    C284     C        0.15623    0.64397    0.28179    1.000
    C285     C        0.30483    0.88467    0.35130    1.000
    C286     C        0.32943    0.84597    0.37434    1.000
    C287     C        0.13893    0.69137    0.27951    1.000
    C288     C        0.12443    0.58497    0.27206    1.000
    H169     H        0.29473    0.88167    0.33987    1.000
    C289     C        0.30133    0.93087    0.36026    1.000
    C290     C        0.32493    0.89157    0.38481    1.000
    H170     H        0.33853    0.81547    0.37927    1.000
    H171     H        0.15673    0.72957    0.28597    1.000
    C291     C        0.09243    0.67797    0.26680    1.000
    C292     C        0.08463    0.57787    0.25919    1.000
    H172     H        0.13163    0.55047    0.27477    1.000
    H173     H        0.28953    0.95837    0.35467    1.000
    C293     C        0.31353    0.93987    0.37684    1.000
    H174     H        0.32913    0.89057    0.39647    1.000
    C294     C        0.07013    0.62427    0.25601    1.000
    H175     H        0.07573    0.70627    0.26547    1.000
    H176     H        0.06733    0.54037    0.25247    1.000
    C295     C        0.30763    0.98737    0.38720    1.000
    C296     C        0.01873    0.61237    0.24282    1.000
    C297     C        0.25833    0.00277    0.38419    1.000
    C298     C        0.35313    0.02197    0.40023    1.000
    C299     C        0.97523    0.54737    0.23745    1.000
    H177     H        0.22333    0.97677    0.37697    1.000
    C300     C        0.26173    0.05327    0.39147    1.000
    H178     H        0.38493    0.01067    0.40287    1.000
    H179     H        0.97673    0.51117    0.24167    1.000
    H180     H        0.23053    0.06457    0.38827    1.000
    Zn16     Zn       0.08258    0.01251    0.64830    1.000
    O61      O        0.14249    0.01203    0.66362    1.000
    O62      O        0.13348    0.09221    0.63449    1.000
    O63      O        0.06305    0.94660    0.63048    1.000
    C301     C        0.13160    0.00800    0.68000    1.000
    C302     C        0.11080    0.12430    0.62833    1.000
    C303     C        0.18930    0.01230    0.69070    1.000
    O64      O        0.08000    0.99440    0.68651    1.000
    C304     C        0.15440    0.17710    0.61512    1.000
    C305     C        0.24650    0.02850    0.68463    1.000
    C306     C        0.18320    0.00390    0.70767    1.000
    C307     C        0.21910    0.19440    0.61284    1.000
    C308     C        0.12720    0.20890    0.60539    1.000
    H181     H        0.25360    0.03860    0.67320    1.000
    C309     C        0.29620    0.03200    0.69359    1.000
    C310     C        0.23330    0.00840    0.71814    1.000
    H182     H        0.14360    0.99480    0.71260    1.000
    H183     H        0.23950    0.17660    0.61930    1.000
    C311     C        0.25220    0.24090    0.60013    1.000
    C312     C        0.15990    0.24870    0.59252    1.000
    H184     H        0.08550    0.20170    0.60810    1.000
    H185     H        0.33550    0.04380    0.68800    1.000
    C313     C        0.29300    0.01980    0.71017    1.000
    H186     H        0.22810    0.00420    0.72980    1.000
    C314     C        0.22080    0.26320    0.58934    1.000
    H187     H        0.29720    0.25760    0.59880    1.000
    H188     H        0.13970    0.26600    0.58580    1.000
    C315     C        0.34640    0.02570    0.72053    1.000
    C316     C        0.26030    0.31460    0.57615    1.000
    C317     C        0.41110    0.07500    0.71752    1.000
    C318     C        0.33550    0.98020    0.73356    1.000
    C319     C        0.23880    0.35810    0.57078    1.000
    H189     H        0.42010    0.11000    0.71030    1.000
    C320     C        0.45820    0.07160    0.72480    1.000
    H190     H        0.29240    0.94840    0.73620    1.000
    H191     H        0.20110    0.35660    0.57500    1.000
    H192     H        0.50070    0.10280    0.72160    1.000
    Zn17     Zn       0.74924    0.34584    0.98163    1.000
    O65      O        0.80916    0.34536    0.99695    1.000
    O66      O        0.80015    0.42554    0.96782    1.000
    O67      O        0.72972    0.27993    0.96381    1.000
    C321     C        0.79827    0.34133    0.01333    1.000
    C322     C        0.77747    0.45763    0.96166    1.000
    C323     C        0.85597    0.34563    0.02403    1.000
    O68      O        0.74667    0.32773    0.01984    1.000
    C324     C        0.82107    0.51043    0.94845    1.000
    C325     C        0.91317    0.36183    0.01796    1.000
    C326     C        0.84987    0.33723    0.04100    1.000
    C327     C        0.88577    0.52773    0.94617    1.000
    C328     C        0.79387    0.54223    0.93872    1.000
    H193     H        0.92027    0.37193    0.00653    1.000
    C329     C        0.96287    0.36533    0.02692    1.000
    C330     C        0.89997    0.34173    0.05147    1.000
    H194     H        0.81027    0.32813    0.04593    1.000
    H195     H        0.90617    0.50993    0.95263    1.000
    C331     C        0.91887    0.57423    0.93346    1.000
    C332     C        0.82657    0.58203    0.92585    1.000
    H196     H        0.75217    0.53503    0.94143    1.000
    H197     H        0.00217    0.37713    0.02133    1.000
    C333     C        0.95967    0.35313    0.04350    1.000
    H198     H        0.89477    0.33753    0.06313    1.000
    C334     C        0.88747    0.59653    0.92267    1.000
    H199     H        0.96387    0.59093    0.93213    1.000
    H200     H        0.80637    0.59933    0.91913    1.000
    C335     C        0.01307    0.35903    0.05386    1.000
    C336     C        0.92697    0.64793    0.90948    1.000
    C337     C        0.07777    0.40833    0.05085    1.000
    C338     C        0.00217    0.31353    0.06689    1.000
    C339     C        0.90547    0.69143    0.90411    1.000
    H201     H        0.08677    0.44333    0.04363    1.000
    C340     C        0.12487    0.40493    0.05813    1.000
    H202     H        0.95907    0.28173    0.06953    1.000
    H203     H        0.86777    0.68993    0.90833    1.000
    H204     H        0.16737    0.43613    0.05493    1.000
    Zn18     Zn       0.41591    0.67917    0.31497    1.000
    O69      O        0.47582    0.67870    0.33029    1.000
    O70      O        0.46681    0.75888    0.30116    1.000
    O71      O        0.39638    0.61327    0.29715    1.000
    C341     C        0.46493    0.67467    0.34667    1.000
    C342     C        0.44413    0.79097    0.29500    1.000
    C343     C        0.52263    0.67897    0.35737    1.000
    O72      O        0.41333    0.66107    0.35318    1.000
    C344     C        0.48773    0.84377    0.28179    1.000
    C345     C        0.57983    0.69517    0.35130    1.000
    C346     C        0.51653    0.67057    0.37434    1.000
    C347     C        0.55243    0.86107    0.27951    1.000
    C348     C        0.46053    0.87557    0.27206    1.000
    H205     H        0.58693    0.70527    0.33987    1.000
    C349     C        0.62953    0.69867    0.36026    1.000
    C350     C        0.56663    0.67507    0.38481    1.000
    H206     H        0.47693    0.66147    0.37927    1.000
    H207     H        0.57283    0.84327    0.28597    1.000
    C351     C        0.58553    0.90757    0.26680    1.000
    C352     C        0.49323    0.91537    0.25919    1.000
    H208     H        0.41883    0.86837    0.27477    1.000
    H209     H        0.66883    0.71047    0.35467    1.000
    C353     C        0.62633    0.68647    0.37684    1.000
    H210     H        0.56143    0.67087    0.39647    1.000
    C354     C        0.55413    0.92987    0.25601    1.000
    H211     H        0.63053    0.92427    0.26547    1.000
    H212     H        0.47303    0.93267    0.25247    1.000
    C355     C        0.67973    0.69237    0.38720    1.000
    C356     C        0.59363    0.98127    0.24282    1.000
    C357     C        0.74443    0.74167    0.38419    1.000
    C358     C        0.66883    0.64687    0.40023    1.000
    C359     C        0.57213    0.02477    0.23745    1.000
    H213     H        0.75343    0.77667    0.37697    1.000
    C360     C        0.79153    0.73827    0.39147    1.000
    H214     H        0.62573    0.61507    0.40287    1.000
    H215     H        0.53443    0.02327    0.24167    1.000
    H216     H        0.83403    0.76947    0.38827    1.000
    O73      O        0.00000    0.00000    0.15756    1.000
    Zn19     Zn       0.00000    0.00000    0.18239    1.000
    O74      O        0.66667    0.33333    0.49089    1.000
    Zn20     Zn       0.66667    0.33333    0.51573    1.000
    O75      O        0.33333    0.66667    0.82423    1.000
    Zn21     Zn       0.33333    0.66667    0.84906    1.000
    O76      O        0.00000    0.00000    0.65756    1.000
    Zn22     Zn       0.00000    0.00000    0.68239    1.000
    O77      O        0.66667    0.33333    0.99089    1.000
    Zn23     Zn       0.66667    0.33333    0.01573    1.000
    O78      O        0.33333    0.66667    0.32423    1.000
    Zn24     Zn       0.33333    0.66667    0.34906    1.000
    C361     C        0.53905    0.31353    0.18857    1.000
    C362     C        0.48913    0.30522    0.17589    1.000
    C363     C        0.44770    0.24578    0.16883    1.000
    H217     H        0.45090    0.20960    0.17240    1.000
    C364     C        0.40090    0.23566    0.15665    1.000
    H218     H        0.37560    0.19430    0.15180    1.000
    C365     C        0.39228    0.28716    0.15174    1.000
    C366     C        0.42875    0.34539    0.15968    1.000
    H219     H        0.42110    0.37990    0.15750    1.000
    C367     C        0.47734    0.35454    0.17106    1.000
    H220     H        0.50330    0.39620    0.17570    1.000
    C368     C        0.34151    0.27625    0.13889    1.000
    C369     C        0.28751    0.21447    0.13590    1.000
    H221     H        0.28090    0.17880    0.14250    1.000
    C370     C        0.24319    0.20574    0.12311    1.000
    H222     H        0.20700    0.16410    0.12140    1.000
    C371     C        0.25126    0.25681    0.11295    1.000
    H223     H        0.22260    0.24870    0.10400    1.000
    C372     C        0.30206    0.32041    0.11606    1.000
    C373     C        0.34655    0.32929    0.12920    1.000
    H224     H        0.38050    0.37170    0.13160    1.000
    C374     C        0.30875    0.37660    0.10572    1.000
    C375     C        0.29352    0.36950    0.08861    1.000
    H225     H        0.28300    0.33030    0.08310    1.000
    C376     C        0.29400    0.41930    0.07992    1.000
    H226     H        0.28090    0.41250    0.06870    1.000
    C377     C        0.31300    0.47940    0.08703    1.000
    C378     C        0.33070    0.49010    0.10457    1.000
    H227     H        0.34160    0.52980    0.10980    1.000
    C379     C        0.33110    0.43870    0.11351    1.000
    H228     H        0.34600    0.44530    0.12460    1.000
    C380     C        0.31500    0.53450    0.07752    1.000
    O79      O        0.57342    0.37173    0.19486    1.000
    O80      O        0.54074    0.26420    0.19308    1.000
    O81      O        0.33154    0.58954    0.08515    1.000
    O82      O        0.30648    0.52547    0.06119    1.000
    Zn25     Zn       0.65356    0.40439    0.20909    1.000
    C381     C        0.20572    0.64686    0.52190    1.000
    C382     C        0.15580    0.63855    0.50922    1.000
    C383     C        0.11437    0.57911    0.50216    1.000
    H229     H        0.11757    0.54293    0.50573    1.000
    C384     C        0.06757    0.56899    0.48998    1.000
    H230     H        0.04227    0.52763    0.48513    1.000
    C385     C        0.05895    0.62049    0.48507    1.000
    C386     C        0.09542    0.67872    0.49301    1.000
    H231     H        0.08777    0.71323    0.49083    1.000
    C387     C        0.14401    0.68787    0.50439    1.000
    H232     H        0.16997    0.72953    0.50903    1.000
    C388     C        0.00818    0.60958    0.47222    1.000
    C389     C        0.95418    0.54780    0.46923    1.000
    H233     H        0.94757    0.51213    0.47583    1.000
    C390     C        0.90986    0.53907    0.45644    1.000
    H234     H        0.87367    0.49743    0.45473    1.000
    C391     C        0.91793    0.59014    0.44628    1.000
    H235     H        0.88927    0.58203    0.43733    1.000
    C392     C        0.96873    0.65374    0.44939    1.000
    C393     C        0.01322    0.66262    0.46253    1.000
    H236     H        0.04717    0.70503    0.46493    1.000
    C394     C        0.97542    0.70993    0.43905    1.000
    C395     C        0.96019    0.70283    0.42194    1.000
    H237     H        0.94967    0.66363    0.41643    1.000
    C396     C        0.96067    0.75263    0.41325    1.000
    H238     H        0.94757    0.74583    0.40203    1.000
    C397     C        0.97967    0.81273    0.42036    1.000
    C398     C        0.99737    0.82343    0.43790    1.000
    H239     H        0.00827    0.86313    0.44313    1.000
    C399     C        0.99777    0.77203    0.44684    1.000
    H240     H        0.01267    0.77863    0.45793    1.000
    C400     C        0.98167    0.86783    0.41085    1.000
    O83      O        0.24009    0.70506    0.52819    1.000
    O84      O        0.20741    0.59753    0.52641    1.000
    O85      O        0.99821    0.92287    0.41848    1.000
    O86      O        0.97315    0.85880    0.39452    1.000
    Zn26     Zn       0.32023    0.73772    0.54243    1.000
    C401     C        0.87238    0.98020    0.85524    1.000
    C402     C        0.82246    0.97189    0.84256    1.000
    C403     C        0.78103    0.91245    0.83550    1.000
    H241     H        0.78423    0.87627    0.83907    1.000
    C404     C        0.73423    0.90233    0.82332    1.000
    H242     H        0.70893    0.86097    0.81847    1.000
    C405     C        0.72561    0.95383    0.81841    1.000
    C406     C        0.76208    0.01206    0.82635    1.000
    H243     H        0.75443    0.04657    0.82417    1.000
    C407     C        0.81067    0.02121    0.83773    1.000
    H244     H        0.83663    0.06287    0.84237    1.000
    C408     C        0.67484    0.94292    0.80556    1.000
    C409     C        0.62084    0.88114    0.80257    1.000
    H245     H        0.61423    0.84547    0.80917    1.000
    C410     C        0.57652    0.87241    0.78978    1.000
    H246     H        0.54033    0.83077    0.78807    1.000
    C411     C        0.58459    0.92348    0.77962    1.000
    H247     H        0.55593    0.91537    0.77067    1.000
    C412     C        0.63539    0.98708    0.78273    1.000
    C413     C        0.67988    0.99596    0.79587    1.000
    H248     H        0.71383    0.03837    0.79827    1.000
    C414     C        0.64208    0.04327    0.77239    1.000
    C415     C        0.62685    0.03617    0.75528    1.000
    H249     H        0.61633    0.99697    0.74977    1.000
    C416     C        0.62733    0.08597    0.74659    1.000
    H250     H        0.61423    0.07917    0.73537    1.000
    C417     C        0.64633    0.14607    0.75370    1.000
    C418     C        0.66403    0.15677    0.77124    1.000
    H251     H        0.67493    0.19647    0.77647    1.000
    C419     C        0.66443    0.10537    0.78018    1.000
    H252     H        0.67933    0.11197    0.79127    1.000
    C420     C        0.64833    0.20117    0.74419    1.000
    O87      O        0.90675    0.03840    0.86153    1.000
    O88      O        0.87407    0.93087    0.85975    1.000
    O89      O        0.66487    0.25621    0.75182    1.000
    O90      O        0.63981    0.19214    0.72786    1.000
    Zn27     Zn       0.98690    0.07105    0.87576    1.000
    C421     C        0.68647    0.22552    0.18857    1.000
    C422     C        0.69478    0.18391    0.17589    1.000
    C423     C        0.75422    0.20192    0.16883    1.000
    H253     H        0.79040    0.24130    0.17240    1.000
    C424     C        0.76434    0.16524    0.15665    1.000
    H254     H        0.80570    0.18130    0.15180    1.000
    C425     C        0.71284    0.10512    0.15174    1.000
    C426     C        0.65461    0.08336    0.15968    1.000
    H255     H        0.62010    0.04120    0.15750    1.000
    C427     C        0.64546    0.12280    0.17106    1.000
    H256     H        0.60380    0.10710    0.17570    1.000
    C428     C        0.72375    0.06526    0.13889    1.000
    C429     C        0.78553    0.07304    0.13590    1.000
    H257     H        0.82120    0.10210    0.14250    1.000
    C430     C        0.79426    0.03745    0.12311    1.000
    H258     H        0.83590    0.04290    0.12140    1.000
    C431     C        0.74319    0.99445    0.11295    1.000
    H259     H        0.75130    0.97390    0.10400    1.000
    C432     C        0.67959    0.98165    0.11606    1.000
    C433     C        0.67071    0.01726    0.12920    1.000
    H260     H        0.62830    0.00880    0.13160    1.000
    C434     C        0.62340    0.93215    0.10572    1.000
    C435     C        0.63050    0.92402    0.08861    1.000
    H261     H        0.66970    0.95270    0.08310    1.000
    C436     C        0.58070    0.87470    0.07992    1.000
    H262     H        0.58750    0.86840    0.06870    1.000
    C437     C        0.52060    0.83360    0.08703    1.000
    C438     C        0.50990    0.84060    0.10457    1.000
    H263     H        0.47020    0.81180    0.10980    1.000
    C439     C        0.56130    0.89240    0.11351    1.000
    H264     H        0.55470    0.90070    0.12460    1.000
    C440     C        0.46550    0.78050    0.07752    1.000
    O91      O        0.62827    0.20169    0.19486    1.000
    O92      O        0.73580    0.27654    0.19308    1.000
    O93      O        0.41046    0.74200    0.08515    1.000
    O94      O        0.47453    0.78101    0.06119    1.000
    Zn28     Zn       0.59561    0.24918    0.20909    1.000
    C441     C        0.35314    0.55885    0.52190    1.000
    C442     C        0.36145    0.51724    0.50922    1.000
    C443     C        0.42089    0.53525    0.50216    1.000
    H265     H        0.45707    0.57463    0.50573    1.000
    C444     C        0.43101    0.49857    0.48998    1.000
    H266     H        0.47237    0.51463    0.48513    1.000
    C445     C        0.37951    0.43845    0.48507    1.000
    C446     C        0.32128    0.41669    0.49301    1.000
    H267     H        0.28677    0.37453    0.49083    1.000
    C447     C        0.31213    0.45613    0.50439    1.000
    H268     H        0.27047    0.44043    0.50903    1.000
    C448     C        0.39042    0.39859    0.47222    1.000
    C449     C        0.45220    0.40637    0.46923    1.000
    H269     H        0.48787    0.43543    0.47583    1.000
    C450     C        0.46093    0.37078    0.45644    1.000
    H270     H        0.50257    0.37623    0.45473    1.000
    C451     C        0.40986    0.32778    0.44628    1.000
    H271     H        0.41797    0.30723    0.43733    1.000
    C452     C        0.34626    0.31498    0.44939    1.000
    C453     C        0.33738    0.35059    0.46253    1.000
    H272     H        0.29497    0.34213    0.46493    1.000
    C454     C        0.29007    0.26548    0.43905    1.000
    C455     C        0.29717    0.25735    0.42194    1.000
    H273     H        0.33637    0.28603    0.41643    1.000
    C456     C        0.24737    0.20803    0.41325    1.000
    H274     H        0.25417    0.20173    0.40203    1.000
    C457     C        0.18727    0.16693    0.42036    1.000
    C458     C        0.17657    0.17393    0.43790    1.000
    H275     H        0.13687    0.14513    0.44313    1.000
    C459     C        0.22797    0.22573    0.44684    1.000
    H276     H        0.22137    0.23403    0.45793    1.000
    C460     C        0.13217    0.11383    0.41085    1.000
    O95      O        0.29494    0.53502    0.52819    1.000
    O96      O        0.40247    0.60987    0.52641    1.000
    O97      O        0.07713    0.07533    0.41848    1.000
    O98      O        0.14120    0.11434    0.39452    1.000
    Zn29     Zn       0.26228    0.58251    0.54243    1.000
    C461     C        0.01980    0.89219    0.85524    1.000
    C462     C        0.02811    0.85058    0.84256    1.000
    C463     C        0.08755    0.86859    0.83550    1.000
    H277     H        0.12373    0.90797    0.83907    1.000
    C464     C        0.09767    0.83191    0.82332    1.000
    H278     H        0.13903    0.84797    0.81847    1.000
    C465     C        0.04617    0.77179    0.81841    1.000
    C466     C        0.98794    0.75003    0.82635    1.000
    H279     H        0.95343    0.70787    0.82417    1.000
    C467     C        0.97879    0.78947    0.83773    1.000
    H280     H        0.93713    0.77377    0.84237    1.000
    C468     C        0.05708    0.73193    0.80556    1.000
    C469     C        0.11886    0.73971    0.80257    1.000
    H281     H        0.15453    0.76877    0.80917    1.000
    C470     C        0.12759    0.70412    0.78978    1.000
    H282     H        0.16923    0.70957    0.78807    1.000
    C471     C        0.07652    0.66112    0.77962    1.000
    H283     H        0.08463    0.64057    0.77067    1.000
    C472     C        0.01292    0.64832    0.78273    1.000
    C473     C        0.00404    0.68393    0.79587    1.000
    H284     H        0.96163    0.67547    0.79827    1.000
    C474     C        0.95673    0.59882    0.77239    1.000
    C475     C        0.96383    0.59069    0.75528    1.000
    H285     H        0.00303    0.61937    0.74977    1.000
    C476     C        0.91403    0.54137    0.74659    1.000
    H286     H        0.92083    0.53507    0.73537    1.000
    C477     C        0.85393    0.50027    0.75370    1.000
    C478     C        0.84323    0.50727    0.77124    1.000
    H287     H        0.80353    0.47847    0.77647    1.000
    C479     C        0.89463    0.55907    0.78018    1.000
    H288     H        0.88803    0.56737    0.79127    1.000
    C480     C        0.79883    0.44717    0.74419    1.000
    O99      O        0.96160    0.86836    0.86153    1.000
    O100     O        0.06913    0.94321    0.85975    1.000
    O101     O        0.74379    0.40867    0.75182    1.000
    O102     O        0.80786    0.44768    0.72786    1.000
    Zn30     Zn       0.92895    0.91584    0.87576    1.000
    C481     C        0.77448    0.46095    0.18857    1.000
    C482     C        0.81609    0.51087    0.17589    1.000
    C483     C        0.79808    0.55230    0.16883    1.000
    H289     H        0.75870    0.54910    0.17240    1.000
    C484     C        0.83476    0.59910    0.15665    1.000
    H290     H        0.81870    0.62440    0.15180    1.000
    C485     C        0.89488    0.60772    0.15174    1.000
    C486     C        0.91664    0.57125    0.15968    1.000
    H291     H        0.95880    0.57890    0.15750    1.000
    C487     C        0.87720    0.52266    0.17106    1.000
    H292     H        0.89290    0.49670    0.17570    1.000
    C488     C        0.93474    0.65849    0.13889    1.000
    C489     C        0.92696    0.71249    0.13590    1.000
    H293     H        0.89790    0.71910    0.14250    1.000
    C490     C        0.96255    0.75681    0.12311    1.000
    H294     H        0.95710    0.79300    0.12140    1.000
    C491     C        0.00555    0.74874    0.11295    1.000
    H295     H        0.02610    0.77740    0.10400    1.000
    C492     C        0.01835    0.69794    0.11606    1.000
    C493     C        0.98274    0.65345    0.12920    1.000
    H296     H        0.99120    0.61950    0.13160    1.000
    C494     C        0.06785    0.69125    0.10572    1.000
    C495     C        0.07598    0.70648    0.08861    1.000
    H297     H        0.04730    0.71700    0.08310    1.000
    C496     C        0.12530    0.70600    0.07992    1.000
    H298     H        0.13160    0.71910    0.06870    1.000
    C497     C        0.16640    0.68700    0.08703    1.000
    C498     C        0.15940    0.66930    0.10457    1.000
    H299     H        0.18820    0.65840    0.10980    1.000
    C499     C        0.10760    0.66890    0.11351    1.000
    H300     H        0.09930    0.65400    0.12460    1.000
    C500     C        0.21950    0.68500    0.07752    1.000
    O103     O        0.79831    0.42658    0.19486    1.000
    O104     O        0.72346    0.45926    0.19308    1.000
    O105     O        0.25800    0.66846    0.08515    1.000
    O106     O        0.21899    0.69352    0.06119    1.000
    Zn31     Zn       0.75082    0.34644    0.20909    1.000
    C501     C        0.44115    0.79428    0.52190    1.000
    C502     C        0.48276    0.84420    0.50922    1.000
    C503     C        0.46475    0.88563    0.50216    1.000
    H301     H        0.42537    0.88243    0.50573    1.000
    C504     C        0.50143    0.93243    0.48998    1.000
    H302     H        0.48537    0.95773    0.48513    1.000
    C505     C        0.56155    0.94105    0.48507    1.000
    C506     C        0.58331    0.90458    0.49301    1.000
    H303     H        0.62547    0.91223    0.49083    1.000
    C507     C        0.54387    0.85599    0.50439    1.000
    H304     H        0.55957    0.83003    0.50903    1.000
    C508     C        0.60141    0.99182    0.47222    1.000
    C509     C        0.59363    0.04582    0.46923    1.000
    H305     H        0.56457    0.05243    0.47583    1.000
    C510     C        0.62922    0.09014    0.45644    1.000
    H306     H        0.62377    0.12633    0.45473    1.000
    C511     C        0.67222    0.08207    0.44628    1.000
    H307     H        0.69277    0.11073    0.43733    1.000
    C512     C        0.68502    0.03127    0.44939    1.000
    C513     C        0.64941    0.98678    0.46253    1.000
    H308     H        0.65787    0.95283    0.46493    1.000
    C514     C        0.73452    0.02458    0.43905    1.000
    C515     C        0.74265    0.03981    0.42194    1.000
    H309     H        0.71397    0.05033    0.41643    1.000
    C516     C        0.79197    0.03933    0.41325    1.000
    H310     H        0.79827    0.05243    0.40203    1.000
    C517     C        0.83307    0.02033    0.42036    1.000
    C518     C        0.82607    0.00263    0.43790    1.000
    H311     H        0.85487    0.99173    0.44313    1.000
    C519     C        0.77427    0.00223    0.44684    1.000
    H312     H        0.76597    0.98733    0.45793    1.000
    C520     C        0.88617    0.01833    0.41085    1.000
    O107     O        0.46498    0.75991    0.52819    1.000
    O108     O        0.39013    0.79259    0.52641    1.000
    O109     O        0.92467    0.00179    0.41848    1.000
    O110     O        0.88566    0.02685    0.39452    1.000
    Zn32     Zn       0.41749    0.67977    0.54243    1.000
    C521     C        0.10781    0.12762    0.85524    1.000
    C522     C        0.14942    0.17754    0.84256    1.000
    C523     C        0.13141    0.21897    0.83550    1.000
    H313     H        0.09203    0.21577    0.83907    1.000
    C524     C        0.16809    0.26577    0.82332    1.000
    H314     H        0.15203    0.29107    0.81847    1.000
    C525     C        0.22821    0.27439    0.81841    1.000
    C526     C        0.24997    0.23792    0.82635    1.000
    H315     H        0.29213    0.24557    0.82417    1.000
    C527     C        0.21053    0.18933    0.83773    1.000
    H316     H        0.22623    0.16337    0.84237    1.000
    C528     C        0.26807    0.32516    0.80556    1.000
    C529     C        0.26029    0.37916    0.80257    1.000
    H317     H        0.23123    0.38577    0.80917    1.000
    C530     C        0.29588    0.42348    0.78978    1.000
    H318     H        0.29043    0.45967    0.78807    1.000
    C531     C        0.33888    0.41541    0.77962    1.000
    H319     H        0.35943    0.44407    0.77067    1.000
    C532     C        0.35168    0.36461    0.78273    1.000
    C533     C        0.31607    0.32012    0.79587    1.000
    H320     H        0.32453    0.28617    0.79827    1.000
    C534     C        0.40118    0.35792    0.77239    1.000
    C535     C        0.40931    0.37315    0.75528    1.000
    H321     H        0.38063    0.38367    0.74977    1.000
    C536     C        0.45863    0.37267    0.74659    1.000
    H322     H        0.46493    0.38577    0.73537    1.000
    C537     C        0.49973    0.35367    0.75370    1.000
    C538     C        0.49273    0.33597    0.77124    1.000
    H323     H        0.52153    0.32507    0.77647    1.000
    C539     C        0.44093    0.33557    0.78018    1.000
    H324     H        0.43263    0.32067    0.79127    1.000
    C540     C        0.55283    0.35167    0.74419    1.000
    O111     O        0.13164    0.09325    0.86153    1.000
    O112     O        0.05679    0.12593    0.85975    1.000
    O113     O        0.59133    0.33513    0.75182    1.000
    O114     O        0.55232    0.36019    0.72786    1.000
    Zn33     Zn       0.08416    0.01310    0.87576    1.000
    C541     C        0.68647    0.46095    0.68857    1.000
    C542     C        0.69478    0.51087    0.67589    1.000
    C543     C        0.75422    0.55230    0.66883    1.000
    H325     H        0.79040    0.54910    0.67240    1.000
    C544     C        0.76434    0.59910    0.65665    1.000
    H326     H        0.80570    0.62440    0.65180    1.000
    C545     C        0.71284    0.60772    0.65174    1.000
    C546     C        0.65461    0.57125    0.65968    1.000
    H327     H        0.62010    0.57890    0.65750    1.000
    C547     C        0.64546    0.52266    0.67106    1.000
    H328     H        0.60380    0.49670    0.67570    1.000
    C548     C        0.72375    0.65849    0.63889    1.000
    C549     C        0.78553    0.71249    0.63590    1.000
    H329     H        0.82120    0.71910    0.64250    1.000
    C550     C        0.79426    0.75681    0.62311    1.000
    H330     H        0.83590    0.79300    0.62140    1.000
    C551     C        0.74319    0.74874    0.61295    1.000
    H331     H        0.75130    0.77740    0.60400    1.000
    C552     C        0.67959    0.69794    0.61606    1.000
    C553     C        0.67071    0.65345    0.62920    1.000
    H332     H        0.62830    0.61950    0.63160    1.000
    C554     C        0.62340    0.69125    0.60572    1.000
    C555     C        0.63050    0.70648    0.58861    1.000
    H333     H        0.66970    0.71700    0.58310    1.000
    C556     C        0.58070    0.70600    0.57992    1.000
    H334     H        0.58750    0.71910    0.56870    1.000
    C557     C        0.52060    0.68700    0.58703    1.000
    C558     C        0.50990    0.66930    0.60457    1.000
    H335     H        0.47020    0.65840    0.60980    1.000
    C559     C        0.56130    0.66890    0.61351    1.000
    H336     H        0.55470    0.65400    0.62460    1.000
    C560     C        0.46550    0.68500    0.57752    1.000
    O115     O        0.62827    0.42658    0.69486    1.000
    O116     O        0.73580    0.45926    0.69308    1.000
    O117     O        0.41046    0.66846    0.58515    1.000
    O118     O        0.47453    0.69352    0.56119    1.000
    Zn34     Zn       0.59561    0.34644    0.70909    1.000
    C561     C        0.35314    0.79428    0.02190    1.000
    C562     C        0.36145    0.84420    0.00922    1.000
    C563     C        0.42089    0.88563    0.00216    1.000
    H337     H        0.45707    0.88243    0.00573    1.000
    C564     C        0.43101    0.93243    0.98998    1.000
    H338     H        0.47237    0.95773    0.98513    1.000
    C565     C        0.37951    0.94105    0.98507    1.000
    C566     C        0.32128    0.90458    0.99301    1.000
    H339     H        0.28677    0.91223    0.99083    1.000
    C567     C        0.31213    0.85599    0.00439    1.000
    H340     H        0.27047    0.83003    0.00903    1.000
    C568     C        0.39042    0.99182    0.97222    1.000
    C569     C        0.45220    0.04582    0.96923    1.000
    H341     H        0.48787    0.05243    0.97583    1.000
    C570     C        0.46093    0.09014    0.95644    1.000
    H342     H        0.50257    0.12633    0.95473    1.000
    C571     C        0.40986    0.08207    0.94628    1.000
    H343     H        0.41797    0.11073    0.93733    1.000
    C572     C        0.34626    0.03127    0.94939    1.000
    C573     C        0.33738    0.98678    0.96253    1.000
    H344     H        0.29497    0.95283    0.96493    1.000
    C574     C        0.29007    0.02458    0.93905    1.000
    C575     C        0.29717    0.03981    0.92194    1.000
    H345     H        0.33637    0.05033    0.91643    1.000
    C576     C        0.24737    0.03933    0.91325    1.000
    H346     H        0.25417    0.05243    0.90203    1.000
    C577     C        0.18727    0.02033    0.92036    1.000
    C578     C        0.17657    0.00263    0.93790    1.000
    H347     H        0.13687    0.99173    0.94313    1.000
    C579     C        0.22797    0.00223    0.94684    1.000
    H348     H        0.22137    0.98733    0.95793    1.000
    C580     C        0.13217    0.01833    0.91085    1.000
    O119     O        0.29494    0.75991    0.02819    1.000
    O120     O        0.40247    0.79259    0.02641    1.000
    O121     O        0.07713    0.00179    0.91848    1.000
    O122     O        0.14120    0.02685    0.89452    1.000
    Zn35     Zn       0.26228    0.67977    0.04243    1.000
    C581     C        0.01980    0.12762    0.35524    1.000
    C582     C        0.02811    0.17754    0.34256    1.000
    C583     C        0.08755    0.21897    0.33550    1.000
    H349     H        0.12373    0.21577    0.33907    1.000
    C584     C        0.09767    0.26577    0.32332    1.000
    H350     H        0.13903    0.29107    0.31847    1.000
    C585     C        0.04617    0.27439    0.31841    1.000
    C586     C        0.98794    0.23792    0.32635    1.000
    H351     H        0.95343    0.24557    0.32417    1.000
    C587     C        0.97879    0.18933    0.33773    1.000
    H352     H        0.93713    0.16337    0.34237    1.000
    C588     C        0.05708    0.32516    0.30556    1.000
    C589     C        0.11886    0.37916    0.30257    1.000
    H353     H        0.15453    0.38577    0.30917    1.000
    C590     C        0.12759    0.42348    0.28978    1.000
    H354     H        0.16923    0.45967    0.28807    1.000
    C591     C        0.07652    0.41541    0.27962    1.000
    H355     H        0.08463    0.44407    0.27067    1.000
    C592     C        0.01292    0.36461    0.28273    1.000
    C593     C        0.00404    0.32012    0.29587    1.000
    H356     H        0.96163    0.28617    0.29827    1.000
    C594     C        0.95673    0.35792    0.27239    1.000
    C595     C        0.96383    0.37315    0.25528    1.000
    H357     H        0.00303    0.38367    0.24977    1.000
    C596     C        0.91403    0.37267    0.24659    1.000
    H358     H        0.92083    0.38577    0.23537    1.000
    C597     C        0.85393    0.35367    0.25370    1.000
    C598     C        0.84323    0.33597    0.27124    1.000
    H359     H        0.80353    0.32507    0.27647    1.000
    C599     C        0.89463    0.33557    0.28018    1.000
    H360     H        0.88803    0.32067    0.29127    1.000
    C600     C        0.79883    0.35167    0.24419    1.000
    O123     O        0.96160    0.09325    0.36153    1.000
    O124     O        0.06913    0.12593    0.35975    1.000
    O125     O        0.74379    0.33513    0.25182    1.000
    O126     O        0.80786    0.36019    0.22786    1.000
    Zn36     Zn       0.92895    0.01310    0.37576    1.000
    C601     C        0.77448    0.31353    0.68857    1.000
    C602     C        0.81609    0.30522    0.67589    1.000
    C603     C        0.79808    0.24578    0.66883    1.000
    H361     H        0.75870    0.20960    0.67240    1.000
    C604     C        0.83476    0.23566    0.65665    1.000
    H362     H        0.81870    0.19430    0.65180    1.000
    C605     C        0.89488    0.28716    0.65174    1.000
    C606     C        0.91664    0.34539    0.65968    1.000
    H363     H        0.95880    0.37990    0.65750    1.000
    C607     C        0.87720    0.35454    0.67106    1.000
    H364     H        0.89290    0.39620    0.67570    1.000
    C608     C        0.93474    0.27625    0.63889    1.000
    C609     C        0.92696    0.21447    0.63590    1.000
    H365     H        0.89790    0.17880    0.64250    1.000
    C610     C        0.96255    0.20574    0.62311    1.000
    H366     H        0.95710    0.16410    0.62140    1.000
    C611     C        0.00555    0.25681    0.61295    1.000
    H367     H        0.02610    0.24870    0.60400    1.000
    C612     C        0.01835    0.32041    0.61606    1.000
    C613     C        0.98274    0.32929    0.62920    1.000
    H368     H        0.99120    0.37170    0.63160    1.000
    C614     C        0.06785    0.37660    0.60572    1.000
    C615     C        0.07598    0.36950    0.58861    1.000
    H369     H        0.04730    0.33030    0.58310    1.000
    C616     C        0.12530    0.41930    0.57992    1.000
    H370     H        0.13160    0.41250    0.56870    1.000
    C617     C        0.16640    0.47940    0.58703    1.000
    C618     C        0.15940    0.49010    0.60457    1.000
    H371     H        0.18820    0.52980    0.60980    1.000
    C619     C        0.10760    0.43870    0.61351    1.000
    H372     H        0.09930    0.44530    0.62460    1.000
    C620     C        0.21950    0.53450    0.57752    1.000
    O127     O        0.79831    0.37173    0.69486    1.000
    O128     O        0.72346    0.26420    0.69308    1.000
    O129     O        0.25800    0.58954    0.58515    1.000
    O130     O        0.21899    0.52547    0.56119    1.000
    Zn37     Zn       0.75082    0.40439    0.70909    1.000
    C621     C        0.44115    0.64686    0.02190    1.000
    C622     C        0.48276    0.63855    0.00922    1.000
    C623     C        0.46475    0.57911    0.00216    1.000
    H373     H        0.42537    0.54293    0.00573    1.000
    C624     C        0.50143    0.56899    0.98998    1.000
    H374     H        0.48537    0.52763    0.98513    1.000
    C625     C        0.56155    0.62049    0.98507    1.000
    C626     C        0.58331    0.67872    0.99301    1.000
    H375     H        0.62547    0.71323    0.99083    1.000
    C627     C        0.54387    0.68787    0.00439    1.000
    H376     H        0.55957    0.72953    0.00903    1.000
    C628     C        0.60141    0.60958    0.97222    1.000
    C629     C        0.59363    0.54780    0.96923    1.000
    H377     H        0.56457    0.51213    0.97583    1.000
    C630     C        0.62922    0.53907    0.95644    1.000
    H378     H        0.62377    0.49743    0.95473    1.000
    C631     C        0.67222    0.59014    0.94628    1.000
    H379     H        0.69277    0.58203    0.93733    1.000
    C632     C        0.68502    0.65374    0.94939    1.000
    C633     C        0.64941    0.66262    0.96253    1.000
    H380     H        0.65787    0.70503    0.96493    1.000
    C634     C        0.73452    0.70993    0.93905    1.000
    C635     C        0.74265    0.70283    0.92194    1.000
    H381     H        0.71397    0.66363    0.91643    1.000
    C636     C        0.79197    0.75263    0.91325    1.000
    H382     H        0.79827    0.74583    0.90203    1.000
    C637     C        0.83307    0.81273    0.92036    1.000
    C638     C        0.82607    0.82343    0.93790    1.000
    H383     H        0.85487    0.86313    0.94313    1.000
    C639     C        0.77427    0.77203    0.94684    1.000
    H384     H        0.76597    0.77863    0.95793    1.000
    C640     C        0.88617    0.86783    0.91085    1.000
    O131     O        0.46498    0.70506    0.02819    1.000
    O132     O        0.39013    0.59753    0.02641    1.000
    O133     O        0.92467    0.92287    0.91848    1.000
    O134     O        0.88566    0.85880    0.89452    1.000
    Zn38     Zn       0.41749    0.73772    0.04243    1.000
    C641     C        0.10781    0.98020    0.35524    1.000
    C642     C        0.14942    0.97189    0.34256    1.000
    C643     C        0.13141    0.91245    0.33550    1.000
    H385     H        0.09203    0.87627    0.33907    1.000
    C644     C        0.16809    0.90233    0.32332    1.000
    H386     H        0.15203    0.86097    0.31847    1.000
    C645     C        0.22821    0.95383    0.31841    1.000
    C646     C        0.24997    0.01206    0.32635    1.000
    H387     H        0.29213    0.04657    0.32417    1.000
    C647     C        0.21053    0.02121    0.33773    1.000
    H388     H        0.22623    0.06287    0.34237    1.000
    C648     C        0.26807    0.94292    0.30556    1.000
    C649     C        0.26029    0.88114    0.30257    1.000
    H389     H        0.23123    0.84547    0.30917    1.000
    C650     C        0.29588    0.87241    0.28978    1.000
    H390     H        0.29043    0.83077    0.28807    1.000
    C651     C        0.33888    0.92348    0.27962    1.000
    H391     H        0.35943    0.91537    0.27067    1.000
    C652     C        0.35168    0.98708    0.28273    1.000
    C653     C        0.31607    0.99596    0.29587    1.000
    H392     H        0.32453    0.03837    0.29827    1.000
    C654     C        0.40118    0.04327    0.27239    1.000
    C655     C        0.40931    0.03617    0.25528    1.000
    H393     H        0.38063    0.99697    0.24977    1.000
    C656     C        0.45863    0.08597    0.24659    1.000
    H394     H        0.46493    0.07917    0.23537    1.000
    C657     C        0.49973    0.14607    0.25370    1.000
    C658     C        0.49273    0.15677    0.27124    1.000
    H395     H        0.52153    0.19647    0.27647    1.000
    C659     C        0.44093    0.10537    0.28018    1.000
    H396     H        0.43263    0.11197    0.29127    1.000
    C660     C        0.55283    0.20117    0.24419    1.000
    O135     O        0.13164    0.03840    0.36153    1.000
    O136     O        0.05679    0.93087    0.35975    1.000
    O137     O        0.59133    0.25621    0.25182    1.000
    O138     O        0.55232    0.19214    0.22786    1.000
    Zn39     Zn       0.08416    0.07105    0.37576    1.000
    C661     C        0.53905    0.22552    0.68857    1.000
    C662     C        0.48913    0.18391    0.67589    1.000
    C663     C        0.44770    0.20192    0.66883    1.000
    H397     H        0.45090    0.24130    0.67240    1.000
    C664     C        0.40090    0.16524    0.65665    1.000
    H398     H        0.37560    0.18130    0.65180    1.000
    C665     C        0.39228    0.10512    0.65174    1.000
    C666     C        0.42875    0.08336    0.65968    1.000
    H399     H        0.42110    0.04120    0.65750    1.000
    C667     C        0.47734    0.12280    0.67106    1.000
    H400     H        0.50330    0.10710    0.67570    1.000
    C668     C        0.34151    0.06526    0.63889    1.000
    C669     C        0.28751    0.07304    0.63590    1.000
    H401     H        0.28090    0.10210    0.64250    1.000
    C670     C        0.24319    0.03745    0.62311    1.000
    H402     H        0.20700    0.04290    0.62140    1.000
    C671     C        0.25126    0.99445    0.61295    1.000
    H403     H        0.22260    0.97390    0.60400    1.000
    C672     C        0.30206    0.98165    0.61606    1.000
    C673     C        0.34655    0.01726    0.62920    1.000
    H404     H        0.38050    0.00880    0.63160    1.000
    C674     C        0.30875    0.93215    0.60572    1.000
    C675     C        0.29352    0.92402    0.58861    1.000
    H405     H        0.28300    0.95270    0.58310    1.000
    C676     C        0.29400    0.87470    0.57992    1.000
    H406     H        0.28090    0.86840    0.56870    1.000
    C677     C        0.31300    0.83360    0.58703    1.000
    C678     C        0.33070    0.84060    0.60457    1.000
    H407     H        0.34160    0.81180    0.60980    1.000
    C679     C        0.33110    0.89240    0.61351    1.000
    H408     H        0.34600    0.90070    0.62460    1.000
    C680     C        0.31500    0.78050    0.57752    1.000
    O139     O        0.57342    0.20169    0.69486    1.000
    O140     O        0.54074    0.27654    0.69308    1.000
    O141     O        0.33154    0.74200    0.58515    1.000
    O142     O        0.30648    0.78101    0.56119    1.000
    Zn40     Zn       0.65356    0.24918    0.70909    1.000
    C681     C        0.20572    0.55885    0.02190    1.000
    C682     C        0.15580    0.51724    0.00922    1.000
    C683     C        0.11437    0.53525    0.00216    1.000
    H409     H        0.11757    0.57463    0.00573    1.000
    C684     C        0.06757    0.49857    0.98998    1.000
    H410     H        0.04227    0.51463    0.98513    1.000
    C685     C        0.05895    0.43845    0.98507    1.000
    C686     C        0.09542    0.41669    0.99301    1.000
    H411     H        0.08777    0.37453    0.99083    1.000
    C687     C        0.14401    0.45613    0.00439    1.000
    H412     H        0.16997    0.44043    0.00903    1.000
    C688     C        0.00818    0.39859    0.97222    1.000
    C689     C        0.95418    0.40637    0.96923    1.000
    H413     H        0.94757    0.43543    0.97583    1.000
    C690     C        0.90986    0.37078    0.95644    1.000
    H414     H        0.87367    0.37623    0.95473    1.000
    C691     C        0.91793    0.32778    0.94628    1.000
    H415     H        0.88927    0.30723    0.93733    1.000
    C692     C        0.96873    0.31498    0.94939    1.000
    C693     C        0.01322    0.35059    0.96253    1.000
    H416     H        0.04717    0.34213    0.96493    1.000
    C694     C        0.97542    0.26548    0.93905    1.000
    C695     C        0.96019    0.25735    0.92194    1.000
    H417     H        0.94967    0.28603    0.91643    1.000
    C696     C        0.96067    0.20803    0.91325    1.000
    H418     H        0.94757    0.20173    0.90203    1.000
    C697     C        0.97967    0.16693    0.92036    1.000
    C698     C        0.99737    0.17393    0.93790    1.000
    H419     H        0.00827    0.14513    0.94313    1.000
    C699     C        0.99777    0.22573    0.94684    1.000
    H420     H        0.01267    0.23403    0.95793    1.000
    C700     C        0.98167    0.11383    0.91085    1.000
    O143     O        0.24009    0.53502    0.02819    1.000
    O144     O        0.20741    0.60987    0.02641    1.000
    O145     O        0.99821    0.07533    0.91848    1.000
    O146     O        0.97315    0.11434    0.89452    1.000
    Zn41     Zn       0.32023    0.58251    0.04243    1.000
    C701     C        0.87238    0.89219    0.35524    1.000
    C702     C        0.82246    0.85058    0.34256    1.000
    C703     C        0.78103    0.86859    0.33550    1.000
    H421     H        0.78423    0.90797    0.33907    1.000
    C704     C        0.73423    0.83191    0.32332    1.000
    H422     H        0.70893    0.84797    0.31847    1.000
    C705     C        0.72561    0.77179    0.31841    1.000
    C706     C        0.76208    0.75003    0.32635    1.000
    H423     H        0.75443    0.70787    0.32417    1.000
    C707     C        0.81067    0.78947    0.33773    1.000
    H424     H        0.83663    0.77377    0.34237    1.000
    C708     C        0.67484    0.73193    0.30556    1.000
    C709     C        0.62084    0.73971    0.30257    1.000
    H425     H        0.61423    0.76877    0.30917    1.000
    C710     C        0.57652    0.70412    0.28978    1.000
    H426     H        0.54033    0.70957    0.28807    1.000
    C711     C        0.58459    0.66112    0.27962    1.000
    H427     H        0.55593    0.64057    0.27067    1.000
    C712     C        0.63539    0.64832    0.28273    1.000
    C713     C        0.67988    0.68393    0.29587    1.000
    H428     H        0.71383    0.67547    0.29827    1.000
    C714     C        0.64208    0.59882    0.27239    1.000
    C715     C        0.62685    0.59069    0.25528    1.000
    H429     H        0.61633    0.61937    0.24977    1.000
    C716     C        0.62733    0.54137    0.24659    1.000
    H430     H        0.61423    0.53507    0.23537    1.000
    C717     C        0.64633    0.50027    0.25370    1.000
    C718     C        0.66403    0.50727    0.27124    1.000
    H431     H        0.67493    0.47847    0.27647    1.000
    C719     C        0.66443    0.55907    0.28018    1.000
    H432     H        0.67933    0.56737    0.29127    1.000
    C720     C        0.64833    0.44717    0.24419    1.000
    O147     O        0.90675    0.86836    0.36153    1.000
    O148     O        0.87407    0.94321    0.35975    1.000
    O149     O        0.66487    0.40867    0.25182    1.000
    O150     O        0.63981    0.44768    0.22786    1.000
    Zn42     Zn       0.98690    0.91584    0.37576    1.000
    O151     O        0.66667    0.33333    0.21723    1.000
    Zn43     Zn       0.66667    0.33333    0.24189    1.000
    O152     O        0.33333    0.66667    0.55056    1.000
    Zn44     Zn       0.33333    0.66667    0.57522    1.000
    O153     O        0.00000    0.00000    0.88390    1.000
    Zn45     Zn       0.00000    0.00000    0.90855    1.000
    O154     O        0.66667    0.33333    0.71723    1.000
    Zn46     Zn       0.66667    0.33333    0.74189    1.000
    O155     O        0.33333    0.66667    0.05056    1.000
    Zn47     Zn       0.33333    0.66667    0.07522    1.000
    O156     O        0.00000    0.00000    0.38390    1.000
    Zn48     Zn       0.00000    0.00000    0.40855    1.000
