# CIF file generated by openbabel 3.1.0, see https://openbabel.org
data_I
_chemical_name_common 'DOTWAL_clean'
_cell_length_a 9.5228
_cell_length_b 9.5228
_cell_length_c 17.47
_cell_angle_alpha 90
_cell_angle_beta 90
_cell_angle_gamma 120
_space_group_name_H-M_alt 'P 1'
_space_group_name_Hall 'P 1'
loop_
    _symmetry_equiv_pos_as_xyz
    x,y,z
loop_
    _atom_site_label
    _atom_site_type_symbol
    _atom_site_fract_x
    _atom_site_fract_y
    _atom_site_fract_z
    _atom_site_occupancy
    La1      La       0.33333    0.66666    0.75000    1.000
    La2      La       0.66667    0.33334    0.25000    1.000
    La3      La       0.00000    0.00000    0.00000    1.000
    La4      La       0.00000    0.00000    0.50000    1.000
    H1       H        0.50300    0.67030    0.97570    1.000
    H2       H        0.57530    0.59530    0.91860    1.000
    H3       H        0.16730    0.49700    0.97570    1.000
    H4       H        0.02000    0.42470    0.91860    1.000
    H5       H        0.32970    0.83270    0.97570    1.000
    H6       H        0.40470    0.98000    0.91860    1.000
    H7       H        0.50300    0.67030    0.52430    1.000
    H8       H        0.57530    0.59530    0.58140    1.000
    H9       H        0.16730    0.49700    0.52430    1.000
    H10      H        0.02000    0.42470    0.58140    1.000
    H11      H        0.32970    0.83270    0.52430    1.000
    H12      H        0.40470    0.98000    0.58140    1.000
    H13      H        0.83270    0.32970    0.02430    1.000
    H14      H        0.98000    0.40470    0.08140    1.000
    H15      H        0.67030    0.50300    0.02430    1.000
    H16      H        0.59530    0.57530    0.08140    1.000
    H17      H        0.49700    0.16730    0.02430    1.000
    H18      H        0.42470    0.02000    0.08140    1.000
    H19      H        0.83270    0.32970    0.47570    1.000
    H20      H        0.98000    0.40470    0.41860    1.000
    H21      H        0.67030    0.50300    0.47570    1.000
    H22      H        0.59530    0.57530    0.41860    1.000
    H23      H        0.49700    0.16730    0.47570    1.000
    H24      H        0.42470    0.02000    0.41860    1.000
    C1       C        0.65030    0.83330    0.89470    1.000
    C2       C        0.59980    0.69140    0.94790    1.000
    C3       C        0.18300    0.34970    0.89470    1.000
    C4       C        0.09160    0.40020    0.94790    1.000
    C5       C        0.16670    0.81700    0.89470    1.000
    C6       C        0.30860    0.90840    0.94790    1.000
    C7       C        0.65030    0.83330    0.60530    1.000
    C8       C        0.59980    0.69140    0.55210    1.000
    C9       C        0.18300    0.34970    0.60530    1.000
    C10      C        0.09160    0.40020    0.55210    1.000
    C11      C        0.16670    0.81700    0.60530    1.000
    C12      C        0.30860    0.90840    0.55210    1.000
    C13      C        0.81700    0.16670    0.10530    1.000
    C14      C        0.90840    0.30860    0.05210    1.000
    C15      C        0.83330    0.65030    0.10530    1.000
    C16      C        0.69140    0.59980    0.05210    1.000
    C17      C        0.34970    0.18300    0.10530    1.000
    C18      C        0.40020    0.09160    0.05210    1.000
    C19      C        0.81700    0.16670    0.39470    1.000
    C20      C        0.90840    0.30860    0.44790    1.000
    C21      C        0.83330    0.65030    0.39470    1.000
    C22      C        0.69140    0.59980    0.44790    1.000
    C23      C        0.34970    0.18300    0.39470    1.000
    C24      C        0.40020    0.09160    0.44790    1.000
    O1       O        0.54910    0.82260    0.84510    1.000
    O2       O        0.78650    0.95900    0.90430    1.000
    O3       O        0.27350    0.45090    0.84510    1.000
    O4       O        0.17250    0.21350    0.90430    1.000
    O5       O        0.17740    0.72650    0.84510    1.000
    O6       O        0.04100    0.82750    0.90430    1.000
    O7       O        0.54910    0.82260    0.65490    1.000
    O8       O        0.78650    0.95900    0.59570    1.000
    O9       O        0.27350    0.45090    0.65490    1.000
    O10      O        0.17250    0.21350    0.59570    1.000
    O11      O        0.17740    0.72650    0.65490    1.000
    O12      O        0.04100    0.82750    0.59570    1.000
    O13      O        0.72650    0.17740    0.15490    1.000
    O14      O        0.82750    0.04100    0.09570    1.000
    O15      O        0.82260    0.54910    0.15490    1.000
    O16      O        0.95900    0.78650    0.09570    1.000
    O17      O        0.45090    0.27350    0.15490    1.000
    O18      O        0.21350    0.17250    0.09570    1.000
    O19      O        0.72650    0.17740    0.34510    1.000
    O20      O        0.82750    0.04100    0.40430    1.000
    O21      O        0.82260    0.54910    0.34510    1.000
    O22      O        0.95900    0.78650    0.40430    1.000
    O23      O        0.45090    0.27350    0.34510    1.000
    O24      O        0.21350    0.17250    0.40430    1.000
    O25      O        0.72720    0.72720    0.00000    1.000
    O26      O        0.00000    0.27280    0.00000    1.000
    O27      O        0.27280    0.00000    0.00000    1.000
    O28      O        0.72720    0.72720    0.50000    1.000
    O29      O        0.00000    0.27280    0.50000    1.000
    O30      O        0.27280    0.00000    0.50000    1.000
