data_functionalizedCrystal
_audit_creation_method	'EQeq! by Chris Wilmer'
_symmetry_space_group_name_H-M	'P1'
_symmetry_Int_Tables_number	1
_symmetry_cell_setting	triclinic
loop_
_symmetry_equiv_pos_as_xyz
  x,y,z
_cell_length_a	26.5471
_cell_length_b	26.5471
_cell_length_c	5.1352
_cell_angle_alpha	90
_cell_angle_beta	90
_cell_angle_gamma	90
loop_
_atom_site_label
_atom_site_type_symbol
_atom_site_fract_x
_atom_site_fract_y
_atom_site_fract_z
_atom_site_charge
Mof_Zn	Zn	0.2728	0.21416	0.91481	1.218
Mof_O 	O 	0.2211	0.2527	0.0854	-0.783
Mof_H 	H 	0.2003	0.2637	0.9731	0.288
Mof_N 	N 	0.2514	0.1414	0.897	-0.287
Mof_C 	C 	0.2678	0.10469	0.0434	0.134
Mof_H 	H 	0.2932	0.1084	0.1667	-0.022
Mof_N 	N 	0.2437	0.0605	0.9959	-0.183
Mof_C 	C 	0.21311	0.1212	0.7416	0.042
Mof_O 	O 	0.2771	0.8333	0.3718	-0.528
Mof_C 	C 	0.1836	0.1443	0.555	-0.138
Mof_H 	H 	0.1876	0.1783	0.5159	0.041
Mof_O 	O 	0.3155	0.8712	0.684	-0.229
Mof_C 	C 	0.1476	0.1152	0.4269	0.045
Mof_C 	C 	0.1174	0.1359	0.2354	-0.096
Mof_H 	H 	0.1214	0.1697	0.1923	0.061
Mof_C 	C 	0.0811	0.1076	0.1053	-0.015
Mof_H 	H 	0.0608	0.1221	0.9782	0.032
Mof_C 	C 	0.0758	0.0566	0.1706	-0.032
Mof_H 	H 	0.0519	0.0371	0.0849	0.037
Mof_C 	C 	0.1057	0.0349	0.3609	-0.08
Mof_H 	H 	0.1015	0.001	0.4024	0.058
Mof_C 	C 	0.1424	0.0635	0.4921	0.041
Mof_C 	C 	0.1719	0.0403	0.6825	-0.131
Mof_H 	H 	0.1677	0.0065	0.7251	0.075
Mof_C 	C 	0.2078	0.07	0.8049	0.072
Mof_C 	C 	0.25748	0.0132	0.1039	0.203
Mof_C 	C 	0.2849	0.9218	0.3222	-0.212
Mof_C 	C 	0.2775	0.0108	0.352	-0.656
Mof_H 	H 	0.2817	0.0405	0.4453	0.263
Mof_C 	C 	0.2914	0.9659	0.4662	0.529
Mof_H 	H 	0.3046	0.965	0.6337	-0.142
Mof_C 	C 	0.2647	0.9222	0.0749	0.641
Mof_H 	H 	0.26	0.8924	0.9827	-0.177
Mof_C 	C 	0.2515	0.9679	0.9679	-0.716
Mof_H 	H 	0.2383	0.9687	0.8003	0.282
Mof_C 	C 	0.2982	0.8721	0.448	0.454
Mof_O 	O 	0.345	0.87	0.532	-0.213
Mof_C 	C 	0.3072	0.0048	0.1635	0.392
Mof_H 	H 	0.331	0.0297	0.1309	-0.091
Mof_C 	C 	0.3223	0.9585	0.274	-0.395
Mof_H 	H 	0.3559	0.9523	0.3138	0.184
Mof_C 	C 	0.2337	0.9283	0.261	-0.524
Mof_H 	H 	0.2096	0.9035	0.2891	0.213
Mof_C 	C 	0.2224	0.9757	0.155	0.467
Mof_H 	H 	0.1889	0.9825	0.1148	-0.133
Mof_Zn	Zn	0.7728	0.71416	0.41481	1.228
Mof_O 	O 	0.7211	0.7527	0.5854	-0.811
Mof_H 	H 	0.7003	0.7637	0.4731	0.275
Mof_N 	N 	0.7514	0.6414	0.397	-0.268
Mof_C 	C 	0.7678	0.60469	0.5434	0.115
Mof_H 	H 	0.7932	0.6084	0.6667	-0.013
Mof_N 	N 	0.7437	0.5605	0.4959	-0.15
Mof_C 	C 	0.71311	0.6212	0.2416	0.049
Mof_O 	O 	0.7771	0.3333	0.8718	-0.498
Mof_C 	C 	0.6836	0.6443	0.055	-0.087
Mof_H 	H 	0.6876	0.6783	0.0159	0.044
Mof_O 	O 	0.8155	0.3712	0.184	-0.288
Mof_C 	C 	0.6476	0.6152	0.9269	0.028
Mof_C 	C 	0.6174	0.6359	0.7354	-0.058
Mof_H 	H 	0.6214	0.6697	0.6923	0.043
Mof_C 	C 	0.5811	0.6076	0.6053	-0.02
Mof_H 	H 	0.5608	0.6221	0.4782	-0.006
Mof_C 	C 	0.5758	0.5566	0.6706	-0.032
Mof_H 	H 	0.5519	0.5371	0.5849	0.03
Mof_C 	C 	0.6057	0.5349	0.8609	-0.122
Mof_H 	H 	0.6015	0.501	0.9024	0.059
Mof_C 	C 	0.6424	0.5635	0.9921	0.055
Mof_C 	C 	0.6719	0.5403	0.1825	-0.137
Mof_H 	H 	0.6677	0.5065	0.2251	0.075
Mof_C 	C 	0.7078	0.57	0.3049	0.098
Mof_C 	C 	0.75748	0.5132	0.6039	0.092
Mof_C 	C 	0.7849	0.4218	0.8222	0.172
Mof_C 	C 	0.7775	0.5108	0.852	3.858
Mof_H 	H 	0.7817	0.5405	0.9453	-1.293
Mof_C 	C 	0.7914	0.4659	0.9662	-3.538
Mof_H 	H 	0.8046	0.465	0.1337	1.274
Mof_C 	C 	0.7647	0.4222	0.5749	-4.119
Mof_H 	H 	0.76	0.3924	0.4827	1.459
Mof_C 	C 	0.7515	0.4679	0.4679	4.157
Mof_H 	H 	0.7383	0.4687	0.3003	-1.43
Mof_C 	C 	0.7982	0.3721	0.948	0.323
Mof_O 	O 	0.845	0.37	0.032	-0.155
Mof_C 	C 	0.8072	0.5048	0.6635	-3.851
Mof_H 	H 	0.831	0.5297	0.6309	1.384
Mof_C 	C 	0.8223	0.4585	0.774	3.319
Mof_H 	H 	0.8559	0.4523	0.8138	-1.113
Mof_C 	C 	0.7337	0.4283	0.761	3.895
Mof_H 	H 	0.7096	0.4035	0.7891	-1.349
Mof_C 	C 	0.7224	0.4757	0.655	-4.158
Mof_H 	H 	0.6889	0.4825	0.6148	1.469
Mof_Zn	Zn	0.7272	0.78584	0.91481	1.219
Mof_O 	O 	0.7789	0.7473	0.0854	-0.782
Mof_H 	H 	0.7997	0.7363	0.9731	0.289
Mof_N 	N 	0.7486	0.8586	0.897	-0.286
Mof_C 	C 	0.7322	0.89531	0.0434	0.135
Mof_H 	H 	0.7068	0.8916	0.1667	-0.021
Mof_N 	N 	0.7563	0.9395	0.9959	-0.182
Mof_C 	C 	0.78689	0.8788	0.7416	0.043
Mof_O 	O 	0.7229	0.1667	0.3718	-0.528
Mof_C 	C 	0.8164	0.8557	0.555	-0.138
Mof_H 	H 	0.8124	0.8217	0.5159	0.041
Mof_O 	O 	0.6845	0.1288	0.684	-0.229
Mof_C 	C 	0.8524	0.8848	0.4269	0.045
Mof_C 	C 	0.8826	0.8641	0.2354	-0.096
Mof_H 	H 	0.8786	0.8303	0.1923	0.061
Mof_C 	C 	0.9189	0.8924	0.1053	-0.015
Mof_H 	H 	0.9392	0.8779	0.9782	0.032
Mof_C 	C 	0.9242	0.9434	0.1706	-0.032
Mof_H 	H 	0.9481	0.9629	0.0849	0.037
Mof_C 	C 	0.8943	0.9651	0.3609	-0.08
Mof_H 	H 	0.8985	0.999	0.4024	0.058
Mof_C 	C 	0.8576	0.9365	0.4921	0.041
Mof_C 	C 	0.8281	0.9597	0.6825	-0.131
Mof_H 	H 	0.8323	0.9935	0.7251	0.075
Mof_C 	C 	0.7922	0.93	0.8049	0.072
Mof_C 	C 	0.74252	0.9868	0.1039	0.203
Mof_C 	C 	0.7151	0.0782	0.3222	-0.212
Mof_C 	C 	0.7225	0.9892	0.352	-0.656
Mof_H 	H 	0.7183	0.9595	0.4453	0.263
Mof_C 	C 	0.7086	0.0341	0.4662	0.529
Mof_H 	H 	0.6954	0.035	0.6337	-0.142
Mof_C 	C 	0.7353	0.0778	0.0749	0.641
Mof_H 	H 	0.74	0.1076	0.9827	-0.177
Mof_C 	C 	0.7485	0.0321	0.9679	-0.716
Mof_H 	H 	0.7617	0.0313	0.8003	0.282
Mof_C 	C 	0.7018	0.1279	0.448	0.454
Mof_O 	O 	0.655	0.13	0.532	-0.213
Mof_C 	C 	0.6928	0.9952	0.1635	0.392
Mof_H 	H 	0.669	0.9703	0.1309	-0.091
Mof_C 	C 	0.6777	0.0415	0.274	-0.395
Mof_H 	H 	0.6441	0.0477	0.3138	0.184
Mof_C 	C 	0.7663	0.0717	0.261	-0.524
Mof_H 	H 	0.7904	0.0965	0.2891	0.213
Mof_C 	C 	0.7776	0.0243	0.155	0.467
Mof_H 	H 	0.8111	0.0175	0.1148	-0.133
Mof_Zn	Zn	0.2272	0.28584	0.41481	1.228
Mof_O 	O 	0.2789	0.2473	0.5854	-0.811
Mof_H 	H 	0.2997	0.2363	0.4731	0.275
Mof_N 	N 	0.2486	0.3586	0.397	-0.268
Mof_C 	C 	0.2322	0.39531	0.5434	0.115
Mof_H 	H 	0.2068	0.3916	0.6667	-0.013
Mof_N 	N 	0.2563	0.4395	0.4959	-0.15
Mof_C 	C 	0.28689	0.3788	0.2416	0.049
Mof_O 	O 	0.2229	0.6667	0.8718	-0.498
Mof_C 	C 	0.3164	0.3557	0.055	-0.087
Mof_H 	H 	0.3124	0.3217	0.0159	0.044
Mof_O 	O 	0.1845	0.6288	0.184	-0.288
Mof_C 	C 	0.3524	0.3848	0.9269	0.028
Mof_C 	C 	0.3826	0.3641	0.7354	-0.058
Mof_H 	H 	0.3786	0.3303	0.6923	0.043
Mof_C 	C 	0.4189	0.3924	0.6053	-0.02
Mof_H 	H 	0.4392	0.3779	0.4782	-0.006
Mof_C 	C 	0.4242	0.4434	0.6706	-0.032
Mof_H 	H 	0.4481	0.4629	0.5849	0.03
Mof_C 	C 	0.3943	0.4651	0.8609	-0.122
Mof_H 	H 	0.3985	0.499	0.9024	0.059
Mof_C 	C 	0.3576	0.4365	0.9921	0.055
Mof_C 	C 	0.3281	0.4597	0.1825	-0.137
Mof_H 	H 	0.3323	0.4935	0.2251	0.075
Mof_C 	C 	0.2922	0.43	0.3049	0.098
Mof_C 	C 	0.24252	0.4868	0.6039	0.092
Mof_C 	C 	0.2151	0.5782	0.8222	0.172
Mof_C 	C 	0.2225	0.4892	0.852	3.858
Mof_H 	H 	0.2183	0.4595	0.9453	-1.293
Mof_C 	C 	0.2086	0.5341	0.9662	-3.538
Mof_H 	H 	0.1954	0.535	0.1337	1.274
Mof_C 	C 	0.2353	0.5778	0.5749	-4.119
Mof_H 	H 	0.24	0.6076	0.4827	1.459
Mof_C 	C 	0.2485	0.5321	0.4679	4.157
Mof_H 	H 	0.2617	0.5313	0.3003	-1.43
Mof_C 	C 	0.2018	0.6279	0.948	0.323
Mof_O 	O 	0.155	0.63	0.032	-0.155
Mof_C 	C 	0.1928	0.4952	0.6635	-3.851
Mof_H 	H 	0.169	0.4703	0.6309	1.384
Mof_C 	C 	0.1777	0.5415	0.774	3.319
Mof_H 	H 	0.1441	0.5477	0.8138	-1.113
Mof_C 	C 	0.2663	0.5717	0.761	3.895
Mof_H 	H 	0.2904	0.5965	0.7891	-1.349
Mof_C 	C 	0.2776	0.5243	0.655	-4.158
Mof_H 	H 	0.3111	0.5175	0.6148	1.469
Mof_Zn	Zn	0.21416	0.7272	0.08519	1.219
Mof_O 	O 	0.2527	0.7789	0.9146	-0.782
Mof_H 	H 	0.2637	0.7997	0.0269	0.289
Mof_N 	N 	0.1414	0.7486	0.103	-0.286
Mof_C 	C 	0.10469	0.7322	0.9566	0.135
Mof_H 	H 	0.1084	0.7068	0.8333	-0.021
Mof_N 	N 	0.0605	0.7563	0.0041	-0.182
Mof_C 	C 	0.1212	0.78689	0.2584	0.043
Mof_O 	O 	0.8333	0.7229	0.6282	-0.528
Mof_C 	C 	0.1443	0.8164	0.445	-0.138
Mof_H 	H 	0.1783	0.8124	0.4841	0.041
Mof_O 	O 	0.8712	0.6845	0.316	-0.229
Mof_C 	C 	0.1152	0.8524	0.5731	0.045
Mof_C 	C 	0.1359	0.8826	0.7646	-0.096
Mof_H 	H 	0.1697	0.8786	0.8077	0.061
Mof_C 	C 	0.1076	0.9189	0.8947	-0.015
Mof_H 	H 	0.1221	0.9392	0.0218	0.032
Mof_C 	C 	0.0566	0.9242	0.8294	-0.032
Mof_H 	H 	0.0371	0.9481	0.9151	0.037
Mof_C 	C 	0.0349	0.8943	0.6391	-0.08
Mof_H 	H 	0.001	0.8985	0.5976	0.058
Mof_C 	C 	0.0635	0.8576	0.5079	0.041
Mof_C 	C 	0.0403	0.8281	0.3175	-0.131
Mof_H 	H 	0.0065	0.8323	0.2749	0.075
Mof_C 	C 	0.07	0.7922	0.1951	0.072
Mof_C 	C 	0.0132	0.74252	0.8961	0.203
Mof_C 	C 	0.9218	0.7151	0.6778	-0.212
Mof_C 	C 	0.0108	0.7225	0.648	-0.656
Mof_H 	H 	0.0405	0.7183	0.5547	0.263
Mof_C 	C 	0.9659	0.7086	0.5338	0.529
Mof_H 	H 	0.965	0.6954	0.3663	-0.142
Mof_C 	C 	0.9222	0.7353	0.9251	0.641
Mof_H 	H 	0.8924	0.74	0.0173	-0.177
Mof_C 	C 	0.9679	0.7485	0.0321	-0.716
Mof_H 	H 	0.9687	0.7617	0.1997	0.282
Mof_C 	C 	0.8721	0.7018	0.552	0.454
Mof_O 	O 	0.87	0.655	0.468	-0.213
Mof_C 	C 	0.0048	0.6928	0.8365	0.392
Mof_H 	H 	0.0297	0.669	0.8691	-0.091
Mof_C 	C 	0.9585	0.6777	0.726	-0.395
Mof_H 	H 	0.9523	0.6441	0.6862	0.184
Mof_C 	C 	0.9283	0.7663	0.739	-0.524
Mof_H 	H 	0.9035	0.7904	0.7109	0.213
Mof_C 	C 	0.9757	0.7776	0.845	0.467
Mof_H 	H 	0.9825	0.8111	0.8852	-0.133
Mof_Zn	Zn	0.71416	0.2272	0.58519	1.228
Mof_O 	O 	0.7527	0.2789	0.4146	-0.811
Mof_H 	H 	0.7637	0.2997	0.5269	0.275
Mof_N 	N 	0.6414	0.2486	0.603	-0.268
Mof_C 	C 	0.60469	0.2322	0.4566	0.115
Mof_H 	H 	0.6084	0.2068	0.3333	-0.013
Mof_N 	N 	0.5605	0.2563	0.5041	-0.15
Mof_C 	C 	0.6212	0.28689	0.7584	0.049
Mof_O 	O 	0.3333	0.2229	0.1282	-0.498
Mof_C 	C 	0.6443	0.3164	0.945	-0.087
Mof_H 	H 	0.6783	0.3124	0.9841	0.044
Mof_O 	O 	0.3712	0.1845	0.816	-0.288
Mof_C 	C 	0.6152	0.3524	0.0731	0.028
Mof_C 	C 	0.6359	0.3826	0.2646	-0.058
Mof_H 	H 	0.6697	0.3786	0.3077	0.043
Mof_C 	C 	0.6076	0.4189	0.3947	-0.02
Mof_H 	H 	0.6221	0.4392	0.5218	-0.006
Mof_C 	C 	0.5566	0.4242	0.3294	-0.032
Mof_H 	H 	0.5371	0.4481	0.4151	0.03
Mof_C 	C 	0.5349	0.3943	0.1391	-0.122
Mof_H 	H 	0.501	0.3985	0.0976	0.059
Mof_C 	C 	0.5635	0.3576	0.0079	0.055
Mof_C 	C 	0.5403	0.3281	0.8175	-0.137
Mof_H 	H 	0.5065	0.3323	0.7749	0.075
Mof_C 	C 	0.57	0.2922	0.6951	0.098
Mof_C 	C 	0.5132	0.24252	0.3961	0.092
Mof_C 	C 	0.4218	0.2151	0.1778	0.172
Mof_C 	C 	0.5108	0.2225	0.148	3.858
Mof_H 	H 	0.5405	0.2183	0.0547	-1.293
Mof_C 	C 	0.4659	0.2086	0.0338	-3.538
Mof_H 	H 	0.465	0.1954	0.8663	1.274
Mof_C 	C 	0.4222	0.2353	0.4251	-4.119
Mof_H 	H 	0.3924	0.24	0.5173	1.459
Mof_C 	C 	0.4679	0.2485	0.5321	4.157
Mof_H 	H 	0.4687	0.2617	0.6997	-1.43
Mof_C 	C 	0.3721	0.2018	0.052	0.323
Mof_O 	O 	0.37	0.155	0.968	-0.155
Mof_C 	C 	0.5048	0.1928	0.3365	-3.851
Mof_H 	H 	0.5297	0.169	0.3691	1.384
Mof_C 	C 	0.4585	0.1777	0.226	3.319
Mof_H 	H 	0.4523	0.1441	0.1862	-1.113
Mof_C 	C 	0.4283	0.2663	0.239	3.895
Mof_H 	H 	0.4035	0.2904	0.2109	-1.349
Mof_C 	C 	0.4757	0.2776	0.345	-4.158
Mof_H 	H 	0.4825	0.3111	0.3852	1.469
Mof_Zn	Zn	0.78584	0.2728	0.08519	1.219
Mof_O 	O 	0.7473	0.2211	0.9146	-0.782
Mof_H 	H 	0.7363	0.2003	0.0269	0.289
Mof_N 	N 	0.8586	0.2514	0.103	-0.286
Mof_C 	C 	0.89531	0.2678	0.9566	0.135
Mof_H 	H 	0.8916	0.2932	0.8333	-0.021
Mof_N 	N 	0.9395	0.2437	0.0041	-0.182
Mof_C 	C 	0.8788	0.21311	0.2584	0.043
Mof_O 	O 	0.1667	0.2771	0.6282	-0.528
Mof_C 	C 	0.8557	0.1836	0.445	-0.138
Mof_H 	H 	0.8217	0.1876	0.4841	0.041
Mof_O 	O 	0.1288	0.3155	0.316	-0.229
Mof_C 	C 	0.8848	0.1476	0.5731	0.045
Mof_C 	C 	0.8641	0.1174	0.7646	-0.096
Mof_H 	H 	0.8303	0.1214	0.8077	0.061
Mof_C 	C 	0.8924	0.0811	0.8947	-0.015
Mof_H 	H 	0.8779	0.0608	0.0218	0.032
Mof_C 	C 	0.9434	0.0758	0.8294	-0.032
Mof_H 	H 	0.9629	0.0519	0.9151	0.037
Mof_C 	C 	0.9651	0.1057	0.6391	-0.08
Mof_H 	H 	0.999	0.1015	0.5976	0.058
Mof_C 	C 	0.9365	0.1424	0.5079	0.041
Mof_C 	C 	0.9597	0.1719	0.3175	-0.131
Mof_H 	H 	0.9935	0.1677	0.2749	0.075
Mof_C 	C 	0.93	0.2078	0.1951	0.072
Mof_C 	C 	0.9868	0.25748	0.8961	0.203
Mof_C 	C 	0.0782	0.2849	0.6778	-0.212
Mof_C 	C 	0.9892	0.2775	0.648	-0.656
Mof_H 	H 	0.9595	0.2817	0.5547	0.263
Mof_C 	C 	0.0341	0.2914	0.5338	0.529
Mof_H 	H 	0.035	0.3046	0.3663	-0.142
Mof_C 	C 	0.0778	0.2647	0.9251	0.641
Mof_H 	H 	0.1076	0.26	0.0173	-0.177
Mof_C 	C 	0.0321	0.2515	0.0321	-0.716
Mof_H 	H 	0.0313	0.2383	0.1997	0.282
Mof_C 	C 	0.1279	0.2982	0.552	0.454
Mof_O 	O 	0.13	0.345	0.468	-0.213
Mof_C 	C 	0.9952	0.3072	0.8365	0.392
Mof_H 	H 	0.9703	0.331	0.8691	-0.091
Mof_C 	C 	0.0415	0.3223	0.726	-0.395
Mof_H 	H 	0.0477	0.3559	0.6862	0.184
Mof_C 	C 	0.0717	0.2337	0.739	-0.524
Mof_H 	H 	0.0965	0.2096	0.7109	0.213
Mof_C 	C 	0.0243	0.2224	0.845	0.467
Mof_H 	H 	0.0175	0.1889	0.8852	-0.133
Mof_Zn	Zn	0.28584	0.7728	0.58519	1.228
Mof_O 	O 	0.2473	0.7211	0.4146	-0.811
Mof_H 	H 	0.2363	0.7003	0.5269	0.275
Mof_N 	N 	0.3586	0.7514	0.603	-0.268
Mof_C 	C 	0.39531	0.7678	0.4566	0.115
Mof_H 	H 	0.3916	0.7932	0.3333	-0.013
Mof_N 	N 	0.4395	0.7437	0.5041	-0.15
Mof_C 	C 	0.3788	0.71311	0.7584	0.049
Mof_O 	O 	0.6667	0.7771	0.1282	-0.498
Mof_C 	C 	0.3557	0.6836	0.945	-0.087
Mof_H 	H 	0.3217	0.6876	0.9841	0.044
Mof_O 	O 	0.6288	0.8155	0.816	-0.288
Mof_C 	C 	0.3848	0.6476	0.0731	0.028
Mof_C 	C 	0.3641	0.6174	0.2646	-0.058
Mof_H 	H 	0.3303	0.6214	0.3077	0.043
Mof_C 	C 	0.3924	0.5811	0.3947	-0.02
Mof_H 	H 	0.3779	0.5608	0.5218	-0.006
Mof_C 	C 	0.4434	0.5758	0.3294	-0.032
Mof_H 	H 	0.4629	0.5519	0.4151	0.03
Mof_C 	C 	0.4651	0.6057	0.1391	-0.122
Mof_H 	H 	0.499	0.6015	0.0976	0.059
Mof_C 	C 	0.4365	0.6424	0.0079	0.055
Mof_C 	C 	0.4597	0.6719	0.8175	-0.137
Mof_H 	H 	0.4935	0.6677	0.7749	0.075
Mof_C 	C 	0.43	0.7078	0.6951	0.098
Mof_C 	C 	0.4868	0.75748	0.3961	0.092
Mof_C 	C 	0.5782	0.7849	0.1778	0.172
Mof_C 	C 	0.4892	0.7775	0.148	3.858
Mof_H 	H 	0.4595	0.7817	0.0547	-1.293
Mof_C 	C 	0.5341	0.7914	0.0338	-3.538
Mof_H 	H 	0.535	0.8046	0.8663	1.274
Mof_C 	C 	0.5778	0.7647	0.4251	-4.119
Mof_H 	H 	0.6076	0.76	0.5173	1.459
Mof_C 	C 	0.5321	0.7515	0.5321	4.157
Mof_H 	H 	0.5313	0.7383	0.6997	-1.43
Mof_C 	C 	0.6279	0.7982	0.052	0.323
Mof_O 	O 	0.63	0.845	0.968	-0.155
Mof_C 	C 	0.4952	0.8072	0.3365	-3.851
Mof_H 	H 	0.4703	0.831	0.3691	1.384
Mof_C 	C 	0.5415	0.8223	0.226	3.319
Mof_H 	H 	0.5477	0.8559	0.1862	-1.113
Mof_C 	C 	0.5717	0.7337	0.239	3.895
Mof_H 	H 	0.5965	0.7096	0.2109	-1.349
Mof_C 	C 	0.5243	0.7224	0.345	-4.158
Mof_H 	H 	0.5175	0.6889	0.3852	1.469
_end
