# CIF file generated by openbabel 3.1.0, see https://openbabel.org
data_I
_chemical_name_common 'image0'
_cell_length_a 35.7936
_cell_length_b 14.8908
_cell_length_c 31.3707
_cell_angle_alpha 90
_cell_angle_beta 102.673
_cell_angle_gamma 90
_space_group_name_H-M_alt 'P 1'
_space_group_name_Hall 'P 1'
loop_
    _symmetry_equiv_pos_as_xyz
    x,y,z
loop_
    _atom_site_label
    _atom_site_type_symbol
    _atom_site_fract_x
    _atom_site_fract_y
    _atom_site_fract_z
    _atom_site_occupancy
    I1       I        0.73682    0.76626    0.30057    1.000
    I2       I        0.61663    0.26252    0.56143    1.000
    I3       I        0.63109    0.82789    0.20006    1.000
    I4       I        0.52519    0.35683    0.62924    1.000
    I5       I        0.89665    0.26665    0.89506    1.000
    I6       I        0.86290    0.41137    0.00677    1.000
    Zn1      Zn       0.88018    0.40964    0.93245    1.000
    Zn2      Zn       0.67510    0.85367    0.27473    1.000
    Zn3      Zn       0.58495    0.38196    0.59525    1.000
    N1       N        0.57330    0.48780    0.55130    1.000
    N2       N        0.64166    0.83380    0.31940    1.000
    N3       N        0.72255    0.55410    0.77339    1.000
    N4       N        0.68641    0.00910    0.78010    1.000
    N5       N        0.83588    0.47240    0.89040    1.000
    N6       N        0.73696    0.69300    0.81080    1.000
    N7       N        0.54017    0.84590    0.40700    1.000
    N8       N        0.62290    0.44780    0.64410    1.000
    N9       N        0.68334    0.68100    0.75160    1.000
    N10      N        0.57786    0.71920    0.43640    1.000
    C1       C        0.78330    0.47020    0.82820    1.000
    H1       H        0.76850    0.43830    0.80500    1.000
    C2       C        0.77518    0.56070    0.83540    1.000
    N11      N        0.42485    0.00270    0.43530    1.000
    C3       C        0.82820    0.55660    0.89680    1.000
    H2       H        0.84350    0.58650    0.92030    1.000
    C4       C        0.70749    0.72690    0.78270    1.000
    C5       C        0.48700    0.89130    0.43720    1.000
    C6       C        0.67790    0.45580    0.70330    1.000
    H3       H        0.69940    0.42780    0.71990    1.000
    C7       C        0.69267    0.59550    0.74830    1.000
    C8       C        0.56936    0.78790    0.40930    1.000
    C9       C        0.70000    0.82520    0.78350    1.000
    C10      C        0.52040    0.83220    0.43780    1.000
    C11      C        0.79810    0.60400    0.87030    1.000
    H4       H        0.79370    0.66380    0.87620    1.000
    C12      C        0.63570    0.58070    0.68690    1.000
    H5       H        0.62870    0.63920    0.69200    1.000
    C13      C        0.44120    0.95720    0.47090    1.000
    H6       H        0.43110    0.96340    0.49570    1.000
    C14      C        0.66860    0.54310    0.71250    1.000
    C15      C        0.65430    0.41090    0.66840    1.000
    H7       H        0.66070    0.35270    0.66200    1.000
    C16      C        0.66240    0.95350    0.75380    1.000
    H8       H        0.64130    0.97730    0.73450    1.000
    C17      C        0.56210    0.63490    0.49540    1.000
    C18      C        0.59990    0.51280    0.52970    1.000
    H9       H        0.62240    0.47940    0.53370    1.000
    C19      C        0.81370    0.42990    0.85650    1.000
    H10      H        0.81900    0.37010    0.85180    1.000
    C20      C        0.55578    0.71260    0.46510    1.000
    C21      C        0.71700    0.97480    0.80680    1.000
    H11      H        0.73400    0.01370    0.82450    1.000
    C22      C        0.74310    0.60510    0.80490    1.000
    C23      C        0.53490    0.60920    0.51780    1.000
    H12      H        0.51220    0.64150    0.51450    1.000
    C24      C        0.47210    0.90160    0.47320    1.000
    H13      H        0.48280    0.87150    0.49900    1.000
    C25      C        0.72470    0.88380    0.80950    1.000
    H14      H        0.74650    0.86230    0.82870    1.000
    C26      C        0.54120    0.53600    0.54480    1.000
    H15      H        0.52220    0.51920    0.55930    1.000
    C27      C        0.66820    0.86110    0.75470    1.000
    H16      H        0.65110    0.82370    0.73620    1.000
    C28      C        0.61380    0.53080    0.65420    1.000
    H17      H        0.59140    0.55610    0.63810    1.000
    N12      N        0.52747    0.76910    0.46870    1.000
    C29      C        0.59450    0.80250    0.37760    1.000
    C30      C        0.59600    0.58540    0.50180    1.000
    H18      H        0.61530    0.60090    0.48770    1.000
    C31      C        0.65200    0.77990    0.35410    1.000
    H19      H        0.67580    0.75200    0.35870    1.000
    C32      C        0.62960    0.76380    0.38300    1.000
    H20      H        0.63830    0.72600    0.40670    1.000
    C33      C        0.43880    0.99010    0.40030    1.000
    H21      H        0.42740    0.02020    0.37480    1.000
    C34      C        0.58330    0.86020    0.34190    1.000
    H22      H        0.55980    0.88950    0.33690    1.000
    C35      C        0.46930    0.93450    0.39960    1.000
    H23      H        0.47790    0.92630    0.37400    1.000
    C36      C        0.60800    0.87260    0.31420    1.000
    H24      H        0.60040    0.91080    0.29050    1.000
    I7       I        0.88660    0.27140    0.90980    1.000
    I8       I        0.63399    0.27620    0.55535    1.000
    I9       I        0.53475    0.34000    0.61589    1.000
    I10      I        0.23682    0.26626    0.30057    1.000
    I11      I        0.11663    0.76252    0.56143    1.000
    I12      I        0.13109    0.32789    0.20006    1.000
    I13      I        0.02519    0.85683    0.62924    1.000
    I14      I        0.39665    0.76665    0.89506    1.000
    I15      I        0.36290    0.91137    0.00677    1.000
    Zn4      Zn       0.38018    0.90964    0.93245    1.000
    Zn5      Zn       0.17510    0.35367    0.27473    1.000
    Zn6      Zn       0.08495    0.88196    0.59525    1.000
    N13      N        0.07330    0.98780    0.55130    1.000
    N14      N        0.14166    0.33380    0.31940    1.000
    N15      N        0.22255    0.05410    0.77339    1.000
    N16      N        0.18641    0.50910    0.78010    1.000
    N17      N        0.33588    0.97240    0.89040    1.000
    N18      N        0.23696    0.19300    0.81080    1.000
    N19      N        0.04017    0.34590    0.40700    1.000
    N20      N        0.12290    0.94780    0.64410    1.000
    N21      N        0.18334    0.18100    0.75160    1.000
    N22      N        0.07786    0.21920    0.43640    1.000
    C37      C        0.28330    0.97020    0.82820    1.000
    H25      H        0.26850    0.93830    0.80500    1.000
    C38      C        0.27518    0.06070    0.83540    1.000
    N23      N        0.92485    0.50270    0.43530    1.000
    C39      C        0.32820    0.05660    0.89680    1.000
    H26      H        0.34350    0.08650    0.92030    1.000
    C40      C        0.20749    0.22690    0.78270    1.000
    C41      C        0.98700    0.39130    0.43720    1.000
    C42      C        0.17790    0.95580    0.70330    1.000
    H27      H        0.19940    0.92780    0.71990    1.000
    C43      C        0.19267    0.09550    0.74830    1.000
    C44      C        0.06936    0.28790    0.40930    1.000
    C45      C        0.20000    0.32520    0.78350    1.000
    C46      C        0.02040    0.33220    0.43780    1.000
    C47      C        0.29810    0.10400    0.87030    1.000
    H28      H        0.29370    0.16380    0.87620    1.000
    C48      C        0.13570    0.08070    0.68690    1.000
    H29      H        0.12870    0.13920    0.69200    1.000
    C49      C        0.94120    0.45720    0.47090    1.000
    H30      H        0.93110    0.46340    0.49570    1.000
    C50      C        0.16860    0.04310    0.71250    1.000
    C51      C        0.15430    0.91090    0.66840    1.000
    H31      H        0.16070    0.85270    0.66200    1.000
    C52      C        0.16240    0.45350    0.75380    1.000
    H32      H        0.14130    0.47730    0.73450    1.000
    C53      C        0.06210    0.13490    0.49540    1.000
    C54      C        0.09990    0.01280    0.52970    1.000
    H33      H        0.12240    0.97940    0.53370    1.000
    C55      C        0.31370    0.92990    0.85650    1.000
    H34      H        0.31900    0.87010    0.85180    1.000
    C56      C        0.05578    0.21260    0.46510    1.000
    C57      C        0.21700    0.47480    0.80680    1.000
    H35      H        0.23400    0.51370    0.82450    1.000
    C58      C        0.24310    0.10510    0.80490    1.000
    C59      C        0.03490    0.10920    0.51780    1.000
    H36      H        0.01220    0.14150    0.51450    1.000
    C60      C        0.97210    0.40160    0.47320    1.000
    H37      H        0.98280    0.37150    0.49900    1.000
    C61      C        0.22470    0.38380    0.80950    1.000
    H38      H        0.24650    0.36230    0.82870    1.000
    C62      C        0.04120    0.03600    0.54480    1.000
    H39      H        0.02220    0.01920    0.55930    1.000
    C63      C        0.16820    0.36110    0.75470    1.000
    H40      H        0.15110    0.32370    0.73620    1.000
    C64      C        0.11380    0.03080    0.65420    1.000
    H41      H        0.09140    0.05610    0.63810    1.000
    N24      N        0.02747    0.26910    0.46870    1.000
    C65      C        0.09450    0.30250    0.37760    1.000
    C66      C        0.09600    0.08540    0.50180    1.000
    H42      H        0.11530    0.10090    0.48770    1.000
    C67      C        0.15200    0.27990    0.35410    1.000
    H43      H        0.17580    0.25200    0.35870    1.000
    C68      C        0.12960    0.26380    0.38300    1.000
    H44      H        0.13830    0.22600    0.40670    1.000
    C69      C        0.93880    0.49010    0.40030    1.000
    H45      H        0.92740    0.52020    0.37480    1.000
    C70      C        0.08330    0.36020    0.34190    1.000
    H46      H        0.05980    0.38950    0.33690    1.000
    C71      C        0.96930    0.43450    0.39960    1.000
    H47      H        0.97790    0.42630    0.37400    1.000
    C72      C        0.10800    0.37260    0.31420    1.000
    H48      H        0.10040    0.41080    0.29050    1.000
    I16      I        0.38660    0.77140    0.90980    1.000
    I17      I        0.13399    0.77620    0.55535    1.000
    I18      I        0.03475    0.84000    0.61589    1.000
    I19      I        0.73682    0.23374    0.80057    1.000
    I20      I        0.61663    0.73748    0.06143    1.000
    I21      I        0.63109    0.17211    0.70006    1.000
    I22      I        0.52519    0.64317    0.12924    1.000
    I23      I        0.89665    0.73335    0.39506    1.000
    I24      I        0.86290    0.58863    0.50677    1.000
    Zn7      Zn       0.88018    0.59036    0.43245    1.000
    Zn8      Zn       0.67510    0.14633    0.77473    1.000
    Zn9      Zn       0.58495    0.61804    0.09525    1.000
    N25      N        0.57330    0.51220    0.05130    1.000
    N26      N        0.64166    0.16620    0.81940    1.000
    N27      N        0.72255    0.44590    0.27339    1.000
    N28      N        0.68641    0.99090    0.28010    1.000
    N29      N        0.83588    0.52760    0.39040    1.000
    N30      N        0.73696    0.30700    0.31080    1.000
    N31      N        0.54017    0.15410    0.90700    1.000
    N32      N        0.62290    0.55220    0.14410    1.000
    N33      N        0.68334    0.31900    0.25160    1.000
    N34      N        0.57786    0.28080    0.93640    1.000
    C73      C        0.78330    0.52980    0.32820    1.000
    H49      H        0.76850    0.56170    0.30500    1.000
    C74      C        0.77518    0.43930    0.33540    1.000
    N35      N        0.42485    0.99730    0.93530    1.000
    C75      C        0.82820    0.44340    0.39680    1.000
    H50      H        0.84350    0.41350    0.42030    1.000
    C76      C        0.70749    0.27310    0.28270    1.000
    C77      C        0.48700    0.10870    0.93720    1.000
    C78      C        0.67790    0.54420    0.20330    1.000
    H51      H        0.69940    0.57220    0.21990    1.000
    C79      C        0.69267    0.40450    0.24830    1.000
    C80      C        0.56936    0.21210    0.90930    1.000
    C81      C        0.70000    0.17480    0.28350    1.000
    C82      C        0.52040    0.16780    0.93780    1.000
    C83      C        0.79810    0.39600    0.37030    1.000
    H52      H        0.79370    0.33620    0.37620    1.000
    C84      C        0.63570    0.41930    0.18690    1.000
    H53      H        0.62870    0.36080    0.19200    1.000
    C85      C        0.44120    0.04280    0.97090    1.000
    H54      H        0.43110    0.03660    0.99570    1.000
    C86      C        0.66860    0.45690    0.21250    1.000
    C87      C        0.65430    0.58910    0.16840    1.000
    H55      H        0.66070    0.64730    0.16200    1.000
    C88      C        0.66240    0.04650    0.25380    1.000
    H56      H        0.64130    0.02270    0.23450    1.000
    C89      C        0.56210    0.36510    0.99540    1.000
    C90      C        0.59990    0.48720    0.02970    1.000
    H57      H        0.62240    0.52060    0.03370    1.000
    C91      C        0.81370    0.57010    0.35650    1.000
    H58      H        0.81900    0.62990    0.35180    1.000
    C92      C        0.55578    0.28740    0.96510    1.000
    C93      C        0.71700    0.02520    0.30680    1.000
    H59      H        0.73400    0.98630    0.32450    1.000
    C94      C        0.74310    0.39490    0.30490    1.000
    C95      C        0.53490    0.39080    0.01780    1.000
    H60      H        0.51220    0.35850    0.01450    1.000
    C96      C        0.47210    0.09840    0.97320    1.000
    H61      H        0.48280    0.12850    0.99900    1.000
    C97      C        0.72470    0.11620    0.30950    1.000
    H62      H        0.74650    0.13770    0.32870    1.000
    C98      C        0.54120    0.46400    0.04480    1.000
    H63      H        0.52220    0.48080    0.05930    1.000
    C99      C        0.66820    0.13890    0.25470    1.000
    H64      H        0.65110    0.17630    0.23620    1.000
    C100     C        0.61380    0.46920    0.15420    1.000
    H65      H        0.59140    0.44390    0.13810    1.000
    N36      N        0.52747    0.23090    0.96870    1.000
    C101     C        0.59450    0.19750    0.87760    1.000
    C102     C        0.59600    0.41460    0.00180    1.000
    H66      H        0.61530    0.39910    0.98770    1.000
    C103     C        0.65200    0.22010    0.85410    1.000
    H67      H        0.67580    0.24800    0.85870    1.000
    C104     C        0.62960    0.23620    0.88300    1.000
    H68      H        0.63830    0.27400    0.90670    1.000
    C105     C        0.43880    0.00990    0.90030    1.000
    H69      H        0.42740    0.97980    0.87480    1.000
    C106     C        0.58330    0.13980    0.84190    1.000
    H70      H        0.55980    0.11050    0.83690    1.000
    C107     C        0.46930    0.06550    0.89960    1.000
    H71      H        0.47790    0.07370    0.87400    1.000
    C108     C        0.60800    0.12740    0.81420    1.000
    H72      H        0.60040    0.08920    0.79050    1.000
    I25      I        0.88660    0.72860    0.40980    1.000
    I26      I        0.63399    0.72380    0.05535    1.000
    I27      I        0.53475    0.66000    0.11589    1.000
    I28      I        0.23682    0.73374    0.80057    1.000
    I29      I        0.11663    0.23748    0.06143    1.000
    I30      I        0.13109    0.67211    0.70006    1.000
    I31      I        0.02519    0.14317    0.12924    1.000
    I32      I        0.39665    0.23335    0.39506    1.000
    I33      I        0.36290    0.08863    0.50677    1.000
    Zn10     Zn       0.38018    0.09036    0.43245    1.000
    Zn11     Zn       0.17510    0.64633    0.77473    1.000
    Zn12     Zn       0.08495    0.11804    0.09525    1.000
    N37      N        0.07330    0.01220    0.05130    1.000
    N38      N        0.14166    0.66620    0.81940    1.000
    N39      N        0.22255    0.94590    0.27339    1.000
    N40      N        0.18641    0.49090    0.28010    1.000
    N41      N        0.33588    0.02760    0.39040    1.000
    N42      N        0.23696    0.80700    0.31080    1.000
    N43      N        0.04017    0.65410    0.90700    1.000
    N44      N        0.12290    0.05220    0.14410    1.000
    N45      N        0.18334    0.81900    0.25160    1.000
    N46      N        0.07786    0.78080    0.93640    1.000
    C109     C        0.28330    0.02980    0.32820    1.000
    H73      H        0.26850    0.06170    0.30500    1.000
    C110     C        0.27518    0.93930    0.33540    1.000
    N47      N        0.92485    0.49730    0.93530    1.000
    C111     C        0.32820    0.94340    0.39680    1.000
    H74      H        0.34350    0.91350    0.42030    1.000
    C112     C        0.20749    0.77310    0.28270    1.000
    C113     C        0.98700    0.60870    0.93720    1.000
    C114     C        0.17790    0.04420    0.20330    1.000
    H75      H        0.19940    0.07220    0.21990    1.000
    C115     C        0.19267    0.90450    0.24830    1.000
    C116     C        0.06936    0.71210    0.90930    1.000
    C117     C        0.20000    0.67480    0.28350    1.000
    C118     C        0.02040    0.66780    0.93780    1.000
    C119     C        0.29810    0.89600    0.37030    1.000
    H76      H        0.29370    0.83620    0.37620    1.000
    C120     C        0.13570    0.91930    0.18690    1.000
    H77      H        0.12870    0.86080    0.19200    1.000
    C121     C        0.94120    0.54280    0.97090    1.000
    H78      H        0.93110    0.53660    0.99570    1.000
    C122     C        0.16860    0.95690    0.21250    1.000
    C123     C        0.15430    0.08910    0.16840    1.000
    H79      H        0.16070    0.14730    0.16200    1.000
    C124     C        0.16240    0.54650    0.25380    1.000
    H80      H        0.14130    0.52270    0.23450    1.000
    C125     C        0.06210    0.86510    0.99540    1.000
    C126     C        0.09990    0.98720    0.02970    1.000
    H81      H        0.12240    0.02060    0.03370    1.000
    C127     C        0.31370    0.07010    0.35650    1.000
    H82      H        0.31900    0.12990    0.35180    1.000
    C128     C        0.05578    0.78740    0.96510    1.000
    C129     C        0.21700    0.52520    0.30680    1.000
    H83      H        0.23400    0.48630    0.32450    1.000
    C130     C        0.24310    0.89490    0.30490    1.000
    C131     C        0.03490    0.89080    0.01780    1.000
    H84      H        0.01220    0.85850    0.01450    1.000
    C132     C        0.97210    0.59840    0.97320    1.000
    H85      H        0.98280    0.62850    0.99900    1.000
    C133     C        0.22470    0.61620    0.30950    1.000
    H86      H        0.24650    0.63770    0.32870    1.000
    C134     C        0.04120    0.96400    0.04480    1.000
    H87      H        0.02220    0.98080    0.05930    1.000
    C135     C        0.16820    0.63890    0.25470    1.000
    H88      H        0.15110    0.67630    0.23620    1.000
    C136     C        0.11380    0.96920    0.15420    1.000
    H89      H        0.09140    0.94390    0.13810    1.000
    N48      N        0.02747    0.73090    0.96870    1.000
    C137     C        0.09450    0.69750    0.87760    1.000
    C138     C        0.09600    0.91460    0.00180    1.000
    H90      H        0.11530    0.89910    0.98770    1.000
    C139     C        0.15200    0.72010    0.85410    1.000
    H91      H        0.17580    0.74800    0.85870    1.000
    C140     C        0.12960    0.73620    0.88300    1.000
    H92      H        0.13830    0.77400    0.90670    1.000
    C141     C        0.93880    0.50990    0.90030    1.000
    H93      H        0.92740    0.47980    0.87480    1.000
    C142     C        0.08330    0.63980    0.84190    1.000
    H94      H        0.05980    0.61050    0.83690    1.000
    C143     C        0.96930    0.56550    0.89960    1.000
    H95      H        0.97790    0.57370    0.87400    1.000
    C144     C        0.10800    0.62740    0.81420    1.000
    H96      H        0.10040    0.58920    0.79050    1.000
    I34      I        0.38660    0.22860    0.40980    1.000
    I35      I        0.13399    0.22380    0.05535    1.000
    I36      I        0.03475    0.16000    0.11589    1.000
    I37      I        0.26318    0.76626    0.19943    1.000
    I38      I        0.38337    0.26252    0.93857    1.000
    I39      I        0.36891    0.82789    0.29994    1.000
    I40      I        0.47481    0.35683    0.87076    1.000
    I41      I        0.10335    0.26665    0.60494    1.000
    I42      I        0.13710    0.41137    0.49323    1.000
    Zn13     Zn       0.11982    0.40964    0.56755    1.000
    Zn14     Zn       0.32490    0.85367    0.22527    1.000
    Zn15     Zn       0.41505    0.38196    0.90475    1.000
    N49      N        0.42670    0.48780    0.94870    1.000
    N50      N        0.35834    0.83380    0.18060    1.000
    N51      N        0.27745    0.55410    0.72661    1.000
    N52      N        0.31359    0.00910    0.71990    1.000
    N53      N        0.16412    0.47240    0.60960    1.000
    N54      N        0.26304    0.69300    0.68920    1.000
    N55      N        0.45983    0.84590    0.09300    1.000
    N56      N        0.37710    0.44780    0.85590    1.000
    N57      N        0.31666    0.68100    0.74840    1.000
    N58      N        0.42214    0.71920    0.06360    1.000
    C145     C        0.21670    0.47020    0.67180    1.000
    H97      H        0.23150    0.43830    0.69500    1.000
    C146     C        0.22482    0.56070    0.66460    1.000
    N59      N        0.57515    0.00270    0.06470    1.000
    C147     C        0.17180    0.55660    0.60320    1.000
    H98      H        0.15650    0.58650    0.57970    1.000
    C148     C        0.29251    0.72690    0.71730    1.000
    C149     C        0.51300    0.89130    0.06280    1.000
    C150     C        0.32210    0.45580    0.79670    1.000
    H99      H        0.30060    0.42780    0.78010    1.000
    C151     C        0.30733    0.59550    0.75170    1.000
    C152     C        0.43064    0.78790    0.09070    1.000
    C153     C        0.30000    0.82520    0.71650    1.000
    C154     C        0.47960    0.83220    0.06220    1.000
    C155     C        0.20190    0.60400    0.62970    1.000
    H100     H        0.20630    0.66380    0.62380    1.000
    C156     C        0.36430    0.58070    0.81310    1.000
    H101     H        0.37130    0.63920    0.80800    1.000
    C157     C        0.55880    0.95720    0.02910    1.000
    H102     H        0.56890    0.96340    0.00430    1.000
    C158     C        0.33140    0.54310    0.78750    1.000
    C159     C        0.34570    0.41090    0.83160    1.000
    H103     H        0.33930    0.35270    0.83800    1.000
    C160     C        0.33760    0.95350    0.74620    1.000
    H104     H        0.35870    0.97730    0.76550    1.000
    C161     C        0.43790    0.63490    0.00460    1.000
    C162     C        0.40010    0.51280    0.97030    1.000
    H105     H        0.37760    0.47940    0.96630    1.000
    C163     C        0.18630    0.42990    0.64350    1.000
    H106     H        0.18100    0.37010    0.64820    1.000
    C164     C        0.44422    0.71260    0.03490    1.000
    C165     C        0.28300    0.97480    0.69320    1.000
    H107     H        0.26600    0.01370    0.67550    1.000
    C166     C        0.25690    0.60510    0.69510    1.000
    C167     C        0.46510    0.60920    0.98220    1.000
    H108     H        0.48780    0.64150    0.98550    1.000
    C168     C        0.52790    0.90160    0.02680    1.000
    H109     H        0.51720    0.87150    0.00100    1.000
    C169     C        0.27530    0.88380    0.69050    1.000
    H110     H        0.25350    0.86230    0.67130    1.000
    C170     C        0.45880    0.53600    0.95520    1.000
    H111     H        0.47780    0.51920    0.94070    1.000
    C171     C        0.33180    0.86110    0.74530    1.000
    H112     H        0.34890    0.82370    0.76380    1.000
    C172     C        0.38620    0.53080    0.84580    1.000
    H113     H        0.40860    0.55610    0.86190    1.000
    N60      N        0.47253    0.76910    0.03130    1.000
    C173     C        0.40550    0.80250    0.12240    1.000
    C174     C        0.40400    0.58540    0.99820    1.000
    H114     H        0.38470    0.60090    0.01230    1.000
    C175     C        0.34800    0.77990    0.14590    1.000
    H115     H        0.32420    0.75200    0.14130    1.000
    C176     C        0.37040    0.76380    0.11700    1.000
    H116     H        0.36170    0.72600    0.09330    1.000
    C177     C        0.56120    0.99010    0.09970    1.000
    H117     H        0.57260    0.02020    0.12520    1.000
    C178     C        0.41670    0.86020    0.15810    1.000
    H118     H        0.44020    0.88950    0.16310    1.000
    C179     C        0.53070    0.93450    0.10040    1.000
    H119     H        0.52210    0.92630    0.12600    1.000
    C180     C        0.39200    0.87260    0.18580    1.000
    H120     H        0.39960    0.91080    0.20950    1.000
    I43      I        0.11340    0.27140    0.59020    1.000
    I44      I        0.36601    0.27620    0.94465    1.000
    I45      I        0.46525    0.34000    0.88411    1.000
    I46      I        0.76318    0.26626    0.19943    1.000
    I47      I        0.88337    0.76252    0.93857    1.000
    I48      I        0.86891    0.32789    0.29994    1.000
    I49      I        0.97481    0.85683    0.87076    1.000
    I50      I        0.60335    0.76665    0.60494    1.000
    I51      I        0.63710    0.91137    0.49323    1.000
    Zn16     Zn       0.61982    0.90964    0.56755    1.000
    Zn17     Zn       0.82490    0.35367    0.22527    1.000
    Zn18     Zn       0.91505    0.88196    0.90475    1.000
    N61      N        0.92670    0.98780    0.94870    1.000
    N62      N        0.85834    0.33380    0.18060    1.000
    N63      N        0.77745    0.05410    0.72661    1.000
    N64      N        0.81359    0.50910    0.71990    1.000
    N65      N        0.66412    0.97240    0.60960    1.000
    N66      N        0.76304    0.19300    0.68920    1.000
    N67      N        0.95983    0.34590    0.09300    1.000
    N68      N        0.87710    0.94780    0.85590    1.000
    N69      N        0.81666    0.18100    0.74840    1.000
    N70      N        0.92214    0.21920    0.06360    1.000
    C181     C        0.71670    0.97020    0.67180    1.000
    H121     H        0.73150    0.93830    0.69500    1.000
    C182     C        0.72482    0.06070    0.66460    1.000
    N71      N        0.07515    0.50270    0.06470    1.000
    C183     C        0.67180    0.05660    0.60320    1.000
    H122     H        0.65650    0.08650    0.57970    1.000
    C184     C        0.79251    0.22690    0.71730    1.000
    C185     C        0.01300    0.39130    0.06280    1.000
    C186     C        0.82210    0.95580    0.79670    1.000
    H123     H        0.80060    0.92780    0.78010    1.000
    C187     C        0.80733    0.09550    0.75170    1.000
    C188     C        0.93064    0.28790    0.09070    1.000
    C189     C        0.80000    0.32520    0.71650    1.000
    C190     C        0.97960    0.33220    0.06220    1.000
    C191     C        0.70190    0.10400    0.62970    1.000
    H124     H        0.70630    0.16380    0.62380    1.000
    C192     C        0.86430    0.08070    0.81310    1.000
    H125     H        0.87130    0.13920    0.80800    1.000
    C193     C        0.05880    0.45720    0.02910    1.000
    H126     H        0.06890    0.46340    0.00430    1.000
    C194     C        0.83140    0.04310    0.78750    1.000
    C195     C        0.84570    0.91090    0.83160    1.000
    H127     H        0.83930    0.85270    0.83800    1.000
    C196     C        0.83760    0.45350    0.74620    1.000
    H128     H        0.85870    0.47730    0.76550    1.000
    C197     C        0.93790    0.13490    0.00460    1.000
    C198     C        0.90010    0.01280    0.97030    1.000
    H129     H        0.87760    0.97940    0.96630    1.000
    C199     C        0.68630    0.92990    0.64350    1.000
    H130     H        0.68100    0.87010    0.64820    1.000
    C200     C        0.94422    0.21260    0.03490    1.000
    C201     C        0.78300    0.47480    0.69320    1.000
    H131     H        0.76600    0.51370    0.67550    1.000
    C202     C        0.75690    0.10510    0.69510    1.000
    C203     C        0.96510    0.10920    0.98220    1.000
    H132     H        0.98780    0.14150    0.98550    1.000
    C204     C        0.02790    0.40160    0.02680    1.000
    H133     H        0.01720    0.37150    0.00100    1.000
    C205     C        0.77530    0.38380    0.69050    1.000
    H134     H        0.75350    0.36230    0.67130    1.000
    C206     C        0.95880    0.03600    0.95520    1.000
    H135     H        0.97780    0.01920    0.94070    1.000
    C207     C        0.83180    0.36110    0.74530    1.000
    H136     H        0.84890    0.32370    0.76380    1.000
    C208     C        0.88620    0.03080    0.84580    1.000
    H137     H        0.90860    0.05610    0.86190    1.000
    N72      N        0.97253    0.26910    0.03130    1.000
    C209     C        0.90550    0.30250    0.12240    1.000
    C210     C        0.90400    0.08540    0.99820    1.000
    H138     H        0.88470    0.10090    0.01230    1.000
    C211     C        0.84800    0.27990    0.14590    1.000
    H139     H        0.82420    0.25200    0.14130    1.000
    C212     C        0.87040    0.26380    0.11700    1.000
    H140     H        0.86170    0.22600    0.09330    1.000
    C213     C        0.06120    0.49010    0.09970    1.000
    H141     H        0.07260    0.52020    0.12520    1.000
    C214     C        0.91670    0.36020    0.15810    1.000
    H142     H        0.94020    0.38950    0.16310    1.000
    C215     C        0.03070    0.43450    0.10040    1.000
    H143     H        0.02210    0.42630    0.12600    1.000
    C216     C        0.89200    0.37260    0.18580    1.000
    H144     H        0.89960    0.41080    0.20950    1.000
    I52      I        0.61340    0.77140    0.59020    1.000
    I53      I        0.86601    0.77620    0.94465    1.000
    I54      I        0.96525    0.84000    0.88411    1.000
    I55      I        0.26318    0.23374    0.69943    1.000
    I56      I        0.38337    0.73748    0.43857    1.000
    I57      I        0.36891    0.17211    0.79994    1.000
    I58      I        0.47481    0.64317    0.37076    1.000
    I59      I        0.10335    0.73335    0.10494    1.000
    I60      I        0.13710    0.58863    0.99323    1.000
    Zn19     Zn       0.11982    0.59036    0.06755    1.000
    Zn20     Zn       0.32490    0.14633    0.72527    1.000
    Zn21     Zn       0.41505    0.61804    0.40475    1.000
    N73      N        0.42670    0.51220    0.44870    1.000
    N74      N        0.35834    0.16620    0.68060    1.000
    N75      N        0.27745    0.44590    0.22661    1.000
    N76      N        0.31359    0.99090    0.21990    1.000
    N77      N        0.16412    0.52760    0.10960    1.000
    N78      N        0.26304    0.30700    0.18920    1.000
    N79      N        0.45983    0.15410    0.59300    1.000
    N80      N        0.37710    0.55220    0.35590    1.000
    N81      N        0.31666    0.31900    0.24840    1.000
    N82      N        0.42214    0.28080    0.56360    1.000
    C217     C        0.21670    0.52980    0.17180    1.000
    H145     H        0.23150    0.56170    0.19500    1.000
    C218     C        0.22482    0.43930    0.16460    1.000
    N83      N        0.57515    0.99730    0.56470    1.000
    C219     C        0.17180    0.44340    0.10320    1.000
    H146     H        0.15650    0.41350    0.07970    1.000
    C220     C        0.29251    0.27310    0.21730    1.000
    C221     C        0.51300    0.10870    0.56280    1.000
    C222     C        0.32210    0.54420    0.29670    1.000
    H147     H        0.30060    0.57220    0.28010    1.000
    C223     C        0.30733    0.40450    0.25170    1.000
    C224     C        0.43064    0.21210    0.59070    1.000
    C225     C        0.30000    0.17480    0.21650    1.000
    C226     C        0.47960    0.16780    0.56220    1.000
    C227     C        0.20190    0.39600    0.12970    1.000
    H148     H        0.20630    0.33620    0.12380    1.000
    C228     C        0.36430    0.41930    0.31310    1.000
    H149     H        0.37130    0.36080    0.30800    1.000
    C229     C        0.55880    0.04280    0.52910    1.000
    H150     H        0.56890    0.03660    0.50430    1.000
    C230     C        0.33140    0.45690    0.28750    1.000
    C231     C        0.34570    0.58910    0.33160    1.000
    H151     H        0.33930    0.64730    0.33800    1.000
    C232     C        0.33760    0.04650    0.24620    1.000
    H152     H        0.35870    0.02270    0.26550    1.000
    C233     C        0.43790    0.36510    0.50460    1.000
    C234     C        0.40010    0.48720    0.47030    1.000
    H153     H        0.37760    0.52060    0.46630    1.000
    C235     C        0.18630    0.57010    0.14350    1.000
    H154     H        0.18100    0.62990    0.14820    1.000
    C236     C        0.44422    0.28740    0.53490    1.000
    C237     C        0.28300    0.02520    0.19320    1.000
    H155     H        0.26600    0.98630    0.17550    1.000
    C238     C        0.25690    0.39490    0.19510    1.000
    C239     C        0.46510    0.39080    0.48220    1.000
    H156     H        0.48780    0.35850    0.48550    1.000
    C240     C        0.52790    0.09840    0.52680    1.000
    H157     H        0.51720    0.12850    0.50100    1.000
    C241     C        0.27530    0.11620    0.19050    1.000
    H158     H        0.25350    0.13770    0.17130    1.000
    C242     C        0.45880    0.46400    0.45520    1.000
    H159     H        0.47780    0.48080    0.44070    1.000
    C243     C        0.33180    0.13890    0.24530    1.000
    H160     H        0.34890    0.17630    0.26380    1.000
    C244     C        0.38620    0.46920    0.34580    1.000
    H161     H        0.40860    0.44390    0.36190    1.000
    N84      N        0.47253    0.23090    0.53130    1.000
    C245     C        0.40550    0.19750    0.62240    1.000
    C246     C        0.40400    0.41460    0.49820    1.000
    H162     H        0.38470    0.39910    0.51230    1.000
    C247     C        0.34800    0.22010    0.64590    1.000
    H163     H        0.32420    0.24800    0.64130    1.000
    C248     C        0.37040    0.23620    0.61700    1.000
    H164     H        0.36170    0.27400    0.59330    1.000
    C249     C        0.56120    0.00990    0.59970    1.000
    H165     H        0.57260    0.97980    0.62520    1.000
    C250     C        0.41670    0.13980    0.65810    1.000
    H166     H        0.44020    0.11050    0.66310    1.000
    C251     C        0.53070    0.06550    0.60040    1.000
    H167     H        0.52210    0.07370    0.62600    1.000
    C252     C        0.39200    0.12740    0.68580    1.000
    H168     H        0.39960    0.08920    0.70950    1.000
    I61      I        0.11340    0.72860    0.09020    1.000
    I62      I        0.36601    0.72380    0.44465    1.000
    I63      I        0.46525    0.66000    0.38411    1.000
    I64      I        0.76318    0.73374    0.69943    1.000
    I65      I        0.88337    0.23748    0.43857    1.000
    I66      I        0.86891    0.67211    0.79994    1.000
    I67      I        0.97481    0.14317    0.37076    1.000
    I68      I        0.60335    0.23335    0.10494    1.000
    I69      I        0.63710    0.08863    0.99323    1.000
    Zn22     Zn       0.61982    0.09036    0.06755    1.000
    Zn23     Zn       0.82490    0.64633    0.72527    1.000
    Zn24     Zn       0.91505    0.11804    0.40475    1.000
    N85      N        0.92670    0.01220    0.44870    1.000
    N86      N        0.85834    0.66620    0.68060    1.000
    N87      N        0.77745    0.94590    0.22661    1.000
    N88      N        0.81359    0.49090    0.21990    1.000
    N89      N        0.66412    0.02760    0.10960    1.000
    N90      N        0.76304    0.80700    0.18920    1.000
    N91      N        0.95983    0.65410    0.59300    1.000
    N92      N        0.87710    0.05220    0.35590    1.000
    N93      N        0.81666    0.81900    0.24840    1.000
    N94      N        0.92214    0.78080    0.56360    1.000
    C253     C        0.71670    0.02980    0.17180    1.000
    H169     H        0.73150    0.06170    0.19500    1.000
    C254     C        0.72482    0.93930    0.16460    1.000
    N95      N        0.07515    0.49730    0.56470    1.000
    C255     C        0.67180    0.94340    0.10320    1.000
    H170     H        0.65650    0.91350    0.07970    1.000
    C256     C        0.79251    0.77310    0.21730    1.000
    C257     C        0.01300    0.60870    0.56280    1.000
    C258     C        0.82210    0.04420    0.29670    1.000
    H171     H        0.80060    0.07220    0.28010    1.000
    C259     C        0.80733    0.90450    0.25170    1.000
    C260     C        0.93064    0.71210    0.59070    1.000
    C261     C        0.80000    0.67480    0.21650    1.000
    C262     C        0.97960    0.66780    0.56220    1.000
    C263     C        0.70190    0.89600    0.12970    1.000
    H172     H        0.70630    0.83620    0.12380    1.000
    C264     C        0.86430    0.91930    0.31310    1.000
    H173     H        0.87130    0.86080    0.30800    1.000
    C265     C        0.05880    0.54280    0.52910    1.000
    H174     H        0.06890    0.53660    0.50430    1.000
    C266     C        0.83140    0.95690    0.28750    1.000
    C267     C        0.84570    0.08910    0.33160    1.000
    H175     H        0.83930    0.14730    0.33800    1.000
    C268     C        0.83760    0.54650    0.24620    1.000
    H176     H        0.85870    0.52270    0.26550    1.000
    C269     C        0.93790    0.86510    0.50460    1.000
    C270     C        0.90010    0.98720    0.47030    1.000
    H177     H        0.87760    0.02060    0.46630    1.000
    C271     C        0.68630    0.07010    0.14350    1.000
    H178     H        0.68100    0.12990    0.14820    1.000
    C272     C        0.94422    0.78740    0.53490    1.000
    C273     C        0.78300    0.52520    0.19320    1.000
    H179     H        0.76600    0.48630    0.17550    1.000
    C274     C        0.75690    0.89490    0.19510    1.000
    C275     C        0.96510    0.89080    0.48220    1.000
    H180     H        0.98780    0.85850    0.48550    1.000
    C276     C        0.02790    0.59840    0.52680    1.000
    H181     H        0.01720    0.62850    0.50100    1.000
    C277     C        0.77530    0.61620    0.19050    1.000
    H182     H        0.75350    0.63770    0.17130    1.000
    C278     C        0.95880    0.96400    0.45520    1.000
    H183     H        0.97780    0.98080    0.44070    1.000
    C279     C        0.83180    0.63890    0.24530    1.000
    H184     H        0.84890    0.67630    0.26380    1.000
    C280     C        0.88620    0.96920    0.34580    1.000
    H185     H        0.90860    0.94390    0.36190    1.000
    N96      N        0.97253    0.73090    0.53130    1.000
    C281     C        0.90550    0.69750    0.62240    1.000
    C282     C        0.90400    0.91460    0.49820    1.000
    H186     H        0.88470    0.89910    0.51230    1.000
    C283     C        0.84800    0.72010    0.64590    1.000
    H187     H        0.82420    0.74800    0.64130    1.000
    C284     C        0.87040    0.73620    0.61700    1.000
    H188     H        0.86170    0.77400    0.59330    1.000
    C285     C        0.06120    0.50990    0.59970    1.000
    H189     H        0.07260    0.47980    0.62520    1.000
    C286     C        0.91670    0.63980    0.65810    1.000
    H190     H        0.94020    0.61050    0.66310    1.000
    C287     C        0.03070    0.56550    0.60040    1.000
    H191     H        0.02210    0.57370    0.62600    1.000
    C288     C        0.89200    0.62740    0.68580    1.000
    H192     H        0.89960    0.58920    0.70950    1.000
    I70      I        0.61340    0.22860    0.09020    1.000
    I71      I        0.86601    0.22380    0.44465    1.000
    I72      I        0.96525    0.16000    0.38411    1.000
