data_functionalizedCrystal
_audit_creation_method	'EQeq! by Chris Wilmer'
_symmetry_space_group_name_H-M	'P1'
_symmetry_Int_Tables_number	1
_symmetry_cell_setting	triclinic
loop_
_symmetry_equiv_pos_as_xyz
  x,y,z
_cell_length_a	14.7672
_cell_length_b	19.0215
_cell_length_c	30.527
_cell_angle_alpha	100.209
_cell_angle_beta	90
_cell_angle_gamma	112.841
loop_
_atom_site_label
_atom_site_type_symbol
_atom_site_fract_x
_atom_site_fract_y
_atom_site_fract_z
_atom_site_charge
Mof_Zn	Zn	0.47423	0.65484	0.22779	1.165
Mof_Zn	Zn	0.05271	0.84848	0.90012	1.165
Mof_Zn	Zn	0.52163	0.25098	0.06439	1.165
Mof_Zn	Zn	0.18061	0.65484	0.72779	1.164
Mof_Zn	Zn	0.79577	0.84848	0.40012	1.165
Mof_Zn	Zn	0.72935	0.25098	0.56439	1.165
Mof_H 	H 	0.4987	0.8082	0.2112	-0.016
Mof_H 	H 	0.5539	0.8878	0.1601	0.082
Mof_H 	H 	0.6327	0.7236	0.0868	0.082
Mof_H 	H 	0.5672	0.645	0.1386	-0.004
Mof_H 	H 	0.5981	0.1528	0.9951	-0.003
Mof_H 	H 	0.6422	0.0474	0.9913	0.079
Mof_H 	H 	0.5817	0.0422	0.1189	0.086
Mof_H 	H 	0.5321	0.1438	0.1189	-0.02
Mof_H 	H 	0.9271	0.7766	0.9686	-0.012
Mof_H 	H 	0.8057	0.7888	0.0145	0.08
Mof_H 	H 	0.9676	0.971	0.9294	-0.009
Mof_H 	H 	0.8474	0.989	0.9745	0.074
Mof_H 	H 	0.8736	0.839	0.8544	-0.008
Mof_H 	H 	0.7491	0.76	0.7992	0.091
Mof_H 	H 	0.8802	0.6068	0.7813	0.08
Mof_H 	H 	0.9974	0.6882	0.8388	-0.01
Mof_H 	H 	0.2521	0.5336	0.6768	-0.01
Mof_H 	H 	0.3963	0.511	0.6706	0.079
Mof_H 	H 	0.5368	0.7126	0.7569	0.083
Mof_H 	H 	0.3896	0.728	0.7626	-0.012
Mof_H 	H 	0.8172	0.363	0.6515	-0.002
Mof_H 	H 	0.7957	0.4626	0.6986	0.092
Mof_H 	H 	0.5504	0.42	0.6213	0.087
Mof_H 	H 	0.5794	0.3196	0.577	-0.003
Mof_H 	H 	0.3095	0.8082	0.7112	-0.016
Mof_H 	H 	0.3339	0.8878	0.6601	0.081
Mof_H 	H 	0.0909	0.7236	0.5868	0.082
Mof_H 	H 	0.0778	0.645	0.6386	-0.004
Mof_H 	H 	0.5547	0.1528	0.4951	-0.003
Mof_H 	H 	0.4052	0.0474	0.4913	0.079
Mof_H 	H 	0.4605	0.0422	0.6189	0.086
Mof_H 	H 	0.6117	0.1438	0.6189	-0.02
Mof_H 	H 	0.8495	0.7766	0.4686	-0.012
Mof_H 	H 	0.9831	0.7888	0.5145	0.08
Mof_H 	H 	0.0034	0.971	0.4294	-0.012
Mof_H 	H 	0.1416	0.989	0.4745	0.074
Mof_H 	H 	0.9654	0.839	0.3544	-0.008
Mof_H 	H 	0.0109	0.76	0.2992	0.09
Mof_H 	H 	0.7266	0.6068	0.2813	0.079
Mof_H 	H 	0.6908	0.6882	0.3388	-0.01
Mof_H 	H 	0.2815	0.5336	0.1768	-0.01
Mof_H 	H 	0.1147	0.511	0.1706	0.079
Mof_H 	H 	0.1758	0.7126	0.2569	0.083
Mof_H 	H 	0.3384	0.728	0.2626	-0.012
Mof_H 	H 	0.5458	0.363	0.1515	-0.002
Mof_H 	H 	0.6669	0.4626	0.1986	0.092
Mof_H 	H 	0.8696	0.42	0.1213	0.086
Mof_H 	H 	0.7402	0.3196	0.077	-0.003
Mof_C 	C 	0.52489	0.79058	0.1851	0.07
Mof_C 	C 	0.5589	0.8388	0.1552	-0.11
Mof_C 	C 	0.60167	0.81514	0.11695	0.055
Mof_C 	C 	0.60427	0.74194	0.1119	-0.102
Mof_C 	C 	0.56583	0.69526	0.143	0.061
Mof_C 	C 	0.63917	0.86534	0.08454	0.109
Mof_C 	C 	0.64409	0.96658	0.05376	0.087
Mof_C 	C 	0.73696	0.89992	0.0287	0.089
Mof_C 	C 	0.59364	0.12928	0.0204	0.072
Mof_C 	C 	0.62006	0.06672	0.0182	-0.119
Mof_C 	C 	0.61493	0.03206	0.05433	0.053
Mof_C 	C 	0.584	0.063	0.0926	-0.126
Mof_C 	C 	0.5562	0.1244	0.0926	0.085
Mof_C 	C 	0.9104	0.8204	0.9698	0.069
Mof_C 	C 	0.8382	0.8274	0.9974	-0.115
Mof_C 	C 	0.81435	0.8911	0.99973	0.051
Mof_C 	C 	0.93408	0.93336	0.947	0.074
Mof_C 	C 	0.86252	0.94464	0.97397	-0.118
Mof_C 	C 	0.87395	0.7907	0.8397	0.073
Mof_C 	C 	0.79981	0.74422	0.8067	-0.118
Mof_C 	C 	0.80112	0.67484	0.78523	0.061
Mof_C 	C 	0.87642	0.65364	0.79636	-0.129
Mof_C 	C 	0.94645	0.7031	0.8303	0.073
Mof_C 	C 	0.72222	0.62344	0.75028	0.099
Mof_C 	C 	0.57318	0.59356	0.71528	0.107
Mof_C 	C 	0.66003	0.51946	0.69412	0.086
Mof_C 	C 	0.31041	0.56962	0.694	0.073
Mof_C 	C 	0.39639	0.55578	0.6902	-0.12
Mof_C 	C 	0.48169	0.60778	0.715	0.057
Mof_C 	C 	0.47854	0.67368	0.741	-0.117
Mof_C 	C 	0.39093	0.68306	0.7437	0.064
Mof_C 	C 	0.76263	0.37526	0.6454	0.07
Mof_C 	C 	0.75041	0.43442	0.6734	-0.126
Mof_C 	C 	0.67048	0.45316	0.66465	0.049
Mof_C 	C 	0.6061	0.4096	0.6282	-0.123
Mof_C 	C 	0.6245	0.35	0.6019	0.082
Mof_C 	C 	0.26569	0.79058	0.6851	0.07
Mof_C 	C 	0.2799	0.8388	0.6552	-0.11
Mof_C 	C 	0.21347	0.81514	0.61695	0.054
Mof_C 	C 	0.13767	0.74194	0.6119	-0.102
Mof_C 	C 	0.12943	0.69526	0.643	0.06
Mof_C 	C 	0.22617	0.86534	0.58454	0.109
Mof_C 	C 	0.32249	0.96658	0.55376	0.085
Mof_C 	C 	0.16296	0.89992	0.5287	0.088
Mof_C 	C 	0.53564	0.12928	0.5204	0.073
Mof_C 	C 	0.44666	0.06672	0.5182	-0.119
Mof_C 	C 	0.41713	0.03206	0.55433	0.055
Mof_C 	C 	0.479	0.063	0.5926	-0.127
Mof_C 	C 	0.5682	0.1244	0.5926	0.085
Mof_C 	C 	0.91	0.8204	0.4698	0.069
Mof_C 	C 	0.9892	0.8274	0.4974	-0.115
Mof_C 	C 	0.07675	0.8911	0.49973	0.051
Mof_C 	C 	0.99928	0.93336	0.447	0.08
Mof_C 	C 	0.08212	0.94464	0.47397	-0.122
Mof_C 	C 	0.91675	0.7907	0.3397	0.073
Mof_C 	C 	0.94441	0.74422	0.3067	-0.116
Mof_C 	C 	0.87372	0.67484	0.28523	0.061
Mof_C 	C 	0.77722	0.65364	0.29636	-0.129
Mof_C 	C 	0.75665	0.7031	0.3303	0.072
Mof_C 	C 	0.90122	0.62344	0.25028	0.099
Mof_C 	C 	0.02038	0.59356	0.21528	0.107
Mof_C 	C 	0.85943	0.51946	0.19412	0.086
Mof_C 	C 	0.25921	0.56962	0.194	0.073
Mof_C 	C 	0.15939	0.55578	0.1902	-0.12
Mof_C 	C 	0.12609	0.60778	0.215	0.057
Mof_C 	C 	0.19514	0.67368	0.241	-0.117
Mof_C 	C 	0.29213	0.68306	0.2437	0.064
Mof_C 	C 	0.61263	0.37526	0.1454	0.07
Mof_C 	C 	0.68401	0.43442	0.1734	-0.126
Mof_C 	C 	0.78268	0.45316	0.16465	0.049
Mof_C 	C 	0.8035	0.4096	0.1282	-0.123
Mof_C 	C 	0.7255	0.35	0.1019	0.082
Mof_I 	I 	0.53713	0.74672	0.30305	-0.405
Mof_I 	I 	0.49892	0.5293	0.20429	-0.38
Mof_I 	I 	0.13603	0.96596	0.86429	-0.356
Mof_I 	I 	0.13089	0.77674	0.93896	-0.376
Mof_I 	I 	0.36497	0.21566	0.10483	-0.379
Mof_I 	I 	0.54778	0.30028	0.99186	-0.371
Mof_I 	I 	0.20959	0.74672	0.80305	-0.405
Mof_I 	I 	0.03038	0.5293	0.70429	-0.381
Mof_I 	I 	0.82993	0.96596	0.36429	-0.352
Mof_I 	I 	0.64585	0.77674	0.43896	-0.375
Mof_I 	I 	0.85069	0.21566	0.60483	-0.38
Mof_I 	I 	0.7525	0.30028	0.49186	-0.371
Mof_N 	N 	0.52655	0.7199	0.17955	-0.273
Mof_N 	N 	0.608	0.9216	0.0844	-0.135
Mof_N 	N 	0.70778	0.95696	0.0247	-0.148
Mof_N 	N 	0.70466	0.85192	0.057	-0.136
Mof_N 	N 	0.56167	0.15714	0.05804	-0.274
Mof_N 	N 	0.95673	0.87246	0.94508	-0.269
Mof_N 	N 	0.94575	0.7701	0.85147	-0.269
Mof_N 	N 	0.64427	0.64374	0.74568	-0.133
Mof_N 	N 	0.57699	0.53298	0.6876	-0.138
Mof_N 	N 	0.73092	0.56104	0.72652	-0.139
Mof_N 	N 	0.30725	0.6313	0.72084	-0.269
Mof_N 	N 	0.70065	0.3333	0.60923	-0.273
Mof_N 	N 	0.19335	0.7199	0.67955	-0.273
Mof_N 	N 	0.3136	0.9216	0.5844	-0.135
Mof_N 	N 	0.24918	0.95696	0.5247	-0.148
Mof_N 	N 	0.14726	0.85192	0.557	-0.136
Mof_N 	N 	0.59547	0.15714	0.55804	-0.274
Mof_N 	N 	0.91573	0.87246	0.44508	-0.27
Mof_N 	N 	0.82435	0.7701	0.35147	-0.269
Mof_N 	N 	0.99947	0.64374	0.24568	-0.133
Mof_N 	N 	0.95599	0.53298	0.1876	-0.138
Mof_N 	N 	0.83012	0.56104	0.22652	-0.14
Mof_N 	N 	0.32405	0.6313	0.22084	-0.269
Mof_N 	N 	0.63265	0.3333	0.10923	-0.273
Mof_Zn	Zn	0.81939	0.34516	0.27221	1.164
Mof_Zn	Zn	0.20423	0.15152	0.59988	1.165
Mof_Zn	Zn	0.27065	0.74902	0.43561	1.165
Mof_Zn	Zn	0.52577	0.34516	0.77221	1.164
Mof_Zn	Zn	0.94729	0.15152	0.09988	1.164
Mof_Zn	Zn	0.47837	0.74902	0.93561	1.165
Mof_H 	H 	0.6905	0.1918	0.2888	-0.016
Mof_H 	H 	0.6661	0.1122	0.3399	0.081
Mof_H 	H 	0.9091	0.2764	0.4132	0.082
Mof_H 	H 	0.9222	0.355	0.3614	-0.004
Mof_H 	H 	0.4453	0.8472	0.5049	-0.003
Mof_H 	H 	0.5948	0.9526	0.5087	0.079
Mof_H 	H 	0.5395	0.9578	0.3811	0.086
Mof_H 	H 	0.3883	0.8562	0.3811	-0.02
Mof_H 	H 	0.1505	0.2234	0.5314	-0.012
Mof_H 	H 	0.0169	0.2112	0.4855	0.08
Mof_H 	H 	0.9966	0.029	0.5706	-0.012
Mof_H 	H 	0.8584	0.011	0.5255	0.074
Mof_H 	H 	0.0346	0.161	0.6456	-0.008
Mof_H 	H 	0.9891	0.24	0.7008	0.09
Mof_H 	H 	0.2734	0.3932	0.7187	0.079
Mof_H 	H 	0.3092	0.3118	0.6612	-0.01
Mof_H 	H 	0.7185	0.4664	0.8232	-0.01
Mof_H 	H 	0.8853	0.489	0.8294	0.079
Mof_H 	H 	0.8242	0.2874	0.7431	0.083
Mof_H 	H 	0.6616	0.272	0.7374	-0.012
Mof_H 	H 	0.4542	0.637	0.8485	-0.002
Mof_H 	H 	0.3331	0.5374	0.8014	0.092
Mof_H 	H 	0.1304	0.58	0.8787	0.086
Mof_H 	H 	0.2598	0.6804	0.923	-0.003
Mof_H 	H 	0.5013	0.1918	0.7888	-0.016
Mof_H 	H 	0.4461	0.1122	0.8399	0.082
Mof_H 	H 	0.3673	0.2764	0.9132	0.082
Mof_H 	H 	0.4328	0.355	0.8614	-0.004
Mof_H 	H 	0.4019	0.8472	0.0049	-0.003
Mof_H 	H 	0.3578	0.9526	0.0087	0.079
Mof_H 	H 	0.4183	0.9578	0.8811	0.086
Mof_H 	H 	0.4679	0.8562	0.8811	-0.02
Mof_H 	H 	0.0729	0.2234	0.0314	-0.012
Mof_H 	H 	0.1943	0.2112	0.9855	0.08
Mof_H 	H 	0.0324	0.029	0.0706	-0.009
Mof_H 	H 	0.1526	0.011	0.0255	0.074
Mof_H 	H 	0.1264	0.161	0.1456	-0.008
Mof_H 	H 	0.2509	0.24	0.2008	0.091
Mof_H 	H 	0.1198	0.3932	0.2187	0.08
Mof_H 	H 	0.0026	0.3118	0.1612	-0.01
Mof_H 	H 	0.7479	0.4664	0.3232	-0.01
Mof_H 	H 	0.6037	0.489	0.3294	0.079
Mof_H 	H 	0.4632	0.2874	0.2431	0.083
Mof_H 	H 	0.6104	0.272	0.2374	-0.012
Mof_H 	H 	0.1828	0.637	0.3485	-0.002
Mof_H 	H 	0.2043	0.5374	0.3014	0.092
Mof_H 	H 	0.4496	0.58	0.3787	0.087
Mof_H 	H 	0.4206	0.6804	0.423	-0.003
Mof_C 	C 	0.73431	0.20942	0.3149	0.07
Mof_C 	C 	0.7201	0.1612	0.3448	-0.11
Mof_C 	C 	0.78653	0.18486	0.38305	0.054
Mof_C 	C 	0.86233	0.25806	0.3881	-0.102
Mof_C 	C 	0.87057	0.30474	0.357	0.06
Mof_C 	C 	0.77383	0.13466	0.41546	0.109
Mof_C 	C 	0.67751	0.03342	0.44624	0.085
Mof_C 	C 	0.83704	0.10008	0.4713	0.088
Mof_C 	C 	0.46436	0.87072	0.4796	0.073
Mof_C 	C 	0.55334	0.93328	0.4818	-0.119
Mof_C 	C 	0.58287	0.96794	0.44567	0.055
Mof_C 	C 	0.521	0.937	0.4074	-0.127
Mof_C 	C 	0.4318	0.8756	0.4074	0.085
Mof_C 	C 	0.09	0.1796	0.5302	0.069
Mof_C 	C 	0.0108	0.1726	0.5026	-0.115
Mof_C 	C 	0.92325	0.1089	0.50027	0.051
Mof_C 	C 	0.00072	0.06664	0.553	0.08
Mof_C 	C 	0.91788	0.05536	0.52603	-0.122
Mof_C 	C 	0.08325	0.2093	0.6603	0.073
Mof_C 	C 	0.05559	0.25578	0.6933	-0.116
Mof_C 	C 	0.12628	0.32516	0.71477	0.061
Mof_C 	C 	0.22278	0.34636	0.70364	-0.129
Mof_C 	C 	0.24335	0.2969	0.6697	0.072
Mof_C 	C 	0.09878	0.37656	0.74972	0.099
Mof_C 	C 	0.97962	0.40644	0.78472	0.107
Mof_C 	C 	0.14057	0.48054	0.80588	0.086
Mof_C 	C 	0.74079	0.43038	0.806	0.073
Mof_C 	C 	0.84061	0.44422	0.8098	-0.12
Mof_C 	C 	0.87391	0.39222	0.785	0.057
Mof_C 	C 	0.80486	0.32632	0.759	-0.117
Mof_C 	C 	0.70787	0.31694	0.7563	0.064
Mof_C 	C 	0.38737	0.62474	0.8546	0.07
Mof_C 	C 	0.31599	0.56558	0.8266	-0.126
Mof_C 	C 	0.21732	0.54684	0.83535	0.049
Mof_C 	C 	0.1965	0.5904	0.8718	-0.123
Mof_C 	C 	0.2745	0.65	0.8981	0.082
Mof_C 	C 	0.47511	0.20942	0.8149	0.07
Mof_C 	C 	0.4411	0.1612	0.8448	-0.11
Mof_C 	C 	0.39833	0.18486	0.88305	0.055
Mof_C 	C 	0.39573	0.25806	0.8881	-0.102
Mof_C 	C 	0.43417	0.30474	0.857	0.061
Mof_C 	C 	0.36083	0.13466	0.91546	0.109
Mof_C 	C 	0.35591	0.03342	0.94624	0.087
Mof_C 	C 	0.26304	0.10008	0.9713	0.089
Mof_C 	C 	0.40636	0.87072	0.9796	0.072
Mof_C 	C 	0.37994	0.93328	0.9818	-0.119
Mof_C 	C 	0.38507	0.96794	0.94567	0.053
Mof_C 	C 	0.416	0.937	0.9074	-0.126
Mof_C 	C 	0.4438	0.8756	0.9074	0.085
Mof_C 	C 	0.0896	0.1796	0.0302	0.069
Mof_C 	C 	0.1618	0.1726	0.0026	-0.115
Mof_C 	C 	0.18565	0.1089	0.00027	0.051
Mof_C 	C 	0.06592	0.06664	0.053	0.074
Mof_C 	C 	0.13748	0.05536	0.02603	-0.118
Mof_C 	C 	0.12605	0.2093	0.1603	0.073
Mof_C 	C 	0.20019	0.25578	0.1933	-0.118
Mof_C 	C 	0.19888	0.32516	0.21477	0.061
Mof_C 	C 	0.12358	0.34636	0.20364	-0.129
Mof_C 	C 	0.05355	0.2969	0.1697	0.073
Mof_C 	C 	0.27778	0.37656	0.24972	0.099
Mof_C 	C 	0.42682	0.40644	0.28472	0.107
Mof_C 	C 	0.33997	0.48054	0.30588	0.086
Mof_C 	C 	0.68959	0.43038	0.306	0.073
Mof_C 	C 	0.60361	0.44422	0.3098	-0.12
Mof_C 	C 	0.51831	0.39222	0.285	0.057
Mof_C 	C 	0.52146	0.32632	0.259	-0.117
Mof_C 	C 	0.60907	0.31694	0.2563	0.064
Mof_C 	C 	0.23737	0.62474	0.3546	0.07
Mof_C 	C 	0.24959	0.56558	0.3266	-0.126
Mof_C 	C 	0.32952	0.54684	0.33535	0.049
Mof_C 	C 	0.3939	0.5904	0.3718	-0.123
Mof_C 	C 	0.3755	0.65	0.3981	0.082
Mof_I 	I 	0.79041	0.25328	0.19695	-0.405
Mof_I 	I 	0.96962	0.4707	0.29571	-0.381
Mof_I 	I 	0.17007	0.03404	0.63571	-0.352
Mof_I 	I 	0.35415	0.22326	0.56104	-0.375
Mof_I 	I 	0.14931	0.78434	0.39517	-0.38
Mof_I 	I 	0.2475	0.69972	0.50814	-0.371
Mof_I 	I 	0.46287	0.25328	0.69695	-0.405
Mof_I 	I 	0.50108	0.4707	0.79571	-0.38
Mof_I 	I 	0.86397	0.03404	0.13571	-0.356
Mof_I 	I 	0.86911	0.22326	0.06104	-0.376
Mof_I 	I 	0.63503	0.78434	0.89517	-0.379
Mof_I 	I 	0.45222	0.69972	0.00814	-0.371
Mof_N 	N 	0.80665	0.2801	0.32045	-0.273
Mof_N 	N 	0.6864	0.0784	0.4156	-0.135
Mof_N 	N 	0.75082	0.04304	0.4753	-0.148
Mof_N 	N 	0.85274	0.14808	0.443	-0.136
Mof_N 	N 	0.40453	0.84286	0.44196	-0.274
Mof_N 	N 	0.08427	0.12754	0.55492	-0.27
Mof_N 	N 	0.17565	0.2299	0.64853	-0.269
Mof_N 	N 	0.00053	0.35626	0.75432	-0.133
Mof_N 	N 	0.04401	0.46702	0.8124	-0.138
Mof_N 	N 	0.16988	0.43896	0.77348	-0.14
Mof_N 	N 	0.67595	0.3687	0.77916	-0.269
Mof_N 	N 	0.36735	0.6667	0.89077	-0.273
Mof_N 	N 	0.47345	0.2801	0.82045	-0.273
Mof_N 	N 	0.392	0.0784	0.9156	-0.135
Mof_N 	N 	0.29222	0.04304	0.9753	-0.148
Mof_N 	N 	0.29534	0.14808	0.943	-0.136
Mof_N 	N 	0.43833	0.84286	0.94196	-0.274
Mof_N 	N 	0.04327	0.12754	0.05492	-0.269
Mof_N 	N 	0.05425	0.2299	0.14853	-0.269
Mof_N 	N 	0.35573	0.35626	0.25432	-0.133
Mof_N 	N 	0.42301	0.46702	0.3124	-0.138
Mof_N 	N 	0.26908	0.43896	0.27348	-0.139
Mof_N 	N 	0.69275	0.3687	0.27916	-0.269
Mof_N 	N 	0.29935	0.6667	0.39077	-0.273
_end
