data_functionalizedCrystal
_audit_creation_method	'EQeq! by Chris Wilmer'
_symmetry_space_group_name_H-M	'P1'
_symmetry_Int_Tables_number	1
_symmetry_cell_setting	triclinic
loop_
_symmetry_equiv_pos_as_xyz
  x,y,z
_cell_length_a	9.6323
_cell_length_b	16.676
_cell_length_c	21.182
_cell_angle_alpha	104.08
_cell_angle_beta	100.39
_cell_angle_gamma	97.03
loop_
_atom_site_label
_atom_site_type_symbol
_atom_site_fract_x
_atom_site_fract_y
_atom_site_fract_z
_atom_site_charge
Mof_Gd	Gd	0.77664	0.0135	0.49731	1.802
Mof_Cu	Cu	0.462	0.31722	0.09884	0.725
Mof_Cu	Cu	0.51374	0.44241	0.04037	0.699
Mof_Cu	Cu	0.31938	0.44455	0.12205	0.732
Mof_Cu	Cu	0.25496	0.32682	0.00169	0.731
Mof_I 	I 	0.58871	0.47754	0.17426	-0.603
Mof_I 	I 	0.48967	0.27962	0.97062	-0.611
Mof_I 	I 	0.19593	0.28844	0.11258	-0.597
Mof_I 	I 	0.2622	0.48978	0.99999	-0.718
Mof_O 	O 	0.8593	0.0836	0.42211	-0.465
Mof_O 	O 	0.0766	0.0509	0.4399	-0.524
Mof_O 	O 	0.9516	0.1245	0.57207	-0.485
Mof_O 	O 	0.1704	0.0914	0.58677	-0.499
Mof_O 	O 	0.6694	0.0432	0.59008	-0.5
Mof_O 	O 	0.4411	0.9843	0.57023	-0.523
Mof_N 	N 	0.5978	0.2534	0.1412	-0.261
Mof_N 	N 	0.792	0.4741	0.8316	-0.251
Mof_N 	N 	0.0773	0.2619	0.9324	-0.248
Mof_C 	C 	0.5618	0.1993	0.1749	0.112
Mof_H 	H 	0.4658	0.1862	0.1759	-0.023
Mof_C 	C 	0.6596	0.1616	0.2086	-0.197
Mof_H 	H 	0.6275	0.1232	0.2303	0.1
Mof_C 	C 	0.8039	0.1801	0.2103	0.151
Mof_C 	C 	0.8355	0.2335	0.173	-0.216
Mof_H 	H 	0.9301	0.2465	0.1697	0.126
Mof_C 	C 	0.7351	0.2683	0.1408	0.136
Mof_H 	H 	0.7647	0.3047	0.1169	-0.033
Mof_C 	C 	0.9092	0.143	0.2462	-0.084
Mof_C 	C 	0.8953	0.1262	0.3064	0.048
Mof_H 	H 	0.814	0.1367	0.3227	0.024
Mof_C 	C 	0.9984	0.0944	0.3424	-0.162
Mof_C 	C 	0.1206	0.0776	0.3179	0.065
Mof_H 	H 	0.191	0.0562	0.3418	0.009
Mof_C 	C 	0.1359	0.0926	0.2588	-0.116
Mof_H 	H 	0.2172	0.0818	0.2426	0.073
Mof_C 	C 	0.0308	0.124	0.2224	0.018
Mof_H 	H 	0.0417	0.1325	0.1816	0.035
Mof_C 	C 	0.9781	0.0747	0.4066	0.465
Mof_C 	C 	0.738	0.399	0.789	0.105
Mof_H 	H 	0.6388	0.3842	0.7757	-0.018
Mof_C 	C 	0.8192	0.3416	0.7631	-0.184
Mof_H 	H 	0.7749	0.2901	0.7336	0.096
Mof_C 	C 	0.9658	0.3615	0.7815	0.132
Mof_C 	C 	0.0222	0.44	0.8263	-0.179
Mof_H 	H 	0.121	0.4561	0.841	0.11
Mof_C 	C 	0.9347	0.4935	0.8488	0.107
Mof_H 	H 	0.9764	0.546	0.8775	-0.021
Mof_C 	C 	0.0623	0.3047	0.7569	-0.076
Mof_C 	C 	0.0247	0.2465	0.6959	0.059
Mof_H 	H 	0.934	0.2412	0.6696	0.016
Mof_C 	C 	0.1186	0.1945	0.6719	-0.171
Mof_C 	C 	0.2538	0.203	0.7111	0.075
Mof_H 	H 	0.3173	0.1693	0.6957	0.011
Mof_C 	C 	0.2961	0.2616	0.7735	-0.126
Mof_H 	H 	0.3875	0.2676	0.7995	0.077
Mof_C 	C 	0.1993	0.3106	0.7958	0.034
Mof_H 	H 	0.2259	0.3486	0.8379	0.007
Mof_C 	C 	0.076	0.1324	0.605	0.48
Mof_C 	C 	0.078	0.1932	0.8845	0.112
Mof_H 	H 	0.1653	0.1755	0.8821	-0.019
Mof_C 	C 	0.9601	0.1476	0.8391	-0.187
Mof_H 	H 	0.9684	0.1011	0.8062	0.098
Mof_C 	C 	0.8256	0.1705	0.8416	0.123
Mof_C 	C 	0.8239	0.2416	0.8917	-0.18
Mof_H 	H 	0.7379	0.2599	0.8964	0.112
Mof_C 	C 	0.951	0.2849	0.9344	0.104
Mof_H 	H 	0.9478	0.3334	0.9666	-0.013
Mof_C 	C 	0.6933	0.1227	0.7953	-0.062
Mof_C 	C 	0.6867	0.0947	0.7265	0.032
Mof_H 	H 	0.768	0.1069	0.7103	0.027
Mof_C 	C 	0.5625	0.0497	0.6825	-0.16
Mof_C 	C 	0.44	0.0302	0.7059	0.046
Mof_H 	H 	0.3557	0.0001	0.6765	0.021
Mof_C 	C 	0.446	0.0566	0.7743	-0.096
Mof_H 	H 	0.3657	0.0427	0.7907	0.066
Mof_C 	C 	0.5705	0.1033	0.818	-0.006
Mof_H 	H 	0.5717	0.1219	0.8632	0.047
Mof_C 	C 	0.557	0.0235	0.6089	0.466
Mof_Gd	Gd	0.22336	0.9865	0.50269	1.802
Mof_Cu	Cu	0.538	0.68278	0.90116	0.725
Mof_Cu	Cu	0.48626	0.55759	0.95963	0.699
Mof_Cu	Cu	0.68062	0.55545	0.87795	0.732
Mof_Cu	Cu	0.74504	0.67318	0.99831	0.731
Mof_I 	I 	0.41129	0.52246	0.82574	-0.603
Mof_I 	I 	0.51033	0.72038	0.02938	-0.611
Mof_I 	I 	0.80407	0.71156	0.88742	-0.597
Mof_I 	I 	0.7378	0.51022	1e-05	-0.718
Mof_O 	O 	0.1407	0.9164	0.57789	-0.465
Mof_O 	O 	0.9234	0.9491	0.5601	-0.524
Mof_O 	O 	0.0484	0.8755	0.42793	-0.485
Mof_O 	O 	0.8296	0.9086	0.41323	-0.499
Mof_O 	O 	0.3306	0.9568	0.40992	-0.5
Mof_O 	O 	0.5589	0.0157	0.42977	-0.523
Mof_N 	N 	0.4022	0.7466	0.8588	-0.261
Mof_N 	N 	0.208	0.5259	0.1684	-0.251
Mof_N 	N 	0.9227	0.7381	0.0676	-0.248
Mof_C 	C 	0.4382	0.8007	0.8251	0.112
Mof_H 	H 	0.5342	0.8138	0.8241	-0.023
Mof_C 	C 	0.3404	0.8384	0.7914	-0.197
Mof_H 	H 	0.3725	0.8768	0.7697	0.1
Mof_C 	C 	0.1961	0.8199	0.7897	0.151
Mof_C 	C 	0.1645	0.7665	0.827	-0.216
Mof_H 	H 	0.0699	0.7535	0.8303	0.126
Mof_C 	C 	0.2649	0.7317	0.8592	0.136
Mof_H 	H 	0.2353	0.6953	0.8831	-0.033
Mof_C 	C 	0.0908	0.857	0.7538	-0.084
Mof_C 	C 	0.1047	0.8738	0.6936	0.048
Mof_H 	H 	0.186	0.8633	0.6773	0.024
Mof_C 	C 	0.0016	0.9056	0.6576	-0.162
Mof_C 	C 	0.8794	0.9224	0.6821	0.065
Mof_H 	H 	0.809	0.9438	0.6582	0.009
Mof_C 	C 	0.8641	0.9074	0.7412	-0.116
Mof_H 	H 	0.7828	0.9182	0.7574	0.073
Mof_C 	C 	0.9692	0.876	0.7776	0.018
Mof_H 	H 	0.9583	0.8675	0.8184	0.035
Mof_C 	C 	0.0219	0.9253	0.5934	0.465
Mof_C 	C 	0.262	0.601	0.211	0.105
Mof_H 	H 	0.3612	0.6158	0.2243	-0.018
Mof_C 	C 	0.1808	0.6584	0.2369	-0.184
Mof_H 	H 	0.2251	0.7099	0.2664	0.096
Mof_C 	C 	0.0342	0.6385	0.2185	0.132
Mof_C 	C 	0.9778	0.56	0.1737	-0.179
Mof_H 	H 	0.879	0.5439	0.159	0.11
Mof_C 	C 	0.0653	0.5065	0.1512	0.107
Mof_H 	H 	0.0236	0.454	0.1225	-0.021
Mof_C 	C 	0.9377	0.6953	0.2431	-0.076
Mof_C 	C 	0.9753	0.7535	0.3041	0.059
Mof_H 	H 	0.066	0.7588	0.3304	0.016
Mof_C 	C 	0.8814	0.8055	0.3281	-0.171
Mof_C 	C 	0.7462	0.797	0.2889	0.075
Mof_H 	H 	0.6827	0.8307	0.3043	0.011
Mof_C 	C 	0.7039	0.7384	0.2265	-0.126
Mof_H 	H 	0.6125	0.7324	0.2005	0.077
Mof_C 	C 	0.8007	0.6894	0.2042	0.034
Mof_H 	H 	0.7741	0.6514	0.1621	0.007
Mof_C 	C 	0.924	0.8676	0.395	0.48
Mof_C 	C 	0.922	0.8068	0.1155	0.112
Mof_H 	H 	0.8347	0.8245	0.1179	-0.019
Mof_C 	C 	0.0399	0.8524	0.1609	-0.187
Mof_H 	H 	0.0316	0.8989	0.1938	0.098
Mof_C 	C 	0.1744	0.8295	0.1584	0.123
Mof_C 	C 	0.1761	0.7584	0.1083	-0.18
Mof_H 	H 	0.2621	0.7401	0.1036	0.112
Mof_C 	C 	0.049	0.7151	0.0656	0.104
Mof_H 	H 	0.0522	0.6666	0.0334	-0.013
Mof_C 	C 	0.3067	0.8773	0.2047	-0.062
Mof_C 	C 	0.3133	0.9053	0.2735	0.032
Mof_H 	H 	0.232	0.8931	0.2897	0.027
Mof_C 	C 	0.4375	0.9503	0.3175	-0.16
Mof_C 	C 	0.56	0.9698	0.2941	0.046
Mof_H 	H 	0.6443	0.9999	0.3235	0.021
Mof_C 	C 	0.554	0.9434	0.2257	-0.096
Mof_H 	H 	0.6343	0.9573	0.2093	0.066
Mof_C 	C 	0.4295	0.8967	0.182	-0.006
Mof_H 	H 	0.4283	0.8781	0.1368	0.047
Mof_C 	C 	0.443	0.9765	0.3911	0.466
_end
