data_functionalizedCrystal
_audit_creation_method	'EQeq! by Chris Wilmer'
_symmetry_space_group_name_H-M	'P1'
_symmetry_Int_Tables_number	1
_symmetry_cell_setting	triclinic
loop_
_symmetry_equiv_pos_as_xyz
  x,y,z
_cell_length_a	8.1685
_cell_length_b	23.616
_cell_length_c	8.8796
_cell_angle_alpha	90
_cell_angle_beta	110.9
_cell_angle_gamma	90
loop_
_atom_site_label
_atom_site_type_symbol
_atom_site_fract_x
_atom_site_fract_y
_atom_site_fract_z
_atom_site_charge
Mof_Cu	Cu	0.04667	0.8932	0.69103	0.836
Mof_O 	O 	0.1947	0.8298	0.745	-0.613
Mof_O 	O 	0.2608	0.7412	0.7294	-0.611
Mof_O 	O 	0.5037	0.7686	0.0035	-0.533
Mof_O 	O 	0.5587	0.6799	0.0257	-0.528
Mof_O 	O 	0.5245	0.6756	0.0867	-0.003
Mof_O 	O 	0.8359	0.9291	0.6297	-0.524
Mof_O 	O 	0.6167	0.9492	0.3962	-0.685
Mof_O 	O 	0.1948	0.9514	0.6032	-0.454
Mof_O 	O 	0.3267	0.9452	0.4141	-0.65
Mof_N 	N 	0.9742	0.8722	0.4319	-0.146
Mof_C 	C 	0.9198	0.8131	0.4055	0.013
Mof_C 	C 	0.017	0.7711	0.5145	-0.214
Mof_C 	C 	0.7789	0.7984	0.272	0.067
Mof_C 	C 	0.9699	0.7152	0.479	0.027
Mof_H 	H 	0.0341	0.687	0.5483	-0.162
Mof_C 	C 	0.7322	0.7416	0.2408	-0.225
Mof_C 	C 	0.8297	0.6999	0.343	-0.013
Mof_H 	H 	0.8013	0.6619	0.3205	-0.062
Mof_C 	C 	0.1684	0.7817	0.673	0.507
Mof_C 	C 	0.583	0.7253	0.0926	0.423
Mof_C 	C 	0.848	0.9161	0.3483	-0.219
Mof_H 	H 	0.907	0.9486	0.3248	0.045
Mof_H 	H 	0.764	0.9017	0.2482	-0.09
Mof_C 	C 	0.1157	0.8813	0.3773	-0.214
Mof_H 	H 	0.1885	0.8477	0.3945	-0.02
Mof_H 	H 	0.0722	0.8903	0.2633	-0.061
Mof_C 	C 	0.7577	0.9316	0.4667	0.399
Mof_C 	C 	0.2198	0.9306	0.4753	0.381
Mof_K 	K 	0.3965	0.63594	0.674	3.156
Mof_H 	H 	0.721	0.822	0.216	-0.214
Mof_Cu	Cu	0.95333	0.3932	0.80897	0.828
Mof_O 	O 	0.8053	0.3298	0.755	-0.617
Mof_O 	O 	0.7392	0.2412	0.7706	-0.613
Mof_O 	O 	0.4963	0.2686	0.4965	-0.523
Mof_O 	O 	0.4413	0.1799	0.4743	-0.509
Mof_O 	O 	0.4755	0.1756	0.4133	-0.011
Mof_O 	O 	0.1641	0.4291	0.8703	-0.509
Mof_O 	O 	0.3833	0.4492	0.1038	-0.694
Mof_O 	O 	0.8052	0.4514	0.8968	-0.455
Mof_O 	O 	0.6733	0.4452	0.0859	-0.662
Mof_N 	N 	0.0258	0.3722	0.0681	-0.143
Mof_C 	C 	0.0802	0.3131	0.0945	-0.008
Mof_C 	C 	0.983	0.2711	0.9855	-0.184
Mof_C 	C 	0.2211	0.2984	0.228	0.09
Mof_C 	C 	0.0301	0.2152	0.021	-0.015
Mof_H 	H 	0.9659	0.187	0.9517	-0.145
Mof_C 	C 	0.2678	0.2416	0.2592	-0.241
Mof_C 	C 	0.1703	0.1999	0.157	0.013
Mof_H 	H 	0.1987	0.1619	0.1795	-0.072
Mof_C 	C 	0.8316	0.2817	0.827	0.499
Mof_C 	C 	0.417	0.2253	0.4074	0.426
Mof_C 	C 	0.152	0.4161	0.1517	-0.209
Mof_H 	H 	0.093	0.4486	0.1752	0.037
Mof_H 	H 	0.236	0.4017	0.2518	-0.091
Mof_C 	C 	0.8843	0.3813	0.1227	-0.218
Mof_H 	H 	0.8115	0.3477	0.1055	-0.025
Mof_H 	H 	0.9278	0.3903	0.2367	-0.064
Mof_C 	C 	0.2423	0.4316	0.0333	0.367
Mof_C 	C 	0.7802	0.4306	0.0247	0.354
Mof_K 	K 	0.6035	0.13594	0.826	3.141
Mof_H 	H 	0.279	0.322	0.284	-0.222
Mof_Cu	Cu	0.95333	0.1068	0.30897	0.822
Mof_O 	O 	0.8053	0.1702	0.255	-0.638
Mof_O 	O 	0.7392	0.2588	0.2706	-0.629
Mof_O 	O 	0.4963	0.2314	0.9965	-0.506
Mof_O 	O 	0.4413	0.3201	0.9743	-0.484
Mof_O 	O 	0.4755	0.3244	0.9133	-0.011
Mof_O 	O 	0.1641	0.0709	0.3703	-0.539
Mof_O 	O 	0.3833	0.0508	0.6038	-0.706
Mof_O 	O 	0.8052	0.0486	0.3968	-0.492
Mof_O 	O 	0.6733	0.0548	0.5859	-0.673
Mof_N 	N 	0.0258	0.1278	0.5681	-0.146
Mof_C 	C 	0.0802	0.1869	0.5945	0.086
Mof_C 	C 	0.983	0.2289	0.4855	-0.304
Mof_C 	C 	0.2211	0.2016	0.728	-0.025
Mof_C 	C 	0.0301	0.2848	0.521	0.151
Mof_H 	H 	0.9659	0.313	0.4517	-0.213
Mof_C 	C 	0.2678	0.2584	0.7592	-0.152
Mof_C 	C 	0.1703	0.3001	0.657	-0.099
Mof_H 	H 	0.1987	0.3381	0.6795	-0.026
Mof_C 	C 	0.8316	0.2183	0.327	0.536
Mof_C 	C 	0.417	0.2747	0.9074	0.393
Mof_C 	C 	0.152	0.0839	0.6517	-0.212
Mof_H 	H 	0.093	0.0514	0.6752	0.034
Mof_H 	H 	0.236	0.0983	0.7518	-0.093
Mof_C 	C 	0.8843	0.1187	0.6227	-0.231
Mof_H 	H 	0.8115	0.1523	0.6055	-0.017
Mof_H 	H 	0.9278	0.1097	0.7367	-0.064
Mof_C 	C 	0.2423	0.0684	0.5333	0.393
Mof_C 	C 	0.7802	0.0694	0.5247	0.383
Mof_K 	K 	0.6035	0.36406	0.326	3.124
Mof_H 	H 	0.279	0.178	0.784	-0.168
Mof_Cu	Cu	0.04667	0.6068	0.19103	0.829
Mof_O 	O 	0.1947	0.6702	0.245	-0.634
Mof_O 	O 	0.2608	0.7588	0.2294	-0.627
Mof_O 	O 	0.5037	0.7314	0.5035	-0.518
Mof_O 	O 	0.5587	0.8201	0.5257	-0.507
Mof_O 	O 	0.5245	0.8244	0.5867	-0
Mof_O 	O 	0.8359	0.5709	0.1297	-0.552
Mof_O 	O 	0.6167	0.5508	0.8962	-0.699
Mof_O 	O 	0.1948	0.5486	0.1032	-0.493
Mof_O 	O 	0.3267	0.5548	0.9141	-0.664
Mof_N 	N 	0.9742	0.6278	0.9319	-0.152
Mof_C 	C 	0.9198	0.6869	0.9055	0.098
Mof_C 	C 	0.017	0.7289	0.0145	-0.326
Mof_C 	C 	0.7789	0.7016	0.772	-0.04
Mof_C 	C 	0.9699	0.7848	0.979	0.181
Mof_H 	H 	0.0341	0.813	0.0483	-0.226
Mof_C 	C 	0.7322	0.7584	0.7408	-0.143
Mof_C 	C 	0.8297	0.8001	0.843	-0.117
Mof_H 	H 	0.8013	0.8381	0.8205	-0.018
Mof_C 	C 	0.1684	0.7183	0.173	0.541
Mof_C 	C 	0.583	0.7747	0.5926	0.392
Mof_C 	C 	0.848	0.5839	0.8483	-0.221
Mof_H 	H 	0.907	0.5514	0.8248	0.038
Mof_H 	H 	0.764	0.5983	0.7482	-0.093
Mof_C 	C 	0.1157	0.6187	0.8773	-0.223
Mof_H 	H 	0.1885	0.6523	0.8945	-0.013
Mof_H 	H 	0.0722	0.6097	0.7633	-0.06
Mof_C 	C 	0.7577	0.5684	0.9667	0.421
Mof_C 	C 	0.2198	0.5694	0.9753	0.412
Mof_K 	K 	0.3965	0.86406	0.174	3.144
Mof_H 	H 	0.721	0.678	0.716	-0.164
Mof_Cu	Cu	0.5	1.97186e-33	0.5	0.898
Mof_Cu	Cu	0.5	0.5	-0	0.904
_end
