data_functionalizedCrystal
_audit_creation_method	'EQeq! by Chris Wilmer'
_symmetry_space_group_name_H-M	'P1'
_symmetry_Int_Tables_number	1
_symmetry_cell_setting	triclinic
loop_
_symmetry_equiv_pos_as_xyz
  x,y,z
_cell_length_a	40.845
_cell_length_b	42.367
_cell_length_c	34.547
_cell_angle_alpha	90
_cell_angle_beta	115.816
_cell_angle_gamma	90
loop_
_atom_site_label
_atom_site_type_symbol
_atom_site_fract_x
_atom_site_fract_y
_atom_site_fract_z
_atom_site_charge
Mof_Zn	Zn	0.00374	0.91164	0.13	1.191
Mof_Zn	Zn	0.0489	0.86507	0.11157	1.193
Mof_Zn	Zn	0.4774	0.13126	0.57873	1.194
Mof_Zn	Zn	0.51979	0.08404	0.55561	1.194
Mof_Zn	Zn	0.24734	0.82115	0.55412	1.208
Mof_Zn	Zn	0.25701	0.89548	0.56353	1.223
Mof_Zn	Zn	0.31938	0.84741	0.62691	1.181
Mof_Zn	Zn	0.24428	0.85505	0.63393	1.214
Mof_O 	O 	0.2655	0.8557	0.5942	-0.95
Mof_C 	C 	0.5862	0.0083	0.5185	-0.739
Mof_C 	C 	0.6187	0.0155	0.5162	0.476
Mof_H 	H 	0.6278	0.0365	0.5224	-0.115
Mof_C 	C 	0.6383	0.9934	0.5052	-0.438
Mof_H 	H 	0.6606	0.9992	0.5046	0.197
Mof_Br	Br	0.65013	0.93162	0.47872	-0.288
Mof_C 	C 	0.6252	0.963	0.4951	0.375
Mof_C 	C 	0.5931	0.9555	0.4964	-0.453
Mof_H 	H 	0.5838	0.9347	0.4893	0.189
Mof_C 	C 	0.574	0.9773	0.5077	0.481
Mof_H 	H 	0.5518	0.9711	0.5083	-0.133
Mof_B 	B 	0.5624	0.0326	0.5311	1.549
Mof_O 	O 	0.5899	0.0618	0.5547	-0.426
Mof_N 	N 	0.5733	0.0867	0.5613	-0.153
Mof_C 	C 	0.5963	0.112	0.575	0.033
Mof_H 	H 	0.6202	0.1091	0.5773	0.051
Mof_C 	C 	0.5875	0.1438	0.5868	-0.101
Mof_C 	C 	0.5565	0.1504	0.5933	0.226
Mof_C 	C 	0.552	0.182	0.6042	-0.111
Mof_C 	C 	0.5786	0.2048	0.6085	-0.003
Mof_H 	H 	0.5759	0.2257	0.6165	0.04
Mof_C 	C 	0.6086	0.1975	0.6013	-0.035
Mof_C 	C 	0.6131	0.1668	0.5907	-0.006
Mof_H 	H 	0.6338	0.1614	0.5862	0.037
Mof_C 	C 	0.5212	0.1932	0.6104	0.063
Mof_H 	H 	0.5212	0.2148	0.6176	0.048
Mof_N 	N 	0.4943	0.1768	0.6071	-0.15
Mof_O 	O 	0.4698	0.1939	0.6164	-0.548
Mof_B 	B 	0.4331	0.1805	0.6022	1.666
Mof_O 	O 	0.5341	0.0444	0.4907	-0.541
Mof_N 	N 	0.5107	0.0677	0.4929	-0.15
Mof_C 	C 	0.4859	0.0759	0.4567	0.054
Mof_H 	H 	0.487	0.0664	0.4324	0.046
Mof_C 	C 	0.4561	0.0976	0.4472	-0.103
Mof_C 	C 	0.45	0.1142	0.4798	0.21
Mof_C 	C 	0.4193	0.135	0.4663	-0.097
Mof_C 	C 	0.3959	0.1382	0.4221	-0.009
Mof_H 	H 	0.3753	0.1517	0.4134	0.047
Mof_C 	C 	0.4021	0.122	0.3911	-0.032
Mof_C 	C 	0.4322	0.1021	0.4036	-0.007
Mof_H 	H 	0.4367	0.0914	0.3822	0.036
Mof_C 	C 	0.411	0.1541	0.4957	0.056
Mof_H 	H 	0.3894	0.1664	0.4835	0.065
Mof_N 	N 	0.4297	0.1562	0.5362	-0.151
Mof_O 	O 	0.4144	0.1772	0.5556	-0.558
Mof_O 	O 	0.5516	0.019	0.5606	-0.584
Mof_N 	N 	0.5281	0.0357	0.5725	-0.146
Mof_C 	C 	0.5099	0.0183	0.5861	0.047
Mof_H 	H 	0.5141	0.9962	0.5866	0.057
Mof_C 	C 	0.4835	0.0286	0.6009	-0.094
Mof_C 	C 	0.4762	0.0613	0.6056	0.194
Mof_C 	C 	0.4487	0.0678	0.6197	-0.094
Mof_C 	C 	0.4285	0.0431	0.6263	-0.006
Mof_H 	H 	0.4103	0.048	0.6355	0.045
Mof_C 	C 	0.4348	0.0118	0.6195	-0.031
Mof_C 	C 	0.4628	0.0049	0.6083	-0.01
Mof_H 	H 	0.468	0.9834	0.6054	0.043
Mof_C 	C 	0.4389	0.0993	0.6268	0.06
Mof_H 	H 	0.4227	0.1009	0.6398	0.055
Mof_N 	N 	0.4496	0.125	0.6175	-0.155
Mof_O 	O 	0.4337	0.1522	0.6264	-0.557
Mof_C 	C 	0.4112	0.2065	0.6148	-0.788
Mof_C 	C 	0.4131	0.2094	0.6561	0.521
Mof_H 	H 	0.428	0.195	0.6776	-0.125
Mof_C 	C 	0.3942	0.2321	0.6669	-0.474
Mof_H 	H 	0.3958	0.2326	0.6952	0.213
Mof_Br	Br	0.345	0.28409	0.6501	-0.265
Mof_C 	C 	0.3734	0.2539	0.6372	0.403
Mof_C 	C 	0.3714	0.2529	0.5965	-0.473
Mof_H 	H 	0.3579	0.2684	0.5758	0.22
Mof_C 	C 	0.3895	0.2292	0.586	0.525
Mof_H 	H 	0.3869	0.2283	0.5573	-0.13
Mof_O 	O 	0.5322	0.1288	0.5877	-0.517
Mof_C 	C 	0.6341	0.2225	0.6013	0.082
Mof_C 	C 	0.6444	0.2242	0.5679	-0.129
Mof_H 	H 	0.6364	0.2085	0.5461	0.077
Mof_C 	C 	0.6664	0.2486	0.5663	0.06
Mof_H 	H 	0.6724	0.25	0.5427	0.028
Mof_C 	C 	0.6797	0.2712	0.5988	-0.138
Mof_C 	C 	0.6703	0.2687	0.6329	0.064
Mof_H 	H 	0.6799	0.2834	0.6559	0.03
Mof_C 	C 	0.6474	0.2452	0.6337	-0.13
Mof_H 	H 	0.6405	0.2445	0.6567	0.083
Mof_C 	C 	0.703	0.2981	0.5967	0.406
Mof_O 	O 	0.7104	0.2985	0.5648	-0.513
Mof_O 	O 	0.4719	0.11	0.521	-0.535
Mof_O 	O 	0.7138	0.3172	0.6269	-0.502
Mof_C 	C 	0.3783	0.1262	0.3444	0.084
Mof_C 	C 	0.3917	0.1231	0.3137	-0.133
Mof_H 	H 	0.4165	0.1177	0.3228	0.075
Mof_C 	C 	0.3697	0.1277	0.2704	0.065
Mof_H 	H 	0.3797	0.1263	0.2503	0.013
Mof_C 	C 	0.3327	0.1346	0.2562	-0.149
Mof_C 	C 	0.3191	0.1373	0.2864	0.069
Mof_H 	H 	0.294	0.1416	0.2773	0.03
Mof_C 	C 	0.3417	0.1337	0.3301	-0.131
Mof_H 	H 	0.3321	0.1365	0.3505	0.089
Mof_C 	C 	0.3083	0.1375	0.2087	0.404
Mof_O 	O 	0.4949	0.0843	0.5988	-0.504
Mof_O 	O 	0.3227	0.1334	0.1831	-0.514
Mof_O 	O 	0.2753	0.1425	0.1948	-0.5
Mof_C 	C 	0.4096	0.9865	0.6196	0.089
Mof_C 	C 	0.3728	0.9933	0.6048	-0.138
Mof_H 	H 	0.3645	0.0144	0.598	0.094
Mof_C 	C 	0.3484	0.9693	0.6001	0.068
Mof_H 	H 	0.3233	0.9742	0.5892	0.028
Mof_C 	C 	0.3599	0.9382	0.611	-0.138
Mof_C 	C 	0.3972	0.9318	0.6282	0.066
Mof_H 	H 	0.406	0.911	0.637	0.019
Mof_C 	C 	0.4214	0.956	0.6323	-0.135
Mof_H 	H 	0.4467	0.9516	0.6441	0.078
Mof_C 	C 	0.332	0.9123	0.6024	0.414
Mof_O 	O 	0.3445	0.8857	0.6182	-0.488
Mof_O 	O 	0.2991	0.9195	0.5809	-0.523
Mof_C 	C 	0.9303	0.9855	0.1585	-0.749
Mof_C 	C 	0.9448	0.0107	0.1869	0.499
Mof_H 	H 	0.9706	0.0123	0.202	-0.121
Mof_C 	C 	0.924	0.0333	0.1941	-0.468
Mof_H 	H 	0.9352	0.0494	0.2148	0.212
Mof_Br	Br	0.85755	0.06425	0.179	-0.276
Mof_C 	C 	0.8868	0.0323	0.1714	0.394
Mof_C 	C 	0.8711	0.0087	0.1423	-0.463
Mof_H 	H 	0.8454	0.008	0.1262	0.206
Mof_C 	C 	0.8924	0.9857	0.1362	0.484
Mof_H 	H 	0.8808	0.9694	0.116	-0.121
Mof_B 	B 	0.9545	0.9586	0.1514	1.524
Mof_O 	O 	0.9712	0.9768	0.1213	-0.404
Mof_N 	N 	0.9978	0.9607	0.1171	-0.158
Mof_C 	C 	0.0194	0.979	0.1065	0.034
Mof_H 	H 	0.0135	0.0008	0.102	0.051
Mof_C 	C 	0.052	0.9682	0.101	-0.102
Mof_C 	C 	0.0589	0.9361	0.0954	0.218
Mof_C 	C 	0.0899	0.9297	0.0879	-0.109
Mof_C 	C 	0.1121	0.955	0.0876	-0.001
Mof_H 	H 	0.1328	0.9503	0.0828	0.037
Mof_C 	C 	0.1058	0.9864	0.094	-0.037
Mof_C 	C 	0.075	0.9921	0.1001	-0.003
Mof_H 	H 	0.0693	0.0133	0.1039	0.037
Mof_C 	C 	0.1006	0.8983	0.0821	0.056
Mof_H 	H 	0.1208	0.8969	0.0754	0.052
Mof_N 	N 	0.0865	0.8723	0.0848	-0.152
Mof_O 	O 	0.1052	0.8456	0.0801	-0.541
Mof_B 	B 	0.096	0.8146	0.0934	1.726
Mof_O 	O 	0.9852	0.9517	0.1921	-0.544
Mof_N 	N 	0.0098	0.9289	0.1924	-0.144
Mof_C 	C 	0.0344	0.9224	0.2297	0.045
Mof_H 	H 	0.0336	0.9336	0.2531	0.061
Mof_C 	C 	0.0637	0.8995	0.2401	-0.106
Mof_C 	C 	0.0687	0.8798	0.2093	0.22
Mof_C 	C 	0.0991	0.8585	0.2244	-0.11
Mof_C 	C 	0.1219	0.857	0.2687	-0.008
Mof_H 	H 	0.1414	0.8423	0.2787	0.034
Mof_C 	C 	0.117	0.8761	0.2984	-0.034
Mof_C 	C 	0.0882	0.8972	0.2838	-0.01
Mof_H 	H 	0.0849	0.9104	0.304	0.04
Mof_C 	C 	0.1083	0.8381	0.1968	0.053
Mof_H 	H 	0.1283	0.8243	0.2107	0.047
Mof_N 	N 	0.0923	0.8369	0.1561	-0.138
Mof_O 	O 	0.1077	0.8157	0.1386	-0.607
Mof_O 	O 	0.9316	0.9341	0.1265	-0.578
Mof_N 	N 	0.9472	0.9088	0.1148	-0.15
Mof_C 	C 	0.9259	0.8855	0.1001	0.053
Mof_H 	H 	0.9021	0.8878	0.0983	0.047
Mof_C 	C 	0.934	0.8556	0.0858	-0.109
Mof_C 	C 	0.9671	0.8489	0.0825	0.217
Mof_C 	C 	0.9713	0.8177	0.0697	-0.11
Mof_C 	C 	0.9449	0.7945	0.0626	-0.005
Mof_H 	H 	0.9488	0.7737	0.055	0.034
Mof_C 	C 	0.913	0.801	0.0665	-0.039
Mof_C 	C 	0.9082	0.8313	0.0777	-0.008
Mof_H 	H 	0.8864	0.8361	0.0802	0.037
Mof_C 	C 	0.0033	0.807	0.065	0.055
Mof_H 	H 	0.0025	0.7867	0.0532	0.046
Mof_N 	N 	0.0324	0.823	0.0757	-0.141
Mof_O 	O 	0.058	0.8066	0.0689	-0.592
Mof_C 	C 	0.1202	0.7883	0.085	-0.82
Mof_C 	C 	0.1514	0.7749	0.1169	0.53
Mof_H 	H 	0.1601	0.7833	0.1452	-0.128
Mof_C 	C 	0.11	0.7752	0.0443	0.533
Mof_H 	H 	0.089	0.7835	0.021	-0.136
Mof_C 	C 	0.1706	0.7501	0.11	-0.483
Mof_H 	H 	0.1912	0.7413	0.1332	0.215
Mof_C 	C 	0.1286	0.7509	0.0361	-0.49
Mof_H 	H 	0.1204	0.7429	0.0078	0.224
Mof_Br	Br	0.18548	0.706	0.057	-0.27
Mof_C 	C 	0.1591	0.7385	0.0691	0.403
Mof_O 	O 	0.0383	0.9134	0.0977	-0.52
Mof_C 	C 	0.1309	0.012	0.0956	0.085
Mof_C 	C 	0.1322	0.0407	0.1158	-0.128
Mof_H 	H 	0.1157	0.0444	0.128	0.081
Mof_C 	C 	0.1567	0.064	0.1188	0.064
Mof_H 	H 	0.1569	0.0833	0.1329	0.03
Mof_C 	C 	0.1811	0.0596	0.1011	-0.133
Mof_C 	C 	0.1804	0.0308	0.0814	0.063
Mof_H 	H 	0.1972	0.0271	0.0697	0.03
Mof_C 	C 	0.1558	0.0076	0.0785	-0.127
Mof_H 	H 	0.1558	0.9882	0.0646	0.08
Mof_C 	C 	0.2072	0.0848	0.102	0.396
Mof_O 	O 	0.2092	0.1096	0.1223	-0.482
Mof_O 	O 	0.0456	0.8805	0.1689	-0.533
Mof_O 	O 	0.2266	0.0783	0.0824	-0.482
Mof_C 	C 	0.1424	0.8744	0.3448	0.073
Mof_C 	C 	0.1523	0.9009	0.3714	-0.117
Mof_H 	H 	0.1429	0.921	0.3595	0.079
Mof_C 	C 	0.1757	0.8986	0.4147	0.052
Mof_H 	H 	0.1825	0.917	0.4321	0.031
Mof_C 	C 	0.1892	0.869	0.4328	-0.127
Mof_C 	C 	0.1797	0.8424	0.4061	0.047
Mof_H 	H 	0.1892	0.8224	0.4179	0.027
Mof_C 	C 	0.1568	0.8451	0.3628	-0.121
Mof_H 	H 	0.1508	0.8268	0.345	0.068
Mof_C 	C 	0.2131	0.865	0.4804	0.388
Mof_O 	O 	0.9921	0.8703	0.0908	-0.516
Mof_O 	O 	0.2264	0.8899	0.5027	-0.497
Mof_O 	O 	0.2208	0.8374	0.4946	-0.491
Mof_C 	C 	0.8863	0.7754	0.061	0.08
Mof_C 	C 	0.8983	0.7451	0.0772	-0.137
Mof_H 	H 	0.9234	0.7402	0.089	0.074
Mof_C 	C 	0.8737	0.7224	0.0762	0.06
Mof_H 	H 	0.8823	0.702	0.0872	0.011
Mof_C 	C 	0.8368	0.7287	0.0596	-0.148
Mof_C 	C 	0.8244	0.7584	0.042	0.062
Mof_H 	H 	0.7991	0.7631	0.0298	0.028
Mof_C 	C 	0.8488	0.781	0.0423	-0.133
Mof_H 	H 	0.8399	0.8009	0.0295	0.083
Mof_C 	C 	0.8101	0.7042	0.0603	0.39
Mof_O 	O 	0.7775	0.7111	0.0453	-0.495
Mof_O 	O 	0.823	0.6781	0.0765	-0.52
Mof_Zn	Zn	0.50374	0.41164	0.13	1.19
Mof_Zn	Zn	0.5489	0.36507	0.11157	1.192
Mof_Zn	Zn	0.9774	0.63126	0.57873	1.193
Mof_Zn	Zn	0.01979	0.58404	0.55561	1.193
Mof_Zn	Zn	0.74734	0.32115	0.55412	1.207
Mof_Zn	Zn	0.75701	0.39548	0.56353	1.222
Mof_Zn	Zn	0.81938	0.34741	0.62691	1.18
Mof_Zn	Zn	0.74428	0.35505	0.63393	1.213
Mof_O 	O 	0.7655	0.3557	0.5942	-0.951
Mof_C 	C 	0.0862	0.5083	0.5185	-0.74
Mof_C 	C 	0.1187	0.5155	0.5162	0.475
Mof_H 	H 	0.1278	0.5365	0.5224	-0.116
Mof_C 	C 	0.1383	0.4934	0.5052	-0.439
Mof_H 	H 	0.1606	0.4992	0.5046	0.196
Mof_Br	Br	0.15013	0.43162	0.47872	-0.289
Mof_C 	C 	0.1252	0.463	0.4951	0.374
Mof_C 	C 	0.0931	0.4555	0.4964	-0.454
Mof_H 	H 	0.0838	0.4347	0.4893	0.188
Mof_C 	C 	0.074	0.4773	0.5077	0.48
Mof_H 	H 	0.0518	0.4711	0.5083	-0.134
Mof_B 	B 	0.0624	0.5326	0.5311	1.548
Mof_O 	O 	0.0899	0.5618	0.5547	-0.427
Mof_N 	N 	0.0733	0.5867	0.5613	-0.154
Mof_C 	C 	0.0963	0.612	0.575	0.032
Mof_H 	H 	0.1202	0.6091	0.5773	0.05
Mof_C 	C 	0.0875	0.6438	0.5868	-0.102
Mof_C 	C 	0.0565	0.6504	0.5933	0.225
Mof_C 	C 	0.052	0.682	0.6042	-0.112
Mof_C 	C 	0.0786	0.7048	0.6085	-0.004
Mof_H 	H 	0.0759	0.7257	0.6165	0.039
Mof_C 	C 	0.1086	0.6975	0.6013	-0.036
Mof_C 	C 	0.1131	0.6668	0.5907	-0.007
Mof_H 	H 	0.1338	0.6614	0.5862	0.037
Mof_C 	C 	0.0212	0.6932	0.6104	0.063
Mof_H 	H 	0.0212	0.7148	0.6176	0.048
Mof_N 	N 	0.9943	0.6768	0.6071	-0.15
Mof_O 	O 	0.9698	0.6939	0.6164	-0.548
Mof_B 	B 	0.9331	0.6805	0.6022	1.666
Mof_O 	O 	0.0341	0.5444	0.4907	-0.541
Mof_N 	N 	0.0107	0.5677	0.4929	-0.15
Mof_C 	C 	0.9859	0.5759	0.4567	0.054
Mof_H 	H 	0.987	0.5664	0.4324	0.046
Mof_C 	C 	0.9561	0.5976	0.4472	-0.103
Mof_C 	C 	0.95	0.6142	0.4798	0.21
Mof_C 	C 	0.9193	0.635	0.4663	-0.097
Mof_C 	C 	0.8959	0.6382	0.4221	-0.009
Mof_H 	H 	0.8753	0.6517	0.4134	0.047
Mof_C 	C 	0.9021	0.622	0.3911	-0.032
Mof_C 	C 	0.9322	0.6021	0.4036	-0.007
Mof_H 	H 	0.9367	0.5914	0.3822	0.036
Mof_C 	C 	0.911	0.6541	0.4957	0.056
Mof_H 	H 	0.8894	0.6664	0.4835	0.065
Mof_N 	N 	0.9297	0.6562	0.5362	-0.151
Mof_O 	O 	0.9144	0.6772	0.5556	-0.558
Mof_O 	O 	0.0516	0.519	0.5606	-0.584
Mof_N 	N 	0.0281	0.5357	0.5725	-0.146
Mof_C 	C 	0.0099	0.5183	0.5861	0.048
Mof_H 	H 	0.0141	0.4962	0.5866	0.057
Mof_C 	C 	0.9835	0.5286	0.6009	-0.094
Mof_C 	C 	0.9762	0.5613	0.6056	0.194
Mof_C 	C 	0.9487	0.5678	0.6197	-0.094
Mof_C 	C 	0.9285	0.5431	0.6263	-0.006
Mof_H 	H 	0.9103	0.548	0.6355	0.045
Mof_C 	C 	0.9348	0.5118	0.6195	-0.031
Mof_C 	C 	0.9628	0.5049	0.6083	-0.01
Mof_H 	H 	0.968	0.4834	0.6054	0.043
Mof_C 	C 	0.9389	0.5993	0.6268	0.06
Mof_H 	H 	0.9227	0.6009	0.6398	0.055
Mof_N 	N 	0.9496	0.625	0.6175	-0.155
Mof_O 	O 	0.9337	0.6522	0.6264	-0.557
Mof_C 	C 	0.9112	0.7065	0.6148	-0.788
Mof_C 	C 	0.9131	0.7094	0.6561	0.521
Mof_H 	H 	0.928	0.695	0.6776	-0.125
Mof_C 	C 	0.8942	0.7321	0.6669	-0.474
Mof_H 	H 	0.8958	0.7326	0.6952	0.213
Mof_Br	Br	0.845	0.78409	0.6501	-0.265
Mof_C 	C 	0.8734	0.7539	0.6372	0.403
Mof_C 	C 	0.8714	0.7529	0.5965	-0.473
Mof_H 	H 	0.8579	0.7684	0.5758	0.22
Mof_C 	C 	0.8895	0.7292	0.586	0.525
Mof_H 	H 	0.8869	0.7283	0.5573	-0.13
Mof_O 	O 	0.0322	0.6288	0.5877	-0.517
Mof_C 	C 	0.1341	0.7225	0.6013	0.082
Mof_C 	C 	0.1444	0.7242	0.5679	-0.129
Mof_H 	H 	0.1364	0.7085	0.5461	0.077
Mof_C 	C 	0.1664	0.7486	0.5663	0.06
Mof_H 	H 	0.1724	0.75	0.5427	0.028
Mof_C 	C 	0.1797	0.7712	0.5988	-0.138
Mof_C 	C 	0.1703	0.7687	0.6329	0.064
Mof_H 	H 	0.1799	0.7834	0.6559	0.03
Mof_C 	C 	0.1474	0.7452	0.6337	-0.13
Mof_H 	H 	0.1405	0.7445	0.6567	0.083
Mof_C 	C 	0.203	0.7981	0.5967	0.406
Mof_O 	O 	0.2104	0.7985	0.5648	-0.513
Mof_O 	O 	0.9719	0.61	0.521	-0.535
Mof_O 	O 	0.2138	0.8172	0.6269	-0.502
Mof_C 	C 	0.8783	0.6262	0.3444	0.084
Mof_C 	C 	0.8917	0.6231	0.3137	-0.133
Mof_H 	H 	0.9165	0.6177	0.3228	0.075
Mof_C 	C 	0.8697	0.6277	0.2704	0.065
Mof_H 	H 	0.8797	0.6263	0.2503	0.013
Mof_C 	C 	0.8327	0.6346	0.2562	-0.149
Mof_C 	C 	0.8191	0.6373	0.2864	0.069
Mof_H 	H 	0.794	0.6416	0.2773	0.03
Mof_C 	C 	0.8417	0.6337	0.3301	-0.131
Mof_H 	H 	0.8321	0.6365	0.3505	0.089
Mof_C 	C 	0.8083	0.6375	0.2087	0.404
Mof_O 	O 	0.9949	0.5843	0.5988	-0.504
Mof_O 	O 	0.8227	0.6334	0.1831	-0.514
Mof_O 	O 	0.7753	0.6425	0.1948	-0.5
Mof_C 	C 	0.9096	0.4865	0.6196	0.089
Mof_C 	C 	0.8728	0.4933	0.6048	-0.138
Mof_H 	H 	0.8645	0.5144	0.598	0.094
Mof_C 	C 	0.8484	0.4693	0.6001	0.068
Mof_H 	H 	0.8233	0.4742	0.5892	0.028
Mof_C 	C 	0.8599	0.4382	0.611	-0.138
Mof_C 	C 	0.8972	0.4318	0.6282	0.066
Mof_H 	H 	0.906	0.411	0.637	0.019
Mof_C 	C 	0.9214	0.456	0.6323	-0.135
Mof_H 	H 	0.9467	0.4516	0.6441	0.078
Mof_C 	C 	0.832	0.4123	0.6024	0.414
Mof_O 	O 	0.8445	0.3857	0.6182	-0.488
Mof_O 	O 	0.7991	0.4195	0.5809	-0.523
Mof_C 	C 	0.4303	0.4855	0.1585	-0.749
Mof_C 	C 	0.4448	0.5107	0.1869	0.499
Mof_H 	H 	0.4706	0.5123	0.202	-0.121
Mof_C 	C 	0.424	0.5333	0.1941	-0.468
Mof_H 	H 	0.4352	0.5494	0.2148	0.212
Mof_Br	Br	0.35755	0.56425	0.179	-0.276
Mof_C 	C 	0.3868	0.5323	0.1714	0.394
Mof_C 	C 	0.3711	0.5087	0.1423	-0.463
Mof_H 	H 	0.3454	0.508	0.1262	0.206
Mof_C 	C 	0.3924	0.4857	0.1362	0.484
Mof_H 	H 	0.3808	0.4694	0.116	-0.121
Mof_B 	B 	0.4545	0.4586	0.1514	1.524
Mof_O 	O 	0.4712	0.4768	0.1213	-0.404
Mof_N 	N 	0.4978	0.4607	0.1171	-0.159
Mof_C 	C 	0.5194	0.479	0.1065	0.035
Mof_H 	H 	0.5135	0.5008	0.102	0.051
Mof_C 	C 	0.552	0.4682	0.101	-0.102
Mof_C 	C 	0.5589	0.4361	0.0954	0.218
Mof_C 	C 	0.5899	0.4297	0.0879	-0.109
Mof_C 	C 	0.6121	0.455	0.0876	-0.001
Mof_H 	H 	0.6328	0.4503	0.0828	0.037
Mof_C 	C 	0.6058	0.4864	0.094	-0.037
Mof_C 	C 	0.575	0.4921	0.1001	-0.003
Mof_H 	H 	0.5693	0.5133	0.1039	0.037
Mof_C 	C 	0.6006	0.3983	0.0821	0.056
Mof_H 	H 	0.6208	0.3969	0.0754	0.052
Mof_N 	N 	0.5865	0.3723	0.0848	-0.152
Mof_O 	O 	0.6052	0.3456	0.0801	-0.541
Mof_B 	B 	0.596	0.3146	0.0934	1.726
Mof_O 	O 	0.4852	0.4517	0.1921	-0.545
Mof_N 	N 	0.5098	0.4289	0.1924	-0.144
Mof_C 	C 	0.5344	0.4224	0.2297	0.045
Mof_H 	H 	0.5336	0.4336	0.2531	0.061
Mof_C 	C 	0.5637	0.3995	0.2401	-0.106
Mof_C 	C 	0.5687	0.3798	0.2093	0.22
Mof_C 	C 	0.5991	0.3585	0.2244	-0.11
Mof_C 	C 	0.6219	0.357	0.2687	-0.008
Mof_H 	H 	0.6414	0.3423	0.2787	0.034
Mof_C 	C 	0.617	0.3761	0.2984	-0.034
Mof_C 	C 	0.5882	0.3972	0.2838	-0.01
Mof_H 	H 	0.5849	0.4104	0.304	0.04
Mof_C 	C 	0.6083	0.3381	0.1968	0.053
Mof_H 	H 	0.6283	0.3243	0.2107	0.047
Mof_N 	N 	0.5923	0.3369	0.1561	-0.138
Mof_O 	O 	0.6077	0.3157	0.1386	-0.607
Mof_O 	O 	0.4316	0.4341	0.1265	-0.578
Mof_N 	N 	0.4472	0.4088	0.1148	-0.15
Mof_C 	C 	0.4259	0.3855	0.1001	0.053
Mof_H 	H 	0.4021	0.3878	0.0983	0.047
Mof_C 	C 	0.434	0.3556	0.0858	-0.109
Mof_C 	C 	0.4671	0.3489	0.0825	0.217
Mof_C 	C 	0.4713	0.3177	0.0697	-0.111
Mof_C 	C 	0.4449	0.2945	0.0626	-0.004
Mof_H 	H 	0.4488	0.2737	0.055	0.033
Mof_C 	C 	0.413	0.301	0.0665	-0.039
Mof_C 	C 	0.4082	0.3313	0.0777	-0.007
Mof_H 	H 	0.3864	0.3361	0.0802	0.037
Mof_C 	C 	0.5033	0.307	0.065	0.056
Mof_H 	H 	0.5025	0.2867	0.0532	0.046
Mof_N 	N 	0.5324	0.323	0.0757	-0.141
Mof_O 	O 	0.558	0.3066	0.0689	-0.592
Mof_C 	C 	0.6202	0.2883	0.085	-0.82
Mof_C 	C 	0.6514	0.2749	0.1169	0.53
Mof_H 	H 	0.6601	0.2833	0.1452	-0.128
Mof_C 	C 	0.61	0.2752	0.0443	0.533
Mof_H 	H 	0.589	0.2835	0.021	-0.136
Mof_C 	C 	0.6706	0.2501	0.11	-0.483
Mof_H 	H 	0.6912	0.2413	0.1332	0.215
Mof_C 	C 	0.6286	0.2509	0.0361	-0.49
Mof_H 	H 	0.6204	0.2429	0.0078	0.225
Mof_Br	Br	0.68548	0.206	0.057	-0.27
Mof_C 	C 	0.6591	0.2385	0.0691	0.404
Mof_O 	O 	0.5383	0.4134	0.0977	-0.52
Mof_C 	C 	0.6309	0.512	0.0956	0.085
Mof_C 	C 	0.6322	0.5407	0.1158	-0.128
Mof_H 	H 	0.6157	0.5444	0.128	0.081
Mof_C 	C 	0.6567	0.564	0.1188	0.064
Mof_H 	H 	0.6569	0.5833	0.1329	0.03
Mof_C 	C 	0.6811	0.5596	0.1011	-0.133
Mof_C 	C 	0.6804	0.5308	0.0814	0.063
Mof_H 	H 	0.6972	0.5271	0.0697	0.03
Mof_C 	C 	0.6558	0.5076	0.0785	-0.127
Mof_H 	H 	0.6558	0.4882	0.0646	0.08
Mof_C 	C 	0.7072	0.5848	0.102	0.396
Mof_O 	O 	0.7092	0.6096	0.1223	-0.482
Mof_O 	O 	0.5456	0.3805	0.1689	-0.533
Mof_O 	O 	0.7266	0.5783	0.0824	-0.482
Mof_C 	C 	0.6424	0.3744	0.3448	0.073
Mof_C 	C 	0.6523	0.4009	0.3714	-0.117
Mof_H 	H 	0.6429	0.421	0.3595	0.079
Mof_C 	C 	0.6757	0.3986	0.4147	0.052
Mof_H 	H 	0.6825	0.417	0.4321	0.031
Mof_C 	C 	0.6892	0.369	0.4328	-0.127
Mof_C 	C 	0.6797	0.3424	0.4061	0.047
Mof_H 	H 	0.6892	0.3224	0.4179	0.027
Mof_C 	C 	0.6568	0.3451	0.3628	-0.121
Mof_H 	H 	0.6508	0.3268	0.345	0.068
Mof_C 	C 	0.7131	0.365	0.4804	0.388
Mof_O 	O 	0.4921	0.3703	0.0908	-0.517
Mof_O 	O 	0.7264	0.3899	0.5027	-0.497
Mof_O 	O 	0.7208	0.3374	0.4946	-0.491
Mof_C 	C 	0.3863	0.2754	0.061	0.08
Mof_C 	C 	0.3983	0.2451	0.0772	-0.137
Mof_H 	H 	0.4234	0.2402	0.089	0.074
Mof_C 	C 	0.3737	0.2224	0.0762	0.06
Mof_H 	H 	0.3823	0.202	0.0872	0.011
Mof_C 	C 	0.3368	0.2287	0.0596	-0.148
Mof_C 	C 	0.3244	0.2584	0.042	0.062
Mof_H 	H 	0.2991	0.2631	0.0298	0.028
Mof_C 	C 	0.3488	0.281	0.0423	-0.134
Mof_H 	H 	0.3399	0.3009	0.0295	0.083
Mof_C 	C 	0.3101	0.2042	0.0603	0.39
Mof_O 	O 	0.2775	0.2111	0.0453	-0.495
Mof_O 	O 	0.323	0.1781	0.0765	-0.52
Mof_Zn	Zn	0.00374	0.08836	0.63	1.19
Mof_Zn	Zn	0.0489	0.13493	0.61157	1.192
Mof_Zn	Zn	0.4774	0.86874	0.07873	1.193
Mof_Zn	Zn	0.51979	0.91596	0.05561	1.193
Mof_Zn	Zn	0.24734	0.17885	0.05412	1.207
Mof_Zn	Zn	0.25701	0.10452	0.06353	1.222
Mof_Zn	Zn	0.31938	0.15259	0.12691	1.18
Mof_Zn	Zn	0.24428	0.14495	0.13393	1.213
Mof_O 	O 	0.2655	0.1443	0.0942	-0.951
Mof_C 	C 	0.5862	0.9917	0.0185	-0.74
Mof_C 	C 	0.6187	0.9845	0.0162	0.474
Mof_H 	H 	0.6278	0.9635	0.0224	-0.116
Mof_C 	C 	0.6383	0.0066	0.0052	-0.439
Mof_H 	H 	0.6606	0.0008	0.0046	0.196
Mof_Br	Br	0.65013	0.06838	0.97872	-0.29
Mof_C 	C 	0.6252	0.037	0.9951	0.374
Mof_C 	C 	0.5931	0.0445	0.9964	-0.454
Mof_H 	H 	0.5838	0.0653	0.9893	0.188
Mof_C 	C 	0.574	0.0227	0.0077	0.48
Mof_H 	H 	0.5518	0.0289	0.0083	-0.134
Mof_B 	B 	0.5624	0.9674	0.0311	1.548
Mof_O 	O 	0.5899	0.9382	0.0547	-0.427
Mof_N 	N 	0.5733	0.9133	0.0613	-0.154
Mof_C 	C 	0.5963	0.888	0.075	0.032
Mof_H 	H 	0.6202	0.8909	0.0773	0.05
Mof_C 	C 	0.5875	0.8562	0.0868	-0.102
Mof_C 	C 	0.5565	0.8496	0.0933	0.225
Mof_C 	C 	0.552	0.818	0.1042	-0.112
Mof_C 	C 	0.5786	0.7952	0.1085	-0.004
Mof_H 	H 	0.5759	0.7743	0.1165	0.039
Mof_C 	C 	0.6086	0.8025	0.1013	-0.036
Mof_C 	C 	0.6131	0.8332	0.0907	-0.007
Mof_H 	H 	0.6338	0.8386	0.0862	0.037
Mof_C 	C 	0.5212	0.8068	0.1104	0.063
Mof_H 	H 	0.5212	0.7852	0.1176	0.048
Mof_N 	N 	0.4943	0.8232	0.1071	-0.15
Mof_O 	O 	0.4698	0.8061	0.1164	-0.548
Mof_B 	B 	0.4331	0.8195	0.1022	1.666
Mof_O 	O 	0.5341	0.9556	0.9907	-0.541
Mof_N 	N 	0.5107	0.9323	0.9929	-0.15
Mof_C 	C 	0.4859	0.9241	0.9567	0.054
Mof_H 	H 	0.487	0.9336	0.9324	0.046
Mof_C 	C 	0.4561	0.9024	0.9472	-0.103
Mof_C 	C 	0.45	0.8858	0.9798	0.21
Mof_C 	C 	0.4193	0.865	0.9663	-0.097
Mof_C 	C 	0.3959	0.8618	0.9221	-0.009
Mof_H 	H 	0.3753	0.8483	0.9134	0.047
Mof_C 	C 	0.4021	0.878	0.8911	-0.032
Mof_C 	C 	0.4322	0.8979	0.9036	-0.007
Mof_H 	H 	0.4367	0.9086	0.8822	0.036
Mof_C 	C 	0.411	0.8459	0.9957	0.056
Mof_H 	H 	0.3894	0.8336	0.9835	0.065
Mof_N 	N 	0.4297	0.8438	0.0362	-0.151
Mof_O 	O 	0.4144	0.8228	0.0556	-0.558
Mof_O 	O 	0.5516	0.981	0.0606	-0.584
Mof_N 	N 	0.5281	0.9643	0.0725	-0.146
Mof_C 	C 	0.5099	0.9817	0.0861	0.047
Mof_H 	H 	0.5141	0.0038	0.0866	0.057
Mof_C 	C 	0.4835	0.9714	0.1009	-0.094
Mof_C 	C 	0.4762	0.9387	0.1056	0.194
Mof_C 	C 	0.4487	0.9322	0.1197	-0.094
Mof_C 	C 	0.4285	0.9569	0.1263	-0.006
Mof_H 	H 	0.4103	0.952	0.1355	0.045
Mof_C 	C 	0.4348	0.9882	0.1195	-0.031
Mof_C 	C 	0.4628	0.9951	0.1083	-0.01
Mof_H 	H 	0.468	0.0166	0.1054	0.043
Mof_C 	C 	0.4389	0.9007	0.1268	0.06
Mof_H 	H 	0.4227	0.8991	0.1398	0.055
Mof_N 	N 	0.4496	0.875	0.1175	-0.155
Mof_O 	O 	0.4337	0.8478	0.1264	-0.557
Mof_C 	C 	0.4112	0.7935	0.1148	-0.788
Mof_C 	C 	0.4131	0.7906	0.1561	0.521
Mof_H 	H 	0.428	0.805	0.1776	-0.125
Mof_C 	C 	0.3942	0.7679	0.1669	-0.474
Mof_H 	H 	0.3958	0.7674	0.1952	0.213
Mof_Br	Br	0.345	0.71591	0.1501	-0.265
Mof_C 	C 	0.3734	0.7461	0.1372	0.403
Mof_C 	C 	0.3714	0.7471	0.0965	-0.473
Mof_H 	H 	0.3579	0.7316	0.0758	0.22
Mof_C 	C 	0.3895	0.7708	0.086	0.525
Mof_H 	H 	0.3869	0.7717	0.0573	-0.13
Mof_O 	O 	0.5322	0.8712	0.0877	-0.517
Mof_C 	C 	0.6341	0.7775	0.1013	0.082
Mof_C 	C 	0.6444	0.7758	0.0679	-0.129
Mof_H 	H 	0.6364	0.7915	0.0461	0.077
Mof_C 	C 	0.6664	0.7514	0.0663	0.06
Mof_H 	H 	0.6724	0.75	0.0427	0.028
Mof_C 	C 	0.6797	0.7288	0.0988	-0.138
Mof_C 	C 	0.6703	0.7313	0.1329	0.064
Mof_H 	H 	0.6799	0.7166	0.1559	0.03
Mof_C 	C 	0.6474	0.7548	0.1337	-0.13
Mof_H 	H 	0.6405	0.7555	0.1567	0.083
Mof_C 	C 	0.703	0.7019	0.0967	0.406
Mof_O 	O 	0.7104	0.7015	0.0648	-0.513
Mof_O 	O 	0.4719	0.89	0.021	-0.535
Mof_O 	O 	0.7138	0.6828	0.1269	-0.502
Mof_C 	C 	0.3783	0.8738	0.8444	0.084
Mof_C 	C 	0.3917	0.8769	0.8137	-0.133
Mof_H 	H 	0.4165	0.8823	0.8228	0.075
Mof_C 	C 	0.3697	0.8723	0.7704	0.065
Mof_H 	H 	0.3797	0.8737	0.7503	0.013
Mof_C 	C 	0.3327	0.8654	0.7562	-0.149
Mof_C 	C 	0.3191	0.8627	0.7864	0.069
Mof_H 	H 	0.294	0.8584	0.7773	0.03
Mof_C 	C 	0.3417	0.8663	0.8301	-0.131
Mof_H 	H 	0.3321	0.8635	0.8505	0.089
Mof_C 	C 	0.3083	0.8625	0.7087	0.404
Mof_O 	O 	0.4949	0.9157	0.0988	-0.504
Mof_O 	O 	0.3227	0.8666	0.6831	-0.514
Mof_O 	O 	0.2753	0.8575	0.6948	-0.5
Mof_C 	C 	0.4096	0.0135	0.1196	0.089
Mof_C 	C 	0.3728	0.0067	0.1048	-0.138
Mof_H 	H 	0.3645	0.9856	0.098	0.094
Mof_C 	C 	0.3484	0.0307	0.1001	0.068
Mof_H 	H 	0.3233	0.0258	0.0892	0.028
Mof_C 	C 	0.3599	0.0618	0.111	-0.138
Mof_C 	C 	0.3972	0.0682	0.1282	0.066
Mof_H 	H 	0.406	0.089	0.137	0.019
Mof_C 	C 	0.4214	0.044	0.1323	-0.135
Mof_H 	H 	0.4467	0.0484	0.1441	0.078
Mof_C 	C 	0.332	0.0877	0.1024	0.414
Mof_O 	O 	0.3445	0.1143	0.1182	-0.488
Mof_O 	O 	0.2991	0.0805	0.0809	-0.523
Mof_C 	C 	0.9303	0.0145	0.6585	-0.749
Mof_C 	C 	0.9448	0.9893	0.6869	0.499
Mof_H 	H 	0.9706	0.9877	0.702	-0.121
Mof_C 	C 	0.924	0.9667	0.6941	-0.468
Mof_H 	H 	0.9352	0.9506	0.7148	0.212
Mof_Br	Br	0.85755	0.93575	0.679	-0.276
Mof_C 	C 	0.8868	0.9677	0.6714	0.394
Mof_C 	C 	0.8711	0.9913	0.6423	-0.463
Mof_H 	H 	0.8454	0.992	0.6262	0.206
Mof_C 	C 	0.8924	0.0143	0.6362	0.484
Mof_H 	H 	0.8808	0.0306	0.616	-0.121
Mof_B 	B 	0.9545	0.0414	0.6514	1.524
Mof_O 	O 	0.9712	0.0232	0.6213	-0.404
Mof_N 	N 	0.9978	0.0393	0.6171	-0.159
Mof_C 	C 	0.0194	0.021	0.6065	0.035
Mof_H 	H 	0.0135	0.9992	0.602	0.051
Mof_C 	C 	0.052	0.0318	0.601	-0.102
Mof_C 	C 	0.0589	0.0639	0.5954	0.218
Mof_C 	C 	0.0899	0.0703	0.5879	-0.109
Mof_C 	C 	0.1121	0.045	0.5876	-0.001
Mof_H 	H 	0.1328	0.0497	0.5828	0.037
Mof_C 	C 	0.1058	0.0136	0.594	-0.037
Mof_C 	C 	0.075	0.0079	0.6001	-0.003
Mof_H 	H 	0.0693	0.9867	0.6039	0.037
Mof_C 	C 	0.1006	0.1017	0.5821	0.056
Mof_H 	H 	0.1208	0.1031	0.5754	0.052
Mof_N 	N 	0.0865	0.1277	0.5848	-0.152
Mof_O 	O 	0.1052	0.1544	0.5801	-0.541
Mof_B 	B 	0.096	0.1854	0.5934	1.726
Mof_O 	O 	0.9852	0.0483	0.6921	-0.545
Mof_N 	N 	0.0098	0.0711	0.6924	-0.144
Mof_C 	C 	0.0344	0.0776	0.7297	0.045
Mof_H 	H 	0.0336	0.0664	0.7531	0.061
Mof_C 	C 	0.0637	0.1005	0.7401	-0.106
Mof_C 	C 	0.0687	0.1202	0.7093	0.22
Mof_C 	C 	0.0991	0.1415	0.7244	-0.11
Mof_C 	C 	0.1219	0.143	0.7687	-0.008
Mof_H 	H 	0.1414	0.1577	0.7787	0.034
Mof_C 	C 	0.117	0.1239	0.7984	-0.034
Mof_C 	C 	0.0882	0.1028	0.7838	-0.01
Mof_H 	H 	0.0849	0.0896	0.804	0.04
Mof_C 	C 	0.1083	0.1619	0.6968	0.053
Mof_H 	H 	0.1283	0.1757	0.7107	0.047
Mof_N 	N 	0.0923	0.1631	0.6561	-0.138
Mof_O 	O 	0.1077	0.1843	0.6386	-0.607
Mof_O 	O 	0.9316	0.0659	0.6265	-0.578
Mof_N 	N 	0.9472	0.0912	0.6148	-0.15
Mof_C 	C 	0.9259	0.1145	0.6001	0.053
Mof_H 	H 	0.9021	0.1122	0.5983	0.047
Mof_C 	C 	0.934	0.1444	0.5858	-0.109
Mof_C 	C 	0.9671	0.1511	0.5825	0.217
Mof_C 	C 	0.9713	0.1823	0.5697	-0.111
Mof_C 	C 	0.9449	0.2055	0.5626	-0.004
Mof_H 	H 	0.9488	0.2263	0.555	0.033
Mof_C 	C 	0.913	0.199	0.5665	-0.039
Mof_C 	C 	0.9082	0.1687	0.5777	-0.007
Mof_H 	H 	0.8864	0.1639	0.5802	0.037
Mof_C 	C 	0.0033	0.193	0.565	0.056
Mof_H 	H 	0.0025	0.2133	0.5532	0.046
Mof_N 	N 	0.0324	0.177	0.5757	-0.141
Mof_O 	O 	0.058	0.1934	0.5689	-0.592
Mof_C 	C 	0.1202	0.2117	0.585	-0.82
Mof_C 	C 	0.1514	0.2251	0.6169	0.53
Mof_H 	H 	0.1601	0.2167	0.6452	-0.128
Mof_C 	C 	0.11	0.2248	0.5443	0.533
Mof_H 	H 	0.089	0.2165	0.521	-0.136
Mof_C 	C 	0.1706	0.2499	0.61	-0.483
Mof_H 	H 	0.1912	0.2587	0.6332	0.215
Mof_C 	C 	0.1286	0.2491	0.5361	-0.49
Mof_H 	H 	0.1204	0.2571	0.5078	0.225
Mof_Br	Br	0.18548	0.294	0.557	-0.27
Mof_C 	C 	0.1591	0.2615	0.5691	0.404
Mof_O 	O 	0.0383	0.0866	0.5977	-0.52
Mof_C 	C 	0.1309	0.988	0.5956	0.085
Mof_C 	C 	0.1322	0.9593	0.6158	-0.128
Mof_H 	H 	0.1157	0.9556	0.628	0.081
Mof_C 	C 	0.1567	0.936	0.6188	0.064
Mof_H 	H 	0.1569	0.9167	0.6329	0.03
Mof_C 	C 	0.1811	0.9404	0.6011	-0.133
Mof_C 	C 	0.1804	0.9692	0.5814	0.063
Mof_H 	H 	0.1972	0.9729	0.5697	0.03
Mof_C 	C 	0.1558	0.9924	0.5785	-0.127
Mof_H 	H 	0.1558	0.0118	0.5646	0.08
Mof_C 	C 	0.2072	0.9152	0.602	0.396
Mof_O 	O 	0.2092	0.8904	0.6223	-0.482
Mof_O 	O 	0.0456	0.1195	0.6689	-0.532
Mof_O 	O 	0.2266	0.9217	0.5824	-0.482
Mof_C 	C 	0.1424	0.1256	0.8448	0.073
Mof_C 	C 	0.1523	0.0991	0.8714	-0.117
Mof_H 	H 	0.1429	0.079	0.8595	0.079
Mof_C 	C 	0.1757	0.1014	0.9147	0.052
Mof_H 	H 	0.1825	0.083	0.9321	0.031
Mof_C 	C 	0.1892	0.131	0.9328	-0.127
Mof_C 	C 	0.1797	0.1576	0.9061	0.047
Mof_H 	H 	0.1892	0.1776	0.9179	0.027
Mof_C 	C 	0.1568	0.1549	0.8628	-0.121
Mof_H 	H 	0.1508	0.1732	0.845	0.068
Mof_C 	C 	0.2131	0.135	0.9804	0.388
Mof_O 	O 	0.9921	0.1297	0.5908	-0.517
Mof_O 	O 	0.2264	0.1101	0.0027	-0.498
Mof_O 	O 	0.2208	0.1626	0.9946	-0.492
Mof_C 	C 	0.8863	0.2246	0.561	0.08
Mof_C 	C 	0.8983	0.2549	0.5772	-0.137
Mof_H 	H 	0.9234	0.2598	0.589	0.074
Mof_C 	C 	0.8737	0.2776	0.5762	0.06
Mof_H 	H 	0.8823	0.298	0.5872	0.011
Mof_C 	C 	0.8368	0.2713	0.5596	-0.148
Mof_C 	C 	0.8244	0.2416	0.542	0.062
Mof_H 	H 	0.7991	0.2369	0.5298	0.028
Mof_C 	C 	0.8488	0.219	0.5423	-0.134
Mof_H 	H 	0.8399	0.1991	0.5295	0.083
Mof_C 	C 	0.8101	0.2958	0.5603	0.39
Mof_O 	O 	0.7775	0.2889	0.5453	-0.495
Mof_O 	O 	0.823	0.3219	0.5765	-0.52
Mof_Zn	Zn	0.50374	0.58836	0.63	1.19
Mof_Zn	Zn	0.5489	0.63493	0.61157	1.192
Mof_Zn	Zn	0.9774	0.36874	0.07873	1.193
Mof_Zn	Zn	0.01979	0.41596	0.05561	1.193
Mof_Zn	Zn	0.74734	0.67885	0.05412	1.207
Mof_Zn	Zn	0.75701	0.60452	0.06353	1.222
Mof_Zn	Zn	0.81938	0.65259	0.12691	1.18
Mof_Zn	Zn	0.74428	0.64495	0.13393	1.213
Mof_O 	O 	0.7655	0.6443	0.0942	-0.951
Mof_C 	C 	0.0862	0.4917	0.0185	-0.739
Mof_C 	C 	0.1187	0.4845	0.0162	0.474
Mof_H 	H 	0.1278	0.4635	0.0224	-0.116
Mof_C 	C 	0.1383	0.5066	0.0052	-0.439
Mof_H 	H 	0.1606	0.5008	0.0046	0.196
Mof_Br	Br	0.15013	0.56838	0.97872	-0.289
Mof_C 	C 	0.1252	0.537	0.9951	0.375
Mof_C 	C 	0.0931	0.5445	0.9964	-0.453
Mof_H 	H 	0.0838	0.5653	0.9893	0.188
Mof_C 	C 	0.074	0.5227	0.0077	0.479
Mof_H 	H 	0.0518	0.5289	0.0083	-0.134
Mof_B 	B 	0.0624	0.4674	0.0311	1.547
Mof_O 	O 	0.0899	0.4382	0.0547	-0.427
Mof_N 	N 	0.0733	0.4133	0.0613	-0.154
Mof_C 	C 	0.0963	0.388	0.075	0.032
Mof_H 	H 	0.1202	0.3909	0.0773	0.05
Mof_C 	C 	0.0875	0.3562	0.0868	-0.102
Mof_C 	C 	0.0565	0.3496	0.0933	0.225
Mof_C 	C 	0.052	0.318	0.1042	-0.112
Mof_C 	C 	0.0786	0.2952	0.1085	-0.005
Mof_H 	H 	0.0759	0.2743	0.1165	0.039
Mof_C 	C 	0.1086	0.3025	0.1013	-0.036
Mof_C 	C 	0.1131	0.3332	0.0907	-0.007
Mof_H 	H 	0.1338	0.3386	0.0862	0.037
Mof_C 	C 	0.0212	0.3068	0.1104	0.062
Mof_H 	H 	0.0212	0.2852	0.1176	0.048
Mof_N 	N 	0.9943	0.3232	0.1071	-0.149
Mof_O 	O 	0.9698	0.3061	0.1164	-0.548
Mof_B 	B 	0.9331	0.3195	0.1022	1.666
Mof_O 	O 	0.0341	0.4556	0.9907	-0.541
Mof_N 	N 	0.0107	0.4323	0.9929	-0.15
Mof_C 	C 	0.9859	0.4241	0.9567	0.054
Mof_H 	H 	0.987	0.4336	0.9324	0.046
Mof_C 	C 	0.9561	0.4024	0.9472	-0.102
Mof_C 	C 	0.95	0.3858	0.9798	0.209
Mof_C 	C 	0.9193	0.365	0.9663	-0.097
Mof_C 	C 	0.8959	0.3618	0.9221	-0.009
Mof_H 	H 	0.8753	0.3483	0.9134	0.047
Mof_C 	C 	0.9021	0.378	0.8911	-0.032
Mof_C 	C 	0.9322	0.3979	0.9036	-0.007
Mof_H 	H 	0.9367	0.4086	0.8822	0.036
Mof_C 	C 	0.911	0.3459	0.9957	0.055
Mof_H 	H 	0.8894	0.3336	0.9835	0.065
Mof_N 	N 	0.9297	0.3438	0.0362	-0.15
Mof_O 	O 	0.9144	0.3228	0.0556	-0.558
Mof_O 	O 	0.0516	0.481	0.0606	-0.584
Mof_N 	N 	0.0281	0.4643	0.0725	-0.146
Mof_C 	C 	0.0099	0.4817	0.0861	0.047
Mof_H 	H 	0.0141	0.5038	0.0866	0.057
Mof_C 	C 	0.9835	0.4714	0.1009	-0.093
Mof_C 	C 	0.9762	0.4387	0.1056	0.194
Mof_C 	C 	0.9487	0.4322	0.1197	-0.094
Mof_C 	C 	0.9285	0.4569	0.1263	-0.006
Mof_H 	H 	0.9103	0.452	0.1355	0.045
Mof_C 	C 	0.9348	0.4882	0.1195	-0.031
Mof_C 	C 	0.9628	0.4951	0.1083	-0.01
Mof_H 	H 	0.968	0.5166	0.1054	0.043
Mof_C 	C 	0.9389	0.4007	0.1268	0.06
Mof_H 	H 	0.9227	0.3991	0.1398	0.055
Mof_N 	N 	0.9496	0.375	0.1175	-0.155
Mof_O 	O 	0.9337	0.3478	0.1264	-0.557
Mof_C 	C 	0.9112	0.2935	0.1148	-0.788
Mof_C 	C 	0.9131	0.2906	0.1561	0.521
Mof_H 	H 	0.928	0.305	0.1776	-0.125
Mof_C 	C 	0.8942	0.2679	0.1669	-0.474
Mof_H 	H 	0.8958	0.2674	0.1952	0.213
Mof_Br	Br	0.845	0.21591	0.1501	-0.265
Mof_C 	C 	0.8734	0.2461	0.1372	0.403
Mof_C 	C 	0.8714	0.2471	0.0965	-0.473
Mof_H 	H 	0.8579	0.2316	0.0758	0.22
Mof_C 	C 	0.8895	0.2708	0.086	0.525
Mof_H 	H 	0.8869	0.2717	0.0573	-0.13
Mof_O 	O 	0.0322	0.3712	0.0877	-0.517
Mof_C 	C 	0.1341	0.2775	0.1013	0.082
Mof_C 	C 	0.1444	0.2758	0.0679	-0.129
Mof_H 	H 	0.1364	0.2915	0.0461	0.077
Mof_C 	C 	0.1664	0.2514	0.0663	0.06
Mof_H 	H 	0.1724	0.25	0.0427	0.028
Mof_C 	C 	0.1797	0.2288	0.0988	-0.139
Mof_C 	C 	0.1703	0.2313	0.1329	0.064
Mof_H 	H 	0.1799	0.2166	0.1559	0.03
Mof_C 	C 	0.1474	0.2548	0.1337	-0.13
Mof_H 	H 	0.1405	0.2555	0.1567	0.083
Mof_C 	C 	0.203	0.2019	0.0967	0.406
Mof_O 	O 	0.2104	0.2015	0.0648	-0.513
Mof_O 	O 	0.9719	0.39	0.021	-0.535
Mof_O 	O 	0.2138	0.1828	0.1269	-0.502
Mof_C 	C 	0.8783	0.3738	0.8444	0.084
Mof_C 	C 	0.8917	0.3769	0.8137	-0.133
Mof_H 	H 	0.9165	0.3823	0.8228	0.074
Mof_C 	C 	0.8697	0.3723	0.7704	0.065
Mof_H 	H 	0.8797	0.3737	0.7503	0.013
Mof_C 	C 	0.8327	0.3654	0.7562	-0.149
Mof_C 	C 	0.8191	0.3627	0.7864	0.069
Mof_H 	H 	0.794	0.3584	0.7773	0.03
Mof_C 	C 	0.8417	0.3663	0.8301	-0.131
Mof_H 	H 	0.8321	0.3635	0.8505	0.089
Mof_C 	C 	0.8083	0.3625	0.7087	0.404
Mof_O 	O 	0.9949	0.4157	0.0988	-0.504
Mof_O 	O 	0.8227	0.3666	0.6831	-0.514
Mof_O 	O 	0.7753	0.3575	0.6948	-0.5
Mof_C 	C 	0.9096	0.5135	0.1196	0.089
Mof_C 	C 	0.8728	0.5067	0.1048	-0.138
Mof_H 	H 	0.8645	0.4856	0.098	0.094
Mof_C 	C 	0.8484	0.5307	0.1001	0.068
Mof_H 	H 	0.8233	0.5258	0.0892	0.028
Mof_C 	C 	0.8599	0.5618	0.111	-0.138
Mof_C 	C 	0.8972	0.5682	0.1282	0.066
Mof_H 	H 	0.906	0.589	0.137	0.019
Mof_C 	C 	0.9214	0.544	0.1323	-0.135
Mof_H 	H 	0.9467	0.5484	0.1441	0.078
Mof_C 	C 	0.832	0.5877	0.1024	0.414
Mof_O 	O 	0.8445	0.6143	0.1182	-0.488
Mof_O 	O 	0.7991	0.5805	0.0809	-0.523
Mof_C 	C 	0.4303	0.5145	0.6585	-0.749
Mof_C 	C 	0.4448	0.4893	0.6869	0.499
Mof_H 	H 	0.4706	0.4877	0.702	-0.121
Mof_C 	C 	0.424	0.4667	0.6941	-0.468
Mof_H 	H 	0.4352	0.4506	0.7148	0.212
Mof_Br	Br	0.35755	0.43575	0.679	-0.276
Mof_C 	C 	0.3868	0.4677	0.6714	0.394
Mof_C 	C 	0.3711	0.4913	0.6423	-0.463
Mof_H 	H 	0.3454	0.492	0.6262	0.206
Mof_C 	C 	0.3924	0.5143	0.6362	0.484
Mof_H 	H 	0.3808	0.5306	0.616	-0.121
Mof_B 	B 	0.4545	0.5414	0.6514	1.524
Mof_O 	O 	0.4712	0.5232	0.6213	-0.404
Mof_N 	N 	0.4978	0.5393	0.6171	-0.159
Mof_C 	C 	0.5194	0.521	0.6065	0.035
Mof_H 	H 	0.5135	0.4992	0.602	0.051
Mof_C 	C 	0.552	0.5318	0.601	-0.102
Mof_C 	C 	0.5589	0.5639	0.5954	0.218
Mof_C 	C 	0.5899	0.5703	0.5879	-0.109
Mof_C 	C 	0.6121	0.545	0.5876	-0.001
Mof_H 	H 	0.6328	0.5497	0.5828	0.037
Mof_C 	C 	0.6058	0.5136	0.594	-0.037
Mof_C 	C 	0.575	0.5079	0.6001	-0.003
Mof_H 	H 	0.5693	0.4867	0.6039	0.037
Mof_C 	C 	0.6006	0.6017	0.5821	0.056
Mof_H 	H 	0.6208	0.6031	0.5754	0.052
Mof_N 	N 	0.5865	0.6277	0.5848	-0.152
Mof_O 	O 	0.6052	0.6544	0.5801	-0.541
Mof_B 	B 	0.596	0.6854	0.5934	1.726
Mof_O 	O 	0.4852	0.5483	0.6921	-0.545
Mof_N 	N 	0.5098	0.5711	0.6924	-0.144
Mof_C 	C 	0.5344	0.5776	0.7297	0.045
Mof_H 	H 	0.5336	0.5664	0.7531	0.061
Mof_C 	C 	0.5637	0.6005	0.7401	-0.106
Mof_C 	C 	0.5687	0.6202	0.7093	0.22
Mof_C 	C 	0.5991	0.6415	0.7244	-0.11
Mof_C 	C 	0.6219	0.643	0.7687	-0.008
Mof_H 	H 	0.6414	0.6577	0.7787	0.034
Mof_C 	C 	0.617	0.6239	0.7984	-0.034
Mof_C 	C 	0.5882	0.6028	0.7838	-0.01
Mof_H 	H 	0.5849	0.5896	0.804	0.04
Mof_C 	C 	0.6083	0.6619	0.6968	0.053
Mof_H 	H 	0.6283	0.6757	0.7107	0.047
Mof_N 	N 	0.5923	0.6631	0.6561	-0.138
Mof_O 	O 	0.6077	0.6843	0.6386	-0.607
Mof_O 	O 	0.4316	0.5659	0.6265	-0.578
Mof_N 	N 	0.4472	0.5912	0.6148	-0.15
Mof_C 	C 	0.4259	0.6145	0.6001	0.053
Mof_H 	H 	0.4021	0.6122	0.5983	0.047
Mof_C 	C 	0.434	0.6444	0.5858	-0.109
Mof_C 	C 	0.4671	0.6511	0.5825	0.217
Mof_C 	C 	0.4713	0.6823	0.5697	-0.11
Mof_C 	C 	0.4449	0.7055	0.5626	-0.004
Mof_H 	H 	0.4488	0.7263	0.555	0.033
Mof_C 	C 	0.413	0.699	0.5665	-0.039
Mof_C 	C 	0.4082	0.6687	0.5777	-0.007
Mof_H 	H 	0.3864	0.6639	0.5802	0.037
Mof_C 	C 	0.5033	0.693	0.565	0.056
Mof_H 	H 	0.5025	0.7133	0.5532	0.046
Mof_N 	N 	0.5324	0.677	0.5757	-0.141
Mof_O 	O 	0.558	0.6934	0.5689	-0.592
Mof_C 	C 	0.6202	0.7117	0.585	-0.82
Mof_C 	C 	0.6514	0.7251	0.6169	0.53
Mof_H 	H 	0.6601	0.7167	0.6452	-0.128
Mof_C 	C 	0.61	0.7248	0.5443	0.533
Mof_H 	H 	0.589	0.7165	0.521	-0.136
Mof_C 	C 	0.6706	0.7499	0.61	-0.483
Mof_H 	H 	0.6912	0.7587	0.6332	0.215
Mof_C 	C 	0.6286	0.7491	0.5361	-0.49
Mof_H 	H 	0.6204	0.7571	0.5078	0.225
Mof_Br	Br	0.68548	0.794	0.557	-0.27
Mof_C 	C 	0.6591	0.7615	0.5691	0.404
Mof_O 	O 	0.5383	0.5866	0.5977	-0.52
Mof_C 	C 	0.6309	0.488	0.5956	0.085
Mof_C 	C 	0.6322	0.4593	0.6158	-0.128
Mof_H 	H 	0.6157	0.4556	0.628	0.081
Mof_C 	C 	0.6567	0.436	0.6188	0.064
Mof_H 	H 	0.6569	0.4167	0.6329	0.03
Mof_C 	C 	0.6811	0.4404	0.6011	-0.133
Mof_C 	C 	0.6804	0.4692	0.5814	0.063
Mof_H 	H 	0.6972	0.4729	0.5697	0.03
Mof_C 	C 	0.6558	0.4924	0.5785	-0.127
Mof_H 	H 	0.6558	0.5118	0.5646	0.08
Mof_C 	C 	0.7072	0.4152	0.602	0.396
Mof_O 	O 	0.7092	0.3904	0.6223	-0.482
Mof_O 	O 	0.5456	0.6195	0.6689	-0.533
Mof_O 	O 	0.7266	0.4217	0.5824	-0.482
Mof_C 	C 	0.6424	0.6256	0.8448	0.073
Mof_C 	C 	0.6523	0.5991	0.8714	-0.117
Mof_H 	H 	0.6429	0.579	0.8595	0.079
Mof_C 	C 	0.6757	0.6014	0.9147	0.052
Mof_H 	H 	0.6825	0.583	0.9321	0.031
Mof_C 	C 	0.6892	0.631	0.9328	-0.127
Mof_C 	C 	0.6797	0.6576	0.9061	0.047
Mof_H 	H 	0.6892	0.6776	0.9179	0.027
Mof_C 	C 	0.6568	0.6549	0.8628	-0.121
Mof_H 	H 	0.6508	0.6732	0.845	0.068
Mof_C 	C 	0.7131	0.635	0.9804	0.388
Mof_O 	O 	0.4921	0.6297	0.5908	-0.517
Mof_O 	O 	0.7264	0.6101	0.0027	-0.497
Mof_O 	O 	0.7208	0.6626	0.9946	-0.492
Mof_C 	C 	0.3863	0.7246	0.561	0.08
Mof_C 	C 	0.3983	0.7549	0.5772	-0.137
Mof_H 	H 	0.4234	0.7598	0.589	0.074
Mof_C 	C 	0.3737	0.7776	0.5762	0.06
Mof_H 	H 	0.3823	0.798	0.5872	0.011
Mof_C 	C 	0.3368	0.7713	0.5596	-0.148
Mof_C 	C 	0.3244	0.7416	0.542	0.062
Mof_H 	H 	0.2991	0.7369	0.5298	0.028
Mof_C 	C 	0.3488	0.719	0.5423	-0.134
Mof_H 	H 	0.3399	0.6991	0.5295	0.083
Mof_C 	C 	0.3101	0.7958	0.5603	0.39
Mof_O 	O 	0.2775	0.7889	0.5453	-0.495
Mof_O 	O 	0.323	0.8219	0.5765	-0.52
Mof_Zn	Zn	0.99626	0.91164	0.37	1.19
Mof_Zn	Zn	0.9511	0.86507	0.38843	1.192
Mof_Zn	Zn	0.5226	0.13126	0.92127	1.193
Mof_Zn	Zn	0.48021	0.08404	0.94439	1.193
Mof_Zn	Zn	0.75266	0.82115	0.94588	1.207
Mof_Zn	Zn	0.74299	0.89548	0.93647	1.222
Mof_Zn	Zn	0.68062	0.84741	0.87309	1.18
Mof_Zn	Zn	0.75572	0.85505	0.86607	1.213
Mof_O 	O 	0.7345	0.8557	0.9058	-0.951
Mof_C 	C 	0.4138	0.0083	0.9815	-0.74
Mof_C 	C 	0.3813	0.0155	0.9838	0.474
Mof_H 	H 	0.3722	0.0365	0.9776	-0.116
Mof_C 	C 	0.3617	0.9934	0.9948	-0.439
Mof_H 	H 	0.3394	0.9992	0.9954	0.196
Mof_Br	Br	0.34987	0.93162	0.02128	-0.29
Mof_C 	C 	0.3748	0.963	0.0049	0.374
Mof_C 	C 	0.4069	0.9555	0.0036	-0.454
Mof_H 	H 	0.4162	0.9347	0.0107	0.188
Mof_C 	C 	0.426	0.9773	0.9923	0.48
Mof_H 	H 	0.4482	0.9711	0.9917	-0.134
Mof_B 	B 	0.4376	0.0326	0.9689	1.548
Mof_O 	O 	0.4101	0.0618	0.9453	-0.427
Mof_N 	N 	0.4267	0.0867	0.9387	-0.154
Mof_C 	C 	0.4037	0.112	0.925	0.032
Mof_H 	H 	0.3798	0.1091	0.9227	0.05
Mof_C 	C 	0.4125	0.1438	0.9132	-0.102
Mof_C 	C 	0.4435	0.1504	0.9067	0.225
Mof_C 	C 	0.448	0.182	0.8958	-0.112
Mof_C 	C 	0.4214	0.2048	0.8915	-0.004
Mof_H 	H 	0.4241	0.2257	0.8835	0.039
Mof_C 	C 	0.3914	0.1975	0.8987	-0.036
Mof_C 	C 	0.3869	0.1668	0.9093	-0.007
Mof_H 	H 	0.3662	0.1614	0.9138	0.037
Mof_C 	C 	0.4788	0.1932	0.8896	0.063
Mof_H 	H 	0.4788	0.2148	0.8824	0.048
Mof_N 	N 	0.5057	0.1768	0.8929	-0.15
Mof_O 	O 	0.5302	0.1939	0.8836	-0.548
Mof_B 	B 	0.5669	0.1805	0.8978	1.666
Mof_O 	O 	0.4659	0.0444	0.0093	-0.541
Mof_N 	N 	0.4893	0.0677	0.0071	-0.15
Mof_C 	C 	0.5141	0.0759	0.0433	0.054
Mof_H 	H 	0.513	0.0664	0.0676	0.046
Mof_C 	C 	0.5439	0.0976	0.0528	-0.103
Mof_C 	C 	0.55	0.1142	0.0202	0.21
Mof_C 	C 	0.5807	0.135	0.0337	-0.097
Mof_C 	C 	0.6041	0.1382	0.0779	-0.009
Mof_H 	H 	0.6247	0.1517	0.0866	0.047
Mof_C 	C 	0.5979	0.122	0.1089	-0.032
Mof_C 	C 	0.5678	0.1021	0.0964	-0.007
Mof_H 	H 	0.5633	0.0914	0.1178	0.036
Mof_C 	C 	0.589	0.1541	0.0043	0.056
Mof_H 	H 	0.6106	0.1664	0.0165	0.065
Mof_N 	N 	0.5703	0.1562	0.9638	-0.151
Mof_O 	O 	0.5856	0.1772	0.9444	-0.558
Mof_O 	O 	0.4484	0.019	0.9394	-0.584
Mof_N 	N 	0.4719	0.0357	0.9275	-0.146
Mof_C 	C 	0.4901	0.0183	0.9139	0.047
Mof_H 	H 	0.4859	0.9962	0.9134	0.057
Mof_C 	C 	0.5165	0.0286	0.8991	-0.094
Mof_C 	C 	0.5238	0.0613	0.8944	0.194
Mof_C 	C 	0.5513	0.0678	0.8803	-0.094
Mof_C 	C 	0.5715	0.0431	0.8737	-0.006
Mof_H 	H 	0.5897	0.048	0.8645	0.045
Mof_C 	C 	0.5652	0.0118	0.8805	-0.031
Mof_C 	C 	0.5372	0.0049	0.8917	-0.01
Mof_H 	H 	0.532	0.9834	0.8946	0.043
Mof_C 	C 	0.5611	0.0993	0.8732	0.06
Mof_H 	H 	0.5773	0.1009	0.8602	0.055
Mof_N 	N 	0.5504	0.125	0.8825	-0.155
Mof_O 	O 	0.5663	0.1522	0.8736	-0.557
Mof_C 	C 	0.5888	0.2065	0.8852	-0.788
Mof_C 	C 	0.5869	0.2094	0.8439	0.521
Mof_H 	H 	0.572	0.195	0.8224	-0.125
Mof_C 	C 	0.6058	0.2321	0.8331	-0.474
Mof_H 	H 	0.6042	0.2326	0.8048	0.213
Mof_Br	Br	0.655	0.28409	0.8499	-0.265
Mof_C 	C 	0.6266	0.2539	0.8628	0.403
Mof_C 	C 	0.6286	0.2529	0.9035	-0.473
Mof_H 	H 	0.6421	0.2684	0.9242	0.22
Mof_C 	C 	0.6105	0.2292	0.914	0.525
Mof_H 	H 	0.6131	0.2283	0.9427	-0.13
Mof_O 	O 	0.4678	0.1288	0.9123	-0.517
Mof_C 	C 	0.3659	0.2225	0.8987	0.082
Mof_C 	C 	0.3556	0.2242	0.9321	-0.129
Mof_H 	H 	0.3636	0.2085	0.9539	0.077
Mof_C 	C 	0.3336	0.2486	0.9337	0.06
Mof_H 	H 	0.3276	0.25	0.9573	0.028
Mof_C 	C 	0.3203	0.2712	0.9012	-0.138
Mof_C 	C 	0.3297	0.2687	0.8671	0.064
Mof_H 	H 	0.3201	0.2834	0.8441	0.03
Mof_C 	C 	0.3526	0.2452	0.8663	-0.13
Mof_H 	H 	0.3595	0.2445	0.8433	0.083
Mof_C 	C 	0.297	0.2981	0.9033	0.406
Mof_O 	O 	0.2896	0.2985	0.9352	-0.513
Mof_O 	O 	0.5281	0.11	0.979	-0.535
Mof_O 	O 	0.2862	0.3172	0.8731	-0.502
Mof_C 	C 	0.6217	0.1262	0.1556	0.084
Mof_C 	C 	0.6083	0.1231	0.1863	-0.133
Mof_H 	H 	0.5835	0.1177	0.1772	0.075
Mof_C 	C 	0.6303	0.1277	0.2296	0.065
Mof_H 	H 	0.6203	0.1263	0.2497	0.013
Mof_C 	C 	0.6673	0.1346	0.2438	-0.149
Mof_C 	C 	0.6809	0.1373	0.2136	0.069
Mof_H 	H 	0.706	0.1416	0.2227	0.03
Mof_C 	C 	0.6583	0.1337	0.1699	-0.131
Mof_H 	H 	0.6679	0.1365	0.1495	0.089
Mof_C 	C 	0.6917	0.1375	0.2913	0.404
Mof_O 	O 	0.5051	0.0843	0.9012	-0.504
Mof_O 	O 	0.6773	0.1334	0.3169	-0.514
Mof_O 	O 	0.7247	0.1425	0.3052	-0.5
Mof_C 	C 	0.5904	0.9865	0.8804	0.089
Mof_C 	C 	0.6272	0.9933	0.8952	-0.138
Mof_H 	H 	0.6355	0.0144	0.902	0.094
Mof_C 	C 	0.6516	0.9693	0.8999	0.068
Mof_H 	H 	0.6767	0.9742	0.9108	0.028
Mof_C 	C 	0.6401	0.9382	0.889	-0.138
Mof_C 	C 	0.6028	0.9318	0.8718	0.066
Mof_H 	H 	0.594	0.911	0.863	0.019
Mof_C 	C 	0.5786	0.956	0.8677	-0.135
Mof_H 	H 	0.5533	0.9516	0.8559	0.078
Mof_C 	C 	0.668	0.9123	0.8976	0.414
Mof_O 	O 	0.6555	0.8857	0.8818	-0.488
Mof_O 	O 	0.7009	0.9195	0.9191	-0.523
Mof_C 	C 	0.0697	0.9855	0.3415	-0.749
Mof_C 	C 	0.0552	0.0107	0.3131	0.499
Mof_H 	H 	0.0294	0.0123	0.298	-0.121
Mof_C 	C 	0.076	0.0333	0.3059	-0.468
Mof_H 	H 	0.0648	0.0494	0.2852	0.212
Mof_Br	Br	0.14245	0.06425	0.321	-0.276
Mof_C 	C 	0.1132	0.0323	0.3286	0.394
Mof_C 	C 	0.1289	0.0087	0.3577	-0.463
Mof_H 	H 	0.1546	0.008	0.3738	0.206
Mof_C 	C 	0.1076	0.9857	0.3638	0.484
Mof_H 	H 	0.1192	0.9694	0.384	-0.121
Mof_B 	B 	0.0455	0.9586	0.3486	1.524
Mof_O 	O 	0.0288	0.9768	0.3787	-0.404
Mof_N 	N 	0.0022	0.9607	0.3829	-0.159
Mof_C 	C 	0.9806	0.979	0.3935	0.035
Mof_H 	H 	0.9865	0.0008	0.398	0.051
Mof_C 	C 	0.948	0.9682	0.399	-0.102
Mof_C 	C 	0.9411	0.9361	0.4046	0.218
Mof_C 	C 	0.9101	0.9297	0.4121	-0.109
Mof_C 	C 	0.8879	0.955	0.4124	-0.001
Mof_H 	H 	0.8672	0.9503	0.4172	0.037
Mof_C 	C 	0.8942	0.9864	0.406	-0.037
Mof_C 	C 	0.925	0.9921	0.3999	-0.003
Mof_H 	H 	0.9307	0.0133	0.3961	0.037
Mof_C 	C 	0.8994	0.8983	0.4179	0.056
Mof_H 	H 	0.8792	0.8969	0.4246	0.052
Mof_N 	N 	0.9135	0.8723	0.4152	-0.152
Mof_O 	O 	0.8948	0.8456	0.4199	-0.541
Mof_B 	B 	0.904	0.8146	0.4066	1.726
Mof_O 	O 	0.0148	0.9517	0.3079	-0.545
Mof_N 	N 	0.9902	0.9289	0.3076	-0.144
Mof_C 	C 	0.9656	0.9224	0.2703	0.045
Mof_H 	H 	0.9664	0.9336	0.2469	0.061
Mof_C 	C 	0.9363	0.8995	0.2599	-0.106
Mof_C 	C 	0.9313	0.8798	0.2907	0.22
Mof_C 	C 	0.9009	0.8585	0.2756	-0.11
Mof_C 	C 	0.8781	0.857	0.2313	-0.008
Mof_H 	H 	0.8586	0.8423	0.2213	0.034
Mof_C 	C 	0.883	0.8761	0.2016	-0.034
Mof_C 	C 	0.9118	0.8972	0.2162	-0.01
Mof_H 	H 	0.9151	0.9104	0.196	0.04
Mof_C 	C 	0.8917	0.8381	0.3032	0.053
Mof_H 	H 	0.8717	0.8243	0.2893	0.047
Mof_N 	N 	0.9077	0.8369	0.3439	-0.138
Mof_O 	O 	0.8923	0.8157	0.3614	-0.607
Mof_O 	O 	0.0684	0.9341	0.3735	-0.578
Mof_N 	N 	0.0528	0.9088	0.3852	-0.15
Mof_C 	C 	0.0741	0.8855	0.3999	0.053
Mof_H 	H 	0.0979	0.8878	0.4017	0.047
Mof_C 	C 	0.066	0.8556	0.4142	-0.109
Mof_C 	C 	0.0329	0.8489	0.4175	0.217
Mof_C 	C 	0.0287	0.8177	0.4303	-0.111
Mof_C 	C 	0.0551	0.7945	0.4374	-0.004
Mof_H 	H 	0.0512	0.7737	0.445	0.033
Mof_C 	C 	0.087	0.801	0.4335	-0.039
Mof_C 	C 	0.0918	0.8313	0.4223	-0.007
Mof_H 	H 	0.1136	0.8361	0.4198	0.037
Mof_C 	C 	0.9967	0.807	0.435	0.056
Mof_H 	H 	0.9975	0.7867	0.4468	0.046
Mof_N 	N 	0.9676	0.823	0.4243	-0.141
Mof_O 	O 	0.942	0.8066	0.4311	-0.592
Mof_C 	C 	0.8798	0.7883	0.415	-0.82
Mof_C 	C 	0.8486	0.7749	0.3831	0.53
Mof_H 	H 	0.8399	0.7833	0.3548	-0.128
Mof_C 	C 	0.89	0.7752	0.4557	0.533
Mof_H 	H 	0.911	0.7835	0.479	-0.136
Mof_C 	C 	0.8294	0.7501	0.39	-0.483
Mof_H 	H 	0.8088	0.7413	0.3668	0.215
Mof_C 	C 	0.8714	0.7509	0.4639	-0.49
Mof_H 	H 	0.8796	0.7429	0.4922	0.225
Mof_Br	Br	0.81452	0.706	0.443	-0.27
Mof_C 	C 	0.8409	0.7385	0.4309	0.404
Mof_O 	O 	0.9617	0.9134	0.4023	-0.52
Mof_C 	C 	0.8691	0.012	0.4044	0.085
Mof_C 	C 	0.8678	0.0407	0.3842	-0.128
Mof_H 	H 	0.8843	0.0444	0.372	0.081
Mof_C 	C 	0.8433	0.064	0.3812	0.064
Mof_H 	H 	0.8431	0.0833	0.3671	0.03
Mof_C 	C 	0.8189	0.0596	0.3989	-0.133
Mof_C 	C 	0.8196	0.0308	0.4186	0.063
Mof_H 	H 	0.8028	0.0271	0.4303	0.03
Mof_C 	C 	0.8442	0.0076	0.4215	-0.127
Mof_H 	H 	0.8442	0.9882	0.4354	0.08
Mof_C 	C 	0.7928	0.0848	0.398	0.396
Mof_O 	O 	0.7908	0.1096	0.3777	-0.482
Mof_O 	O 	0.9544	0.8805	0.3311	-0.532
Mof_O 	O 	0.7734	0.0783	0.4176	-0.482
Mof_C 	C 	0.8576	0.8744	0.1552	0.073
Mof_C 	C 	0.8477	0.9009	0.1286	-0.117
Mof_H 	H 	0.8571	0.921	0.1405	0.079
Mof_C 	C 	0.8243	0.8986	0.0853	0.052
Mof_H 	H 	0.8175	0.917	0.0679	0.031
Mof_C 	C 	0.8108	0.869	0.0672	-0.127
Mof_C 	C 	0.8203	0.8424	0.0939	0.047
Mof_H 	H 	0.8108	0.8224	0.0821	0.027
Mof_C 	C 	0.8432	0.8451	0.1372	-0.121
Mof_H 	H 	0.8492	0.8268	0.155	0.068
Mof_C 	C 	0.7869	0.865	0.0196	0.388
Mof_O 	O 	0.0079	0.8703	0.4092	-0.517
Mof_O 	O 	0.7736	0.8899	0.9973	-0.498
Mof_O 	O 	0.7792	0.8374	0.0054	-0.492
Mof_C 	C 	0.1137	0.7754	0.439	0.08
Mof_C 	C 	0.1017	0.7451	0.4228	-0.137
Mof_H 	H 	0.0766	0.7402	0.411	0.074
Mof_C 	C 	0.1263	0.7224	0.4238	0.06
Mof_H 	H 	0.1177	0.702	0.4128	0.011
Mof_C 	C 	0.1632	0.7287	0.4404	-0.148
Mof_C 	C 	0.1756	0.7584	0.458	0.062
Mof_H 	H 	0.2009	0.7631	0.4702	0.028
Mof_C 	C 	0.1512	0.781	0.4577	-0.134
Mof_H 	H 	0.1601	0.8009	0.4705	0.083
Mof_C 	C 	0.1899	0.7042	0.4397	0.39
Mof_O 	O 	0.2225	0.7111	0.4547	-0.495
Mof_O 	O 	0.177	0.6781	0.4235	-0.52
Mof_Zn	Zn	0.49626	0.41164	0.37	1.19
Mof_Zn	Zn	0.4511	0.36507	0.38843	1.192
Mof_Zn	Zn	0.0226	0.63126	0.92127	1.193
Mof_Zn	Zn	0.98021	0.58404	0.94439	1.193
Mof_Zn	Zn	0.25266	0.32115	0.94588	1.207
Mof_Zn	Zn	0.24299	0.39548	0.93647	1.222
Mof_Zn	Zn	0.18062	0.34741	0.87309	1.18
Mof_Zn	Zn	0.25572	0.35505	0.86607	1.213
Mof_O 	O 	0.2345	0.3557	0.9058	-0.951
Mof_C 	C 	0.9138	0.5083	0.9815	-0.739
Mof_C 	C 	0.8813	0.5155	0.9838	0.474
Mof_H 	H 	0.8722	0.5365	0.9776	-0.116
Mof_C 	C 	0.8617	0.4934	0.9948	-0.439
Mof_H 	H 	0.8394	0.4992	0.9954	0.196
Mof_Br	Br	0.84987	0.43162	0.02128	-0.289
Mof_C 	C 	0.8748	0.463	0.0049	0.375
Mof_C 	C 	0.9069	0.4555	0.0036	-0.453
Mof_H 	H 	0.9162	0.4347	0.0107	0.188
Mof_C 	C 	0.926	0.4773	0.9923	0.479
Mof_H 	H 	0.9482	0.4711	0.9917	-0.134
Mof_B 	B 	0.9376	0.5326	0.9689	1.547
Mof_O 	O 	0.9101	0.5618	0.9453	-0.427
Mof_N 	N 	0.9267	0.5867	0.9387	-0.154
Mof_C 	C 	0.9037	0.612	0.925	0.032
Mof_H 	H 	0.8798	0.6091	0.9227	0.05
Mof_C 	C 	0.9125	0.6438	0.9132	-0.102
Mof_C 	C 	0.9435	0.6504	0.9067	0.225
Mof_C 	C 	0.948	0.682	0.8958	-0.112
Mof_C 	C 	0.9214	0.7048	0.8915	-0.005
Mof_H 	H 	0.9241	0.7257	0.8835	0.039
Mof_C 	C 	0.8914	0.6975	0.8987	-0.036
Mof_C 	C 	0.8869	0.6668	0.9093	-0.007
Mof_H 	H 	0.8662	0.6614	0.9138	0.037
Mof_C 	C 	0.9788	0.6932	0.8896	0.062
Mof_H 	H 	0.9788	0.7148	0.8824	0.048
Mof_N 	N 	0.0057	0.6768	0.8929	-0.149
Mof_O 	O 	0.0302	0.6939	0.8836	-0.548
Mof_B 	B 	0.0669	0.6805	0.8978	1.666
Mof_O 	O 	0.9659	0.5444	0.0093	-0.541
Mof_N 	N 	0.9893	0.5677	0.0071	-0.15
Mof_C 	C 	0.0141	0.5759	0.0433	0.054
Mof_H 	H 	0.013	0.5664	0.0676	0.046
Mof_C 	C 	0.0439	0.5976	0.0528	-0.102
Mof_C 	C 	0.05	0.6142	0.0202	0.209
Mof_C 	C 	0.0807	0.635	0.0337	-0.097
Mof_C 	C 	0.1041	0.6382	0.0779	-0.009
Mof_H 	H 	0.1247	0.6517	0.0866	0.047
Mof_C 	C 	0.0979	0.622	0.1089	-0.032
Mof_C 	C 	0.0678	0.6021	0.0964	-0.007
Mof_H 	H 	0.0633	0.5914	0.1178	0.036
Mof_C 	C 	0.089	0.6541	0.0043	0.055
Mof_H 	H 	0.1106	0.6664	0.0165	0.065
Mof_N 	N 	0.0703	0.6562	0.9638	-0.15
Mof_O 	O 	0.0856	0.6772	0.9444	-0.558
Mof_O 	O 	0.9484	0.519	0.9394	-0.584
Mof_N 	N 	0.9719	0.5357	0.9275	-0.146
Mof_C 	C 	0.9901	0.5183	0.9139	0.047
Mof_H 	H 	0.9859	0.4962	0.9134	0.057
Mof_C 	C 	0.0165	0.5286	0.8991	-0.093
Mof_C 	C 	0.0238	0.5613	0.8944	0.194
Mof_C 	C 	0.0513	0.5678	0.8803	-0.094
Mof_C 	C 	0.0715	0.5431	0.8737	-0.006
Mof_H 	H 	0.0897	0.548	0.8645	0.045
Mof_C 	C 	0.0652	0.5118	0.8805	-0.031
Mof_C 	C 	0.0372	0.5049	0.8917	-0.01
Mof_H 	H 	0.032	0.4834	0.8946	0.043
Mof_C 	C 	0.0611	0.5993	0.8732	0.06
Mof_H 	H 	0.0773	0.6009	0.8602	0.055
Mof_N 	N 	0.0504	0.625	0.8825	-0.155
Mof_O 	O 	0.0663	0.6522	0.8736	-0.557
Mof_C 	C 	0.0888	0.7065	0.8852	-0.788
Mof_C 	C 	0.0869	0.7094	0.8439	0.521
Mof_H 	H 	0.072	0.695	0.8224	-0.125
Mof_C 	C 	0.1058	0.7321	0.8331	-0.474
Mof_H 	H 	0.1042	0.7326	0.8048	0.213
Mof_Br	Br	0.155	0.78409	0.8499	-0.265
Mof_C 	C 	0.1266	0.7539	0.8628	0.403
Mof_C 	C 	0.1286	0.7529	0.9035	-0.473
Mof_H 	H 	0.1421	0.7684	0.9242	0.22
Mof_C 	C 	0.1105	0.7292	0.914	0.525
Mof_H 	H 	0.1131	0.7283	0.9427	-0.13
Mof_O 	O 	0.9678	0.6288	0.9123	-0.517
Mof_C 	C 	0.8659	0.7225	0.8987	0.082
Mof_C 	C 	0.8556	0.7242	0.9321	-0.129
Mof_H 	H 	0.8636	0.7085	0.9539	0.077
Mof_C 	C 	0.8336	0.7486	0.9337	0.06
Mof_H 	H 	0.8276	0.75	0.9573	0.028
Mof_C 	C 	0.8203	0.7712	0.9012	-0.139
Mof_C 	C 	0.8297	0.7687	0.8671	0.064
Mof_H 	H 	0.8201	0.7834	0.8441	0.03
Mof_C 	C 	0.8526	0.7452	0.8663	-0.13
Mof_H 	H 	0.8595	0.7445	0.8433	0.083
Mof_C 	C 	0.797	0.7981	0.9033	0.406
Mof_O 	O 	0.7896	0.7985	0.9352	-0.513
Mof_O 	O 	0.0281	0.61	0.979	-0.535
Mof_O 	O 	0.7862	0.8172	0.8731	-0.502
Mof_C 	C 	0.1217	0.6262	0.1556	0.084
Mof_C 	C 	0.1083	0.6231	0.1863	-0.133
Mof_H 	H 	0.0835	0.6177	0.1772	0.074
Mof_C 	C 	0.1303	0.6277	0.2296	0.065
Mof_H 	H 	0.1203	0.6263	0.2497	0.013
Mof_C 	C 	0.1673	0.6346	0.2438	-0.149
Mof_C 	C 	0.1809	0.6373	0.2136	0.069
Mof_H 	H 	0.206	0.6416	0.2227	0.03
Mof_C 	C 	0.1583	0.6337	0.1699	-0.131
Mof_H 	H 	0.1679	0.6365	0.1495	0.089
Mof_C 	C 	0.1917	0.6375	0.2913	0.404
Mof_O 	O 	0.0051	0.5843	0.9012	-0.504
Mof_O 	O 	0.1773	0.6334	0.3169	-0.514
Mof_O 	O 	0.2247	0.6425	0.3052	-0.5
Mof_C 	C 	0.0904	0.4865	0.8804	0.089
Mof_C 	C 	0.1272	0.4933	0.8952	-0.138
Mof_H 	H 	0.1355	0.5144	0.902	0.094
Mof_C 	C 	0.1516	0.4693	0.8999	0.068
Mof_H 	H 	0.1767	0.4742	0.9108	0.028
Mof_C 	C 	0.1401	0.4382	0.889	-0.138
Mof_C 	C 	0.1028	0.4318	0.8718	0.066
Mof_H 	H 	0.094	0.411	0.863	0.019
Mof_C 	C 	0.0786	0.456	0.8677	-0.135
Mof_H 	H 	0.0533	0.4516	0.8559	0.078
Mof_C 	C 	0.168	0.4123	0.8976	0.414
Mof_O 	O 	0.1555	0.3857	0.8818	-0.488
Mof_O 	O 	0.2009	0.4195	0.9191	-0.523
Mof_C 	C 	0.5697	0.4855	0.3415	-0.749
Mof_C 	C 	0.5552	0.5107	0.3131	0.499
Mof_H 	H 	0.5294	0.5123	0.298	-0.121
Mof_C 	C 	0.576	0.5333	0.3059	-0.468
Mof_H 	H 	0.5648	0.5494	0.2852	0.212
Mof_Br	Br	0.64245	0.56425	0.321	-0.276
Mof_C 	C 	0.6132	0.5323	0.3286	0.394
Mof_C 	C 	0.6289	0.5087	0.3577	-0.463
Mof_H 	H 	0.6546	0.508	0.3738	0.206
Mof_C 	C 	0.6076	0.4857	0.3638	0.484
Mof_H 	H 	0.6192	0.4694	0.384	-0.121
Mof_B 	B 	0.5455	0.4586	0.3486	1.524
Mof_O 	O 	0.5288	0.4768	0.3787	-0.404
Mof_N 	N 	0.5022	0.4607	0.3829	-0.159
Mof_C 	C 	0.4806	0.479	0.3935	0.035
Mof_H 	H 	0.4865	0.5008	0.398	0.051
Mof_C 	C 	0.448	0.4682	0.399	-0.102
Mof_C 	C 	0.4411	0.4361	0.4046	0.218
Mof_C 	C 	0.4101	0.4297	0.4121	-0.109
Mof_C 	C 	0.3879	0.455	0.4124	-0.001
Mof_H 	H 	0.3672	0.4503	0.4172	0.037
Mof_C 	C 	0.3942	0.4864	0.406	-0.037
Mof_C 	C 	0.425	0.4921	0.3999	-0.003
Mof_H 	H 	0.4307	0.5133	0.3961	0.037
Mof_C 	C 	0.3994	0.3983	0.4179	0.056
Mof_H 	H 	0.3792	0.3969	0.4246	0.052
Mof_N 	N 	0.4135	0.3723	0.4152	-0.152
Mof_O 	O 	0.3948	0.3456	0.4199	-0.541
Mof_B 	B 	0.404	0.3146	0.4066	1.726
Mof_O 	O 	0.5148	0.4517	0.3079	-0.545
Mof_N 	N 	0.4902	0.4289	0.3076	-0.144
Mof_C 	C 	0.4656	0.4224	0.2703	0.045
Mof_H 	H 	0.4664	0.4336	0.2469	0.061
Mof_C 	C 	0.4363	0.3995	0.2599	-0.106
Mof_C 	C 	0.4313	0.3798	0.2907	0.22
Mof_C 	C 	0.4009	0.3585	0.2756	-0.11
Mof_C 	C 	0.3781	0.357	0.2313	-0.008
Mof_H 	H 	0.3586	0.3423	0.2213	0.034
Mof_C 	C 	0.383	0.3761	0.2016	-0.034
Mof_C 	C 	0.4118	0.3972	0.2162	-0.01
Mof_H 	H 	0.4151	0.4104	0.196	0.04
Mof_C 	C 	0.3917	0.3381	0.3032	0.053
Mof_H 	H 	0.3717	0.3243	0.2893	0.047
Mof_N 	N 	0.4077	0.3369	0.3439	-0.138
Mof_O 	O 	0.3923	0.3157	0.3614	-0.607
Mof_O 	O 	0.5684	0.4341	0.3735	-0.578
Mof_N 	N 	0.5528	0.4088	0.3852	-0.15
Mof_C 	C 	0.5741	0.3855	0.3999	0.053
Mof_H 	H 	0.5979	0.3878	0.4017	0.047
Mof_C 	C 	0.566	0.3556	0.4142	-0.109
Mof_C 	C 	0.5329	0.3489	0.4175	0.217
Mof_C 	C 	0.5287	0.3177	0.4303	-0.11
Mof_C 	C 	0.5551	0.2945	0.4374	-0.004
Mof_H 	H 	0.5512	0.2737	0.445	0.033
Mof_C 	C 	0.587	0.301	0.4335	-0.039
Mof_C 	C 	0.5918	0.3313	0.4223	-0.007
Mof_H 	H 	0.6136	0.3361	0.4198	0.037
Mof_C 	C 	0.4967	0.307	0.435	0.056
Mof_H 	H 	0.4975	0.2867	0.4468	0.046
Mof_N 	N 	0.4676	0.323	0.4243	-0.141
Mof_O 	O 	0.442	0.3066	0.4311	-0.592
Mof_C 	C 	0.3798	0.2883	0.415	-0.82
Mof_C 	C 	0.3486	0.2749	0.3831	0.53
Mof_H 	H 	0.3399	0.2833	0.3548	-0.128
Mof_C 	C 	0.39	0.2752	0.4557	0.533
Mof_H 	H 	0.411	0.2835	0.479	-0.136
Mof_C 	C 	0.3294	0.2501	0.39	-0.483
Mof_H 	H 	0.3088	0.2413	0.3668	0.215
Mof_C 	C 	0.3714	0.2509	0.4639	-0.49
Mof_H 	H 	0.3796	0.2429	0.4922	0.225
Mof_Br	Br	0.31452	0.206	0.443	-0.27
Mof_C 	C 	0.3409	0.2385	0.4309	0.404
Mof_O 	O 	0.4617	0.4134	0.4023	-0.52
Mof_C 	C 	0.3691	0.512	0.4044	0.085
Mof_C 	C 	0.3678	0.5407	0.3842	-0.128
Mof_H 	H 	0.3843	0.5444	0.372	0.081
Mof_C 	C 	0.3433	0.564	0.3812	0.064
Mof_H 	H 	0.3431	0.5833	0.3671	0.03
Mof_C 	C 	0.3189	0.5596	0.3989	-0.133
Mof_C 	C 	0.3196	0.5308	0.4186	0.063
Mof_H 	H 	0.3028	0.5271	0.4303	0.03
Mof_C 	C 	0.3442	0.5076	0.4215	-0.127
Mof_H 	H 	0.3442	0.4882	0.4354	0.08
Mof_C 	C 	0.2928	0.5848	0.398	0.396
Mof_O 	O 	0.2908	0.6096	0.3777	-0.482
Mof_O 	O 	0.4544	0.3805	0.3311	-0.533
Mof_O 	O 	0.2734	0.5783	0.4176	-0.482
Mof_C 	C 	0.3576	0.3744	0.1552	0.073
Mof_C 	C 	0.3477	0.4009	0.1286	-0.117
Mof_H 	H 	0.3571	0.421	0.1405	0.079
Mof_C 	C 	0.3243	0.3986	0.0853	0.052
Mof_H 	H 	0.3175	0.417	0.0679	0.031
Mof_C 	C 	0.3108	0.369	0.0672	-0.127
Mof_C 	C 	0.3203	0.3424	0.0939	0.047
Mof_H 	H 	0.3108	0.3224	0.0821	0.027
Mof_C 	C 	0.3432	0.3451	0.1372	-0.121
Mof_H 	H 	0.3492	0.3268	0.155	0.068
Mof_C 	C 	0.2869	0.365	0.0196	0.388
Mof_O 	O 	0.5079	0.3703	0.4092	-0.517
Mof_O 	O 	0.2736	0.3899	0.9973	-0.497
Mof_O 	O 	0.2792	0.3374	0.0054	-0.492
Mof_C 	C 	0.6137	0.2754	0.439	0.08
Mof_C 	C 	0.6017	0.2451	0.4228	-0.137
Mof_H 	H 	0.5766	0.2402	0.411	0.074
Mof_C 	C 	0.6263	0.2224	0.4238	0.06
Mof_H 	H 	0.6177	0.202	0.4128	0.011
Mof_C 	C 	0.6632	0.2287	0.4404	-0.148
Mof_C 	C 	0.6756	0.2584	0.458	0.062
Mof_H 	H 	0.7009	0.2631	0.4702	0.028
Mof_C 	C 	0.6512	0.281	0.4577	-0.134
Mof_H 	H 	0.6601	0.3009	0.4705	0.083
Mof_C 	C 	0.6899	0.2042	0.4397	0.39
Mof_O 	O 	0.7225	0.2111	0.4547	-0.495
Mof_O 	O 	0.677	0.1781	0.4235	-0.52
Mof_Zn	Zn	0.99626	0.08836	0.87	1.19
Mof_Zn	Zn	0.9511	0.13493	0.88843	1.192
Mof_Zn	Zn	0.5226	0.86874	0.42127	1.193
Mof_Zn	Zn	0.48021	0.91596	0.44439	1.193
Mof_Zn	Zn	0.75266	0.17885	0.44588	1.207
Mof_Zn	Zn	0.74299	0.10452	0.43647	1.222
Mof_Zn	Zn	0.68062	0.15259	0.37309	1.18
Mof_Zn	Zn	0.75572	0.14495	0.36607	1.213
Mof_O 	O 	0.7345	0.1443	0.4058	-0.951
Mof_C 	C 	0.4138	0.9917	0.4815	-0.74
Mof_C 	C 	0.3813	0.9845	0.4838	0.475
Mof_H 	H 	0.3722	0.9635	0.4776	-0.116
Mof_C 	C 	0.3617	0.0066	0.4948	-0.439
Mof_H 	H 	0.3394	0.0008	0.4954	0.196
Mof_Br	Br	0.34987	0.06838	0.52128	-0.289
Mof_C 	C 	0.3748	0.037	0.5049	0.374
Mof_C 	C 	0.4069	0.0445	0.5036	-0.454
Mof_H 	H 	0.4162	0.0653	0.5107	0.188
Mof_C 	C 	0.426	0.0227	0.4923	0.48
Mof_H 	H 	0.4482	0.0289	0.4917	-0.134
Mof_B 	B 	0.4376	0.9674	0.4689	1.548
Mof_O 	O 	0.4101	0.9382	0.4453	-0.427
Mof_N 	N 	0.4267	0.9133	0.4387	-0.154
Mof_C 	C 	0.4037	0.888	0.425	0.032
Mof_H 	H 	0.3798	0.8909	0.4227	0.05
Mof_C 	C 	0.4125	0.8562	0.4132	-0.102
Mof_C 	C 	0.4435	0.8496	0.4067	0.225
Mof_C 	C 	0.448	0.818	0.3958	-0.112
Mof_C 	C 	0.4214	0.7952	0.3915	-0.004
Mof_H 	H 	0.4241	0.7743	0.3835	0.039
Mof_C 	C 	0.3914	0.8025	0.3987	-0.036
Mof_C 	C 	0.3869	0.8332	0.4093	-0.007
Mof_H 	H 	0.3662	0.8386	0.4138	0.037
Mof_C 	C 	0.4788	0.8068	0.3896	0.063
Mof_H 	H 	0.4788	0.7852	0.3824	0.048
Mof_N 	N 	0.5057	0.8232	0.3929	-0.15
Mof_O 	O 	0.5302	0.8061	0.3836	-0.548
Mof_B 	B 	0.5669	0.8195	0.3978	1.666
Mof_O 	O 	0.4659	0.9556	0.5093	-0.541
Mof_N 	N 	0.4893	0.9323	0.5071	-0.15
Mof_C 	C 	0.5141	0.9241	0.5433	0.054
Mof_H 	H 	0.513	0.9336	0.5676	0.046
Mof_C 	C 	0.5439	0.9024	0.5528	-0.103
Mof_C 	C 	0.55	0.8858	0.5202	0.21
Mof_C 	C 	0.5807	0.865	0.5337	-0.097
Mof_C 	C 	0.6041	0.8618	0.5779	-0.009
Mof_H 	H 	0.6247	0.8483	0.5866	0.047
Mof_C 	C 	0.5979	0.878	0.6089	-0.032
Mof_C 	C 	0.5678	0.8979	0.5964	-0.007
Mof_H 	H 	0.5633	0.9086	0.6178	0.036
Mof_C 	C 	0.589	0.8459	0.5043	0.056
Mof_H 	H 	0.6106	0.8336	0.5165	0.065
Mof_N 	N 	0.5703	0.8438	0.4638	-0.151
Mof_O 	O 	0.5856	0.8228	0.4444	-0.558
Mof_O 	O 	0.4484	0.981	0.4394	-0.584
Mof_N 	N 	0.4719	0.9643	0.4275	-0.146
Mof_C 	C 	0.4901	0.9817	0.4139	0.047
Mof_H 	H 	0.4859	0.0038	0.4134	0.057
Mof_C 	C 	0.5165	0.9714	0.3991	-0.094
Mof_C 	C 	0.5238	0.9387	0.3944	0.194
Mof_C 	C 	0.5513	0.9322	0.3803	-0.094
Mof_C 	C 	0.5715	0.9569	0.3737	-0.006
Mof_H 	H 	0.5897	0.952	0.3645	0.045
Mof_C 	C 	0.5652	0.9882	0.3805	-0.031
Mof_C 	C 	0.5372	0.9951	0.3917	-0.01
Mof_H 	H 	0.532	0.0166	0.3946	0.043
Mof_C 	C 	0.5611	0.9007	0.3732	0.06
Mof_H 	H 	0.5773	0.8991	0.3602	0.055
Mof_N 	N 	0.5504	0.875	0.3825	-0.155
Mof_O 	O 	0.5663	0.8478	0.3736	-0.557
Mof_C 	C 	0.5888	0.7935	0.3852	-0.788
Mof_C 	C 	0.5869	0.7906	0.3439	0.521
Mof_H 	H 	0.572	0.805	0.3224	-0.125
Mof_C 	C 	0.6058	0.7679	0.3331	-0.474
Mof_H 	H 	0.6042	0.7674	0.3048	0.213
Mof_Br	Br	0.655	0.71591	0.3499	-0.265
Mof_C 	C 	0.6266	0.7461	0.3628	0.403
Mof_C 	C 	0.6286	0.7471	0.4035	-0.473
Mof_H 	H 	0.6421	0.7316	0.4242	0.22
Mof_C 	C 	0.6105	0.7708	0.414	0.525
Mof_H 	H 	0.6131	0.7717	0.4427	-0.13
Mof_O 	O 	0.4678	0.8712	0.4123	-0.517
Mof_C 	C 	0.3659	0.7775	0.3987	0.082
Mof_C 	C 	0.3556	0.7758	0.4321	-0.129
Mof_H 	H 	0.3636	0.7915	0.4539	0.077
Mof_C 	C 	0.3336	0.7514	0.4337	0.06
Mof_H 	H 	0.3276	0.75	0.4573	0.028
Mof_C 	C 	0.3203	0.7288	0.4012	-0.138
Mof_C 	C 	0.3297	0.7313	0.3671	0.064
Mof_H 	H 	0.3201	0.7166	0.3441	0.03
Mof_C 	C 	0.3526	0.7548	0.3663	-0.13
Mof_H 	H 	0.3595	0.7555	0.3433	0.083
Mof_C 	C 	0.297	0.7019	0.4033	0.406
Mof_O 	O 	0.2896	0.7015	0.4352	-0.513
Mof_O 	O 	0.5281	0.89	0.479	-0.535
Mof_O 	O 	0.2862	0.6828	0.3731	-0.502
Mof_C 	C 	0.6217	0.8738	0.6556	0.084
Mof_C 	C 	0.6083	0.8769	0.6863	-0.133
Mof_H 	H 	0.5835	0.8823	0.6772	0.075
Mof_C 	C 	0.6303	0.8723	0.7296	0.065
Mof_H 	H 	0.6203	0.8737	0.7497	0.013
Mof_C 	C 	0.6673	0.8654	0.7438	-0.149
Mof_C 	C 	0.6809	0.8627	0.7136	0.069
Mof_H 	H 	0.706	0.8584	0.7227	0.03
Mof_C 	C 	0.6583	0.8663	0.6699	-0.131
Mof_H 	H 	0.6679	0.8635	0.6495	0.089
Mof_C 	C 	0.6917	0.8625	0.7913	0.404
Mof_O 	O 	0.5051	0.9157	0.4012	-0.504
Mof_O 	O 	0.6773	0.8666	0.8169	-0.514
Mof_O 	O 	0.7247	0.8575	0.8052	-0.5
Mof_C 	C 	0.5904	0.0135	0.3804	0.089
Mof_C 	C 	0.6272	0.0067	0.3952	-0.138
Mof_H 	H 	0.6355	0.9856	0.402	0.094
Mof_C 	C 	0.6516	0.0307	0.3999	0.068
Mof_H 	H 	0.6767	0.0258	0.4108	0.028
Mof_C 	C 	0.6401	0.0618	0.389	-0.138
Mof_C 	C 	0.6028	0.0682	0.3718	0.066
Mof_H 	H 	0.594	0.089	0.363	0.019
Mof_C 	C 	0.5786	0.044	0.3677	-0.135
Mof_H 	H 	0.5533	0.0484	0.3559	0.078
Mof_C 	C 	0.668	0.0877	0.3976	0.414
Mof_O 	O 	0.6555	0.1143	0.3818	-0.488
Mof_O 	O 	0.7009	0.0805	0.4191	-0.523
Mof_C 	C 	0.0697	0.0145	0.8415	-0.749
Mof_C 	C 	0.0552	0.9893	0.8131	0.499
Mof_H 	H 	0.0294	0.9877	0.798	-0.121
Mof_C 	C 	0.076	0.9667	0.8059	-0.468
Mof_H 	H 	0.0648	0.9506	0.7852	0.212
Mof_Br	Br	0.14245	0.93575	0.821	-0.276
Mof_C 	C 	0.1132	0.9677	0.8286	0.394
Mof_C 	C 	0.1289	0.9913	0.8577	-0.463
Mof_H 	H 	0.1546	0.992	0.8738	0.206
Mof_C 	C 	0.1076	0.0143	0.8638	0.484
Mof_H 	H 	0.1192	0.0306	0.884	-0.121
Mof_B 	B 	0.0455	0.0414	0.8486	1.524
Mof_O 	O 	0.0288	0.0232	0.8787	-0.404
Mof_N 	N 	0.0022	0.0393	0.8829	-0.158
Mof_C 	C 	0.9806	0.021	0.8935	0.034
Mof_H 	H 	0.9865	0.9992	0.898	0.051
Mof_C 	C 	0.948	0.0318	0.899	-0.102
Mof_C 	C 	0.9411	0.0639	0.9046	0.218
Mof_C 	C 	0.9101	0.0703	0.9121	-0.109
Mof_C 	C 	0.8879	0.045	0.9124	-0.001
Mof_H 	H 	0.8672	0.0497	0.9172	0.037
Mof_C 	C 	0.8942	0.0136	0.906	-0.037
Mof_C 	C 	0.925	0.0079	0.8999	-0.003
Mof_H 	H 	0.9307	0.9867	0.8961	0.037
Mof_C 	C 	0.8994	0.1017	0.9179	0.056
Mof_H 	H 	0.8792	0.1031	0.9246	0.052
Mof_N 	N 	0.9135	0.1277	0.9152	-0.152
Mof_O 	O 	0.8948	0.1544	0.9199	-0.541
Mof_B 	B 	0.904	0.1854	0.9066	1.726
Mof_O 	O 	0.0148	0.0483	0.8079	-0.544
Mof_N 	N 	0.9902	0.0711	0.8076	-0.144
Mof_C 	C 	0.9656	0.0776	0.7703	0.045
Mof_H 	H 	0.9664	0.0664	0.7469	0.061
Mof_C 	C 	0.9363	0.1005	0.7599	-0.106
Mof_C 	C 	0.9313	0.1202	0.7907	0.22
Mof_C 	C 	0.9009	0.1415	0.7756	-0.11
Mof_C 	C 	0.8781	0.143	0.7313	-0.008
Mof_H 	H 	0.8586	0.1577	0.7213	0.034
Mof_C 	C 	0.883	0.1239	0.7016	-0.034
Mof_C 	C 	0.9118	0.1028	0.7162	-0.01
Mof_H 	H 	0.9151	0.0896	0.696	0.04
Mof_C 	C 	0.8917	0.1619	0.8032	0.053
Mof_H 	H 	0.8717	0.1757	0.7893	0.047
Mof_N 	N 	0.9077	0.1631	0.8439	-0.138
Mof_O 	O 	0.8923	0.1843	0.8614	-0.607
Mof_O 	O 	0.0684	0.0659	0.8735	-0.578
Mof_N 	N 	0.0528	0.0912	0.8852	-0.15
Mof_C 	C 	0.0741	0.1145	0.8999	0.053
Mof_H 	H 	0.0979	0.1122	0.9017	0.047
Mof_C 	C 	0.066	0.1444	0.9142	-0.109
Mof_C 	C 	0.0329	0.1511	0.9175	0.217
Mof_C 	C 	0.0287	0.1823	0.9303	-0.11
Mof_C 	C 	0.0551	0.2055	0.9374	-0.005
Mof_H 	H 	0.0512	0.2263	0.945	0.034
Mof_C 	C 	0.087	0.199	0.9335	-0.039
Mof_C 	C 	0.0918	0.1687	0.9223	-0.008
Mof_H 	H 	0.1136	0.1639	0.9198	0.037
Mof_C 	C 	0.9967	0.193	0.935	0.055
Mof_H 	H 	0.9975	0.2133	0.9468	0.046
Mof_N 	N 	0.9676	0.177	0.9243	-0.141
Mof_O 	O 	0.942	0.1934	0.9311	-0.592
Mof_C 	C 	0.8798	0.2117	0.915	-0.82
Mof_C 	C 	0.8486	0.2251	0.8831	0.53
Mof_H 	H 	0.8399	0.2167	0.8548	-0.128
Mof_C 	C 	0.89	0.2248	0.9557	0.533
Mof_H 	H 	0.911	0.2165	0.979	-0.136
Mof_C 	C 	0.8294	0.2499	0.89	-0.483
Mof_H 	H 	0.8088	0.2587	0.8668	0.215
Mof_C 	C 	0.8714	0.2491	0.9639	-0.49
Mof_H 	H 	0.8796	0.2571	0.9922	0.224
Mof_Br	Br	0.81452	0.294	0.943	-0.27
Mof_C 	C 	0.8409	0.2615	0.9309	0.403
Mof_O 	O 	0.9617	0.0866	0.9023	-0.52
Mof_C 	C 	0.8691	0.988	0.9044	0.085
Mof_C 	C 	0.8678	0.9593	0.8842	-0.128
Mof_H 	H 	0.8843	0.9556	0.872	0.081
Mof_C 	C 	0.8433	0.936	0.8812	0.064
Mof_H 	H 	0.8431	0.9167	0.8671	0.03
Mof_C 	C 	0.8189	0.9404	0.8989	-0.133
Mof_C 	C 	0.8196	0.9692	0.9186	0.063
Mof_H 	H 	0.8028	0.9729	0.9303	0.03
Mof_C 	C 	0.8442	0.9924	0.9215	-0.127
Mof_H 	H 	0.8442	0.0118	0.9354	0.08
Mof_C 	C 	0.7928	0.9152	0.898	0.396
Mof_O 	O 	0.7908	0.8904	0.8777	-0.482
Mof_O 	O 	0.9544	0.1195	0.8311	-0.533
Mof_O 	O 	0.7734	0.9217	0.9176	-0.482
Mof_C 	C 	0.8576	0.1256	0.6552	0.073
Mof_C 	C 	0.8477	0.0991	0.6286	-0.117
Mof_H 	H 	0.8571	0.079	0.6405	0.079
Mof_C 	C 	0.8243	0.1014	0.5853	0.052
Mof_H 	H 	0.8175	0.083	0.5679	0.031
Mof_C 	C 	0.8108	0.131	0.5672	-0.127
Mof_C 	C 	0.8203	0.1576	0.5939	0.047
Mof_H 	H 	0.8108	0.1776	0.5821	0.027
Mof_C 	C 	0.8432	0.1549	0.6372	-0.121
Mof_H 	H 	0.8492	0.1732	0.655	0.068
Mof_C 	C 	0.7869	0.135	0.5196	0.388
Mof_O 	O 	0.0079	0.1297	0.9092	-0.516
Mof_O 	O 	0.7736	0.1101	0.4973	-0.497
Mof_O 	O 	0.7792	0.1626	0.5054	-0.491
Mof_C 	C 	0.1137	0.2246	0.939	0.08
Mof_C 	C 	0.1017	0.2549	0.9228	-0.137
Mof_H 	H 	0.0766	0.2598	0.911	0.074
Mof_C 	C 	0.1263	0.2776	0.9238	0.06
Mof_H 	H 	0.1177	0.298	0.9128	0.011
Mof_C 	C 	0.1632	0.2713	0.9404	-0.148
Mof_C 	C 	0.1756	0.2416	0.958	0.062
Mof_H 	H 	0.2009	0.2369	0.9702	0.028
Mof_C 	C 	0.1512	0.219	0.9577	-0.133
Mof_H 	H 	0.1601	0.1991	0.9705	0.083
Mof_C 	C 	0.1899	0.2958	0.9397	0.39
Mof_O 	O 	0.2225	0.2889	0.9547	-0.495
Mof_O 	O 	0.177	0.3219	0.9235	-0.52
Mof_Zn	Zn	0.49626	0.58836	0.87	1.19
Mof_Zn	Zn	0.4511	0.63493	0.88843	1.192
Mof_Zn	Zn	0.0226	0.36874	0.42127	1.193
Mof_Zn	Zn	0.98021	0.41596	0.44439	1.193
Mof_Zn	Zn	0.25266	0.67885	0.44588	1.207
Mof_Zn	Zn	0.24299	0.60452	0.43647	1.222
Mof_Zn	Zn	0.18062	0.65259	0.37309	1.18
Mof_Zn	Zn	0.25572	0.64495	0.36607	1.213
Mof_O 	O 	0.2345	0.6443	0.4058	-0.951
Mof_C 	C 	0.9138	0.4917	0.4815	-0.74
Mof_C 	C 	0.8813	0.4845	0.4838	0.475
Mof_H 	H 	0.8722	0.4635	0.4776	-0.116
Mof_C 	C 	0.8617	0.5066	0.4948	-0.439
Mof_H 	H 	0.8394	0.5008	0.4954	0.196
Mof_Br	Br	0.84987	0.56838	0.52128	-0.289
Mof_C 	C 	0.8748	0.537	0.5049	0.374
Mof_C 	C 	0.9069	0.5445	0.5036	-0.454
Mof_H 	H 	0.9162	0.5653	0.5107	0.188
Mof_C 	C 	0.926	0.5227	0.4923	0.48
Mof_H 	H 	0.9482	0.5289	0.4917	-0.134
Mof_B 	B 	0.9376	0.4674	0.4689	1.548
Mof_O 	O 	0.9101	0.4382	0.4453	-0.427
Mof_N 	N 	0.9267	0.4133	0.4387	-0.154
Mof_C 	C 	0.9037	0.388	0.425	0.032
Mof_H 	H 	0.8798	0.3909	0.4227	0.05
Mof_C 	C 	0.9125	0.3562	0.4132	-0.102
Mof_C 	C 	0.9435	0.3496	0.4067	0.225
Mof_C 	C 	0.948	0.318	0.3958	-0.112
Mof_C 	C 	0.9214	0.2952	0.3915	-0.004
Mof_H 	H 	0.9241	0.2743	0.3835	0.039
Mof_C 	C 	0.8914	0.3025	0.3987	-0.036
Mof_C 	C 	0.8869	0.3332	0.4093	-0.007
Mof_H 	H 	0.8662	0.3386	0.4138	0.037
Mof_C 	C 	0.9788	0.3068	0.3896	0.063
Mof_H 	H 	0.9788	0.2852	0.3824	0.048
Mof_N 	N 	0.0057	0.3232	0.3929	-0.15
Mof_O 	O 	0.0302	0.3061	0.3836	-0.548
Mof_B 	B 	0.0669	0.3195	0.3978	1.666
Mof_O 	O 	0.9659	0.4556	0.5093	-0.541
Mof_N 	N 	0.9893	0.4323	0.5071	-0.15
Mof_C 	C 	0.0141	0.4241	0.5433	0.054
Mof_H 	H 	0.013	0.4336	0.5676	0.046
Mof_C 	C 	0.0439	0.4024	0.5528	-0.103
Mof_C 	C 	0.05	0.3858	0.5202	0.21
Mof_C 	C 	0.0807	0.365	0.5337	-0.097
Mof_C 	C 	0.1041	0.3618	0.5779	-0.009
Mof_H 	H 	0.1247	0.3483	0.5866	0.047
Mof_C 	C 	0.0979	0.378	0.6089	-0.032
Mof_C 	C 	0.0678	0.3979	0.5964	-0.007
Mof_H 	H 	0.0633	0.4086	0.6178	0.036
Mof_C 	C 	0.089	0.3459	0.5043	0.056
Mof_H 	H 	0.1106	0.3336	0.5165	0.065
Mof_N 	N 	0.0703	0.3438	0.4638	-0.151
Mof_O 	O 	0.0856	0.3228	0.4444	-0.558
Mof_O 	O 	0.9484	0.481	0.4394	-0.584
Mof_N 	N 	0.9719	0.4643	0.4275	-0.146
Mof_C 	C 	0.9901	0.4817	0.4139	0.048
Mof_H 	H 	0.9859	0.5038	0.4134	0.057
Mof_C 	C 	0.0165	0.4714	0.3991	-0.094
Mof_C 	C 	0.0238	0.4387	0.3944	0.194
Mof_C 	C 	0.0513	0.4322	0.3803	-0.094
Mof_C 	C 	0.0715	0.4569	0.3737	-0.006
Mof_H 	H 	0.0897	0.452	0.3645	0.045
Mof_C 	C 	0.0652	0.4882	0.3805	-0.031
Mof_C 	C 	0.0372	0.4951	0.3917	-0.01
Mof_H 	H 	0.032	0.5166	0.3946	0.043
Mof_C 	C 	0.0611	0.4007	0.3732	0.06
Mof_H 	H 	0.0773	0.3991	0.3602	0.055
Mof_N 	N 	0.0504	0.375	0.3825	-0.155
Mof_O 	O 	0.0663	0.3478	0.3736	-0.557
Mof_C 	C 	0.0888	0.2935	0.3852	-0.788
Mof_C 	C 	0.0869	0.2906	0.3439	0.521
Mof_H 	H 	0.072	0.305	0.3224	-0.125
Mof_C 	C 	0.1058	0.2679	0.3331	-0.474
Mof_H 	H 	0.1042	0.2674	0.3048	0.213
Mof_Br	Br	0.155	0.21591	0.3499	-0.265
Mof_C 	C 	0.1266	0.2461	0.3628	0.403
Mof_C 	C 	0.1286	0.2471	0.4035	-0.473
Mof_H 	H 	0.1421	0.2316	0.4242	0.22
Mof_C 	C 	0.1105	0.2708	0.414	0.525
Mof_H 	H 	0.1131	0.2717	0.4427	-0.13
Mof_O 	O 	0.9678	0.3712	0.4123	-0.517
Mof_C 	C 	0.8659	0.2775	0.3987	0.082
Mof_C 	C 	0.8556	0.2758	0.4321	-0.129
Mof_H 	H 	0.8636	0.2915	0.4539	0.077
Mof_C 	C 	0.8336	0.2514	0.4337	0.06
Mof_H 	H 	0.8276	0.25	0.4573	0.028
Mof_C 	C 	0.8203	0.2288	0.4012	-0.138
Mof_C 	C 	0.8297	0.2313	0.3671	0.064
Mof_H 	H 	0.8201	0.2166	0.3441	0.03
Mof_C 	C 	0.8526	0.2548	0.3663	-0.13
Mof_H 	H 	0.8595	0.2555	0.3433	0.083
Mof_C 	C 	0.797	0.2019	0.4033	0.406
Mof_O 	O 	0.7896	0.2015	0.4352	-0.513
Mof_O 	O 	0.0281	0.39	0.479	-0.535
Mof_O 	O 	0.7862	0.1828	0.3731	-0.502
Mof_C 	C 	0.1217	0.3738	0.6556	0.084
Mof_C 	C 	0.1083	0.3769	0.6863	-0.133
Mof_H 	H 	0.0835	0.3823	0.6772	0.075
Mof_C 	C 	0.1303	0.3723	0.7296	0.065
Mof_H 	H 	0.1203	0.3737	0.7497	0.013
Mof_C 	C 	0.1673	0.3654	0.7438	-0.149
Mof_C 	C 	0.1809	0.3627	0.7136	0.069
Mof_H 	H 	0.206	0.3584	0.7227	0.03
Mof_C 	C 	0.1583	0.3663	0.6699	-0.131
Mof_H 	H 	0.1679	0.3635	0.6495	0.089
Mof_C 	C 	0.1917	0.3625	0.7913	0.404
Mof_O 	O 	0.0051	0.4157	0.4012	-0.504
Mof_O 	O 	0.1773	0.3666	0.8169	-0.514
Mof_O 	O 	0.2247	0.3575	0.8052	-0.5
Mof_C 	C 	0.0904	0.5135	0.3804	0.089
Mof_C 	C 	0.1272	0.5067	0.3952	-0.138
Mof_H 	H 	0.1355	0.4856	0.402	0.094
Mof_C 	C 	0.1516	0.5307	0.3999	0.068
Mof_H 	H 	0.1767	0.5258	0.4108	0.028
Mof_C 	C 	0.1401	0.5618	0.389	-0.138
Mof_C 	C 	0.1028	0.5682	0.3718	0.066
Mof_H 	H 	0.094	0.589	0.363	0.019
Mof_C 	C 	0.0786	0.544	0.3677	-0.135
Mof_H 	H 	0.0533	0.5484	0.3559	0.078
Mof_C 	C 	0.168	0.5877	0.3976	0.414
Mof_O 	O 	0.1555	0.6143	0.3818	-0.488
Mof_O 	O 	0.2009	0.5805	0.4191	-0.523
Mof_C 	C 	0.5697	0.5145	0.8415	-0.749
Mof_C 	C 	0.5552	0.4893	0.8131	0.499
Mof_H 	H 	0.5294	0.4877	0.798	-0.121
Mof_C 	C 	0.576	0.4667	0.8059	-0.468
Mof_H 	H 	0.5648	0.4506	0.7852	0.212
Mof_Br	Br	0.64245	0.43575	0.821	-0.276
Mof_C 	C 	0.6132	0.4677	0.8286	0.394
Mof_C 	C 	0.6289	0.4913	0.8577	-0.463
Mof_H 	H 	0.6546	0.492	0.8738	0.206
Mof_C 	C 	0.6076	0.5143	0.8638	0.484
Mof_H 	H 	0.6192	0.5306	0.884	-0.121
Mof_B 	B 	0.5455	0.5414	0.8486	1.524
Mof_O 	O 	0.5288	0.5232	0.8787	-0.404
Mof_N 	N 	0.5022	0.5393	0.8829	-0.159
Mof_C 	C 	0.4806	0.521	0.8935	0.035
Mof_H 	H 	0.4865	0.4992	0.898	0.051
Mof_C 	C 	0.448	0.5318	0.899	-0.102
Mof_C 	C 	0.4411	0.5639	0.9046	0.218
Mof_C 	C 	0.4101	0.5703	0.9121	-0.109
Mof_C 	C 	0.3879	0.545	0.9124	-0.001
Mof_H 	H 	0.3672	0.5497	0.9172	0.037
Mof_C 	C 	0.3942	0.5136	0.906	-0.037
Mof_C 	C 	0.425	0.5079	0.8999	-0.003
Mof_H 	H 	0.4307	0.4867	0.8961	0.037
Mof_C 	C 	0.3994	0.6017	0.9179	0.056
Mof_H 	H 	0.3792	0.6031	0.9246	0.052
Mof_N 	N 	0.4135	0.6277	0.9152	-0.152
Mof_O 	O 	0.3948	0.6544	0.9199	-0.541
Mof_B 	B 	0.404	0.6854	0.9066	1.726
Mof_O 	O 	0.5148	0.5483	0.8079	-0.545
Mof_N 	N 	0.4902	0.5711	0.8076	-0.144
Mof_C 	C 	0.4656	0.5776	0.7703	0.045
Mof_H 	H 	0.4664	0.5664	0.7469	0.061
Mof_C 	C 	0.4363	0.6005	0.7599	-0.106
Mof_C 	C 	0.4313	0.6202	0.7907	0.22
Mof_C 	C 	0.4009	0.6415	0.7756	-0.11
Mof_C 	C 	0.3781	0.643	0.7313	-0.008
Mof_H 	H 	0.3586	0.6577	0.7213	0.034
Mof_C 	C 	0.383	0.6239	0.7016	-0.034
Mof_C 	C 	0.4118	0.6028	0.7162	-0.01
Mof_H 	H 	0.4151	0.5896	0.696	0.04
Mof_C 	C 	0.3917	0.6619	0.8032	0.053
Mof_H 	H 	0.3717	0.6757	0.7893	0.047
Mof_N 	N 	0.4077	0.6631	0.8439	-0.138
Mof_O 	O 	0.3923	0.6843	0.8614	-0.607
Mof_O 	O 	0.5684	0.5659	0.8735	-0.578
Mof_N 	N 	0.5528	0.5912	0.8852	-0.15
Mof_C 	C 	0.5741	0.6145	0.8999	0.053
Mof_H 	H 	0.5979	0.6122	0.9017	0.047
Mof_C 	C 	0.566	0.6444	0.9142	-0.109
Mof_C 	C 	0.5329	0.6511	0.9175	0.217
Mof_C 	C 	0.5287	0.6823	0.9303	-0.111
Mof_C 	C 	0.5551	0.7055	0.9374	-0.004
Mof_H 	H 	0.5512	0.7263	0.945	0.033
Mof_C 	C 	0.587	0.699	0.9335	-0.039
Mof_C 	C 	0.5918	0.6687	0.9223	-0.007
Mof_H 	H 	0.6136	0.6639	0.9198	0.037
Mof_C 	C 	0.4967	0.693	0.935	0.056
Mof_H 	H 	0.4975	0.7133	0.9468	0.046
Mof_N 	N 	0.4676	0.677	0.9243	-0.141
Mof_O 	O 	0.442	0.6934	0.9311	-0.592
Mof_C 	C 	0.3798	0.7117	0.915	-0.82
Mof_C 	C 	0.3486	0.7251	0.8831	0.53
Mof_H 	H 	0.3399	0.7167	0.8548	-0.128
Mof_C 	C 	0.39	0.7248	0.9557	0.533
Mof_H 	H 	0.411	0.7165	0.979	-0.136
Mof_C 	C 	0.3294	0.7499	0.89	-0.483
Mof_H 	H 	0.3088	0.7587	0.8668	0.215
Mof_C 	C 	0.3714	0.7491	0.9639	-0.49
Mof_H 	H 	0.3796	0.7571	0.9922	0.225
Mof_Br	Br	0.31452	0.794	0.943	-0.27
Mof_C 	C 	0.3409	0.7615	0.9309	0.404
Mof_O 	O 	0.4617	0.5866	0.9023	-0.52
Mof_C 	C 	0.3691	0.488	0.9044	0.085
Mof_C 	C 	0.3678	0.4593	0.8842	-0.128
Mof_H 	H 	0.3843	0.4556	0.872	0.081
Mof_C 	C 	0.3433	0.436	0.8812	0.064
Mof_H 	H 	0.3431	0.4167	0.8671	0.03
Mof_C 	C 	0.3189	0.4404	0.8989	-0.133
Mof_C 	C 	0.3196	0.4692	0.9186	0.063
Mof_H 	H 	0.3028	0.4729	0.9303	0.03
Mof_C 	C 	0.3442	0.4924	0.9215	-0.127
Mof_H 	H 	0.3442	0.5118	0.9354	0.08
Mof_C 	C 	0.2928	0.4152	0.898	0.396
Mof_O 	O 	0.2908	0.3904	0.8777	-0.482
Mof_O 	O 	0.4544	0.6195	0.8311	-0.533
Mof_O 	O 	0.2734	0.4217	0.9176	-0.482
Mof_C 	C 	0.3576	0.6256	0.6552	0.073
Mof_C 	C 	0.3477	0.5991	0.6286	-0.117
Mof_H 	H 	0.3571	0.579	0.6405	0.079
Mof_C 	C 	0.3243	0.6014	0.5853	0.052
Mof_H 	H 	0.3175	0.583	0.5679	0.031
Mof_C 	C 	0.3108	0.631	0.5672	-0.127
Mof_C 	C 	0.3203	0.6576	0.5939	0.047
Mof_H 	H 	0.3108	0.6776	0.5821	0.027
Mof_C 	C 	0.3432	0.6549	0.6372	-0.121
Mof_H 	H 	0.3492	0.6732	0.655	0.068
Mof_C 	C 	0.2869	0.635	0.5196	0.388
Mof_O 	O 	0.5079	0.6297	0.9092	-0.517
Mof_O 	O 	0.2736	0.6101	0.4973	-0.497
Mof_O 	O 	0.2792	0.6626	0.5054	-0.491
Mof_C 	C 	0.6137	0.7246	0.939	0.08
Mof_C 	C 	0.6017	0.7549	0.9228	-0.137
Mof_H 	H 	0.5766	0.7598	0.911	0.074
Mof_C 	C 	0.6263	0.7776	0.9238	0.06
Mof_H 	H 	0.6177	0.798	0.9128	0.011
Mof_C 	C 	0.6632	0.7713	0.9404	-0.148
Mof_C 	C 	0.6756	0.7416	0.958	0.062
Mof_H 	H 	0.7009	0.7369	0.9702	0.028
Mof_C 	C 	0.6512	0.719	0.9577	-0.134
Mof_H 	H 	0.6601	0.6991	0.9705	0.083
Mof_C 	C 	0.6899	0.7958	0.9397	0.39
Mof_O 	O 	0.7225	0.7889	0.9547	-0.495
Mof_O 	O 	0.677	0.8219	0.9235	-0.52
_end
