data_functionalizedCrystal
_audit_creation_method	'EQeq! by Chris Wilmer'
_symmetry_space_group_name_H-M	'P1'
_symmetry_Int_Tables_number	1
_symmetry_cell_setting	triclinic
loop_
_symmetry_equiv_pos_as_xyz
  x,y,z
_cell_length_a	15.7672
_cell_length_b	15.7672
_cell_length_c	16.6814
_cell_angle_alpha	90
_cell_angle_beta	90
_cell_angle_gamma	120
loop_
_atom_site_label
_atom_site_type_symbol
_atom_site_fract_x
_atom_site_fract_y
_atom_site_fract_z
_atom_site_charge
Mof_O 	O 	0.837	0.4883	0.6596	-0.358
Mof_C 	C 	0.9696	0.5607	0.5327	0.065
Mof_O 	O 	0.934	0.6201	0.5604	-0.158
Mof_O 	O 	0.5117	0.3487	0.6596	-0.359
Mof_C 	C 	0.4393	0.4089	0.5327	0.118
Mof_O 	O 	0.3799	0.3139	0.5604	-0.153
Mof_O 	O 	0.6513	0.163	0.6596	-0.363
Mof_C 	C 	0.5911	0.0304	0.5327	0.171
Mof_O 	O 	0.6861	0.066	0.5604	-0.16
Mof_O 	O 	0.163	0.5117	0.1596	-0.363
Mof_C 	C 	0.0304	0.4393	0.0327	0.171
Mof_O 	O 	0.066	0.3799	0.0604	-0.156
Mof_O 	O 	0.4883	0.6513	0.1596	-0.361
Mof_C 	C 	0.5607	0.5911	0.0327	0.117
Mof_O 	O 	0.6201	0.6861	0.0604	-0.162
Mof_O 	O 	0.3487	0.837	0.1596	-0.359
Mof_C 	C 	0.4089	0.9696	0.0327	0.066
Mof_O 	O 	0.3139	0.934	0.0604	-0.154
Mof_O 	O 	0.4883	0.837	0.3404	-0.359
Mof_C 	C 	0.5607	0.9696	0.4673	0.064
Mof_O 	O 	0.6201	0.934	0.4396	-0.159
Mof_O 	O 	0.3487	0.5117	0.3404	-0.36
Mof_C 	C 	0.4089	0.4393	0.4673	0.118
Mof_O 	O 	0.3139	0.3799	0.4396	-0.153
Mof_O 	O 	0.163	0.6513	0.3404	-0.363
Mof_C 	C 	0.0304	0.5911	0.4673	0.171
Mof_O 	O 	0.066	0.6861	0.4396	-0.16
Mof_O 	O 	0.5117	0.163	0.8404	-0.363
Mof_C 	C 	0.4393	0.0304	0.9673	0.171
Mof_O 	O 	0.3799	0.066	0.9396	-0.156
Mof_O 	O 	0.6513	0.4883	0.8404	-0.361
Mof_C 	C 	0.5911	0.5607	0.9673	0.117
Mof_O 	O 	0.6861	0.6201	0.9396	-0.162
Mof_O 	O 	0.837	0.3487	0.8404	-0.359
Mof_C 	C 	0.9696	0.4089	0.9673	0.066
Mof_O 	O 	0.934	0.3139	0.9396	-0.154
Mof_O 	O 	0.163	0.5117	0.3404	-0.363
Mof_C 	C 	0.0304	0.4393	0.4673	0.172
Mof_O 	O 	0.066	0.3799	0.4396	-0.156
Mof_O 	O 	0.4883	0.6513	0.3404	-0.361
Mof_C 	C 	0.5607	0.5911	0.4673	0.117
Mof_O 	O 	0.6201	0.6861	0.4396	-0.162
Mof_O 	O 	0.3487	0.837	0.3404	-0.359
Mof_C 	C 	0.4089	0.9696	0.4673	0.064
Mof_O 	O 	0.3139	0.934	0.4396	-0.155
Mof_O 	O 	0.837	0.4883	0.8404	-0.359
Mof_C 	C 	0.9696	0.5607	0.9673	0.065
Mof_O 	O 	0.934	0.6201	0.9396	-0.159
Mof_O 	O 	0.5117	0.3487	0.8404	-0.36
Mof_C 	C 	0.4393	0.4089	0.9673	0.118
Mof_O 	O 	0.3799	0.3139	0.9396	-0.153
Mof_O 	O 	0.6513	0.163	0.8404	-0.363
Mof_C 	C 	0.5911	0.0304	0.9673	0.171
Mof_O 	O 	0.6861	0.066	0.9396	-0.16
Mof_O 	O 	0.5117	0.163	0.6596	-0.363
Mof_C 	C 	0.4393	0.0304	0.5327	0.172
Mof_O 	O 	0.3799	0.066	0.5604	-0.156
Mof_O 	O 	0.6513	0.4883	0.6596	-0.361
Mof_C 	C 	0.5911	0.5607	0.5327	0.117
Mof_O 	O 	0.6861	0.6201	0.5604	-0.162
Mof_O 	O 	0.837	0.3487	0.6596	-0.359
Mof_C 	C 	0.9696	0.4089	0.5327	0.064
Mof_O 	O 	0.934	0.3139	0.5604	-0.155
Mof_O 	O 	0.4883	0.837	0.1596	-0.359
Mof_C 	C 	0.5607	0.9696	0.0327	0.065
Mof_O 	O 	0.6201	0.934	0.0604	-0.159
Mof_O 	O 	0.3487	0.5117	0.1596	-0.36
Mof_C 	C 	0.4089	0.4393	0.0327	0.118
Mof_O 	O 	0.3139	0.3799	0.0604	-0.153
Mof_O 	O 	0.163	0.6513	0.1596	-0.363
Mof_C 	C 	0.0304	0.5911	0.0327	0.171
Mof_O 	O 	0.066	0.6861	0.0604	-0.16
Mof_Fe	Fe	0.74206	0.48411	0.75	0.923
Mof_N 	N 	0.8217	0.6434	0.75	-0.22
Mof_Fe	Fe	0.51589	0.25794	0.75	0.927
Mof_N 	N 	0.3566	0.1783	0.75	-0.219
Mof_Fe	Fe	0.74206	0.25794	0.75	0.925
Mof_N 	N 	0.8217	0.1783	0.75	-0.219
Mof_Fe	Fe	0.25794	0.51589	0.25	0.927
Mof_N 	N 	0.1783	0.3566	0.25	-0.219
Mof_Fe	Fe	0.48411	0.74206	0.25	0.923
Mof_N 	N 	0.6434	0.8217	0.25	-0.22
Mof_Fe	Fe	0.25794	0.74206	0.25	0.925
Mof_N 	N 	0.1783	0.8217	0.25	-0.219
Mof_O 	O 	0.66667	0.33333	0.75	-0.435
Mof_O 	O 	0.33333	0.66667	0.25	-0.435
Mof_C 	C 	0.8633	0.43165	0.6333	0.421
Mof_C 	C 	0.9345	0.46725	0.5644	-0.127
Mof_C 	C 	0.56835	0.43165	0.6333	0.433
Mof_C 	C 	0.53275	0.46725	0.5644	-0.154
Mof_C 	C 	0.56835	0.1367	0.6333	0.445
Mof_C 	C 	0.53275	0.0655	0.5644	-0.182
Mof_C 	C 	0.1367	0.56835	0.1333	0.445
Mof_C 	C 	0.0655	0.53275	0.0644	-0.181
Mof_C 	C 	0.43165	0.56835	0.1333	0.433
Mof_C 	C 	0.46725	0.53275	0.0644	-0.154
Mof_C 	C 	0.43165	0.8633	0.1333	0.422
Mof_C 	C 	0.46725	0.9345	0.0644	-0.127
Mof_C 	C 	0.43165	0.8633	0.3667	0.421
Mof_C 	C 	0.46725	0.9345	0.4356	-0.127
Mof_C 	C 	0.43165	0.56835	0.3667	0.433
Mof_C 	C 	0.46725	0.53275	0.4356	-0.154
Mof_C 	C 	0.1367	0.56835	0.3667	0.445
Mof_C 	C 	0.0655	0.53275	0.4356	-0.182
Mof_C 	C 	0.56835	0.1367	0.8667	0.445
Mof_C 	C 	0.53275	0.0655	0.9356	-0.181
Mof_C 	C 	0.56835	0.43165	0.8667	0.433
Mof_C 	C 	0.53275	0.46725	0.9356	-0.154
Mof_C 	C 	0.8633	0.43165	0.8667	0.422
Mof_C 	C 	0.9345	0.46725	0.9356	-0.127
Mof_N 	N 	0.9404	0.7945	0.75	-0.239
Mof_C 	C 	0.909	0.7002	0.75	0.172
Mof_H 	H 	0.9531	0.6774	0.75	-0.03
Mof_N 	N 	0.2055	0.1459	0.75	-0.222
Mof_C 	C 	0.2998	0.2088	0.75	0.176
Mof_H 	H 	0.3226	0.2757	0.75	-0.022
Mof_N 	N 	0.8541	0.0596	0.75	-0.222
Mof_C 	C 	0.7912	0.091	0.75	0.174
Mof_H 	H 	0.7243	0.0469	0.75	-0.018
Mof_N 	N 	0.0596	0.2055	0.25	-0.216
Mof_C 	C 	0.091	0.2998	0.25	0.176
Mof_H 	H 	0.0469	0.3226	0.25	-0.016
Mof_N 	N 	0.7945	0.8541	0.25	-0.234
Mof_C 	C 	0.7002	0.7912	0.25	0.171
Mof_H 	H 	0.6774	0.7243	0.25	-0.025
Mof_N 	N 	0.1459	0.9404	0.25	-0.234
Mof_C 	C 	0.2088	0.909	0.25	0.174
Mof_H 	H 	0.2757	0.9531	0.25	-0.029
Mof_N 	N 	0.7945	0.9404	0.25	-0.239
Mof_C 	C 	0.7002	0.909	0.25	0.172
Mof_H 	H 	0.6774	0.9531	0.25	-0.03
Mof_N 	N 	0.1459	0.2055	0.25	-0.222
Mof_C 	C 	0.2088	0.2998	0.25	0.176
Mof_H 	H 	0.2757	0.3226	0.25	-0.022
Mof_N 	N 	0.0596	0.8541	0.25	-0.222
Mof_C 	C 	0.091	0.7912	0.25	0.174
Mof_H 	H 	0.0469	0.7243	0.25	-0.018
Mof_N 	N 	0.2055	0.0596	0.75	-0.216
Mof_C 	C 	0.2998	0.091	0.75	0.176
Mof_H 	H 	0.3226	0.0469	0.75	-0.016
Mof_N 	N 	0.8541	0.7945	0.75	-0.234
Mof_C 	C 	0.7912	0.7002	0.75	0.171
Mof_H 	H 	0.7243	0.6774	0.75	-0.025
Mof_N 	N 	0.9404	0.1459	0.75	-0.234
Mof_C 	C 	0.909	0.2088	0.75	0.174
Mof_H 	H 	0.9531	0.2757	0.75	-0.029
Mof_Cu	Cu	0.07467	0.92533	0.75	0.815
Mof_Cu	Cu	0.07467	0.14934	0.75	0.833
Mof_Cu	Cu	0.85066	0.92533	0.75	0.8
Mof_Cu	Cu	0.92533	0.07467	0.25	0.815
Mof_Cu	Cu	0.92533	0.85066	0.25	0.8
Mof_Cu	Cu	0.14934	0.07467	0.25	0.833
Mof_O 	O 	-7.02875e-33	0	0.75	-0.537
Mof_O 	O 	3.51438e-33	7.02875e-33	0.25	-0.537
_end
