# CIF file generated by openbabel 3.1.0, see https://openbabel.org
data_I
_chemical_name_common 'image0'
_cell_length_a 12.88
_cell_length_b 16.861
_cell_length_c 17.325
_cell_angle_alpha 75.74
_cell_angle_beta 73.26
_cell_angle_gamma 68.59
_space_group_name_H-M_alt 'P 1'
_space_group_name_Hall 'P 1'
loop_
    _symmetry_equiv_pos_as_xyz
    x,y,z
loop_
    _atom_site_label
    _atom_site_type_symbol
    _atom_site_fract_x
    _atom_site_fract_y
    _atom_site_fract_z
    _atom_site_occupancy
    Zn1      Zn       0.53051    0.68192    0.95001    1.000
    Zn2      Zn       0.64905    0.55494    0.82225    1.000
    Zn3      Zn       0.38429    0.62491    0.86133    1.000
    N1       N        0.74640    0.61060    0.84550    1.000
    N2       N        0.70210    0.65570    0.90820    1.000
    O1       O        0.51390    0.59072    0.90819    1.000
    O2       O        0.57780    0.53550    0.08254    1.000
    O3       O        0.49340    0.67990    0.06800    1.000
    O4       O        0.43500    0.61650    0.74210    1.000
    O5       O        0.62450    0.58770    0.71100    1.000
    O6       O        0.42800    0.79650    0.91590    1.000
    O7       O        0.34080    0.75670    0.84500    1.000
    O8       O        0.71800    0.43070    0.82610    1.000
    O9       O        0.67230    0.40390    0.96368    1.000
    C1       C        0.53820    0.60520    0.11030    1.000
    C2       C        0.53200    0.60720    0.60509    1.000
    C3       C        0.43080    0.62450    0.58112    1.000
    H1       H        0.36010    0.63540    0.62010    1.000
    C4       C        0.43290    0.62590    0.50014    1.000
    H2       H        0.36370    0.63770    0.48380    1.000
    C5       C        0.53630    0.60990    0.44312    1.000
    C6       C        0.63750    0.59270    0.46709    1.000
    H3       H        0.70810    0.58180    0.42810    1.000
    C7       C        0.63540    0.59130    0.54808    1.000
    H4       H        0.70450    0.57950    0.56450    1.000
    C8       C        0.81700    0.29533    0.89237    1.000
    C9       C        0.86850    0.26620    0.81780    1.000
    H5       H        0.84460    0.30010    0.76960    1.000
    C10      C        0.95490    0.18730    0.81370    1.000
    H6       H        0.99000    0.16740    0.76270    1.000
    C11      C        0.98980    0.13760    0.88417    1.000
    C12      C        0.93830    0.16677    0.95874    1.000
    H7       H        0.96220    0.13280    0.00690    1.000
    C13      C        0.85190    0.24560    0.96284    1.000
    H8       H        0.81670    0.26560    0.01380    1.000
    C14      C        0.00369    0.63200    0.87805    1.000
    C15      C        0.06620    0.66900    0.80832    1.000
    H9       H        0.03390    0.69610    0.76190    1.000
    C16      C        0.17590    0.66640    0.80656    1.000
    H10      H        0.21860    0.69170    0.75890    1.000
    N3       N        0.22321    0.62678    0.87453    1.000
    C17      C        0.16070    0.58980    0.94425    1.000
    H11      H        0.19300    0.56270    0.99070    1.000
    C18      C        0.05100    0.59240    0.94602    1.000
    H12      H        0.00830    0.56700    0.99370    1.000
    C19      C        0.53920    0.60750    0.19574    1.000
    C20      C        0.62910    0.55132    0.23093    1.000
    H13      H        0.69110    0.51200    0.20030    1.000
    C21      C        0.62840    0.55280    0.31097    1.000
    H14      H        0.68990    0.51440    0.33500    1.000
    C22      C        0.53770    0.61040    0.35581    1.000
    C23      C        0.44770    0.66650    0.32061    1.000
    H15      H        0.38570    0.70590    0.35130    1.000
    C24      C        0.44850    0.66510    0.24058    1.000
    H16      H        0.38700    0.70350    0.21650    1.000
    C25      C        0.17990    0.91803    0.83030    1.000
    H17      H        0.18320    0.87850    0.79820    1.000
    C26      C        0.09200    0.99620    0.83280    1.000
    H18      H        0.03520    0.01020    0.80240    1.000
    C27      C        0.08720    0.05403    0.87980    1.000
    C28      C        0.17030    0.03360    0.92420    1.000
    H19      H        0.16700    0.07310    0.95630    1.000
    C29      C        0.25820    0.95540    0.92180    1.000
    H20      H        0.31490    0.94140    0.95220    1.000
    C30      C        0.26300    0.89759    0.87480    1.000
    C31      C        0.52890    0.60460    0.69250    1.000
    C32      C        0.35190    0.80950    0.87850    1.000
    C33      C        0.72950    0.38220    0.89610    1.000
    C34      C        0.93540    0.54660    0.75760    1.000
    H21      H        0.88810    0.53010    0.73300    1.000
    H22      H        0.97500    0.58340    0.71620    1.000
    H23      H        0.99180    0.49460    0.77870    1.000
    C35      C        0.85940    0.59600    0.82760    1.000
    C36      C        0.88700    0.63150    0.87910    1.000
    C37      C        0.78130    0.66890    0.92990    1.000
    C38      C        0.76270    0.71110    0.00270    1.000
    H24      H        0.68070    0.73130    0.02720    1.000
    H25      H        0.80310    0.66910    0.04310    1.000
    H26      H        0.79210    0.76020    0.98470    1.000
    Zn4      Zn       0.46949    0.31808    0.04999    1.000
    Zn5      Zn       0.35095    0.44506    0.17775    1.000
    Zn6      Zn       0.61571    0.37509    0.13867    1.000
    N4       N        0.25360    0.38940    0.15450    1.000
    N5       N        0.29790    0.34430    0.09180    1.000
    O10      O        0.48610    0.40928    0.09181    1.000
    O11      O        0.42220    0.46450    0.91746    1.000
    O12      O        0.50660    0.32010    0.93200    1.000
    O13      O        0.56500    0.38350    0.25790    1.000
    O14      O        0.37550    0.41230    0.28900    1.000
    O15      O        0.57200    0.20350    0.08410    1.000
    O16      O        0.65920    0.24330    0.15500    1.000
    O17      O        0.28200    0.56930    0.17390    1.000
    O18      O        0.32770    0.59610    0.03632    1.000
    C39      C        0.46180    0.39480    0.88970    1.000
    C40      C        0.46800    0.39280    0.39491    1.000
    C41      C        0.56920    0.37550    0.41888    1.000
    H27      H        0.63990    0.36460    0.37990    1.000
    C42      C        0.56710    0.37410    0.49986    1.000
    H28      H        0.63630    0.36230    0.51620    1.000
    C43      C        0.46370    0.39010    0.55688    1.000
    C44      C        0.36250    0.40730    0.53291    1.000
    H29      H        0.29190    0.41820    0.57190    1.000
    C45      C        0.36460    0.40870    0.45192    1.000
    H30      H        0.29550    0.42050    0.43550    1.000
    C46      C        0.18300    0.70467    0.10763    1.000
    C47      C        0.13150    0.73380    0.18220    1.000
    H31      H        0.15540    0.69990    0.23040    1.000
    C48      C        0.04510    0.81270    0.18630    1.000
    H32      H        0.01000    0.83260    0.23730    1.000
    C49      C        0.01020    0.86240    0.11583    1.000
    C50      C        0.06170    0.83323    0.04126    1.000
    H33      H        0.03780    0.86720    0.99310    1.000
    C51      C        0.14810    0.75440    0.03716    1.000
    H34      H        0.18330    0.73440    0.98620    1.000
    C52      C        0.99631    0.36800    0.12195    1.000
    C53      C        0.93380    0.33100    0.19168    1.000
    H35      H        0.96610    0.30390    0.23810    1.000
    C54      C        0.82410    0.33360    0.19344    1.000
    H36      H        0.78140    0.30830    0.24110    1.000
    N6       N        0.77679    0.37322    0.12547    1.000
    C55      C        0.83930    0.41020    0.05575    1.000
    H37      H        0.80700    0.43730    0.00930    1.000
    C56      C        0.94900    0.40760    0.05398    1.000
    H38      H        0.99170    0.43300    0.00630    1.000
    C57      C        0.46080    0.39250    0.80426    1.000
    C58      C        0.37090    0.44868    0.76907    1.000
    H39      H        0.30890    0.48800    0.79970    1.000
    C59      C        0.37160    0.44720    0.68903    1.000
    H40      H        0.31010    0.48560    0.66500    1.000
    C60      C        0.46230    0.38960    0.64419    1.000
    C61      C        0.55230    0.33350    0.67939    1.000
    H41      H        0.61430    0.29410    0.64870    1.000
    C62      C        0.55150    0.33490    0.75942    1.000
    H42      H        0.61300    0.29650    0.78350    1.000
    C63      C        0.82010    0.08197    0.16970    1.000
    H43      H        0.81680    0.12150    0.20180    1.000
    C64      C        0.90800    0.00380    0.16720    1.000
    H44      H        0.96480    0.98980    0.19760    1.000
    C65      C        0.91280    0.94597    0.12020    1.000
    C66      C        0.82970    0.96640    0.07580    1.000
    H45      H        0.83300    0.92690    0.04370    1.000
    C67      C        0.74180    0.04460    0.07820    1.000
    H46      H        0.68510    0.05860    0.04780    1.000
    C68      C        0.73700    0.10241    0.12520    1.000
    C69      C        0.47110    0.39540    0.30750    1.000
    C70      C        0.64810    0.19050    0.12150    1.000
    C71      C        0.27050    0.61780    0.10390    1.000
    C72      C        0.06460    0.45340    0.24240    1.000
    H47      H        0.11190    0.46990    0.26700    1.000
    H48      H        0.02500    0.41660    0.28380    1.000
    H49      H        0.00820    0.50540    0.22130    1.000
    C73      C        0.14060    0.40400    0.17240    1.000
    C74      C        0.11300    0.36850    0.12090    1.000
    C75      C        0.21870    0.33110    0.07010    1.000
    C76      C        0.23730    0.28890    0.99730    1.000
    H50      H        0.31930    0.26870    0.97280    1.000
    H51      H        0.19690    0.33090    0.95690    1.000
    H52      H        0.20790    0.23980    0.01530    1.000
