# CIF file generated by openbabel 3.1.0, see https://openbabel.org
data_I
_chemical_name_common 'image0'
_cell_length_a 14.0169
_cell_length_b 13.5045
_cell_length_c 12.505
_cell_angle_alpha 90
_cell_angle_beta 116.318
_cell_angle_gamma 90
_space_group_name_H-M_alt 'P 1'
_space_group_name_Hall 'P 1'
loop_
    _symmetry_equiv_pos_as_xyz
    x,y,z
loop_
    _atom_site_label
    _atom_site_type_symbol
    _atom_site_fract_x
    _atom_site_fract_y
    _atom_site_fract_z
    _atom_site_occupancy
    Cd1      Cd       0.20762    0.15096    0.55687    1.000
    N1       N        0.31110    0.26190    0.70830    1.000
    C1       C        0.06580    0.34810    0.43720    1.000
    H1       H        0.02730    0.32240    0.47520    1.000
    N2       N        0.14510    0.29430    0.43610    1.000
    C2       C        0.54370    0.43550    0.78420    1.000
    H2       H        0.57740    0.38770    0.75270    1.000
    C3       C        0.94350    0.49180    0.39040    1.000
    H3       H        0.88600    0.44310    0.36810    1.000
    C4       C        0.39720    0.30830    0.71060    1.000
    H4       H        0.42390    0.28760    0.65830    1.000
    C5       C        0.03840    0.44080    0.38420    1.000
    C6       C        0.97250    0.52570    0.51660    1.000
    H5       H        0.03140    0.57190    0.54130    1.000
    H6       H        0.99640    0.46890    0.56950    1.000
    C7       C        0.40800    0.41380    0.86630    1.000
    H7       H        0.43870    0.46670    0.91790    1.000
    C8       C        0.19680    0.32870    0.37620    1.000
    H8       H        0.24900    0.28950    0.37060    1.000
    C9       C        0.09460    0.47700    0.32610    1.000
    H9       H        0.07830    0.53890    0.28980    1.000
    C10      C        0.27700    0.28860    0.78820    1.000
    H10      H        0.21960    0.25510    0.78940    1.000
    C11      C        0.44710    0.38560    0.78770    1.000
    N3       N        0.90400    0.57520    0.30360    1.000
    H11      H        0.84880    0.60390    0.30840    1.000
    H12      H        0.88370    0.55210    0.23010    1.000
    H13      H        0.95570    0.61940    0.32050    1.000
    C12      C        0.50850    0.52580    0.70000    1.000
    H14      H        0.45140    0.50570    0.62420    1.000
    H15      H        0.48030    0.57580    0.73400    1.000
    C13      C        0.17510    0.42090    0.32210    1.000
    H16      H        0.21420    0.44460    0.28380    1.000
    C14      C        0.88090    0.57490    0.52960    1.000
    O1       O        0.83360    0.64330    0.45960    1.000
    C15      C        0.59650    0.57190    0.67740    1.000
    O2       O        0.57150    0.65020    0.61480    1.000
    O3       O        0.68410    0.53130    0.71240    1.000
    O4       O        0.85800    0.54920    0.61110    1.000
    N4       N        0.62180    0.46390    0.90460    1.000
    H17      H        0.60940    0.45170    0.96480    1.000
    H18      H        0.67990    0.49280    0.91510    1.000
    C16      C        0.32330    0.36360    0.86840    1.000
    H19      H        0.29800    0.38030    0.92330    1.000
    Cd2      Cd       0.70762    0.65096    0.55687    1.000
    N5       N        0.81110    0.76190    0.70830    1.000
    C17      C        0.56580    0.84810    0.43720    1.000
    H20      H        0.52730    0.82240    0.47520    1.000
    N6       N        0.64510    0.79430    0.43610    1.000
    C18      C        0.04370    0.93550    0.78420    1.000
    H21      H        0.07740    0.88770    0.75270    1.000
    C19      C        0.44350    0.99180    0.39040    1.000
    H22      H        0.38600    0.94310    0.36810    1.000
    C20      C        0.89720    0.80830    0.71060    1.000
    H23      H        0.92390    0.78760    0.65830    1.000
    C21      C        0.53840    0.94080    0.38420    1.000
    C22      C        0.47250    0.02570    0.51660    1.000
    H24      H        0.53140    0.07190    0.54130    1.000
    H25      H        0.49640    0.96890    0.56950    1.000
    C23      C        0.90800    0.91380    0.86630    1.000
    H26      H        0.93870    0.96670    0.91790    1.000
    C24      C        0.69680    0.82870    0.37620    1.000
    H27      H        0.74900    0.78950    0.37060    1.000
    C25      C        0.59460    0.97700    0.32610    1.000
    H28      H        0.57830    0.03890    0.28980    1.000
    C26      C        0.77700    0.78860    0.78820    1.000
    H29      H        0.71960    0.75510    0.78940    1.000
    C27      C        0.94710    0.88560    0.78770    1.000
    N7       N        0.40400    0.07520    0.30360    1.000
    H30      H        0.34880    0.10390    0.30840    1.000
    H31      H        0.38370    0.05210    0.23010    1.000
    H32      H        0.45570    0.11940    0.32050    1.000
    C28      C        0.00850    0.02580    0.70000    1.000
    H33      H        0.95140    0.00570    0.62420    1.000
    H34      H        0.98030    0.07580    0.73400    1.000
    C29      C        0.67510    0.92090    0.32210    1.000
    H35      H        0.71420    0.94460    0.28380    1.000
    C30      C        0.38090    0.07490    0.52960    1.000
    O5       O        0.33360    0.14330    0.45960    1.000
    C31      C        0.09650    0.07190    0.67740    1.000
    O6       O        0.07150    0.15020    0.61480    1.000
    O7       O        0.18410    0.03130    0.71240    1.000
    O8       O        0.35800    0.04920    0.61110    1.000
    N8       N        0.12180    0.96390    0.90460    1.000
    H36      H        0.10940    0.95170    0.96480    1.000
    H37      H        0.17990    0.99280    0.91510    1.000
    C32      C        0.82330    0.86360    0.86840    1.000
    H38      H        0.79800    0.88030    0.92330    1.000
    Cd3      Cd       0.20762    0.84904    0.05687    1.000
    N9       N        0.31110    0.73810    0.20830    1.000
    C33      C        0.06580    0.65190    0.93720    1.000
    H39      H        0.02730    0.67760    0.97520    1.000
    N10      N        0.14510    0.70570    0.93610    1.000
    C34      C        0.54370    0.56450    0.28420    1.000
    H40      H        0.57740    0.61230    0.25270    1.000
    C35      C        0.94350    0.50820    0.89040    1.000
    H41      H        0.88600    0.55690    0.86810    1.000
    C36      C        0.39720    0.69170    0.21060    1.000
    H42      H        0.42390    0.71240    0.15830    1.000
    C37      C        0.03840    0.55920    0.88420    1.000
    C38      C        0.97250    0.47430    0.01660    1.000
    H43      H        0.03140    0.42810    0.04130    1.000
    H44      H        0.99640    0.53110    0.06950    1.000
    C39      C        0.40800    0.58620    0.36630    1.000
    H45      H        0.43870    0.53330    0.41790    1.000
    C40      C        0.19680    0.67130    0.87620    1.000
    H46      H        0.24900    0.71050    0.87060    1.000
    C41      C        0.09460    0.52300    0.82610    1.000
    H47      H        0.07830    0.46110    0.78980    1.000
    C42      C        0.27700    0.71140    0.28820    1.000
    H48      H        0.21960    0.74490    0.28940    1.000
    C43      C        0.44710    0.61440    0.28770    1.000
    N11      N        0.90400    0.42480    0.80360    1.000
    H49      H        0.84880    0.39610    0.80840    1.000
    H50      H        0.88370    0.44790    0.73010    1.000
    H51      H        0.95570    0.38060    0.82050    1.000
    C44      C        0.50850    0.47420    0.20000    1.000
    H52      H        0.45140    0.49430    0.12420    1.000
    H53      H        0.48030    0.42420    0.23400    1.000
    C45      C        0.17510    0.57910    0.82210    1.000
    H54      H        0.21420    0.55540    0.78380    1.000
    C46      C        0.88090    0.42510    0.02960    1.000
    O9       O        0.83360    0.35670    0.95960    1.000
    C47      C        0.59650    0.42810    0.17740    1.000
    O10      O        0.57150    0.34980    0.11480    1.000
    O11      O        0.68410    0.46870    0.21240    1.000
    O12      O        0.85800    0.45080    0.11110    1.000
    N12      N        0.62180    0.53610    0.40460    1.000
    H55      H        0.60940    0.54830    0.46480    1.000
    H56      H        0.67990    0.50720    0.41510    1.000
    C48      C        0.32330    0.63640    0.36840    1.000
    H57      H        0.29800    0.61970    0.42330    1.000
    Cd4      Cd       0.70762    0.34904    0.05687    1.000
    N13      N        0.81110    0.23810    0.20830    1.000
    C49      C        0.56580    0.15190    0.93720    1.000
    H58      H        0.52730    0.17760    0.97520    1.000
    N14      N        0.64510    0.20570    0.93610    1.000
    C50      C        0.04370    0.06450    0.28420    1.000
    H59      H        0.07740    0.11230    0.25270    1.000
    C51      C        0.44350    0.00820    0.89040    1.000
    H60      H        0.38600    0.05690    0.86810    1.000
    C52      C        0.89720    0.19170    0.21060    1.000
    H61      H        0.92390    0.21240    0.15830    1.000
    C53      C        0.53840    0.05920    0.88420    1.000
    C54      C        0.47250    0.97430    0.01660    1.000
    H62      H        0.53140    0.92810    0.04130    1.000
    H63      H        0.49640    0.03110    0.06950    1.000
    C55      C        0.90800    0.08620    0.36630    1.000
    H64      H        0.93870    0.03330    0.41790    1.000
    C56      C        0.69680    0.17130    0.87620    1.000
    H65      H        0.74900    0.21050    0.87060    1.000
    C57      C        0.59460    0.02300    0.82610    1.000
    H66      H        0.57830    0.96110    0.78980    1.000
    C58      C        0.77700    0.21140    0.28820    1.000
    H67      H        0.71960    0.24490    0.28940    1.000
    C59      C        0.94710    0.11440    0.28770    1.000
    N15      N        0.40400    0.92480    0.80360    1.000
    H68      H        0.34880    0.89610    0.80840    1.000
    H69      H        0.38370    0.94790    0.73010    1.000
    H70      H        0.45570    0.88060    0.82050    1.000
    C60      C        0.00850    0.97420    0.20000    1.000
    H71      H        0.95140    0.99430    0.12420    1.000
    H72      H        0.98030    0.92420    0.23400    1.000
    C61      C        0.67510    0.07910    0.82210    1.000
    H73      H        0.71420    0.05540    0.78380    1.000
    C62      C        0.38090    0.92510    0.02960    1.000
    O13      O        0.33360    0.85670    0.95960    1.000
    C63      C        0.09650    0.92810    0.17740    1.000
    O14      O        0.07150    0.84980    0.11480    1.000
    O15      O        0.18410    0.96870    0.21240    1.000
    O16      O        0.35800    0.95080    0.11110    1.000
    N16      N        0.12180    0.03610    0.40460    1.000
    H74      H        0.10940    0.04830    0.46480    1.000
    H75      H        0.17990    0.00720    0.41510    1.000
    C64      C        0.82330    0.13640    0.36840    1.000
    H76      H        0.79800    0.11970    0.42330    1.000
