data_functionalizedCrystal
_audit_creation_method	'EQeq! by Chris Wilmer'
_symmetry_space_group_name_H-M	'P1'
_symmetry_Int_Tables_number	1
_symmetry_cell_setting	triclinic
loop_
_symmetry_equiv_pos_as_xyz
  x,y,z
_cell_length_a	10.7068
_cell_length_b	17.7294
_cell_length_c	13.2435
_cell_angle_alpha	90
_cell_angle_beta	104.446
_cell_angle_gamma	90
loop_
_atom_site_label
_atom_site_type_symbol
_atom_site_fract_x
_atom_site_fract_y
_atom_site_fract_z
_atom_site_charge
Mof_C 	C 	0.7433	0.0513	0.3971	0.349
Mof_C 	C 	0.8765	0.0261	0.4513	-0.189
Mof_C 	C 	0.9802	0.0423	0.4101	0.207
Mof_H 	H 	0.9676	0.0712	0.3499	-0.003
Mof_C 	C 	0.8976	0.9841	0.5423	0.193
Mof_H 	H 	0.8292	0.9736	0.5717	0.001
Mof_C 	C 	0.6029	0.1517	0.0997	0.291
Mof_C 	C 	0.6754	0.2038	0.0462	-0.051
Mof_C 	C 	0.7018	0.2769	0.0811	-0.007
Mof_H 	H 	0.6695	0.2948	0.1355	0.062
Mof_C 	C 	0.7237	0.1763	0.9644	-0.008
Mof_H 	H 	0.7061	0.1271	0.9408	0.058
Mof_O 	O 	0.7285	0.0941	0.3201	-0.316
Mof_O 	O 	0.6504	0.0281	0.4289	-0.291
Mof_O 	O 	0.5437	0.1799	0.1639	-0.297
Mof_O 	O 	0.6019	0.0823	0.0822	-0.259
Mof_C 	C 	0.2433	0.5513	0.3971	0.296
Mof_C 	C 	0.3765	0.5261	0.4513	-0.053
Mof_C 	C 	0.4802	0.5423	0.4101	-0.016
Mof_H 	H 	0.4676	0.5712	0.3499	0.057
Mof_C 	C 	0.3976	0.4841	0.5423	-0.026
Mof_H 	H 	0.3292	0.4736	0.5717	0.067
Mof_C 	C 	0.1029	0.6517	0.0997	0.291
Mof_C 	C 	0.1754	0.7038	0.0462	-0.059
Mof_C 	C 	0.2018	0.7769	0.0811	-0.013
Mof_H 	H 	0.1695	0.7948	0.1355	0.052
Mof_C 	C 	0.2237	0.6763	0.9644	-0.016
Mof_H 	H 	0.2061	0.6271	0.9408	0.054
Mof_O 	O 	0.2285	0.5941	0.3201	-0.308
Mof_O 	O 	0.1504	0.5281	0.4289	-0.289
Mof_O 	O 	0.0437	0.6799	0.1639	-0.312
Mof_O 	O 	0.1019	0.5823	0.0822	-0.272
Mof_C 	C 	0.2567	0.0513	0.1029	0.239
Mof_C 	C 	0.1235	0.0261	0.0487	0.089
Mof_C 	C 	0.0198	0.0423	0.0899	-0.242
Mof_H 	H 	0.0324	0.0712	0.1501	0.117
Mof_C 	C 	0.1024	0.9841	0.9577	-0.249
Mof_H 	H 	0.1708	0.9736	0.9283	0.136
Mof_C 	C 	0.3971	0.1517	0.4003	0.283
Mof_C 	C 	0.3246	0.2038	0.4538	-0.037
Mof_C 	C 	0.2982	0.2769	0.4189	-0.031
Mof_H 	H 	0.3305	0.2948	0.3645	0.064
Mof_C 	C 	0.2763	0.1763	0.5356	-0.038
Mof_H 	H 	0.2939	0.1271	0.5592	0.062
Mof_O 	O 	0.2715	0.0941	0.1799	-0.302
Mof_O 	O 	0.3496	0.0281	0.0711	-0.267
Mof_O 	O 	0.4563	0.1799	0.3361	-0.296
Mof_O 	O 	0.3981	0.0823	0.4178	-0.264
Mof_C 	C 	0.7567	0.5513	0.1029	0.293
Mof_C 	C 	0.6235	0.5261	0.0487	-0.05
Mof_C 	C 	0.5198	0.5423	0.0899	-0.017
Mof_H 	H 	0.5324	0.5712	0.1501	0.057
Mof_C 	C 	0.6024	0.4841	0.9577	-0.024
Mof_H 	H 	0.6708	0.4736	0.9283	0.07
Mof_C 	C 	0.8971	0.6517	0.4003	0.279
Mof_C 	C 	0.8246	0.7038	0.4538	-0.024
Mof_C 	C 	0.7982	0.7769	0.4189	-0.03
Mof_H 	H 	0.8305	0.7948	0.3645	0.074
Mof_C 	C 	0.7763	0.6763	0.5356	-0.033
Mof_H 	H 	0.7939	0.6271	0.5592	0.069
Mof_O 	O 	0.7715	0.5941	0.1799	-0.288
Mof_O 	O 	0.8496	0.5281	0.0711	-0.251
Mof_O 	O 	0.9563	0.6799	0.3361	-0.256
Mof_O 	O 	0.8981	0.5823	0.4178	-0.233
Mof_C 	C 	0.2567	0.9487	0.6029	0.238
Mof_C 	C 	0.1235	0.9739	0.5487	0.093
Mof_C 	C 	0.0198	0.9577	0.5899	-0.248
Mof_H 	H 	0.0324	0.9288	0.6501	0.12
Mof_C 	C 	0.1024	0.0159	0.4577	-0.254
Mof_H 	H 	0.1708	0.0264	0.4283	0.138
Mof_C 	C 	0.3971	0.8483	0.9003	0.281
Mof_C 	C 	0.3246	0.7962	0.9538	-0.029
Mof_C 	C 	0.2982	0.7231	0.9189	-0.038
Mof_H 	H 	0.3305	0.7052	0.8645	0.067
Mof_C 	C 	0.2763	0.8237	0.0356	-0.048
Mof_H 	H 	0.2939	0.8729	0.0592	0.064
Mof_O 	O 	0.2715	0.9059	0.6799	-0.301
Mof_O 	O 	0.3496	0.9719	0.5711	-0.266
Mof_O 	O 	0.4563	0.8201	0.8361	-0.295
Mof_O 	O 	0.3981	0.9177	0.9178	-0.263
Mof_C 	C 	0.7567	0.4487	0.6029	0.289
Mof_C 	C 	0.6235	0.4739	0.5487	-0.04
Mof_C 	C 	0.5198	0.4577	0.5899	-0.025
Mof_H 	H 	0.5324	0.4288	0.6501	0.061
Mof_C 	C 	0.6024	0.5159	0.4577	-0.036
Mof_H 	H 	0.6708	0.5264	0.4283	0.073
Mof_C 	C 	0.8971	0.3483	0.9003	0.276
Mof_C 	C 	0.8246	0.2962	0.9538	-0.015
Mof_C 	C 	0.7982	0.2231	0.9189	-0.039
Mof_H 	H 	0.8305	0.2052	0.8645	0.078
Mof_C 	C 	0.7763	0.3237	0.0356	-0.045
Mof_H 	H 	0.7939	0.3729	0.0592	0.072
Mof_O 	O 	0.7715	0.4059	0.6799	-0.286
Mof_O 	O 	0.8496	0.4719	0.5711	-0.248
Mof_O 	O 	0.9563	0.3201	0.8361	-0.254
Mof_O 	O 	0.8981	0.4177	0.9178	-0.231
Mof_C 	C 	0.7433	0.9487	0.8971	0.349
Mof_C 	C 	0.8765	0.9739	0.9513	-0.183
Mof_C 	C 	0.9802	0.9577	0.9101	0.201
Mof_H 	H 	0.9676	0.9288	0.8499	-0.001
Mof_C 	C 	0.8976	0.0159	0.0423	0.186
Mof_H 	H 	0.8292	0.0264	0.0717	0.003
Mof_C 	C 	0.6029	0.8483	0.5997	0.288
Mof_C 	C 	0.6754	0.7962	0.5462	-0.041
Mof_C 	C 	0.7018	0.7231	0.5811	-0.015
Mof_H 	H 	0.6695	0.7052	0.6355	0.065
Mof_C 	C 	0.7237	0.8237	0.4644	-0.018
Mof_H 	H 	0.7061	0.8729	0.4408	0.06
Mof_O 	O 	0.7285	0.9059	0.8201	-0.315
Mof_O 	O 	0.6504	0.9719	0.9289	-0.29
Mof_O 	O 	0.5437	0.8201	0.6639	-0.296
Mof_O 	O 	0.6019	0.9177	0.5822	-0.258
Mof_C 	C 	0.2433	0.4487	0.8971	0.293
Mof_C 	C 	0.3765	0.4739	0.9513	-0.043
Mof_C 	C 	0.4802	0.4577	0.9101	-0.025
Mof_H 	H 	0.4676	0.4288	0.8499	0.06
Mof_C 	C 	0.3976	0.5159	0.0423	-0.038
Mof_H 	H 	0.3292	0.5264	0.0717	0.07
Mof_C 	C 	0.1029	0.3483	0.5997	0.288
Mof_C 	C 	0.1754	0.2962	0.5462	-0.05
Mof_C 	C 	0.2018	0.2231	0.5811	-0.02
Mof_H 	H 	0.1695	0.2052	0.6355	0.055
Mof_C 	C 	0.2237	0.3237	0.4644	-0.026
Mof_H 	H 	0.2061	0.3729	0.4408	0.056
Mof_O 	O 	0.2285	0.4059	0.8201	-0.307
Mof_O 	O 	0.1504	0.4719	0.9289	-0.287
Mof_O 	O 	0.0437	0.3201	0.6639	-0.311
Mof_O 	O 	0.1019	0.4177	0.5822	-0.271
Mof_Bi	Bi	0.5	0.07556	0.25	1.008
Mof_Bi	Bi	1.44867e-33	0.57556	0.25	0.912
Mof_Bi	Bi	0.5	0.92444	0.75	1.007
Mof_Bi	Bi	-4.66989e-17	0.42444	0.75	0.912
_end
