# CIF file generated by openbabel 3.1.0, see https://openbabel.org
data_I
_chemical_name_common 'image0'
_cell_length_a 13.4422
_cell_length_b 15.265
_cell_length_c 15.858
_cell_angle_alpha 90
_cell_angle_beta 94.543
_cell_angle_gamma 90
_space_group_name_H-M_alt 'P 1'
_space_group_name_Hall 'P 1'
loop_
    _symmetry_equiv_pos_as_xyz
    x,y,z
loop_
    _atom_site_label
    _atom_site_type_symbol
    _atom_site_fract_x
    _atom_site_fract_y
    _atom_site_fract_z
    _atom_site_occupancy
    Ni1      Ni       0.73796    0.40944    0.49705    1.000
    Fe1      Fe       0.78518    0.15315    0.25792    1.000
    Fe2      Fe       0.75615    0.18834    0.77581    1.000
    O1       O        0.60150    0.33760    0.32820    1.000
    O2       O        0.75920    0.35780    0.37830    1.000
    O3       O        0.91710    0.08430    0.06340    1.000
    O4       O        0.76300    0.03170    0.05340    1.000
    O5       O        0.91390    0.89280    0.02240    1.000
    H1       H        0.92960    0.87420    0.08180    1.000
    H2       H        0.93360    0.84440    0.98570    1.000
    O6       O        0.77520    0.96030    0.88470    1.000
    O7       O        0.92240    0.02690    0.88910    1.000
    O8       O        0.59870    0.25850    0.57950    1.000
    O9       O        0.75440    0.28800    0.55030    1.000
    C1       C        0.69550    0.33000    0.32680    1.000
    C2       C        0.72920    0.27690    0.25180    1.000
    C3       C        0.82940    0.27620    0.23100    1.000
    H3       H        0.87640    0.31450    0.25970    1.000
    C4       C        0.85990    0.22130    0.17040    1.000
    H4       H        0.92640    0.22500    0.15430    1.000
    C5       C        0.79260    0.15780    0.13030    1.000
    C6       C        0.69200    0.16110    0.14930    1.000
    H5       H        0.64520    0.12200    0.12150    1.000
    C7       C        0.65910    0.22190    0.20900    1.000
    H6       H        0.59070    0.22510    0.21960    1.000
    C8       C        0.82560    0.08480    0.07630    1.000
    C9       C        0.81100    0.13540    0.38690    1.000
    H7       H        0.80650    0.17910    0.42910    1.000
    C10      C        0.89440    0.10860    0.34400    1.000
    H8       H        0.96000    0.13200    0.35090    1.000
    C11      C        0.86000    0.03920    0.28830    1.000
    H9       H        0.90170    0.00630    0.25440    1.000
    C12      C        0.75890    0.02610    0.29020    1.000
    H10      H        0.71790    0.98740    0.25570    1.000
    C13      C        0.73170    0.07700    0.34820    1.000
    H11      H        0.66550    0.07740    0.36520    1.000
    C14      C        0.83970    0.01190    0.85790    1.000
    C15      C        0.80350    0.06160    0.77830    1.000
    C16      C        0.70340    0.06620    0.75250    1.000
    H12      H        0.65750    0.03130    0.78040    1.000
    C17      C        0.66850    0.11990    0.68750    1.000
    H13      H        0.59940    0.11820    0.66930    1.000
    C18      C        0.72960    0.17630    0.64740    1.000
    C19      C        0.83090    0.17030    0.67310    1.000
    H14      H        0.87700    0.20590    0.64620    1.000
    C20      C        0.86620    0.11350    0.73680    1.000
    H15      H        0.93590    0.11070    0.75200    1.000
    C21      C        0.69160    0.24680    0.58750    1.000
    C22      C        0.71150    0.21750    0.89250    1.000
    H16      H        0.68030    0.18000    0.93030    1.000
    C23      C        0.66260    0.26490    0.82410    1.000
    H17      H        0.59300    0.26470    0.80820    1.000
    C24      C        0.73600    0.31270    0.78380    1.000
    H18      H        0.72420    0.35010    0.73620    1.000
    C25      C        0.83040    0.29490    0.82730    1.000
    H19      H        0.89270    0.31820    0.81380    1.000
    C26      C        0.81510    0.23600    0.89440    1.000
    H20      H        0.86550    0.21310    0.93370    1.000
    Ni2      Ni       0.76204    0.90944    0.00295    1.000
    Fe3      Fe       0.71482    0.65315    0.24208    1.000
    Fe4      Fe       0.74385    0.68834    0.72419    1.000
    O10      O        0.89850    0.83760    0.17180    1.000
    O11      O        0.74080    0.85780    0.12170    1.000
    O12      O        0.58290    0.58430    0.43660    1.000
    O13      O        0.73700    0.53170    0.44660    1.000
    O14      O        0.58610    0.39280    0.47760    1.000
    H21      H        0.57040    0.37420    0.41820    1.000
    H22      H        0.56640    0.34440    0.51430    1.000
    O15      O        0.72480    0.46030    0.61530    1.000
    O16      O        0.57760    0.52690    0.61090    1.000
    O17      O        0.90130    0.75850    0.92050    1.000
    O18      O        0.74560    0.78800    0.94970    1.000
    C27      C        0.80450    0.83000    0.17320    1.000
    C28      C        0.77080    0.77690    0.24820    1.000
    C29      C        0.67060    0.77620    0.26900    1.000
    H23      H        0.62360    0.81450    0.24030    1.000
    C30      C        0.64010    0.72130    0.32960    1.000
    H24      H        0.57360    0.72500    0.34570    1.000
    C31      C        0.70740    0.65780    0.36970    1.000
    C32      C        0.80800    0.66110    0.35070    1.000
    H25      H        0.85480    0.62200    0.37850    1.000
    C33      C        0.84090    0.72190    0.29100    1.000
    H26      H        0.90930    0.72510    0.28040    1.000
    C34      C        0.67440    0.58480    0.42370    1.000
    C35      C        0.68900    0.63540    0.11310    1.000
    H27      H        0.69350    0.67910    0.07090    1.000
    C36      C        0.60560    0.60860    0.15600    1.000
    H28      H        0.54000    0.63200    0.14910    1.000
    C37      C        0.64000    0.53920    0.21170    1.000
    H29      H        0.59830    0.50630    0.24560    1.000
    C38      C        0.74110    0.52610    0.20980    1.000
    H30      H        0.78210    0.48740    0.24430    1.000
    C39      C        0.76830    0.57700    0.15180    1.000
    H31      H        0.83450    0.57740    0.13480    1.000
    C40      C        0.66030    0.51190    0.64210    1.000
    C41      C        0.69650    0.56160    0.72170    1.000
    C42      C        0.79660    0.56620    0.74750    1.000
    H32      H        0.84250    0.53130    0.71960    1.000
    C43      C        0.83150    0.61990    0.81250    1.000
    H33      H        0.90060    0.61820    0.83070    1.000
    C44      C        0.77040    0.67630    0.85260    1.000
    C45      C        0.66910    0.67030    0.82690    1.000
    H34      H        0.62300    0.70590    0.85380    1.000
    C46      C        0.63380    0.61350    0.76320    1.000
    H35      H        0.56410    0.61070    0.74800    1.000
    C47      C        0.80840    0.74680    0.91250    1.000
    C48      C        0.78850    0.71750    0.60750    1.000
    H36      H        0.81970    0.68000    0.56970    1.000
    C49      C        0.83740    0.76490    0.67590    1.000
    H37      H        0.90700    0.76470    0.69180    1.000
    C50      C        0.76400    0.81270    0.71620    1.000
    H38      H        0.77580    0.85010    0.76380    1.000
    C51      C        0.66960    0.79490    0.67270    1.000
    H39      H        0.60730    0.81820    0.68620    1.000
    C52      C        0.68490    0.73600    0.60560    1.000
    H40      H        0.63450    0.71310    0.56630    1.000
    Ni3      Ni       0.26204    0.59056    0.50295    1.000
    Fe5      Fe       0.21482    0.84685    0.74208    1.000
    Fe6      Fe       0.24385    0.81166    0.22419    1.000
    O19      O        0.39850    0.66240    0.67180    1.000
    O20      O        0.24080    0.64220    0.62170    1.000
    O21      O        0.08290    0.91570    0.93660    1.000
    O22      O        0.23700    0.96830    0.94660    1.000
    O23      O        0.08610    0.10720    0.97760    1.000
    H41      H        0.07040    0.12580    0.91820    1.000
    H42      H        0.06640    0.15560    0.01430    1.000
    O24      O        0.22480    0.03970    0.11530    1.000
    O25      O        0.07760    0.97310    0.11090    1.000
    O26      O        0.40130    0.74150    0.42050    1.000
    O27      O        0.24560    0.71200    0.44970    1.000
    C53      C        0.30450    0.67000    0.67320    1.000
    C54      C        0.27080    0.72310    0.74820    1.000
    C55      C        0.17060    0.72380    0.76900    1.000
    H43      H        0.12360    0.68550    0.74030    1.000
    C56      C        0.14010    0.77870    0.82960    1.000
    H44      H        0.07360    0.77500    0.84570    1.000
    C57      C        0.20740    0.84220    0.86970    1.000
    C58      C        0.30800    0.83890    0.85070    1.000
    H45      H        0.35480    0.87800    0.87850    1.000
    C59      C        0.34090    0.77810    0.79100    1.000
    H46      H        0.40930    0.77490    0.78040    1.000
    C60      C        0.17440    0.91520    0.92370    1.000
    C61      C        0.18900    0.86460    0.61310    1.000
    H47      H        0.19350    0.82090    0.57090    1.000
    C62      C        0.10560    0.89140    0.65600    1.000
    H48      H        0.04000    0.86800    0.64910    1.000
    C63      C        0.14000    0.96080    0.71170    1.000
    H49      H        0.09830    0.99370    0.74560    1.000
    C64      C        0.24110    0.97390    0.70980    1.000
    H50      H        0.28210    0.01260    0.74430    1.000
    C65      C        0.26830    0.92300    0.65180    1.000
    H51      H        0.33450    0.92260    0.63480    1.000
    C66      C        0.16030    0.98810    0.14210    1.000
    C67      C        0.19650    0.93840    0.22170    1.000
    C68      C        0.29660    0.93380    0.24750    1.000
    H52      H        0.34250    0.96870    0.21960    1.000
    C69      C        0.33150    0.88010    0.31250    1.000
    H53      H        0.40060    0.88180    0.33070    1.000
    C70      C        0.27040    0.82370    0.35260    1.000
    C71      C        0.16910    0.82970    0.32690    1.000
    H54      H        0.12300    0.79410    0.35380    1.000
    C72      C        0.13380    0.88650    0.26320    1.000
    H55      H        0.06410    0.88930    0.24800    1.000
    C73      C        0.30840    0.75320    0.41250    1.000
    C74      C        0.28850    0.78250    0.10750    1.000
    H56      H        0.31970    0.82000    0.06970    1.000
    C75      C        0.33740    0.73510    0.17590    1.000
    H57      H        0.40700    0.73530    0.19180    1.000
    C76      C        0.26400    0.68730    0.21620    1.000
    H58      H        0.27580    0.64990    0.26380    1.000
    C77      C        0.16960    0.70510    0.17270    1.000
    H59      H        0.10730    0.68180    0.18620    1.000
    C78      C        0.18490    0.76400    0.10560    1.000
    H60      H        0.13450    0.78690    0.06630    1.000
    Ni4      Ni       0.23796    0.09056    0.99705    1.000
    Fe7      Fe       0.28518    0.34685    0.75792    1.000
    Fe8      Fe       0.25615    0.31166    0.27581    1.000
    O28      O        0.10150    0.16240    0.82820    1.000
    O29      O        0.25920    0.14220    0.87830    1.000
    O30      O        0.41710    0.41570    0.56340    1.000
    O31      O        0.26300    0.46830    0.55340    1.000
    O32      O        0.41390    0.60720    0.52240    1.000
    H61      H        0.42960    0.62580    0.58180    1.000
    H62      H        0.43360    0.65560    0.48570    1.000
    O33      O        0.27520    0.53970    0.38470    1.000
    O34      O        0.42240    0.47310    0.38910    1.000
    O35      O        0.09870    0.24150    0.07950    1.000
    O36      O        0.25440    0.21200    0.05030    1.000
    C79      C        0.19550    0.17000    0.82680    1.000
    C80      C        0.22920    0.22310    0.75180    1.000
    C81      C        0.32940    0.22380    0.73100    1.000
    H63      H        0.37640    0.18550    0.75970    1.000
    C82      C        0.35990    0.27870    0.67040    1.000
    H64      H        0.42640    0.27500    0.65430    1.000
    C83      C        0.29260    0.34220    0.63030    1.000
    C84      C        0.19200    0.33890    0.64930    1.000
    H65      H        0.14520    0.37800    0.62150    1.000
    C85      C        0.15910    0.27810    0.70900    1.000
    H66      H        0.09070    0.27490    0.71960    1.000
    C86      C        0.32560    0.41520    0.57630    1.000
    C87      C        0.31100    0.36460    0.88690    1.000
    H67      H        0.30650    0.32090    0.92910    1.000
    C88      C        0.39440    0.39140    0.84400    1.000
    H68      H        0.46000    0.36800    0.85090    1.000
    C89      C        0.36000    0.46080    0.78830    1.000
    H69      H        0.40170    0.49370    0.75440    1.000
    C90      C        0.25890    0.47390    0.79020    1.000
    H70      H        0.21790    0.51260    0.75570    1.000
    C91      C        0.23170    0.42300    0.84820    1.000
    H71      H        0.16550    0.42260    0.86520    1.000
    C92      C        0.33970    0.48810    0.35790    1.000
    C93      C        0.30350    0.43840    0.27830    1.000
    C94      C        0.20340    0.43380    0.25250    1.000
    H72      H        0.15750    0.46870    0.28040    1.000
    C95      C        0.16850    0.38010    0.18750    1.000
    H73      H        0.09940    0.38180    0.16930    1.000
    C96      C        0.22960    0.32370    0.14740    1.000
    C97      C        0.33090    0.32970    0.17310    1.000
    H74      H        0.37700    0.29410    0.14620    1.000
    C98      C        0.36620    0.38650    0.23680    1.000
    H75      H        0.43590    0.38930    0.25200    1.000
    C99      C        0.19160    0.25320    0.08750    1.000
    C100     C        0.21150    0.28250    0.39250    1.000
    H76      H        0.18030    0.32000    0.43030    1.000
    C101     C        0.16260    0.23510    0.32410    1.000
    H77      H        0.09300    0.23530    0.30820    1.000
    C102     C        0.23600    0.18730    0.28380    1.000
    H78      H        0.22420    0.14990    0.23620    1.000
    C103     C        0.33040    0.20510    0.32730    1.000
    H79      H        0.39270    0.18180    0.31380    1.000
    C104     C        0.31510    0.26400    0.39440    1.000
    H80      H        0.36550    0.28690    0.43370    1.000
    Ni5      Ni       0.00000    0.00000    0.00000    1.000
    Ni6      Ni       0.50000    0.50000    0.50000    1.000
