# CIF file generated by openbabel 3.1.0, see https://openbabel.org
data_I
_chemical_name_common 'MEHPAQ_clean'
_cell_length_a 7.2214
_cell_length_b 10.295
_cell_length_c 11.041
_cell_angle_alpha 90
_cell_angle_beta 90
_cell_angle_gamma 90
_space_group_name_H-M_alt 'P 1'
_space_group_name_Hall 'P 1'
loop_
    _symmetry_equiv_pos_as_xyz
    x,y,z
loop_
    _atom_site_label
    _atom_site_type_symbol
    _atom_site_fract_x
    _atom_site_fract_y
    _atom_site_fract_z
    _atom_site_occupancy
    Cu1      Cu       0.39940    0.93303    0.02927    1.000
    Cu2      Cu       0.10060    0.06697    0.52927    1.000
    H1       H        0.33020    0.71520    0.77080    1.000
    H2       H        0.32010    0.96450    0.81300    1.000
    H3       H        0.18320    0.86410    0.86740    1.000
    H4       H        0.50590    0.88370    0.64270    1.000
    H5       H        0.61150    0.76540    0.67350    1.000
    H6       H        0.66610    0.97770    0.81080    1.000
    H7       H        0.77070    0.84700    0.81330    1.000
    H8       H        0.16980    0.28480    0.27080    1.000
    H9       H        0.17990    0.03550    0.31300    1.000
    H10      H        0.31680    0.13590    0.36740    1.000
    H11      H        0.99410    0.11630    0.14270    1.000
    H12      H        0.88850    0.23460    0.17350    1.000
    H13      H        0.83390    0.02230    0.31080    1.000
    H14      H        0.72930    0.15300    0.31330    1.000
    C1       C        0.52800    0.71630    0.91010    1.000
    C2       C        0.42110    0.78340    0.81010    1.000
    C3       C        0.54950    0.83220    0.71200    1.000
    C4       C        0.70800    0.91820    0.75620    1.000
    C5       C        0.82700    0.96760    0.65410    1.000
    C6       C        0.97200    0.28370    0.41010    1.000
    C7       C        0.07890    0.21660    0.31010    1.000
    C8       C        0.95050    0.16780    0.21200    1.000
    C9       C        0.79200    0.08180    0.25620    1.000
    C10      C        0.67300    0.03240    0.15410    1.000
    N1       N        0.30860    0.89090    0.86290    1.000
    N2       N        0.19140    0.10910    0.36290    1.000
    O1       O        0.51860    0.76270    0.01690    1.000
    O2       O        0.62460    0.62030    0.88140    1.000
    O3       O        0.97510    0.02910    0.68440    1.000
    O4       O        0.78510    0.94990    0.54700    1.000
    O5       O        0.98140    0.23730    0.51690    1.000
    O6       O        0.87540    0.37970    0.38140    1.000
    O7       O        0.52490    0.97090    0.18440    1.000
    O8       O        0.71490    0.05010    0.04700    1.000
    Cu3      Cu       0.60060    0.43303    0.47073    1.000
    Cu4      Cu       0.89940    0.56697    0.97073    1.000
    H15      H        0.66980    0.21520    0.72920    1.000
    H16      H        0.67990    0.46450    0.68700    1.000
    H17      H        0.81680    0.36410    0.63260    1.000
    H18      H        0.49410    0.38370    0.85730    1.000
    H19      H        0.38850    0.26540    0.82650    1.000
    H20      H        0.33390    0.47770    0.68920    1.000
    H21      H        0.22930    0.34700    0.68670    1.000
    H22      H        0.83020    0.78480    0.22920    1.000
    H23      H        0.82010    0.53550    0.18700    1.000
    H24      H        0.68320    0.63590    0.13260    1.000
    H25      H        0.00590    0.61630    0.35730    1.000
    H26      H        0.11150    0.73460    0.32650    1.000
    H27      H        0.16610    0.52230    0.18920    1.000
    H28      H        0.27070    0.65300    0.18670    1.000
    C11      C        0.47200    0.21630    0.58990    1.000
    C12      C        0.57890    0.28340    0.68990    1.000
    C13      C        0.45050    0.33220    0.78800    1.000
    C14      C        0.29200    0.41820    0.74380    1.000
    C15      C        0.17300    0.46760    0.84590    1.000
    C16      C        0.02800    0.78370    0.08990    1.000
    C17      C        0.92110    0.71660    0.18990    1.000
    C18      C        0.04950    0.66780    0.28800    1.000
    C19      C        0.20800    0.58180    0.24380    1.000
    C20      C        0.32700    0.53240    0.34590    1.000
    N3       N        0.69140    0.39090    0.63710    1.000
    N4       N        0.80860    0.60910    0.13710    1.000
    O9       O        0.48140    0.26270    0.48310    1.000
    O10      O        0.37540    0.12030    0.61860    1.000
    O11      O        0.02490    0.52910    0.81560    1.000
    O12      O        0.21490    0.44990    0.95300    1.000
    O13      O        0.01860    0.73730    0.98310    1.000
    O14      O        0.12460    0.87970    0.11860    1.000
    O15      O        0.47510    0.47090    0.31560    1.000
    O16      O        0.28510    0.55010    0.45300    1.000
