data_functionalizedCrystal
_audit_creation_method	'EQeq! by Chris Wilmer'
_symmetry_space_group_name_H-M	'P1'
_symmetry_Int_Tables_number	1
_symmetry_cell_setting	triclinic
loop_
_symmetry_equiv_pos_as_xyz
  x,y,z
_cell_length_a	13.662
_cell_length_b	18.914
_cell_length_c	23.197
_cell_angle_alpha	90
_cell_angle_beta	90
_cell_angle_gamma	110.074
loop_
_atom_site_label
_atom_site_type_symbol
_atom_site_fract_x
_atom_site_fract_y
_atom_site_fract_z
_atom_site_charge
Mof_Cu	Cu	0.62718	0.00636	0.78813	0.846
Mof_Cu	Cu	0.37282	0.49364	0.28813	0.85
Mof_Cu	Cu	0.37282	0.99364	0.21187	0.856
Mof_Cu	Cu	0.62718	0.50636	0.71187	0.852
Mof_Cu	Cu	1.62056e-18	0.5	0.5	0.843
Mof_Cu	Cu	-0	0	-0	0.828
Mof_H 	H 	0.1778	0.6165	0.8694	0.044
Mof_H 	H 	0.0271	0.6174	0.7051	0.075
Mof_H 	H 	0.3214	0.7678	0.7242	0.07
Mof_H 	H 	0.3278	0.7572	0.8767	0.07
Mof_H 	H 	0.37	0.6921	0.8616	0.074
Mof_H 	H 	0.443	0.8856	0.849	-0.017
Mof_H 	H 	0.6313	0.8456	0.7381	0.019
Mof_H 	H 	0.504	0.7113	0.7607	0.025
Mof_H 	H 	0.1236	0.7434	0.6439	0.071
Mof_H 	H 	0.2456	0.7673	0.6439	0.071
Mof_H 	H 	0.0249	0.6303	0.5839	-0.028
Mof_H 	H 	0.2476	0.5531	0.5415	0.002
Mof_H 	H 	0.3217	0.6612	0.6064	0.031
Mof_H 	H 	0.0287	0.5019	0.8182	0.091
Mof_H 	H 	0.9758	0.5567	0.8434	0.109
Mof_H 	H 	0.4355	0.4419	0.7901	-0.014
Mof_H 	H 	0.4834	0.6035	0.6651	0.004
Mof_H 	H 	0.2864	0.5762	0.7283	0.036
Mof_H 	H 	0.278	0.4493	0.8443	0.069
Mof_H 	H 	0.2283	0.5082	0.8232	0.072
Mof_H 	H 	0.235	0.4043	0.7052	0.076
Mof_H 	H 	0.9217	0.2502	0.721	0.066
Mof_H 	H 	0.0781	0.399	0.867	0.036
Mof_H 	H 	0.8722	0.3293	0.844	0.08
Mof_H 	H 	0.9141	0.2678	0.8685	0.079
Mof_H 	H 	0.6327	0.1581	0.7189	0.015
Mof_H 	H 	0.7719	0.3012	0.7403	0.026
Mof_H 	H 	0.8019	0.1349	0.8503	-0.017
Mof_H 	H 	0.8153	0.561	0.794	-0.009
Mof_H 	H 	0.9562	0.4446	0.7247	0.076
Mof_H 	H 	0.7767	0.4167	0.658	-0.003
Mof_H 	H 	0.8067	0.3457	0.5601	0.01
Mof_H 	H 	0.8611	0.2606	0.6249	0.021
Mof_H 	H 	0.1383	0.4206	0.5759	-0.004
Mof_H 	H 	0.0517	0.2436	0.641	0.064
Mof_H 	H 	0.1528	0.3131	0.6293	0.067
Mof_H 	H 	0.8222	0.8835	0.3694	0.043
Mof_H 	H 	0.9729	0.8826	0.2051	0.083
Mof_H 	H 	0.6786	0.7322	0.2242	0.067
Mof_H 	H 	0.6722	0.7428	0.3767	0.067
Mof_H 	H 	0.63	0.8079	0.3616	0.071
Mof_H 	H 	0.557	0.6144	0.349	-0.021
Mof_H 	H 	0.3687	0.6544	0.2381	0.017
Mof_H 	H 	0.496	0.7887	0.2607	0.024
Mof_H 	H 	0.8764	0.7566	0.1439	0.076
Mof_H 	H 	0.7544	0.7327	0.1439	0.069
Mof_H 	H 	0.9751	0.8697	0.0839	-0.016
Mof_H 	H 	0.7524	0.9469	0.0415	0.004
Mof_H 	H 	0.6783	0.8388	0.1064	0.029
Mof_H 	H 	0.9713	0.9981	0.3182	0.064
Mof_H 	H 	0.0242	0.9433	0.3434	0.034
Mof_H 	H 	0.5645	0.0581	0.2901	-0.007
Mof_H 	H 	0.5166	0.8965	0.1651	0.003
Mof_H 	H 	0.7136	0.9238	0.2283	0.039
Mof_H 	H 	0.722	0.0507	0.3443	0.077
Mof_H 	H 	0.7717	0.9918	0.3232	0.094
Mof_H 	H 	0.765	0.0957	0.2052	0.079
Mof_H 	H 	0.0783	0.2498	0.221	0.069
Mof_H 	H 	0.9219	0.101	0.367	0.035
Mof_H 	H 	0.1278	0.1707	0.344	0.063
Mof_H 	H 	0.0859	0.2322	0.3685	0.059
Mof_H 	H 	0.3673	0.3419	0.2189	0.015
Mof_H 	H 	0.2281	0.1988	0.2403	0.025
Mof_H 	H 	0.1981	0.3651	0.3503	-0.023
Mof_H 	H 	0.1847	0.939	0.294	-0.021
Mof_H 	H 	0.0438	0.0554	0.2247	0.06
Mof_H 	H 	0.2233	0.0833	0.158	-0.007
Mof_H 	H 	0.1933	0.1543	0.0601	0.002
Mof_H 	H 	0.1389	0.2394	0.1249	0.025
Mof_H 	H 	0.8617	0.0794	0.0759	-0.018
Mof_H 	H 	0.9483	0.2564	0.141	0.084
Mof_H 	H 	0.8472	0.1869	0.1293	0.073
Mof_H 	H 	0.8222	0.3835	0.1306	0.039
Mof_H 	H 	0.9729	0.3826	0.2949	0.081
Mof_H 	H 	0.6786	0.2322	0.2758	0.066
Mof_H 	H 	0.6722	0.2428	0.1233	0.062
Mof_H 	H 	0.63	0.3079	0.1384	0.067
Mof_H 	H 	0.557	0.1144	0.151	-0.026
Mof_H 	H 	0.3687	0.1544	0.2619	0.016
Mof_H 	H 	0.496	0.2887	0.2393	0.024
Mof_H 	H 	0.8764	0.2566	0.3561	0.077
Mof_H 	H 	0.7544	0.2327	0.3561	0.069
Mof_H 	H 	0.9751	0.3697	0.4161	-0.015
Mof_H 	H 	0.7524	0.4469	0.4585	0.004
Mof_H 	H 	0.6783	0.3388	0.3936	0.03
Mof_H 	H 	0.9713	0.4981	0.1818	0.057
Mof_H 	H 	0.0242	0.4433	0.1566	0.027
Mof_H 	H 	0.5645	0.5581	0.2099	-0.017
Mof_H 	H 	0.5166	0.3965	0.3349	0.004
Mof_H 	H 	0.7136	0.4238	0.2717	0.037
Mof_H 	H 	0.722	0.5507	0.1557	0.064
Mof_H 	H 	0.7717	0.4918	0.1768	0.07
Mof_H 	H 	0.765	0.5957	0.2948	0.079
Mof_H 	H 	0.0783	0.7498	0.279	0.068
Mof_H 	H 	0.9219	0.601	0.133	0.034
Mof_H 	H 	0.1278	0.6707	0.156	0.062
Mof_H 	H 	0.0859	0.7322	0.1315	0.056
Mof_H 	H 	0.3673	0.8419	0.2811	0.017
Mof_H 	H 	0.2281	0.6988	0.2597	0.025
Mof_H 	H 	0.1981	0.8651	0.1497	-0.024
Mof_H 	H 	0.1847	0.439	0.206	-0.019
Mof_H 	H 	0.0438	0.5554	0.2753	0.055
Mof_H 	H 	0.2233	0.5833	0.342	-0.002
Mof_H 	H 	0.1933	0.6543	0.4399	0.007
Mof_H 	H 	0.1389	0.7394	0.3751	0.027
Mof_H 	H 	0.8617	0.5794	0.4241	-0.013
Mof_H 	H 	0.9483	0.7564	0.359	0.086
Mof_H 	H 	0.8472	0.6869	0.3707	0.075
Mof_H 	H 	0.1778	0.1165	0.6306	0.039
Mof_H 	H 	0.0271	0.1174	0.7949	0.073
Mof_H 	H 	0.3214	0.2678	0.7758	0.069
Mof_H 	H 	0.3278	0.2572	0.6233	0.065
Mof_H 	H 	0.37	0.1921	0.6384	0.069
Mof_H 	H 	0.443	0.3856	0.651	-0.022
Mof_H 	H 	0.6313	0.3456	0.7619	0.019
Mof_H 	H 	0.504	0.2113	0.7393	0.024
Mof_H 	H 	0.1236	0.2434	0.8561	0.072
Mof_H 	H 	0.2456	0.2673	0.8561	0.072
Mof_H 	H 	0.0249	0.1303	0.9161	-0.026
Mof_H 	H 	0.2476	0.0531	0.9585	0.004
Mof_H 	H 	0.3217	0.1612	0.8936	0.032
Mof_H 	H 	0.0287	0.0019	0.6818	0.084
Mof_H 	H 	0.9758	0.0567	0.6566	0.103
Mof_H 	H 	0.4355	0.9419	0.7099	-0.024
Mof_H 	H 	0.4834	0.1035	0.8349	0.005
Mof_H 	H 	0.2864	0.0762	0.7717	0.034
Mof_H 	H 	0.278	0.9493	0.6557	0.056
Mof_H 	H 	0.2283	0.0082	0.6768	0.048
Mof_H 	H 	0.235	0.9043	0.7948	0.076
Mof_H 	H 	0.9217	0.7502	0.779	0.066
Mof_H 	H 	0.0781	0.899	0.633	0.035
Mof_H 	H 	0.8722	0.8293	0.656	0.079
Mof_H 	H 	0.9141	0.7678	0.6315	0.077
Mof_H 	H 	0.6327	0.6581	0.7811	0.017
Mof_H 	H 	0.7719	0.8012	0.7597	0.027
Mof_H 	H 	0.8019	0.6349	0.6497	-0.017
Mof_H 	H 	0.8153	0.061	0.706	-0.007
Mof_H 	H 	0.9562	0.9446	0.7753	0.071
Mof_H 	H 	0.7767	0.9167	0.842	0.002
Mof_H 	H 	0.8067	0.8457	0.9399	0.016
Mof_H 	H 	0.8611	0.7606	0.8751	0.023
Mof_H 	H 	0.1383	0.9206	0.9241	0.002
Mof_H 	H 	0.0517	0.7436	0.859	0.066
Mof_H 	H 	0.1528	0.8131	0.8707	0.069
Mof_C 	C 	0.1761	0.6401	0.8226	-0.143
Mof_C 	C 	0.0914	0.6086	0.7855	0.123
Mof_C 	C 	0.0938	0.6364	0.7303	-0.155
Mof_C 	C 	0.1781	0.6956	0.7112	0.11
Mof_C 	C 	0.2622	0.7286	0.7487	-0.143
Mof_C 	C 	0.262	0.7007	0.8032	0.109
Mof_C 	C 	0.3508	0.7328	0.8454	-0.146
Mof_C 	C 	0.4744	0.861	0.8244	0.085
Mof_C 	C 	0.5766	0.8387	0.7638	-0.004
Mof_C 	C 	0.5075	0.7718	0.7782	0.005
Mof_C 	C 	0.1813	0.7254	0.6497	-0.144
Mof_C 	C 	0.0893	0.6239	0.5815	0.083
Mof_C 	C 	0.2116	0.5816	0.5582	0.005
Mof_C 	C 	0.2528	0.6416	0.5941	-0.014
Mof_C 	C 	0.0022	0.5418	0.8084	-0.223
Mof_C 	C 	0.4248	0.4793	0.7676	0.079
Mof_C 	C 	0.4433	0.5658	0.7042	0.008
Mof_C 	C 	0.3511	0.5546	0.7317	-0.003
Mof_C 	C 	0.2538	0.4688	0.8105	-0.142
Mof_C 	C 	0.1636	0.4053	0.7832	0.101
Mof_C 	C 	0.1675	0.3806	0.7278	-0.141
Mof_C 	C 	0.0822	0.3221	0.705	0.081
Mof_C 	C 	0.9931	0.29	0.7402	-0.106
Mof_C 	C 	0.9891	0.3162	0.7943	0.117
Mof_C 	C 	0.0755	0.3738	0.8173	-0.146
Mof_C 	C 	0.895	0.2877	0.8335	-0.154
Mof_C 	C 	0.6829	0.1693	0.7478	-0.002
Mof_C 	C 	0.7498	0.2379	0.7589	0
Mof_C 	C 	0.7754	0.1554	0.8202	0.074
Mof_C 	C 	0.83	0.5292	0.7675	0.073
Mof_C 	C 	0.9081	0.4644	0.7218	-0.063
Mof_C 	C 	0.8175	0.4531	0.6964	0.036
Mof_C 	C 	0.8936	0.3575	0.5659	0.003
Mof_C 	C 	0.9158	0.306	0.6007	0.017
Mof_C 	C 	0.06	0.3961	0.5787	0.051
Mof_C 	C 	0.0817	0.298	0.6434	-0.134
Mof_C 	C 	0.8239	0.8599	0.3226	-0.121
Mof_C 	C 	0.9086	0.8914	0.2855	0.087
Mof_C 	C 	0.9062	0.8636	0.2303	-0.129
Mof_C 	C 	0.8219	0.8044	0.2112	0.103
Mof_C 	C 	0.7378	0.7714	0.2487	-0.134
Mof_C 	C 	0.738	0.7993	0.3032	0.099
Mof_C 	C 	0.6492	0.7672	0.3454	-0.14
Mof_C 	C 	0.5256	0.639	0.3244	0.084
Mof_C 	C 	0.4234	0.6613	0.2638	-0.005
Mof_C 	C 	0.4925	0.7282	0.2782	0.004
Mof_C 	C 	0.8187	0.7746	0.1497	-0.14
Mof_C 	C 	0.9107	0.8761	0.0815	0.083
Mof_C 	C 	0.7884	0.9184	0.0582	0.005
Mof_C 	C 	0.7472	0.8584	0.0941	-0.014
Mof_C 	C 	0.9978	0.9582	0.3084	-0.075
Mof_C 	C 	0.5752	0.0207	0.2676	0.047
Mof_C 	C 	0.5567	0.9342	0.2042	0.011
Mof_C 	C 	0.6489	0.9454	0.2317	-0.004
Mof_C 	C 	0.7462	0.0312	0.3105	-0.184
Mof_C 	C 	0.8364	0.0947	0.2832	0.108
Mof_C 	C 	0.8325	0.1194	0.2278	-0.157
Mof_C 	C 	0.9178	0.1779	0.205	0.135
Mof_C 	C 	0.0069	0.21	0.2402	-0.152
Mof_C 	C 	0.0109	0.1838	0.2943	0.076
Mof_C 	C 	0.9245	0.1262	0.3173	-0.105
Mof_C 	C 	0.105	0.2123	0.3335	-0.132
Mof_C 	C 	0.3171	0.3307	0.2478	-0.003
Mof_C 	C 	0.2502	0.2621	0.2589	-0.001
Mof_C 	C 	0.2246	0.3446	0.3202	0.073
Mof_C 	C 	0.17	0.9708	0.2675	0.094
Mof_C 	C 	0.0919	0.0356	0.2218	-0.072
Mof_C 	C 	0.1825	0.0469	0.1964	0.029
Mof_C 	C 	0.1064	0.1425	0.0659	0.006
Mof_C 	C 	0.0842	0.194	0.1007	-0.028
Mof_C 	C 	0.94	0.1039	0.0787	0.094
Mof_C 	C 	0.9183	0.202	0.1434	-0.16
Mof_C 	C 	0.8239	0.3599	0.1774	-0.119
Mof_C 	C 	0.9086	0.3914	0.2145	0.082
Mof_C 	C 	0.9062	0.3636	0.2697	-0.127
Mof_C 	C 	0.8219	0.3044	0.2888	0.101
Mof_C 	C 	0.7378	0.2714	0.2513	-0.132
Mof_C 	C 	0.738	0.2993	0.1968	0.095
Mof_C 	C 	0.6492	0.2672	0.1546	-0.136
Mof_C 	C 	0.5256	0.139	0.1756	0.083
Mof_C 	C 	0.4234	0.1613	0.2362	-0.005
Mof_C 	C 	0.4925	0.2282	0.2218	0.003
Mof_C 	C 	0.8187	0.2746	0.3503	-0.14
Mof_C 	C 	0.9107	0.3761	0.4185	0.084
Mof_C 	C 	0.7884	0.4184	0.4418	0.006
Mof_C 	C 	0.7472	0.3584	0.4059	-0.013
Mof_C 	C 	0.9978	0.4582	0.1916	-0.068
Mof_C 	C 	0.5752	0.5207	0.2324	0.078
Mof_C 	C 	0.5567	0.4342	0.2958	0.008
Mof_C 	C 	0.6489	0.4454	0.2683	-0.003
Mof_C 	C 	0.7462	0.5312	0.1895	-0.135
Mof_C 	C 	0.8364	0.5947	0.2168	0.094
Mof_C 	C 	0.8325	0.6194	0.2722	-0.148
Mof_C 	C 	0.9178	0.6779	0.295	0.132
Mof_C 	C 	0.0069	0.71	0.2598	-0.149
Mof_C 	C 	0.0109	0.6838	0.2057	0.072
Mof_C 	C 	0.9245	0.6262	0.1827	-0.096
Mof_C 	C 	0.105	0.7123	0.1665	-0.129
Mof_C 	C 	0.3171	0.8307	0.2522	-0.004
Mof_C 	C 	0.2502	0.7621	0.2411	0
Mof_C 	C 	0.2246	0.8446	0.1798	0.073
Mof_C 	C 	0.17	0.4708	0.2325	0.079
Mof_C 	C 	0.0919	0.5356	0.2782	-0.053
Mof_C 	C 	0.1825	0.5469	0.3036	0.025
Mof_C 	C 	0.1064	0.6425	0.4341	0.011
Mof_C 	C 	0.0842	0.694	0.3993	-0.026
Mof_C 	C 	0.94	0.6039	0.4213	0.097
Mof_C 	C 	0.9183	0.702	0.3566	-0.158
Mof_C 	C 	0.1761	0.1401	0.6774	-0.14
Mof_C 	C 	0.0914	0.1086	0.7145	0.118
Mof_C 	C 	0.0938	0.1364	0.7697	-0.153
Mof_C 	C 	0.1781	0.1956	0.7888	0.109
Mof_C 	C 	0.2622	0.2286	0.7513	-0.141
Mof_C 	C 	0.262	0.2007	0.6968	0.106
Mof_C 	C 	0.3508	0.2328	0.6546	-0.142
Mof_C 	C 	0.4744	0.361	0.6756	0.084
Mof_C 	C 	0.5766	0.3387	0.7362	-0.004
Mof_C 	C 	0.5075	0.2718	0.7218	0.004
Mof_C 	C 	0.1813	0.2254	0.8503	-0.144
Mof_C 	C 	0.0893	0.1239	0.9185	0.084
Mof_C 	C 	0.2116	0.0816	0.9418	0.006
Mof_C 	C 	0.2528	0.1416	0.9059	-0.013
Mof_C 	C 	0.0022	0.0418	0.6916	-0.216
Mof_C 	C 	0.4248	0.9793	0.7324	0.11
Mof_C 	C 	0.4433	0.0658	0.7958	0.006
Mof_C 	C 	0.3511	0.0546	0.7683	-0.002
Mof_C 	C 	0.2538	0.9688	0.6895	-0.093
Mof_C 	C 	0.1636	0.9053	0.7168	0.088
Mof_C 	C 	0.1675	0.8806	0.7722	-0.132
Mof_C 	C 	0.0822	0.8221	0.795	0.078
Mof_C 	C 	0.9931	0.79	0.7598	-0.104
Mof_C 	C 	0.9891	0.8162	0.7057	0.115
Mof_C 	C 	0.0755	0.8738	0.6827	-0.138
Mof_C 	C 	0.895	0.7877	0.6665	-0.152
Mof_C 	C 	0.6829	0.6693	0.7522	-0.002
Mof_C 	C 	0.7498	0.7379	0.7411	0.001
Mof_C 	C 	0.7754	0.6554	0.6798	0.074
Mof_C 	C 	0.83	0.0292	0.7325	0.057
Mof_C 	C 	0.9081	0.9644	0.7782	-0.043
Mof_C 	C 	0.8175	0.9531	0.8036	0.032
Mof_C 	C 	0.8936	0.8575	0.9341	0.008
Mof_C 	C 	0.9158	0.806	0.8993	0.018
Mof_C 	C 	0.06	0.8961	0.9213	0.055
Mof_C 	C 	0.0817	0.798	0.8566	-0.133
Mof_N 	N 	0.4425	0.7873	0.8178	-0.108
Mof_N 	N 	0.5562	0.8958	0.792	-0.232
Mof_N 	N 	0.1749	0.6676	0.6086	-0.104
Mof_N 	N 	0.1069	0.5704	0.5509	-0.235
Mof_N 	N 	0.4892	0.518	0.7277	-0.232
Mof_N 	N 	0.3413	0.5012	0.7714	-0.107
Mof_N 	N 	0.6982	0.1169	0.7848	-0.232
Mof_N 	N 	0.8084	0.2284	0.8051	-0.104
Mof_N 	N 	0.7661	0.4949	0.7244	-0.234
Mof_N 	N 	0.9165	0.5124	0.7678	-0.079
Mof_N 	N 	0.9843	0.4138	0.5528	-0.214
Mof_N 	N 	0.0219	0.3315	0.6074	-0.116
Mof_N 	N 	0.5575	0.7127	0.3178	-0.11
Mof_N 	N 	0.4438	0.6042	0.292	-0.236
Mof_N 	N 	0.8251	0.8324	0.1086	-0.104
Mof_N 	N 	0.8931	0.9296	0.0509	-0.226
Mof_N 	N 	0.5108	0.982	0.2277	-0.221
Mof_N 	N 	0.6587	0.9988	0.2714	-0.087
Mof_N 	N 	0.3018	0.3831	0.2848	-0.232
Mof_N 	N 	0.1916	0.2716	0.3051	-0.108
Mof_N 	N 	0.2339	0.0051	0.2244	-0.247
Mof_N 	N 	0.0835	0.9876	0.2678	-0.112
Mof_N 	N 	0.0157	0.0862	0.0528	-0.251
Mof_N 	N 	0.9781	0.1685	0.1074	-0.094
Mof_N 	N 	0.5575	0.2127	0.1822	-0.111
Mof_N 	N 	0.4438	0.1042	0.208	-0.239
Mof_N 	N 	0.8251	0.3324	0.3914	-0.104
Mof_N 	N 	0.8931	0.4296	0.4491	-0.227
Mof_N 	N 	0.5108	0.482	0.2723	-0.233
Mof_N 	N 	0.6587	0.4988	0.2286	-0.108
Mof_N 	N 	0.3018	0.8831	0.2152	-0.231
Mof_N 	N 	0.1916	0.7716	0.1949	-0.109
Mof_N 	N 	0.2339	0.5051	0.2756	-0.236
Mof_N 	N 	0.0835	0.4876	0.2322	-0.119
Mof_N 	N 	0.0157	0.5862	0.4472	-0.247
Mof_N 	N 	0.9781	0.6685	0.3926	-0.093
Mof_N 	N 	0.4425	0.2873	0.6822	-0.11
Mof_N 	N 	0.5562	0.3958	0.708	-0.235
Mof_N 	N 	0.1749	0.1676	0.8914	-0.103
Mof_N 	N 	0.1069	0.0704	0.9491	-0.231
Mof_N 	N 	0.4892	0.018	0.7723	-0.244
Mof_N 	N 	0.3413	0.0012	0.7286	-0.128
Mof_N 	N 	0.6982	0.6169	0.7152	-0.231
Mof_N 	N 	0.8084	0.7284	0.6949	-0.105
Mof_N 	N 	0.7661	0.9949	0.7756	-0.222
Mof_N 	N 	0.9165	0.0124	0.7322	-0.086
Mof_N 	N 	0.9843	0.9138	0.9472	-0.206
Mof_N 	N 	0.0219	0.8315	0.8926	-0.115
_end
