# CIF file generated by openbabel 3.1.0, see https://openbabel.org
data_I
_chemical_name_common 'image0'
_cell_length_a 11.446
_cell_length_b 13.434
_cell_length_c 15.352
_cell_angle_alpha 79.59
_cell_angle_beta 76.45
_cell_angle_gamma 79.82
_space_group_name_H-M_alt 'P 1'
_space_group_name_Hall 'P 1'
loop_
    _symmetry_equiv_pos_as_xyz
    x,y,z
loop_
    _atom_site_label
    _atom_site_type_symbol
    _atom_site_fract_x
    _atom_site_fract_y
    _atom_site_fract_z
    _atom_site_occupancy
    Cu1      Cu       0.20021    0.63781    0.47923    1.000
    Cu2      Cu       0.42746    0.33448    0.89380    1.000
    Cu3      Cu       0.32764    0.62898    0.26946    1.000
    Cu4      Cu       0.19201    0.51428    0.21743    1.000
    Cu5      Cu       0.69859    0.02949    0.68497    1.000
    N1       N        0.93100    0.50340    0.67300    1.000
    N2       N        0.57390    0.23260    0.89270    1.000
    N3       N        0.89690    0.29970    0.73770    1.000
    N4       N        0.67170    0.25850    0.82570    1.000
    N5       N        0.74170    0.12310    0.91720    1.000
    C1       C        0.62030    0.15120    0.94650    1.000
    C2       C        0.97800    0.58780    0.62050    1.000
    C3       C        0.00060    0.31700    0.67910    1.000
    C4       C        0.54680    0.10490    0.02880    1.000
    C5       C        0.76610    0.19430    0.84100    1.000
    C6       C        0.88590    0.20320    0.78170    1.000
    C7       C        0.01160    0.42500    0.63880    1.000
    N6       N        0.34140    0.52010    0.44660    1.000
    N7       N        0.07970    0.55800    0.56270    1.000
    N8       N        0.10080    0.45570    0.57310    1.000
    N9       N        0.36450    0.51540    0.35620    1.000
    N10      N        0.45110    0.36660    0.42080    1.000
    N11      N        0.38980    0.43160    0.19610    1.000
    C8       C        0.39420    0.42980    0.48320    1.000
    C9       C        0.42040    0.40990    0.11000    1.000
    C10      C        0.57530    0.33280    0.22570    1.000
    H1       H        0.62730    0.30840    0.26560    1.000
    C11      C        0.42820    0.42550    0.34340    1.000
    C12      C        0.46550    0.39300    0.25300    1.000
    N12      N        0.38710    0.34830    0.76930    1.000
    N13      N        0.23730    0.49360    0.94230    1.000
    N14      N        0.33760    0.43610    0.96920    1.000
    N15      N        0.23240    0.51590    0.08660    1.000
    C13      C        0.39020    0.39990    0.58240    1.000
    C14      C        0.32940    0.43870    0.73490    1.000
    H2       H        0.28540    0.48280    0.77500    1.000
    C15      C        0.33220    0.46930    0.64310    1.000
    H3       H        0.29660    0.53430    0.62210    1.000
    C16      C        0.44550    0.30830    0.61560    1.000
    H4       H        0.48400    0.26060    0.57730    1.000
    C17      C        0.44420    0.28650    0.70770    1.000
    H5       H        0.48610    0.22420    0.72850    1.000
    C18      C        0.33300    0.45250    0.05440    1.000
    C19      C        0.53120    0.34820    0.08080    1.000
    H6       H        0.55240    0.33400    0.02160    1.000
    C20      C        0.60650    0.30980    0.13780    1.000
    H7       H        0.67870    0.26820    0.11860    1.000
    C21      C        0.92060    0.69180    0.62970    1.000
    C22      C        0.17700    0.54170    0.01180    1.000
    C23      C        0.35720    0.08240    0.13010    1.000
    H8       H        0.27300    0.09690    0.14100    1.000
    C24      C        0.60040    0.03670    0.09490    1.000
    H9       H        0.68420    0.01830    0.08400    1.000
    C25      C        0.53010    0.99720    0.17500    1.000
    H10      H        0.56880    0.95350    0.21710    1.000
    C26      C        0.99410    0.65370    0.08350    1.000
    H11      H        0.01700    0.63790    0.13920    1.000
    C27      C        0.06550    0.61120    0.00900    1.000
    C28      C        0.42140    0.12730    0.04880    1.000
    H12      H        0.38090    0.17190    0.00820    1.000
    C29      C        0.08590    0.14280    0.70280    1.000
    H13      H        0.14870    0.08960    0.69080    1.000
    C30      C        0.79720    0.71460    0.64220    1.000
    H14      H        0.75100    0.66320    0.64540    1.000
    C31      C        0.09910    0.24000    0.65870    1.000
    H15      H        0.16990    0.25430    0.61740    1.000
    C32      C        0.97700    0.12210    0.76660    1.000
    C33      C        0.97900    0.77060    0.63050    1.000
    H16      H        0.06270    0.75950    0.62560    1.000
    N16      N        0.40790    0.01840    0.19570    1.000
    C34      C        0.02160    0.63910    0.92740    1.000
    H17      H        0.06560    0.61360    0.87510    1.000
    N17      N        0.84690    0.74470    0.99890    1.000
    C35      C        0.89000    0.71900    0.07430    1.000
    H18      H        0.84590    0.74780    0.12490    1.000
    C36      C        0.91470    0.70350    0.92540    1.000
    H19      H        0.88740    0.71960    0.87130    1.000
    C37      C        0.91590    0.86830    0.63880    1.000
    H20      H        0.96050    0.92100    0.63490    1.000
    C38      C        0.74060    0.81230    0.65030    1.000
    H21      H        0.65690    0.82480    0.65510    1.000
    N18      N        0.79680    0.89060    0.65160    1.000
    N19      N        0.23140    0.76840    0.42180    1.000
    C39      C        0.25670    0.84740    0.38190    1.000
    Cu6      Cu       0.79979    0.36219    0.52077    1.000
    Cu7      Cu       0.57254    0.66552    0.10620    1.000
    Cu8      Cu       0.67236    0.37102    0.73054    1.000
    Cu9      Cu       0.80799    0.48572    0.78257    1.000
    Cu10     Cu       0.30141    0.97051    0.31503    1.000
    N20      N        0.06900    0.49660    0.32700    1.000
    N21      N        0.42610    0.76740    0.10730    1.000
    N22      N        0.10310    0.70030    0.26230    1.000
    N23      N        0.32830    0.74150    0.17430    1.000
    N24      N        0.25830    0.87690    0.08280    1.000
    C40      C        0.37970    0.84880    0.05350    1.000
    C41      C        0.02200    0.41220    0.37950    1.000
    C42      C        0.99940    0.68300    0.32090    1.000
    C43      C        0.45320    0.89510    0.97120    1.000
    C44      C        0.23390    0.80570    0.15900    1.000
    C45      C        0.11410    0.79680    0.21830    1.000
    C46      C        0.98840    0.57500    0.36120    1.000
    N25      N        0.65860    0.47990    0.55340    1.000
    N26      N        0.92030    0.44200    0.43730    1.000
    N27      N        0.89920    0.54430    0.42690    1.000
    N28      N        0.63550    0.48460    0.64380    1.000
    N29      N        0.54890    0.63340    0.57920    1.000
    N30      N        0.61020    0.56840    0.80390    1.000
    C47      C        0.60580    0.57020    0.51680    1.000
    C48      C        0.57960    0.59010    0.89000    1.000
    C49      C        0.42470    0.66720    0.77430    1.000
    H22      H        0.37270    0.69160    0.73440    1.000
    C50      C        0.57180    0.57450    0.65660    1.000
    C51      C        0.53450    0.60700    0.74700    1.000
    N31      N        0.61290    0.65170    0.23070    1.000
    N32      N        0.76270    0.50640    0.05770    1.000
    N33      N        0.66240    0.56390    0.03080    1.000
    N34      N        0.76760    0.48410    0.91340    1.000
    C52      C        0.60980    0.60010    0.41760    1.000
    C53      C        0.67060    0.56130    0.26510    1.000
    H23      H        0.71460    0.51720    0.22500    1.000
    C54      C        0.66780    0.53070    0.35690    1.000
    H24      H        0.70340    0.46570    0.37790    1.000
    C55      C        0.55450    0.69170    0.38440    1.000
    H25      H        0.51600    0.73940    0.42270    1.000
    C56      C        0.55580    0.71350    0.29230    1.000
    H26      H        0.51390    0.77580    0.27150    1.000
    C57      C        0.66700    0.54750    0.94560    1.000
    C58      C        0.46880    0.65180    0.91920    1.000
    H27      H        0.44760    0.66600    0.97840    1.000
    C59      C        0.39350    0.69020    0.86220    1.000
    H28      H        0.32130    0.73180    0.88140    1.000
    C60      C        0.07940    0.30820    0.37030    1.000
    C61      C        0.82300    0.45830    0.98820    1.000
    C62      C        0.64280    0.91760    0.86990    1.000
    H29      H        0.72700    0.90310    0.85900    1.000
    C63      C        0.39960    0.96330    0.90510    1.000
    H30      H        0.31580    0.98170    0.91600    1.000
    C64      C        0.46990    0.00280    0.82500    1.000
    H31      H        0.43120    0.04650    0.78290    1.000
    C65      C        0.00590    0.34630    0.91650    1.000
    H32      H        0.98300    0.36210    0.86080    1.000
    C66      C        0.93450    0.38880    0.99100    1.000
    C67      C        0.57860    0.87270    0.95120    1.000
    H33      H        0.61910    0.82810    0.99180    1.000
    C68      C        0.91410    0.85720    0.29720    1.000
    H34      H        0.85130    0.91040    0.30920    1.000
    C69      C        0.20280    0.28540    0.35780    1.000
    H35      H        0.24900    0.33680    0.35460    1.000
    C70      C        0.90090    0.76000    0.34130    1.000
    H36      H        0.83010    0.74570    0.38260    1.000
    C71      C        0.02300    0.87790    0.23340    1.000
    C72      C        0.02100    0.22940    0.36950    1.000
    H37      H        0.93730    0.24050    0.37440    1.000
    N35      N        0.59210    0.98160    0.80430    1.000
    C73      C        0.97840    0.36090    0.07260    1.000
    H38      H        0.93440    0.38640    0.12490    1.000
    N36      N        0.15310    0.25530    0.00110    1.000
    C74      C        0.11000    0.28100    0.92570    1.000
    H39      H        0.15410    0.25220    0.87510    1.000
    C75      C        0.08530    0.29650    0.07460    1.000
    H40      H        0.11260    0.28040    0.12870    1.000
    C76      C        0.08410    0.13170    0.36120    1.000
    H41      H        0.03950    0.07900    0.36510    1.000
    C77      C        0.25940    0.18770    0.34970    1.000
    H42      H        0.34310    0.17520    0.34490    1.000
    N37      N        0.20320    0.10940    0.34840    1.000
    N38      N        0.76860    0.23160    0.57820    1.000
    C78      C        0.74330    0.15260    0.61810    1.000
