data_functionalizedCrystal
_audit_creation_method	'EQeq! by Chris Wilmer'
_symmetry_space_group_name_H-M	'P1'
_symmetry_Int_Tables_number	1
_symmetry_cell_setting	triclinic
loop_
_symmetry_equiv_pos_as_xyz
  x,y,z
_cell_length_a	21.9173
_cell_length_b	21.9173
_cell_length_c	28.2685
_cell_angle_alpha	90
_cell_angle_beta	90
_cell_angle_gamma	120
loop_
_atom_site_label
_atom_site_type_symbol
_atom_site_fract_x
_atom_site_fract_y
_atom_site_fract_z
_atom_site_charge
Mof_O 	O 	0.2031	0.5665	0.4435	-0.71
Mof_O 	O 	0.281	0.5276	0.4454	-0.708
Mof_I 	I 	0.07657	0.46421	0.19169	-0.616
Mof_Cu	Cu	0.05067	0.4825	0.28233	0.722
Mof_C 	C 	0.2303	0.532	0.4283	0.586
Mof_C 	C 	0.1498	0.5028	0.3592	0.09
Mof_H 	H 	0.1376	0.5362	0.3705	-0.014
Mof_C 	C 	0.1327	0.4107	0.3079	0.073
Mof_H 	H 	0.1015	0.3753	0.2866	-0.013
Mof_C 	C 	0.1988	0.4894	0.3856	-0.222
Mof_N 	N 	0.1213	0.4669	0.3178	-0.242
Mof_C 	C 	0.2229	0.4468	0.3682	0.1
Mof_H 	H 	0.2614	0.4448	0.382	0.009
Mof_C 	C 	0.1845	0.4044	0.3265	-0.143
Mof_H 	H 	0.1971	0.3724	0.3131	0.08
Mof_O 	O 	0.4335	0.6366	0.4435	-0.708
Mof_O 	O 	0.4724	0.7534	0.4454	-0.707
Mof_I 	I 	0.53579	0.61236	0.19169	-0.615
Mof_Cu	Cu	0.5175	0.56817	0.28233	0.723
Mof_C 	C 	0.468	0.6983	0.4283	0.586
Mof_C 	C 	0.4972	0.647	0.3592	0.09
Mof_H 	H 	0.4638	0.6014	0.3705	-0.014
Mof_C 	C 	0.5893	0.722	0.3079	0.073
Mof_H 	H 	0.6247	0.7262	0.2866	-0.013
Mof_C 	C 	0.5106	0.7094	0.3856	-0.222
Mof_N 	N 	0.5331	0.6544	0.3178	-0.242
Mof_C 	C 	0.5532	0.7761	0.3682	0.1
Mof_H 	H 	0.5552	0.8166	0.382	0.009
Mof_C 	C 	0.5956	0.7801	0.3265	-0.143
Mof_H 	H 	0.6276	0.8247	0.3131	0.08
Mof_O 	O 	0.3634	0.7969	0.4435	-0.709
Mof_O 	O 	0.2466	0.719	0.4454	-0.707
Mof_I 	I 	0.38764	0.92343	0.19169	-0.614
Mof_Cu	Cu	0.43183	0.94933	0.28233	0.723
Mof_C 	C 	0.3017	0.7697	0.4283	0.586
Mof_C 	C 	0.353	0.8502	0.3592	0.09
Mof_H 	H 	0.3986	0.8624	0.3705	-0.014
Mof_C 	C 	0.278	0.8673	0.3079	0.073
Mof_H 	H 	0.2738	0.8985	0.2866	-0.013
Mof_C 	C 	0.2906	0.8012	0.3856	-0.222
Mof_N 	N 	0.3456	0.8787	0.3178	-0.242
Mof_C 	C 	0.2239	0.7771	0.3682	0.1
Mof_H 	H 	0.1834	0.7386	0.382	0.009
Mof_C 	C 	0.2199	0.8155	0.3265	-0.143
Mof_H 	H 	0.1753	0.8029	0.3131	0.08
Mof_O 	O 	0.7969	0.4335	0.4435	-0.709
Mof_O 	O 	0.719	0.4724	0.4454	-0.707
Mof_I 	I 	0.92343	0.53579	0.19169	-0.615
Mof_Cu	Cu	0.94933	0.5175	0.28233	0.723
Mof_C 	C 	0.7697	0.468	0.4283	0.586
Mof_C 	C 	0.8502	0.4972	0.3592	0.09
Mof_H 	H 	0.8624	0.4638	0.3705	-0.014
Mof_C 	C 	0.8673	0.5893	0.3079	0.073
Mof_H 	H 	0.8985	0.6247	0.2866	-0.013
Mof_C 	C 	0.8012	0.5106	0.3856	-0.222
Mof_N 	N 	0.8787	0.5331	0.3178	-0.242
Mof_C 	C 	0.7771	0.5532	0.3682	0.1
Mof_H 	H 	0.7386	0.5552	0.382	0.009
Mof_C 	C 	0.8155	0.5956	0.3265	-0.143
Mof_H 	H 	0.8029	0.6276	0.3131	0.08
Mof_O 	O 	0.5665	0.3634	0.4435	-0.708
Mof_O 	O 	0.5276	0.2466	0.4454	-0.707
Mof_I 	I 	0.46421	0.38764	0.19169	-0.615
Mof_Cu	Cu	0.4825	0.43183	0.28233	0.723
Mof_C 	C 	0.532	0.3017	0.4283	0.586
Mof_C 	C 	0.5028	0.353	0.3592	0.09
Mof_H 	H 	0.5362	0.3986	0.3705	-0.014
Mof_C 	C 	0.4107	0.278	0.3079	0.073
Mof_H 	H 	0.3753	0.2738	0.2866	-0.013
Mof_C 	C 	0.4894	0.2906	0.3856	-0.222
Mof_N 	N 	0.4669	0.3456	0.3178	-0.242
Mof_C 	C 	0.4468	0.2239	0.3682	0.1
Mof_H 	H 	0.4448	0.1834	0.382	0.009
Mof_C 	C 	0.4044	0.2199	0.3265	-0.143
Mof_H 	H 	0.3724	0.1753	0.3131	0.08
Mof_O 	O 	0.6366	0.2031	0.4435	-0.709
Mof_O 	O 	0.7534	0.281	0.4454	-0.707
Mof_I 	I 	0.61236	0.07657	0.19169	-0.614
Mof_Cu	Cu	0.56817	0.05067	0.28233	0.723
Mof_C 	C 	0.6983	0.2303	0.4283	0.586
Mof_C 	C 	0.647	0.1498	0.3592	0.09
Mof_H 	H 	0.6014	0.1376	0.3705	-0.014
Mof_C 	C 	0.722	0.1327	0.3079	0.073
Mof_H 	H 	0.7262	0.1015	0.2866	-0.013
Mof_C 	C 	0.7094	0.1988	0.3856	-0.222
Mof_N 	N 	0.6544	0.1213	0.3178	-0.242
Mof_C 	C 	0.7761	0.2229	0.3682	0.1
Mof_H 	H 	0.8166	0.2614	0.382	0.009
Mof_C 	C 	0.7801	0.1845	0.3265	-0.143
Mof_H 	H 	0.8247	0.1971	0.3131	0.08
Mof_O 	O 	0.5665	0.2031	0.0565	-0.673
Mof_O 	O 	0.5276	0.281	0.0546	-0.674
Mof_I 	I 	0.46421	0.07657	0.30831	-0.608
Mof_Cu	Cu	0.4825	0.05067	0.21767	0.722
Mof_C 	C 	0.532	0.2303	0.0717	0.554
Mof_C 	C 	0.5028	0.1498	0.1408	0.084
Mof_H 	H 	0.5362	0.1376	0.1295	-0.014
Mof_C 	C 	0.4107	0.1327	0.1921	0.068
Mof_H 	H 	0.3753	0.1015	0.2134	-0.013
Mof_C 	C 	0.4894	0.1988	0.1144	-0.215
Mof_N 	N 	0.4669	0.1213	0.1822	-0.242
Mof_C 	C 	0.4468	0.2229	0.1318	0.09
Mof_H 	H 	0.4448	0.2614	0.118	0.006
Mof_C 	C 	0.4044	0.1845	0.1735	-0.142
Mof_H 	H 	0.3724	0.1971	0.1869	0.077
Mof_O 	O 	0.6366	0.4335	0.0565	-0.673
Mof_O 	O 	0.7534	0.4724	0.0546	-0.674
Mof_I 	I 	0.61236	0.53579	0.30831	-0.608
Mof_Cu	Cu	0.56817	0.5175	0.21767	0.722
Mof_C 	C 	0.6983	0.468	0.0717	0.554
Mof_C 	C 	0.647	0.4972	0.1408	0.084
Mof_H 	H 	0.6014	0.4638	0.1295	-0.014
Mof_C 	C 	0.722	0.5893	0.1921	0.068
Mof_H 	H 	0.7262	0.6247	0.2134	-0.013
Mof_C 	C 	0.7094	0.5106	0.1144	-0.215
Mof_N 	N 	0.6544	0.5331	0.1822	-0.242
Mof_C 	C 	0.7761	0.5532	0.1318	0.09
Mof_H 	H 	0.8166	0.5552	0.118	0.006
Mof_C 	C 	0.7801	0.5956	0.1735	-0.142
Mof_H 	H 	0.8247	0.6276	0.1869	0.077
Mof_O 	O 	0.7969	0.3634	0.0565	-0.673
Mof_O 	O 	0.719	0.2466	0.0546	-0.674
Mof_I 	I 	0.92343	0.38764	0.30831	-0.608
Mof_Cu	Cu	0.94933	0.43183	0.21767	0.722
Mof_C 	C 	0.7697	0.3017	0.0717	0.554
Mof_C 	C 	0.8502	0.353	0.1408	0.084
Mof_H 	H 	0.8624	0.3986	0.1295	-0.014
Mof_C 	C 	0.8673	0.278	0.1921	0.068
Mof_H 	H 	0.8985	0.2738	0.2134	-0.013
Mof_C 	C 	0.8012	0.2906	0.1144	-0.215
Mof_N 	N 	0.8787	0.3456	0.1822	-0.242
Mof_C 	C 	0.7771	0.2239	0.1318	0.09
Mof_H 	H 	0.7386	0.1834	0.118	0.006
Mof_C 	C 	0.8155	0.2199	0.1735	-0.142
Mof_H 	H 	0.8029	0.1753	0.1869	0.077
Mof_O 	O 	0.4335	0.7969	0.0565	-0.673
Mof_O 	O 	0.4724	0.719	0.0546	-0.674
Mof_I 	I 	0.53579	0.92343	0.30831	-0.608
Mof_Cu	Cu	0.5175	0.94933	0.21767	0.722
Mof_C 	C 	0.468	0.7697	0.0717	0.554
Mof_C 	C 	0.4972	0.8502	0.1408	0.084
Mof_H 	H 	0.4638	0.8624	0.1295	-0.014
Mof_C 	C 	0.5893	0.8673	0.1921	0.068
Mof_H 	H 	0.6247	0.8985	0.2134	-0.013
Mof_C 	C 	0.5106	0.8012	0.1144	-0.215
Mof_N 	N 	0.5331	0.8787	0.1822	-0.242
Mof_C 	C 	0.5532	0.7771	0.1318	0.09
Mof_H 	H 	0.5552	0.7386	0.118	0.006
Mof_C 	C 	0.5956	0.8155	0.1735	-0.142
Mof_H 	H 	0.6276	0.8029	0.1869	0.077
Mof_O 	O 	0.3634	0.5665	0.0565	-0.673
Mof_O 	O 	0.2466	0.5276	0.0546	-0.674
Mof_I 	I 	0.38764	0.46421	0.30831	-0.608
Mof_Cu	Cu	0.43183	0.4825	0.21767	0.722
Mof_C 	C 	0.3017	0.532	0.0717	0.554
Mof_C 	C 	0.353	0.5028	0.1408	0.084
Mof_H 	H 	0.3986	0.5362	0.1295	-0.014
Mof_C 	C 	0.278	0.4107	0.1921	0.068
Mof_H 	H 	0.2738	0.3753	0.2134	-0.013
Mof_C 	C 	0.2906	0.4894	0.1144	-0.215
Mof_N 	N 	0.3456	0.4669	0.1822	-0.242
Mof_C 	C 	0.2239	0.4468	0.1318	0.09
Mof_H 	H 	0.1834	0.4448	0.118	0.006
Mof_C 	C 	0.2199	0.4044	0.1735	-0.142
Mof_H 	H 	0.1753	0.3724	0.1869	0.077
Mof_O 	O 	0.2031	0.6366	0.0565	-0.673
Mof_O 	O 	0.281	0.7534	0.0546	-0.674
Mof_I 	I 	0.07657	0.61236	0.30831	-0.608
Mof_Cu	Cu	0.05067	0.56817	0.21767	0.722
Mof_C 	C 	0.2303	0.6983	0.0717	0.554
Mof_C 	C 	0.1498	0.647	0.1408	0.084
Mof_H 	H 	0.1376	0.6014	0.1295	-0.014
Mof_C 	C 	0.1327	0.722	0.1921	0.068
Mof_H 	H 	0.1015	0.7262	0.2134	-0.013
Mof_C 	C 	0.1988	0.7094	0.1144	-0.215
Mof_N 	N 	0.1213	0.6544	0.1822	-0.242
Mof_C 	C 	0.2229	0.7761	0.1318	0.09
Mof_H 	H 	0.2614	0.8166	0.118	0.006
Mof_C 	C 	0.1845	0.7801	0.1735	-0.142
Mof_H 	H 	0.1971	0.8247	0.1869	0.077
Mof_O 	O 	0.7969	0.4335	0.5565	-0.709
Mof_O 	O 	0.719	0.4724	0.5546	-0.707
Mof_I 	I 	0.92343	0.53579	0.80831	-0.592
Mof_Cu	Cu	0.94933	0.5175	0.71767	0.722
Mof_C 	C 	0.7697	0.468	0.5717	0.586
Mof_C 	C 	0.8502	0.4972	0.6408	0.09
Mof_H 	H 	0.8624	0.4638	0.6295	-0.014
Mof_C 	C 	0.8673	0.5893	0.6921	0.072
Mof_H 	H 	0.8985	0.6247	0.7134	-0.01
Mof_C 	C 	0.8012	0.5106	0.6144	-0.222
Mof_N 	N 	0.8787	0.5331	0.6822	-0.243
Mof_C 	C 	0.7771	0.5532	0.6318	0.1
Mof_H 	H 	0.7386	0.5552	0.618	0.009
Mof_C 	C 	0.8155	0.5956	0.6735	-0.142
Mof_H 	H 	0.8029	0.6276	0.6869	0.082
Mof_O 	O 	0.5665	0.3634	0.5565	-0.709
Mof_O 	O 	0.5276	0.2466	0.5546	-0.707
Mof_I 	I 	0.46421	0.38764	0.80831	-0.591
Mof_Cu	Cu	0.4825	0.43183	0.71767	0.722
Mof_C 	C 	0.532	0.3017	0.5717	0.586
Mof_C 	C 	0.5028	0.353	0.6408	0.09
Mof_H 	H 	0.5362	0.3986	0.6295	-0.014
Mof_C 	C 	0.4107	0.278	0.6921	0.072
Mof_H 	H 	0.3753	0.2738	0.7134	-0.01
Mof_C 	C 	0.4894	0.2906	0.6144	-0.222
Mof_N 	N 	0.4669	0.3456	0.6822	-0.243
Mof_C 	C 	0.4468	0.2239	0.6318	0.1
Mof_H 	H 	0.4448	0.1834	0.618	0.009
Mof_C 	C 	0.4044	0.2199	0.6735	-0.142
Mof_H 	H 	0.3724	0.1753	0.6869	0.082
Mof_O 	O 	0.6366	0.2031	0.5565	-0.709
Mof_O 	O 	0.7534	0.281	0.5546	-0.707
Mof_I 	I 	0.61236	0.07657	0.80831	-0.592
Mof_Cu	Cu	0.56817	0.05067	0.71767	0.722
Mof_C 	C 	0.6983	0.2303	0.5717	0.586
Mof_C 	C 	0.647	0.1498	0.6408	0.09
Mof_H 	H 	0.6014	0.1376	0.6295	-0.014
Mof_C 	C 	0.722	0.1327	0.6921	0.072
Mof_H 	H 	0.7262	0.1015	0.7134	-0.01
Mof_C 	C 	0.7094	0.1988	0.6144	-0.222
Mof_N 	N 	0.6544	0.1213	0.6822	-0.243
Mof_C 	C 	0.7761	0.2229	0.6318	0.1
Mof_H 	H 	0.8166	0.2614	0.618	0.009
Mof_C 	C 	0.7801	0.1845	0.6735	-0.142
Mof_H 	H 	0.8247	0.1971	0.6869	0.082
Mof_O 	O 	0.2031	0.5665	0.5565	-0.709
Mof_O 	O 	0.281	0.5276	0.5546	-0.707
Mof_I 	I 	0.07657	0.46421	0.80831	-0.592
Mof_Cu	Cu	0.05067	0.4825	0.71767	0.722
Mof_C 	C 	0.2303	0.532	0.5717	0.586
Mof_C 	C 	0.1498	0.5028	0.6408	0.09
Mof_H 	H 	0.1376	0.5362	0.6295	-0.014
Mof_C 	C 	0.1327	0.4107	0.6921	0.072
Mof_H 	H 	0.1015	0.3753	0.7134	-0.01
Mof_C 	C 	0.1988	0.4894	0.6144	-0.222
Mof_N 	N 	0.1213	0.4669	0.6822	-0.243
Mof_C 	C 	0.2229	0.4468	0.6318	0.1
Mof_H 	H 	0.2614	0.4448	0.618	0.009
Mof_C 	C 	0.1845	0.4044	0.6735	-0.142
Mof_H 	H 	0.1971	0.3724	0.6869	0.082
Mof_O 	O 	0.4335	0.6366	0.5565	-0.709
Mof_O 	O 	0.4724	0.7534	0.5546	-0.707
Mof_I 	I 	0.53579	0.61236	0.80831	-0.591
Mof_Cu	Cu	0.5175	0.56817	0.71767	0.722
Mof_C 	C 	0.468	0.6983	0.5717	0.586
Mof_C 	C 	0.4972	0.647	0.6408	0.09
Mof_H 	H 	0.4638	0.6014	0.6295	-0.014
Mof_C 	C 	0.5893	0.722	0.6921	0.072
Mof_H 	H 	0.6247	0.7262	0.7134	-0.01
Mof_C 	C 	0.5106	0.7094	0.6144	-0.222
Mof_N 	N 	0.5331	0.6544	0.6822	-0.243
Mof_C 	C 	0.5532	0.7761	0.6318	0.1
Mof_H 	H 	0.5552	0.8166	0.618	0.009
Mof_C 	C 	0.5956	0.7801	0.6735	-0.142
Mof_H 	H 	0.6276	0.8247	0.6869	0.082
Mof_O 	O 	0.3634	0.7969	0.5565	-0.709
Mof_O 	O 	0.2466	0.719	0.5546	-0.707
Mof_I 	I 	0.38764	0.92343	0.80831	-0.592
Mof_Cu	Cu	0.43183	0.94933	0.71767	0.722
Mof_C 	C 	0.3017	0.7697	0.5717	0.586
Mof_C 	C 	0.353	0.8502	0.6408	0.09
Mof_H 	H 	0.3986	0.8624	0.6295	-0.014
Mof_C 	C 	0.278	0.8673	0.6921	0.072
Mof_H 	H 	0.2738	0.8985	0.7134	-0.01
Mof_C 	C 	0.2906	0.8012	0.6144	-0.222
Mof_N 	N 	0.3456	0.8787	0.6822	-0.243
Mof_C 	C 	0.2239	0.7771	0.6318	0.1
Mof_H 	H 	0.1834	0.7386	0.618	0.009
Mof_C 	C 	0.2199	0.8155	0.6735	-0.142
Mof_H 	H 	0.1753	0.8029	0.6869	0.082
Mof_O 	O 	0.4335	0.7969	0.9435	-0.598
Mof_O 	O 	0.4724	0.719	0.9454	-0.595
Mof_I 	I 	0.53579	0.92343	0.69169	-0.608
Mof_Cu	Cu	0.5175	0.94933	0.78233	0.723
Mof_C 	C 	0.468	0.7697	0.9283	0.544
Mof_C 	C 	0.4972	0.8502	0.8592	0.083
Mof_H 	H 	0.4638	0.8624	0.8705	-0.002
Mof_C 	C 	0.5893	0.8673	0.8079	0.07
Mof_H 	H 	0.6247	0.8985	0.7866	-0.007
Mof_C 	C 	0.5106	0.8012	0.8856	-0.187
Mof_N 	N 	0.5331	0.8787	0.8178	-0.238
Mof_C 	C 	0.5532	0.7771	0.8682	0.087
Mof_H 	H 	0.5552	0.7386	0.882	0.027
Mof_C 	C 	0.5956	0.8155	0.8265	-0.128
Mof_H 	H 	0.6276	0.8029	0.8131	0.082
Mof_O 	O 	0.3634	0.5665	0.9435	-0.597
Mof_O 	O 	0.2466	0.5276	0.9454	-0.595
Mof_I 	I 	0.38764	0.46421	0.69169	-0.608
Mof_Cu	Cu	0.43183	0.4825	0.78233	0.723
Mof_C 	C 	0.3017	0.532	0.9283	0.544
Mof_C 	C 	0.353	0.5028	0.8592	0.083
Mof_H 	H 	0.3986	0.5362	0.8705	-0.001
Mof_C 	C 	0.278	0.4107	0.8079	0.07
Mof_H 	H 	0.2738	0.3753	0.7866	-0.007
Mof_C 	C 	0.2906	0.4894	0.8856	-0.187
Mof_N 	N 	0.3456	0.4669	0.8178	-0.238
Mof_C 	C 	0.2239	0.4468	0.8682	0.087
Mof_H 	H 	0.1834	0.4448	0.882	0.027
Mof_C 	C 	0.2199	0.4044	0.8265	-0.128
Mof_H 	H 	0.1753	0.3724	0.8131	0.082
Mof_O 	O 	0.2031	0.6366	0.9435	-0.598
Mof_O 	O 	0.281	0.7534	0.9454	-0.595
Mof_I 	I 	0.07657	0.61236	0.69169	-0.608
Mof_Cu	Cu	0.05067	0.56817	0.78233	0.723
Mof_C 	C 	0.2303	0.6983	0.9283	0.544
Mof_C 	C 	0.1498	0.647	0.8592	0.083
Mof_H 	H 	0.1376	0.6014	0.8705	-0.002
Mof_C 	C 	0.1327	0.722	0.8079	0.07
Mof_H 	H 	0.1015	0.7262	0.7866	-0.007
Mof_C 	C 	0.1988	0.7094	0.8856	-0.188
Mof_N 	N 	0.1213	0.6544	0.8178	-0.238
Mof_C 	C 	0.2229	0.7761	0.8682	0.087
Mof_H 	H 	0.2614	0.8166	0.882	0.026
Mof_C 	C 	0.1845	0.7801	0.8265	-0.128
Mof_H 	H 	0.1971	0.8247	0.8131	0.082
Mof_O 	O 	0.5665	0.2031	0.9435	-0.598
Mof_O 	O 	0.5276	0.281	0.9454	-0.595
Mof_I 	I 	0.46421	0.07657	0.69169	-0.608
Mof_Cu	Cu	0.4825	0.05067	0.78233	0.723
Mof_C 	C 	0.532	0.2303	0.9283	0.544
Mof_C 	C 	0.5028	0.1498	0.8592	0.083
Mof_H 	H 	0.5362	0.1376	0.8705	-0.002
Mof_C 	C 	0.4107	0.1327	0.8079	0.07
Mof_H 	H 	0.3753	0.1015	0.7866	-0.007
Mof_C 	C 	0.4894	0.1988	0.8856	-0.187
Mof_N 	N 	0.4669	0.1213	0.8178	-0.238
Mof_C 	C 	0.4468	0.2229	0.8682	0.087
Mof_H 	H 	0.4448	0.2614	0.882	0.027
Mof_C 	C 	0.4044	0.1845	0.8265	-0.128
Mof_H 	H 	0.3724	0.1971	0.8131	0.082
Mof_O 	O 	0.6366	0.4335	0.9435	-0.597
Mof_O 	O 	0.7534	0.4724	0.9454	-0.595
Mof_I 	I 	0.61236	0.53579	0.69169	-0.608
Mof_Cu	Cu	0.56817	0.5175	0.78233	0.723
Mof_C 	C 	0.6983	0.468	0.9283	0.544
Mof_C 	C 	0.647	0.4972	0.8592	0.083
Mof_H 	H 	0.6014	0.4638	0.8705	-0.001
Mof_C 	C 	0.722	0.5893	0.8079	0.07
Mof_H 	H 	0.7262	0.6247	0.7866	-0.007
Mof_C 	C 	0.7094	0.5106	0.8856	-0.187
Mof_N 	N 	0.6544	0.5331	0.8178	-0.238
Mof_C 	C 	0.7761	0.5532	0.8682	0.087
Mof_H 	H 	0.8166	0.5552	0.882	0.027
Mof_C 	C 	0.7801	0.5956	0.8265	-0.128
Mof_H 	H 	0.8247	0.6276	0.8131	0.082
Mof_O 	O 	0.7969	0.3634	0.9435	-0.598
Mof_O 	O 	0.719	0.2466	0.9454	-0.595
Mof_I 	I 	0.92343	0.38764	0.69169	-0.608
Mof_Cu	Cu	0.94933	0.43183	0.78233	0.723
Mof_C 	C 	0.7697	0.3017	0.9283	0.544
Mof_C 	C 	0.8502	0.353	0.8592	0.083
Mof_H 	H 	0.8624	0.3986	0.8705	-0.002
Mof_C 	C 	0.8673	0.278	0.8079	0.07
Mof_H 	H 	0.8985	0.2738	0.7866	-0.007
Mof_C 	C 	0.8012	0.2906	0.8856	-0.188
Mof_N 	N 	0.8787	0.3456	0.8178	-0.238
Mof_C 	C 	0.7771	0.2239	0.8682	0.087
Mof_H 	H 	0.7386	0.1834	0.882	0.026
Mof_C 	C 	0.8155	0.2199	0.8265	-0.128
Mof_H 	H 	0.8029	0.1753	0.8131	0.082
Mof_In	In	0.23073	0.64358	0.5	2.417
Mof_In	In	0.35642	0.58715	0.5	2.417
Mof_In	In	0.41285	0.76927	0.5	2.417
Mof_In	In	0.76927	0.35642	0.5	2.417
Mof_In	In	0.64358	0.41285	0.5	2.417
Mof_In	In	0.58715	0.23073	0.5	2.417
Mof_In	In	0.64358	0.23073	-0	2.113
Mof_In	In	0.58715	0.35642	-0	2.11
Mof_In	In	0.76927	0.41285	-0	2.112
Mof_In	In	0.35642	0.76927	-0	2.113
Mof_In	In	0.41285	0.64358	-0	2.11
Mof_In	In	0.23073	0.58715	-0	2.112
Mof_O 	O 	0.33333	0.66667	0.5	-1.273
Mof_O 	O 	0.66667	0.33333	0.5	-1.273
Mof_O 	O 	0.66667	0.33333	-0	-1.187
Mof_O 	O 	0.33333	0.66667	-0	-1.187
_end
