data_functionalizedCrystal
_audit_creation_method	'EQeq! by Chris Wilmer'
_symmetry_space_group_name_H-M	'P1'
_symmetry_Int_Tables_number	1
_symmetry_cell_setting	triclinic
loop_
_symmetry_equiv_pos_as_xyz
  x,y,z
_cell_length_a	27.994
_cell_length_b	27.994
_cell_length_c	19.391
_cell_angle_alpha	90
_cell_angle_beta	90
_cell_angle_gamma	90
loop_
_atom_site_label
_atom_site_type_symbol
_atom_site_fract_x
_atom_site_fract_y
_atom_site_fract_z
_atom_site_charge
Mof_O 	O 	0.9907	0.9701	0.9941	-0.483
Mof_Rb	Rb	0.93829	0.03498	0.88724	3.127
Mof_C 	C 	0.05719	0.08778	0.8086	0.398
Mof_C 	C 	0.09031	0.16073	0.7806	0.052
Mof_H 	H 	0.071	0.1902	0.7758	0.038
Mof_C 	C 	0.08733	0.13078	0.7163	0.066
Mof_H 	H 	0.0663	0.1454	0.6811	0.014
Mof_C 	C 	0.1673	0.15521	0.7328	0.26
Mof_C 	C 	0.04892	0.05064	0.6964	0.126
Mof_H 	H 	0.0313	0.0669	0.6596	-0.006
Mof_H 	H 	0.0261	0.0313	0.7227	-0.065
Mof_C 	C 	0.1488	0.11265	0.6244	0.046
Mof_H 	H 	0.1243	0.1239	0.5921	0.026
Mof_H 	H 	0.1793	0.1271	0.6109	0.043
Mof_C 	C 	0.0881	0.97156	0.68	0.304
Mof_C 	C 	0.11118	0.0322	0.6064	0.068
Mof_H 	H 	0.0901	0.0461	0.5706	0.016
Mof_C 	C 	0.13361	0.9845	0.5813	0.054
Mof_H 	H 	0.1206	0.9747	0.536	0.02
Mof_C 	C 	0.19369	0.0412	0.5983	0.248
Mof_C 	C 	0.12834	0.9013	0.6313	0.053
Mof_H 	H 	0.1208	0.8902	0.5846	0.022
Mof_H 	H 	0.1069	0.8848	0.6634	0.023
Mof_C 	C 	0.21861	0.9654	0.5399	0.046
Mof_H 	H 	0.2026	0.9506	0.5003	0.026
Mof_H 	H 	0.2442	0.9858	0.5221	0.041
Mof_C 	C 	0.18801	0.86551	0.707	0.265
Mof_C 	C 	0.2148	0.88401	0.5963	0.055
Mof_H 	H 	0.2038	0.8672	0.5543	0.022
Mof_C 	C 	0.25391	0.85566	0.6362	0.07
Mof_H 	H 	0.2616	0.8253	0.6125	0.028
Mof_C 	C 	0.28538	0.92949	0.6027	0.287
Mof_C 	C 	0.2517	0.8138	0.7495	0.041
Mof_H 	H 	0.2652	0.7868	0.724	0.046
Mof_H 	H 	0.2249	0.8016	0.7769	0.043
Mof_C 	C 	0.34171	0.8747	0.6576	0.179
Mof_H 	H 	0.3653	0.8954	0.6353	-0.167
Mof_H 	H 	0.3479	0.8419	0.6424	-0.028
Mof_C 	C 	0.281	0.8338	0.8653	0.285
Mof_C 	C 	0.3376	0.8374	0.7741	0.071
Mof_H 	H 	0.3505	0.8073	0.7549	0.03
Mof_C 	C 	0.3616	0.8506	0.8421	0.051
Mof_H 	H 	0.3896	0.8301	0.8518	0.029
Mof_C 	C 	0.3718	0.9131	0.7649	0.27
Mof_C 	C 	0.3337	0.8404	0.9662	0.026
Mof_H 	H 	0.3641	0.8237	0.9731	0.042
Mof_H 	H 	0.3084	0.8216	0.9884	0.058
Mof_C 	C 	0.40912	0.9258	0.8778	0.069
Mof_H 	H 	0.4344	0.9037	0.892	0.014
Mof_H 	H 	0.4241	0.9521	0.8523	0.024
Mof_C 	C 	0.2989	0.9087	0.0413	0.247
Mof_C 	C 	0.3765	0.9209	0.9997	0.13
Mof_H 	H 	0.4051	0.9028	0.0143	-0.015
Mof_C 	C 	0.3646	0.9573	0.054	0.012
Mof_H 	H 	0.3858	0.9555	0.0949	0.032
Mof_C 	C 	0.38398	0.9909	0.9462	0.26
Mof_C 	C 	0.2903	0.9696	0.1262	0.035
Mof_H 	H 	0.2642	0.9493	0.1425	0.045
Mof_H 	H 	0.3129	0.9735	0.1644	0.03
Mof_C 	C 	0.3745	0.0524	0.041	0.026
Mof_H 	H 	0.3936	0.052	0.0834	0.031
Mof_H 	H 	0.3915	0.072	0.0071	0.048
Mof_C 	C 	0.222	0.0255	0.0947	0.301
Mof_C 	C 	0.2963	0.0643	0.1115	0.051
Mof_H 	H 	0.3138	0.0663	0.1558	0.025
Mof_C 	C 	0.2593	0.1031	0.1099	0.044
Mof_H 	H 	0.2552	0.1193	0.1549	0.033
Mof_C 	C 	0.3207	0.1175	0.0289	0.229
Mof_C 	C 	0.1691	0.0976	0.0909	0.011
Mof_H 	H 	0.1446	0.0733	0.0995	0.052
Mof_H 	H 	0.1686	0.1196	0.1302	0.065
Mof_C 	C 	0.2573	0.1804	0.041	0.012
Mof_H 	H 	0.2818	0.2007	0.0197	0.052
Mof_H 	H 	0.2483	0.195	0.085	0.061
Mof_C 	C 	0.1161	0.1126	0.9898	0.314
Mof_C 	C 	0.1674	0.1748	0.0169	0.008
Mof_H 	H 	0.16	0.1953	0.057	0.058
Mof_C 	C 	0.137	0.1863	0.9566	0.089
Mof_H 	H 	0.1193	0.2165	0.9635	0.041
Mof_C 	C 	0.2178	0.193	0.9304	0.288
Mof_C 	C 	0.06227	0.1453	0.905	0.109
Mof_H 	H 	0.0482	0.1773	0.9048	0.026
Mof_H 	H 	0.0391	0.1235	0.9259	-0.021
Mof_C 	C 	0.1601	0.2096	0.8343	0.023
Mof_H 	H 	0.1363	0.2351	0.8388	0.058
Mof_H 	H 	0.1891	0.2235	0.8141	0.057
Mof_N 	N 	0.07115	0.13038	0.8336	-0.214
Mof_N 	N 	0.06908	0.08519	0.7404	-0.232
Mof_N 	N 	0.14171	0.17249	0.7887	-0.145
Mof_N 	N 	0.13653	0.12868	0.6937	-0.159
Mof_N 	N 	0.0847	0.01891	0.6653	-0.203
Mof_N 	N 	0.11972	0.9518	0.6353	-0.176
Mof_N 	N 	0.15263	0.06314	0.6191	-0.158
Mof_N 	N 	0.18395	0.99528	0.5771	-0.15
Mof_N 	N 	0.17738	0.88868	0.6475	-0.16
Mof_N 	N 	0.23384	0.84715	0.7017	-0.154
Mof_N 	N 	0.239	0.92914	0.5807	-0.157
Mof_N 	N 	0.29506	0.88853	0.635	-0.181
Mof_N 	N 	0.28778	0.83204	0.7961	-0.153
Mof_N 	N 	0.3239	0.8441	0.8932	-0.147
Mof_N 	N 	0.34814	0.8773	0.7309	-0.211
Mof_N 	N 	0.37521	0.9008	0.8324	-0.168
Mof_N 	N 	0.3361	0.8895	0.9993	-0.136
Mof_N 	N 	0.3146	0.9453	0.0694	-0.159
Mof_N 	N 	0.38631	0.9442	0.937	-0.166
Mof_N 	N 	0.3709	0.0019	0.0138	-0.145
Mof_N 	N 	0.2711	0.0163	0.1079	-0.147
Mof_N 	N 	0.2174	0.0727	0.0904	-0.157
Mof_N 	N 	0.3298	0.074	0.0554	-0.145
Mof_N 	N 	0.2772	0.1358	0.054	-0.135
Mof_N 	N 	0.15491	0.1243	0.0297	-0.161
Mof_N 	N 	0.10453	0.1459	0.946	-0.19
Mof_N 	N 	0.2155	0.1794	0.9961	-0.124
Mof_N 	N 	0.17127	0.1904	0.9025	-0.143
Mof_O 	O 	0.03548	0.05645	0.841	-0.845
Mof_O 	O 	0.06593	0.95073	0.72643	-0.494
Mof_O 	O 	0.16235	0.86263	0.7582	-0.288
Mof_O 	O 	0.24539	0.8262	0.898	-0.252
Mof_O 	O 	0.26123	0.886	0.0558	-0.241
Mof_O 	O 	0.1915	0.998	0.0944	-0.302
Mof_O 	O 	0.09732	0.0721	0.9947	-0.338
Mof_O 	O 	0.20884	0.16362	0.7209	-0.239
Mof_O 	O 	0.23441	0.05982	0.597	-0.231
Mof_O 	O 	0.31421	0.96246	0.5926	-0.285
Mof_O 	O 	0.38627	0.94978	0.737	-0.479
Mof_O 	O 	0.39164	0.0255	0.903	-0.201
Mof_O 	O 	0.34468	0.1392	0.9864	-0.201
Mof_O 	O 	0.25319	0.20219	0.899	-0.239
Mof_O 	O 	0.4907	0.4701	0.4941	-0.49
Mof_Rb	Rb	0.43829	0.53498	0.38724	3.118
Mof_C 	C 	0.55719	0.58778	0.3086	0.397
Mof_C 	C 	0.59031	0.66073	0.2806	0.051
Mof_H 	H 	0.571	0.6902	0.2758	0.037
Mof_C 	C 	0.58733	0.63078	0.2163	0.066
Mof_H 	H 	0.5663	0.6454	0.1811	0.012
Mof_C 	C 	0.6673	0.65521	0.2328	0.259
Mof_C 	C 	0.54892	0.55064	0.1964	0.127
Mof_H 	H 	0.5313	0.5669	0.1596	-0.008
Mof_H 	H 	0.5261	0.5313	0.2227	-0.066
Mof_C 	C 	0.6488	0.61265	0.1244	0.048
Mof_H 	H 	0.6243	0.6239	0.0921	0.021
Mof_H 	H 	0.6793	0.6271	0.1109	0.04
Mof_C 	C 	0.5881	0.47156	0.18	0.304
Mof_C 	C 	0.61118	0.5322	0.1064	0.067
Mof_H 	H 	0.5901	0.5461	0.0706	0.012
Mof_C 	C 	0.63361	0.4845	0.0813	0.056
Mof_H 	H 	0.6206	0.4747	0.036	0.015
Mof_C 	C 	0.69369	0.5412	0.0983	0.245
Mof_C 	C 	0.62834	0.4013	0.1313	0.055
Mof_H 	H 	0.6208	0.3902	0.0846	0.018
Mof_H 	H 	0.6069	0.3848	0.1634	0.021
Mof_C 	C 	0.71861	0.4654	0.0399	0.049
Mof_H 	H 	0.7026	0.4506	0.0003	0.02
Mof_H 	H 	0.7442	0.4858	0.0221	0.036
Mof_C 	C 	0.68801	0.36551	0.207	0.264
Mof_C 	C 	0.7148	0.38401	0.0963	0.055
Mof_H 	H 	0.7038	0.3672	0.0543	0.018
Mof_C 	C 	0.75391	0.35566	0.1362	0.069
Mof_H 	H 	0.7616	0.3253	0.1125	0.028
Mof_C 	C 	0.78538	0.42949	0.1027	0.286
Mof_C 	C 	0.7517	0.3138	0.2495	0.041
Mof_H 	H 	0.7652	0.2868	0.224	0.046
Mof_H 	H 	0.7249	0.3016	0.2769	0.042
Mof_C 	C 	0.84171	0.3747	0.1576	0.178
Mof_H 	H 	0.8653	0.3954	0.1353	-0.167
Mof_H 	H 	0.8479	0.3419	0.1424	-0.028
Mof_C 	C 	0.781	0.3338	0.3653	0.285
Mof_C 	C 	0.8376	0.3374	0.2741	0.071
Mof_H 	H 	0.8505	0.3073	0.2549	0.03
Mof_C 	C 	0.8616	0.3506	0.3421	0.051
Mof_H 	H 	0.8896	0.3301	0.3518	0.028
Mof_C 	C 	0.8718	0.4131	0.2649	0.27
Mof_C 	C 	0.8337	0.3404	0.4662	0.027
Mof_H 	H 	0.8641	0.3237	0.4731	0.036
Mof_H 	H 	0.8084	0.3216	0.4884	0.05
Mof_C 	C 	0.90912	0.4258	0.3778	0.065
Mof_H 	H 	0.9344	0.4037	0.392	0.012
Mof_H 	H 	0.9241	0.4521	0.3523	0.025
Mof_C 	C 	0.7989	0.4087	0.5413	0.268
Mof_C 	C 	0.8765	0.4209	0.4997	0.07
Mof_H 	H 	0.9051	0.4028	0.5143	0.02
Mof_C 	C 	0.8646	0.4573	0.554	0.048
Mof_H 	H 	0.8858	0.4555	0.5949	0.023
Mof_C 	C 	0.88398	0.4909	0.4462	0.24
Mof_C 	C 	0.7903	0.4696	0.6262	0.038
Mof_H 	H 	0.7642	0.4493	0.6425	0.045
Mof_H 	H 	0.8129	0.4735	0.6644	0.03
Mof_C 	C 	0.8745	0.5524	0.541	0.026
Mof_H 	H 	0.8936	0.552	0.5834	0.033
Mof_H 	H 	0.8915	0.572	0.5071	0.058
Mof_C 	C 	0.722	0.5255	0.5947	0.301
Mof_C 	C 	0.7963	0.5643	0.6115	0.051
Mof_H 	H 	0.8138	0.5663	0.6558	0.025
Mof_C 	C 	0.7593	0.6031	0.6099	0.046
Mof_H 	H 	0.7552	0.6193	0.6549	0.033
Mof_C 	C 	0.8207	0.6175	0.5289	0.26
Mof_C 	C 	0.6691	0.5976	0.5909	0.013
Mof_H 	H 	0.6446	0.5733	0.5995	0.056
Mof_H 	H 	0.6686	0.6196	0.6302	0.065
Mof_C 	C 	0.7573	0.6804	0.541	0.037
Mof_H 	H 	0.7818	0.7007	0.5197	0.054
Mof_H 	H 	0.7483	0.695	0.585	0.055
Mof_C 	C 	0.6161	0.6126	0.4898	0.294
Mof_C 	C 	0.6674	0.6748	0.5169	0.053
Mof_H 	H 	0.66	0.6953	0.557	0.05
Mof_C 	C 	0.637	0.6863	0.4566	0.059
Mof_H 	H 	0.6193	0.7165	0.4635	0.045
Mof_C 	C 	0.7178	0.693	0.4304	0.286
Mof_C 	C 	0.56227	0.6453	0.405	0.107
Mof_H 	H 	0.5482	0.6773	0.4048	0.025
Mof_H 	H 	0.5391	0.6235	0.4259	-0.022
Mof_C 	C 	0.6601	0.7096	0.3343	0.021
Mof_H 	H 	0.6363	0.7351	0.3388	0.058
Mof_H 	H 	0.6891	0.7235	0.3141	0.057
Mof_N 	N 	0.57115	0.63038	0.3336	-0.214
Mof_N 	N 	0.56908	0.58519	0.2404	-0.232
Mof_N 	N 	0.64171	0.67249	0.2887	-0.145
Mof_N 	N 	0.63653	0.62868	0.1937	-0.159
Mof_N 	N 	0.5847	0.51891	0.1653	-0.204
Mof_N 	N 	0.61972	0.4518	0.1353	-0.177
Mof_N 	N 	0.65263	0.56314	0.1191	-0.158
Mof_N 	N 	0.68395	0.49528	0.0771	-0.15
Mof_N 	N 	0.67738	0.38868	0.1475	-0.161
Mof_N 	N 	0.73384	0.34715	0.2017	-0.154
Mof_N 	N 	0.739	0.42914	0.0807	-0.158
Mof_N 	N 	0.79506	0.38853	0.135	-0.181
Mof_N 	N 	0.78778	0.33204	0.2961	-0.154
Mof_N 	N 	0.8239	0.3441	0.3932	-0.148
Mof_N 	N 	0.84814	0.3773	0.2309	-0.21
Mof_N 	N 	0.87521	0.4008	0.3324	-0.168
Mof_N 	N 	0.8361	0.3895	0.4993	-0.142
Mof_N 	N 	0.8146	0.4453	0.5694	-0.164
Mof_N 	N 	0.88631	0.4442	0.437	-0.157
Mof_N 	N 	0.8709	0.5019	0.5138	-0.136
Mof_N 	N 	0.7711	0.5163	0.6079	-0.147
Mof_N 	N 	0.7174	0.5727	0.5904	-0.156
Mof_N 	N 	0.8298	0.574	0.5554	-0.148
Mof_N 	N 	0.7772	0.6358	0.554	-0.141
Mof_N 	N 	0.65491	0.6243	0.5297	-0.152
Mof_N 	N 	0.60453	0.6459	0.446	-0.185
Mof_N 	N 	0.7155	0.6794	0.4961	-0.149
Mof_N 	N 	0.67127	0.6904	0.4025	-0.141
Mof_O 	O 	0.53548	0.55645	0.341	-0.844
Mof_O 	O 	0.56593	0.45073	0.22643	-0.493
Mof_O 	O 	0.66235	0.36263	0.2582	-0.289
Mof_O 	O 	0.74539	0.3262	0.398	-0.257
Mof_O 	O 	0.76123	0.386	0.5558	-0.239
Mof_O 	O 	0.6915	0.498	0.5944	-0.296
Mof_O 	O 	0.59732	0.5721	0.4947	-0.343
Mof_O 	O 	0.70884	0.66362	0.2209	-0.239
Mof_O 	O 	0.73441	0.55982	0.097	-0.233
Mof_O 	O 	0.81421	0.46246	0.0926	-0.288
Mof_O 	O 	0.88627	0.44978	0.237	-0.477
Mof_O 	O 	0.89164	0.5255	0.403	-0.203
Mof_O 	O 	0.84468	0.6392	0.4864	-0.23
Mof_O 	O 	0.75319	0.70219	0.399	-0.244
Mof_O 	O 	0.5093	0.5299	0.4941	-0.49
Mof_Rb	Rb	0.56171	0.46502	0.38724	3.118
Mof_C 	C 	0.44281	0.41222	0.3086	0.397
Mof_C 	C 	0.40969	0.33927	0.2806	0.051
Mof_H 	H 	0.429	0.3098	0.2758	0.037
Mof_C 	C 	0.41267	0.36922	0.2163	0.066
Mof_H 	H 	0.4337	0.3546	0.1811	0.012
Mof_C 	C 	0.3327	0.34479	0.2328	0.259
Mof_C 	C 	0.45108	0.44936	0.1964	0.127
Mof_H 	H 	0.4687	0.4331	0.1596	-0.008
Mof_H 	H 	0.4739	0.4687	0.2227	-0.066
Mof_C 	C 	0.3512	0.38735	0.1244	0.048
Mof_H 	H 	0.3757	0.3761	0.0921	0.021
Mof_H 	H 	0.3207	0.3729	0.1109	0.04
Mof_C 	C 	0.4119	0.52844	0.18	0.304
Mof_C 	C 	0.38882	0.4678	0.1064	0.067
Mof_H 	H 	0.4099	0.4539	0.0706	0.012
Mof_C 	C 	0.36639	0.5155	0.0813	0.056
Mof_H 	H 	0.3794	0.5253	0.036	0.015
Mof_C 	C 	0.30631	0.4588	0.0983	0.245
Mof_C 	C 	0.37166	0.5987	0.1313	0.055
Mof_H 	H 	0.3792	0.6098	0.0846	0.018
Mof_H 	H 	0.3931	0.6152	0.1634	0.021
Mof_C 	C 	0.28139	0.5346	0.0399	0.049
Mof_H 	H 	0.2974	0.5494	0.0003	0.02
Mof_H 	H 	0.2558	0.5142	0.0221	0.036
Mof_C 	C 	0.31199	0.63449	0.207	0.264
Mof_C 	C 	0.2852	0.61599	0.0963	0.055
Mof_H 	H 	0.2962	0.6328	0.0543	0.018
Mof_C 	C 	0.24609	0.64434	0.1362	0.069
Mof_H 	H 	0.2384	0.6747	0.1125	0.028
Mof_C 	C 	0.21462	0.57051	0.1027	0.286
Mof_C 	C 	0.2483	0.6862	0.2495	0.041
Mof_H 	H 	0.2348	0.7132	0.224	0.046
Mof_H 	H 	0.2751	0.6984	0.2769	0.042
Mof_C 	C 	0.15829	0.6253	0.1576	0.178
Mof_H 	H 	0.1347	0.6046	0.1353	-0.167
Mof_H 	H 	0.1521	0.6581	0.1424	-0.028
Mof_C 	C 	0.219	0.6662	0.3653	0.285
Mof_C 	C 	0.1624	0.6626	0.2741	0.071
Mof_H 	H 	0.1495	0.6927	0.2549	0.03
Mof_C 	C 	0.1384	0.6494	0.3421	0.051
Mof_H 	H 	0.1104	0.6699	0.3518	0.028
Mof_C 	C 	0.1282	0.5869	0.2649	0.27
Mof_C 	C 	0.1663	0.6596	0.4662	0.027
Mof_H 	H 	0.1359	0.6763	0.4731	0.036
Mof_H 	H 	0.1916	0.6784	0.4884	0.05
Mof_C 	C 	0.09088	0.5742	0.3778	0.065
Mof_H 	H 	0.0656	0.5963	0.392	0.012
Mof_H 	H 	0.0759	0.5479	0.3523	0.025
Mof_C 	C 	0.2011	0.5913	0.5413	0.268
Mof_C 	C 	0.1235	0.5791	0.4997	0.07
Mof_H 	H 	0.0949	0.5972	0.5143	0.02
Mof_C 	C 	0.1354	0.5427	0.554	0.048
Mof_H 	H 	0.1142	0.5445	0.5949	0.023
Mof_C 	C 	0.11602	0.5091	0.4462	0.24
Mof_C 	C 	0.2097	0.5304	0.6262	0.038
Mof_H 	H 	0.2358	0.5507	0.6425	0.045
Mof_H 	H 	0.1871	0.5265	0.6644	0.03
Mof_C 	C 	0.1255	0.4476	0.541	0.026
Mof_H 	H 	0.1064	0.448	0.5834	0.033
Mof_H 	H 	0.1085	0.428	0.5071	0.058
Mof_C 	C 	0.278	0.4745	0.5947	0.301
Mof_C 	C 	0.2037	0.4357	0.6115	0.051
Mof_H 	H 	0.1862	0.4337	0.6558	0.025
Mof_C 	C 	0.2407	0.3969	0.6099	0.046
Mof_H 	H 	0.2448	0.3807	0.6549	0.033
Mof_C 	C 	0.1793	0.3825	0.5289	0.26
Mof_C 	C 	0.3309	0.4024	0.5909	0.013
Mof_H 	H 	0.3554	0.4267	0.5995	0.056
Mof_H 	H 	0.3314	0.3804	0.6302	0.065
Mof_C 	C 	0.2427	0.3196	0.541	0.037
Mof_H 	H 	0.2182	0.2993	0.5197	0.054
Mof_H 	H 	0.2517	0.305	0.585	0.055
Mof_C 	C 	0.3839	0.3874	0.4898	0.294
Mof_C 	C 	0.3326	0.3252	0.5169	0.053
Mof_H 	H 	0.34	0.3047	0.557	0.05
Mof_C 	C 	0.363	0.3137	0.4566	0.059
Mof_H 	H 	0.3807	0.2835	0.4635	0.045
Mof_C 	C 	0.2822	0.307	0.4304	0.286
Mof_C 	C 	0.43773	0.3547	0.405	0.107
Mof_H 	H 	0.4518	0.3227	0.4048	0.025
Mof_H 	H 	0.4609	0.3765	0.4259	-0.022
Mof_C 	C 	0.3399	0.2904	0.3343	0.021
Mof_H 	H 	0.3637	0.2649	0.3388	0.058
Mof_H 	H 	0.3109	0.2765	0.3141	0.057
Mof_N 	N 	0.42885	0.36962	0.3336	-0.214
Mof_N 	N 	0.43092	0.41481	0.2404	-0.232
Mof_N 	N 	0.35829	0.32751	0.2887	-0.145
Mof_N 	N 	0.36347	0.37132	0.1937	-0.159
Mof_N 	N 	0.4153	0.48109	0.1653	-0.204
Mof_N 	N 	0.38028	0.5482	0.1353	-0.177
Mof_N 	N 	0.34737	0.43686	0.1191	-0.158
Mof_N 	N 	0.31605	0.50472	0.0771	-0.15
Mof_N 	N 	0.32262	0.61132	0.1475	-0.161
Mof_N 	N 	0.26616	0.65285	0.2017	-0.154
Mof_N 	N 	0.261	0.57086	0.0807	-0.158
Mof_N 	N 	0.20494	0.61147	0.135	-0.181
Mof_N 	N 	0.21222	0.66796	0.2961	-0.154
Mof_N 	N 	0.1761	0.6559	0.3932	-0.148
Mof_N 	N 	0.15186	0.6227	0.2309	-0.21
Mof_N 	N 	0.12479	0.5992	0.3324	-0.168
Mof_N 	N 	0.1639	0.6105	0.4993	-0.142
Mof_N 	N 	0.1854	0.5547	0.5694	-0.164
Mof_N 	N 	0.11369	0.5558	0.437	-0.157
Mof_N 	N 	0.1291	0.4981	0.5138	-0.136
Mof_N 	N 	0.2289	0.4837	0.6079	-0.147
Mof_N 	N 	0.2826	0.4273	0.5904	-0.156
Mof_N 	N 	0.1702	0.426	0.5554	-0.148
Mof_N 	N 	0.2228	0.3642	0.554	-0.141
Mof_N 	N 	0.34509	0.3757	0.5297	-0.152
Mof_N 	N 	0.39547	0.3541	0.446	-0.185
Mof_N 	N 	0.2845	0.3206	0.4961	-0.149
Mof_N 	N 	0.32873	0.3096	0.4025	-0.141
Mof_O 	O 	0.46452	0.44355	0.341	-0.844
Mof_O 	O 	0.43407	0.54927	0.22643	-0.493
Mof_O 	O 	0.33765	0.63737	0.2582	-0.289
Mof_O 	O 	0.25461	0.6738	0.398	-0.257
Mof_O 	O 	0.23877	0.614	0.5558	-0.239
Mof_O 	O 	0.3085	0.502	0.5944	-0.296
Mof_O 	O 	0.40268	0.4279	0.4947	-0.343
Mof_O 	O 	0.29116	0.33638	0.2209	-0.239
Mof_O 	O 	0.26559	0.44018	0.097	-0.233
Mof_O 	O 	0.18579	0.53754	0.0926	-0.288
Mof_O 	O 	0.11373	0.55022	0.237	-0.477
Mof_O 	O 	0.10836	0.4745	0.403	-0.203
Mof_O 	O 	0.15532	0.3608	0.4864	-0.23
Mof_O 	O 	0.24681	0.29781	0.399	-0.244
Mof_O 	O 	0.0093	0.0299	0.9941	-0.483
Mof_Rb	Rb	0.06171	0.96502	0.88724	3.127
Mof_C 	C 	0.94281	0.91222	0.8086	0.398
Mof_C 	C 	0.90969	0.83927	0.7806	0.052
Mof_H 	H 	0.929	0.8098	0.7758	0.038
Mof_C 	C 	0.91267	0.86922	0.7163	0.066
Mof_H 	H 	0.9337	0.8546	0.6811	0.014
Mof_C 	C 	0.8327	0.84479	0.7328	0.26
Mof_C 	C 	0.95108	0.94936	0.6964	0.126
Mof_H 	H 	0.9687	0.9331	0.6596	-0.006
Mof_H 	H 	0.9739	0.9687	0.7227	-0.065
Mof_C 	C 	0.8512	0.88735	0.6244	0.046
Mof_H 	H 	0.8757	0.8761	0.5921	0.026
Mof_H 	H 	0.8207	0.8729	0.6109	0.043
Mof_C 	C 	0.9119	0.02844	0.68	0.304
Mof_C 	C 	0.88882	0.9678	0.6064	0.068
Mof_H 	H 	0.9099	0.9539	0.5706	0.016
Mof_C 	C 	0.86639	0.0155	0.5813	0.054
Mof_H 	H 	0.8794	0.0253	0.536	0.02
Mof_C 	C 	0.80631	0.9588	0.5983	0.248
Mof_C 	C 	0.87166	0.0987	0.6313	0.053
Mof_H 	H 	0.8792	0.1098	0.5846	0.022
Mof_H 	H 	0.8931	0.1152	0.6634	0.023
Mof_C 	C 	0.78139	0.0346	0.5399	0.046
Mof_H 	H 	0.7974	0.0494	0.5003	0.026
Mof_H 	H 	0.7558	0.0142	0.5221	0.041
Mof_C 	C 	0.81199	0.13449	0.707	0.265
Mof_C 	C 	0.7852	0.11599	0.5963	0.055
Mof_H 	H 	0.7962	0.1328	0.5543	0.022
Mof_C 	C 	0.74609	0.14434	0.6362	0.07
Mof_H 	H 	0.7384	0.1747	0.6125	0.028
Mof_C 	C 	0.71462	0.07051	0.6027	0.287
Mof_C 	C 	0.7483	0.1862	0.7495	0.041
Mof_H 	H 	0.7348	0.2132	0.724	0.046
Mof_H 	H 	0.7751	0.1984	0.7769	0.043
Mof_C 	C 	0.65829	0.1253	0.6576	0.179
Mof_H 	H 	0.6347	0.1046	0.6353	-0.167
Mof_H 	H 	0.6521	0.1581	0.6424	-0.028
Mof_C 	C 	0.719	0.1662	0.8653	0.285
Mof_C 	C 	0.6624	0.1626	0.7741	0.071
Mof_H 	H 	0.6495	0.1927	0.7549	0.03
Mof_C 	C 	0.6384	0.1494	0.8421	0.051
Mof_H 	H 	0.6104	0.1699	0.8518	0.029
Mof_C 	C 	0.6282	0.0869	0.7649	0.27
Mof_C 	C 	0.6663	0.1596	0.9662	0.026
Mof_H 	H 	0.6359	0.1763	0.9731	0.042
Mof_H 	H 	0.6916	0.1784	0.9884	0.058
Mof_C 	C 	0.59088	0.0742	0.8778	0.069
Mof_H 	H 	0.5656	0.0963	0.892	0.014
Mof_H 	H 	0.5759	0.0479	0.8523	0.024
Mof_C 	C 	0.7011	0.0913	0.0413	0.247
Mof_C 	C 	0.6235	0.0791	0.9997	0.13
Mof_H 	H 	0.5949	0.0972	0.0143	-0.015
Mof_C 	C 	0.6354	0.0427	0.054	0.012
Mof_H 	H 	0.6142	0.0445	0.0949	0.032
Mof_C 	C 	0.61602	0.0091	0.9462	0.26
Mof_C 	C 	0.7097	0.0304	0.1262	0.035
Mof_H 	H 	0.7358	0.0507	0.1425	0.045
Mof_H 	H 	0.6871	0.0265	0.1644	0.03
Mof_C 	C 	0.6255	0.9476	0.041	0.026
Mof_H 	H 	0.6064	0.948	0.0834	0.031
Mof_H 	H 	0.6085	0.928	0.0071	0.048
Mof_C 	C 	0.778	0.9745	0.0947	0.301
Mof_C 	C 	0.7037	0.9357	0.1115	0.051
Mof_H 	H 	0.6862	0.9337	0.1558	0.025
Mof_C 	C 	0.7407	0.8969	0.1099	0.044
Mof_H 	H 	0.7448	0.8807	0.1549	0.033
Mof_C 	C 	0.6793	0.8825	0.0289	0.229
Mof_C 	C 	0.8309	0.9024	0.0909	0.011
Mof_H 	H 	0.8554	0.9267	0.0995	0.052
Mof_H 	H 	0.8314	0.8804	0.1302	0.065
Mof_C 	C 	0.7427	0.8196	0.041	0.012
Mof_H 	H 	0.7182	0.7993	0.0197	0.052
Mof_H 	H 	0.7517	0.805	0.085	0.061
Mof_C 	C 	0.8839	0.8874	0.9898	0.314
Mof_C 	C 	0.8326	0.8252	0.0169	0.008
Mof_H 	H 	0.84	0.8047	0.057	0.058
Mof_C 	C 	0.863	0.8137	0.9566	0.089
Mof_H 	H 	0.8807	0.7835	0.9635	0.041
Mof_C 	C 	0.7822	0.807	0.9304	0.288
Mof_C 	C 	0.93773	0.8547	0.905	0.109
Mof_H 	H 	0.9518	0.8227	0.9048	0.026
Mof_H 	H 	0.9609	0.8765	0.9259	-0.021
Mof_C 	C 	0.8399	0.7904	0.8343	0.023
Mof_H 	H 	0.8637	0.7649	0.8388	0.058
Mof_H 	H 	0.8109	0.7765	0.8141	0.057
Mof_N 	N 	0.92885	0.86962	0.8336	-0.214
Mof_N 	N 	0.93092	0.91481	0.7404	-0.232
Mof_N 	N 	0.85829	0.82751	0.7887	-0.145
Mof_N 	N 	0.86347	0.87132	0.6937	-0.159
Mof_N 	N 	0.9153	0.98109	0.6653	-0.203
Mof_N 	N 	0.88028	0.0482	0.6353	-0.176
Mof_N 	N 	0.84737	0.93686	0.6191	-0.158
Mof_N 	N 	0.81605	0.00472	0.5771	-0.15
Mof_N 	N 	0.82262	0.11132	0.6475	-0.16
Mof_N 	N 	0.76616	0.15285	0.7017	-0.154
Mof_N 	N 	0.761	0.07086	0.5807	-0.157
Mof_N 	N 	0.70494	0.11147	0.635	-0.181
Mof_N 	N 	0.71222	0.16796	0.7961	-0.153
Mof_N 	N 	0.6761	0.1559	0.8932	-0.147
Mof_N 	N 	0.65186	0.1227	0.7309	-0.211
Mof_N 	N 	0.62479	0.0992	0.8324	-0.168
Mof_N 	N 	0.6639	0.1105	0.9993	-0.136
Mof_N 	N 	0.6854	0.0547	0.0694	-0.159
Mof_N 	N 	0.61369	0.0558	0.937	-0.166
Mof_N 	N 	0.6291	0.9981	0.0138	-0.145
Mof_N 	N 	0.7289	0.9837	0.1079	-0.147
Mof_N 	N 	0.7826	0.9273	0.0904	-0.157
Mof_N 	N 	0.6702	0.926	0.0554	-0.145
Mof_N 	N 	0.7228	0.8642	0.054	-0.135
Mof_N 	N 	0.84509	0.8757	0.0297	-0.161
Mof_N 	N 	0.89547	0.8541	0.946	-0.19
Mof_N 	N 	0.7845	0.8206	0.9961	-0.124
Mof_N 	N 	0.82873	0.8096	0.9025	-0.143
Mof_O 	O 	0.96452	0.94355	0.841	-0.845
Mof_O 	O 	0.93407	0.04927	0.72643	-0.494
Mof_O 	O 	0.83765	0.13737	0.7582	-0.288
Mof_O 	O 	0.75461	0.1738	0.898	-0.252
Mof_O 	O 	0.73877	0.114	0.0558	-0.241
Mof_O 	O 	0.8085	0.002	0.0944	-0.302
Mof_O 	O 	0.90268	0.9279	0.9947	-0.338
Mof_O 	O 	0.79116	0.83638	0.7209	-0.239
Mof_O 	O 	0.76559	0.94018	0.597	-0.231
Mof_O 	O 	0.68579	0.03754	0.5926	-0.285
Mof_O 	O 	0.61373	0.05022	0.737	-0.479
Mof_O 	O 	0.60836	0.9745	0.903	-0.201
Mof_O 	O 	0.65532	0.8608	0.9864	-0.201
Mof_O 	O 	0.74681	0.79781	0.899	-0.239
Mof_O 	O 	0.0299	0.4907	0.2441	-0.486
Mof_Rb	Rb	0.96502	0.43829	0.13724	3.082
Mof_C 	C 	0.91222	0.55719	0.0586	0.375
Mof_C 	C 	0.83927	0.59031	0.0306	0.028
Mof_H 	H 	0.8098	0.571	0.0258	0.04
Mof_C 	C 	0.86922	0.58733	0.9663	0.089
Mof_H 	H 	0.8546	0.5663	0.9311	0.012
Mof_C 	C 	0.84479	0.6673	0.9828	0.281
Mof_C 	C 	0.94936	0.54892	0.9464	0.124
Mof_H 	H 	0.9331	0.5313	0.9096	-0.004
Mof_H 	H 	0.9687	0.5261	0.9727	-0.058
Mof_C 	C 	0.88735	0.6488	0.8744	0.048
Mof_H 	H 	0.8761	0.6243	0.8421	0.025
Mof_H 	H 	0.8729	0.6793	0.8609	0.042
Mof_C 	C 	0.02844	0.5881	0.93	0.305
Mof_C 	C 	0.9678	0.61118	0.8564	0.067
Mof_H 	H 	0.9539	0.5901	0.8206	0.015
Mof_C 	C 	0.0155	0.63361	0.8313	0.056
Mof_H 	H 	0.0253	0.6206	0.786	0.02
Mof_C 	C 	0.9588	0.69369	0.8483	0.248
Mof_C 	C 	0.0987	0.62834	0.8813	0.054
Mof_H 	H 	0.1098	0.6208	0.8346	0.023
Mof_H 	H 	0.1152	0.6069	0.9134	0.028
Mof_C 	C 	0.0346	0.71861	0.7899	0.047
Mof_H 	H 	0.0494	0.7026	0.7503	0.026
Mof_H 	H 	0.0142	0.7442	0.7721	0.041
Mof_C 	C 	0.13449	0.68801	0.957	0.298
Mof_C 	C 	0.11599	0.7148	0.8463	0.055
Mof_H 	H 	0.1328	0.7038	0.8043	0.022
Mof_C 	C 	0.14434	0.75391	0.8862	0.073
Mof_H 	H 	0.1747	0.7616	0.8625	0.028
Mof_C 	C 	0.07051	0.78538	0.8527	0.288
Mof_C 	C 	0.1862	0.7517	0.9995	0.11
Mof_H 	H 	0.2132	0.7652	0.974	0.033
Mof_H 	H 	0.1984	0.7249	0.0269	0.008
Mof_C 	C 	0.1253	0.84171	0.9076	0.175
Mof_H 	H 	0.1046	0.8653	0.8853	-0.165
Mof_H 	H 	0.1581	0.8479	0.8924	-0.024
Mof_C 	C 	0.1662	0.781	0.1153	0.286
Mof_C 	C 	0.1626	0.8376	0.0241	0.053
Mof_H 	H 	0.1927	0.8505	0.0049	0.026
Mof_C 	C 	0.1494	0.8616	0.0921	0.053
Mof_H 	H 	0.1699	0.8896	0.1018	0.026
Mof_C 	C 	0.0869	0.8718	0.0149	0.223
Mof_C 	C 	0.1596	0.8337	0.2162	0.027
Mof_H 	H 	0.1763	0.8641	0.2231	0.036
Mof_H 	H 	0.1784	0.8084	0.2384	0.05
Mof_C 	C 	0.0742	0.90912	0.1278	0.064
Mof_H 	H 	0.0963	0.9344	0.142	0.01
Mof_H 	H 	0.0479	0.9241	0.1023	0.018
Mof_C 	C 	0.0913	0.7989	0.2913	0.268
Mof_C 	C 	0.0791	0.8765	0.2497	0.07
Mof_H 	H 	0.0972	0.9051	0.2643	0.02
Mof_C 	C 	0.0427	0.8646	0.304	0.046
Mof_H 	H 	0.0445	0.8858	0.3449	0.023
Mof_C 	C 	0.0091	0.88398	0.1962	0.237
Mof_C 	C 	0.0304	0.7903	0.3762	0.037
Mof_H 	H 	0.0507	0.7642	0.3925	0.045
Mof_H 	H 	0.0265	0.8129	0.4144	0.029
Mof_C 	C 	0.9476	0.8745	0.291	0.026
Mof_H 	H 	0.948	0.8936	0.3334	0.034
Mof_H 	H 	0.928	0.8915	0.2571	0.057
Mof_C 	C 	0.9745	0.722	0.3447	0.301
Mof_C 	C 	0.9357	0.7963	0.3615	0.051
Mof_H 	H 	0.9337	0.8138	0.4058	0.025
Mof_C 	C 	0.8969	0.7593	0.3599	0.046
Mof_H 	H 	0.8807	0.7552	0.4049	0.033
Mof_C 	C 	0.8825	0.8207	0.2789	0.26
Mof_C 	C 	0.9024	0.6691	0.3409	0.013
Mof_H 	H 	0.9267	0.6446	0.3495	0.057
Mof_H 	H 	0.8804	0.6686	0.3802	0.065
Mof_C 	C 	0.8196	0.7573	0.291	0.037
Mof_H 	H 	0.7993	0.7818	0.2697	0.054
Mof_H 	H 	0.805	0.7483	0.335	0.055
Mof_C 	C 	0.8874	0.6161	0.2398	0.293
Mof_C 	C 	0.8252	0.6674	0.2669	0.053
Mof_H 	H 	0.8047	0.66	0.307	0.05
Mof_C 	C 	0.8137	0.637	0.2066	0.059
Mof_H 	H 	0.7835	0.6193	0.2135	0.045
Mof_C 	C 	0.807	0.7178	0.1804	0.285
Mof_C 	C 	0.8547	0.56227	0.155	0.104
Mof_H 	H 	0.8227	0.5482	0.1548	0.026
Mof_H 	H 	0.8765	0.5391	0.1759	-0.02
Mof_C 	C 	0.7904	0.6601	0.0843	0.023
Mof_H 	H 	0.7649	0.6363	0.0888	0.056
Mof_H 	H 	0.7765	0.6891	0.0641	0.051
Mof_N 	N 	0.86962	0.57115	0.0836	-0.209
Mof_N 	N 	0.91481	0.56908	0.9904	-0.22
Mof_N 	N 	0.82751	0.64171	0.0387	-0.155
Mof_N 	N 	0.87132	0.63653	0.9437	-0.162
Mof_N 	N 	0.98109	0.5847	0.9153	-0.202
Mof_N 	N 	0.0482	0.61972	0.8853	-0.175
Mof_N 	N 	0.93686	0.65263	0.8691	-0.157
Mof_N 	N 	0.00472	0.68395	0.8271	-0.149
Mof_N 	N 	0.11132	0.67738	0.8975	-0.164
Mof_N 	N 	0.15285	0.73384	0.9517	-0.165
Mof_N 	N 	0.07086	0.739	0.8307	-0.157
Mof_N 	N 	0.11147	0.79506	0.885	-0.18
Mof_N 	N 	0.16796	0.78778	0.0461	-0.17
Mof_N 	N 	0.1559	0.8239	0.1432	-0.149
Mof_N 	N 	0.1227	0.84814	0.9809	-0.185
Mof_N 	N 	0.0992	0.87521	0.0824	-0.163
Mof_N 	N 	0.1105	0.8361	0.2493	-0.142
Mof_N 	N 	0.0547	0.8146	0.3194	-0.164
Mof_N 	N 	0.0558	0.88631	0.187	-0.157
Mof_N 	N 	0.9981	0.8709	0.2638	-0.135
Mof_N 	N 	0.9837	0.7711	0.3579	-0.147
Mof_N 	N 	0.9273	0.7174	0.3404	-0.156
Mof_N 	N 	0.926	0.8298	0.3054	-0.148
Mof_N 	N 	0.8642	0.7772	0.304	-0.141
Mof_N 	N 	0.8757	0.65491	0.2797	-0.152
Mof_N 	N 	0.8541	0.60453	0.196	-0.185
Mof_N 	N 	0.8206	0.7155	0.2461	-0.15
Mof_N 	N 	0.8096	0.67127	0.1525	-0.142
Mof_O 	O 	0.94355	0.53548	0.091	-0.839
Mof_O 	O 	0.04927	0.56593	0.97643	-0.481
Mof_O 	O 	0.13737	0.66235	0.0082	-0.316
Mof_O 	O 	0.1738	0.74539	0.148	-0.259
Mof_O 	O 	0.114	0.76123	0.3058	-0.239
Mof_O 	O 	0.002	0.6915	0.3444	-0.297
Mof_O 	O 	0.9279	0.59732	0.2447	-0.342
Mof_O 	O 	0.83638	0.70884	0.9709	-0.236
Mof_O 	O 	0.94018	0.73441	0.847	-0.23
Mof_O 	O 	0.03754	0.81421	0.8426	-0.285
Mof_O 	O 	0.05022	0.88627	0.987	-0.452
Mof_O 	O 	0.9745	0.89164	0.153	-0.207
Mof_O 	O 	0.8608	0.84468	0.2364	-0.231
Mof_O 	O 	0.79781	0.75319	0.149	-0.247
Mof_O 	O 	0.5299	0.9907	0.7441	-0.489
Mof_Rb	Rb	0.46502	0.93829	0.63724	3.118
Mof_C 	C 	0.41222	0.05719	0.5586	0.397
Mof_C 	C 	0.33927	0.09031	0.5306	0.052
Mof_H 	H 	0.3098	0.071	0.5258	0.038
Mof_C 	C 	0.36922	0.08733	0.4663	0.066
Mof_H 	H 	0.3546	0.0663	0.4311	0.014
Mof_C 	C 	0.34479	0.1673	0.4828	0.26
Mof_C 	C 	0.44936	0.04892	0.4464	0.126
Mof_H 	H 	0.4331	0.0313	0.4096	-0.006
Mof_H 	H 	0.4687	0.0261	0.4727	-0.065
Mof_C 	C 	0.38735	0.1488	0.3744	0.046
Mof_H 	H 	0.3761	0.1243	0.3421	0.025
Mof_H 	H 	0.3729	0.1793	0.3609	0.042
Mof_C 	C 	0.52844	0.0881	0.43	0.305
Mof_C 	C 	0.4678	0.11118	0.3564	0.066
Mof_H 	H 	0.4539	0.0901	0.3206	0.015
Mof_C 	C 	0.5155	0.13361	0.3313	0.056
Mof_H 	H 	0.5253	0.1206	0.286	0.019
Mof_C 	C 	0.4588	0.19369	0.3483	0.246
Mof_C 	C 	0.5987	0.12834	0.3813	0.053
Mof_H 	H 	0.6098	0.1208	0.3346	0.022
Mof_H 	H 	0.6152	0.1069	0.4134	0.023
Mof_C 	C 	0.5346	0.21861	0.2899	0.047
Mof_H 	H 	0.5494	0.2026	0.2503	0.024
Mof_H 	H 	0.5142	0.2442	0.2721	0.04
Mof_C 	C 	0.63449	0.18801	0.457	0.265
Mof_C 	C 	0.61599	0.2148	0.3463	0.055
Mof_H 	H 	0.6328	0.2038	0.3043	0.021
Mof_C 	C 	0.64434	0.25391	0.3862	0.069
Mof_H 	H 	0.6747	0.2616	0.3625	0.028
Mof_C 	C 	0.57051	0.28538	0.3527	0.287
Mof_C 	C 	0.6862	0.2517	0.4995	0.041
Mof_H 	H 	0.7132	0.2652	0.474	0.046
Mof_H 	H 	0.6984	0.2249	0.5269	0.043
Mof_C 	C 	0.6253	0.34171	0.4076	0.179
Mof_H 	H 	0.6046	0.3653	0.3853	-0.167
Mof_H 	H 	0.6581	0.3479	0.3924	-0.028
Mof_C 	C 	0.6662	0.281	0.6153	0.285
Mof_C 	C 	0.6626	0.3376	0.5241	0.071
Mof_H 	H 	0.6927	0.3505	0.5049	0.03
Mof_C 	C 	0.6494	0.3616	0.5921	0.051
Mof_H 	H 	0.6699	0.3896	0.6018	0.029
Mof_C 	C 	0.5869	0.3718	0.5149	0.27
Mof_C 	C 	0.6596	0.3337	0.7162	0.026
Mof_H 	H 	0.6763	0.3641	0.7231	0.038
Mof_H 	H 	0.6784	0.3084	0.7384	0.052
Mof_C 	C 	0.5742	0.40912	0.6278	0.065
Mof_H 	H 	0.5963	0.4344	0.642	0.012
Mof_H 	H 	0.5479	0.4241	0.6023	0.025
Mof_C 	C 	0.5913	0.2989	0.7913	0.269
Mof_C 	C 	0.5791	0.3765	0.7497	0.07
Mof_H 	H 	0.5972	0.4051	0.7643	0.022
Mof_C 	C 	0.5427	0.3646	0.804	0.048
Mof_H 	H 	0.5445	0.3858	0.8449	0.027
Mof_C 	C 	0.5091	0.38398	0.6962	0.241
Mof_C 	C 	0.5304	0.2903	0.8762	0.036
Mof_H 	H 	0.5507	0.2642	0.8925	0.048
Mof_H 	H 	0.5265	0.3129	0.9144	0.034
Mof_C 	C 	0.4476	0.3745	0.791	0.025
Mof_H 	H 	0.448	0.3936	0.8334	0.037
Mof_H 	H 	0.428	0.3915	0.7571	0.059
Mof_C 	C 	0.4745	0.222	0.8447	0.301
Mof_C 	C 	0.4357	0.2963	0.8615	0.051
Mof_H 	H 	0.4337	0.3138	0.9058	0.029
Mof_C 	C 	0.3969	0.2593	0.8599	0.046
Mof_H 	H 	0.3807	0.2552	0.9049	0.036
Mof_C 	C 	0.3825	0.3207	0.7789	0.261
Mof_C 	C 	0.4024	0.1691	0.8409	0.012
Mof_H 	H 	0.4267	0.1446	0.8495	0.058
Mof_H 	H 	0.3804	0.1686	0.8802	0.067
Mof_C 	C 	0.3196	0.2573	0.791	0.037
Mof_H 	H 	0.2993	0.2818	0.7697	0.055
Mof_H 	H 	0.305	0.2483	0.835	0.057
Mof_C 	C 	0.3874	0.1161	0.7398	0.294
Mof_C 	C 	0.3252	0.1674	0.7669	0.053
Mof_H 	H 	0.3047	0.16	0.807	0.051
Mof_C 	C 	0.3137	0.137	0.7066	0.06
Mof_H 	H 	0.2835	0.1193	0.7135	0.045
Mof_C 	C 	0.307	0.2178	0.6804	0.286
Mof_C 	C 	0.3547	0.06227	0.655	0.107
Mof_H 	H 	0.3227	0.0482	0.6548	0.026
Mof_H 	H 	0.3765	0.0391	0.6759	-0.021
Mof_C 	C 	0.2904	0.1601	0.5843	0.021
Mof_H 	H 	0.2649	0.1363	0.5888	0.058
Mof_H 	H 	0.2765	0.1891	0.5641	0.057
Mof_N 	N 	0.36962	0.07115	0.5836	-0.214
Mof_N 	N 	0.41481	0.06908	0.4904	-0.232
Mof_N 	N 	0.32751	0.14171	0.5387	-0.145
Mof_N 	N 	0.37132	0.13653	0.4437	-0.159
Mof_N 	N 	0.48109	0.0847	0.4153	-0.204
Mof_N 	N 	0.5482	0.11972	0.3853	-0.176
Mof_N 	N 	0.43686	0.15263	0.3691	-0.158
Mof_N 	N 	0.50472	0.18395	0.3271	-0.149
Mof_N 	N 	0.61132	0.17738	0.3975	-0.161
Mof_N 	N 	0.65285	0.23384	0.4517	-0.154
Mof_N 	N 	0.57086	0.239	0.3307	-0.157
Mof_N 	N 	0.61147	0.29506	0.385	-0.181
Mof_N 	N 	0.66796	0.28778	0.5461	-0.154
Mof_N 	N 	0.6559	0.3239	0.6432	-0.148
Mof_N 	N 	0.6227	0.34814	0.4809	-0.211
Mof_N 	N 	0.5992	0.37521	0.5824	-0.168
Mof_N 	N 	0.6105	0.3361	0.7493	-0.141
Mof_N 	N 	0.5547	0.3146	0.8194	-0.163
Mof_N 	N 	0.5558	0.38631	0.687	-0.157
Mof_N 	N 	0.4981	0.3709	0.7638	-0.135
Mof_N 	N 	0.4837	0.2711	0.8579	-0.146
Mof_N 	N 	0.4273	0.2174	0.8404	-0.155
Mof_N 	N 	0.426	0.3298	0.8054	-0.147
Mof_N 	N 	0.3642	0.2772	0.804	-0.14
Mof_N 	N 	0.3757	0.15491	0.7797	-0.152
Mof_N 	N 	0.3541	0.10453	0.696	-0.185
Mof_N 	N 	0.3206	0.2155	0.7461	-0.149
Mof_N 	N 	0.3096	0.17127	0.6525	-0.141
Mof_O 	O 	0.44355	0.03548	0.591	-0.844
Mof_O 	O 	0.54927	0.06593	0.47643	-0.493
Mof_O 	O 	0.63737	0.16235	0.5082	-0.288
Mof_O 	O 	0.6738	0.24539	0.648	-0.257
Mof_O 	O 	0.614	0.26123	0.8058	-0.238
Mof_O 	O 	0.502	0.1915	0.8444	-0.295
Mof_O 	O 	0.4279	0.09732	0.7447	-0.342
Mof_O 	O 	0.33638	0.20884	0.4709	-0.239
Mof_O 	O 	0.44018	0.23441	0.347	-0.232
Mof_O 	O 	0.53754	0.31421	0.3426	-0.286
Mof_O 	O 	0.55022	0.38627	0.487	-0.479
Mof_O 	O 	0.4745	0.39164	0.653	-0.203
Mof_O 	O 	0.3608	0.34468	0.7364	-0.23
Mof_O 	O 	0.29781	0.25319	0.649	-0.244
Mof_O 	O 	0.4701	0.0093	0.7441	-0.489
Mof_Rb	Rb	0.53498	0.06171	0.63724	3.118
Mof_C 	C 	0.58778	0.94281	0.5586	0.397
Mof_C 	C 	0.66073	0.90969	0.5306	0.052
Mof_H 	H 	0.6902	0.929	0.5258	0.038
Mof_C 	C 	0.63078	0.91267	0.4663	0.066
Mof_H 	H 	0.6454	0.9337	0.4311	0.014
Mof_C 	C 	0.65521	0.8327	0.4828	0.26
Mof_C 	C 	0.55064	0.95108	0.4464	0.126
Mof_H 	H 	0.5669	0.9687	0.4096	-0.006
Mof_H 	H 	0.5313	0.9739	0.4727	-0.065
Mof_C 	C 	0.61265	0.8512	0.3744	0.046
Mof_H 	H 	0.6239	0.8757	0.3421	0.025
Mof_H 	H 	0.6271	0.8207	0.3609	0.042
Mof_C 	C 	0.47156	0.9119	0.43	0.305
Mof_C 	C 	0.5322	0.88882	0.3564	0.066
Mof_H 	H 	0.5461	0.9099	0.3206	0.015
Mof_C 	C 	0.4845	0.86639	0.3313	0.056
Mof_H 	H 	0.4747	0.8794	0.286	0.019
Mof_C 	C 	0.5412	0.80631	0.3483	0.246
Mof_C 	C 	0.4013	0.87166	0.3813	0.053
Mof_H 	H 	0.3902	0.8792	0.3346	0.022
Mof_H 	H 	0.3848	0.8931	0.4134	0.023
Mof_C 	C 	0.4654	0.78139	0.2899	0.047
Mof_H 	H 	0.4506	0.7974	0.2503	0.024
Mof_H 	H 	0.4858	0.7558	0.2721	0.04
Mof_C 	C 	0.36551	0.81199	0.457	0.265
Mof_C 	C 	0.38401	0.7852	0.3463	0.055
Mof_H 	H 	0.3672	0.7962	0.3043	0.021
Mof_C 	C 	0.35566	0.74609	0.3862	0.069
Mof_H 	H 	0.3253	0.7384	0.3625	0.028
Mof_C 	C 	0.42949	0.71462	0.3527	0.287
Mof_C 	C 	0.3138	0.7483	0.4995	0.041
Mof_H 	H 	0.2868	0.7348	0.474	0.046
Mof_H 	H 	0.3016	0.7751	0.5269	0.043
Mof_C 	C 	0.3747	0.65829	0.4076	0.179
Mof_H 	H 	0.3954	0.6347	0.3853	-0.167
Mof_H 	H 	0.3419	0.6521	0.3924	-0.028
Mof_C 	C 	0.3338	0.719	0.6153	0.285
Mof_C 	C 	0.3374	0.6624	0.5241	0.071
Mof_H 	H 	0.3073	0.6495	0.5049	0.03
Mof_C 	C 	0.3506	0.6384	0.5921	0.051
Mof_H 	H 	0.3301	0.6104	0.6018	0.029
Mof_C 	C 	0.4131	0.6282	0.5149	0.27
Mof_C 	C 	0.3404	0.6663	0.7162	0.026
Mof_H 	H 	0.3237	0.6359	0.7231	0.038
Mof_H 	H 	0.3216	0.6916	0.7384	0.052
Mof_C 	C 	0.4258	0.59088	0.6278	0.065
Mof_H 	H 	0.4037	0.5656	0.642	0.012
Mof_H 	H 	0.4521	0.5759	0.6023	0.025
Mof_C 	C 	0.4087	0.7011	0.7913	0.269
Mof_C 	C 	0.4209	0.6235	0.7497	0.07
Mof_H 	H 	0.4028	0.5949	0.7643	0.022
Mof_C 	C 	0.4573	0.6354	0.804	0.048
Mof_H 	H 	0.4555	0.6142	0.8449	0.027
Mof_C 	C 	0.4909	0.61602	0.6962	0.241
Mof_C 	C 	0.4696	0.7097	0.8762	0.036
Mof_H 	H 	0.4493	0.7358	0.8925	0.048
Mof_H 	H 	0.4735	0.6871	0.9144	0.034
Mof_C 	C 	0.5524	0.6255	0.791	0.025
Mof_H 	H 	0.552	0.6064	0.8334	0.037
Mof_H 	H 	0.572	0.6085	0.7571	0.059
Mof_C 	C 	0.5255	0.778	0.8447	0.301
Mof_C 	C 	0.5643	0.7037	0.8615	0.051
Mof_H 	H 	0.5663	0.6862	0.9058	0.029
Mof_C 	C 	0.6031	0.7407	0.8599	0.046
Mof_H 	H 	0.6193	0.7448	0.9049	0.036
Mof_C 	C 	0.6175	0.6793	0.7789	0.261
Mof_C 	C 	0.5976	0.8309	0.8409	0.012
Mof_H 	H 	0.5733	0.8554	0.8495	0.058
Mof_H 	H 	0.6196	0.8314	0.8802	0.067
Mof_C 	C 	0.6804	0.7427	0.791	0.037
Mof_H 	H 	0.7007	0.7182	0.7697	0.055
Mof_H 	H 	0.695	0.7517	0.835	0.057
Mof_C 	C 	0.6126	0.8839	0.7398	0.294
Mof_C 	C 	0.6748	0.8326	0.7669	0.053
Mof_H 	H 	0.6953	0.84	0.807	0.051
Mof_C 	C 	0.6863	0.863	0.7066	0.06
Mof_H 	H 	0.7165	0.8807	0.7135	0.045
Mof_C 	C 	0.693	0.7822	0.6804	0.286
Mof_C 	C 	0.6453	0.93773	0.655	0.107
Mof_H 	H 	0.6773	0.9518	0.6548	0.026
Mof_H 	H 	0.6235	0.9609	0.6759	-0.021
Mof_C 	C 	0.7096	0.8399	0.5843	0.021
Mof_H 	H 	0.7351	0.8637	0.5888	0.058
Mof_H 	H 	0.7235	0.8109	0.5641	0.057
Mof_N 	N 	0.63038	0.92885	0.5836	-0.214
Mof_N 	N 	0.58519	0.93092	0.4904	-0.232
Mof_N 	N 	0.67249	0.85829	0.5387	-0.145
Mof_N 	N 	0.62868	0.86347	0.4437	-0.159
Mof_N 	N 	0.51891	0.9153	0.4153	-0.204
Mof_N 	N 	0.4518	0.88028	0.3853	-0.176
Mof_N 	N 	0.56314	0.84737	0.3691	-0.158
Mof_N 	N 	0.49528	0.81605	0.3271	-0.149
Mof_N 	N 	0.38868	0.82262	0.3975	-0.161
Mof_N 	N 	0.34715	0.76616	0.4517	-0.154
Mof_N 	N 	0.42914	0.761	0.3307	-0.157
Mof_N 	N 	0.38853	0.70494	0.385	-0.181
Mof_N 	N 	0.33204	0.71222	0.5461	-0.154
Mof_N 	N 	0.3441	0.6761	0.6432	-0.148
Mof_N 	N 	0.3773	0.65186	0.4809	-0.211
Mof_N 	N 	0.4008	0.62479	0.5824	-0.168
Mof_N 	N 	0.3895	0.6639	0.7493	-0.141
Mof_N 	N 	0.4453	0.6854	0.8194	-0.163
Mof_N 	N 	0.4442	0.61369	0.687	-0.157
Mof_N 	N 	0.5019	0.6291	0.7638	-0.135
Mof_N 	N 	0.5163	0.7289	0.8579	-0.146
Mof_N 	N 	0.5727	0.7826	0.8404	-0.155
Mof_N 	N 	0.574	0.6702	0.8054	-0.147
Mof_N 	N 	0.6358	0.7228	0.804	-0.14
Mof_N 	N 	0.6243	0.84509	0.7797	-0.152
Mof_N 	N 	0.6459	0.89547	0.696	-0.185
Mof_N 	N 	0.6794	0.7845	0.7461	-0.149
Mof_N 	N 	0.6904	0.82873	0.6525	-0.141
Mof_O 	O 	0.55645	0.96452	0.591	-0.844
Mof_O 	O 	0.45073	0.93407	0.47643	-0.493
Mof_O 	O 	0.36263	0.83765	0.5082	-0.288
Mof_O 	O 	0.3262	0.75461	0.648	-0.257
Mof_O 	O 	0.386	0.73877	0.8058	-0.238
Mof_O 	O 	0.498	0.8085	0.8444	-0.295
Mof_O 	O 	0.5721	0.90268	0.7447	-0.342
Mof_O 	O 	0.66362	0.79116	0.4709	-0.239
Mof_O 	O 	0.55982	0.76559	0.347	-0.232
Mof_O 	O 	0.46246	0.68579	0.3426	-0.286
Mof_O 	O 	0.44978	0.61373	0.487	-0.479
Mof_O 	O 	0.5255	0.60836	0.653	-0.203
Mof_O 	O 	0.6392	0.65532	0.7364	-0.23
Mof_O 	O 	0.70219	0.74681	0.649	-0.244
Mof_O 	O 	0.9701	0.5093	0.2441	-0.486
Mof_Rb	Rb	0.03498	0.56171	0.13724	3.082
Mof_C 	C 	0.08778	0.44281	0.0586	0.375
Mof_C 	C 	0.16073	0.40969	0.0306	0.028
Mof_H 	H 	0.1902	0.429	0.0258	0.04
Mof_C 	C 	0.13078	0.41267	0.9663	0.089
Mof_H 	H 	0.1454	0.4337	0.9311	0.012
Mof_C 	C 	0.15521	0.3327	0.9828	0.281
Mof_C 	C 	0.05064	0.45108	0.9464	0.124
Mof_H 	H 	0.0669	0.4687	0.9096	-0.004
Mof_H 	H 	0.0313	0.4739	0.9727	-0.058
Mof_C 	C 	0.11265	0.3512	0.8744	0.048
Mof_H 	H 	0.1239	0.3757	0.8421	0.025
Mof_H 	H 	0.1271	0.3207	0.8609	0.042
Mof_C 	C 	0.97156	0.4119	0.93	0.305
Mof_C 	C 	0.0322	0.38882	0.8564	0.067
Mof_H 	H 	0.0461	0.4099	0.8206	0.015
Mof_C 	C 	0.9845	0.36639	0.8313	0.056
Mof_H 	H 	0.9747	0.3794	0.786	0.02
Mof_C 	C 	0.0412	0.30631	0.8483	0.248
Mof_C 	C 	0.9013	0.37166	0.8813	0.054
Mof_H 	H 	0.8902	0.3792	0.8346	0.023
Mof_H 	H 	0.8848	0.3931	0.9134	0.028
Mof_C 	C 	0.9654	0.28139	0.7899	0.047
Mof_H 	H 	0.9506	0.2974	0.7503	0.026
Mof_H 	H 	0.9858	0.2558	0.7721	0.041
Mof_C 	C 	0.86551	0.31199	0.957	0.298
Mof_C 	C 	0.88401	0.2852	0.8463	0.055
Mof_H 	H 	0.8672	0.2962	0.8043	0.022
Mof_C 	C 	0.85566	0.24609	0.8862	0.073
Mof_H 	H 	0.8253	0.2384	0.8625	0.028
Mof_C 	C 	0.92949	0.21462	0.8527	0.288
Mof_C 	C 	0.8138	0.2483	0.9995	0.11
Mof_H 	H 	0.7868	0.2348	0.974	0.033
Mof_H 	H 	0.8016	0.2751	0.0269	0.008
Mof_C 	C 	0.8747	0.15829	0.9076	0.175
Mof_H 	H 	0.8954	0.1347	0.8853	-0.165
Mof_H 	H 	0.8419	0.1521	0.8924	-0.024
Mof_C 	C 	0.8338	0.219	0.1153	0.286
Mof_C 	C 	0.8374	0.1624	0.0241	0.053
Mof_H 	H 	0.8073	0.1495	0.0049	0.026
Mof_C 	C 	0.8506	0.1384	0.0921	0.053
Mof_H 	H 	0.8301	0.1104	0.1018	0.026
Mof_C 	C 	0.9131	0.1282	0.0149	0.223
Mof_C 	C 	0.8404	0.1663	0.2162	0.027
Mof_H 	H 	0.8237	0.1359	0.2231	0.036
Mof_H 	H 	0.8216	0.1916	0.2384	0.05
Mof_C 	C 	0.9258	0.09088	0.1278	0.064
Mof_H 	H 	0.9037	0.0656	0.142	0.01
Mof_H 	H 	0.9521	0.0759	0.1023	0.018
Mof_C 	C 	0.9087	0.2011	0.2913	0.268
Mof_C 	C 	0.9209	0.1235	0.2497	0.07
Mof_H 	H 	0.9028	0.0949	0.2643	0.02
Mof_C 	C 	0.9573	0.1354	0.304	0.046
Mof_H 	H 	0.9555	0.1142	0.3449	0.023
Mof_C 	C 	0.9909	0.11602	0.1962	0.237
Mof_C 	C 	0.9696	0.2097	0.3762	0.037
Mof_H 	H 	0.9493	0.2358	0.3925	0.045
Mof_H 	H 	0.9735	0.1871	0.4144	0.029
Mof_C 	C 	0.0524	0.1255	0.291	0.026
Mof_H 	H 	0.052	0.1064	0.3334	0.034
Mof_H 	H 	0.072	0.1085	0.2571	0.057
Mof_C 	C 	0.0255	0.278	0.3447	0.301
Mof_C 	C 	0.0643	0.2037	0.3615	0.051
Mof_H 	H 	0.0663	0.1862	0.4058	0.025
Mof_C 	C 	0.1031	0.2407	0.3599	0.046
Mof_H 	H 	0.1193	0.2448	0.4049	0.033
Mof_C 	C 	0.1175	0.1793	0.2789	0.26
Mof_C 	C 	0.0976	0.3309	0.3409	0.013
Mof_H 	H 	0.0733	0.3554	0.3495	0.057
Mof_H 	H 	0.1196	0.3314	0.3802	0.065
Mof_C 	C 	0.1804	0.2427	0.291	0.037
Mof_H 	H 	0.2007	0.2182	0.2697	0.054
Mof_H 	H 	0.195	0.2517	0.335	0.055
Mof_C 	C 	0.1126	0.3839	0.2398	0.293
Mof_C 	C 	0.1748	0.3326	0.2669	0.053
Mof_H 	H 	0.1953	0.34	0.307	0.05
Mof_C 	C 	0.1863	0.363	0.2066	0.059
Mof_H 	H 	0.2165	0.3807	0.2135	0.045
Mof_C 	C 	0.193	0.2822	0.1804	0.285
Mof_C 	C 	0.1453	0.43773	0.155	0.104
Mof_H 	H 	0.1773	0.4518	0.1548	0.026
Mof_H 	H 	0.1235	0.4609	0.1759	-0.02
Mof_C 	C 	0.2096	0.3399	0.0843	0.023
Mof_H 	H 	0.2351	0.3637	0.0888	0.056
Mof_H 	H 	0.2235	0.3109	0.0641	0.051
Mof_N 	N 	0.13038	0.42885	0.0836	-0.209
Mof_N 	N 	0.08519	0.43092	0.9904	-0.22
Mof_N 	N 	0.17249	0.35829	0.0387	-0.155
Mof_N 	N 	0.12868	0.36347	0.9437	-0.162
Mof_N 	N 	0.01891	0.4153	0.9153	-0.202
Mof_N 	N 	0.9518	0.38028	0.8853	-0.175
Mof_N 	N 	0.06314	0.34737	0.8691	-0.157
Mof_N 	N 	0.99528	0.31605	0.8271	-0.149
Mof_N 	N 	0.88868	0.32262	0.8975	-0.164
Mof_N 	N 	0.84715	0.26616	0.9517	-0.165
Mof_N 	N 	0.92914	0.261	0.8307	-0.157
Mof_N 	N 	0.88853	0.20494	0.885	-0.18
Mof_N 	N 	0.83204	0.21222	0.0461	-0.17
Mof_N 	N 	0.8441	0.1761	0.1432	-0.149
Mof_N 	N 	0.8773	0.15186	0.9809	-0.185
Mof_N 	N 	0.9008	0.12479	0.0824	-0.163
Mof_N 	N 	0.8895	0.1639	0.2493	-0.142
Mof_N 	N 	0.9453	0.1854	0.3194	-0.164
Mof_N 	N 	0.9442	0.11369	0.187	-0.157
Mof_N 	N 	0.0019	0.1291	0.2638	-0.135
Mof_N 	N 	0.0163	0.2289	0.3579	-0.147
Mof_N 	N 	0.0727	0.2826	0.3404	-0.156
Mof_N 	N 	0.074	0.1702	0.3054	-0.148
Mof_N 	N 	0.1358	0.2228	0.304	-0.141
Mof_N 	N 	0.1243	0.34509	0.2797	-0.152
Mof_N 	N 	0.1459	0.39547	0.196	-0.185
Mof_N 	N 	0.1794	0.2845	0.2461	-0.15
Mof_N 	N 	0.1904	0.32873	0.1525	-0.142
Mof_O 	O 	0.05645	0.46452	0.091	-0.839
Mof_O 	O 	0.95073	0.43407	0.97643	-0.481
Mof_O 	O 	0.86263	0.33765	0.0082	-0.316
Mof_O 	O 	0.8262	0.25461	0.148	-0.259
Mof_O 	O 	0.886	0.23877	0.3058	-0.239
Mof_O 	O 	0.998	0.3085	0.3444	-0.297
Mof_O 	O 	0.0721	0.40268	0.2447	-0.342
Mof_O 	O 	0.16362	0.29116	0.9709	-0.236
Mof_O 	O 	0.05982	0.26559	0.847	-0.23
Mof_O 	O 	0.96246	0.18579	0.8426	-0.285
Mof_O 	O 	0.94978	0.11373	0.987	-0.452
Mof_O 	O 	0.0255	0.10836	0.153	-0.207
Mof_O 	O 	0.1392	0.15532	0.2364	-0.231
Mof_O 	O 	0.20219	0.24681	0.149	-0.247
_end
