# CIF file generated by openbabel 3.1.0, see https://openbabel.org
data_I
_chemical_name_common 'image0'
_cell_length_a 71.008
_cell_length_b 13.7444
_cell_length_c 14.3221
_cell_angle_alpha 90
_cell_angle_beta 90
_cell_angle_gamma 90
_space_group_name_H-M_alt 'P 1'
_space_group_name_Hall 'P 1'
loop_
    _symmetry_equiv_pos_as_xyz
    x,y,z
loop_
    _atom_site_label
    _atom_site_type_symbol
    _atom_site_fract_x
    _atom_site_fract_y
    _atom_site_fract_z
    _atom_site_occupancy
    Al1      Al       0.29291    0.48140    0.33770    1.000
    Al2      Al       0.11218    0.73470    0.86960    1.000
    Co1      Co       0.07444    0.50479    0.14527    1.000
    Co2      Co       0.02880    0.26675    0.88311    1.000
    Al3      Al       0.22120    0.51675    0.13311    1.000
    Co3      Co       0.14860    0.48384    0.32219    1.000
    Al4      Al       0.18107    0.75596    0.10110    1.000
    Co4      Co       0.06893    0.00596    0.35110    1.000
    P1       P        0.07683    0.67200    0.99210    1.000
    P2       P        0.03751    0.59468    0.23380    1.000
    P3       P        0.18479    0.58520    0.24610    1.000
    P4       P        0.14603    0.81900    0.97710    1.000
    P5       P        0.21569    0.68348    0.98210    1.000
    P6       P        0.11186    0.40510    0.22040    1.000
    P7       P        0.25748    0.41820    0.21440    1.000
    O1       O        0.09663    0.48420    0.22030    1.000
    O2       O        0.16139    0.76390    0.02940    1.000
    O3       O        0.13040    0.45250    0.22970    1.000
    O4       O        0.27602    0.45700    0.25640    1.000
    O5       O        0.09256    0.72430    0.94460    1.000
    O6       O        0.05598    0.53490    0.23880    1.000
    O7       O        0.02049    0.52950    0.22810    1.000
    O8       O        0.20471    0.54340    0.22870    1.000
    O9       O        0.17179    0.49830    0.25470    1.000
    O10      O        0.24424    0.49830    0.19360    1.000
    O11      O        0.20225    0.75300    0.02530    1.000
    O12      O        0.11206    0.34780    0.13020    1.000
    O13      O        0.22885    0.74590    0.92500    1.000
    O14      O        0.08398    0.60970    0.07190    1.000
    O15      O        0.17891    0.64940    0.16910    1.000
    O16      O        0.06503    0.61210    0.92570    1.000
    O17      O        0.31431    0.49270    0.28160    1.000
    O18      O        0.13266    0.74540    0.93200    1.000
    O19      O        0.06396    0.39710    0.08540    1.000
    O20      O        0.22481    0.62160    0.05430    1.000
    O21      O        0.11401    0.63330    0.79740    1.000
    O22      O        0.29647    0.38310    0.41700    1.000
    O23      O        0.24710    0.35850    0.29200    1.000
    O24      O        0.01171    0.39290    0.38050    1.000
    O25      O        0.03715    0.66240    0.14620    1.000
    O26      O        0.10794    0.34220    0.30510    1.000
    O27      O        0.15576    0.37890    0.40620    1.000
    O28      O        0.03622    0.65580    0.32160    1.000
    Al5      Al       0.29291    0.98140    0.83770    1.000
    Al6      Al       0.11218    0.23470    0.36960    1.000
    Co5      Co       0.07444    0.00479    0.64527    1.000
    Co6      Co       0.02880    0.76675    0.38311    1.000
    Al7      Al       0.22120    0.01675    0.63311    1.000
    Co7      Co       0.14860    0.98384    0.82219    1.000
    Al8      Al       0.18107    0.25596    0.60110    1.000
    Co8      Co       0.06893    0.50596    0.85110    1.000
    P8       P        0.07683    0.17200    0.49210    1.000
    P9       P        0.03751    0.09468    0.73380    1.000
    P10      P        0.18479    0.08520    0.74610    1.000
    P11      P        0.14603    0.31900    0.47710    1.000
    P12      P        0.21569    0.18348    0.48210    1.000
    P13      P        0.11186    0.90510    0.72040    1.000
    P14      P        0.25748    0.91820    0.71440    1.000
    O29      O        0.09663    0.98420    0.72030    1.000
    O30      O        0.16139    0.26390    0.52940    1.000
    O31      O        0.13040    0.95250    0.72970    1.000
    O32      O        0.27602    0.95700    0.75640    1.000
    O33      O        0.09256    0.22430    0.44460    1.000
    O34      O        0.05598    0.03490    0.73880    1.000
    O35      O        0.02049    0.02950    0.72810    1.000
    O36      O        0.20471    0.04340    0.72870    1.000
    O37      O        0.17179    0.99830    0.75470    1.000
    O38      O        0.24424    0.99830    0.69360    1.000
    O39      O        0.20225    0.25300    0.52530    1.000
    O40      O        0.11206    0.84780    0.63020    1.000
    O41      O        0.22885    0.24590    0.42500    1.000
    O42      O        0.08398    0.10970    0.57190    1.000
    O43      O        0.17891    0.14940    0.66910    1.000
    O44      O        0.06503    0.11210    0.42570    1.000
    O45      O        0.31431    0.99270    0.78160    1.000
    O46      O        0.13266    0.24540    0.43200    1.000
    O47      O        0.06396    0.89710    0.58540    1.000
    O48      O        0.22481    0.12160    0.55430    1.000
    O49      O        0.11401    0.13330    0.29740    1.000
    O50      O        0.29647    0.88310    0.91700    1.000
    O51      O        0.24710    0.85850    0.79200    1.000
    O52      O        0.01171    0.89290    0.88050    1.000
    O53      O        0.03715    0.16240    0.64620    1.000
    O54      O        0.10794    0.84220    0.80510    1.000
    O55      O        0.15576    0.87890    0.90620    1.000
    O56      O        0.03622    0.15580    0.82160    1.000
    Al9      Al       0.79291    0.48140    0.83770    1.000
    Al10     Al       0.61218    0.73470    0.36960    1.000
    Co9      Co       0.57444    0.50479    0.64527    1.000
    Co10     Co       0.52880    0.26675    0.38311    1.000
    Al11     Al       0.72120    0.51675    0.63311    1.000
    Co11     Co       0.64860    0.48384    0.82219    1.000
    Al12     Al       0.68107    0.75596    0.60110    1.000
    Co12     Co       0.56893    0.00596    0.85110    1.000
    P15      P        0.57683    0.67200    0.49210    1.000
    P16      P        0.53751    0.59468    0.73380    1.000
    P17      P        0.68479    0.58520    0.74610    1.000
    P18      P        0.64603    0.81900    0.47710    1.000
    P19      P        0.71569    0.68348    0.48210    1.000
    P20      P        0.61186    0.40510    0.72040    1.000
    P21      P        0.75748    0.41820    0.71440    1.000
    O57      O        0.59663    0.48420    0.72030    1.000
    O58      O        0.66139    0.76390    0.52940    1.000
    O59      O        0.63040    0.45250    0.72970    1.000
    O60      O        0.77602    0.45700    0.75640    1.000
    O61      O        0.59256    0.72430    0.44460    1.000
    O62      O        0.55598    0.53490    0.73880    1.000
    O63      O        0.52049    0.52950    0.72810    1.000
    O64      O        0.70471    0.54340    0.72870    1.000
    O65      O        0.67179    0.49830    0.75470    1.000
    O66      O        0.74424    0.49830    0.69360    1.000
    O67      O        0.70225    0.75300    0.52530    1.000
    O68      O        0.61206    0.34780    0.63020    1.000
    O69      O        0.72885    0.74590    0.42500    1.000
    O70      O        0.58398    0.60970    0.57190    1.000
    O71      O        0.67891    0.64940    0.66910    1.000
    O72      O        0.56503    0.61210    0.42570    1.000
    O73      O        0.81431    0.49270    0.78160    1.000
    O74      O        0.63266    0.74540    0.43200    1.000
    O75      O        0.56396    0.39710    0.58540    1.000
    O76      O        0.72481    0.62160    0.55430    1.000
    O77      O        0.61401    0.63330    0.29740    1.000
    O78      O        0.79647    0.38310    0.91700    1.000
    O79      O        0.74710    0.35850    0.79200    1.000
    O80      O        0.51171    0.39290    0.88050    1.000
    O81      O        0.53715    0.66240    0.64620    1.000
    O82      O        0.60794    0.34220    0.80510    1.000
    O83      O        0.65576    0.37890    0.90620    1.000
    O84      O        0.53622    0.65580    0.82160    1.000
    Al13     Al       0.79291    0.98140    0.33770    1.000
    Al14     Al       0.61218    0.23470    0.86960    1.000
    Co13     Co       0.57444    0.00479    0.14527    1.000
    Co14     Co       0.52880    0.76675    0.88311    1.000
    Al15     Al       0.72120    0.01675    0.13311    1.000
    Co15     Co       0.64860    0.98384    0.32219    1.000
    Al16     Al       0.68107    0.25596    0.10110    1.000
    Co16     Co       0.56893    0.50596    0.35110    1.000
    P22      P        0.57683    0.17200    0.99210    1.000
    P23      P        0.53751    0.09468    0.23380    1.000
    P24      P        0.68479    0.08520    0.24610    1.000
    P25      P        0.64603    0.31900    0.97710    1.000
    P26      P        0.71569    0.18348    0.98210    1.000
    P27      P        0.61186    0.90510    0.22040    1.000
    P28      P        0.75748    0.91820    0.21440    1.000
    O85      O        0.59663    0.98420    0.22030    1.000
    O86      O        0.66139    0.26390    0.02940    1.000
    O87      O        0.63040    0.95250    0.22970    1.000
    O88      O        0.77602    0.95700    0.25640    1.000
    O89      O        0.59256    0.22430    0.94460    1.000
    O90      O        0.55598    0.03490    0.23880    1.000
    O91      O        0.52049    0.02950    0.22810    1.000
    O92      O        0.70471    0.04340    0.22870    1.000
    O93      O        0.67179    0.99830    0.25470    1.000
    O94      O        0.74424    0.99830    0.19360    1.000
    O95      O        0.70225    0.25300    0.02530    1.000
    O96      O        0.61206    0.84780    0.13020    1.000
    O97      O        0.72885    0.24590    0.92500    1.000
    O98      O        0.58398    0.10970    0.07190    1.000
    O99      O        0.67891    0.14940    0.16910    1.000
    O100     O        0.56503    0.11210    0.92570    1.000
    O101     O        0.81431    0.99270    0.28160    1.000
    O102     O        0.63266    0.24540    0.93200    1.000
    O103     O        0.56396    0.89710    0.08540    1.000
    O104     O        0.72481    0.12160    0.05430    1.000
    O105     O        0.61401    0.13330    0.79740    1.000
    O106     O        0.79647    0.88310    0.41700    1.000
    O107     O        0.74710    0.85850    0.29200    1.000
    O108     O        0.51171    0.89290    0.38050    1.000
    O109     O        0.53715    0.16240    0.14620    1.000
    O110     O        0.60794    0.84220    0.30510    1.000
    O111     O        0.65576    0.87890    0.40620    1.000
    O112     O        0.53622    0.15580    0.32160    1.000
    Al17     Al       0.70709    0.51860    0.33770    1.000
    Al18     Al       0.88782    0.26530    0.86960    1.000
    Co17     Co       0.92556    0.49521    0.14527    1.000
    Co18     Co       0.97120    0.73325    0.88311    1.000
    Al19     Al       0.77880    0.48325    0.13311    1.000
    Co19     Co       0.85140    0.51616    0.32219    1.000
    Al20     Al       0.81893    0.24404    0.10110    1.000
    Co20     Co       0.93107    0.99404    0.35110    1.000
    P29      P        0.92317    0.32800    0.99210    1.000
    P30      P        0.96249    0.40532    0.23380    1.000
    P31      P        0.81521    0.41480    0.24610    1.000
    P32      P        0.85397    0.18100    0.97710    1.000
    P33      P        0.78431    0.31652    0.98210    1.000
    P34      P        0.88814    0.59490    0.22040    1.000
    P35      P        0.74252    0.58180    0.21440    1.000
    O113     O        0.90337    0.51580    0.22030    1.000
    O114     O        0.83861    0.23610    0.02940    1.000
    O115     O        0.86960    0.54750    0.22970    1.000
    O116     O        0.72398    0.54300    0.25640    1.000
    O117     O        0.90744    0.27570    0.94460    1.000
    O118     O        0.94402    0.46510    0.23880    1.000
    O119     O        0.97951    0.47050    0.22810    1.000
    O120     O        0.79529    0.45660    0.22870    1.000
    O121     O        0.82821    0.50170    0.25470    1.000
    O122     O        0.75576    0.50170    0.19360    1.000
    O123     O        0.79775    0.24700    0.02530    1.000
    O124     O        0.88794    0.65220    0.13020    1.000
    O125     O        0.77115    0.25410    0.92500    1.000
    O126     O        0.91602    0.39030    0.07190    1.000
    O127     O        0.82109    0.35060    0.16910    1.000
    O128     O        0.93497    0.38790    0.92570    1.000
    O129     O        0.68569    0.50730    0.28160    1.000
    O130     O        0.86734    0.25460    0.93200    1.000
    O131     O        0.93604    0.60290    0.08540    1.000
    O132     O        0.77519    0.37840    0.05430    1.000
    O133     O        0.88599    0.36670    0.79740    1.000
    O134     O        0.70353    0.61690    0.41700    1.000
    O135     O        0.75290    0.64150    0.29200    1.000
    O136     O        0.98829    0.60710    0.38050    1.000
    O137     O        0.96285    0.33760    0.14620    1.000
    O138     O        0.89206    0.65780    0.30510    1.000
    O139     O        0.84424    0.62110    0.40620    1.000
    O140     O        0.96378    0.34420    0.32160    1.000
    Al21     Al       0.70709    0.01860    0.83770    1.000
    Al22     Al       0.88782    0.76530    0.36960    1.000
    Co21     Co       0.92556    0.99521    0.64527    1.000
    Co22     Co       0.97120    0.23325    0.38311    1.000
    Al23     Al       0.77880    0.98325    0.63311    1.000
    Co23     Co       0.85140    0.01616    0.82219    1.000
    Al24     Al       0.81893    0.74404    0.60110    1.000
    Co24     Co       0.93107    0.49404    0.85110    1.000
    P36      P        0.92317    0.82800    0.49210    1.000
    P37      P        0.96249    0.90532    0.73380    1.000
    P38      P        0.81521    0.91480    0.74610    1.000
    P39      P        0.85397    0.68100    0.47710    1.000
    P40      P        0.78431    0.81652    0.48210    1.000
    P41      P        0.88814    0.09490    0.72040    1.000
    P42      P        0.74252    0.08180    0.71440    1.000
    O141     O        0.90337    0.01580    0.72030    1.000
    O142     O        0.83861    0.73610    0.52940    1.000
    O143     O        0.86960    0.04750    0.72970    1.000
    O144     O        0.72398    0.04300    0.75640    1.000
    O145     O        0.90744    0.77570    0.44460    1.000
    O146     O        0.94402    0.96510    0.73880    1.000
    O147     O        0.97951    0.97050    0.72810    1.000
    O148     O        0.79529    0.95660    0.72870    1.000
    O149     O        0.82821    0.00170    0.75470    1.000
    O150     O        0.75576    0.00170    0.69360    1.000
    O151     O        0.79775    0.74700    0.52530    1.000
    O152     O        0.88794    0.15220    0.63020    1.000
    O153     O        0.77115    0.75410    0.42500    1.000
    O154     O        0.91602    0.89030    0.57190    1.000
    O155     O        0.82109    0.85060    0.66910    1.000
    O156     O        0.93497    0.88790    0.42570    1.000
    O157     O        0.68569    0.00730    0.78160    1.000
    O158     O        0.86734    0.75460    0.43200    1.000
    O159     O        0.93604    0.10290    0.58540    1.000
    O160     O        0.77519    0.87840    0.55430    1.000
    O161     O        0.88599    0.86670    0.29740    1.000
    O162     O        0.70353    0.11690    0.91700    1.000
    O163     O        0.75290    0.14150    0.79200    1.000
    O164     O        0.98829    0.10710    0.88050    1.000
    O165     O        0.96285    0.83760    0.64620    1.000
    O166     O        0.89206    0.15780    0.80510    1.000
    O167     O        0.84424    0.12110    0.90620    1.000
    O168     O        0.96378    0.84420    0.82160    1.000
    Al25     Al       0.20709    0.51860    0.83770    1.000
    Al26     Al       0.38782    0.26530    0.36960    1.000
    Co25     Co       0.42556    0.49521    0.64527    1.000
    Co26     Co       0.47120    0.73325    0.38311    1.000
    Al27     Al       0.27880    0.48325    0.63311    1.000
    Co27     Co       0.35140    0.51616    0.82219    1.000
    Al28     Al       0.31893    0.24404    0.60110    1.000
    Co28     Co       0.43107    0.99404    0.85110    1.000
    P43      P        0.42317    0.32800    0.49210    1.000
    P44      P        0.46249    0.40532    0.73380    1.000
    P45      P        0.31521    0.41480    0.74610    1.000
    P46      P        0.35397    0.18100    0.47710    1.000
    P47      P        0.28431    0.31652    0.48210    1.000
    P48      P        0.38814    0.59490    0.72040    1.000
    P49      P        0.24252    0.58180    0.71440    1.000
    O169     O        0.40337    0.51580    0.72030    1.000
    O170     O        0.33861    0.23610    0.52940    1.000
    O171     O        0.36960    0.54750    0.72970    1.000
    O172     O        0.22398    0.54300    0.75640    1.000
    O173     O        0.40744    0.27570    0.44460    1.000
    O174     O        0.44402    0.46510    0.73880    1.000
    O175     O        0.47951    0.47050    0.72810    1.000
    O176     O        0.29529    0.45660    0.72870    1.000
    O177     O        0.32821    0.50170    0.75470    1.000
    O178     O        0.25576    0.50170    0.69360    1.000
    O179     O        0.29775    0.24700    0.52530    1.000
    O180     O        0.38794    0.65220    0.63020    1.000
    O181     O        0.27115    0.25410    0.42500    1.000
    O182     O        0.41602    0.39030    0.57190    1.000
    O183     O        0.32109    0.35060    0.66910    1.000
    O184     O        0.43497    0.38790    0.42570    1.000
    O185     O        0.18569    0.50730    0.78160    1.000
    O186     O        0.36734    0.25460    0.43200    1.000
    O187     O        0.43604    0.60290    0.58540    1.000
    O188     O        0.27519    0.37840    0.55430    1.000
    O189     O        0.38599    0.36670    0.29740    1.000
    O190     O        0.20353    0.61690    0.91700    1.000
    O191     O        0.25290    0.64150    0.79200    1.000
    O192     O        0.48829    0.60710    0.88050    1.000
    O193     O        0.46285    0.33760    0.64620    1.000
    O194     O        0.39206    0.65780    0.80510    1.000
    O195     O        0.34424    0.62110    0.90620    1.000
    O196     O        0.46378    0.34420    0.82160    1.000
    Al29     Al       0.20709    0.01860    0.33770    1.000
    Al30     Al       0.38782    0.76530    0.86960    1.000
    Co29     Co       0.42556    0.99521    0.14527    1.000
    Co30     Co       0.47120    0.23325    0.88311    1.000
    Al31     Al       0.27880    0.98325    0.13311    1.000
    Co31     Co       0.35140    0.01616    0.32219    1.000
    Al32     Al       0.31893    0.74404    0.10110    1.000
    Co32     Co       0.43107    0.49404    0.35110    1.000
    P50      P        0.42317    0.82800    0.99210    1.000
    P51      P        0.46249    0.90532    0.23380    1.000
    P52      P        0.31521    0.91480    0.24610    1.000
    P53      P        0.35397    0.68100    0.97710    1.000
    P54      P        0.28431    0.81652    0.98210    1.000
    P55      P        0.38814    0.09490    0.22040    1.000
    P56      P        0.24252    0.08180    0.21440    1.000
    O197     O        0.40337    0.01580    0.22030    1.000
    O198     O        0.33861    0.73610    0.02940    1.000
    O199     O        0.36960    0.04750    0.22970    1.000
    O200     O        0.22398    0.04300    0.25640    1.000
    O201     O        0.40744    0.77570    0.94460    1.000
    O202     O        0.44402    0.96510    0.23880    1.000
    O203     O        0.47951    0.97050    0.22810    1.000
    O204     O        0.29529    0.95660    0.22870    1.000
    O205     O        0.32821    0.00170    0.25470    1.000
    O206     O        0.25576    0.00170    0.19360    1.000
    O207     O        0.29775    0.74700    0.02530    1.000
    O208     O        0.38794    0.15220    0.13020    1.000
    O209     O        0.27115    0.75410    0.92500    1.000
    O210     O        0.41602    0.89030    0.07190    1.000
    O211     O        0.32109    0.85060    0.16910    1.000
    O212     O        0.43497    0.88790    0.92570    1.000
    O213     O        0.18569    0.00730    0.28160    1.000
    O214     O        0.36734    0.75460    0.93200    1.000
    O215     O        0.43604    0.10290    0.08540    1.000
    O216     O        0.27519    0.87840    0.05430    1.000
    O217     O        0.38599    0.86670    0.79740    1.000
    O218     O        0.20353    0.11690    0.41700    1.000
    O219     O        0.25290    0.14150    0.29200    1.000
    O220     O        0.48829    0.10710    0.38050    1.000
    O221     O        0.46285    0.83760    0.14620    1.000
    O222     O        0.39206    0.15780    0.30510    1.000
    O223     O        0.34424    0.12110    0.40620    1.000
    O224     O        0.46378    0.84420    0.32160    1.000
    Al33     Al       0.54291    0.76860    0.58770    1.000
    Al34     Al       0.36218    0.51530    0.11960    1.000
    Co33     Co       0.32444    0.74521    0.39527    1.000
    Co34     Co       0.39860    0.76616    0.57219    1.000
    P57      P        0.32683    0.57800    0.24210    1.000
    P58      P        0.28751    0.65532    0.48380    1.000
    P59      P        0.43479    0.66480    0.49610    1.000
    P60      P        0.39603    0.43100    0.22710    1.000
    P61      P        0.46569    0.56652    0.23210    1.000
    P62      P        0.36186    0.84490    0.47040    1.000
    P63      P        0.50748    0.83180    0.46440    1.000
    O225     O        0.34663    0.76580    0.47030    1.000
    O226     O        0.41139    0.48610    0.27940    1.000
    O227     O        0.38040    0.79750    0.47970    1.000
    O228     O        0.52602    0.79300    0.50640    1.000
    O229     O        0.34256    0.52570    0.19460    1.000
    O230     O        0.30598    0.71510    0.48880    1.000
    O231     O        0.27049    0.72050    0.47810    1.000
    O232     O        0.45471    0.70660    0.47870    1.000
    O233     O        0.42179    0.75170    0.50470    1.000
    O234     O        0.49424    0.75170    0.44360    1.000
    O235     O        0.45225    0.49700    0.27530    1.000
    O236     O        0.36206    0.90220    0.38020    1.000
    O237     O        0.47885    0.50410    0.17500    1.000
    O238     O        0.33398    0.64030    0.32190    1.000
    O239     O        0.42891    0.60060    0.41910    1.000
    O240     O        0.31503    0.63790    0.17570    1.000
    O241     O        0.56431    0.75730    0.53160    1.000
    O242     O        0.38266    0.50460    0.18200    1.000
    O243     O        0.31396    0.85290    0.33540    1.000
    O244     O        0.47481    0.62840    0.30430    1.000
    O245     O        0.36401    0.61670    0.04740    1.000
    O246     O        0.54647    0.86690    0.66700    1.000
    O247     O        0.49710    0.89150    0.54200    1.000
    O248     O        0.26171    0.85710    0.63050    1.000
    O249     O        0.28715    0.58760    0.39620    1.000
    O250     O        0.35794    0.90780    0.55510    1.000
    O251     O        0.40576    0.87110    0.65620    1.000
    O252     O        0.28622    0.59420    0.57160    1.000
    Al35     Al       0.54291    0.26860    0.08770    1.000
    Al36     Al       0.36218    0.01530    0.61960    1.000
    Co35     Co       0.32444    0.24521    0.89527    1.000
    Co36     Co       0.39860    0.26616    0.07219    1.000
    P64      P        0.32683    0.07800    0.74210    1.000
    P65      P        0.28751    0.15532    0.98380    1.000
    P66      P        0.43479    0.16480    0.99610    1.000
    P67      P        0.39603    0.93100    0.72710    1.000
    P68      P        0.46569    0.06652    0.73210    1.000
    P69      P        0.36186    0.34490    0.97040    1.000
    P70      P        0.50748    0.33180    0.96440    1.000
    O253     O        0.34663    0.26580    0.97030    1.000
    O254     O        0.41139    0.98610    0.77940    1.000
    O255     O        0.38040    0.29750    0.97970    1.000
    O256     O        0.52602    0.29300    0.00640    1.000
    O257     O        0.34256    0.02570    0.69460    1.000
    O258     O        0.30598    0.21510    0.98880    1.000
    O259     O        0.27049    0.22050    0.97810    1.000
    O260     O        0.45471    0.20660    0.97870    1.000
    O261     O        0.42179    0.25170    0.00470    1.000
    O262     O        0.49424    0.25170    0.94360    1.000
    O263     O        0.45225    0.99700    0.77530    1.000
    O264     O        0.36206    0.40220    0.88020    1.000
    O265     O        0.47885    0.00410    0.67500    1.000
    O266     O        0.33398    0.14030    0.82190    1.000
    O267     O        0.42891    0.10060    0.91910    1.000
    O268     O        0.31503    0.13790    0.67570    1.000
    O269     O        0.56431    0.25730    0.03160    1.000
    O270     O        0.38266    0.00460    0.68200    1.000
    O271     O        0.31396    0.35290    0.83540    1.000
    O272     O        0.47481    0.12840    0.80430    1.000
    O273     O        0.36401    0.11670    0.54740    1.000
    O274     O        0.54647    0.36690    0.16700    1.000
    O275     O        0.49710    0.39150    0.04200    1.000
    O276     O        0.26171    0.35710    0.13050    1.000
    O277     O        0.28715    0.08760    0.89620    1.000
    O278     O        0.35794    0.40780    0.05510    1.000
    O279     O        0.40576    0.37110    0.15620    1.000
    O280     O        0.28622    0.09420    0.07160    1.000
    Al37     Al       0.04291    0.76860    0.08770    1.000
    Al38     Al       0.86218    0.51530    0.61960    1.000
    Co37     Co       0.82444    0.74521    0.89527    1.000
    Co38     Co       0.89860    0.76616    0.07219    1.000
    P71      P        0.82683    0.57800    0.74210    1.000
    P72      P        0.78751    0.65532    0.98380    1.000
    P73      P        0.93479    0.66480    0.99610    1.000
    P74      P        0.89603    0.43100    0.72710    1.000
    P75      P        0.96569    0.56652    0.73210    1.000
    P76      P        0.86186    0.84490    0.97040    1.000
    P77      P        0.00748    0.83180    0.96440    1.000
    O281     O        0.84663    0.76580    0.97030    1.000
    O282     O        0.91139    0.48610    0.77940    1.000
    O283     O        0.88040    0.79750    0.97970    1.000
    O284     O        0.02602    0.79300    0.00640    1.000
    O285     O        0.84256    0.52570    0.69460    1.000
    O286     O        0.80598    0.71510    0.98880    1.000
    O287     O        0.77049    0.72050    0.97810    1.000
    O288     O        0.95471    0.70660    0.97870    1.000
    O289     O        0.92179    0.75170    0.00470    1.000
    O290     O        0.99424    0.75170    0.94360    1.000
    O291     O        0.95225    0.49700    0.77530    1.000
    O292     O        0.86206    0.90220    0.88020    1.000
    O293     O        0.97885    0.50410    0.67500    1.000
    O294     O        0.83398    0.64030    0.82190    1.000
    O295     O        0.92891    0.60060    0.91910    1.000
    O296     O        0.81503    0.63790    0.67570    1.000
    O297     O        0.06431    0.75730    0.03160    1.000
    O298     O        0.88266    0.50460    0.68200    1.000
    O299     O        0.81396    0.85290    0.83540    1.000
    O300     O        0.97481    0.62840    0.80430    1.000
    O301     O        0.86401    0.61670    0.54740    1.000
    O302     O        0.04647    0.86690    0.16700    1.000
    O303     O        0.99710    0.89150    0.04200    1.000
    O304     O        0.76171    0.85710    0.13050    1.000
    O305     O        0.78715    0.58760    0.89620    1.000
    O306     O        0.85794    0.90780    0.05510    1.000
    O307     O        0.90576    0.87110    0.15620    1.000
    O308     O        0.78622    0.59420    0.07160    1.000
    Al39     Al       0.04291    0.26860    0.58770    1.000
    Al40     Al       0.86218    0.01530    0.11960    1.000
    Co39     Co       0.82444    0.24521    0.39527    1.000
    Co40     Co       0.89860    0.26616    0.57219    1.000
    P78      P        0.82683    0.07800    0.24210    1.000
    P79      P        0.78751    0.15532    0.48380    1.000
    P80      P        0.93479    0.16480    0.49610    1.000
    P81      P        0.89603    0.93100    0.22710    1.000
    P82      P        0.96569    0.06652    0.23210    1.000
    P83      P        0.86186    0.34490    0.47040    1.000
    P84      P        0.00748    0.33180    0.46440    1.000
    O309     O        0.84663    0.26580    0.47030    1.000
    O310     O        0.91139    0.98610    0.27940    1.000
    O311     O        0.88040    0.29750    0.47970    1.000
    O312     O        0.02602    0.29300    0.50640    1.000
    O313     O        0.84256    0.02570    0.19460    1.000
    O314     O        0.80598    0.21510    0.48880    1.000
    O315     O        0.77049    0.22050    0.47810    1.000
    O316     O        0.95471    0.20660    0.47870    1.000
    O317     O        0.92179    0.25170    0.50470    1.000
    O318     O        0.99424    0.25170    0.44360    1.000
    O319     O        0.95225    0.99700    0.27530    1.000
    O320     O        0.86206    0.40220    0.38020    1.000
    O321     O        0.97885    0.00410    0.17500    1.000
    O322     O        0.83398    0.14030    0.32190    1.000
    O323     O        0.92891    0.10060    0.41910    1.000
    O324     O        0.81503    0.13790    0.17570    1.000
    O325     O        0.06431    0.25730    0.53160    1.000
    O326     O        0.88266    0.00460    0.18200    1.000
    O327     O        0.81396    0.35290    0.33540    1.000
    O328     O        0.97481    0.12840    0.30430    1.000
    O329     O        0.86401    0.11670    0.04740    1.000
    O330     O        0.04647    0.36690    0.66700    1.000
    O331     O        0.99710    0.39150    0.54200    1.000
    O332     O        0.76171    0.35710    0.63050    1.000
    O333     O        0.78715    0.08760    0.39620    1.000
    O334     O        0.85794    0.40780    0.55510    1.000
    O335     O        0.90576    0.37110    0.65620    1.000
    O336     O        0.78622    0.09420    0.57160    1.000
    Al41     Al       0.95709    0.73140    0.58770    1.000
    Al42     Al       0.13782    0.98470    0.11960    1.000
    Co41     Co       0.17556    0.75479    0.39527    1.000
    Co42     Co       0.10140    0.73384    0.57219    1.000
    P85      P        0.17317    0.92200    0.24210    1.000
    P86      P        0.21249    0.84468    0.48380    1.000
    P87      P        0.06521    0.83520    0.49610    1.000
    P88      P        0.10397    0.06900    0.22710    1.000
    P89      P        0.03431    0.93348    0.23210    1.000
    P90      P        0.13814    0.65510    0.47040    1.000
    P91      P        0.99252    0.66820    0.46440    1.000
    O337     O        0.15337    0.73420    0.47030    1.000
    O338     O        0.08861    0.01390    0.27940    1.000
    O339     O        0.11960    0.70250    0.47970    1.000
    O340     O        0.97398    0.70700    0.50640    1.000
    O341     O        0.15744    0.97430    0.19460    1.000
    O342     O        0.19402    0.78490    0.48880    1.000
    O343     O        0.22951    0.77950    0.47810    1.000
    O344     O        0.04529    0.79340    0.47870    1.000
    O345     O        0.07821    0.74830    0.50470    1.000
    O346     O        0.00576    0.74830    0.44360    1.000
    O347     O        0.04775    0.00300    0.27530    1.000
    O348     O        0.13794    0.59780    0.38020    1.000
    O349     O        0.02115    0.99590    0.17500    1.000
    O350     O        0.16602    0.85970    0.32190    1.000
    O351     O        0.07109    0.89940    0.41910    1.000
    O352     O        0.18497    0.86210    0.17570    1.000
    O353     O        0.93569    0.74270    0.53160    1.000
    O354     O        0.11734    0.99540    0.18200    1.000
    O355     O        0.18604    0.64710    0.33540    1.000
    O356     O        0.02519    0.87160    0.30430    1.000
    O357     O        0.13599    0.88330    0.04740    1.000
    O358     O        0.95353    0.63310    0.66700    1.000
    O359     O        0.00290    0.60850    0.54200    1.000
    O360     O        0.23829    0.64290    0.63050    1.000
    O361     O        0.21285    0.91240    0.39620    1.000
    O362     O        0.14206    0.59220    0.55510    1.000
    O363     O        0.09424    0.62890    0.65620    1.000
    O364     O        0.21378    0.90580    0.57160    1.000
    Al43     Al       0.95709    0.23140    0.08770    1.000
    Al44     Al       0.13782    0.48470    0.61960    1.000
    Co43     Co       0.17556    0.25479    0.89527    1.000
    Co44     Co       0.10140    0.23384    0.07219    1.000
    P92      P        0.17317    0.42200    0.74210    1.000
    P93      P        0.21249    0.34468    0.98380    1.000
    P94      P        0.06521    0.33520    0.99610    1.000
    P95      P        0.10397    0.56900    0.72710    1.000
    P96      P        0.03431    0.43348    0.73210    1.000
    P97      P        0.13814    0.15510    0.97040    1.000
    P98      P        0.99252    0.16820    0.96440    1.000
    O365     O        0.15337    0.23420    0.97030    1.000
    O366     O        0.08861    0.51390    0.77940    1.000
    O367     O        0.11960    0.20250    0.97970    1.000
    O368     O        0.97398    0.20700    0.00640    1.000
    O369     O        0.15744    0.47430    0.69460    1.000
    O370     O        0.19402    0.28490    0.98880    1.000
    O371     O        0.22951    0.27950    0.97810    1.000
    O372     O        0.04529    0.29340    0.97870    1.000
    O373     O        0.07821    0.24830    0.00470    1.000
    O374     O        0.00576    0.24830    0.94360    1.000
    O375     O        0.04775    0.50300    0.77530    1.000
    O376     O        0.13794    0.09780    0.88020    1.000
    O377     O        0.02115    0.49590    0.67500    1.000
    O378     O        0.16602    0.35970    0.82190    1.000
    O379     O        0.07109    0.39940    0.91910    1.000
    O380     O        0.18497    0.36210    0.67570    1.000
    O381     O        0.93569    0.24270    0.03160    1.000
    O382     O        0.11734    0.49540    0.68200    1.000
    O383     O        0.18604    0.14710    0.83540    1.000
    O384     O        0.02519    0.37160    0.80430    1.000
    O385     O        0.13599    0.38330    0.54740    1.000
    O386     O        0.95353    0.13310    0.16700    1.000
    O387     O        0.00290    0.10850    0.04200    1.000
    O388     O        0.23829    0.14290    0.13050    1.000
    O389     O        0.21285    0.41240    0.89620    1.000
    O390     O        0.14206    0.09220    0.05510    1.000
    O391     O        0.09424    0.12890    0.15620    1.000
    O392     O        0.21378    0.40580    0.07160    1.000
    Al45     Al       0.45709    0.73140    0.08770    1.000
    Al46     Al       0.63782    0.98470    0.61960    1.000
    Co45     Co       0.67556    0.75479    0.89527    1.000
    Co46     Co       0.60140    0.73384    0.07219    1.000
    P99      P        0.67317    0.92200    0.74210    1.000
    P100     P        0.71249    0.84468    0.98380    1.000
    P101     P        0.56521    0.83520    0.99610    1.000
    P102     P        0.60397    0.06900    0.72710    1.000
    P103     P        0.53431    0.93348    0.73210    1.000
    P104     P        0.63814    0.65510    0.97040    1.000
    P105     P        0.49252    0.66820    0.96440    1.000
    O393     O        0.65337    0.73420    0.97030    1.000
    O394     O        0.58861    0.01390    0.77940    1.000
    O395     O        0.61960    0.70250    0.97970    1.000
    O396     O        0.47398    0.70700    0.00640    1.000
    O397     O        0.65744    0.97430    0.69460    1.000
    O398     O        0.69402    0.78490    0.98880    1.000
    O399     O        0.72951    0.77950    0.97810    1.000
    O400     O        0.54529    0.79340    0.97870    1.000
    O401     O        0.57821    0.74830    0.00470    1.000
    O402     O        0.50576    0.74830    0.94360    1.000
    O403     O        0.54775    0.00300    0.77530    1.000
    O404     O        0.63794    0.59780    0.88020    1.000
    O405     O        0.52115    0.99590    0.67500    1.000
    O406     O        0.66602    0.85970    0.82190    1.000
    O407     O        0.57109    0.89940    0.91910    1.000
    O408     O        0.68497    0.86210    0.67570    1.000
    O409     O        0.43569    0.74270    0.03160    1.000
    O410     O        0.61734    0.99540    0.68200    1.000
    O411     O        0.68604    0.64710    0.83540    1.000
    O412     O        0.52519    0.87160    0.80430    1.000
    O413     O        0.63599    0.88330    0.54740    1.000
    O414     O        0.45353    0.63310    0.16700    1.000
    O415     O        0.50290    0.60850    0.04200    1.000
    O416     O        0.73829    0.64290    0.13050    1.000
    O417     O        0.71285    0.91240    0.89620    1.000
    O418     O        0.64206    0.59220    0.05510    1.000
    O419     O        0.59424    0.62890    0.15620    1.000
    O420     O        0.71378    0.90580    0.07160    1.000
    Al47     Al       0.45709    0.23140    0.58770    1.000
    Al48     Al       0.63782    0.48470    0.11960    1.000
    Co47     Co       0.67556    0.25479    0.39527    1.000
    Co48     Co       0.60140    0.23384    0.57219    1.000
    P106     P        0.67317    0.42200    0.24210    1.000
    P107     P        0.71249    0.34468    0.48380    1.000
    P108     P        0.56521    0.33520    0.49610    1.000
    P109     P        0.60397    0.56900    0.22710    1.000
    P110     P        0.53431    0.43348    0.23210    1.000
    P111     P        0.63814    0.15510    0.47040    1.000
    P112     P        0.49252    0.16820    0.46440    1.000
    O421     O        0.65337    0.23420    0.47030    1.000
    O422     O        0.58861    0.51390    0.27940    1.000
    O423     O        0.61960    0.20250    0.47970    1.000
    O424     O        0.47398    0.20700    0.50640    1.000
    O425     O        0.65744    0.47430    0.19460    1.000
    O426     O        0.69402    0.28490    0.48880    1.000
    O427     O        0.72951    0.27950    0.47810    1.000
    O428     O        0.54529    0.29340    0.47870    1.000
    O429     O        0.57821    0.24830    0.50470    1.000
    O430     O        0.50576    0.24830    0.44360    1.000
    O431     O        0.54775    0.50300    0.27530    1.000
    O432     O        0.63794    0.09780    0.38020    1.000
    O433     O        0.52115    0.49590    0.17500    1.000
    O434     O        0.66602    0.35970    0.32190    1.000
    O435     O        0.57109    0.39940    0.41910    1.000
    O436     O        0.68497    0.36210    0.17570    1.000
    O437     O        0.43569    0.24270    0.53160    1.000
    O438     O        0.61734    0.49540    0.18200    1.000
    O439     O        0.68604    0.14710    0.33540    1.000
    O440     O        0.52519    0.37160    0.30430    1.000
    O441     O        0.63599    0.38330    0.04740    1.000
    O442     O        0.45353    0.13310    0.66700    1.000
    O443     O        0.50290    0.10850    0.54200    1.000
    O444     O        0.73829    0.14290    0.63050    1.000
    O445     O        0.71285    0.41240    0.39620    1.000
    O446     O        0.64206    0.09220    0.55510    1.000
    O447     O        0.59424    0.12890    0.65620    1.000
    O448     O        0.71378    0.40580    0.57160    1.000
    Co49     Co       0.00000    0.50000    0.31404    1.000
    Co50     Co       0.00000    0.00000    0.81404    1.000
    Co51     Co       0.50000    0.50000    0.81404    1.000
    Co52     Co       0.50000    0.00000    0.31404    1.000
    Co53     Co       0.25000    0.75000    0.56404    1.000
    Co54     Co       0.25000    0.25000    0.06404    1.000
    Co55     Co       0.75000    0.75000    0.06404    1.000
    Co56     Co       0.75000    0.25000    0.56404    1.000
    Al49     Al       0.25000    0.75000    0.85910    1.000
    Al50     Al       0.25000    0.25000    0.35910    1.000
    Al51     Al       0.75000    0.25000    0.85910    1.000
    Al52     Al       0.75000    0.75000    0.35910    1.000
    Al53     Al       0.50000    0.50000    0.10910    1.000
    Al54     Al       0.50000    0.00000    0.60910    1.000
    Al55     Al       0.00000    0.00000    0.10910    1.000
    Al56     Al       0.00000    0.50000    0.60910    1.000
