data_functionalizedCrystal
_audit_creation_method	'EQeq! by Chris Wilmer'
_symmetry_space_group_name_H-M	'P1'
_symmetry_Int_Tables_number	1
_symmetry_cell_setting	triclinic
loop_
_symmetry_equiv_pos_as_xyz
  x,y,z
_cell_length_a	18.0973
_cell_length_b	28.4369
_cell_length_c	28.5016
_cell_angle_alpha	90
_cell_angle_beta	90
_cell_angle_gamma	90
loop_
_atom_site_label
_atom_site_type_symbol
_atom_site_fract_x
_atom_site_fract_y
_atom_site_fract_z
_atom_site_charge
Mof_Cu	Cu	0.98439	0.24352	0.76392	0.851
Mof_Cu	Cu	0.74176	0.48614	0.50309	0.851
Mof_N 	N 	0.5325	0.29336	0.28897	-0.237
Mof_N 	N 	0.9399	0.28653	0.71588	-0.24
Mof_N 	N 	0.7866	0.43611	0.54502	-0.24
Mof_N 	N 	0.9649	0.70338	0.68782	-0.245
Mof_N 	N 	0.6888	0.43612	0.46496	-0.242
Mof_N 	N 	0.9388	0.2844	0.81493	-0.236
Mof_N 	N 	0.8017	0.46264	0.96243	-0.245
Mof_N 	N 	0.7929	0.53639	0.54142	-0.242
Mof_C 	C 	0.8812	0.3503	0.8767	0.049
Mof_C 	C 	0.8971	0.6405	0.6261	0.059
Mof_C 	C 	0.8787	0.3448	0.6481	0.053
Mof_C 	C 	0.6016	0.2976	0.3603	-0.14
Mof_H 	H 	0.6286	0.2819	0.3833	0.075
Mof_C 	C 	0.9808	0.3028	0.849	0.073
Mof_H 	H 	0.0299	0.2935	0.8515	-0.018
Mof_C 	C 	0.6234	0.3747	0.4007	0.057
Mof_C 	C 	0.8464	0.3764	0.6119	0.057
Mof_C 	C 	0.8367	0.3302	0.8418	-0.136
Mof_H 	H 	0.7874	0.3389	0.8387	0.071
Mof_C 	C 	0.7721	0.3737	0.6001	-0.141
Mof_H 	H 	0.7415	0.3517	0.6144	0.073
Mof_C 	C 	0.8942	0.2695	0.6836	0.079
Mof_H 	H 	0.8845	0.2374	0.6835	-0.025
Mof_C 	C 	0.6183	0.4399	0.4538	0.084
Mof_H 	H 	0.5903	0.4634	0.4679	-0.025
Mof_C 	C 	0.8185	0.5698	0.6166	-0.143
Mof_H 	H 	0.8117	0.5692	0.649	0.074
Mof_C 	C 	0.8533	0.3896	0.9069	0.065
Mof_C 	C 	0.7267	0.4003	0.4466	0.077
Mof_H 	H 	0.7755	0.3961	0.4558	-0.021
Mof_C 	C 	0.5707	0.273	0.3233	0.079
Mof_H 	H 	0.577	0.2406	0.3224	-0.019
Mof_C 	C 	0.8604	0.2976	0.65	-0.142
Mof_H 	H 	0.8261	0.285	0.6293	0.075
Mof_C 	C 	0.0019	0.6848	0.6516	0.074
Mof_H 	H 	0.0512	0.6932	0.6475	-0.02
Mof_C 	C 	0.8903	0.408	0.5884	-0.145
Mof_H 	H 	0.9407	0.4097	0.5947	0.074
Mof_C 	C 	0.584	0.4102	0.4219	-0.147
Mof_H 	H 	0.5343	0.4143	0.4147	0.074
Mof_C 	C 	0.9702	0.6538	0.62	-0.141
Mof_H 	H 	0.9976	0.6421	0.5949	0.072
Mof_C 	C 	0.8592	0.6602	0.6625	-0.15
Mof_H 	H 	0.8097	0.6529	0.6673	0.075
Mof_C 	C 	0.8612	0.604	0.5962	0.056
Mof_C 	C 	0.744	0.4044	0.5665	0.074
Mof_H 	H 	0.6941	0.4027	0.5589	-0.02
Mof_C 	C 	0.8681	0.3911	0.9547	-0.155
Mof_H 	H 	0.8964	0.3677	0.9687	0.08
Mof_C 	C 	0.9271	0.363	0.682	-0.138
Mof_H 	H 	0.9391	0.3948	0.6822	0.072
Mof_C 	C 	0.8585	0.4373	0.5555	0.079
Mof_H 	H 	0.8885	0.4587	0.5399	-0.023
Mof_C 	C 	0.6969	0.3694	0.4146	-0.143
Mof_H 	H 	0.7255	0.3452	0.4023	0.074
Mof_C 	C 	0.895	0.6913	0.6922	0.086
Mof_H 	H 	0.8681	0.7044	0.7167	-0.025
Mof_C 	C 	0.5511	0.3673	0.3272	-0.135
Mof_H 	H 	0.5427	0.3996	0.3281	0.071
Mof_C 	C 	0.5233	0.3406	0.2909	0.067
Mof_H 	H 	0.4974	0.3556	0.2669	-0.019
Mof_C 	C 	0.8702	0.6037	0.5477	-0.148
Mof_H 	H 	0.8998	0.626	0.5329	0.076
Mof_C 	C 	0.9564	0.3332	0.715	0.071
Mof_H 	H 	0.9886	0.3452	0.7374	-0.019
Mof_C 	C 	0.5919	0.3457	0.3627	0.051
Mof_C 	C 	0.8671	0.2976	0.8122	0.071
Mof_H 	H 	0.8374	0.284	0.7893	-0.019
Mof_C 	C 	0.9531	0.3351	0.8805	-0.137
Mof_H 	H 	0.9832	0.3467	0.9043	0.072
Mof_C 	C 	0.8342	0.5695	0.5222	0.086
Mof_H 	H 	0.8391	0.5698	0.4897	-0.023
Mof_C 	C 	0.8121	0.4258	0.8881	-0.153
Mof_H 	H 	0.8	0.4257	0.8564	0.077
Mof_C 	C 	0.7858	0.5362	0.5883	0.074
Mof_H 	H 	0.7578	0.5127	0.6023	-0.021
Mof_C 	C 	0.8406	0.4275	0.9807	0.091
Mof_H 	H 	0.8495	0.4277	0.0129	-0.027
Mof_C 	C 	0.7891	0.4618	0.9161	0.084
Mof_H 	H 	0.7637	0.4867	0.9026	-0.025
Mof_Cu	Cu	0.51561	0.75648	0.26392	0.85
Mof_Cu	Cu	0.75824	0.51386	0.00309	0.85
Mof_N 	N 	0.9675	0.70664	0.78897	-0.238
Mof_N 	N 	0.5601	0.71347	0.21588	-0.241
Mof_N 	N 	0.7134	0.56389	0.04502	-0.241
Mof_N 	N 	0.5351	0.29662	0.18782	-0.247
Mof_N 	N 	0.8112	0.56388	0.96496	-0.243
Mof_N 	N 	0.5612	0.7156	0.31493	-0.237
Mof_N 	N 	0.6983	0.53736	0.46243	-0.246
Mof_N 	N 	0.7071	0.46361	0.04142	-0.243
Mof_C 	C 	0.6188	0.6497	0.3767	0.048
Mof_C 	C 	0.6029	0.3595	0.1261	0.059
Mof_C 	C 	0.6213	0.6552	0.1481	0.052
Mof_C 	C 	0.8984	0.7024	0.8603	-0.142
Mof_H 	H 	0.8714	0.7181	0.8833	0.074
Mof_C 	C 	0.5192	0.6972	0.349	0.071
Mof_H 	H 	0.4701	0.7065	0.3515	-0.018
Mof_C 	C 	0.8766	0.6253	0.9007	0.057
Mof_C 	C 	0.6536	0.6236	0.1119	0.057
Mof_C 	C 	0.6633	0.6698	0.3418	-0.136
Mof_H 	H 	0.7126	0.6611	0.3387	0.071
Mof_C 	C 	0.7279	0.6263	0.1001	-0.141
Mof_H 	H 	0.7585	0.6483	0.1144	0.073
Mof_C 	C 	0.6058	0.7305	0.1836	0.079
Mof_H 	H 	0.6155	0.7626	0.1835	-0.025
Mof_C 	C 	0.8817	0.5601	0.9538	0.084
Mof_H 	H 	0.9097	0.5366	0.9679	-0.024
Mof_C 	C 	0.6815	0.4302	0.1166	-0.142
Mof_H 	H 	0.6883	0.4308	0.149	0.073
Mof_C 	C 	0.6467	0.6104	0.4069	0.064
Mof_C 	C 	0.7733	0.5997	0.9466	0.077
Mof_H 	H 	0.7245	0.6039	0.9558	-0.021
Mof_C 	C 	0.9293	0.727	0.8233	0.08
Mof_H 	H 	0.923	0.7594	0.8224	-0.019
Mof_C 	C 	0.6396	0.7024	0.15	-0.142
Mof_H 	H 	0.6739	0.715	0.1293	0.075
Mof_C 	C 	0.4981	0.3152	0.1516	0.075
Mof_H 	H 	0.4488	0.3068	0.1475	-0.02
Mof_C 	C 	0.6097	0.592	0.0884	-0.145
Mof_H 	H 	0.5593	0.5903	0.0947	0.074
Mof_C 	C 	0.916	0.5898	0.9219	-0.146
Mof_H 	H 	0.9657	0.5857	0.9147	0.074
Mof_C 	C 	0.5298	0.3462	0.12	-0.143
Mof_H 	H 	0.5024	0.3579	0.0949	0.073
Mof_C 	C 	0.6408	0.3398	0.1625	-0.15
Mof_H 	H 	0.6903	0.3471	0.1673	0.075
Mof_C 	C 	0.6388	0.396	0.0962	0.056
Mof_C 	C 	0.756	0.5956	0.0665	0.074
Mof_H 	H 	0.8059	0.5973	0.0589	-0.02
Mof_C 	C 	0.6319	0.6089	0.4547	-0.154
Mof_H 	H 	0.6036	0.6323	0.4687	0.079
Mof_C 	C 	0.5729	0.637	0.182	-0.138
Mof_H 	H 	0.5609	0.6052	0.1822	0.072
Mof_C 	C 	0.6415	0.5627	0.0555	0.079
Mof_H 	H 	0.6115	0.5413	0.0399	-0.023
Mof_C 	C 	0.8031	0.6306	0.9146	-0.143
Mof_H 	H 	0.7745	0.6548	0.9023	0.074
Mof_C 	C 	0.605	0.3087	0.1922	0.086
Mof_H 	H 	0.6319	0.2956	0.2167	-0.025
Mof_C 	C 	0.9489	0.6327	0.8272	-0.136
Mof_H 	H 	0.9573	0.6004	0.8281	0.071
Mof_C 	C 	0.9767	0.6594	0.7909	0.068
Mof_H 	H 	0.0026	0.6444	0.7669	-0.02
Mof_C 	C 	0.6298	0.3963	0.0477	-0.147
Mof_H 	H 	0.6002	0.374	0.0329	0.076
Mof_C 	C 	0.5436	0.6668	0.215	0.071
Mof_H 	H 	0.5114	0.6548	0.2374	-0.019
Mof_C 	C 	0.9081	0.6543	0.8627	0.051
Mof_C 	C 	0.6329	0.7024	0.3122	0.071
Mof_H 	H 	0.6626	0.716	0.2893	-0.019
Mof_C 	C 	0.5469	0.6649	0.3805	-0.137
Mof_H 	H 	0.5168	0.6533	0.4043	0.072
Mof_C 	C 	0.6658	0.4305	0.0222	0.085
Mof_H 	H 	0.6609	0.4302	0.9897	-0.022
Mof_C 	C 	0.6879	0.5742	0.3881	-0.153
Mof_H 	H 	0.7	0.5743	0.3564	0.077
Mof_C 	C 	0.7142	0.4638	0.0883	0.074
Mof_H 	H 	0.7422	0.4873	0.1023	-0.02
Mof_C 	C 	0.6594	0.5725	0.4807	0.09
Mof_H 	H 	0.6505	0.5723	0.5129	-0.026
Mof_C 	C 	0.7109	0.5382	0.4161	0.084
Mof_H 	H 	0.7363	0.5133	0.4026	-0.025
Mof_Cu	Cu	0.01561	0.74352	0.73608	0.85
Mof_Cu	Cu	0.25824	0.98614	0.99691	0.849
Mof_N 	N 	0.4675	0.79336	0.21103	-0.238
Mof_N 	N 	0.0601	0.78653	0.78412	-0.241
Mof_N 	N 	0.2134	0.93611	0.95498	-0.241
Mof_N 	N 	0.0351	0.20338	0.81218	-0.246
Mof_N 	N 	0.3112	0.93612	0.03504	-0.243
Mof_N 	N 	0.0612	0.7844	0.68507	-0.237
Mof_N 	N 	0.1983	0.96264	0.53757	-0.246
Mof_N 	N 	0.2071	0.03639	0.95858	-0.243
Mof_C 	C 	0.1188	0.8503	0.6233	0.048
Mof_C 	C 	0.1029	0.1405	0.8739	0.059
Mof_C 	C 	0.1213	0.8448	0.8519	0.052
Mof_C 	C 	0.3984	0.7976	0.1397	-0.141
Mof_H 	H 	0.3714	0.7819	0.1167	0.074
Mof_C 	C 	0.0192	0.8028	0.651	0.07
Mof_H 	H 	0.9701	0.7935	0.6485	-0.017
Mof_C 	C 	0.3766	0.8747	0.0993	0.057
Mof_C 	C 	0.1536	0.8764	0.8881	0.057
Mof_C 	C 	0.1633	0.8302	0.6582	-0.135
Mof_H 	H 	0.2126	0.8389	0.6613	0.071
Mof_C 	C 	0.2279	0.8737	0.8999	-0.141
Mof_H 	H 	0.2585	0.8517	0.8856	0.072
Mof_C 	C 	0.1058	0.7695	0.8164	0.079
Mof_H 	H 	0.1155	0.7374	0.8165	-0.025
Mof_C 	C 	0.3817	0.9399	0.0462	0.084
Mof_H 	H 	0.4097	0.9634	0.0321	-0.024
Mof_C 	C 	0.1815	0.0698	0.8834	-0.143
Mof_H 	H 	0.1883	0.0692	0.851	0.074
Mof_C 	C 	0.1467	0.8896	0.5931	0.064
Mof_C 	C 	0.2733	0.9003	0.0534	0.077
Mof_H 	H 	0.2245	0.8961	0.0442	-0.021
Mof_C 	C 	0.4293	0.773	0.1767	0.079
Mof_H 	H 	0.423	0.7406	0.1776	-0.019
Mof_C 	C 	0.1396	0.7976	0.85	-0.142
Mof_H 	H 	0.1739	0.785	0.8707	0.075
Mof_C 	C 	0.9981	0.1848	0.8484	0.075
Mof_H 	H 	0.9488	0.1932	0.8525	-0.02
Mof_C 	C 	0.1097	0.908	0.9116	-0.145
Mof_H 	H 	0.0593	0.9097	0.9053	0.074
Mof_C 	C 	0.416	0.9102	0.0781	-0.146
Mof_H 	H 	0.4657	0.9143	0.0853	0.074
Mof_C 	C 	0.0298	0.1538	0.88	-0.143
Mof_H 	H 	0.0024	0.1421	0.9051	0.073
Mof_C 	C 	0.1408	0.1602	0.8375	-0.15
Mof_H 	H 	0.1903	0.1529	0.8327	0.075
Mof_C 	C 	0.1388	0.104	0.9038	0.056
Mof_C 	C 	0.256	0.9044	0.9335	0.074
Mof_H 	H 	0.3059	0.9027	0.9411	-0.02
Mof_C 	C 	0.1319	0.8911	0.5453	-0.155
Mof_H 	H 	0.1036	0.8677	0.5313	0.079
Mof_C 	C 	0.0729	0.863	0.818	-0.138
Mof_H 	H 	0.0609	0.8948	0.8178	0.072
Mof_C 	C 	0.1415	0.9373	0.9445	0.079
Mof_H 	H 	0.1115	0.9587	0.9601	-0.023
Mof_C 	C 	0.3031	0.8694	0.0854	-0.143
Mof_H 	H 	0.2745	0.8452	0.0977	0.074
Mof_C 	C 	0.105	0.1913	0.8078	0.086
Mof_H 	H 	0.1319	0.2044	0.7833	-0.025
Mof_C 	C 	0.4489	0.8673	0.1728	-0.135
Mof_H 	H 	0.4573	0.8996	0.1719	0.071
Mof_C 	C 	0.4767	0.8406	0.2091	0.067
Mof_H 	H 	0.5026	0.8556	0.2331	-0.019
Mof_C 	C 	0.1298	0.1037	0.9523	-0.148
Mof_H 	H 	0.1002	0.126	0.9671	0.076
Mof_C 	C 	0.0436	0.8332	0.785	0.071
Mof_H 	H 	0.0114	0.8452	0.7626	-0.019
Mof_C 	C 	0.4081	0.8457	0.1373	0.051
Mof_C 	C 	0.1329	0.7976	0.6878	0.071
Mof_H 	H 	0.1626	0.784	0.7107	-0.019
Mof_C 	C 	0.0469	0.8351	0.6195	-0.136
Mof_H 	H 	0.0168	0.8467	0.5957	0.071
Mof_C 	C 	0.1658	0.0695	0.9778	0.086
Mof_H 	H 	0.1609	0.0698	0.0103	-0.023
Mof_C 	C 	0.1879	0.9258	0.6119	-0.153
Mof_H 	H 	0.2	0.9257	0.6436	0.077
Mof_C 	C 	0.2142	0.0362	0.9117	0.074
Mof_H 	H 	0.2422	0.0127	0.8977	-0.02
Mof_C 	C 	0.1594	0.9275	0.5193	0.09
Mof_H 	H 	0.1505	0.9277	0.4871	-0.026
Mof_C 	C 	0.2109	0.9618	0.5839	0.084
Mof_H 	H 	0.2363	0.9867	0.5974	-0.025
Mof_Cu	Cu	0.48439	0.25648	0.23608	0.85
Mof_Cu	Cu	0.24176	0.01386	0.49691	0.85
Mof_N 	N 	0.0325	0.20664	0.71103	-0.238
Mof_N 	N 	0.4399	0.21347	0.28412	-0.241
Mof_N 	N 	0.2866	0.06389	0.45498	-0.241
Mof_N 	N 	0.4649	0.79662	0.31218	-0.247
Mof_N 	N 	0.1888	0.06388	0.53504	-0.243
Mof_N 	N 	0.4388	0.2156	0.18507	-0.237
Mof_N 	N 	0.3017	0.03736	0.03757	-0.245
Mof_N 	N 	0.2929	0.96361	0.45858	-0.243
Mof_C 	C 	0.3812	0.1497	0.1233	0.048
Mof_C 	C 	0.3971	0.8595	0.3739	0.059
Mof_C 	C 	0.3787	0.1552	0.3519	0.052
Mof_C 	C 	0.1016	0.2024	0.6397	-0.141
Mof_H 	H 	0.1286	0.2181	0.6167	0.074
Mof_C 	C 	0.4808	0.1972	0.151	0.071
Mof_H 	H 	0.5299	0.2065	0.1485	-0.018
Mof_C 	C 	0.1234	0.1253	0.5993	0.057
Mof_C 	C 	0.3464	0.1236	0.3881	0.057
Mof_C 	C 	0.3367	0.1698	0.1582	-0.136
Mof_H 	H 	0.2874	0.1611	0.1613	0.071
Mof_C 	C 	0.2721	0.1263	0.3999	-0.141
Mof_H 	H 	0.2415	0.1483	0.3856	0.073
Mof_C 	C 	0.3942	0.2305	0.3164	0.079
Mof_H 	H 	0.3845	0.2626	0.3165	-0.025
Mof_C 	C 	0.1183	0.0601	0.5462	0.084
Mof_H 	H 	0.0903	0.0366	0.5321	-0.024
Mof_C 	C 	0.3185	0.9302	0.3834	-0.143
Mof_H 	H 	0.3117	0.9308	0.351	0.074
Mof_C 	C 	0.3533	0.1104	0.0931	0.064
Mof_C 	C 	0.2267	0.0997	0.5534	0.077
Mof_H 	H 	0.2755	0.1039	0.5442	-0.021
Mof_C 	C 	0.0707	0.227	0.6767	0.079
Mof_H 	H 	0.077	0.2594	0.6776	-0.019
Mof_C 	C 	0.3604	0.2024	0.35	-0.142
Mof_H 	H 	0.3261	0.215	0.3707	0.075
Mof_C 	C 	0.5019	0.8152	0.3484	0.075
Mof_H 	H 	0.5512	0.8068	0.3525	-0.02
Mof_C 	C 	0.3903	0.092	0.4116	-0.145
Mof_H 	H 	0.4407	0.0903	0.4053	0.074
Mof_C 	C 	0.084	0.0898	0.5781	-0.146
Mof_H 	H 	0.0343	0.0857	0.5853	0.074
Mof_C 	C 	0.4702	0.8462	0.38	-0.143
Mof_H 	H 	0.4976	0.8579	0.4051	0.073
Mof_C 	C 	0.3592	0.8398	0.3375	-0.15
Mof_H 	H 	0.3097	0.8471	0.3327	0.075
Mof_C 	C 	0.3612	0.896	0.4038	0.056
Mof_C 	C 	0.244	0.0956	0.4335	0.074
Mof_H 	H 	0.1941	0.0973	0.4411	-0.019
Mof_C 	C 	0.3681	0.1089	0.0453	-0.154
Mof_H 	H 	0.3964	0.1323	0.0313	0.079
Mof_C 	C 	0.4271	0.137	0.318	-0.138
Mof_H 	H 	0.4391	0.1052	0.3178	0.072
Mof_C 	C 	0.3585	0.0627	0.4445	0.079
Mof_H 	H 	0.3885	0.0413	0.4601	-0.023
Mof_C 	C 	0.1969	0.1306	0.5854	-0.143
Mof_H 	H 	0.2255	0.1548	0.5977	0.074
Mof_C 	C 	0.395	0.8087	0.3078	0.086
Mof_H 	H 	0.3681	0.7956	0.2833	-0.025
Mof_C 	C 	0.0511	0.1327	0.6728	-0.135
Mof_H 	H 	0.0427	0.1004	0.6719	0.071
Mof_C 	C 	0.0233	0.1594	0.7091	0.067
Mof_H 	H 	0.9974	0.1444	0.7331	-0.02
Mof_C 	C 	0.3702	0.8963	0.4523	-0.148
Mof_H 	H 	0.3998	0.874	0.4671	0.076
Mof_C 	C 	0.4564	0.1668	0.285	0.071
Mof_H 	H 	0.4886	0.1548	0.2626	-0.019
Mof_C 	C 	0.0919	0.1543	0.6373	0.051
Mof_C 	C 	0.3671	0.2024	0.1878	0.071
Mof_H 	H 	0.3374	0.216	0.2107	-0.019
Mof_C 	C 	0.4531	0.1649	0.1195	-0.137
Mof_H 	H 	0.4832	0.1533	0.0957	0.072
Mof_C 	C 	0.3342	0.9305	0.4778	0.086
Mof_H 	H 	0.3391	0.9302	0.5103	-0.023
Mof_C 	C 	0.3121	0.0742	0.1119	-0.152
Mof_H 	H 	0.3	0.0743	0.1436	0.077
Mof_C 	C 	0.2858	0.9638	0.4117	0.074
Mof_H 	H 	0.2578	0.9873	0.3977	-0.02
Mof_C 	C 	0.3406	0.0725	0.0193	0.089
Mof_H 	H 	0.3495	0.0723	0.9871	-0.025
Mof_C 	C 	0.2891	0.0382	0.0839	0.084
Mof_H 	H 	0.2637	0.0133	0.0974	-0.025
Mof_Cu	Cu	0.01561	0.75648	0.23608	0.85
Mof_Cu	Cu	0.25824	0.51386	0.49691	0.85
Mof_N 	N 	0.4675	0.70664	0.71103	-0.238
Mof_N 	N 	0.0601	0.71347	0.28412	-0.241
Mof_N 	N 	0.2134	0.56389	0.45498	-0.241
Mof_N 	N 	0.0351	0.29662	0.31218	-0.246
Mof_N 	N 	0.3112	0.56388	0.53504	-0.243
Mof_N 	N 	0.0612	0.7156	0.18507	-0.237
Mof_N 	N 	0.1983	0.53736	0.03757	-0.246
Mof_N 	N 	0.2071	0.46361	0.45858	-0.243
Mof_C 	C 	0.1188	0.6497	0.1233	0.048
Mof_C 	C 	0.1029	0.3595	0.3739	0.058
Mof_C 	C 	0.1213	0.6552	0.3519	0.052
Mof_C 	C 	0.3984	0.7024	0.6397	-0.141
Mof_H 	H 	0.3714	0.7181	0.6167	0.074
Mof_C 	C 	0.0192	0.6972	0.151	0.072
Mof_H 	H 	0.9701	0.7065	0.1485	-0.018
Mof_C 	C 	0.3766	0.6253	0.5993	0.057
Mof_C 	C 	0.1536	0.6236	0.3881	0.057
Mof_C 	C 	0.1633	0.6698	0.1582	-0.136
Mof_H 	H 	0.2126	0.6611	0.1613	0.071
Mof_C 	C 	0.2279	0.6263	0.3999	-0.141
Mof_H 	H 	0.2585	0.6483	0.3856	0.073
Mof_C 	C 	0.1058	0.7305	0.3164	0.079
Mof_H 	H 	0.1155	0.7626	0.3165	-0.025
Mof_C 	C 	0.3817	0.5601	0.5462	0.084
Mof_H 	H 	0.4097	0.5366	0.5321	-0.025
Mof_C 	C 	0.1815	0.4302	0.3834	-0.143
Mof_H 	H 	0.1883	0.4308	0.351	0.074
Mof_C 	C 	0.1467	0.6104	0.0931	0.065
Mof_C 	C 	0.2733	0.5997	0.5534	0.077
Mof_H 	H 	0.2245	0.6039	0.5442	-0.021
Mof_C 	C 	0.4293	0.727	0.6767	0.079
Mof_H 	H 	0.423	0.7594	0.6776	-0.019
Mof_C 	C 	0.1396	0.7024	0.35	-0.142
Mof_H 	H 	0.1739	0.715	0.3707	0.075
Mof_C 	C 	0.9981	0.3152	0.3484	0.074
Mof_H 	H 	0.9488	0.3068	0.3525	-0.02
Mof_C 	C 	0.1097	0.592	0.4116	-0.145
Mof_H 	H 	0.0593	0.5903	0.4053	0.074
Mof_C 	C 	0.416	0.5898	0.5781	-0.147
Mof_H 	H 	0.4657	0.5857	0.5853	0.074
Mof_C 	C 	0.0298	0.3462	0.38	-0.141
Mof_H 	H 	0.0024	0.3579	0.4051	0.072
Mof_C 	C 	0.1408	0.3398	0.3375	-0.15
Mof_H 	H 	0.1903	0.3471	0.3327	0.075
Mof_C 	C 	0.1388	0.396	0.4038	0.056
Mof_C 	C 	0.256	0.5956	0.4335	0.074
Mof_H 	H 	0.3059	0.5973	0.4411	-0.02
Mof_C 	C 	0.1319	0.6089	0.0453	-0.155
Mof_H 	H 	0.1036	0.6323	0.0313	0.08
Mof_C 	C 	0.0729	0.637	0.318	-0.138
Mof_H 	H 	0.0609	0.6052	0.3178	0.072
Mof_C 	C 	0.1415	0.5627	0.4445	0.079
Mof_H 	H 	0.1115	0.5413	0.4601	-0.023
Mof_C 	C 	0.3031	0.6306	0.5854	-0.143
Mof_H 	H 	0.2745	0.6548	0.5977	0.074
Mof_C 	C 	0.105	0.3087	0.3078	0.086
Mof_H 	H 	0.1319	0.2956	0.2833	-0.025
Mof_C 	C 	0.4489	0.6327	0.6728	-0.135
Mof_H 	H 	0.4573	0.6004	0.6719	0.071
Mof_C 	C 	0.4767	0.6594	0.7091	0.067
Mof_H 	H 	0.5026	0.6444	0.7331	-0.019
Mof_C 	C 	0.1298	0.3963	0.4523	-0.148
Mof_H 	H 	0.1002	0.374	0.4671	0.076
Mof_C 	C 	0.0436	0.6668	0.285	0.071
Mof_H 	H 	0.0114	0.6548	0.2626	-0.019
Mof_C 	C 	0.4081	0.6543	0.6373	0.051
Mof_C 	C 	0.1329	0.7024	0.1878	0.071
Mof_H 	H 	0.1626	0.716	0.2107	-0.019
Mof_C 	C 	0.0469	0.6649	0.1195	-0.137
Mof_H 	H 	0.0168	0.6533	0.0957	0.072
Mof_C 	C 	0.1658	0.4305	0.4778	0.086
Mof_H 	H 	0.1609	0.4302	0.5103	-0.023
Mof_C 	C 	0.1879	0.5742	0.1119	-0.153
Mof_H 	H 	0.2	0.5743	0.1436	0.077
Mof_C 	C 	0.2142	0.4638	0.4117	0.074
Mof_H 	H 	0.2422	0.4873	0.3977	-0.021
Mof_C 	C 	0.1594	0.5725	0.0193	0.091
Mof_H 	H 	0.1505	0.5723	0.9871	-0.027
Mof_C 	C 	0.2109	0.5382	0.0839	0.084
Mof_H 	H 	0.2363	0.5133	0.0974	-0.025
Mof_Cu	Cu	0.48439	0.24352	0.73608	0.85
Mof_Cu	Cu	0.24176	0.48614	0.99691	0.85
Mof_N 	N 	0.0325	0.29336	0.21103	-0.238
Mof_N 	N 	0.4399	0.28653	0.78412	-0.241
Mof_N 	N 	0.2866	0.43611	0.95498	-0.241
Mof_N 	N 	0.4649	0.70338	0.81218	-0.247
Mof_N 	N 	0.1888	0.43612	0.03504	-0.243
Mof_N 	N 	0.4388	0.2844	0.68507	-0.237
Mof_N 	N 	0.3017	0.46264	0.53757	-0.246
Mof_N 	N 	0.2929	0.53639	0.95858	-0.243
Mof_C 	C 	0.3812	0.3503	0.6233	0.048
Mof_C 	C 	0.3971	0.6405	0.8739	0.059
Mof_C 	C 	0.3787	0.3448	0.8519	0.052
Mof_C 	C 	0.1016	0.2976	0.1397	-0.142
Mof_H 	H 	0.1286	0.2819	0.1167	0.074
Mof_C 	C 	0.4808	0.3028	0.651	0.071
Mof_H 	H 	0.5299	0.2935	0.6485	-0.018
Mof_C 	C 	0.1234	0.3747	0.0993	0.057
Mof_C 	C 	0.3464	0.3764	0.8881	0.057
Mof_C 	C 	0.3367	0.3302	0.6582	-0.136
Mof_H 	H 	0.2874	0.3389	0.6613	0.071
Mof_C 	C 	0.2721	0.3737	0.8999	-0.141
Mof_H 	H 	0.2415	0.3517	0.8856	0.073
Mof_C 	C 	0.3942	0.2695	0.8164	0.079
Mof_H 	H 	0.3845	0.2374	0.8165	-0.025
Mof_C 	C 	0.1183	0.4399	0.0462	0.084
Mof_H 	H 	0.0903	0.4634	0.0321	-0.024
Mof_C 	C 	0.3185	0.5698	0.8834	-0.142
Mof_H 	H 	0.3117	0.5692	0.851	0.073
Mof_C 	C 	0.3533	0.3896	0.5931	0.064
Mof_C 	C 	0.2267	0.4003	0.0534	0.077
Mof_H 	H 	0.2755	0.3961	0.0442	-0.021
Mof_C 	C 	0.0707	0.273	0.1767	0.08
Mof_H 	H 	0.077	0.2406	0.1776	-0.019
Mof_C 	C 	0.3604	0.2976	0.85	-0.142
Mof_H 	H 	0.3261	0.285	0.8707	0.075
Mof_C 	C 	0.5019	0.6848	0.8484	0.075
Mof_H 	H 	0.5512	0.6932	0.8525	-0.02
Mof_C 	C 	0.3903	0.408	0.9116	-0.145
Mof_H 	H 	0.4407	0.4097	0.9053	0.074
Mof_C 	C 	0.084	0.4102	0.0781	-0.146
Mof_H 	H 	0.0343	0.4143	0.0853	0.074
Mof_C 	C 	0.4702	0.6538	0.88	-0.143
Mof_H 	H 	0.4976	0.6421	0.9051	0.073
Mof_C 	C 	0.3592	0.6602	0.8375	-0.15
Mof_H 	H 	0.3097	0.6529	0.8327	0.075
Mof_C 	C 	0.3612	0.604	0.9038	0.056
Mof_C 	C 	0.244	0.4044	0.9335	0.074
Mof_H 	H 	0.1941	0.4027	0.9411	-0.02
Mof_C 	C 	0.3681	0.3911	0.5453	-0.154
Mof_H 	H 	0.3964	0.3677	0.5313	0.079
Mof_C 	C 	0.4271	0.363	0.818	-0.138
Mof_H 	H 	0.4391	0.3948	0.8178	0.072
Mof_C 	C 	0.3585	0.4373	0.9445	0.079
Mof_H 	H 	0.3885	0.4587	0.9601	-0.023
Mof_C 	C 	0.1969	0.3694	0.0854	-0.143
Mof_H 	H 	0.2255	0.3452	0.0977	0.074
Mof_C 	C 	0.395	0.6913	0.8078	0.086
Mof_H 	H 	0.3681	0.7044	0.7833	-0.025
Mof_C 	C 	0.0511	0.3673	0.1728	-0.136
Mof_H 	H 	0.0427	0.3996	0.1719	0.071
Mof_C 	C 	0.0233	0.3406	0.2091	0.068
Mof_H 	H 	0.9974	0.3556	0.2331	-0.02
Mof_C 	C 	0.3702	0.6037	0.9523	-0.147
Mof_H 	H 	0.3998	0.626	0.9671	0.076
Mof_C 	C 	0.4564	0.3332	0.785	0.071
Mof_H 	H 	0.4886	0.3452	0.7626	-0.019
Mof_C 	C 	0.0919	0.3457	0.1373	0.051
Mof_C 	C 	0.3671	0.2976	0.6878	0.071
Mof_H 	H 	0.3374	0.284	0.7107	-0.019
Mof_C 	C 	0.4531	0.3351	0.6195	-0.137
Mof_H 	H 	0.4832	0.3467	0.5957	0.072
Mof_C 	C 	0.3342	0.5695	0.9778	0.085
Mof_H 	H 	0.3391	0.5698	0.0103	-0.022
Mof_C 	C 	0.3121	0.4258	0.6119	-0.153
Mof_H 	H 	0.3	0.4257	0.6436	0.077
Mof_C 	C 	0.2858	0.5362	0.9117	0.074
Mof_H 	H 	0.2578	0.5127	0.8977	-0.02
Mof_C 	C 	0.3406	0.4275	0.5193	0.09
Mof_H 	H 	0.3495	0.4277	0.4871	-0.026
Mof_C 	C 	0.2891	0.4618	0.5839	0.084
Mof_H 	H 	0.2637	0.4867	0.5974	-0.025
Mof_Cu	Cu	0.98439	0.25648	0.26392	0.85
Mof_Cu	Cu	0.74176	0.01386	0.00309	0.849
Mof_N 	N 	0.5325	0.20664	0.78897	-0.238
Mof_N 	N 	0.9399	0.21347	0.21588	-0.241
Mof_N 	N 	0.7866	0.06389	0.04502	-0.241
Mof_N 	N 	0.9649	0.79662	0.18782	-0.246
Mof_N 	N 	0.6888	0.06388	0.96496	-0.243
Mof_N 	N 	0.9388	0.2156	0.31493	-0.237
Mof_N 	N 	0.8017	0.03736	0.46243	-0.246
Mof_N 	N 	0.7929	0.96361	0.04142	-0.243
Mof_C 	C 	0.8812	0.1497	0.3767	0.048
Mof_C 	C 	0.8971	0.8595	0.1261	0.059
Mof_C 	C 	0.8787	0.1552	0.1481	0.052
Mof_C 	C 	0.6016	0.2024	0.8603	-0.141
Mof_H 	H 	0.6286	0.2181	0.8833	0.074
Mof_C 	C 	0.9808	0.1972	0.349	0.07
Mof_H 	H 	0.0299	0.2065	0.3515	-0.017
Mof_C 	C 	0.6234	0.1253	0.9007	0.057
Mof_C 	C 	0.8464	0.1236	0.1119	0.057
Mof_C 	C 	0.8367	0.1698	0.3418	-0.135
Mof_H 	H 	0.7874	0.1611	0.3387	0.071
Mof_C 	C 	0.7721	0.1263	0.1001	-0.141
Mof_H 	H 	0.7415	0.1483	0.1144	0.072
Mof_C 	C 	0.8942	0.2305	0.1836	0.079
Mof_H 	H 	0.8845	0.2626	0.1835	-0.025
Mof_C 	C 	0.6183	0.0601	0.9538	0.084
Mof_H 	H 	0.5903	0.0366	0.9679	-0.024
Mof_C 	C 	0.8185	0.9302	0.1166	-0.143
Mof_H 	H 	0.8117	0.9308	0.149	0.074
Mof_C 	C 	0.8533	0.1104	0.4069	0.064
Mof_C 	C 	0.7267	0.0997	0.9466	0.077
Mof_H 	H 	0.7755	0.1039	0.9558	-0.021
Mof_C 	C 	0.5707	0.227	0.8233	0.079
Mof_H 	H 	0.577	0.2594	0.8224	-0.019
Mof_C 	C 	0.8604	0.2024	0.15	-0.142
Mof_H 	H 	0.8261	0.215	0.1293	0.075
Mof_C 	C 	0.0019	0.8152	0.1516	0.075
Mof_H 	H 	0.0512	0.8068	0.1475	-0.02
Mof_C 	C 	0.8903	0.092	0.0884	-0.145
Mof_H 	H 	0.9407	0.0903	0.0947	0.074
Mof_C 	C 	0.584	0.0898	0.9219	-0.146
Mof_H 	H 	0.5343	0.0857	0.9147	0.074
Mof_C 	C 	0.9702	0.8462	0.12	-0.143
Mof_H 	H 	0.9976	0.8579	0.0949	0.073
Mof_C 	C 	0.8592	0.8398	0.1625	-0.15
Mof_H 	H 	0.8097	0.8471	0.1673	0.075
Mof_C 	C 	0.8612	0.896	0.0962	0.056
Mof_C 	C 	0.744	0.0956	0.0665	0.074
Mof_H 	H 	0.6941	0.0973	0.0589	-0.02
Mof_C 	C 	0.8681	0.1089	0.4547	-0.155
Mof_H 	H 	0.8964	0.1323	0.4687	0.079
Mof_C 	C 	0.9271	0.137	0.182	-0.138
Mof_H 	H 	0.9391	0.1052	0.1822	0.072
Mof_C 	C 	0.8585	0.0627	0.0555	0.079
Mof_H 	H 	0.8885	0.0413	0.0399	-0.023
Mof_C 	C 	0.6969	0.1306	0.9146	-0.143
Mof_H 	H 	0.7255	0.1548	0.9023	0.074
Mof_C 	C 	0.895	0.8087	0.1922	0.086
Mof_H 	H 	0.8681	0.7956	0.2167	-0.025
Mof_C 	C 	0.5511	0.1327	0.8272	-0.135
Mof_H 	H 	0.5427	0.1004	0.8281	0.071
Mof_C 	C 	0.5233	0.1594	0.7909	0.067
Mof_H 	H 	0.4974	0.1444	0.7669	-0.019
Mof_C 	C 	0.8702	0.8963	0.0477	-0.148
Mof_H 	H 	0.8998	0.874	0.0329	0.076
Mof_C 	C 	0.9564	0.1668	0.215	0.071
Mof_H 	H 	0.9886	0.1548	0.2374	-0.019
Mof_C 	C 	0.5919	0.1543	0.8627	0.051
Mof_C 	C 	0.8671	0.2024	0.3122	0.071
Mof_H 	H 	0.8374	0.216	0.2893	-0.019
Mof_C 	C 	0.9531	0.1649	0.3805	-0.136
Mof_H 	H 	0.9832	0.1533	0.4043	0.071
Mof_C 	C 	0.8342	0.9305	0.0222	0.086
Mof_H 	H 	0.8391	0.9302	0.9897	-0.023
Mof_C 	C 	0.8121	0.0742	0.3881	-0.153
Mof_H 	H 	0.8	0.0743	0.3564	0.077
Mof_C 	C 	0.7858	0.9638	0.0883	0.074
Mof_H 	H 	0.7578	0.9873	0.1023	-0.02
Mof_C 	C 	0.8406	0.0725	0.4807	0.09
Mof_H 	H 	0.8495	0.0723	0.5129	-0.026
Mof_C 	C 	0.7891	0.0382	0.4161	0.084
Mof_H 	H 	0.7637	0.0133	0.4026	-0.025
Mof_Cu	Cu	0.51561	0.74352	0.76392	0.85
Mof_Cu	Cu	0.75824	0.98614	0.50309	0.85
Mof_N 	N 	0.9675	0.79336	0.28897	-0.238
Mof_N 	N 	0.5601	0.78653	0.71588	-0.241
Mof_N 	N 	0.7134	0.93611	0.54502	-0.241
Mof_N 	N 	0.5351	0.20338	0.68782	-0.247
Mof_N 	N 	0.8112	0.93612	0.46496	-0.243
Mof_N 	N 	0.5612	0.7844	0.81493	-0.237
Mof_N 	N 	0.6983	0.96264	0.96243	-0.245
Mof_N 	N 	0.7071	0.03639	0.54142	-0.243
Mof_C 	C 	0.6188	0.8503	0.8767	0.048
Mof_C 	C 	0.6029	0.1405	0.6261	0.059
Mof_C 	C 	0.6213	0.8448	0.6481	0.052
Mof_C 	C 	0.8984	0.7976	0.3603	-0.141
Mof_H 	H 	0.8714	0.7819	0.3833	0.074
Mof_C 	C 	0.5192	0.8028	0.849	0.071
Mof_H 	H 	0.4701	0.7935	0.8515	-0.018
Mof_C 	C 	0.8766	0.8747	0.4007	0.057
Mof_C 	C 	0.6536	0.8764	0.6119	0.057
Mof_C 	C 	0.6633	0.8302	0.8418	-0.136
Mof_H 	H 	0.7126	0.8389	0.8387	0.071
Mof_C 	C 	0.7279	0.8737	0.6001	-0.141
Mof_H 	H 	0.7585	0.8517	0.6144	0.073
Mof_C 	C 	0.6058	0.7695	0.6836	0.079
Mof_H 	H 	0.6155	0.7374	0.6835	-0.025
Mof_C 	C 	0.8817	0.9399	0.4538	0.084
Mof_H 	H 	0.9097	0.9634	0.4679	-0.024
Mof_C 	C 	0.6815	0.0698	0.6166	-0.143
Mof_H 	H 	0.6883	0.0692	0.649	0.074
Mof_C 	C 	0.6467	0.8896	0.9069	0.064
Mof_C 	C 	0.7733	0.9003	0.4466	0.077
Mof_H 	H 	0.7245	0.8961	0.4558	-0.021
Mof_C 	C 	0.9293	0.773	0.3233	0.079
Mof_H 	H 	0.923	0.7406	0.3224	-0.019
Mof_C 	C 	0.6396	0.7976	0.65	-0.142
Mof_H 	H 	0.6739	0.785	0.6293	0.075
Mof_C 	C 	0.4981	0.1848	0.6516	0.075
Mof_H 	H 	0.4488	0.1932	0.6475	-0.02
Mof_C 	C 	0.6097	0.908	0.5884	-0.145
Mof_H 	H 	0.5593	0.9097	0.5947	0.074
Mof_C 	C 	0.916	0.9102	0.4219	-0.146
Mof_H 	H 	0.9657	0.9143	0.4147	0.074
Mof_C 	C 	0.5298	0.1538	0.62	-0.143
Mof_H 	H 	0.5024	0.1421	0.5949	0.073
Mof_C 	C 	0.6408	0.1602	0.6625	-0.15
Mof_H 	H 	0.6903	0.1529	0.6673	0.075
Mof_C 	C 	0.6388	0.104	0.5962	0.056
Mof_C 	C 	0.756	0.9044	0.5665	0.074
Mof_H 	H 	0.8059	0.9027	0.5589	-0.019
Mof_C 	C 	0.6319	0.8911	0.9547	-0.154
Mof_H 	H 	0.6036	0.8677	0.9687	0.079
Mof_C 	C 	0.5729	0.863	0.682	-0.138
Mof_H 	H 	0.5609	0.8948	0.6822	0.072
Mof_C 	C 	0.6415	0.9373	0.5555	0.079
Mof_H 	H 	0.6115	0.9587	0.5399	-0.023
Mof_C 	C 	0.8031	0.8694	0.4146	-0.143
Mof_H 	H 	0.7745	0.8452	0.4023	0.074
Mof_C 	C 	0.605	0.1913	0.6922	0.086
Mof_H 	H 	0.6319	0.2044	0.7167	-0.025
Mof_C 	C 	0.9489	0.8673	0.3272	-0.135
Mof_H 	H 	0.9573	0.8996	0.3281	0.071
Mof_C 	C 	0.9767	0.8406	0.2909	0.067
Mof_H 	H 	0.0026	0.8556	0.2669	-0.02
Mof_C 	C 	0.6298	0.1037	0.5477	-0.148
Mof_H 	H 	0.6002	0.126	0.5329	0.076
Mof_C 	C 	0.5436	0.8332	0.715	0.071
Mof_H 	H 	0.5114	0.8452	0.7374	-0.019
Mof_C 	C 	0.9081	0.8457	0.3627	0.051
Mof_C 	C 	0.6329	0.7976	0.8122	0.071
Mof_H 	H 	0.6626	0.784	0.7893	-0.019
Mof_C 	C 	0.5469	0.8351	0.8805	-0.137
Mof_H 	H 	0.5168	0.8467	0.9043	0.072
Mof_C 	C 	0.6658	0.0695	0.5222	0.086
Mof_H 	H 	0.6609	0.0698	0.4897	-0.023
Mof_C 	C 	0.6879	0.9258	0.8881	-0.152
Mof_H 	H 	0.7	0.9257	0.8564	0.077
Mof_C 	C 	0.7142	0.0362	0.5883	0.074
Mof_H 	H 	0.7422	0.0127	0.6023	-0.02
Mof_C 	C 	0.6594	0.9275	0.9807	0.089
Mof_H 	H 	0.6505	0.9277	0.0129	-0.025
Mof_C 	C 	0.7109	0.9618	0.9161	0.084
Mof_H 	H 	0.7363	0.9867	0.9026	-0.025
_end
