data_functionalizedCrystal
_audit_creation_method	'EQeq! by Chris Wilmer'
_symmetry_space_group_name_H-M	'P1'
_symmetry_Int_Tables_number	1
_symmetry_cell_setting	triclinic
loop_
_symmetry_equiv_pos_as_xyz
  x,y,z
_cell_length_a	6.718
_cell_length_b	13.507
_cell_length_c	15.229
_cell_angle_alpha	90
_cell_angle_beta	90
_cell_angle_gamma	90
loop_
_atom_site_label
_atom_site_type_symbol
_atom_site_fract_x
_atom_site_fract_y
_atom_site_fract_z
_atom_site_charge
Mof_Cd	Cd	0.63223	0.19377	0.46847	0.469
Mof_Cd	Cd	0.13223	0.30623	0.53153	0.468
Mof_Cd	Cd	0.86777	0.80623	0.96847	0.467
Mof_Cd	Cd	0.36777	0.69377	0.03153	0.468
Mof_H 	H 	0.3714	0.1862	0.0487	0.042
Mof_H 	H 	0.8431	0.2382	0.2072	0.076
Mof_H 	H 	0.1569	0.7382	0.2928	0.074
Mof_H 	H 	0.342	0.8392	0.7531	0.049
Mof_H 	H 	0.658	0.3392	0.7469	0.049
Mof_H 	H 	0.8595	0.1926	0.0622	0.043
Mof_H 	H 	0.8714	0.3138	0.9513	0.042
Mof_H 	H 	0.3431	0.2618	0.7928	0.074
Mof_H 	H 	0.1286	0.8138	0.5487	0.042
Mof_H 	H 	0.1308	0.9792	0.5131	0.074
Mof_H 	H 	0.6405	0.8074	0.5622	0.043
Mof_H 	H 	0.6317	0.4591	0.8576	0.047
Mof_H 	H 	0.6286	0.6862	0.4513	0.043
Mof_H 	H 	0.3683	0.9591	0.6424	0.048
Mof_H 	H 	0.8692	0.4792	0.9869	0.073
Mof_H 	H 	0.1405	0.6926	0.4378	0.043
Mof_H 	H 	0.158	0.1608	0.2531	0.049
Mof_H 	H 	0.6308	0.5208	0.4869	0.074
Mof_H 	H 	0.1317	0.0409	0.1424	0.047
Mof_H 	H 	0.842	0.6608	0.2469	0.05
Mof_H 	H 	0.6569	0.7618	0.7072	0.075
Mof_H 	H 	0.3595	0.3074	0.9378	0.044
Mof_H 	H 	0.3692	0.0208	0.0131	0.073
Mof_H 	H 	0.8683	0.5409	0.3576	0.047
Mof_C 	C 	0.8593	0.2608	0.0775	-0.025
Mof_C 	C 	0.6335	0.5688	0.5325	-0.073
Mof_C 	C 	0.852	0.288	0.1634	-0.074
Mof_C 	C 	0.3566	0.9351	0.8549	-0.078
Mof_C 	C 	0.3578	0.0789	0.7216	-0.075
Mof_C 	C 	0.6426	0.6104	0.6896	0.043
Mof_C 	C 	0.8665	0.4312	0.0325	-0.072
Mof_C 	C 	0.1442	0.8509	0.1435	0.317
Mof_C 	C 	0.1335	0.9312	0.4675	-0.074
Mof_C 	C 	0.6374	0.5366	0.6216	0.038
Mof_C 	C 	0.8578	0.4211	0.2784	-0.076
Mof_C 	C 	0.8603	0.5206	0.298	-0.015
Mof_C 	C 	0.6442	0.6491	0.8565	0.317
Mof_C 	C 	0.8596	0.6464	0.0776	0.293
Mof_C 	C 	0.8574	0.3896	0.1896	0.043
Mof_C 	C 	0.148	0.788	0.3366	-0.074
Mof_C 	C 	0.1335	0.8333	0.4888	-0.024
Mof_C 	C 	0.6404	0.3536	0.5776	0.293
Mof_C 	C 	0.6434	0.4351	0.6451	-0.077
Mof_C 	C 	0.1404	0.1464	0.4224	0.294
Mof_C 	C 	0.352	0.212	0.8366	-0.073
Mof_C 	C 	0.1374	0.9634	0.3784	0.039
Mof_C 	C 	0.6407	0.7392	0.5775	-0.025
Mof_C 	C 	0.3665	0.1667	0.9888	-0.023
Mof_C 	C 	0.3603	0.9794	0.702	-0.016
Mof_C 	C 	0.8515	0.5927	0.2317	-0.019
Mof_C 	C 	0.1407	0.7608	0.4225	-0.025
Mof_C 	C 	0.3574	0.1104	0.8104	0.042
Mof_C 	C 	0.8626	0.4634	0.1216	0.037
Mof_C 	C 	0.8558	0.3509	0.3565	0.317
Mof_C 	C 	0.6422	0.5789	0.7784	-0.076
Mof_C 	C 	0.1422	0.9211	0.2216	-0.075
Mof_C 	C 	0.3558	0.1491	0.6435	0.317
Mof_C 	C 	0.1426	0.8896	0.3104	0.042
Mof_C 	C 	0.6335	0.6667	0.5112	-0.025
Mof_C 	C 	0.1485	0.0927	0.2683	-0.018
Mof_C 	C 	0.3515	0.9073	0.7683	-0.018
Mof_C 	C 	0.3593	0.2392	0.9225	-0.026
Mof_C 	C 	0.8665	0.3333	0.0112	-0.025
Mof_C 	C 	0.648	0.712	0.6634	-0.074
Mof_C 	C 	0.3626	0.0366	0.8784	0.039
Mof_C 	C 	0.8566	0.5649	0.1451	-0.076
Mof_C 	C 	0.6397	0.4794	0.798	-0.015
Mof_C 	C 	0.3596	0.8536	0.9224	0.294
Mof_C 	C 	0.6485	0.4073	0.7317	-0.019
Mof_C 	C 	0.3665	0.0688	0.9675	-0.072
Mof_C 	C 	0.1434	0.0649	0.3549	-0.078
Mof_C 	C 	0.1397	0.0206	0.202	-0.017
Mof_O 	O 	0.7281	0.7138	0.0846	-0.27
Mof_O 	O 	0.0083	0.1478	0.4811	-0.274
Mof_O 	O 	0.2484	0.7738	0.1492	-0.281
Mof_O 	O 	0.9529	0.3788	0.4232	-0.281
Mof_O 	O 	0.2516	0.2262	0.6492	-0.281
Mof_O 	O 	0.0471	0.8788	0.0768	-0.281
Mof_O 	O 	0.2719	0.2138	0.4154	-0.271
Mof_O 	O 	0.4917	0.8522	0.9811	-0.274
Mof_O 	O 	0.7484	0.7262	0.8508	-0.282
Mof_O 	O 	0.2281	0.7862	0.9154	-0.27
Mof_O 	O 	0.7719	0.2862	0.5846	-0.271
Mof_O 	O 	0.7516	0.2738	0.3508	-0.281
Mof_O 	O 	0.9917	0.6478	0.0189	-0.273
Mof_O 	O 	0.4529	0.1212	0.5768	-0.281
Mof_O 	O 	0.5083	0.3522	0.5189	-0.274
Mof_O 	O 	0.5471	0.6212	0.9232	-0.281
_end
