data_functionalizedCrystal
_audit_creation_method	'EQeq! by Chris Wilmer'
_symmetry_space_group_name_H-M	'P1'
_symmetry_Int_Tables_number	1
_symmetry_cell_setting	triclinic
loop_
_symmetry_equiv_pos_as_xyz
  x,y,z
_cell_length_a	6.87
_cell_length_b	13.86
_cell_length_c	17.71
_cell_angle_alpha	88.64
_cell_angle_beta	79.67
_cell_angle_gamma	84.36
loop_
_atom_site_label
_atom_site_type_symbol
_atom_site_fract_x
_atom_site_fract_y
_atom_site_fract_z
_atom_site_charge
Mof_Sm	Sm	0.70389	0.63421	0.45206	2.208
Mof_Sm	Sm	0.33133	0.36795	0.94717	2.154
Mof_O 	O 	0.0603	0.2589	0.9627	-0.452
Mof_O 	O 	0.353	0.1884	0.9705	-0.462
Mof_O 	O 	0.9703	0.7404	0.4685	-0.446
Mof_O 	O 	0.6632	0.8083	0.4923	-0.469
Mof_O 	O 	0.4203	0.6152	0.5502	-0.587
Mof_O 	O 	0.3901	0.4867	0.6252	-0.599
Mof_O 	O 	0.456	0.5147	0.9034	-0.648
Mof_O 	O 	0.4899	0.6583	0.9468	-0.566
Mof_O 	O 	0.872	0.551	0.954	0.25
Mof_O 	O 	0.0735	0.4446	0.8811	-0.553
Mof_O 	O 	0.9853	0.4475	0.6033	-0.583
Mof_O 	O 	0.8158	0.5779	0.5621	-0.587
Mof_N 	N 	0.326	0.1076	0.7157	-0.174
Mof_N 	N 	0.8	0.0475	0.7587	-0.156
Mof_C 	C 	0.405	0.5758	0.6152	0.527
Mof_C 	C 	0.457	0.6036	0.896	0.555
Mof_C 	C 	0.388	0.7382	0.679	0.097
Mof_H 	H 	0.3823	0.7674	0.6315	-0.005
Mof_C 	C 	0.084	0.0885	0.9873	-0.068
Mof_C 	C 	0.87	0.0846	0.5034	-0.026
Mof_H 	H 	0.7839	0.1409	0.5051	0.035
Mof_C 	C 	0.884	0.736	0.7559	-0.117
Mof_C 	C 	0.38	0.7961	0.7424	-0.115
Mof_C 	C 	0.802	0.9944	0.4982	-0.031
Mof_H 	H 	0.668	0.9908	0.4976	0.048
Mof_C 	C 	0.91	0.6818	0.8201	0.099
Mof_H 	H 	0.9082	0.7134	0.866	0.005
Mof_C 	C 	0.969	0.5234	0.8884	0.478
Mof_C 	C 	0.421	0.6481	0.8193	-0.225
Mof_C 	C 	0.859	0.843	0.7585	0.139
Mof_C 	C 	0.926	0.911	0.494	-0.064
Mof_C 	C 	0.398	0.7513	0.8136	0.087
Mof_H 	H 	0.3951	0.7889	0.8567	0.01
Mof_C 	C 	0.91	0.5852	0.6849	-0.226
Mof_C 	C 	0.441	0.9479	0.6653	-0.185
Mof_H 	H 	0.5053	0.9104	0.6236	0.104
Mof_C 	C 	0.272	0.9615	0.7927	-0.174
Mof_H 	H 	0.2198	0.9345	0.8396	0.098
Mof_C 	C 	0.367	0.9022	0.735	0.141
Mof_C 	C 	0.406	0.6362	0.6846	-0.227
Mof_C 	C 	0.421	0.0461	0.6584	0.101
Mof_H 	H 	0.4749	0.0733	0.6117	-0.014
Mof_C 	C 	0.885	0.6864	0.6866	0.096
Mof_H 	H 	0.8679	0.7212	0.6424	-0.002
Mof_C 	C 	0.907	0.5334	0.6098	0.54
Mof_C 	C 	0.949	0.5315	0.7485	0.141
Mof_H 	H 	0.9808	0.4647	0.7452	-0.046
Mof_C 	C 	0.764	0.8932	0.8246	-0.181
Mof_H 	H 	0.7216	0.8601	0.8699	0.101
Mof_C 	C 	0.875	0.0858	0.9963	-0.027
Mof_H 	H 	0.7914	0.1422	0.9938	0.044
Mof_C 	C 	0.17	0.185	0.9717	0.321
Mof_C 	C 	0.2	0.0046	0.9909	-0.029
Mof_H 	H 	0.337	0.007	0.9846	0.05
Mof_C 	C 	0.939	0.5804	0.8184	-0.21
Mof_C 	C 	0.847	0.8139	0.4836	0.302
Mof_C 	C 	0.893	0.9995	0.6984	0.108
Mof_H 	H 	0.9425	0.0349	0.6552	-0.003
Mof_C 	C 	0.421	0.5923	0.7561	0.171
Mof_H 	H 	0.4311	0.5251	0.7607	-0.047
Mof_C 	C 	0.922	0.8978	0.6942	-0.183
Mof_H 	H 	0.9841	0.8677	0.6486	0.1
Mof_C 	C 	0.251	0.0658	0.7831	0.087
Mof_H 	H 	0.186	0.1046	0.8238	-0.014
Mof_C 	C 	0.735	0.9937	0.8212	0.1
Mof_H 	H 	0.6658	0.0262	0.8647	-0.003
Mof_O 	O 	0.918	0.578	0.949	-0.794
Mof_Sm	Sm	0.29611	0.36579	0.54794	2.209
Mof_Sm	Sm	0.66867	0.63205	0.05283	2.155
Mof_O 	O 	0.9397	0.7411	0.0373	-0.452
Mof_O 	O 	0.647	0.8116	0.0295	-0.462
Mof_O 	O 	0.0297	0.2596	0.5315	-0.446
Mof_O 	O 	0.3368	0.1917	0.5077	-0.469
Mof_O 	O 	0.5797	0.3848	0.4498	-0.587
Mof_O 	O 	0.6099	0.5133	0.3748	-0.599
Mof_O 	O 	0.544	0.4853	0.0966	-0.648
Mof_O 	O 	0.5101	0.3417	0.0532	-0.566
Mof_O 	O 	0.128	0.449	0.046	0.25
Mof_O 	O 	0.9265	0.5554	0.1189	-0.553
Mof_O 	O 	0.0147	0.5525	0.3967	-0.583
Mof_O 	O 	0.1842	0.4221	0.4379	-0.587
Mof_N 	N 	0.674	0.8924	0.2843	-0.174
Mof_N 	N 	0.2	0.9525	0.2413	-0.156
Mof_C 	C 	0.595	0.4242	0.3848	0.527
Mof_C 	C 	0.543	0.3964	0.104	0.555
Mof_C 	C 	0.612	0.2618	0.321	0.097
Mof_H 	H 	0.6177	0.2326	0.3685	-0.005
Mof_C 	C 	0.916	0.9115	0.0127	-0.068
Mof_C 	C 	0.13	0.9154	0.4966	-0.026
Mof_H 	H 	0.2161	0.8591	0.4949	0.035
Mof_C 	C 	0.116	0.264	0.2441	-0.117
Mof_C 	C 	0.62	0.2039	0.2576	-0.115
Mof_C 	C 	0.198	0.0056	0.5018	-0.031
Mof_H 	H 	0.332	0.0092	0.5024	0.048
Mof_C 	C 	0.09	0.3182	0.1799	0.099
Mof_H 	H 	0.0918	0.2866	0.134	0.005
Mof_C 	C 	0.031	0.4766	0.1116	0.478
Mof_C 	C 	0.579	0.3519	0.1807	-0.225
Mof_C 	C 	0.141	0.157	0.2415	0.139
Mof_C 	C 	0.074	0.089	0.506	-0.064
Mof_C 	C 	0.602	0.2487	0.1864	0.087
Mof_H 	H 	0.6049	0.2111	0.1433	0.01
Mof_C 	C 	0.09	0.4148	0.3151	-0.226
Mof_C 	C 	0.559	0.0521	0.3347	-0.185
Mof_H 	H 	0.4947	0.0896	0.3764	0.104
Mof_C 	C 	0.728	0.0385	0.2073	-0.174
Mof_H 	H 	0.7802	0.0655	0.1604	0.098
Mof_C 	C 	0.633	0.0978	0.265	0.141
Mof_C 	C 	0.594	0.3638	0.3154	-0.227
Mof_C 	C 	0.579	0.9539	0.3416	0.101
Mof_H 	H 	0.5251	0.9267	0.3883	-0.014
Mof_C 	C 	0.115	0.3136	0.3134	0.096
Mof_H 	H 	0.1321	0.2788	0.3576	-0.002
Mof_C 	C 	0.093	0.4666	0.3902	0.54
Mof_C 	C 	0.051	0.4685	0.2515	0.141
Mof_H 	H 	0.0192	0.5353	0.2548	-0.046
Mof_C 	C 	0.236	0.1068	0.1754	-0.181
Mof_H 	H 	0.2784	0.1399	0.1301	0.101
Mof_C 	C 	0.125	0.9142	0.0037	-0.027
Mof_H 	H 	0.2086	0.8578	0.0062	0.044
Mof_C 	C 	0.83	0.815	0.0283	0.321
Mof_C 	C 	0.8	0.9954	0.0091	-0.029
Mof_H 	H 	0.663	0.993	0.0154	0.05
Mof_C 	C 	0.061	0.4196	0.1816	-0.21
Mof_C 	C 	0.153	0.1861	0.5164	0.302
Mof_C 	C 	0.107	0.0005	0.3016	0.108
Mof_H 	H 	0.0575	0.9651	0.3448	-0.003
Mof_C 	C 	0.579	0.4077	0.2439	0.171
Mof_H 	H 	0.5689	0.4749	0.2393	-0.047
Mof_C 	C 	0.078	0.1022	0.3058	-0.183
Mof_H 	H 	0.0159	0.1323	0.3514	0.1
Mof_C 	C 	0.749	0.9342	0.2169	0.087
Mof_H 	H 	0.814	0.8954	0.1762	-0.014
Mof_C 	C 	0.265	0.0063	0.1788	0.1
Mof_H 	H 	0.3342	0.9738	0.1353	-0.003
Mof_O 	O 	0.082	0.422	0.051	-0.794
_end
