data_functionalizedCrystal
_audit_creation_method	'EQeq! by Chris Wilmer'
_symmetry_space_group_name_H-M	'P1'
_symmetry_Int_Tables_number	1
_symmetry_cell_setting	triclinic
loop_
_symmetry_equiv_pos_as_xyz
  x,y,z
_cell_length_a	9.9555
_cell_length_b	10.5461
_cell_length_c	10.9407
_cell_angle_alpha	80.768
_cell_angle_beta	71.981
_cell_angle_gamma	74.567
loop_
_atom_site_label
_atom_site_type_symbol
_atom_site_fract_x
_atom_site_fract_y
_atom_site_fract_z
_atom_site_charge
Mof_Er	Er	0.17338	0.19279	0.03369	1.667
Mof_Zn	Zn	0.29091	0.36783	0.61807	1.194
Mof_N 	N 	0.13	0.3033	0.5751	-0.245
Mof_N 	N 	0.4781	0.2027	0.5724	-0.228
Mof_C 	C 	0.0326	0.2422	0.6598	0.135
Mof_H 	H 	0.047	0.213	0.741	-0.027
Mof_C 	C 	0.9119	0.2283	0.6317	-0.206
Mof_H 	H 	0.849	0.188	0.689	0.133
Mof_C 	C 	0.8915	0.2773	0.512	0.11
Mof_H 	H 	0.807	0.265	0.491	-0.011
Mof_C 	C 	0.9938	0.3383	0.4221	-0.168
Mof_C 	C 	0.1122	0.3513	0.4577	0.022
Mof_C 	C 	0.2269	0.4226	0.3727	0.292
Mof_C 	C 	0.9734	0.3825	0.289	0.478
Mof_C 	C 	0.5636	0.1705	0.4553	0.066
Mof_H 	H 	0.533	0.218	0.39	0.006
Mof_C 	C 	0.6894	0.071	0.4386	-0.114
Mof_H 	H 	0.748	0.061	0.354	0.091
Mof_C 	C 	0.7286	0.0051	0.5466	0.018
Mof_H 	H 	0.806	0.945	0.538	0.032
Mof_C 	C 	0.6409	0.0367	0.6694	-0.049
Mof_C 	C 	0.5148	0.1354	0.6773	-0.015
Mof_C 	C 	0.4018	0.1688	0.8032	0.298
Mof_C 	C 	0.6897	0.9609	0.7847	0.299
Mof_C 	C 	0.9407	0.0202	0.0627	0.246
Mof_O 	O 	0.2233	0.4631	0.2606	-0.254
Mof_O 	O 	0.3173	0.4385	0.4257	-0.433
Mof_O 	O 	0.0314	0.2979	0.2091	-0.509
Mof_O 	O 	0.8951	0.4933	0.2687	-0.475
Mof_O 	O 	0.2886	0.2584	0.79915	-0.537
Mof_O 	O 	0.4184	0.1056	0.90581	-0.358
Mof_O 	O 	0.6714	0.8458	0.8167	-0.354
Mof_O 	O 	0.7568	0.0104	0.8374	-0.36
Mof_O 	O 	0.958	0.106	0.1193	-0.373
Mof_O 	O 	0.838	0.963	0.097	-0.371
Mof_Er	Er	0.82662	0.80721	0.96631	1.667
Mof_Zn	Zn	0.70909	0.63217	0.38193	1.194
Mof_N 	N 	0.87	0.6967	0.4249	-0.245
Mof_N 	N 	0.5219	0.7973	0.4276	-0.228
Mof_C 	C 	0.9674	0.7578	0.3402	0.135
Mof_H 	H 	0.953	0.787	0.259	-0.027
Mof_C 	C 	0.0881	0.7717	0.3683	-0.206
Mof_H 	H 	0.151	0.812	0.311	0.133
Mof_C 	C 	0.1085	0.7227	0.488	0.11
Mof_H 	H 	0.193	0.735	0.509	-0.011
Mof_C 	C 	0.0062	0.6617	0.5779	-0.168
Mof_C 	C 	0.8878	0.6487	0.5423	0.022
Mof_C 	C 	0.7731	0.5774	0.6273	0.292
Mof_C 	C 	0.0266	0.6175	0.711	0.478
Mof_C 	C 	0.4364	0.8295	0.5447	0.066
Mof_H 	H 	0.467	0.782	0.61	0.006
Mof_C 	C 	0.3106	0.929	0.5614	-0.114
Mof_H 	H 	0.252	0.939	0.646	0.091
Mof_C 	C 	0.2714	0.9949	0.4534	0.018
Mof_H 	H 	0.194	0.055	0.462	0.032
Mof_C 	C 	0.3591	0.9633	0.3306	-0.049
Mof_C 	C 	0.4852	0.8646	0.3227	-0.015
Mof_C 	C 	0.5982	0.8312	0.1968	0.298
Mof_C 	C 	0.3103	0.0391	0.2153	0.299
Mof_C 	C 	0.0593	0.9798	0.9373	0.246
Mof_O 	O 	0.7767	0.5369	0.7394	-0.254
Mof_O 	O 	0.6827	0.5615	0.5743	-0.433
Mof_O 	O 	0.9686	0.7021	0.7909	-0.509
Mof_O 	O 	0.1049	0.5067	0.7313	-0.475
Mof_O 	O 	0.7114	0.7416	0.20085	-0.537
Mof_O 	O 	0.5816	0.8944	0.09419	-0.358
Mof_O 	O 	0.3286	0.1542	0.1833	-0.354
Mof_O 	O 	0.2432	0.9896	0.1626	-0.36
Mof_O 	O 	0.042	0.894	0.8807	-0.373
Mof_O 	O 	0.162	0.037	0.903	-0.371
_end
