data_functionalizedCrystal
_audit_creation_method	'EQeq! by Chris Wilmer'
_symmetry_space_group_name_H-M	'P1'
_symmetry_Int_Tables_number	1
_symmetry_cell_setting	triclinic
loop_
_symmetry_equiv_pos_as_xyz
  x,y,z
_cell_length_a	13.014
_cell_length_b	13.014
_cell_length_c	13.457
_cell_angle_alpha	90
_cell_angle_beta	90
_cell_angle_gamma	120
loop_
_atom_site_label
_atom_site_type_symbol
_atom_site_fract_x
_atom_site_fract_y
_atom_site_fract_z
_atom_site_charge
Mof_Cd	Cd	0.66667	0.33334	0.3993	0.369
Mof_Cd	Cd	0.33333	0.66666	0.8993	0.41
Mof_Cd	Cd	0.5	0	-0	0.307
Mof_Cd	Cd	-3.45176e-17	0.5	0.5	0.358
Mof_Cd	Cd	0.66667	0.33334	0.1007	0.331
Mof_Cd	Cd	0.33333	0.66666	0.6007	0.369
Mof_Cd	Cd	-2.87992e-17	0.5	-0	0.317
Mof_Cd	Cd	0.5	0.5	-0	0.331
Mof_Cd	Cd	0.5	1.27894e-32	0.5	0.357
Mof_Cd	Cd	0.5	0.5	0.5	0.376
Mof_H 	H 	0.9582	0.1676	0.8362	0.126
Mof_H 	H 	0.9582	0.7906	0.8362	0.129
Mof_H 	H 	0.1676	0.9582	0.1638	0.119
Mof_H 	H 	0.8324	0.0418	0.6638	0.127
Mof_H 	H 	0.8324	0.0418	0.8362	0.13
Mof_H 	H 	0.9627	0.2545	0.1297	0.152
Mof_H 	H 	0.0418	0.2094	0.1638	0.118
Mof_H 	H 	0.9627	0.7082	0.1297	0.155
Mof_H 	H 	0.9582	0.1676	0.6638	0.123
Mof_H 	H 	0.0418	0.8324	0.3362	0.127
Mof_H 	H 	0.1774	0.5887	0.3053	0.157
Mof_H 	H 	0.4113	0.5887	0.3053	0.159
Mof_H 	H 	0.0418	0.8324	0.1638	0.123
Mof_H 	H 	0.5887	0.1774	0.8053	0.159
Mof_H 	H 	0.7455	0.0373	0.3703	0.129
Mof_H 	H 	0.4113	0.5887	0.1947	0.159
Mof_H 	H 	0.2094	0.0418	0.8362	0.125
Mof_H 	H 	0.0373	0.7455	0.6297	0.131
Mof_H 	H 	0.2094	0.0418	0.6638	0.122
Mof_H 	H 	0.7455	0.0373	0.1297	0.119
Mof_H 	H 	0.8226	0.4113	0.8053	0.165
Mof_H 	H 	0.8226	0.4113	0.6947	0.162
Mof_H 	H 	0.7082	0.7455	0.6297	0.149
Mof_H 	H 	0.1774	0.5887	0.1947	0.157
Mof_H 	H 	0.9627	0.7082	0.3703	0.164
Mof_H 	H 	0.0418	0.2094	0.3362	0.122
Mof_H 	H 	0.9627	0.2545	0.3703	0.162
Mof_H 	H 	0.5887	0.4113	0.8053	0.161
Mof_H 	H 	0.7082	0.7455	0.8703	0.158
Mof_H 	H 	0.1676	0.9582	0.3362	0.123
Mof_H 	H 	0.5887	0.4113	0.6947	0.159
Mof_H 	H 	0.2545	0.9627	0.8703	0.17
Mof_H 	H 	0.1676	0.2094	0.1638	0.116
Mof_H 	H 	0.4113	0.8226	0.1947	0.163
Mof_H 	H 	0.2918	0.0373	0.1297	0.117
Mof_H 	H 	0.8324	0.7906	0.8362	0.132
Mof_H 	H 	0.0373	0.2918	0.6297	0.129
Mof_H 	H 	0.7906	0.8324	0.1638	0.125
Mof_H 	H 	0.7906	0.9582	0.1638	0.123
Mof_H 	H 	0.2918	0.2545	0.1297	0.137
Mof_H 	H 	0.7455	0.7082	0.3703	0.149
Mof_H 	H 	0.7455	0.7082	0.1297	0.141
Mof_H 	H 	0.2094	0.1676	0.8362	0.124
Mof_H 	H 	0.2545	0.2918	0.6297	0.146
Mof_H 	H 	0.8324	0.7906	0.6638	0.129
Mof_H 	H 	0.2918	0.2545	0.3703	0.145
Mof_H 	H 	0.7906	0.9582	0.3362	0.126
Mof_H 	H 	0.2545	0.9627	0.6297	0.164
Mof_H 	H 	0.7082	0.9627	0.8703	0.172
Mof_H 	H 	0.7906	0.8324	0.3362	0.128
Mof_H 	H 	0.0373	0.7455	0.8703	0.138
Mof_H 	H 	0.9582	0.7906	0.6638	0.127
Mof_H 	H 	0.2918	0.0373	0.3703	0.127
Mof_H 	H 	0.7082	0.9627	0.6297	0.165
Mof_H 	H 	0.4113	0.8226	0.3053	0.163
Mof_H 	H 	0.2545	0.2918	0.8703	0.155
Mof_H 	H 	0.2094	0.1676	0.6638	0.12
Mof_H 	H 	0.0373	0.2918	0.8703	0.137
Mof_H 	H 	0.1676	0.2094	0.3362	0.12
Mof_H 	H 	0.5887	0.1774	0.6947	0.157
Mof_C 	C 	0.7723	0.1223	0.586	0.111
Mof_C 	C 	0.5095	0.4905	0.75	0.208
Mof_C 	C 	0.35	0.1223	0.914	0.117
Mof_C 	C 	0.35	0.2277	0.914	0.116
Mof_C 	C 	0.1223	0.7723	0.086	0.105
Mof_C 	C 	0.4905	0.5095	0.25	0.208
Mof_C 	C 	0.8777	0.2277	0.586	0.109
Mof_C 	C 	0.1223	0.7723	0.414	0.111
Mof_C 	C 	0.2277	0.8777	0.414	0.109
Mof_C 	C 	0.019	0.5095	0.25	0.182
Mof_C 	C 	0.65	0.7723	0.414	0.112
Mof_C 	C 	0.7723	0.65	0.586	0.112
Mof_C 	C 	0.8777	0.65	0.914	0.118
Mof_C 	C 	0.7723	0.65	0.914	0.12
Mof_C 	C 	0.1223	0.35	0.414	0.109
Mof_C 	C 	0.65	0.7723	0.086	0.105
Mof_C 	C 	0.35	0.1223	0.586	0.109
Mof_C 	C 	0.35	0.2277	0.586	0.108
Mof_C 	C 	0.65	0.8777	0.086	0.104
Mof_C 	C 	0.7723	0.1223	0.914	0.12
Mof_C 	C 	0.5095	0.019	0.75	0.181
Mof_C 	C 	0.2277	0.35	0.414	0.108
Mof_C 	C 	0.8777	0.65	0.586	0.111
Mof_C 	C 	0.4905	0.981	0.25	0.245
Mof_C 	C 	0.8777	0.2277	0.914	0.118
Mof_C 	C 	0.2277	0.35	0.086	0.101
Mof_C 	C 	0.2277	0.8777	0.086	0.103
Mof_C 	C 	0.65	0.8777	0.414	0.111
Mof_C 	C 	0.981	0.4905	0.75	0.241
Mof_C 	C 	0.1223	0.35	0.086	0.102
Mof_N 	N 	0.1381	0.4403	0.0329	-0.138
Mof_N 	N 	0.7519	0.2481	0.5023	-0.08
Mof_N 	N 	0.41805	0.58195	0.7021	-0.079
Mof_N 	N 	0.58195	0.41805	0.2979	-0.079
Mof_N 	N 	0.032	0.261	0.132	-0.315
Mof_N 	N 	0.261	0.032	0.868	-0.318
Mof_N 	N 	0.4403	0.1381	0.9671	-0.118
Mof_N 	N 	0.261	0.229	0.868	-0.303
Mof_N 	N 	0.52525	0.0505	0.3315	-0.155
Mof_N 	N 	0.6978	0.1381	0.9671	-0.118
Mof_N 	N 	0.2481	0.7519	0.4977	-0.08
Mof_N 	N 	0.7519	0.2481	0.9977	-0.063
Mof_N 	N 	0.47475	0.52525	0.6685	-0.14
Mof_N 	N 	0.968	0.229	0.632	-0.284
Mof_N 	N 	0.5695	0.4305	0.75	-0.333
Mof_N 	N 	0.8619	0.5597	0.5329	-0.127
Mof_N 	N 	0.5597	0.6978	0.0329	-0.137
Mof_N 	N 	0.4403	0.3022	0.5329	-0.132
Mof_N 	N 	0.968	0.739	0.868	-0.285
Mof_N 	N 	0.229	0.261	0.132	-0.3
Mof_N 	N 	0.739	0.968	0.368	-0.284
Mof_N 	N 	0.41805	0.8361	0.7021	-0.078
Mof_N 	N 	0.3022	0.4403	0.4671	-0.132
Mof_N 	N 	0.9495	0.47475	0.1685	-0.128
Mof_N 	N 	0.3022	0.8619	0.4671	-0.126
Mof_N 	N 	0.1639	0.58195	0.7021	-0.08
Mof_N 	N 	0.4962	0.2481	0.9977	-0.064
Mof_N 	N 	0.4305	0.861	0.25	-0.34
Mof_N 	N 	0.52525	0.47475	0.1685	-0.142
Mof_N 	N 	0.771	0.032	0.868	-0.319
Mof_N 	N 	0.8361	0.41805	0.2979	-0.078
Mof_N 	N 	0.739	0.968	0.132	-0.28
Mof_N 	N 	0.229	0.261	0.368	-0.301
Mof_N 	N 	0.6978	0.1381	0.5329	-0.134
Mof_N 	N 	0.5597	0.6978	0.4671	-0.132
Mof_N 	N 	0.261	0.032	0.632	-0.319
Mof_N 	N 	0.47475	0.9495	0.6685	-0.125
Mof_N 	N 	0.52525	0.0505	0.1685	-0.157
Mof_N 	N 	0.2481	0.7519	0.0023	-0.092
Mof_N 	N 	0.52525	0.47475	0.3315	-0.14
Mof_N 	N 	0.771	0.032	0.632	-0.321
Mof_N 	N 	0.032	0.261	0.368	-0.318
Mof_N 	N 	0.58195	0.41805	0.2021	-0.081
Mof_N 	N 	0.6978	0.5597	0.9671	-0.118
Mof_N 	N 	0.4403	0.1381	0.5329	-0.133
Mof_N 	N 	0.771	0.739	0.632	-0.304
Mof_N 	N 	0.1381	0.4403	0.4671	-0.133
Mof_N 	N 	0.229	0.968	0.132	-0.278
Mof_N 	N 	0.968	0.739	0.632	-0.286
Mof_N 	N 	0.139	0.5695	0.25	-0.327
Mof_N 	N 	0.8619	0.5597	0.9671	-0.113
Mof_N 	N 	0.2481	0.4962	0.0023	-0.093
Mof_N 	N 	0.7519	0.5038	0.5023	-0.08
Mof_N 	N 	0.4962	0.2481	0.5023	-0.081
Mof_N 	N 	0.47475	0.52525	0.8315	-0.13
Mof_N 	N 	0.1381	0.6978	0.4671	-0.133
Mof_N 	N 	0.5597	0.8619	0.4671	-0.127
Mof_N 	N 	0.58195	0.1639	0.2979	-0.079
Mof_N 	N 	0.7519	0.5038	0.9977	-0.064
Mof_N 	N 	0.5695	0.139	0.75	-0.327
Mof_N 	N 	0.261	0.229	0.632	-0.301
Mof_N 	N 	0.9495	0.47475	0.3315	-0.125
Mof_N 	N 	0.739	0.771	0.132	-0.303
Mof_N 	N 	0.4403	0.3022	0.9671	-0.118
Mof_N 	N 	0.032	0.771	0.368	-0.32
Mof_N 	N 	0.8619	0.3022	0.9671	-0.112
Mof_N 	N 	0.8619	0.3022	0.5329	-0.127
Mof_N 	N 	0.1639	0.58195	0.7979	-0.076
Mof_N 	N 	0.0505	0.52525	0.6685	-0.153
Mof_N 	N 	0.3022	0.4403	0.0329	-0.137
Mof_N 	N 	0.47475	0.9495	0.8315	-0.115
Mof_N 	N 	0.5038	0.7519	0.4977	-0.08
Mof_N 	N 	0.8361	0.41805	0.2021	-0.081
Mof_N 	N 	0.3022	0.8619	0.0329	-0.13
Mof_N 	N 	0.6978	0.5597	0.5329	-0.132
Mof_N 	N 	0.58195	0.1639	0.2021	-0.082
Mof_N 	N 	0.41805	0.58195	0.7979	-0.076
Mof_N 	N 	0.4305	0.5695	0.25	-0.333
Mof_N 	N 	0.032	0.771	0.132	-0.316
Mof_N 	N 	0.771	0.739	0.868	-0.305
Mof_N 	N 	0.739	0.771	0.368	-0.304
Mof_N 	N 	0.0505	0.52525	0.8315	-0.144
Mof_N 	N 	0.5038	0.7519	0.0023	-0.093
Mof_N 	N 	0.5597	0.8619	0.0329	-0.131
Mof_N 	N 	0.1381	0.6978	0.0329	-0.138
Mof_N 	N 	0.861	0.4305	0.75	-0.34
Mof_N 	N 	0.2481	0.4962	0.4977	-0.081
Mof_N 	N 	0.41805	0.8361	0.7979	-0.075
Mof_N 	N 	0.968	0.229	0.868	-0.284
Mof_N 	N 	0.229	0.968	0.368	-0.282
_end
