data_functionalizedCrystal
_audit_creation_method	'EQeq! by Chris Wilmer'
_symmetry_space_group_name_H-M	'P1'
_symmetry_Int_Tables_number	1
_symmetry_cell_setting	triclinic
loop_
_symmetry_equiv_pos_as_xyz
  x,y,z
_cell_length_a	34.018
_cell_length_b	34.018
_cell_length_c	15.308
_cell_angle_alpha	90
_cell_angle_beta	90
_cell_angle_gamma	90
loop_
_atom_site_label
_atom_site_type_symbol
_atom_site_fract_x
_atom_site_fract_y
_atom_site_fract_z
_atom_site_charge
Mof_Cu	Cu	0.23616	0.23849	0.6748	0.919
Mof_Cu	Cu	0.99855	0.03431	0.96766	0.796
Mof_I 	I 	0.0602	0.98976	0.93468	-0.436
Mof_O 	O 	0.19884	0.20954	0.7495	-0.408
Mof_O 	O 	0.2227	0.22863	0.8777	-0.403
Mof_C 	C 	0.19841	0.21088	0.8309	0.374
Mof_C 	C 	0.16544	0.1898	0.8767	-0.118
Mof_C 	C 	0.1363	0.17189	0.82705	0.053
Mof_H 	H 	0.1385	0.1712	0.7652	0.027
Mof_C 	C 	0.10393	0.15503	0.8679	-0.125
Mof_H 	H 	0.084	0.1428	0.8339	0.075
Mof_C 	C 	0.10068	0.15609	0.9583	0.083
Mof_C 	C 	0.12982	0.17401	0.00801	-0.122
Mof_H 	H 	0.1276	0.1747	0.0699	0.078
Mof_C 	C 	0.1622	0.19086	0.9672	0.053
Mof_H 	H 	0.1821	0.2031	0.0012	0.032
Mof_C 	C 	0.06545	0.13946	0.0013	-0.046
Mof_C 	C 	0.05095	0.10354	0.9723	0.016
Mof_H 	H 	0.0644	0.0895	0.9277	0.013
Mof_N 	N 	0.01681	0.08815	0.0087	-0.224
Mof_C 	C 	0.99717	0.10867	0.0739	0.063
Mof_H 	H 	0.9738	0.0981	0.0987	0
Mof_N 	N 	0.01166	0.14458	0.1029	-0.114
Mof_C 	C 	0.0458	0.15997	0.0666	0.026
Mof_H 	H 	0.0557	0.1845	0.0864	0.035
Mof_O 	O 	0.27421	0.19558	0.6858	-0.406
Mof_O 	O 	0.29762	0.21597	0.8134	-0.409
Mof_C 	C 	0.29775	0.19374	0.748	0.375
Mof_C 	C 	0.3284	0.1623	0.7451	-0.121
Mof_C 	C 	0.33043	0.13685	0.6742	0.058
Mof_H 	H 	0.3113	0.1383	0.6291	0.031
Mof_C 	C 	0.3605	0.10927	0.6691	-0.129
Mof_H 	H 	0.3619	0.0919	0.6207	0.081
Mof_C 	C 	0.38853	0.10714	0.735	0.089
Mof_C 	C 	0.3865	0.13259	0.8059	-0.128
Mof_H 	H 	0.4057	0.1311	0.851	0.078
Mof_C 	C 	0.35643	0.16016	0.8109	0.057
Mof_H 	H 	0.355	0.1776	0.8594	0.03
Mof_C 	C 	0.42083	0.07844	0.7303	-0.049
Mof_C 	C 	0.43953	0.07062	0.65143	0.026
Mof_H 	H 	0.4299	0.0819	0.5989	0.011
Mof_N 	N 	0.47233	0.04627	0.64948	-0.223
Mof_C 	C 	0.48643	0.02974	0.7264	0.061
Mof_H 	H 	0.5089	0.0131	0.725	0.006
Mof_N 	N 	0.46774	0.03756	0.80522	-0.174
Mof_C 	C 	0.43494	0.06191	0.80718	0.029
Mof_H 	H 	0.4222	0.0673	0.8611	0.033
Mof_Cu	Cu	0.73616	0.73849	0.1748	0.92
Mof_Cu	Cu	0.49855	0.53431	0.46766	0.797
Mof_I 	I 	0.5602	0.48976	0.43468	-0.435
Mof_O 	O 	0.69884	0.70954	0.2495	-0.407
Mof_O 	O 	0.7227	0.72863	0.3777	-0.402
Mof_C 	C 	0.69841	0.71088	0.3309	0.375
Mof_C 	C 	0.66544	0.6898	0.3767	-0.118
Mof_C 	C 	0.6363	0.67189	0.32705	0.056
Mof_H 	H 	0.6385	0.6712	0.2652	0.027
Mof_C 	C 	0.60393	0.65503	0.3679	-0.126
Mof_H 	H 	0.584	0.6428	0.3339	0.077
Mof_C 	C 	0.60068	0.65609	0.4583	0.086
Mof_C 	C 	0.62982	0.67401	0.50801	-0.123
Mof_H 	H 	0.6276	0.6747	0.5699	0.08
Mof_C 	C 	0.6622	0.69086	0.4672	0.056
Mof_H 	H 	0.6821	0.7031	0.5012	0.033
Mof_C 	C 	0.56545	0.63946	0.5013	-0.046
Mof_C 	C 	0.55095	0.60354	0.4723	0.019
Mof_H 	H 	0.5644	0.5895	0.4277	0.014
Mof_N 	N 	0.51681	0.58815	0.5087	-0.224
Mof_C 	C 	0.49717	0.60867	0.5739	0.064
Mof_H 	H 	0.4738	0.5981	0.5987	0
Mof_N 	N 	0.51166	0.64458	0.6029	-0.114
Mof_C 	C 	0.5458	0.65997	0.5666	0.028
Mof_H 	H 	0.5557	0.6845	0.5864	0.035
Mof_O 	O 	0.77421	0.69558	0.1858	-0.405
Mof_O 	O 	0.79762	0.71597	0.3134	-0.408
Mof_C 	C 	0.79775	0.69374	0.248	0.376
Mof_C 	C 	0.8284	0.6623	0.2451	-0.121
Mof_C 	C 	0.83043	0.63685	0.1742	0.058
Mof_H 	H 	0.8113	0.6383	0.1291	0.031
Mof_C 	C 	0.8605	0.60927	0.1691	-0.129
Mof_H 	H 	0.8619	0.5919	0.1207	0.081
Mof_C 	C 	0.88853	0.60714	0.235	0.089
Mof_C 	C 	0.8865	0.63259	0.3059	-0.128
Mof_H 	H 	0.9057	0.6311	0.351	0.078
Mof_C 	C 	0.85643	0.66016	0.3109	0.057
Mof_H 	H 	0.855	0.6776	0.3594	0.03
Mof_C 	C 	0.92083	0.57844	0.2303	-0.049
Mof_C 	C 	0.93953	0.57062	0.15143	0.026
Mof_H 	H 	0.9299	0.5819	0.0989	0.011
Mof_N 	N 	0.97233	0.54627	0.14948	-0.223
Mof_C 	C 	0.98643	0.52974	0.2264	0.061
Mof_H 	H 	0.0089	0.5131	0.225	0.006
Mof_N 	N 	0.96774	0.53756	0.30522	-0.174
Mof_C 	C 	0.93494	0.56191	0.30718	0.029
Mof_H 	H 	0.9222	0.5673	0.3611	0.033
Mof_Cu	Cu	0.26384	0.76151	0.1748	0.92
Mof_Cu	Cu	0.50145	0.96569	0.46766	0.797
Mof_I 	I 	0.4398	0.01024	0.43468	-0.435
Mof_O 	O 	0.30116	0.79046	0.2495	-0.407
Mof_O 	O 	0.2773	0.77137	0.3777	-0.402
Mof_C 	C 	0.30159	0.78912	0.3309	0.375
Mof_C 	C 	0.33456	0.8102	0.3767	-0.118
Mof_C 	C 	0.3637	0.82811	0.32705	0.056
Mof_H 	H 	0.3615	0.8288	0.2652	0.027
Mof_C 	C 	0.39607	0.84497	0.3679	-0.126
Mof_H 	H 	0.416	0.8572	0.3339	0.077
Mof_C 	C 	0.39932	0.84391	0.4583	0.086
Mof_C 	C 	0.37018	0.82599	0.50801	-0.123
Mof_H 	H 	0.3724	0.8253	0.5699	0.08
Mof_C 	C 	0.3378	0.80914	0.4672	0.056
Mof_H 	H 	0.3179	0.7969	0.5012	0.032
Mof_C 	C 	0.43455	0.86054	0.5013	-0.046
Mof_C 	C 	0.44905	0.89646	0.4723	0.019
Mof_H 	H 	0.4356	0.9105	0.4277	0.014
Mof_N 	N 	0.48319	0.91185	0.5087	-0.224
Mof_C 	C 	0.50283	0.89133	0.5739	0.064
Mof_H 	H 	0.5262	0.9019	0.5987	0
Mof_N 	N 	0.48834	0.85542	0.6029	-0.114
Mof_C 	C 	0.4542	0.84003	0.5666	0.028
Mof_H 	H 	0.4443	0.8155	0.5864	0.035
Mof_O 	O 	0.22579	0.80442	0.1858	-0.405
Mof_O 	O 	0.20238	0.78403	0.3134	-0.408
Mof_C 	C 	0.20225	0.80626	0.248	0.376
Mof_C 	C 	0.1716	0.8377	0.2451	-0.121
Mof_C 	C 	0.16957	0.86315	0.1742	0.058
Mof_H 	H 	0.1887	0.8617	0.1291	0.031
Mof_C 	C 	0.1395	0.89073	0.1691	-0.129
Mof_H 	H 	0.1381	0.9081	0.1207	0.081
Mof_C 	C 	0.11147	0.89286	0.235	0.089
Mof_C 	C 	0.1135	0.86741	0.3059	-0.128
Mof_H 	H 	0.0943	0.8689	0.351	0.078
Mof_C 	C 	0.14357	0.83984	0.3109	0.057
Mof_H 	H 	0.145	0.8224	0.3594	0.03
Mof_C 	C 	0.07917	0.92156	0.2303	-0.049
Mof_C 	C 	0.06047	0.92938	0.15143	0.026
Mof_H 	H 	0.0701	0.9181	0.0989	0.011
Mof_N 	N 	0.02767	0.95373	0.14948	-0.223
Mof_C 	C 	0.01357	0.97026	0.2264	0.061
Mof_H 	H 	0.9911	0.9869	0.225	0.006
Mof_N 	N 	0.03226	0.96244	0.30522	-0.174
Mof_C 	C 	0.06506	0.93809	0.30718	0.029
Mof_H 	H 	0.0778	0.9327	0.3611	0.033
Mof_Cu	Cu	0.76384	0.26151	0.6748	0.92
Mof_Cu	Cu	0.00145	0.46569	0.96766	0.797
Mof_I 	I 	0.9398	0.51024	0.93468	-0.435
Mof_O 	O 	0.80116	0.29046	0.7495	-0.407
Mof_O 	O 	0.7773	0.27137	0.8777	-0.402
Mof_C 	C 	0.80159	0.28912	0.8309	0.375
Mof_C 	C 	0.83456	0.3102	0.8767	-0.117
Mof_C 	C 	0.8637	0.32811	0.82705	0.055
Mof_H 	H 	0.8615	0.3288	0.7652	0.027
Mof_C 	C 	0.89607	0.34497	0.8679	-0.125
Mof_H 	H 	0.916	0.3572	0.8339	0.076
Mof_C 	C 	0.89932	0.34391	0.9583	0.085
Mof_C 	C 	0.87018	0.32599	0.00801	-0.122
Mof_H 	H 	0.8724	0.3253	0.0699	0.079
Mof_C 	C 	0.8378	0.30914	0.9672	0.055
Mof_H 	H 	0.8179	0.2969	0.0012	0.033
Mof_C 	C 	0.93455	0.36054	0.0013	-0.046
Mof_C 	C 	0.94905	0.39646	0.9723	0.018
Mof_H 	H 	0.9356	0.4105	0.9277	0.014
Mof_N 	N 	0.98319	0.41185	0.0087	-0.224
Mof_C 	C 	0.00283	0.39133	0.0739	0.064
Mof_H 	H 	0.0262	0.4019	0.0987	0
Mof_N 	N 	0.98834	0.35542	0.1029	-0.113
Mof_C 	C 	0.9542	0.34003	0.0666	0.028
Mof_H 	H 	0.9443	0.3155	0.0864	0.036
Mof_O 	O 	0.72579	0.30442	0.6858	-0.405
Mof_O 	O 	0.70238	0.28403	0.8134	-0.408
Mof_C 	C 	0.70225	0.30626	0.748	0.376
Mof_C 	C 	0.6716	0.3377	0.7451	-0.121
Mof_C 	C 	0.66957	0.36315	0.6742	0.058
Mof_H 	H 	0.6887	0.3617	0.6291	0.031
Mof_C 	C 	0.6395	0.39073	0.6691	-0.129
Mof_H 	H 	0.6381	0.4081	0.6207	0.081
Mof_C 	C 	0.61147	0.39286	0.735	0.089
Mof_C 	C 	0.6135	0.36741	0.8059	-0.128
Mof_H 	H 	0.5943	0.3689	0.851	0.078
Mof_C 	C 	0.64357	0.33984	0.8109	0.057
Mof_H 	H 	0.645	0.3224	0.8594	0.03
Mof_C 	C 	0.57917	0.42156	0.7303	-0.049
Mof_C 	C 	0.56047	0.42938	0.65143	0.026
Mof_H 	H 	0.5701	0.4181	0.5989	0.011
Mof_N 	N 	0.52767	0.45373	0.64948	-0.223
Mof_C 	C 	0.51357	0.47026	0.7264	0.061
Mof_H 	H 	0.4911	0.4869	0.725	0.006
Mof_N 	N 	0.53226	0.46244	0.80522	-0.174
Mof_C 	C 	0.56506	0.43809	0.80718	0.029
Mof_H 	H 	0.5778	0.4327	0.8611	0.033
Mof_Cu	Cu	0.51151	0.48616	0.9248	0.92
Mof_Cu	Cu	0.71569	0.24855	0.21766	0.797
Mof_I 	I 	0.76024	0.3102	0.18468	-0.435
Mof_O 	O 	0.54046	0.44884	0.9995	-0.407
Mof_O 	O 	0.52137	0.4727	0.1277	-0.402
Mof_C 	C 	0.53912	0.44841	0.0809	0.375
Mof_C 	C 	0.5602	0.41544	0.1267	-0.118
Mof_C 	C 	0.57811	0.3863	0.07705	0.056
Mof_H 	H 	0.5788	0.3885	0.0152	0.027
Mof_C 	C 	0.59497	0.35393	0.1179	-0.126
Mof_H 	H 	0.6072	0.334	0.0839	0.077
Mof_C 	C 	0.59391	0.35068	0.2083	0.086
Mof_C 	C 	0.57599	0.37982	0.25801	-0.123
Mof_H 	H 	0.5753	0.3776	0.3199	0.08
Mof_C 	C 	0.55914	0.4122	0.2172	0.056
Mof_H 	H 	0.5469	0.4321	0.2512	0.032
Mof_C 	C 	0.61054	0.31545	0.2513	-0.046
Mof_C 	C 	0.64646	0.30095	0.2223	0.019
Mof_H 	H 	0.6605	0.3144	0.1777	0.014
Mof_N 	N 	0.66185	0.26681	0.2587	-0.224
Mof_C 	C 	0.64133	0.24717	0.3239	0.064
Mof_H 	H 	0.6519	0.2238	0.3487	0
Mof_N 	N 	0.60542	0.26166	0.3529	-0.114
Mof_C 	C 	0.59003	0.2958	0.3166	0.028
Mof_H 	H 	0.5655	0.3057	0.3364	0.035
Mof_O 	O 	0.55442	0.52421	0.9358	-0.405
Mof_O 	O 	0.53403	0.54762	0.0634	-0.408
Mof_C 	C 	0.55626	0.54775	0.998	0.376
Mof_C 	C 	0.5877	0.5784	0.9951	-0.121
Mof_C 	C 	0.61315	0.58043	0.9242	0.058
Mof_H 	H 	0.6117	0.5613	0.8791	0.031
Mof_C 	C 	0.64073	0.6105	0.9191	-0.129
Mof_H 	H 	0.6581	0.6119	0.8707	0.081
Mof_C 	C 	0.64286	0.63853	0.985	0.089
Mof_C 	C 	0.61741	0.6365	0.0559	-0.128
Mof_H 	H 	0.6189	0.6557	0.101	0.078
Mof_C 	C 	0.58984	0.60643	0.0609	0.057
Mof_H 	H 	0.5724	0.605	0.1094	0.03
Mof_C 	C 	0.67156	0.67083	0.9803	-0.049
Mof_C 	C 	0.67938	0.68953	0.90143	0.026
Mof_H 	H 	0.6681	0.6799	0.8489	0.011
Mof_N 	N 	0.70373	0.72233	0.89948	-0.223
Mof_C 	C 	0.72026	0.73643	0.9764	0.061
Mof_H 	H 	0.7369	0.7589	0.975	0.006
Mof_N 	N 	0.71244	0.71774	0.05522	-0.174
Mof_C 	C 	0.68809	0.68494	0.05718	0.029
Mof_H 	H 	0.6827	0.6722	0.1111	0.033
Mof_Cu	Cu	0.01151	0.98616	0.4248	0.92
Mof_Cu	Cu	0.21569	0.74855	0.71766	0.797
Mof_I 	I 	0.26024	0.8102	0.68468	-0.435
Mof_O 	O 	0.04046	0.94884	0.4995	-0.407
Mof_O 	O 	0.02137	0.9727	0.6277	-0.402
Mof_C 	C 	0.03912	0.94841	0.5809	0.375
Mof_C 	C 	0.0602	0.91544	0.6267	-0.118
Mof_C 	C 	0.07811	0.8863	0.57705	0.056
Mof_H 	H 	0.0788	0.8885	0.5152	0.027
Mof_C 	C 	0.09497	0.85393	0.6179	-0.126
Mof_H 	H 	0.1072	0.834	0.5839	0.077
Mof_C 	C 	0.09391	0.85068	0.7083	0.086
Mof_C 	C 	0.07599	0.87982	0.75801	-0.123
Mof_H 	H 	0.0753	0.8776	0.8199	0.08
Mof_C 	C 	0.05914	0.9122	0.7172	0.056
Mof_H 	H 	0.0469	0.9321	0.7512	0.033
Mof_C 	C 	0.11054	0.81545	0.7513	-0.046
Mof_C 	C 	0.14646	0.80095	0.7223	0.019
Mof_H 	H 	0.1605	0.8144	0.6777	0.014
Mof_N 	N 	0.16185	0.76681	0.7587	-0.224
Mof_C 	C 	0.14133	0.74717	0.8239	0.064
Mof_H 	H 	0.1519	0.7238	0.8487	0
Mof_N 	N 	0.10542	0.76166	0.8529	-0.113
Mof_C 	C 	0.09003	0.7958	0.8166	0.028
Mof_H 	H 	0.0655	0.8057	0.8364	0.035
Mof_O 	O 	0.05442	0.02421	0.4358	-0.404
Mof_O 	O 	0.03403	0.04762	0.5634	-0.407
Mof_C 	C 	0.05626	0.04775	0.498	0.376
Mof_C 	C 	0.0877	0.0784	0.4951	-0.121
Mof_C 	C 	0.11315	0.08043	0.4242	0.058
Mof_H 	H 	0.1117	0.0613	0.3791	0.032
Mof_C 	C 	0.14073	0.1105	0.4191	-0.129
Mof_H 	H 	0.1581	0.1119	0.3707	0.081
Mof_C 	C 	0.14286	0.13853	0.485	0.089
Mof_C 	C 	0.11741	0.1365	0.5559	-0.128
Mof_H 	H 	0.1189	0.1557	0.601	0.078
Mof_C 	C 	0.08984	0.10643	0.5609	0.057
Mof_H 	H 	0.0724	0.105	0.6094	0.03
Mof_C 	C 	0.17156	0.17083	0.4803	-0.049
Mof_C 	C 	0.17938	0.18953	0.40143	0.026
Mof_H 	H 	0.1681	0.1799	0.3489	0.011
Mof_N 	N 	0.20373	0.22233	0.39948	-0.223
Mof_C 	C 	0.22026	0.23643	0.4764	0.061
Mof_H 	H 	0.2369	0.2589	0.475	0.006
Mof_N 	N 	0.21244	0.21774	0.55522	-0.174
Mof_C 	C 	0.18809	0.18494	0.55718	0.029
Mof_H 	H 	0.1827	0.1722	0.6111	0.033
Mof_Cu	Cu	0.98849	0.51384	0.4248	0.92
Mof_Cu	Cu	0.78431	0.75145	0.71766	0.797
Mof_I 	I 	0.73976	0.6898	0.68468	-0.435
Mof_O 	O 	0.95954	0.55116	0.4995	-0.407
Mof_O 	O 	0.97863	0.5273	0.6277	-0.402
Mof_C 	C 	0.96088	0.55159	0.5809	0.375
Mof_C 	C 	0.9398	0.58456	0.6267	-0.118
Mof_C 	C 	0.92189	0.6137	0.57705	0.056
Mof_H 	H 	0.9212	0.6115	0.5152	0.027
Mof_C 	C 	0.90503	0.64607	0.6179	-0.126
Mof_H 	H 	0.8928	0.666	0.5839	0.077
Mof_C 	C 	0.90609	0.64932	0.7083	0.086
Mof_C 	C 	0.92401	0.62018	0.75801	-0.123
Mof_H 	H 	0.9247	0.6224	0.8199	0.08
Mof_C 	C 	0.94086	0.5878	0.7172	0.056
Mof_H 	H 	0.9531	0.5679	0.7512	0.033
Mof_C 	C 	0.88946	0.68455	0.7513	-0.046
Mof_C 	C 	0.85354	0.69905	0.7223	0.019
Mof_H 	H 	0.8395	0.6856	0.6777	0.014
Mof_N 	N 	0.83815	0.73319	0.7587	-0.224
Mof_C 	C 	0.85867	0.75283	0.8239	0.064
Mof_H 	H 	0.8481	0.7762	0.8487	0
Mof_N 	N 	0.89458	0.73834	0.8529	-0.113
Mof_C 	C 	0.90997	0.7042	0.8166	0.028
Mof_H 	H 	0.9345	0.6943	0.8364	0.035
Mof_O 	O 	0.94558	0.47579	0.4358	-0.405
Mof_O 	O 	0.96597	0.45238	0.5634	-0.407
Mof_C 	C 	0.94374	0.45225	0.498	0.376
Mof_C 	C 	0.9123	0.4216	0.4951	-0.121
Mof_C 	C 	0.88685	0.41957	0.4242	0.058
Mof_H 	H 	0.8883	0.4387	0.3791	0.031
Mof_C 	C 	0.85927	0.3895	0.4191	-0.129
Mof_H 	H 	0.8419	0.3881	0.3707	0.081
Mof_C 	C 	0.85714	0.36147	0.485	0.089
Mof_C 	C 	0.88259	0.3635	0.5559	-0.128
Mof_H 	H 	0.8811	0.3443	0.601	0.078
Mof_C 	C 	0.91016	0.39357	0.5609	0.057
Mof_H 	H 	0.9276	0.395	0.6094	0.03
Mof_C 	C 	0.82844	0.32917	0.4803	-0.049
Mof_C 	C 	0.82062	0.31047	0.40143	0.026
Mof_H 	H 	0.8319	0.3201	0.3489	0.011
Mof_N 	N 	0.79627	0.27767	0.39948	-0.223
Mof_C 	C 	0.77974	0.26357	0.4764	0.061
Mof_H 	H 	0.7631	0.2411	0.475	0.006
Mof_N 	N 	0.78756	0.28226	0.55522	-0.174
Mof_C 	C 	0.81191	0.31506	0.55718	0.029
Mof_H 	H 	0.8173	0.3278	0.6111	0.033
Mof_Cu	Cu	0.48849	0.01384	0.9248	0.919
Mof_Cu	Cu	0.28431	0.25145	0.21766	0.797
Mof_I 	I 	0.23976	0.1898	0.18468	-0.435
Mof_O 	O 	0.45954	0.05116	0.9995	-0.407
Mof_O 	O 	0.47863	0.0273	0.1277	-0.402
Mof_C 	C 	0.46088	0.05159	0.0809	0.376
Mof_C 	C 	0.4398	0.08456	0.1267	-0.118
Mof_C 	C 	0.42189	0.1137	0.07705	0.056
Mof_H 	H 	0.4212	0.1115	0.0152	0.027
Mof_C 	C 	0.40503	0.14607	0.1179	-0.126
Mof_H 	H 	0.3928	0.166	0.0839	0.077
Mof_C 	C 	0.40609	0.14932	0.2083	0.086
Mof_C 	C 	0.42401	0.12018	0.25801	-0.124
Mof_H 	H 	0.4247	0.1224	0.3199	0.08
Mof_C 	C 	0.44086	0.0878	0.2172	0.057
Mof_H 	H 	0.4531	0.0679	0.2512	0.032
Mof_C 	C 	0.38946	0.18455	0.2513	-0.046
Mof_C 	C 	0.35354	0.19905	0.2223	0.019
Mof_H 	H 	0.3395	0.1856	0.1777	0.014
Mof_N 	N 	0.33815	0.23319	0.2587	-0.224
Mof_C 	C 	0.35867	0.25283	0.3239	0.064
Mof_H 	H 	0.3481	0.2762	0.3487	0
Mof_N 	N 	0.39458	0.23834	0.3529	-0.114
Mof_C 	C 	0.40997	0.2042	0.3166	0.028
Mof_H 	H 	0.4345	0.1943	0.3364	0.035
Mof_O 	O 	0.44558	0.97579	0.9358	-0.405
Mof_O 	O 	0.46597	0.95238	0.0634	-0.408
Mof_C 	C 	0.44374	0.95225	0.998	0.377
Mof_C 	C 	0.4123	0.9216	0.9951	-0.121
Mof_C 	C 	0.38685	0.91957	0.9242	0.058
Mof_H 	H 	0.3883	0.9387	0.8791	0.032
Mof_C 	C 	0.35927	0.8895	0.9191	-0.129
Mof_H 	H 	0.3419	0.8881	0.8707	0.081
Mof_C 	C 	0.35714	0.86147	0.985	0.089
Mof_C 	C 	0.38259	0.8635	0.0559	-0.128
Mof_H 	H 	0.3811	0.8443	0.101	0.078
Mof_C 	C 	0.41016	0.89357	0.0609	0.056
Mof_H 	H 	0.4276	0.895	0.1094	0.03
Mof_C 	C 	0.32844	0.82917	0.9803	-0.048
Mof_C 	C 	0.32062	0.81047	0.90143	0.026
Mof_H 	H 	0.3319	0.8201	0.8489	0.011
Mof_N 	N 	0.29627	0.77767	0.89948	-0.223
Mof_C 	C 	0.27974	0.76357	0.9764	0.062
Mof_H 	H 	0.2631	0.7411	0.975	0.006
Mof_N 	N 	0.28756	0.78226	0.05522	-0.174
Mof_C 	C 	0.31191	0.81506	0.05718	0.029
Mof_H 	H 	0.3173	0.8278	0.1111	0.034
Mof_Cu	Cu	0.76384	0.76151	0.3252	0.92
Mof_Cu	Cu	0.00145	0.96569	0.03234	0.797
Mof_I 	I 	0.9398	0.01024	0.06532	-0.435
Mof_O 	O 	0.80116	0.79046	0.2505	-0.407
Mof_O 	O 	0.7773	0.77137	0.1223	-0.402
Mof_C 	C 	0.80159	0.78912	0.1691	0.375
Mof_C 	C 	0.83456	0.8102	0.1233	-0.117
Mof_C 	C 	0.8637	0.82811	0.17295	0.054
Mof_H 	H 	0.8615	0.8288	0.2348	0.028
Mof_C 	C 	0.89607	0.84497	0.1321	-0.124
Mof_H 	H 	0.916	0.8572	0.1661	0.076
Mof_C 	C 	0.89932	0.84391	0.0417	0.084
Mof_C 	C 	0.87018	0.82599	0.99199	-0.121
Mof_H 	H 	0.8724	0.8253	0.9301	0.079
Mof_C 	C 	0.8378	0.80914	0.0328	0.054
Mof_H 	H 	0.8179	0.7969	0.9988	0.033
Mof_C 	C 	0.93455	0.86054	0.9987	-0.045
Mof_C 	C 	0.94905	0.89646	0.0277	0.017
Mof_H 	H 	0.9356	0.9105	0.0723	0.014
Mof_N 	N 	0.98319	0.91185	0.9913	-0.223
Mof_C 	C 	0.00283	0.89133	0.9261	0.064
Mof_H 	H 	0.0262	0.9019	0.9013	0.001
Mof_N 	N 	0.98834	0.85542	0.8971	-0.113
Mof_C 	C 	0.9542	0.84003	0.9334	0.027
Mof_H 	H 	0.9443	0.8155	0.9136	0.036
Mof_O 	O 	0.72579	0.80442	0.3142	-0.405
Mof_O 	O 	0.70238	0.78403	0.1866	-0.408
Mof_C 	C 	0.70225	0.80626	0.252	0.376
Mof_C 	C 	0.6716	0.8377	0.2549	-0.121
Mof_C 	C 	0.66957	0.86315	0.3258	0.058
Mof_H 	H 	0.6887	0.8617	0.3709	0.031
Mof_C 	C 	0.6395	0.89073	0.3309	-0.129
Mof_H 	H 	0.6381	0.9081	0.3793	0.081
Mof_C 	C 	0.61147	0.89286	0.265	0.089
Mof_C 	C 	0.6135	0.86741	0.1941	-0.128
Mof_H 	H 	0.5943	0.8689	0.149	0.078
Mof_C 	C 	0.64357	0.83984	0.1891	0.057
Mof_H 	H 	0.645	0.8224	0.1406	0.03
Mof_C 	C 	0.57917	0.92156	0.2697	-0.049
Mof_C 	C 	0.56047	0.92938	0.34857	0.026
Mof_H 	H 	0.5701	0.9181	0.4011	0.011
Mof_N 	N 	0.52767	0.95373	0.35052	-0.223
Mof_C 	C 	0.51357	0.97026	0.2736	0.061
Mof_H 	H 	0.4911	0.9869	0.275	0.006
Mof_N 	N 	0.53226	0.96244	0.19478	-0.174
Mof_C 	C 	0.56506	0.93809	0.19282	0.029
Mof_H 	H 	0.5778	0.9327	0.1389	0.033
Mof_Cu	Cu	0.26384	0.26151	0.8252	0.92
Mof_Cu	Cu	0.50145	0.46569	0.53234	0.797
Mof_I 	I 	0.4398	0.51024	0.56532	-0.435
Mof_O 	O 	0.30116	0.29046	0.7505	-0.407
Mof_O 	O 	0.2773	0.27137	0.6223	-0.402
Mof_C 	C 	0.30159	0.28912	0.6691	0.375
Mof_C 	C 	0.33456	0.3102	0.6233	-0.118
Mof_C 	C 	0.3637	0.32811	0.67295	0.056
Mof_H 	H 	0.3615	0.3288	0.7348	0.027
Mof_C 	C 	0.39607	0.34497	0.6321	-0.126
Mof_H 	H 	0.416	0.3572	0.6661	0.077
Mof_C 	C 	0.39932	0.34391	0.5417	0.086
Mof_C 	C 	0.37018	0.32599	0.49199	-0.123
Mof_H 	H 	0.3724	0.3253	0.4301	0.08
Mof_C 	C 	0.3378	0.30914	0.5328	0.056
Mof_H 	H 	0.3179	0.2969	0.4988	0.033
Mof_C 	C 	0.43455	0.36054	0.4987	-0.046
Mof_C 	C 	0.44905	0.39646	0.5277	0.019
Mof_H 	H 	0.4356	0.4105	0.5723	0.014
Mof_N 	N 	0.48319	0.41185	0.4913	-0.224
Mof_C 	C 	0.50283	0.39133	0.4261	0.064
Mof_H 	H 	0.5262	0.4019	0.4013	0
Mof_N 	N 	0.48834	0.35542	0.3971	-0.114
Mof_C 	C 	0.4542	0.34003	0.4334	0.028
Mof_H 	H 	0.4443	0.3155	0.4136	0.035
Mof_O 	O 	0.22579	0.30442	0.8142	-0.405
Mof_O 	O 	0.20238	0.28403	0.6866	-0.408
Mof_C 	C 	0.20225	0.30626	0.752	0.376
Mof_C 	C 	0.1716	0.3377	0.7549	-0.121
Mof_C 	C 	0.16957	0.36315	0.8258	0.058
Mof_H 	H 	0.1887	0.3617	0.8709	0.031
Mof_C 	C 	0.1395	0.39073	0.8309	-0.129
Mof_H 	H 	0.1381	0.4081	0.8793	0.081
Mof_C 	C 	0.11147	0.39286	0.765	0.089
Mof_C 	C 	0.1135	0.36741	0.6941	-0.128
Mof_H 	H 	0.0943	0.3689	0.649	0.078
Mof_C 	C 	0.14357	0.33984	0.6891	0.057
Mof_H 	H 	0.145	0.3224	0.6406	0.03
Mof_C 	C 	0.07917	0.42156	0.7697	-0.049
Mof_C 	C 	0.06047	0.42938	0.84857	0.026
Mof_H 	H 	0.0701	0.4181	0.9011	0.011
Mof_N 	N 	0.02767	0.45373	0.85052	-0.223
Mof_C 	C 	0.01357	0.47026	0.7736	0.061
Mof_H 	H 	0.9911	0.4869	0.775	0.006
Mof_N 	N 	0.03226	0.46244	0.69478	-0.174
Mof_C 	C 	0.06506	0.43809	0.69282	0.029
Mof_H 	H 	0.0778	0.4327	0.6389	0.033
Mof_Cu	Cu	0.73616	0.23849	0.8252	0.92
Mof_Cu	Cu	0.49855	0.03431	0.53234	0.797
Mof_I 	I 	0.5602	0.98976	0.56532	-0.435
Mof_O 	O 	0.69884	0.20954	0.7505	-0.407
Mof_O 	O 	0.7227	0.22863	0.6223	-0.402
Mof_C 	C 	0.69841	0.21088	0.6691	0.375
Mof_C 	C 	0.66544	0.1898	0.6233	-0.118
Mof_C 	C 	0.6363	0.17189	0.67295	0.056
Mof_H 	H 	0.6385	0.1712	0.7348	0.027
Mof_C 	C 	0.60393	0.15503	0.6321	-0.126
Mof_H 	H 	0.584	0.1428	0.6661	0.077
Mof_C 	C 	0.60068	0.15609	0.5417	0.086
Mof_C 	C 	0.62982	0.17401	0.49199	-0.123
Mof_H 	H 	0.6276	0.1747	0.4301	0.08
Mof_C 	C 	0.6622	0.19086	0.5328	0.056
Mof_H 	H 	0.6821	0.2031	0.4988	0.032
Mof_C 	C 	0.56545	0.13946	0.4987	-0.046
Mof_C 	C 	0.55095	0.10354	0.5277	0.019
Mof_H 	H 	0.5644	0.0895	0.5723	0.014
Mof_N 	N 	0.51681	0.08815	0.4913	-0.224
Mof_C 	C 	0.49717	0.10867	0.4261	0.064
Mof_H 	H 	0.4738	0.0981	0.4013	0
Mof_N 	N 	0.51166	0.14458	0.3971	-0.114
Mof_C 	C 	0.5458	0.15997	0.4334	0.028
Mof_H 	H 	0.5557	0.1845	0.4136	0.035
Mof_O 	O 	0.77421	0.19558	0.8142	-0.405
Mof_O 	O 	0.79762	0.21597	0.6866	-0.408
Mof_C 	C 	0.79775	0.19374	0.752	0.376
Mof_C 	C 	0.8284	0.1623	0.7549	-0.121
Mof_C 	C 	0.83043	0.13685	0.8258	0.058
Mof_H 	H 	0.8113	0.1383	0.8709	0.031
Mof_C 	C 	0.8605	0.10927	0.8309	-0.129
Mof_H 	H 	0.8619	0.0919	0.8793	0.081
Mof_C 	C 	0.88853	0.10714	0.765	0.089
Mof_C 	C 	0.8865	0.13259	0.6941	-0.128
Mof_H 	H 	0.9057	0.1311	0.649	0.078
Mof_C 	C 	0.85643	0.16016	0.6891	0.057
Mof_H 	H 	0.855	0.1776	0.6406	0.03
Mof_C 	C 	0.92083	0.07844	0.7697	-0.049
Mof_C 	C 	0.93953	0.07062	0.84857	0.026
Mof_H 	H 	0.9299	0.0819	0.9011	0.011
Mof_N 	N 	0.97233	0.04627	0.85052	-0.223
Mof_C 	C 	0.98643	0.02974	0.7736	0.061
Mof_H 	H 	0.0089	0.0131	0.775	0.006
Mof_N 	N 	0.96774	0.03756	0.69478	-0.174
Mof_C 	C 	0.93494	0.06191	0.69282	0.029
Mof_H 	H 	0.9222	0.0673	0.6389	0.033
Mof_Cu	Cu	0.23616	0.73849	0.3252	0.92
Mof_Cu	Cu	0.99855	0.53431	0.03234	0.797
Mof_I 	I 	0.0602	0.48976	0.06532	-0.435
Mof_O 	O 	0.19884	0.70954	0.2505	-0.407
Mof_O 	O 	0.2227	0.72863	0.1223	-0.402
Mof_C 	C 	0.19841	0.71088	0.1691	0.375
Mof_C 	C 	0.16544	0.6898	0.1233	-0.117
Mof_C 	C 	0.1363	0.67189	0.17295	0.055
Mof_H 	H 	0.1385	0.6712	0.2348	0.027
Mof_C 	C 	0.10393	0.65503	0.1321	-0.125
Mof_H 	H 	0.084	0.6428	0.1661	0.076
Mof_C 	C 	0.10068	0.65609	0.0417	0.085
Mof_C 	C 	0.12982	0.67401	0.99199	-0.122
Mof_H 	H 	0.1276	0.6747	0.9301	0.079
Mof_C 	C 	0.1622	0.69086	0.0328	0.055
Mof_H 	H 	0.1821	0.7031	0.9988	0.033
Mof_C 	C 	0.06545	0.63946	0.9987	-0.046
Mof_C 	C 	0.05095	0.60354	0.0277	0.018
Mof_H 	H 	0.0644	0.5895	0.0723	0.014
Mof_N 	N 	0.01681	0.58815	0.9913	-0.224
Mof_C 	C 	0.99717	0.60867	0.9261	0.064
Mof_H 	H 	0.9738	0.5981	0.9013	0
Mof_N 	N 	0.01166	0.64458	0.8971	-0.113
Mof_C 	C 	0.0458	0.65997	0.9334	0.028
Mof_H 	H 	0.0557	0.6845	0.9136	0.036
Mof_O 	O 	0.27421	0.69558	0.3142	-0.405
Mof_O 	O 	0.29762	0.71597	0.1866	-0.408
Mof_C 	C 	0.29775	0.69374	0.252	0.376
Mof_C 	C 	0.3284	0.6623	0.2549	-0.121
Mof_C 	C 	0.33043	0.63685	0.3258	0.058
Mof_H 	H 	0.3113	0.6383	0.3709	0.031
Mof_C 	C 	0.3605	0.60927	0.3309	-0.129
Mof_H 	H 	0.3619	0.5919	0.3793	0.081
Mof_C 	C 	0.38853	0.60714	0.265	0.089
Mof_C 	C 	0.3865	0.63259	0.1941	-0.128
Mof_H 	H 	0.4057	0.6311	0.149	0.078
Mof_C 	C 	0.35643	0.66016	0.1891	0.057
Mof_H 	H 	0.355	0.6776	0.1406	0.03
Mof_C 	C 	0.42083	0.57844	0.2697	-0.049
Mof_C 	C 	0.43953	0.57062	0.34857	0.026
Mof_H 	H 	0.4299	0.5819	0.4011	0.011
Mof_N 	N 	0.47233	0.54627	0.35052	-0.223
Mof_C 	C 	0.48643	0.52974	0.2736	0.061
Mof_H 	H 	0.5089	0.5131	0.275	0.006
Mof_N 	N 	0.46774	0.53756	0.19478	-0.174
Mof_C 	C 	0.43494	0.56191	0.19282	0.029
Mof_H 	H 	0.4222	0.5673	0.1389	0.033
Mof_Cu	Cu	0.48849	0.51384	0.0752	0.92
Mof_Cu	Cu	0.28431	0.75145	0.78234	0.797
Mof_I 	I 	0.23976	0.6898	0.81532	-0.435
Mof_O 	O 	0.45954	0.55116	0.0005	-0.407
Mof_O 	O 	0.47863	0.5273	0.8723	-0.402
Mof_C 	C 	0.46088	0.55159	0.9191	0.375
Mof_C 	C 	0.4398	0.58456	0.8733	-0.118
Mof_C 	C 	0.42189	0.6137	0.92295	0.056
Mof_H 	H 	0.4212	0.6115	0.9848	0.027
Mof_C 	C 	0.40503	0.64607	0.8821	-0.126
Mof_H 	H 	0.3928	0.666	0.9161	0.077
Mof_C 	C 	0.40609	0.64932	0.7917	0.086
Mof_C 	C 	0.42401	0.62018	0.74199	-0.123
Mof_H 	H 	0.4247	0.6224	0.6801	0.08
Mof_C 	C 	0.44086	0.5878	0.7828	0.056
Mof_H 	H 	0.4531	0.5679	0.7488	0.032
Mof_C 	C 	0.38946	0.68455	0.7487	-0.046
Mof_C 	C 	0.35354	0.69905	0.7777	0.019
Mof_H 	H 	0.3395	0.6856	0.8223	0.014
Mof_N 	N 	0.33815	0.73319	0.7413	-0.224
Mof_C 	C 	0.35867	0.75283	0.6761	0.064
Mof_H 	H 	0.3481	0.7762	0.6513	0
Mof_N 	N 	0.39458	0.73834	0.6471	-0.114
Mof_C 	C 	0.40997	0.7042	0.6834	0.028
Mof_H 	H 	0.4345	0.6943	0.6636	0.035
Mof_O 	O 	0.44558	0.47579	0.0642	-0.405
Mof_O 	O 	0.46597	0.45238	0.9366	-0.408
Mof_C 	C 	0.44374	0.45225	0.002	0.376
Mof_C 	C 	0.4123	0.4216	0.0049	-0.121
Mof_C 	C 	0.38685	0.41957	0.0758	0.058
Mof_H 	H 	0.3883	0.4387	0.1209	0.031
Mof_C 	C 	0.35927	0.3895	0.0809	-0.129
Mof_H 	H 	0.3419	0.3881	0.1293	0.081
Mof_C 	C 	0.35714	0.36147	0.015	0.089
Mof_C 	C 	0.38259	0.3635	0.9441	-0.128
Mof_H 	H 	0.3811	0.3443	0.899	0.078
Mof_C 	C 	0.41016	0.39357	0.9391	0.057
Mof_H 	H 	0.4276	0.395	0.8906	0.03
Mof_C 	C 	0.32844	0.32917	0.0197	-0.049
Mof_C 	C 	0.32062	0.31047	0.09857	0.026
Mof_H 	H 	0.3319	0.3201	0.1511	0.011
Mof_N 	N 	0.29627	0.27767	0.10052	-0.223
Mof_C 	C 	0.27974	0.26357	0.0236	0.061
Mof_H 	H 	0.2631	0.2411	0.025	0.006
Mof_N 	N 	0.28756	0.28226	0.94478	-0.174
Mof_C 	C 	0.31191	0.31506	0.94282	0.029
Mof_H 	H 	0.3173	0.3278	0.8889	0.033
Mof_Cu	Cu	0.98849	0.01384	0.5752	0.92
Mof_Cu	Cu	0.78431	0.25145	0.28234	0.797
Mof_I 	I 	0.73976	0.1898	0.31532	-0.435
Mof_O 	O 	0.95954	0.05116	0.5005	-0.407
Mof_O 	O 	0.97863	0.0273	0.3723	-0.402
Mof_C 	C 	0.96088	0.05159	0.4191	0.375
Mof_C 	C 	0.9398	0.08456	0.3733	-0.118
Mof_C 	C 	0.92189	0.1137	0.42295	0.056
Mof_H 	H 	0.9212	0.1115	0.4848	0.027
Mof_C 	C 	0.90503	0.14607	0.3821	-0.126
Mof_H 	H 	0.8928	0.166	0.4161	0.077
Mof_C 	C 	0.90609	0.14932	0.2917	0.086
Mof_C 	C 	0.92401	0.12018	0.24199	-0.123
Mof_H 	H 	0.9247	0.1224	0.1801	0.08
Mof_C 	C 	0.94086	0.0878	0.2828	0.056
Mof_H 	H 	0.9531	0.0679	0.2488	0.033
Mof_C 	C 	0.88946	0.18455	0.2487	-0.046
Mof_C 	C 	0.85354	0.19905	0.2777	0.019
Mof_H 	H 	0.8395	0.1856	0.3223	0.014
Mof_N 	N 	0.83815	0.23319	0.2413	-0.224
Mof_C 	C 	0.85867	0.25283	0.1761	0.064
Mof_H 	H 	0.8481	0.2762	0.1513	0
Mof_N 	N 	0.89458	0.23834	0.1471	-0.113
Mof_C 	C 	0.90997	0.2042	0.1834	0.028
Mof_H 	H 	0.9345	0.1943	0.1636	0.035
Mof_O 	O 	0.94558	0.97579	0.5642	-0.404
Mof_O 	O 	0.96597	0.95238	0.4366	-0.407
Mof_C 	C 	0.94374	0.95225	0.502	0.376
Mof_C 	C 	0.9123	0.9216	0.5049	-0.121
Mof_C 	C 	0.88685	0.91957	0.5758	0.058
Mof_H 	H 	0.8883	0.9387	0.6209	0.032
Mof_C 	C 	0.85927	0.8895	0.5809	-0.129
Mof_H 	H 	0.8419	0.8881	0.6293	0.081
Mof_C 	C 	0.85714	0.86147	0.515	0.089
Mof_C 	C 	0.88259	0.8635	0.4441	-0.128
Mof_H 	H 	0.8811	0.8443	0.399	0.078
Mof_C 	C 	0.91016	0.89357	0.4391	0.057
Mof_H 	H 	0.9276	0.895	0.3906	0.03
Mof_C 	C 	0.82844	0.82917	0.5197	-0.049
Mof_C 	C 	0.82062	0.81047	0.59857	0.026
Mof_H 	H 	0.8319	0.8201	0.6511	0.011
Mof_N 	N 	0.79627	0.77767	0.60052	-0.223
Mof_C 	C 	0.77974	0.76357	0.5236	0.061
Mof_H 	H 	0.7631	0.7411	0.525	0.006
Mof_N 	N 	0.78756	0.78226	0.44478	-0.174
Mof_C 	C 	0.81191	0.81506	0.44282	0.029
Mof_H 	H 	0.8173	0.8278	0.3889	0.033
Mof_Cu	Cu	0.01151	0.48616	0.5752	0.92
Mof_Cu	Cu	0.21569	0.24855	0.28234	0.797
Mof_I 	I 	0.26024	0.3102	0.31532	-0.435
Mof_O 	O 	0.04046	0.44884	0.5005	-0.407
Mof_O 	O 	0.02137	0.4727	0.3723	-0.402
Mof_C 	C 	0.03912	0.44841	0.4191	0.375
Mof_C 	C 	0.0602	0.41544	0.3733	-0.118
Mof_C 	C 	0.07811	0.3863	0.42295	0.056
Mof_H 	H 	0.0788	0.3885	0.4848	0.027
Mof_C 	C 	0.09497	0.35393	0.3821	-0.126
Mof_H 	H 	0.1072	0.334	0.4161	0.077
Mof_C 	C 	0.09391	0.35068	0.2917	0.086
Mof_C 	C 	0.07599	0.37982	0.24199	-0.123
Mof_H 	H 	0.0753	0.3776	0.1801	0.08
Mof_C 	C 	0.05914	0.4122	0.2828	0.056
Mof_H 	H 	0.0469	0.4321	0.2488	0.033
Mof_C 	C 	0.11054	0.31545	0.2487	-0.046
Mof_C 	C 	0.14646	0.30095	0.2777	0.019
Mof_H 	H 	0.1605	0.3144	0.3223	0.014
Mof_N 	N 	0.16185	0.26681	0.2413	-0.224
Mof_C 	C 	0.14133	0.24717	0.1761	0.064
Mof_H 	H 	0.1519	0.2238	0.1513	0
Mof_N 	N 	0.10542	0.26166	0.1471	-0.113
Mof_C 	C 	0.09003	0.2958	0.1834	0.028
Mof_H 	H 	0.0655	0.3057	0.1636	0.035
Mof_O 	O 	0.05442	0.52421	0.5642	-0.405
Mof_O 	O 	0.03403	0.54762	0.4366	-0.407
Mof_C 	C 	0.05626	0.54775	0.502	0.376
Mof_C 	C 	0.0877	0.5784	0.5049	-0.121
Mof_C 	C 	0.11315	0.58043	0.5758	0.058
Mof_H 	H 	0.1117	0.5613	0.6209	0.031
Mof_C 	C 	0.14073	0.6105	0.5809	-0.129
Mof_H 	H 	0.1581	0.6119	0.6293	0.081
Mof_C 	C 	0.14286	0.63853	0.515	0.089
Mof_C 	C 	0.11741	0.6365	0.4441	-0.128
Mof_H 	H 	0.1189	0.6557	0.399	0.078
Mof_C 	C 	0.08984	0.60643	0.4391	0.057
Mof_H 	H 	0.0724	0.605	0.3906	0.03
Mof_C 	C 	0.17156	0.67083	0.5197	-0.049
Mof_C 	C 	0.17938	0.68953	0.59857	0.026
Mof_H 	H 	0.1681	0.6799	0.6511	0.011
Mof_N 	N 	0.20373	0.72233	0.60052	-0.223
Mof_C 	C 	0.22026	0.73643	0.5236	0.061
Mof_H 	H 	0.2369	0.7589	0.525	0.006
Mof_N 	N 	0.21244	0.71774	0.44478	-0.174
Mof_C 	C 	0.18809	0.68494	0.44282	0.029
Mof_H 	H 	0.1827	0.6722	0.3889	0.033
Mof_Cu	Cu	0.51151	0.98616	0.0752	0.919
Mof_Cu	Cu	0.71569	0.74855	0.78234	0.797
Mof_I 	I 	0.76024	0.8102	0.81532	-0.435
Mof_O 	O 	0.54046	0.94884	0.0005	-0.407
Mof_O 	O 	0.52137	0.9727	0.8723	-0.402
Mof_C 	C 	0.53912	0.94841	0.9191	0.376
Mof_C 	C 	0.5602	0.91544	0.8733	-0.118
Mof_C 	C 	0.57811	0.8863	0.92295	0.056
Mof_H 	H 	0.5788	0.8885	0.9848	0.027
Mof_C 	C 	0.59497	0.85393	0.8821	-0.126
Mof_H 	H 	0.6072	0.834	0.9161	0.077
Mof_C 	C 	0.59391	0.85068	0.7917	0.086
Mof_C 	C 	0.57599	0.87982	0.74199	-0.124
Mof_H 	H 	0.5753	0.8776	0.6801	0.08
Mof_C 	C 	0.55914	0.9122	0.7828	0.057
Mof_H 	H 	0.5469	0.9321	0.7488	0.032
Mof_C 	C 	0.61054	0.81545	0.7487	-0.046
Mof_C 	C 	0.64646	0.80095	0.7777	0.019
Mof_H 	H 	0.6605	0.8144	0.8223	0.014
Mof_N 	N 	0.66185	0.76681	0.7413	-0.224
Mof_C 	C 	0.64133	0.74717	0.6761	0.064
Mof_H 	H 	0.6519	0.7238	0.6513	0
Mof_N 	N 	0.60542	0.76166	0.6471	-0.114
Mof_C 	C 	0.59003	0.7958	0.6834	0.028
Mof_H 	H 	0.5655	0.8057	0.6636	0.035
Mof_O 	O 	0.55442	0.02421	0.0642	-0.405
Mof_O 	O 	0.53403	0.04762	0.9366	-0.408
Mof_C 	C 	0.55626	0.04775	0.002	0.377
Mof_C 	C 	0.5877	0.0784	0.0049	-0.121
Mof_C 	C 	0.61315	0.08043	0.0758	0.058
Mof_H 	H 	0.6117	0.0613	0.1209	0.032
Mof_C 	C 	0.64073	0.1105	0.0809	-0.129
Mof_H 	H 	0.6581	0.1119	0.1293	0.081
Mof_C 	C 	0.64286	0.13853	0.015	0.089
Mof_C 	C 	0.61741	0.1365	0.9441	-0.128
Mof_H 	H 	0.6189	0.1557	0.899	0.078
Mof_C 	C 	0.58984	0.10643	0.9391	0.056
Mof_H 	H 	0.5724	0.105	0.8906	0.03
Mof_C 	C 	0.67156	0.17083	0.0197	-0.048
Mof_C 	C 	0.67938	0.18953	0.09857	0.026
Mof_H 	H 	0.6681	0.1799	0.1511	0.011
Mof_N 	N 	0.70373	0.22233	0.10052	-0.223
Mof_C 	C 	0.72026	0.23643	0.0236	0.062
Mof_H 	H 	0.7369	0.2589	0.025	0.006
Mof_N 	N 	0.71244	0.21774	0.94478	-0.174
Mof_C 	C 	0.68809	0.18494	0.94282	0.029
Mof_H 	H 	0.6827	0.1722	0.8889	0.034
_end
