data_functionalizedCrystal
_audit_creation_method	'EQeq! by Chris Wilmer'
_symmetry_space_group_name_H-M	'P1'
_symmetry_Int_Tables_number	1
_symmetry_cell_setting	triclinic
loop_
_symmetry_equiv_pos_as_xyz
  x,y,z
_cell_length_a	18.49
_cell_length_b	27.509
_cell_length_c	22.86
_cell_angle_alpha	90
_cell_angle_beta	123.23
_cell_angle_gamma	90
loop_
_atom_site_label
_atom_site_type_symbol
_atom_site_fract_x
_atom_site_fract_y
_atom_site_fract_z
_atom_site_charge
Mof_O 	O 	0.3423	0.2103	0.551	-0.438
Mof_O 	O 	0.2737	0.2202	0.4354	-0.456
Mof_C 	C 	0.2968	0.2338	0.4959	0.388
Mof_O 	O 	0.5365	0.6382	0.1978	-0.418
Mof_O 	O 	0.5435	0.5778	0.1391	-0.325
Mof_C 	C 	0.508	0.5989	0.1668	0.312
Mof_C 	C 	0.4321	0.5755	0.1618	-0.09
Mof_C 	C 	0.3859	0.5994	0.1829	0.028
Mof_H 	H 	0.3998	0.6313	0.1984	0.04
Mof_C 	C 	0.3178	0.5764	0.1815	-0.1
Mof_H 	H 	0.2871	0.593	0.1966	0.068
Mof_C 	C 	0.2956	0.5291	0.1579	0.041
Mof_C 	C 	0.2239	0.5032	0.1565	0.051
Mof_C 	C 	0.1466	0.5257	0.1324	-0.113
Mof_H 	H 	0.1387	0.558	0.1179	0.072
Mof_C 	C 	0.0778	0.4995	0.1296	0.041
Mof_C 	C 	0.992	0.524	0.097	0.043
Mof_C 	C 	0.9575	0.5498	0.0345	-0.117
Mof_H 	H 	0.9876	0.5508	0.0126	0.075
Mof_C 	C 	0.8805	0.5737	0.0051	0.048
Mof_H 	H 	0.8585	0.5903	0.9633	0.027
Mof_C 	C 	0.834	0.5734	0.0371	-0.136
Mof_O 	O 	0.5091	0.6443	0.8412	-0.368
Mof_O 	O 	0.525	0.5779	0.8987	-0.336
Mof_C 	C 	0.4871	0.6007	0.842	0.302
Mof_C 	C 	0.4165	0.577	0.7768	-0.083
Mof_C 	C 	0.3768	0.6017	0.7148	0.017
Mof_H 	H 	0.3909	0.6341	0.7141	0.045
Mof_C 	C 	0.3134	0.5779	0.6508	-0.091
Mof_H 	H 	0.2874	0.5943	0.6083	0.066
Mof_C 	C 	0.2919	0.5311	0.6532	0.034
Mof_C 	C 	0.2338	0.5036	0.5863	0.056
Mof_C 	C 	0.1588	0.5255	0.5305	-0.121
Mof_H 	H 	0.1438	0.5568	0.5354	0.075
Mof_C 	C 	0.1072	0.5007	0.4683	0.05
Mof_C 	C 	0.0268	0.524	0.4117	0.04
Mof_C 	C 	0.971	0.5481	0.4233	-0.107
Mof_H 	H 	0.9854	0.5499	0.4691	0.071
Mof_C 	C 	0.8954	0.5699	0.3724	0.038
Mof_H 	H 	0.8592	0.5854	0.3829	0.03
Mof_C 	C 	0.8754	0.5678	0.3039	-0.114
Mof_C 	C 	0.2505	0.4561	0.5783	-0.122
Mof_H 	H 	0.2988	0.4409	0.6156	0.078
Mof_C 	C 	0.7942	0.5925	0.2471	0.358
Mof_O 	O 	0.738	0.6061	0.259	-0.449
Mof_C 	C 	0.2529	0.2287	0.2701	0.379
Mof_C 	C 	0.1507	0.3539	0.2295	-0.127
Mof_H 	H 	0.1148	0.3715	0.2384	0.073
Mof_C 	C 	0.1698	0.3059	0.2507	0.06
Mof_H 	H 	0.1447	0.2913	0.2722	0.019
Mof_C 	C 	0.2248	0.2797	0.2407	-0.129
Mof_C 	C 	0.2567	0.3008	0.2042	0.061
Mof_H 	H 	0.292	0.283	0.1949	0.03
Mof_C 	C 	0.236	0.3483	0.1818	-0.131
Mof_H 	H 	0.2574	0.362	0.1571	0.09
Mof_C 	C 	0.4068	0.5273	0.1348	0.024
Mof_H 	H 	0.4353	0.5111	0.1173	0.052
Mof_C 	C 	0.3407	0.5051	0.1348	-0.101
Mof_H 	H 	0.3259	0.4732	0.1189	0.083
Mof_C 	C 	0.2348	0.4551	0.1765	-0.11
Mof_H 	H 	0.2871	0.44	0.1912	0.077
Mof_C 	C 	0.1696	0.4281	0.1755	0.036
Mof_C 	C 	0.0906	0.4519	0.1513	-0.11
Mof_H 	H 	0.0461	0.4351	0.15	0.068
Mof_C 	C 	0.8672	0.5482	0.0979	0.042
Mof_H 	H 	0.8375	0.5482	0.12	0.027
Mof_C 	C 	0.9435	0.5228	0.1274	-0.113
Mof_H 	H 	0.9631	0.5046	0.1677	0.068
Mof_O 	O 	0.2164	0.2076	0.2948	-0.449
Mof_O 	O 	0.3178	0.2116	0.2698	-0.441
Mof_C 	C 	0.1843	0.3759	0.1952	0.061
Mof_Co	Co	0.63885	0.64638	0.19276	1.18
Mof_Co	Co	0.60981	0.64471	0.94525	1.193
Mof_Co	Co	0.75401	0.65964	0.12383	1.167
Mof_O 	O 	0.7115	0.6098	0.9395	-0.387
Mof_O 	O 	0.7192	0.6126	0.0381	-0.513
Mof_O 	O 	0.7894	0.6005	0.1895	-0.434
Mof_O 	O 	0.6249	0.6529	0.0948	-0.618
Mof_O 	O 	0.5351	0.6611	0.9827	-0.473
Mof_C 	C 	0.7506	0.6003	0.0032	0.346
Mof_C 	C 	0.9282	0.5427	0.2883	0.038
Mof_H 	H 	0.9135	0.5401	0.2425	0.024
Mof_C 	C 	0.0031	0.5217	0.3428	-0.107
Mof_H 	H 	0.0391	0.5054	0.3328	0.066
Mof_C 	C 	0.1286	0.4533	0.4627	-0.122
Mof_H 	H 	0.0944	0.4368	0.4205	0.072
Mof_C 	C 	0.1989	0.4301	0.5176	0.055
Mof_C 	C 	0.3307	0.5068	0.7184	-0.094
Mof_H 	H 	0.3143	0.4752	0.7206	0.076
Mof_C 	C 	0.3918	0.53	0.7776	0.022
Mof_H 	H 	0.4178	0.5136	0.8201	0.053
Mof_C 	C 	0.2227	0.3798	0.5114	0.036
Mof_C 	C 	0.2634	0.3478	0.5708	-0.104
Mof_H 	H 	0.2749	0.3588	0.6135	0.069
Mof_C 	C 	0.2852	0.3019	0.5654	0.042
Mof_H 	H 	0.3119	0.2817	0.6044	0.035
Mof_C 	C 	0.2676	0.2846	0.5009	-0.119
Mof_C 	C 	0.2292	0.3145	0.4444	0.044
Mof_H 	H 	0.2187	0.3032	0.4021	0.028
Mof_C 	C 	0.2056	0.3613	0.4486	-0.107
Mof_H 	H 	0.1777	0.3807	0.4088	0.067
Mof_C 	C 	0.5527	0.6613	0.0434	0.583
Mof_H 	H 	0.5086	0.6682	0.0503	-0.167
Mof_O 	O 	0.6577	0.7103	0.949	-0.438
Mof_O 	O 	0.7263	0.7202	0.0646	-0.457
Mof_C 	C 	0.7032	0.7338	0.0041	0.387
Mof_O 	O 	0.4635	0.1382	0.3022	-0.418
Mof_O 	O 	0.4565	0.0778	0.3609	-0.325
Mof_C 	C 	0.492	0.0989	0.3332	0.312
Mof_C 	C 	0.5679	0.0755	0.3382	-0.09
Mof_C 	C 	0.6141	0.0994	0.3171	0.028
Mof_H 	H 	0.6002	0.1313	0.3016	0.04
Mof_C 	C 	0.6822	0.0764	0.3185	-0.1
Mof_H 	H 	0.7129	0.093	0.3034	0.068
Mof_C 	C 	0.7044	0.0291	0.3421	0.041
Mof_C 	C 	0.7761	0.0032	0.3435	0.051
Mof_C 	C 	0.8534	0.0257	0.3676	-0.112
Mof_H 	H 	0.8613	0.058	0.3821	0.071
Mof_C 	C 	0.9222	0.9995	0.3704	0.039
Mof_C 	C 	0.008	0.024	0.403	0.046
Mof_C 	C 	0.0425	0.0498	0.4655	-0.119
Mof_H 	H 	0.0124	0.0508	0.4874	0.076
Mof_C 	C 	0.1195	0.0737	0.4949	0.051
Mof_H 	H 	0.1415	0.0903	0.5367	0.026
Mof_C 	C 	0.166	0.0734	0.4629	-0.138
Mof_O 	O 	0.4909	0.1443	0.6588	-0.368
Mof_O 	O 	0.475	0.0779	0.6013	-0.336
Mof_C 	C 	0.5129	0.1007	0.658	0.302
Mof_C 	C 	0.5835	0.077	0.7232	-0.083
Mof_C 	C 	0.6232	0.1017	0.7852	0.017
Mof_H 	H 	0.6091	0.1341	0.7859	0.045
Mof_C 	C 	0.6866	0.0779	0.8492	-0.091
Mof_H 	H 	0.7126	0.0943	0.8917	0.066
Mof_C 	C 	0.7081	0.0311	0.8468	0.034
Mof_C 	C 	0.7662	0.0036	0.9137	0.057
Mof_C 	C 	0.8412	0.0255	0.9695	-0.121
Mof_H 	H 	0.8562	0.0568	0.9646	0.075
Mof_C 	C 	0.8928	0.0007	0.0317	0.051
Mof_C 	C 	0.9732	0.024	0.0883	0.039
Mof_C 	C 	0.029	0.0481	0.0767	-0.106
Mof_H 	H 	0.0146	0.0499	0.0309	0.071
Mof_C 	C 	0.1046	0.0699	0.1276	0.038
Mof_H 	H 	0.1408	0.0854	0.1171	0.03
Mof_C 	C 	0.1246	0.0678	0.1961	-0.114
Mof_C 	C 	0.7495	0.9561	0.9217	-0.123
Mof_H 	H 	0.7012	0.9409	0.8844	0.078
Mof_C 	C 	0.2058	0.0925	0.2529	0.358
Mof_O 	O 	0.262	0.1061	0.241	-0.449
Mof_C 	C 	0.7471	0.7287	0.2299	0.38
Mof_C 	C 	0.8493	0.8539	0.2705	-0.127
Mof_H 	H 	0.8852	0.8715	0.2616	0.073
Mof_C 	C 	0.8302	0.8059	0.2493	0.06
Mof_H 	H 	0.8553	0.7913	0.2278	0.018
Mof_C 	C 	0.7752	0.7797	0.2593	-0.129
Mof_C 	C 	0.7433	0.8008	0.2958	0.061
Mof_H 	H 	0.708	0.783	0.3051	0.03
Mof_C 	C 	0.764	0.8483	0.3182	-0.131
Mof_H 	H 	0.7426	0.862	0.3429	0.09
Mof_C 	C 	0.5932	0.0273	0.3652	0.024
Mof_H 	H 	0.5647	0.0111	0.3827	0.052
Mof_C 	C 	0.6593	0.0051	0.3652	-0.101
Mof_H 	H 	0.6741	0.9732	0.3811	0.083
Mof_C 	C 	0.7652	0.9551	0.3235	-0.11
Mof_H 	H 	0.7129	0.94	0.3088	0.077
Mof_C 	C 	0.8304	0.9281	0.3245	0.036
Mof_C 	C 	0.9094	0.9519	0.3487	-0.109
Mof_H 	H 	0.9539	0.9351	0.35	0.068
Mof_C 	C 	0.1328	0.0482	0.4021	0.044
Mof_H 	H 	0.1625	0.0482	0.38	0.026
Mof_C 	C 	0.0565	0.0228	0.3726	-0.115
Mof_H 	H 	0.0369	0.0046	0.3323	0.069
Mof_O 	O 	0.7836	0.7076	0.2052	-0.449
Mof_O 	O 	0.6822	0.7116	0.2302	-0.441
Mof_C 	C 	0.8157	0.8759	0.3048	0.061
Mof_Co	Co	0.36115	0.14638	0.30724	1.18
Mof_Co	Co	0.39019	0.14471	0.55475	1.193
Mof_Co	Co	0.24599	0.15964	0.37617	1.167
Mof_O 	O 	0.2885	0.1098	0.5605	-0.388
Mof_O 	O 	0.2808	0.1126	0.4619	-0.513
Mof_O 	O 	0.2106	0.1005	0.3105	-0.434
Mof_O 	O 	0.3751	0.1529	0.4052	-0.618
Mof_O 	O 	0.4649	0.1611	0.5173	-0.473
Mof_C 	C 	0.2494	0.1003	0.4968	0.347
Mof_C 	C 	0.0718	0.0427	0.2117	0.039
Mof_H 	H 	0.0865	0.0401	0.2575	0.024
Mof_C 	C 	0.9969	0.0217	0.1572	-0.107
Mof_H 	H 	0.9609	0.0054	0.1672	0.066
Mof_C 	C 	0.8714	0.9533	0.0373	-0.124
Mof_H 	H 	0.9056	0.9368	0.0795	0.072
Mof_C 	C 	0.8011	0.9301	0.9824	0.057
Mof_C 	C 	0.6693	0.0068	0.7816	-0.094
Mof_H 	H 	0.6857	0.9752	0.7794	0.076
Mof_C 	C 	0.6082	0.03	0.7224	0.022
Mof_H 	H 	0.5822	0.0136	0.6799	0.053
Mof_C 	C 	0.7773	0.8798	0.9886	0.035
Mof_C 	C 	0.7366	0.8478	0.9292	-0.103
Mof_H 	H 	0.7251	0.8588	0.8865	0.069
Mof_C 	C 	0.7148	0.8019	0.9346	0.041
Mof_H 	H 	0.6881	0.7817	0.8956	0.035
Mof_C 	C 	0.7324	0.7846	0.9991	-0.117
Mof_C 	C 	0.7708	0.8145	0.0556	0.043
Mof_H 	H 	0.7813	0.8032	0.0979	0.028
Mof_C 	C 	0.7944	0.8613	0.0514	-0.106
Mof_H 	H 	0.8223	0.8807	0.0912	0.066
Mof_C 	C 	0.4473	0.1613	0.4566	0.583
Mof_H 	H 	0.4914	0.1682	0.4497	-0.167
Mof_O 	O 	0.6577	0.7897	0.449	-0.439
Mof_O 	O 	0.7263	0.7798	0.5646	-0.457
Mof_C 	C 	0.7032	0.7662	0.5041	0.388
Mof_O 	O 	0.4635	0.3618	0.8022	-0.418
Mof_O 	O 	0.4565	0.4222	0.8609	-0.325
Mof_C 	C 	0.492	0.4011	0.8332	0.312
Mof_C 	C 	0.5679	0.4245	0.8382	-0.09
Mof_C 	C 	0.6141	0.4006	0.8171	0.028
Mof_H 	H 	0.6002	0.3687	0.8016	0.04
Mof_C 	C 	0.6822	0.4236	0.8185	-0.1
Mof_H 	H 	0.7129	0.407	0.8034	0.068
Mof_C 	C 	0.7044	0.4709	0.8421	0.041
Mof_C 	C 	0.7761	0.4968	0.8435	0.051
Mof_C 	C 	0.8534	0.4743	0.8676	-0.113
Mof_H 	H 	0.8613	0.442	0.8821	0.072
Mof_C 	C 	0.9222	0.5005	0.8704	0.041
Mof_C 	C 	0.008	0.476	0.903	0.043
Mof_C 	C 	0.0425	0.4502	0.9655	-0.117
Mof_H 	H 	0.0124	0.4492	0.9874	0.075
Mof_C 	C 	0.1195	0.4263	0.9949	0.048
Mof_H 	H 	0.1415	0.4097	0.0367	0.027
Mof_C 	C 	0.166	0.4266	0.9629	-0.136
Mof_O 	O 	0.4909	0.3557	0.1588	-0.368
Mof_O 	O 	0.475	0.4221	0.1013	-0.336
Mof_C 	C 	0.5129	0.3993	0.158	0.302
Mof_C 	C 	0.5835	0.423	0.2232	-0.083
Mof_C 	C 	0.6232	0.3983	0.2852	0.017
Mof_H 	H 	0.6091	0.3659	0.2859	0.045
Mof_C 	C 	0.6866	0.4221	0.3492	-0.091
Mof_H 	H 	0.7126	0.4057	0.3917	0.066
Mof_C 	C 	0.7081	0.4689	0.3468	0.034
Mof_C 	C 	0.7662	0.4964	0.4137	0.056
Mof_C 	C 	0.8412	0.4745	0.4695	-0.121
Mof_H 	H 	0.8562	0.4432	0.4646	0.075
Mof_C 	C 	0.8928	0.4993	0.5317	0.05
Mof_C 	C 	0.9732	0.476	0.5883	0.04
Mof_C 	C 	0.029	0.4519	0.5767	-0.107
Mof_H 	H 	0.0146	0.4501	0.5309	0.071
Mof_C 	C 	0.1046	0.4301	0.6276	0.038
Mof_H 	H 	0.1408	0.4146	0.6171	0.03
Mof_C 	C 	0.1246	0.4322	0.6961	-0.114
Mof_C 	C 	0.7495	0.5439	0.4217	-0.122
Mof_H 	H 	0.7012	0.5591	0.3844	0.078
Mof_C 	C 	0.2058	0.4075	0.7529	0.358
Mof_O 	O 	0.262	0.3939	0.741	-0.449
Mof_C 	C 	0.7471	0.7713	0.7299	0.379
Mof_C 	C 	0.8493	0.6461	0.7705	-0.127
Mof_H 	H 	0.8852	0.6285	0.7616	0.073
Mof_C 	C 	0.8302	0.6941	0.7493	0.06
Mof_H 	H 	0.8553	0.7087	0.7278	0.019
Mof_C 	C 	0.7752	0.7203	0.7593	-0.129
Mof_C 	C 	0.7433	0.6992	0.7958	0.061
Mof_H 	H 	0.708	0.717	0.8051	0.03
Mof_C 	C 	0.764	0.6517	0.8182	-0.131
Mof_H 	H 	0.7426	0.638	0.8429	0.09
Mof_C 	C 	0.5932	0.4727	0.8652	0.024
Mof_H 	H 	0.5647	0.4889	0.8827	0.052
Mof_C 	C 	0.6593	0.4949	0.8652	-0.101
Mof_H 	H 	0.6741	0.5268	0.8811	0.083
Mof_C 	C 	0.7652	0.5449	0.8235	-0.11
Mof_H 	H 	0.7129	0.56	0.8088	0.077
Mof_C 	C 	0.8304	0.5719	0.8245	0.036
Mof_C 	C 	0.9094	0.5481	0.8487	-0.11
Mof_H 	H 	0.9539	0.5649	0.85	0.068
Mof_C 	C 	0.1328	0.4518	0.9021	0.042
Mof_H 	H 	0.1625	0.4518	0.88	0.027
Mof_C 	C 	0.0565	0.4772	0.8726	-0.113
Mof_H 	H 	0.0369	0.4954	0.8323	0.068
Mof_O 	O 	0.7836	0.7924	0.7052	-0.449
Mof_O 	O 	0.6822	0.7884	0.7302	-0.441
Mof_C 	C 	0.8157	0.6241	0.8048	0.061
Mof_Co	Co	0.36115	0.35362	0.80724	1.18
Mof_Co	Co	0.39019	0.35529	0.05475	1.193
Mof_Co	Co	0.24599	0.34036	0.87617	1.167
Mof_O 	O 	0.2885	0.3902	0.0605	-0.387
Mof_O 	O 	0.2808	0.3874	0.9619	-0.513
Mof_O 	O 	0.2106	0.3995	0.8105	-0.434
Mof_O 	O 	0.3751	0.3471	0.9052	-0.618
Mof_O 	O 	0.4649	0.3389	0.0173	-0.473
Mof_C 	C 	0.2494	0.3997	0.9968	0.346
Mof_C 	C 	0.0718	0.4573	0.7117	0.038
Mof_H 	H 	0.0865	0.4599	0.7575	0.024
Mof_C 	C 	0.9969	0.4783	0.6572	-0.107
Mof_H 	H 	0.9609	0.4946	0.6672	0.066
Mof_C 	C 	0.8714	0.5467	0.5373	-0.122
Mof_H 	H 	0.9056	0.5632	0.5795	0.072
Mof_C 	C 	0.8011	0.5699	0.4824	0.055
Mof_C 	C 	0.6693	0.4932	0.2816	-0.094
Mof_H 	H 	0.6857	0.5248	0.2794	0.076
Mof_C 	C 	0.6082	0.47	0.2224	0.022
Mof_H 	H 	0.5822	0.4864	0.1799	0.053
Mof_C 	C 	0.7773	0.6202	0.4886	0.036
Mof_C 	C 	0.7366	0.6522	0.4292	-0.104
Mof_H 	H 	0.7251	0.6412	0.3865	0.069
Mof_C 	C 	0.7148	0.6981	0.4346	0.042
Mof_H 	H 	0.6881	0.7183	0.3956	0.035
Mof_C 	C 	0.7324	0.7154	0.4991	-0.119
Mof_C 	C 	0.7708	0.6855	0.5556	0.044
Mof_H 	H 	0.7813	0.6968	0.5979	0.028
Mof_C 	C 	0.7944	0.6387	0.5514	-0.107
Mof_H 	H 	0.8223	0.6193	0.5912	0.067
Mof_C 	C 	0.4473	0.3387	0.9566	0.583
Mof_H 	H 	0.4914	0.3318	0.9497	-0.167
Mof_O 	O 	0.3423	0.2897	0.051	-0.438
Mof_O 	O 	0.2737	0.2798	0.9354	-0.457
Mof_C 	C 	0.2968	0.2662	0.9959	0.387
Mof_O 	O 	0.5365	0.8618	0.6978	-0.418
Mof_O 	O 	0.5435	0.9222	0.6391	-0.325
Mof_C 	C 	0.508	0.9011	0.6668	0.312
Mof_C 	C 	0.4321	0.9245	0.6618	-0.09
Mof_C 	C 	0.3859	0.9006	0.6829	0.028
Mof_H 	H 	0.3998	0.8687	0.6984	0.04
Mof_C 	C 	0.3178	0.9236	0.6815	-0.1
Mof_H 	H 	0.2871	0.907	0.6966	0.068
Mof_C 	C 	0.2956	0.9709	0.6579	0.041
Mof_C 	C 	0.2239	0.9968	0.6565	0.051
Mof_C 	C 	0.1466	0.9743	0.6324	-0.112
Mof_H 	H 	0.1387	0.942	0.6179	0.071
Mof_C 	C 	0.0778	0.0005	0.6296	0.039
Mof_C 	C 	0.992	0.976	0.597	0.046
Mof_C 	C 	0.9575	0.9502	0.5345	-0.119
Mof_H 	H 	0.9876	0.9492	0.5126	0.076
Mof_C 	C 	0.8805	0.9263	0.5051	0.051
Mof_H 	H 	0.8585	0.9097	0.4633	0.026
Mof_C 	C 	0.834	0.9266	0.5371	-0.138
Mof_O 	O 	0.5091	0.8557	0.3412	-0.368
Mof_O 	O 	0.525	0.9221	0.3987	-0.336
Mof_C 	C 	0.4871	0.8993	0.342	0.302
Mof_C 	C 	0.4165	0.923	0.2768	-0.083
Mof_C 	C 	0.3768	0.8983	0.2148	0.017
Mof_H 	H 	0.3909	0.8659	0.2141	0.045
Mof_C 	C 	0.3134	0.9221	0.1508	-0.091
Mof_H 	H 	0.2874	0.9057	0.1083	0.066
Mof_C 	C 	0.2919	0.9689	0.1532	0.034
Mof_C 	C 	0.2338	0.9964	0.0863	0.057
Mof_C 	C 	0.1588	0.9745	0.0305	-0.121
Mof_H 	H 	0.1438	0.9432	0.0354	0.075
Mof_C 	C 	0.1072	0.9993	0.9683	0.051
Mof_C 	C 	0.0268	0.976	0.9117	0.039
Mof_C 	C 	0.971	0.9519	0.9233	-0.106
Mof_H 	H 	0.9854	0.9501	0.9691	0.071
Mof_C 	C 	0.8954	0.9301	0.8724	0.038
Mof_H 	H 	0.8592	0.9146	0.8829	0.03
Mof_C 	C 	0.8754	0.9322	0.8039	-0.114
Mof_C 	C 	0.2505	0.0439	0.0783	-0.123
Mof_H 	H 	0.2988	0.0591	0.1156	0.078
Mof_C 	C 	0.7942	0.9075	0.7471	0.358
Mof_O 	O 	0.738	0.8939	0.759	-0.449
Mof_C 	C 	0.2529	0.2713	0.7701	0.38
Mof_C 	C 	0.1507	0.1461	0.7295	-0.127
Mof_H 	H 	0.1148	0.1285	0.7384	0.073
Mof_C 	C 	0.1698	0.1941	0.7507	0.06
Mof_H 	H 	0.1447	0.2087	0.7722	0.018
Mof_C 	C 	0.2248	0.2203	0.7407	-0.129
Mof_C 	C 	0.2567	0.1992	0.7042	0.061
Mof_H 	H 	0.292	0.217	0.6949	0.03
Mof_C 	C 	0.236	0.1517	0.6818	-0.131
Mof_H 	H 	0.2574	0.138	0.6571	0.09
Mof_C 	C 	0.4068	0.9727	0.6348	0.024
Mof_H 	H 	0.4353	0.9889	0.6173	0.052
Mof_C 	C 	0.3407	0.9949	0.6348	-0.101
Mof_H 	H 	0.3259	0.0268	0.6189	0.083
Mof_C 	C 	0.2348	0.0449	0.6765	-0.11
Mof_H 	H 	0.2871	0.06	0.6912	0.077
Mof_C 	C 	0.1696	0.0719	0.6755	0.036
Mof_C 	C 	0.0906	0.0481	0.6513	-0.109
Mof_H 	H 	0.0461	0.0649	0.65	0.068
Mof_C 	C 	0.8672	0.9518	0.5979	0.044
Mof_H 	H 	0.8375	0.9518	0.62	0.026
Mof_C 	C 	0.9435	0.9772	0.6274	-0.115
Mof_H 	H 	0.9631	0.9954	0.6677	0.069
Mof_O 	O 	0.2164	0.2924	0.7948	-0.449
Mof_O 	O 	0.3178	0.2884	0.7698	-0.441
Mof_C 	C 	0.1843	0.1241	0.6952	0.061
Mof_Co	Co	0.63885	0.85362	0.69276	1.18
Mof_Co	Co	0.60981	0.85529	0.44525	1.193
Mof_Co	Co	0.75401	0.84036	0.62383	1.167
Mof_O 	O 	0.7115	0.8902	0.4395	-0.388
Mof_O 	O 	0.7192	0.8874	0.5381	-0.513
Mof_O 	O 	0.7894	0.8995	0.6895	-0.434
Mof_O 	O 	0.6249	0.8471	0.5948	-0.618
Mof_O 	O 	0.5351	0.8389	0.4827	-0.473
Mof_C 	C 	0.7506	0.8997	0.5032	0.347
Mof_C 	C 	0.9282	0.9573	0.7883	0.039
Mof_H 	H 	0.9135	0.9599	0.7425	0.024
Mof_C 	C 	0.0031	0.9783	0.8428	-0.107
Mof_H 	H 	0.0391	0.9946	0.8328	0.066
Mof_C 	C 	0.1286	0.0467	0.9627	-0.124
Mof_H 	H 	0.0944	0.0632	0.9205	0.072
Mof_C 	C 	0.1989	0.0699	0.0176	0.057
Mof_C 	C 	0.3307	0.9932	0.2184	-0.094
Mof_H 	H 	0.3143	0.0248	0.2206	0.076
Mof_C 	C 	0.3918	0.97	0.2776	0.022
Mof_H 	H 	0.4178	0.9864	0.3201	0.053
Mof_C 	C 	0.2227	0.1202	0.0114	0.035
Mof_C 	C 	0.2634	0.1522	0.0708	-0.103
Mof_H 	H 	0.2749	0.1412	0.1135	0.069
Mof_C 	C 	0.2852	0.1981	0.0654	0.041
Mof_H 	H 	0.3119	0.2183	0.1044	0.035
Mof_C 	C 	0.2676	0.2154	0.0009	-0.117
Mof_C 	C 	0.2292	0.1855	0.9444	0.043
Mof_H 	H 	0.2187	0.1968	0.9021	0.028
Mof_C 	C 	0.2056	0.1387	0.9486	-0.106
Mof_H 	H 	0.1777	0.1193	0.9088	0.066
Mof_C 	C 	0.5527	0.8387	0.5434	0.583
Mof_H 	H 	0.5086	0.8318	0.5503	-0.167
_end
