data_functionalizedCrystal
_audit_creation_method	'EQeq! by Chris Wilmer'
_symmetry_space_group_name_H-M	'P1'
_symmetry_Int_Tables_number	1
_symmetry_cell_setting	triclinic
loop_
_symmetry_equiv_pos_as_xyz
  x,y,z
_cell_length_a	31.848
_cell_length_b	31.848
_cell_length_c	16.883
_cell_angle_alpha	90
_cell_angle_beta	90
_cell_angle_gamma	120
loop_
_atom_site_label
_atom_site_type_symbol
_atom_site_fract_x
_atom_site_fract_y
_atom_site_fract_z
_atom_site_charge
Mof_O 	O 	0.25	0.5899	0.413	-0.518
Mof_C 	C 	0.1794	0.5532	0.2955	0.155
Mof_H 	H 	0.1918	0.5341	0.3139	-0.012
Mof_C 	C 	0.143	0.5345	0.2403	-0.235
Mof_H 	H 	0.1296	0.5023	0.2245	0.114
Mof_O 	O 	0.4101	0.6601	0.413	-0.518
Mof_C 	C 	0.4468	0.6262	0.2955	0.155
Mof_H 	H 	0.4659	0.6577	0.3139	-0.012
Mof_C 	C 	0.4655	0.6085	0.2403	-0.235
Mof_H 	H 	0.4977	0.6273	0.2245	0.113
Mof_O 	O 	0.3399	0.75	0.413	-0.518
Mof_C 	C 	0.3738	0.8206	0.2955	0.155
Mof_H 	H 	0.3423	0.8082	0.3139	-0.012
Mof_C 	C 	0.3915	0.857	0.2403	-0.235
Mof_H 	H 	0.3727	0.8704	0.2245	0.113
Mof_O 	O 	0.75	0.4101	0.413	-0.517
Mof_C 	C 	0.8206	0.4468	0.2955	0.156
Mof_H 	H 	0.8082	0.4659	0.3139	-0.011
Mof_C 	C 	0.857	0.4655	0.2403	-0.234
Mof_H 	H 	0.8704	0.4977	0.2245	0.114
Mof_O 	O 	0.5899	0.3399	0.413	-0.517
Mof_C 	C 	0.5532	0.3738	0.2955	0.156
Mof_H 	H 	0.5341	0.3423	0.3139	-0.011
Mof_C 	C 	0.5345	0.3915	0.2403	-0.234
Mof_H 	H 	0.5023	0.3727	0.2245	0.115
Mof_O 	O 	0.6601	0.25	0.413	-0.517
Mof_C 	C 	0.6262	0.1794	0.2955	0.156
Mof_H 	H 	0.6577	0.1918	0.3139	-0.011
Mof_C 	C 	0.6085	0.143	0.2403	-0.234
Mof_H 	H 	0.6273	0.1296	0.2245	0.114
Mof_O 	O 	0.5899	0.25	0.587	-0.518
Mof_C 	C 	0.5532	0.1794	0.7045	0.155
Mof_H 	H 	0.5341	0.1918	0.6861	-0.012
Mof_C 	C 	0.5345	0.143	0.7597	-0.235
Mof_H 	H 	0.5023	0.1296	0.7755	0.113
Mof_O 	O 	0.6601	0.4101	0.587	-0.518
Mof_C 	C 	0.6262	0.4468	0.7045	0.155
Mof_H 	H 	0.6577	0.4659	0.6861	-0.012
Mof_C 	C 	0.6085	0.4655	0.7597	-0.235
Mof_H 	H 	0.6273	0.4977	0.7755	0.113
Mof_O 	O 	0.75	0.3399	0.587	-0.518
Mof_C 	C 	0.8206	0.3738	0.7045	0.155
Mof_H 	H 	0.8082	0.3423	0.6861	-0.012
Mof_C 	C 	0.857	0.3915	0.7597	-0.235
Mof_H 	H 	0.8704	0.3727	0.7755	0.113
Mof_O 	O 	0.4101	0.75	0.587	-0.518
Mof_C 	C 	0.4468	0.8206	0.7045	0.155
Mof_H 	H 	0.4659	0.8082	0.6861	-0.012
Mof_C 	C 	0.4655	0.857	0.7597	-0.235
Mof_H 	H 	0.4977	0.8704	0.7755	0.112
Mof_O 	O 	0.3399	0.5899	0.587	-0.518
Mof_C 	C 	0.3738	0.5532	0.7045	0.155
Mof_H 	H 	0.3423	0.5341	0.6861	-0.012
Mof_C 	C 	0.3915	0.5345	0.7597	-0.235
Mof_H 	H 	0.3727	0.5023	0.7755	0.113
Mof_O 	O 	0.25	0.6601	0.587	-0.518
Mof_C 	C 	0.1794	0.6262	0.7045	0.155
Mof_H 	H 	0.1918	0.6577	0.6861	-0.012
Mof_C 	C 	0.143	0.6085	0.7597	-0.235
Mof_H 	H 	0.1296	0.6273	0.7755	0.113
Mof_O 	O 	0.75	0.4101	0.587	-0.518
Mof_C 	C 	0.8206	0.4468	0.7045	0.155
Mof_H 	H 	0.8082	0.4659	0.6861	-0.012
Mof_C 	C 	0.857	0.4655	0.7597	-0.235
Mof_H 	H 	0.8704	0.4977	0.7755	0.112
Mof_O 	O 	0.5899	0.3399	0.587	-0.518
Mof_C 	C 	0.5532	0.3738	0.7045	0.155
Mof_H 	H 	0.5341	0.3423	0.6861	-0.012
Mof_C 	C 	0.5345	0.3915	0.7597	-0.235
Mof_H 	H 	0.5023	0.3727	0.7755	0.113
Mof_O 	O 	0.6601	0.25	0.587	-0.518
Mof_C 	C 	0.6262	0.1794	0.7045	0.155
Mof_H 	H 	0.6577	0.1918	0.6861	-0.012
Mof_C 	C 	0.6085	0.143	0.7597	-0.235
Mof_H 	H 	0.6273	0.1296	0.7755	0.113
Mof_O 	O 	0.25	0.5899	0.587	-0.518
Mof_C 	C 	0.1794	0.5532	0.7045	0.155
Mof_H 	H 	0.1918	0.5341	0.6861	-0.012
Mof_C 	C 	0.143	0.5345	0.7597	-0.235
Mof_H 	H 	0.1296	0.5023	0.7755	0.113
Mof_O 	O 	0.4101	0.6601	0.587	-0.518
Mof_C 	C 	0.4468	0.6262	0.7045	0.155
Mof_H 	H 	0.4659	0.6577	0.6861	-0.012
Mof_C 	C 	0.4655	0.6085	0.7597	-0.235
Mof_H 	H 	0.4977	0.6273	0.7755	0.113
Mof_O 	O 	0.3399	0.75	0.587	-0.518
Mof_C 	C 	0.3738	0.8206	0.7045	0.155
Mof_H 	H 	0.3423	0.8082	0.6861	-0.012
Mof_C 	C 	0.3915	0.857	0.7597	-0.235
Mof_H 	H 	0.3727	0.8704	0.7755	0.113
Mof_O 	O 	0.4101	0.75	0.413	-0.517
Mof_C 	C 	0.4468	0.8206	0.2955	0.156
Mof_H 	H 	0.4659	0.8082	0.3139	-0.011
Mof_C 	C 	0.4655	0.857	0.2403	-0.234
Mof_H 	H 	0.4977	0.8704	0.2245	0.114
Mof_O 	O 	0.3399	0.5899	0.413	-0.517
Mof_C 	C 	0.3738	0.5532	0.2955	0.156
Mof_H 	H 	0.3423	0.5341	0.3139	-0.011
Mof_C 	C 	0.3915	0.5345	0.2403	-0.234
Mof_H 	H 	0.3727	0.5023	0.2245	0.115
Mof_O 	O 	0.25	0.6601	0.413	-0.517
Mof_C 	C 	0.1794	0.6262	0.2955	0.156
Mof_H 	H 	0.1918	0.6577	0.3139	-0.011
Mof_C 	C 	0.143	0.6085	0.2403	-0.234
Mof_H 	H 	0.1296	0.6273	0.2245	0.114
Mof_O 	O 	0.5899	0.25	0.413	-0.517
Mof_C 	C 	0.5532	0.1794	0.2955	0.156
Mof_H 	H 	0.5341	0.1918	0.3139	-0.011
Mof_C 	C 	0.5345	0.143	0.2403	-0.234
Mof_H 	H 	0.5023	0.1296	0.2245	0.115
Mof_O 	O 	0.6601	0.4101	0.413	-0.517
Mof_C 	C 	0.6262	0.4468	0.2955	0.156
Mof_H 	H 	0.6577	0.4659	0.3139	-0.011
Mof_C 	C 	0.6085	0.4655	0.2403	-0.234
Mof_H 	H 	0.6273	0.4977	0.2245	0.114
Mof_O 	O 	0.75	0.3399	0.413	-0.517
Mof_C 	C 	0.8206	0.3738	0.2955	0.156
Mof_H 	H 	0.8082	0.3423	0.3139	-0.011
Mof_C 	C 	0.857	0.3915	0.2403	-0.234
Mof_H 	H 	0.8704	0.3727	0.2245	0.114
Mof_Mg	Mg	0.2974	0.5948	0.5	1.475
Mof_Mg	Mg	0.4052	0.7026	0.5	1.475
Mof_Mg	Mg	0.2974	0.7026	0.5	1.475
Mof_Mg	Mg	0.7026	0.4052	0.5	1.475
Mof_Mg	Mg	0.5948	0.2974	0.5	1.475
Mof_Mg	Mg	0.7026	0.2974	0.5	1.475
Mof_C 	C 	0.0405	0.52025	0.1704	0.145
Mof_C 	C 	0.0878	0.5439	0.1441	-0.15
Mof_C 	C 	0.2363	0.61815	0.3894	0.477
Mof_C 	C 	0.1025	0.55125	0.065	0.118
Mof_C 	C 	0.1977	0.59885	0.324	-0.218
Mof_C 	C 	0.1262	0.5631	0.2079	0.176
Mof_C 	C 	0.1535	0.57675	0.0396	-0.058
Mof_H 	H 	0.1806	0.5903	0.0724	0.058
Mof_C 	C 	0.0249	0.51245	0.248	-0.095
Mof_H 	H 	0.0446	0.5223	0.2926	0.068
Mof_C 	C 	0.47975	0.52025	0.1704	0.146
Mof_C 	C 	0.4561	0.5439	0.1441	-0.151
Mof_C 	C 	0.38185	0.61815	0.3894	0.477
Mof_C 	C 	0.44875	0.55125	0.065	0.118
Mof_C 	C 	0.40115	0.59885	0.324	-0.218
Mof_C 	C 	0.4369	0.5631	0.2079	0.176
Mof_C 	C 	0.42325	0.57675	0.0396	-0.058
Mof_H 	H 	0.4097	0.5903	0.0724	0.058
Mof_C 	C 	0.48755	0.51245	0.248	-0.099
Mof_H 	H 	0.4777	0.5223	0.2926	0.069
Mof_C 	C 	0.47975	0.9595	0.1704	0.145
Mof_C 	C 	0.4561	0.9122	0.1441	-0.151
Mof_C 	C 	0.38185	0.7637	0.3894	0.477
Mof_C 	C 	0.44875	0.8975	0.065	0.117
Mof_C 	C 	0.40115	0.8023	0.324	-0.218
Mof_C 	C 	0.4369	0.8738	0.2079	0.176
Mof_C 	C 	0.42325	0.8465	0.0396	-0.058
Mof_H 	H 	0.4097	0.8194	0.0724	0.058
Mof_C 	C 	0.48755	0.9751	0.248	-0.102
Mof_H 	H 	0.4777	0.9554	0.2926	0.069
Mof_C 	C 	0.9595	0.47975	0.1704	0.145
Mof_C 	C 	0.9122	0.4561	0.1441	-0.151
Mof_C 	C 	0.7637	0.38185	0.3894	0.477
Mof_C 	C 	0.8975	0.44875	0.065	0.117
Mof_C 	C 	0.8023	0.40115	0.324	-0.218
Mof_C 	C 	0.8738	0.4369	0.2079	0.176
Mof_C 	C 	0.8465	0.42325	0.0396	-0.058
Mof_H 	H 	0.8194	0.4097	0.0724	0.058
Mof_C 	C 	0.9751	0.48755	0.248	-0.102
Mof_H 	H 	0.9554	0.4777	0.2926	0.069
Mof_C 	C 	0.52025	0.47975	0.1704	0.146
Mof_C 	C 	0.5439	0.4561	0.1441	-0.151
Mof_C 	C 	0.61815	0.38185	0.3894	0.477
Mof_C 	C 	0.55125	0.44875	0.065	0.118
Mof_C 	C 	0.59885	0.40115	0.324	-0.218
Mof_C 	C 	0.5631	0.4369	0.2079	0.176
Mof_C 	C 	0.57675	0.42325	0.0396	-0.058
Mof_H 	H 	0.5903	0.4097	0.0724	0.058
Mof_C 	C 	0.51245	0.48755	0.248	-0.099
Mof_H 	H 	0.5223	0.4777	0.2926	0.069
Mof_C 	C 	0.52025	0.0405	0.1704	0.145
Mof_C 	C 	0.5439	0.0878	0.1441	-0.15
Mof_C 	C 	0.61815	0.2363	0.3894	0.477
Mof_C 	C 	0.55125	0.1025	0.065	0.118
Mof_C 	C 	0.59885	0.1977	0.324	-0.218
Mof_C 	C 	0.5631	0.1262	0.2079	0.176
Mof_C 	C 	0.57675	0.1535	0.0396	-0.058
Mof_H 	H 	0.5903	0.1806	0.0724	0.058
Mof_C 	C 	0.51245	0.0249	0.248	-0.095
Mof_H 	H 	0.5223	0.0446	0.2926	0.068
Mof_C 	C 	0.52025	0.0405	0.8296	0.142
Mof_C 	C 	0.5439	0.0878	0.8559	-0.153
Mof_C 	C 	0.61815	0.2363	0.6106	0.477
Mof_C 	C 	0.55125	0.1025	0.935	0.118
Mof_C 	C 	0.59885	0.1977	0.676	-0.218
Mof_C 	C 	0.5631	0.1262	0.7921	0.176
Mof_C 	C 	0.57675	0.1535	0.9604	-0.108
Mof_H 	H 	0.5903	0.1806	0.9276	0.07
Mof_C 	C 	0.51245	0.0249	0.752	-0.096
Mof_H 	H 	0.5223	0.0446	0.7074	0.068
Mof_C 	C 	0.52025	0.47975	0.8296	0.143
Mof_C 	C 	0.5439	0.4561	0.8559	-0.154
Mof_C 	C 	0.61815	0.38185	0.6106	0.477
Mof_C 	C 	0.55125	0.44875	0.935	0.118
Mof_C 	C 	0.59885	0.40115	0.676	-0.219
Mof_C 	C 	0.5631	0.4369	0.7921	0.176
Mof_C 	C 	0.57675	0.42325	0.9604	-0.108
Mof_H 	H 	0.5903	0.4097	0.9276	0.07
Mof_C 	C 	0.51245	0.48755	0.752	-0.099
Mof_H 	H 	0.5223	0.4777	0.7074	0.068
Mof_C 	C 	0.9595	0.47975	0.8296	0.143
Mof_C 	C 	0.9122	0.4561	0.8559	-0.154
Mof_C 	C 	0.7637	0.38185	0.6106	0.477
Mof_C 	C 	0.8975	0.44875	0.935	0.118
Mof_C 	C 	0.8023	0.40115	0.676	-0.219
Mof_C 	C 	0.8738	0.4369	0.7921	0.176
Mof_C 	C 	0.8465	0.42325	0.9604	-0.108
Mof_H 	H 	0.8194	0.4097	0.9276	0.07
Mof_C 	C 	0.9751	0.48755	0.752	-0.102
Mof_H 	H 	0.9554	0.4777	0.7074	0.069
Mof_C 	C 	0.47975	0.9595	0.8296	0.143
Mof_C 	C 	0.4561	0.9122	0.8559	-0.154
Mof_C 	C 	0.38185	0.7637	0.6106	0.477
Mof_C 	C 	0.44875	0.8975	0.935	0.118
Mof_C 	C 	0.40115	0.8023	0.676	-0.219
Mof_C 	C 	0.4369	0.8738	0.7921	0.176
Mof_C 	C 	0.42325	0.8465	0.9604	-0.108
Mof_H 	H 	0.4097	0.8194	0.9276	0.07
Mof_C 	C 	0.48755	0.9751	0.752	-0.102
Mof_H 	H 	0.4777	0.9554	0.7074	0.069
Mof_C 	C 	0.47975	0.52025	0.8296	0.143
Mof_C 	C 	0.4561	0.5439	0.8559	-0.154
Mof_C 	C 	0.38185	0.61815	0.6106	0.477
Mof_C 	C 	0.44875	0.55125	0.935	0.118
Mof_C 	C 	0.40115	0.59885	0.676	-0.219
Mof_C 	C 	0.4369	0.5631	0.7921	0.176
Mof_C 	C 	0.42325	0.57675	0.9604	-0.108
Mof_H 	H 	0.4097	0.5903	0.9276	0.07
Mof_C 	C 	0.48755	0.51245	0.752	-0.099
Mof_H 	H 	0.4777	0.5223	0.7074	0.068
Mof_C 	C 	0.0405	0.52025	0.8296	0.142
Mof_C 	C 	0.0878	0.5439	0.8559	-0.153
Mof_C 	C 	0.2363	0.61815	0.6106	0.477
Mof_C 	C 	0.1025	0.55125	0.935	0.118
Mof_C 	C 	0.1977	0.59885	0.676	-0.218
Mof_C 	C 	0.1262	0.5631	0.7921	0.176
Mof_C 	C 	0.1535	0.57675	0.9604	-0.108
Mof_H 	H 	0.1806	0.5903	0.9276	0.07
Mof_C 	C 	0.0249	0.51245	0.752	-0.096
Mof_H 	H 	0.0446	0.5223	0.7074	0.068
Mof_N 	N 	-7.88778e-18	0.5	0.1215	-0.231
Mof_H 	H 	-4.57686e-18	0.5	0.0705	0.153
Mof_N 	N 	0.5	0.5	0.1215	-0.232
Mof_H 	H 	0.5	0.5	0.0705	0.153
Mof_N 	N 	0.5	-1.70218e-33	0.1215	-0.231
Mof_H 	H 	0.5	8.51091e-34	0.0705	0.153
Mof_N 	N 	0.5	-6.80873e-33	0.8785	-0.231
Mof_H 	H 	0.5	0	0.9295	0.145
Mof_N 	N 	0.5	0.5	0.8785	-0.231
Mof_H 	H 	0.5	0.5	0.9295	0.145
Mof_N 	N 	4.29535e-18	0.5	0.8785	-0.231
Mof_H 	H 	9.84435e-19	0.5	0.9295	0.145
Mof_N 	N 	0.0741	0.53705	-0	-0.143
Mof_N 	N 	0.46295	0.53705	-0	-0.143
Mof_N 	N 	0.46295	0.9259	-0	-0.143
Mof_N 	N 	0.9259	0.46295	-0	-0.143
Mof_N 	N 	0.53705	0.46295	-0	-0.143
Mof_N 	N 	0.53705	0.0741	-0	-0.143
Mof_O 	O 	0.33333	0.66667	0.5	-0.779
Mof_O 	O 	0.66667	0.33333	0.5	-0.779
_end
