# CIF file generated by openbabel 3.1.0, see https://openbabel.org
data_I
_chemical_name_common 'SEHXIN_clean'
_cell_length_a 10.3627
_cell_length_b 10.3627
_cell_length_c 14.332
_cell_angle_alpha 90
_cell_angle_beta 90
_cell_angle_gamma 90
_space_group_name_H-M_alt 'P 1'
_space_group_name_Hall 'P 1'
loop_
    _symmetry_equiv_pos_as_xyz
    x,y,z
loop_
    _atom_site_label
    _atom_site_type_symbol
    _atom_site_fract_x
    _atom_site_fract_y
    _atom_site_fract_z
    _atom_site_occupancy
    Eu1      Eu       0.14179    0.85821    0.62500    1.000
    Eu2      Eu       0.85821    0.14179    0.12500    1.000
    Eu3      Eu       0.14179    0.14179    0.87500    1.000
    Eu4      Eu       0.85821    0.85821    0.37500    1.000
    H1       H        0.44530    0.94030    0.38220    1.000
    H2       H        0.55470    0.05970    0.88220    1.000
    H3       H        0.05970    0.44530    0.63220    1.000
    H4       H        0.94030    0.55470    0.13220    1.000
    H5       H        0.55470    0.94030    0.61780    1.000
    H6       H        0.44530    0.05970    0.11780    1.000
    H7       H        0.94030    0.44530    0.36780    1.000
    H8       H        0.05970    0.55470    0.86780    1.000
    H9       H        0.11180    0.00000    0.25000    1.000
    H10      H        0.88820    0.00000    0.75000    1.000
    H11      H        0.00000    0.11180    0.50000    1.000
    H12      H        0.00000    0.88820    0.00000    1.000
    C1       C        0.19310    0.92160    0.41470    1.000
    C2       C        0.26610    0.95910    0.32820    1.000
    C3       C        0.40070    0.96300    0.32840    1.000
    C4       C        0.80690    0.07840    0.91470    1.000
    C5       C        0.73390    0.04090    0.82820    1.000
    C6       C        0.59930    0.03700    0.82840    1.000
    C7       C        0.07840    0.19310    0.66470    1.000
    C8       C        0.04090    0.26610    0.57820    1.000
    C9       C        0.03700    0.40070    0.57840    1.000
    C10      C        0.92160    0.80690    0.16470    1.000
    C11      C        0.95910    0.73390    0.07820    1.000
    C12      C        0.96300    0.59930    0.07840    1.000
    C13      C        0.80690    0.92160    0.58530    1.000
    C14      C        0.73390    0.95910    0.67180    1.000
    C15      C        0.59930    0.96300    0.67160    1.000
    C16      C        0.19310    0.07840    0.08530    1.000
    C17      C        0.26610    0.04090    0.17180    1.000
    C18      C        0.40070    0.03700    0.17160    1.000
    C19      C        0.92160    0.19310    0.33530    1.000
    C20      C        0.95910    0.26610    0.42180    1.000
    C21      C        0.96300    0.40070    0.42160    1.000
    C22      C        0.07840    0.80690    0.83530    1.000
    C23      C        0.04090    0.73390    0.92180    1.000
    C24      C        0.03700    0.59930    0.92160    1.000
    C25      C        0.46870    0.00000    0.25000    1.000
    C26      C        0.61510    0.00000    0.25000    1.000
    C27      C        0.20150    0.00000    0.25000    1.000
    C28      C        0.53130    0.00000    0.75000    1.000
    C29      C        0.38490    0.00000    0.75000    1.000
    C30      C        0.79850    0.00000    0.75000    1.000
    C31      C        0.00000    0.46870    0.50000    1.000
    C32      C        0.00000    0.61510    0.50000    1.000
    C33      C        0.00000    0.20150    0.50000    1.000
    C34      C        0.00000    0.53130    0.00000    1.000
    C35      C        0.00000    0.38490    0.00000    1.000
    C36      C        0.00000    0.79850    0.00000    1.000
    O1       O        0.25340    0.91780    0.48930    1.000
    O2       O        0.07800    0.90060    0.40860    1.000
    O3       O        0.66840    0.93450    0.30890    1.000
    O4       O        0.74660    0.08220    0.98930    1.000
    O5       O        0.92200    0.09940    0.90860    1.000
    O6       O        0.33160    0.06550    0.80890    1.000
    O7       O        0.08220    0.25340    0.73930    1.000
    O8       O        0.09940    0.07800    0.65860    1.000
    O9       O        0.06550    0.66840    0.55890    1.000
    O10      O        0.91780    0.74660    0.23930    1.000
    O11      O        0.90060    0.92200    0.15860    1.000
    O12      O        0.93450    0.33160    0.05890    1.000
    O13      O        0.74660    0.91780    0.51070    1.000
    O14      O        0.92200    0.90060    0.59140    1.000
    O15      O        0.33160    0.93450    0.69110    1.000
    O16      O        0.25340    0.08220    0.01070    1.000
    O17      O        0.07800    0.09940    0.09140    1.000
    O18      O        0.66840    0.06550    0.19110    1.000
    O19      O        0.91780    0.25340    0.26070    1.000
    O20      O        0.90060    0.07800    0.34140    1.000
    O21      O        0.93450    0.66840    0.44110    1.000
    O22      O        0.08220    0.74660    0.76070    1.000
    O23      O        0.09940    0.92200    0.84140    1.000
    O24      O        0.06550    0.33160    0.94110    1.000
