data_functionalizedCrystal
_audit_creation_method	'EQeq! by Chris Wilmer'
_symmetry_space_group_name_H-M	'P1'
_symmetry_Int_Tables_number	1
_symmetry_cell_setting	triclinic
loop_
_symmetry_equiv_pos_as_xyz
  x,y,z
_cell_length_a	14.774
_cell_length_b	19.3422
_cell_length_c	30.594
_cell_angle_alpha	100.753
_cell_angle_beta	90
_cell_angle_gamma	112.452
loop_
_atom_site_label
_atom_site_type_symbol
_atom_site_fract_x
_atom_site_fract_y
_atom_site_fract_z
_atom_site_charge
Mof_Zn	Zn	0.19061	0.66726	0.72454	1.162
Mof_Zn	Zn	0.73055	0.2509	0.56968	1.162
Mof_Zn	Zn	0.79441	0.85114	0.40001	1.164
Mof_Zn	Zn	0.47665	0.66726	0.22454	1.163
Mof_Zn	Zn	0.52035	0.2509	0.06968	1.163
Mof_Zn	Zn	0.05673	0.85114	0.90001	1.163
Mof_H 	H 	0.3456	0.7822	0.6858	-0.03
Mof_H 	H 	0.3673	0.8572	0.634	0.09
Mof_H 	H 	0.0797	0.7516	0.5953	0.085
Mof_H 	H 	0.0658	0.6748	0.6473	-0.007
Mof_H 	H 	0.5626	0.1514	0.4947	-0.007
Mof_H 	H 	0.4121	0.0472	0.4873	0.084
Mof_H 	H 	0.454	0.0494	0.6195	0.091
Mof_H 	H 	0.5947	0.1582	0.6227	-0.018
Mof_H 	H 	0.8606	0.7784	0.4633	-0.017
Mof_H 	H 	0.998	0.785	0.5034	0.088
Mof_H 	H 	0.146	0.9918	0.4727	0.074
Mof_H 	H 	0.9999	0.976	0.4332	-0.002
Mof_H 	H 	0.9597	0.8396	0.3516	-0.008
Mof_H 	H 	0.0053	0.758	0.2993	0.089
Mof_H 	H 	0.7232	0.6044	0.2871	0.081
Mof_H 	H 	0.687	0.6902	0.341	-0.012
Mof_H 	H 	0.2858	0.5416	0.1771	-0.013
Mof_H 	H 	0.1207	0.5168	0.1721	0.08
Mof_H 	H 	0.1699	0.7064	0.2645	0.086
Mof_H 	H 	0.3361	0.7316	0.2652	-0.013
Mof_H 	H 	0.5435	0.3618	0.1576	-0.005
Mof_H 	H 	0.6671	0.4656	0.2016	0.095
Mof_H 	H 	0.8674	0.4108	0.1301	0.083
Mof_H 	H 	0.7394	0.313	0.0838	0.001
Mof_H 	H 	0.4366	0.7822	0.1858	-0.03
Mof_H 	H 	0.4899	0.8572	0.134	0.09
Mof_H 	H 	0.6719	0.7516	0.0953	0.086
Mof_H 	H 	0.609	0.6748	0.1473	-0.006
Mof_H 	H 	0.5888	0.1514	0.9947	-0.007
Mof_H 	H 	0.6351	0.0472	0.9873	0.083
Mof_H 	H 	0.5954	0.0494	0.1195	0.091
Mof_H 	H 	0.5635	0.1582	0.1227	-0.018
Mof_H 	H 	0.9178	0.7784	0.9633	-0.014
Mof_H 	H 	0.787	0.785	0.0034	0.082
Mof_H 	H 	0.8458	0.9918	0.9727	0.075
Mof_H 	H 	0.9761	0.976	0.9332	-0.006
Mof_H 	H 	0.8799	0.8396	0.8516	-0.009
Mof_H 	H 	0.7527	0.758	0.7993	0.093
Mof_H 	H 	0.8812	0.6044	0.7871	0.083
Mof_H 	H 	0.0032	0.6902	0.841	-0.015
Mof_H 	H 	0.2558	0.5416	0.6771	-0.013
Mof_H 	H 	0.3961	0.5168	0.6721	0.08
Mof_H 	H 	0.5365	0.7064	0.7645	0.086
Mof_H 	H 	0.3955	0.7316	0.7652	-0.013
Mof_H 	H 	0.8183	0.3618	0.6576	-0.005
Mof_H 	H 	0.7985	0.4656	0.7016	0.096
Mof_H 	H 	0.5434	0.4108	0.6301	0.082
Mof_H 	H 	0.5736	0.313	0.5838	0.001
Mof_C 	C 	0.2898	0.7768	0.6679	0.107
Mof_C 	C 	0.3033	0.8216	0.6371	-0.141
Mof_C 	C 	0.2249	0.8156	0.6105	0.076
Mof_C 	C 	0.1354	0.7596	0.6142	-0.114
Mof_C 	C 	0.127	0.715	0.6455	0.062
Mof_C 	C 	0.2353	0.8698	0.5794	0.102
Mof_C 	C 	0.328	0.9686	0.5497	0.087
Mof_C 	C 	0.1704	0.903	0.5233	0.084
Mof_C 	C 	0.5391	0.13	0.52	0.084
Mof_C 	C 	0.4511	0.068	0.5149	-0.128
Mof_C 	C 	0.4228	0.0374	0.5532	0.06
Mof_C 	C 	0.4749	0.0698	0.5936	-0.135
Mof_C 	C 	0.5585	0.1328	0.5947	0.08
Mof_C 	C 	0.9198	0.822	0.4646	0.083
Mof_C 	C 	0.0003	0.826	0.49	-0.135
Mof_C 	C 	0.0838	0.892	0.4949	0.056
Mof_C 	C 	0.0875	0.9476	0.472	-0.119
Mof_C 	C 	5.74644e-17	0.936	0.4471	0.065
Mof_C 	C 	0.9121	0.7906	0.3387	0.071
Mof_C 	C 	0.9395	0.7422	0.3075	-0.114
Mof_C 	C 	0.8716	0.672	0.2888	0.057
Mof_C 	C 	0.7732	0.652	0.3007	-0.124
Mof_C 	C 	0.7522	0.7032	0.3324	0.072
Mof_C 	C 	0.8996	0.6176	0.2559	0.102
Mof_C 	C 	0.0156	0.5898	0.2198	0.102
Mof_C 	C 	0.8597	0.5144	0.2005	0.088
Mof_C 	C 	0.2622	0.5764	0.1945	0.074
Mof_C 	C 	0.1638	0.561	0.1921	-0.125
Mof_C 	C 	0.1255	0.608	0.218	0.063
Mof_C 	C 	0.1923	0.6722	0.2457	-0.122
Mof_C 	C 	0.2911	0.6868	0.2462	0.067
Mof_C 	C 	0.61	0.374	0.151	0.073
Mof_C 	C 	0.683	0.4338	0.1779	-0.128
Mof_C 	C 	0.7796	0.4476	0.1705	0.052
Mof_C 	C 	0.8011	0.4024	0.1355	-0.119
Mof_C 	C 	0.7253	0.3448	0.1081	0.064
Mof_C 	C 	0.487	0.7768	0.1679	0.107
Mof_C 	C 	0.5183	0.8216	0.1371	-0.141
Mof_C 	C 	0.5907	0.8156	0.1105	0.076
Mof_C 	C 	0.6242	0.7596	0.1142	-0.114
Mof_C 	C 	0.588	0.715	0.1455	0.062
Mof_C 	C 	0.6345	0.8698	0.0794	0.102
Mof_C 	C 	0.6406	0.9686	0.0497	0.088
Mof_C 	C 	0.7326	0.903	0.0233	0.085
Mof_C 	C 	0.5909	0.13	0.02	0.084
Mof_C 	C 	0.6169	0.068	0.0149	-0.127
Mof_C 	C 	0.6146	0.0374	0.0532	0.059
Mof_C 	C 	0.5949	0.0698	0.0936	-0.134
Mof_C 	C 	0.5743	0.1328	0.0947	0.08
Mof_C 	C 	0.9022	0.822	0.9646	0.076
Mof_C 	C 	0.8257	0.826	0.99	-0.123
Mof_C 	C 	0.8082	0.892	0.9949	0.054
Mof_C 	C 	0.8601	0.9476	0.972	-0.12
Mof_C 	C 	0.936	0.936	0.9471	0.073
Mof_C 	C 	0.8785	0.7906	0.8387	0.075
Mof_C 	C 	0.8027	0.7422	0.8075	-0.121
Mof_C 	C 	0.8004	0.672	0.7888	0.061
Mof_C 	C 	0.8788	0.652	0.8007	-0.128
Mof_C 	C 	0.951	0.7032	0.8324	0.079
Mof_C 	C 	0.718	0.6176	0.7559	0.101
Mof_C 	C 	0.5742	0.5898	0.7198	0.105
Mof_C 	C 	0.6547	0.5144	0.7005	0.088
Mof_C 	C 	0.3142	0.5764	0.6945	0.074
Mof_C 	C 	0.3972	0.561	0.6921	-0.124
Mof_C 	C 	0.4825	0.608	0.718	0.062
Mof_C 	C 	0.4799	0.6722	0.7457	-0.121
Mof_C 	C 	0.3957	0.6868	0.7462	0.067
Mof_C 	C 	0.764	0.374	0.651	0.073
Mof_C 	C 	0.7508	0.4338	0.6779	-0.128
Mof_C 	C 	0.668	0.4476	0.6705	0.052
Mof_C 	C 	0.6013	0.4024	0.6355	-0.119
Mof_C 	C 	0.6195	0.3448	0.6081	0.064
Mof_I 	I 	0.03379	0.5469	0.706	-0.38
Mof_I 	I 	0.218	0.76438	0.79765	-0.405
Mof_I 	I 	0.83698	0.20568	0.61381	-0.373
Mof_I 	I 	0.77733	0.30518	0.50092	-0.375
Mof_I 	I 	0.64988	0.78336	0.44206	-0.377
Mof_I 	I 	0.82825	0.96732	0.36614	-0.354
Mof_I 	I 	0.51311	0.5469	0.206	-0.378
Mof_I 	I 	0.54638	0.76438	0.29765	-0.404
Mof_I 	I 	0.3687	0.20568	0.11381	-0.374
Mof_I 	I 	0.52785	0.30518	0.00092	-0.376
Mof_I 	I 	0.13348	0.78336	0.94206	-0.379
Mof_I 	I 	0.13907	0.96732	0.86614	-0.357
Mof_N 	N 	0.2059	0.7278	0.6741	-0.28
Mof_N 	N 	0.3236	0.9246	0.5793	-0.136
Mof_N 	N 	0.2552	0.9596	0.5206	-0.147
Mof_N 	N 	0.1568	0.8556	0.552	-0.133
Mof_N 	N 	0.593	0.1616	0.5589	-0.273
Mof_N 	N 	0.9186	0.8738	0.442	-0.269
Mof_N 	N 	0.8208	0.7704	0.3511	-0.265
Mof_N 	N 	0.9955	0.639	0.2511	-0.134
Mof_N 	N 	0.9532	0.528	0.1924	-0.137
Mof_N 	N 	0.8268	0.5546	0.2332	-0.138
Mof_N 	N 	0.3255	0.6398	0.2207	-0.271
Mof_N 	N 	0.6313	0.3328	0.1157	-0.267
Mof_N 	N 	0.5219	0.7278	0.1741	-0.28
Mof_N 	N 	0.601	0.9246	0.0793	-0.136
Mof_N 	N 	0.7044	0.9596	0.0206	-0.147
Mof_N 	N 	0.6988	0.8556	0.052	-0.133
Mof_N 	N 	0.5686	0.1616	0.0589	-0.273
Mof_N 	N 	0.9552	0.8738	0.942	-0.27
Mof_N 	N 	0.9496	0.7704	0.8511	-0.266
Mof_N 	N 	0.6435	0.639	0.7511	-0.136
Mof_N 	N 	0.5748	0.528	0.6924	-0.138
Mof_N 	N 	0.7278	0.5546	0.7332	-0.138
Mof_N 	N 	0.3143	0.6398	0.7207	-0.271
Mof_N 	N 	0.7015	0.3328	0.6157	-0.267
Mof_Zn	Zn	0.52335	0.33274	0.77546	1.163
Mof_Zn	Zn	0.47965	0.7491	0.93032	1.163
Mof_Zn	Zn	0.94327	0.14886	0.09999	1.164
Mof_Zn	Zn	0.80939	0.33274	0.27546	1.163
Mof_Zn	Zn	0.26945	0.7491	0.43032	1.163
Mof_Zn	Zn	0.20559	0.14886	0.59999	1.164
Mof_H 	H 	0.5634	0.2178	0.8142	-0.03
Mof_H 	H 	0.5101	0.1428	0.866	0.09
Mof_H 	H 	0.3281	0.2484	0.9047	0.086
Mof_H 	H 	0.391	0.3252	0.8527	-0.006
Mof_H 	H 	0.4112	0.8486	0.0053	-0.007
Mof_H 	H 	0.3649	0.9528	0.0127	0.083
Mof_H 	H 	0.4046	0.9506	0.8805	0.091
Mof_H 	H 	0.4365	0.8418	0.8773	-0.018
Mof_H 	H 	0.0822	0.2216	0.0367	-0.015
Mof_H 	H 	0.213	0.215	0.9966	0.082
Mof_H 	H 	0.1542	0.0082	0.0273	0.075
Mof_H 	H 	0.0239	0.024	0.0668	-0.007
Mof_H 	H 	0.1201	0.1604	0.1484	-0.009
Mof_H 	H 	0.2473	0.242	0.2007	0.092
Mof_H 	H 	0.1188	0.3956	0.2129	0.081
Mof_H 	H 	0.9968	0.3098	0.159	-0.01
Mof_H 	H 	0.7442	0.4584	0.3229	-0.013
Mof_H 	H 	0.6039	0.4832	0.3279	0.08
Mof_H 	H 	0.4635	0.2936	0.2355	0.086
Mof_H 	H 	0.6045	0.2684	0.2348	-0.013
Mof_H 	H 	0.1817	0.6382	0.3424	-0.005
Mof_H 	H 	0.2015	0.5344	0.2984	0.095
Mof_H 	H 	0.4566	0.5892	0.3699	0.082
Mof_H 	H 	0.4264	0.687	0.4162	0.001
Mof_H 	H 	0.6544	0.2178	0.3142	-0.03
Mof_H 	H 	0.6327	0.1428	0.366	0.09
Mof_H 	H 	0.9203	0.2484	0.4047	0.086
Mof_H 	H 	0.9342	0.3252	0.3527	-0.006
Mof_H 	H 	0.4374	0.8486	0.5053	-0.007
Mof_H 	H 	0.5879	0.9528	0.5127	0.083
Mof_H 	H 	0.546	0.9506	0.3805	0.091
Mof_H 	H 	0.4053	0.8418	0.3773	-0.018
Mof_H 	H 	0.1394	0.2216	0.5367	-0.014
Mof_H 	H 	0.002	0.215	0.4966	0.08
Mof_H 	H 	0.854	0.0082	0.5273	0.074
Mof_H 	H 	0.0001	0.024	0.5668	-0.006
Mof_H 	H 	0.0403	0.1604	0.6484	-0.01
Mof_H 	H 	0.9947	0.242	0.7007	0.094
Mof_H 	H 	0.2768	0.3956	0.7129	0.082
Mof_H 	H 	0.313	0.3098	0.659	-0.012
Mof_H 	H 	0.7142	0.4584	0.8229	-0.013
Mof_H 	H 	0.8793	0.4832	0.8279	0.08
Mof_H 	H 	0.8301	0.2936	0.7355	0.086
Mof_H 	H 	0.6639	0.2684	0.7348	-0.013
Mof_H 	H 	0.4565	0.6382	0.8424	-0.005
Mof_H 	H 	0.3329	0.5344	0.7984	0.095
Mof_H 	H 	0.1326	0.5892	0.8699	0.082
Mof_H 	H 	0.2606	0.687	0.9162	0.001
Mof_C 	C 	0.513	0.2232	0.8321	0.107
Mof_C 	C 	0.4817	0.1784	0.8629	-0.141
Mof_C 	C 	0.4093	0.1844	0.8895	0.076
Mof_C 	C 	0.3758	0.2404	0.8858	-0.114
Mof_C 	C 	0.412	0.285	0.8545	0.062
Mof_C 	C 	0.3655	0.1302	0.9206	0.102
Mof_C 	C 	0.3594	0.0314	0.9503	0.088
Mof_C 	C 	0.2674	0.097	0.9767	0.085
Mof_C 	C 	0.4091	0.87	0.98	0.084
Mof_C 	C 	0.3831	0.932	0.9851	-0.127
Mof_C 	C 	0.3854	0.9626	0.9468	0.059
Mof_C 	C 	0.4051	0.9302	0.9064	-0.134
Mof_C 	C 	0.4257	0.8672	0.9053	0.08
Mof_C 	C 	0.0978	0.178	0.0354	0.076
Mof_C 	C 	0.1743	0.174	0.01	-0.123
Mof_C 	C 	0.1918	0.108	0.0051	0.054
Mof_C 	C 	0.1399	0.0524	0.028	-0.12
Mof_C 	C 	0.064	0.064	0.0529	0.073
Mof_C 	C 	0.1215	0.2094	0.1613	0.074
Mof_C 	C 	0.1973	0.2578	0.1925	-0.12
Mof_C 	C 	0.1996	0.328	0.2112	0.059
Mof_C 	C 	0.1212	0.348	0.1993	-0.124
Mof_C 	C 	0.049	0.2968	0.1676	0.07
Mof_C 	C 	0.282	0.3824	0.2441	0.101
Mof_C 	C 	0.4258	0.4102	0.2802	0.105
Mof_C 	C 	0.3453	0.4856	0.2995	0.088
Mof_C 	C 	0.6858	0.4236	0.3055	0.074
Mof_C 	C 	0.6028	0.439	0.3079	-0.124
Mof_C 	C 	0.5175	0.392	0.282	0.062
Mof_C 	C 	0.5201	0.3278	0.2543	-0.122
Mof_C 	C 	0.6043	0.3132	0.2538	0.067
Mof_C 	C 	0.236	0.626	0.349	0.073
Mof_C 	C 	0.2492	0.5662	0.3221	-0.128
Mof_C 	C 	0.332	0.5524	0.3295	0.052
Mof_C 	C 	0.3987	0.5976	0.3645	-0.119
Mof_C 	C 	0.3805	0.6552	0.3919	0.064
Mof_C 	C 	0.7102	0.2232	0.3321	0.107
Mof_C 	C 	0.6967	0.1784	0.3629	-0.141
Mof_C 	C 	0.7751	0.1844	0.3895	0.076
Mof_C 	C 	0.8646	0.2404	0.3858	-0.114
Mof_C 	C 	0.873	0.285	0.3545	0.062
Mof_C 	C 	0.7647	0.1302	0.4206	0.102
Mof_C 	C 	0.672	0.0314	0.4503	0.087
Mof_C 	C 	0.8296	0.097	0.4767	0.086
Mof_C 	C 	0.4609	0.87	0.48	0.084
Mof_C 	C 	0.5489	0.932	0.4851	-0.128
Mof_C 	C 	0.5772	0.9626	0.4468	0.06
Mof_C 	C 	0.5251	0.9302	0.4064	-0.135
Mof_C 	C 	0.4415	0.8672	0.4053	0.08
Mof_C 	C 	0.0802	0.178	0.5354	0.073
Mof_C 	C 	0.9997	0.174	0.51	-0.119
Mof_C 	C 	0.9162	0.108	0.5051	0.051
Mof_C 	C 	0.9125	0.0524	0.528	-0.118
Mof_C 	C 	-1.43661e-17	0.064	0.5529	0.072
Mof_C 	C 	0.0879	0.2094	0.6613	0.076
Mof_C 	C 	0.0605	0.2578	0.6925	-0.123
Mof_C 	C 	0.1284	0.328	0.7112	0.06
Mof_C 	C 	0.2268	0.348	0.6993	-0.126
Mof_C 	C 	0.2478	0.2968	0.6676	0.073
Mof_C 	C 	0.1004	0.3824	0.7441	0.101
Mof_C 	C 	0.9844	0.4102	0.7802	0.108
Mof_C 	C 	0.1403	0.4856	0.7995	0.088
Mof_C 	C 	0.7378	0.4236	0.8055	0.073
Mof_C 	C 	0.8362	0.439	0.8079	-0.123
Mof_C 	C 	0.8745	0.392	0.782	0.061
Mof_C 	C 	0.8077	0.3278	0.7543	-0.121
Mof_C 	C 	0.7089	0.3132	0.7538	0.066
Mof_C 	C 	0.39	0.626	0.849	0.073
Mof_C 	C 	0.317	0.5662	0.8221	-0.128
Mof_C 	C 	0.2204	0.5524	0.8295	0.052
Mof_C 	C 	0.1989	0.5976	0.8645	-0.119
Mof_C 	C 	0.2747	0.6552	0.8919	0.064
Mof_I 	I 	0.48689	0.4531	0.794	-0.378
Mof_I 	I 	0.45362	0.23562	0.70235	-0.404
Mof_I 	I 	0.6313	0.79432	0.88619	-0.374
Mof_I 	I 	0.47215	0.69482	0.99908	-0.376
Mof_I 	I 	0.86652	0.21664	0.05794	-0.377
Mof_I 	I 	0.86093	0.03268	0.13386	-0.355
Mof_I 	I 	0.96621	0.4531	0.294	-0.376
Mof_I 	I 	0.782	0.23562	0.20235	-0.404
Mof_I 	I 	0.16302	0.79432	0.38619	-0.375
Mof_I 	I 	0.22267	0.69482	0.49908	-0.377
Mof_I 	I 	0.35012	0.21664	0.55794	-0.377
Mof_I 	I 	0.17175	0.03268	0.63386	-0.354
Mof_N 	N 	0.4781	0.2722	0.8259	-0.28
Mof_N 	N 	0.399	0.0754	0.9207	-0.136
Mof_N 	N 	0.2956	0.0404	0.9794	-0.147
Mof_N 	N 	0.3012	0.1444	0.948	-0.133
Mof_N 	N 	0.4314	0.8384	0.9411	-0.273
Mof_N 	N 	0.0448	0.1262	0.058	-0.271
Mof_N 	N 	0.0504	0.2296	0.1489	-0.266
Mof_N 	N 	0.3565	0.361	0.2489	-0.136
Mof_N 	N 	0.4252	0.472	0.3076	-0.138
Mof_N 	N 	0.2722	0.4454	0.2668	-0.138
Mof_N 	N 	0.6857	0.3602	0.2793	-0.271
Mof_N 	N 	0.2985	0.6672	0.3843	-0.267
Mof_N 	N 	0.7941	0.2722	0.3259	-0.28
Mof_N 	N 	0.6764	0.0754	0.4207	-0.136
Mof_N 	N 	0.7448	0.0404	0.4794	-0.147
Mof_N 	N 	0.8432	0.1444	0.448	-0.133
Mof_N 	N 	0.407	0.8384	0.4411	-0.273
Mof_N 	N 	0.0814	0.1262	0.558	-0.27
Mof_N 	N 	0.1792	0.2296	0.6489	-0.266
Mof_N 	N 	0.0045	0.361	0.7489	-0.137
Mof_N 	N 	0.0468	0.472	0.8076	-0.14
Mof_N 	N 	0.1732	0.4454	0.7668	-0.138
Mof_N 	N 	0.6745	0.3602	0.7793	-0.271
Mof_N 	N 	0.3687	0.6672	0.8843	-0.267
_end
