data_functionalizedCrystal
_audit_creation_method	'EQeq! by Chris Wilmer'
_symmetry_space_group_name_H-M	'P1'
_symmetry_Int_Tables_number	1
_symmetry_cell_setting	triclinic
loop_
_symmetry_equiv_pos_as_xyz
  x,y,z
_cell_length_a	37.352
_cell_length_b	8.834
_cell_length_c	29.562
_cell_angle_alpha	90
_cell_angle_beta	126.838
_cell_angle_gamma	90
loop_
_atom_site_label
_atom_site_type_symbol
_atom_site_fract_x
_atom_site_fract_y
_atom_site_fract_z
_atom_site_charge
Mof_O 	O 	0.19847	0.0807	0.45298	-0.402
Mof_O 	O 	0.16439	0.0533	0.49413	-0.3
Mof_O 	O 	0.91413	0.7209	0.37838	-0.284
Mof_O 	O 	0.98769	0.6847	0.44343	-0.394
Mof_O 	O 	0.00165	0.1768	0.30251	-0.27
Mof_O 	O 	0.05666	0.5756	0.29425	-0.248
Mof_N 	N 	0.18898	0.3747	0.36722	-0.102
Mof_N 	N 	0.20098	0.4235	0.45692	-0.167
Mof_N 	N 	0.24033	0.2623	0.5607	-0.236
Mof_H 	H 	0.2206	0.1784	0.5543	0.096
Mof_N 	N 	0.93823	0.5931	0.54267	-0.105
Mof_N 	N 	0.93301	0.4809	0.46174	-0.234
Mof_H 	H 	0.9185	0.5697	0.4374	0.099
Mof_N 	N 	0.00939	0.6564	0.56065	-0.181
Mof_C 	C 	0.97125	0.2815	0.259	0.054
Mof_H 	H 	0.9563	0.3416	0.2706	0.026
Mof_H 	H 	0.9488	0.2282	0.2244	0.034
Mof_C 	C 	0.0299	0.4807	0.30258	0.022
Mof_H 	H 	0.0117	0.5425	0.3087	0.039
Mof_H 	H 	0.049	0.4169	0.3355	0.035
Mof_C 	C 	0.98583	0.0673	0.31916	0.303
Mof_C 	C 	0.0188	0.9711	0.3605	-0.279
Mof_H 	H 	0.0479	0.9781	0.3716	0.149
Mof_C 	C 	0.00837	0.8655	0.385	0.147
Mof_H 	H 	0.0307	0.8031	0.4135	-0.015
Mof_C 	C 	0.96437	0.8508	0.36765	-0.193
Mof_C 	C 	0.93192	0.9424	0.32378	0.176
Mof_H 	H 	0.9023	0.9301	0.3103	-0.018
Mof_C 	C 	0.94186	0.0517	0.29916	-0.317
Mof_H 	H 	0.9195	0.1125	0.27	0.139
Mof_C 	C 	0.08329	0.6817	0.33546	0.276
Mof_C 	C 	0.09035	0.6878	0.38684	-0.275
Mof_H 	H 	0.077	0.6174	0.3958	0.128
Mof_C 	C 	0.11771	0.8003	0.42498	0.134
Mof_H 	H 	0.1217	0.8065	0.4592	-0.009
Mof_C 	C 	0.13913	0.9033	0.41365	-0.177
Mof_C 	C 	0.16975	0.0214	0.45707	0.339
Mof_C 	C 	0.13231	0.8919	0.3621	0.142
Mof_H 	H 	0.1469	0.959	0.3538	-0.009
Mof_C 	C 	0.10457	0.7839	0.3231	-0.265
Mof_H 	H 	0.1	0.7791	0.2885	0.137
Mof_C 	C 	0.95488	0.7448	0.3988	0.354
Mof_C 	C 	0.91791	0.3463	0.4243	-0.073
Mof_H 	H 	0.8857	0.35	0.3957	0.053
Mof_H 	H 	0.9252	0.2546	0.4462	0.047
Mof_C 	C 	0.05877	0.6545	0.60394	-0.119
Mof_H 	H 	0.0674	0.5652	0.6275	0.067
Mof_H 	H 	0.068	0.7429	0.628	0.07
Mof_C 	C 	0.99517	0.8166	0.5444	0.007
Mof_H 	H 	0.0083	0.8573	0.5268	0.023
Mof_H 	H 	0.0063	0.8756	0.5781	0.036
Mof_C 	C 	0.94429	0.832	0.5034	-0.163
Mof_H 	H 	0.9364	0.9383	0.4991	0.085
Mof_H 	H 	0.934	0.7937	0.4666	0.088
Mof_C 	C 	0.98606	0.5972	0.5841	-0.05
Mof_H 	H 	0.9968	0.4958	0.5986	0.051
Mof_H 	H 	0.9935	0.6607	0.6154	0.064
Mof_C 	C 	0.91976	0.4755	0.50048	-0.038
Mof_H 	H 	0.8874	0.4808	0.4778	0.044
Mof_H 	H 	0.9288	0.3783	0.5196	0.045
Mof_C 	C 	0.92057	0.7465	0.5233	-0.027
Mof_H 	H 	0.924	0.8022	0.5539	0.054
Mof_H 	H 	0.8889	0.7406	0.4925	0.048
Mof_C 	C 	0.16849	0.3783	0.39604	-0.059
Mof_H 	H 	0.1565	0.2789	0.3939	0.051
Mof_H 	H 	0.1438	0.4494	0.377	0.064
Mof_C 	C 	0.2047	0.526	0.3667	-0.031
Mof_H 	H 	0.179	0.5907	0.3421	0.047
Mof_H 	H 	0.2211	0.5192	0.3509	0.041
Mof_C 	C 	0.23447	0.5986	0.4247	-0.141
Mof_H 	H 	0.238	0.7053	0.4205	0.069
Mof_H 	H 	0.2638	0.5521	0.4459	0.077
Mof_C 	C 	0.21517	0.5814	0.4573	-0.043
Mof_H 	H 	0.2375	0.6128	0.4961	0.04
Mof_H 	H 	0.1896	0.6481	0.441	0.052
Mof_C 	C 	0.17995	0.4195	0.4863	-0.124
Mof_H 	H 	0.1594	0.3346	0.4725	0.069
Mof_H 	H 	0.163	0.5117	0.4782	0.069
Mof_C 	C 	0.21538	0.4043	0.54964	-0.072
Mof_H 	H 	0.2356	0.49	0.5639	0.047
Mof_H 	H 	0.2014	0.4022	0.5686	0.051
Mof_C 	C 	0.28146	0.2507	0.62038	-0.041
Mof_H 	H 	0.2983	0.3439	0.6299	0.049
Mof_H 	H 	0.2723	0.2429	0.6449	0.046
Mof_O 	O 	0.69847	0.5807	0.45298	-0.402
Mof_O 	O 	0.66439	0.5533	0.49413	-0.297
Mof_O 	O 	0.41413	0.2209	0.37838	-0.287
Mof_O 	O 	0.48769	0.1847	0.44343	-0.401
Mof_O 	O 	0.50165	0.6768	0.30251	-0.251
Mof_O 	O 	0.55666	0.0756	0.29425	-0.27
Mof_N 	N 	0.68898	0.8747	0.36722	-0.091
Mof_N 	N 	0.70098	0.9235	0.45692	-0.164
Mof_N 	N 	0.74033	0.7623	0.5607	-0.233
Mof_H 	H 	0.7206	0.6784	0.5543	0.098
Mof_N 	N 	0.43823	0.0931	0.54267	-0.107
Mof_N 	N 	0.43301	0.9809	0.46174	-0.224
Mof_H 	H 	0.4185	0.0697	0.4374	0.088
Mof_N 	N 	0.50939	0.1564	0.56065	-0.167
Mof_C 	C 	0.47125	0.7815	0.259	0.039
Mof_H 	H 	0.4563	0.8416	0.2706	0.032
Mof_H 	H 	0.4488	0.7282	0.2244	0.039
Mof_C 	C 	0.5299	0.9807	0.30258	0.086
Mof_H 	H 	0.5117	0.0425	0.3087	0.013
Mof_H 	H 	0.549	0.9169	0.3355	0.021
Mof_C 	C 	0.48583	0.5673	0.31916	0.288
Mof_C 	C 	0.5188	0.4711	0.3605	-0.277
Mof_H 	H 	0.5479	0.4781	0.3716	0.145
Mof_C 	C 	0.50837	0.3655	0.385	0.153
Mof_H 	H 	0.5307	0.3031	0.4135	-0.017
Mof_C 	C 	0.46437	0.3508	0.36765	-0.196
Mof_C 	C 	0.43192	0.4424	0.32378	0.15
Mof_H 	H 	0.4023	0.4301	0.3103	-0.013
Mof_C 	C 	0.44186	0.5517	0.29916	-0.286
Mof_H 	H 	0.4195	0.6125	0.27	0.132
Mof_C 	C 	0.58329	0.1817	0.33546	0.29
Mof_C 	C 	0.59035	0.1878	0.38684	-0.293
Mof_H 	H 	0.577	0.1174	0.3958	0.132
Mof_C 	C 	0.61771	0.3003	0.42498	0.153
Mof_H 	H 	0.6217	0.3065	0.4592	-0.018
Mof_C 	C 	0.63913	0.4033	0.41365	-0.203
Mof_C 	C 	0.66975	0.5214	0.45707	0.358
Mof_C 	C 	0.63231	0.3919	0.3621	0.16
Mof_H 	H 	0.6469	0.459	0.3538	-0.02
Mof_C 	C 	0.60457	0.2839	0.3231	-0.284
Mof_H 	H 	0.6	0.2791	0.2885	0.141
Mof_C 	C 	0.45488	0.2448	0.3988	0.354
Mof_C 	C 	0.41791	0.8463	0.4243	-0.075
Mof_H 	H 	0.3857	0.85	0.3957	0.057
Mof_H 	H 	0.4252	0.7546	0.4462	0.049
Mof_C 	C 	0.55877	0.1545	0.60394	-0.123
Mof_H 	H 	0.5674	0.0652	0.6275	0.063
Mof_H 	H 	0.568	0.2429	0.628	0.069
Mof_C 	C 	0.49517	0.3166	0.5444	-0.047
Mof_H 	H 	0.5083	0.3573	0.5268	0.043
Mof_H 	H 	0.5063	0.3756	0.5781	0.055
Mof_C 	C 	0.44429	0.332	0.5034	-0.133
Mof_H 	H 	0.4364	0.4383	0.4991	0.071
Mof_H 	H 	0.434	0.2937	0.4666	0.077
Mof_C 	C 	0.48606	0.0972	0.5841	-0.088
Mof_H 	H 	0.4968	0.9958	0.5986	0.069
Mof_H 	H 	0.4935	0.1607	0.6154	0.07
Mof_C 	C 	0.41976	0.9755	0.50048	-0.026
Mof_H 	H 	0.3874	0.9808	0.4778	0.046
Mof_H 	H 	0.4288	0.8783	0.5196	0.043
Mof_C 	C 	0.42057	0.2465	0.5233	-0.041
Mof_H 	H 	0.424	0.3022	0.5539	0.055
Mof_H 	H 	0.3889	0.2406	0.4925	0.049
Mof_C 	C 	0.66849	0.8783	0.39604	-0.059
Mof_H 	H 	0.6565	0.7789	0.3939	0.053
Mof_H 	H 	0.6438	0.9494	0.377	0.071
Mof_C 	C 	0.7047	0.026	0.3667	-0.055
Mof_H 	H 	0.679	0.0907	0.3421	0.05
Mof_H 	H 	0.7211	0.0192	0.3509	0.043
Mof_C 	C 	0.73447	0.0986	0.4247	-0.119
Mof_H 	H 	0.738	0.2053	0.4205	0.06
Mof_H 	H 	0.7638	0.0521	0.4459	0.065
Mof_C 	C 	0.71517	0.0814	0.4573	-0.067
Mof_H 	H 	0.7375	0.1128	0.4961	0.043
Mof_H 	H 	0.6896	0.1481	0.441	0.057
Mof_C 	C 	0.67995	0.9195	0.4863	-0.084
Mof_H 	H 	0.6594	0.8346	0.4725	0.059
Mof_H 	H 	0.663	0.0117	0.4782	0.046
Mof_C 	C 	0.71538	0.9043	0.54964	-0.093
Mof_H 	H 	0.7356	0.99	0.5639	0.058
Mof_H 	H 	0.7014	0.9022	0.5686	0.061
Mof_C 	C 	0.78146	0.7507	0.62038	-0.044
Mof_H 	H 	0.7983	0.8439	0.6299	0.053
Mof_H 	H 	0.7723	0.7429	0.6449	0.05
Mof_O 	O 	0.80153	0.0807	0.04702	-0.411
Mof_O 	O 	0.83561	0.0533	0.00587	-0.317
Mof_O 	O 	0.08587	0.7209	0.12162	-0.283
Mof_O 	O 	0.01231	0.6847	0.05657	-0.413
Mof_O 	O 	0.99835	0.1768	0.19749	-0.233
Mof_O 	O 	0.94334	0.5756	0.20575	-0.246
Mof_N 	N 	0.81102	0.3747	0.13278	-0.1
Mof_N 	N 	0.79902	0.4235	0.04308	-0.165
Mof_N 	N 	0.75967	0.2623	0.9393	-0.237
Mof_H 	H 	0.7794	0.1784	0.9457	0.106
Mof_N 	N 	0.06177	0.5931	0.95733	-0.107
Mof_N 	N 	0.06699	0.4809	0.03826	-0.261
Mof_H 	H 	0.0815	0.5697	0.0626	0.101
Mof_N 	N 	0.99061	0.6564	0.93935	-0.144
Mof_C 	C 	0.02875	0.2815	0.241	0.015
Mof_H 	H 	0.0437	0.3416	0.2294	0.034
Mof_H 	H 	0.0512	0.2282	0.2756	0.044
Mof_C 	C 	0.9701	0.4807	0.19742	0.03
Mof_H 	H 	0.9883	0.5425	0.1913	0.043
Mof_H 	H 	0.951	0.4169	0.1645	0.033
Mof_C 	C 	0.01417	0.0673	0.18084	0.252
Mof_C 	C 	0.9812	0.9711	0.1395	-0.24
Mof_H 	H 	0.9521	0.9781	0.1284	0.136
Mof_C 	C 	0.99163	0.8655	0.115	0.156
Mof_H 	H 	0.9693	0.8031	0.0865	-0.019
Mof_C 	C 	0.03563	0.8508	0.13235	-0.207
Mof_C 	C 	0.06808	0.9424	0.17622	0.168
Mof_H 	H 	0.0977	0.9301	0.1897	-0.016
Mof_C 	C 	0.05814	0.0517	0.20084	-0.292
Mof_H 	H 	0.0805	0.1125	0.23	0.13
Mof_C 	C 	0.91671	0.6817	0.16454	0.28
Mof_C 	C 	0.90965	0.6878	0.11316	-0.28
Mof_H 	H 	0.923	0.6174	0.1042	0.129
Mof_C 	C 	0.88229	0.8003	0.07502	0.14
Mof_H 	H 	0.8783	0.8065	0.0408	-0.018
Mof_C 	C 	0.86087	0.9033	0.08635	-0.183
Mof_C 	C 	0.83025	0.0214	0.04293	0.34
Mof_C 	C 	0.86769	0.8919	0.1379	0.147
Mof_H 	H 	0.8531	0.959	0.1462	-0.01
Mof_C 	C 	0.89543	0.7839	0.1769	-0.268
Mof_H 	H 	0.9	0.7791	0.2115	0.139
Mof_C 	C 	0.04512	0.7448	0.1012	0.359
Mof_C 	C 	0.08209	0.3463	0.0757	-0.069
Mof_H 	H 	0.1143	0.35	0.1043	0.05
Mof_H 	H 	0.0748	0.2546	0.0538	0.039
Mof_C 	C 	0.94123	0.6545	0.89606	-0.121
Mof_H 	H 	0.9326	0.5652	0.8725	0.07
Mof_H 	H 	0.932	0.7429	0.872	0.071
Mof_C 	C 	0.00483	0.8166	0.9556	-0.171
Mof_H 	H 	0.9917	0.8573	0.9732	0.099
Mof_H 	H 	0.9937	0.8756	0.9219	0.102
Mof_C 	C 	0.05571	0.832	0.9966	0.057
Mof_H 	H 	0.0636	0.9383	0.0009	-0.007
Mof_H 	H 	0.066	0.7937	0.0334	0.004
Mof_C 	C 	0.01394	0.5972	0.9159	-0.061
Mof_H 	H 	0.0032	0.4958	0.9014	0.047
Mof_H 	H 	0.0065	0.6607	0.8846	0.061
Mof_C 	C 	0.08024	0.4755	0.99952	0.058
Mof_H 	H 	0.1126	0.4808	0.0222	-0.006
Mof_H 	H 	0.0712	0.3783	0.9804	0.025
Mof_C 	C 	0.07943	0.7465	0.9767	-0.059
Mof_H 	H 	0.076	0.8022	0.9461	0.067
Mof_H 	H 	0.1111	0.7406	0.0075	0.036
Mof_C 	C 	0.83151	0.3783	0.10396	-0.06
Mof_H 	H 	0.8435	0.2789	0.1061	0.052
Mof_H 	H 	0.8562	0.4494	0.123	0.065
Mof_C 	C 	0.7953	0.526	0.1333	-0.034
Mof_H 	H 	0.821	0.5907	0.1579	0.048
Mof_H 	H 	0.7789	0.5192	0.1491	0.041
Mof_C 	C 	0.76553	0.5986	0.0753	-0.135
Mof_H 	H 	0.762	0.7053	0.0795	0.062
Mof_H 	H 	0.7362	0.5521	0.0541	0.067
Mof_C 	C 	0.78483	0.5814	0.0427	-0.044
Mof_H 	H 	0.7625	0.6128	0.0039	0.027
Mof_H 	H 	0.8104	0.6481	0.059	0.05
Mof_C 	C 	0.82005	0.4195	0.0137	-0.174
Mof_H 	H 	0.8406	0.3346	0.0275	0.077
Mof_H 	H 	0.837	0.5117	0.0218	0.076
Mof_C 	C 	0.78462	0.4043	0.95036	-0.019
Mof_H 	H 	0.7644	0.49	0.9361	0.038
Mof_H 	H 	0.7986	0.4022	0.9314	0.04
Mof_C 	C 	0.71854	0.2507	0.87962	-0.038
Mof_H 	H 	0.7017	0.3439	0.8701	0.049
Mof_H 	H 	0.7277	0.2429	0.8551	0.045
Mof_O 	O 	0.30153	0.5807	0.04702	-0.411
Mof_O 	O 	0.33561	0.5533	0.00587	-0.316
Mof_O 	O 	0.58587	0.2209	0.12162	-0.287
Mof_O 	O 	0.51231	0.1847	0.05657	-0.41
Mof_O 	O 	0.49835	0.6768	0.19749	-0.251
Mof_O 	O 	0.44334	0.0756	0.20575	-0.271
Mof_N 	N 	0.31102	0.8747	0.13278	-0.09
Mof_N 	N 	0.29902	0.9235	0.04308	-0.161
Mof_N 	N 	0.25967	0.7623	0.9393	-0.234
Mof_H 	H 	0.2794	0.6784	0.9457	0.108
Mof_N 	N 	0.56177	0.0931	0.95733	-0.115
Mof_N 	N 	0.56699	0.9809	0.03826	-0.248
Mof_H 	H 	0.5815	0.0697	0.0626	0.089
Mof_N 	N 	0.49061	0.1564	0.93935	-0.155
Mof_C 	C 	0.52875	0.7815	0.241	0.039
Mof_H 	H 	0.5437	0.8416	0.2294	0.032
Mof_H 	H 	0.5512	0.7282	0.2756	0.039
Mof_C 	C 	0.4701	0.9807	0.19742	0.087
Mof_H 	H 	0.4883	0.0425	0.1913	0.012
Mof_H 	H 	0.451	0.9169	0.1645	0.02
Mof_C 	C 	0.51417	0.5673	0.18084	0.29
Mof_C 	C 	0.4812	0.4711	0.1395	-0.279
Mof_H 	H 	0.4521	0.4781	0.1284	0.145
Mof_C 	C 	0.49163	0.3655	0.115	0.155
Mof_H 	H 	0.4693	0.3031	0.0865	-0.022
Mof_C 	C 	0.53563	0.3508	0.13235	-0.2
Mof_C 	C 	0.56808	0.4424	0.17622	0.153
Mof_H 	H 	0.5977	0.4301	0.1897	-0.015
Mof_C 	C 	0.55814	0.5517	0.20084	-0.288
Mof_H 	H 	0.5805	0.6125	0.23	0.133
Mof_C 	C 	0.41671	0.1817	0.16454	0.294
Mof_C 	C 	0.40965	0.1878	0.11316	-0.299
Mof_H 	H 	0.423	0.1174	0.1042	0.132
Mof_C 	C 	0.38229	0.3003	0.07502	0.158
Mof_H 	H 	0.3783	0.3065	0.0408	-0.028
Mof_C 	C 	0.36087	0.4033	0.08635	-0.211
Mof_C 	C 	0.33025	0.5214	0.04293	0.36
Mof_C 	C 	0.36769	0.3919	0.1379	0.165
Mof_H 	H 	0.3531	0.459	0.1462	-0.022
Mof_C 	C 	0.39543	0.2839	0.1769	-0.288
Mof_H 	H 	0.4	0.2791	0.2115	0.143
Mof_C 	C 	0.54512	0.2448	0.1012	0.356
Mof_C 	C 	0.58209	0.8463	0.0757	-0.068
Mof_H 	H 	0.6143	0.85	0.1043	0.054
Mof_H 	H 	0.5748	0.7546	0.0538	0.041
Mof_C 	C 	0.44123	0.1545	0.89606	-0.118
Mof_H 	H 	0.4326	0.0652	0.8725	0.062
Mof_H 	H 	0.432	0.2429	0.872	0.068
Mof_C 	C 	0.50483	0.3166	0.9556	-0.12
Mof_H 	H 	0.4917	0.3573	0.9732	0.076
Mof_H 	H 	0.4937	0.3756	0.9219	0.078
Mof_C 	C 	0.55571	0.332	0.9966	0.032
Mof_H 	H 	0.5636	0.4383	0.0009	-0.003
Mof_H 	H 	0.566	0.2937	0.0334	0.01
Mof_C 	C 	0.51394	0.0972	0.9159	-0.085
Mof_H 	H 	0.5032	0.9958	0.9014	0.067
Mof_H 	H 	0.5065	0.1607	0.8846	0.068
Mof_C 	C 	0.58024	0.9755	0.99952	0.069
Mof_H 	H 	0.6126	0.9808	0.0222	-0.003
Mof_H 	H 	0.5712	0.8783	0.9804	0.023
Mof_C 	C 	0.57943	0.2465	0.9767	-0.043
Mof_H 	H 	0.576	0.3022	0.9461	0.06
Mof_H 	H 	0.6111	0.2406	0.0075	0.027
Mof_C 	C 	0.33151	0.8783	0.10396	-0.061
Mof_H 	H 	0.3435	0.7789	0.1061	0.054
Mof_H 	H 	0.3562	0.9494	0.123	0.072
Mof_C 	C 	0.2953	0.026	0.1333	-0.059
Mof_H 	H 	0.321	0.0907	0.1579	0.051
Mof_H 	H 	0.2789	0.0192	0.1491	0.044
Mof_C 	C 	0.26553	0.0986	0.0753	-0.114
Mof_H 	H 	0.262	0.2053	0.0795	0.053
Mof_H 	H 	0.2362	0.0521	0.0541	0.055
Mof_C 	C 	0.28483	0.0814	0.0427	-0.068
Mof_H 	H 	0.2625	0.1128	0.0039	0.03
Mof_H 	H 	0.3104	0.1481	0.059	0.054
Mof_C 	C 	0.32005	0.9195	0.0137	-0.133
Mof_H 	H 	0.3406	0.8346	0.0275	0.067
Mof_H 	H 	0.337	0.0117	0.0218	0.053
Mof_C 	C 	0.28462	0.9043	0.95036	-0.04
Mof_H 	H 	0.2644	0.99	0.9361	0.049
Mof_H 	H 	0.2986	0.9022	0.9314	0.05
Mof_C 	C 	0.21854	0.7507	0.87962	-0.041
Mof_H 	H 	0.2017	0.8439	0.8701	0.053
Mof_H 	H 	0.2277	0.7429	0.8551	0.049
Mof_O 	O 	0.80153	0.9193	0.54702	-0.401
Mof_O 	O 	0.83561	0.9467	0.50587	-0.295
Mof_O 	O 	0.08587	0.2791	0.62162	-0.285
Mof_O 	O 	0.01231	0.3153	0.55657	-0.404
Mof_O 	O 	0.99835	0.8232	0.69749	-0.233
Mof_O 	O 	0.94334	0.4244	0.70575	-0.249
Mof_N 	N 	0.81102	0.6253	0.63278	-0.099
Mof_N 	N 	0.79902	0.5765	0.54308	-0.167
Mof_N 	N 	0.75967	0.7377	0.4393	-0.236
Mof_H 	H 	0.7794	0.8216	0.4457	0.102
Mof_N 	N 	0.06177	0.4069	0.45733	-0.099
Mof_N 	N 	0.06699	0.5191	0.53826	-0.235
Mof_H 	H 	0.0815	0.4303	0.5626	0.099
Mof_N 	N 	0.99061	0.3436	0.43935	-0.155
Mof_C 	C 	0.02875	0.7185	0.741	0.014
Mof_H 	H 	0.0437	0.6584	0.7294	0.035
Mof_H 	H 	0.0512	0.7718	0.7756	0.048
Mof_C 	C 	0.9701	0.5193	0.69742	0.028
Mof_H 	H 	0.9883	0.4575	0.6913	0.042
Mof_H 	H 	0.951	0.5831	0.6645	0.034
Mof_C 	C 	0.01417	0.9327	0.68084	0.271
Mof_C 	C 	0.9812	0.0289	0.6395	-0.273
Mof_H 	H 	0.9521	0.0219	0.6284	0.139
Mof_C 	C 	0.99163	0.1345	0.615	0.156
Mof_H 	H 	0.9693	0.1969	0.5865	-0.017
Mof_C 	C 	0.03563	0.1492	0.63235	-0.197
Mof_C 	C 	0.06808	0.0576	0.67622	0.124
Mof_H 	H 	0.0977	0.0699	0.6897	-0.007
Mof_C 	C 	0.05814	0.9483	0.70084	-0.255
Mof_H 	H 	0.0805	0.8875	0.73	0.123
Mof_C 	C 	0.91671	0.3183	0.66454	0.292
Mof_C 	C 	0.90965	0.3122	0.61316	-0.298
Mof_H 	H 	0.923	0.3826	0.6042	0.137
Mof_C 	C 	0.88229	0.1997	0.57502	0.164
Mof_H 	H 	0.8783	0.1935	0.5408	-0.024
Mof_C 	C 	0.86087	0.0967	0.58635	-0.223
Mof_C 	C 	0.83025	0.9786	0.54293	0.375
Mof_C 	C 	0.86769	0.1081	0.6379	0.171
Mof_H 	H 	0.8531	0.041	0.6462	-0.029
Mof_C 	C 	0.89543	0.2161	0.6769	-0.29
Mof_H 	H 	0.9	0.2209	0.7115	0.144
Mof_C 	C 	0.04512	0.2552	0.6012	0.352
Mof_C 	C 	0.08209	0.6537	0.5757	-0.079
Mof_H 	H 	0.1143	0.65	0.6043	0.057
Mof_H 	H 	0.0748	0.7454	0.5538	0.052
Mof_C 	C 	0.94123	0.3455	0.39606	-0.125
Mof_H 	H 	0.9326	0.4348	0.3725	0.071
Mof_H 	H 	0.932	0.2571	0.372	0.07
Mof_C 	C 	0.00483	0.1834	0.4556	-0.102
Mof_H 	H 	0.9917	0.1427	0.4732	0.063
Mof_H 	H 	0.9937	0.1244	0.4219	0.074
Mof_C 	C 	0.05571	0.168	0.4966	-0.1
Mof_H 	H 	0.0636	0.0617	0.5009	0.056
Mof_H 	H 	0.066	0.2063	0.5334	0.067
Mof_C 	C 	0.01394	0.4028	0.4159	-0.065
Mof_H 	H 	0.0032	0.5042	0.4014	0.048
Mof_H 	H 	0.0065	0.3393	0.3846	0.062
Mof_C 	C 	0.08024	0.5245	0.49952	-0.042
Mof_H 	H 	0.1126	0.5192	0.5222	0.046
Mof_H 	H 	0.0712	0.6217	0.4804	0.046
Mof_C 	C 	0.07943	0.2535	0.4767	-0.058
Mof_H 	H 	0.076	0.1978	0.4461	0.059
Mof_H 	H 	0.1111	0.2594	0.5075	0.056
Mof_C 	C 	0.83151	0.6217	0.60396	-0.06
Mof_H 	H 	0.8435	0.7211	0.6061	0.054
Mof_H 	H 	0.8562	0.5506	0.623	0.065
Mof_C 	C 	0.7953	0.474	0.6333	-0.033
Mof_H 	H 	0.821	0.4093	0.6579	0.046
Mof_H 	H 	0.7789	0.4808	0.6491	0.041
Mof_C 	C 	0.76553	0.4014	0.5753	-0.137
Mof_H 	H 	0.762	0.2947	0.5795	0.063
Mof_H 	H 	0.7362	0.4479	0.5541	0.075
Mof_C 	C 	0.78483	0.4186	0.5427	-0.045
Mof_H 	H 	0.7625	0.3872	0.5039	0.04
Mof_H 	H 	0.8104	0.3519	0.559	0.052
Mof_C 	C 	0.82005	0.5805	0.5137	-0.124
Mof_H 	H 	0.8406	0.6654	0.5275	0.069
Mof_H 	H 	0.837	0.4883	0.5218	0.069
Mof_C 	C 	0.78462	0.5957	0.45036	-0.072
Mof_H 	H 	0.7644	0.51	0.4361	0.047
Mof_H 	H 	0.7986	0.5978	0.4314	0.052
Mof_C 	C 	0.71854	0.7493	0.37962	-0.041
Mof_H 	H 	0.7017	0.6561	0.3701	0.05
Mof_H 	H 	0.7277	0.7571	0.3551	0.051
Mof_O 	O 	0.30153	0.4193	0.54702	-0.401
Mof_O 	O 	0.33561	0.4467	0.50587	-0.297
Mof_O 	O 	0.58587	0.7791	0.62162	-0.281
Mof_O 	O 	0.51231	0.8153	0.55657	-0.395
Mof_O 	O 	0.49835	0.3232	0.69749	-0.245
Mof_O 	O 	0.44334	0.9244	0.70575	-0.222
Mof_N 	N 	0.31102	0.1253	0.63278	-0.108
Mof_N 	N 	0.29902	0.0765	0.54308	-0.17
Mof_N 	N 	0.25967	0.2377	0.4393	-0.239
Mof_H 	H 	0.2794	0.3216	0.4457	0.099
Mof_N 	N 	0.56177	0.9069	0.45733	-0.097
Mof_N 	N 	0.56699	0.0191	0.53826	-0.244
Mof_H 	H 	0.5815	0.9303	0.5626	0.111
Mof_N 	N 	0.49061	0.8436	0.43935	-0.169
Mof_C 	C 	0.52875	0.2185	0.741	-0.001
Mof_H 	H 	0.5437	0.1584	0.7294	0.037
Mof_H 	H 	0.5512	0.2718	0.7756	0.05
Mof_C 	C 	0.4701	0.0193	0.69742	-0.061
Mof_H 	H 	0.4883	0.9575	0.6913	0.076
Mof_H 	H 	0.451	0.0831	0.6645	0.056
Mof_C 	C 	0.51417	0.4327	0.68084	0.282
Mof_C 	C 	0.4812	0.5289	0.6395	-0.272
Mof_H 	H 	0.4521	0.5219	0.6284	0.142
Mof_C 	C 	0.49163	0.6345	0.615	0.148
Mof_H 	H 	0.4693	0.6969	0.5865	-0.015
Mof_C 	C 	0.53563	0.6492	0.63235	-0.192
Mof_C 	C 	0.56808	0.5576	0.67622	0.146
Mof_H 	H 	0.5977	0.5699	0.6897	-0.011
Mof_C 	C 	0.55814	0.4483	0.70084	-0.282
Mof_H 	H 	0.5805	0.3875	0.73	0.129
Mof_C 	C 	0.41671	0.8183	0.66454	0.275
Mof_C 	C 	0.40965	0.8122	0.61316	-0.278
Mof_H 	H 	0.423	0.8826	0.6042	0.132
Mof_C 	C 	0.38229	0.6997	0.57502	0.144
Mof_H 	H 	0.3783	0.6935	0.5408	-0.014
Mof_C 	C 	0.36087	0.5967	0.58635	-0.196
Mof_C 	C 	0.33025	0.4786	0.54293	0.355
Mof_C 	C 	0.36769	0.6081	0.6379	0.152
Mof_H 	H 	0.3531	0.541	0.6462	-0.017
Mof_C 	C 	0.39543	0.7161	0.6769	-0.27
Mof_H 	H 	0.4	0.7209	0.7115	0.138
Mof_C 	C 	0.54512	0.7552	0.6012	0.352
Mof_C 	C 	0.58209	0.1537	0.5757	-0.076
Mof_H 	H 	0.6143	0.15	0.6043	0.052
Mof_H 	H 	0.5748	0.2454	0.5538	0.05
Mof_C 	C 	0.44123	0.8455	0.39606	-0.121
Mof_H 	H 	0.4326	0.9348	0.3725	0.075
Mof_H 	H 	0.432	0.7571	0.372	0.07
Mof_C 	C 	0.50483	0.6834	0.4556	-0.047
Mof_H 	H 	0.4917	0.6427	0.4732	0.043
Mof_H 	H 	0.4937	0.6244	0.4219	0.055
Mof_C 	C 	0.55571	0.668	0.4966	-0.131
Mof_H 	H 	0.5636	0.5617	0.5009	0.07
Mof_H 	H 	0.566	0.7063	0.5334	0.078
Mof_C 	C 	0.51394	0.9028	0.4159	-0.025
Mof_H 	H 	0.5032	0.0042	0.4014	0.03
Mof_H 	H 	0.5065	0.8393	0.3846	0.056
Mof_C 	C 	0.58024	0.0245	0.49952	-0.054
Mof_H 	H 	0.6126	0.0192	0.5222	0.044
Mof_H 	H 	0.5712	0.1217	0.4804	0.049
Mof_C 	C 	0.57943	0.7535	0.4767	-0.043
Mof_H 	H 	0.576	0.6978	0.4461	0.057
Mof_H 	H 	0.6111	0.7594	0.5075	0.055
Mof_C 	C 	0.33151	0.1217	0.60396	-0.06
Mof_H 	H 	0.3435	0.2211	0.6061	0.052
Mof_H 	H 	0.3562	0.0506	0.623	0.059
Mof_C 	C 	0.2953	0.974	0.6333	-0.009
Mof_H 	H 	0.321	0.9093	0.6579	0.043
Mof_H 	H 	0.2789	0.9808	0.6491	0.039
Mof_C 	C 	0.26553	0.9014	0.5753	-0.157
Mof_H 	H 	0.262	0.7947	0.5795	0.073
Mof_H 	H 	0.2362	0.9479	0.5541	0.087
Mof_C 	C 	0.28483	0.9186	0.5427	-0.022
Mof_H 	H 	0.2625	0.8872	0.5039	0.038
Mof_H 	H 	0.3104	0.8519	0.559	0.047
Mof_C 	C 	0.32005	0.0805	0.5137	-0.164
Mof_H 	H 	0.3406	0.1654	0.5275	0.079
Mof_H 	H 	0.337	0.9883	0.5218	0.091
Mof_C 	C 	0.28462	0.0957	0.45036	-0.051
Mof_H 	H 	0.2644	0.01	0.4361	0.035
Mof_H 	H 	0.2986	0.0978	0.4314	0.041
Mof_C 	C 	0.21854	0.2493	0.37962	-0.038
Mof_H 	H 	0.2017	0.1561	0.3701	0.046
Mof_H 	H 	0.2277	0.2571	0.3551	0.046
Mof_O 	O 	0.19847	0.9193	0.95298	-0.387
Mof_O 	O 	0.16439	0.9467	0.99413	-0.276
Mof_O 	O 	0.91413	0.2791	0.87838	-0.284
Mof_O 	O 	0.98769	0.3153	0.94343	-0.381
Mof_O 	O 	0.00165	0.8232	0.80251	-0.265
Mof_O 	O 	0.05666	0.4244	0.79425	-0.25
Mof_N 	N 	0.18898	0.6253	0.86722	-0.1
Mof_N 	N 	0.20098	0.5765	0.95692	-0.166
Mof_N 	N 	0.24033	0.7377	0.0607	-0.231
Mof_H 	H 	0.2206	0.8216	0.0543	0.093
Mof_N 	N 	0.93823	0.4069	0.04267	-0.098
Mof_N 	N 	0.93301	0.5191	0.96174	-0.207
Mof_H 	H 	0.9185	0.4303	0.9374	0.098
Mof_N 	N 	0.00939	0.3436	0.06065	-0.192
Mof_C 	C 	0.97125	0.7185	0.759	0.049
Mof_H 	H 	0.9563	0.6584	0.7706	0.028
Mof_H 	H 	0.9488	0.7718	0.7244	0.038
Mof_C 	C 	0.0299	0.5193	0.80258	0.021
Mof_H 	H 	0.0117	0.4575	0.8087	0.039
Mof_H 	H 	0.049	0.5831	0.8355	0.036
Mof_C 	C 	0.98583	0.9327	0.81916	0.317
Mof_C 	C 	0.0188	0.0289	0.8605	-0.307
Mof_H 	H 	0.0479	0.0219	0.8716	0.151
Mof_C 	C 	0.00837	0.1345	0.885	0.147
Mof_H 	H 	0.0307	0.1969	0.9135	-0.013
Mof_C 	C 	0.96437	0.1492	0.86765	-0.183
Mof_C 	C 	0.93192	0.0576	0.82378	0.13
Mof_H 	H 	0.9023	0.0699	0.8103	-0.009
Mof_C 	C 	0.94186	0.9483	0.79916	-0.277
Mof_H 	H 	0.9195	0.8875	0.77	0.131
Mof_C 	C 	0.08329	0.3183	0.83546	0.287
Mof_C 	C 	0.09035	0.3122	0.88684	-0.291
Mof_H 	H 	0.077	0.3826	0.8958	0.136
Mof_C 	C 	0.11771	0.1997	0.92498	0.157
Mof_H 	H 	0.1217	0.1935	0.9592	-0.014
Mof_C 	C 	0.13913	0.0967	0.91365	-0.214
Mof_C 	C 	0.16975	0.9786	0.95707	0.371
Mof_C 	C 	0.13231	0.1081	0.8621	0.165
Mof_H 	H 	0.1469	0.041	0.8538	-0.026
Mof_C 	C 	0.10457	0.2161	0.8231	-0.285
Mof_H 	H 	0.1	0.2209	0.7885	0.141
Mof_C 	C 	0.95488	0.2552	0.8988	0.346
Mof_C 	C 	0.91791	0.6537	0.9243	-0.081
Mof_H 	H 	0.8857	0.65	0.8957	0.059
Mof_H 	H 	0.9252	0.7454	0.9462	0.059
Mof_C 	C 	0.05877	0.3455	0.10394	-0.122
Mof_H 	H 	0.0674	0.4348	0.1275	0.068
Mof_H 	H 	0.068	0.2571	0.128	0.067
Mof_C 	C 	0.99517	0.1834	0.0444	0.086
Mof_H 	H 	0.0083	0.1427	0.0268	-0.017
Mof_H 	H 	0.0063	0.1244	0.0781	0.004
Mof_C 	C 	0.94429	0.168	0.0034	-0.324
Mof_H 	H 	0.9364	0.0617	0.9991	0.149
Mof_H 	H 	0.934	0.2063	0.9666	0.152
Mof_C 	C 	0.98606	0.4028	0.0841	-0.051
Mof_H 	H 	0.9968	0.5042	0.0986	0.052
Mof_H 	H 	0.9935	0.3393	0.1154	0.065
Mof_C 	C 	0.91976	0.5245	0.00048	-0.132
Mof_H 	H 	0.8874	0.5192	0.9778	0.093
Mof_H 	H 	0.9288	0.6217	0.0196	0.066
Mof_C 	C 	0.92057	0.2535	0.0233	-0.022
Mof_H 	H 	0.924	0.1978	0.0539	0.044
Mof_H 	H 	0.8889	0.2594	0.9925	0.067
Mof_C 	C 	0.16849	0.6217	0.89604	-0.057
Mof_H 	H 	0.1565	0.7211	0.8939	0.054
Mof_H 	H 	0.1438	0.5506	0.877	0.064
Mof_C 	C 	0.2047	0.474	0.8667	-0.029
Mof_H 	H 	0.179	0.4093	0.8421	0.045
Mof_H 	H 	0.2211	0.4808	0.8509	0.041
Mof_C 	C 	0.23447	0.4014	0.9247	-0.142
Mof_H 	H 	0.238	0.2947	0.9205	0.071
Mof_H 	H 	0.2638	0.4479	0.9459	0.086
Mof_C 	C 	0.21517	0.4186	0.9573	-0.044
Mof_H 	H 	0.2375	0.3872	0.9961	0.054
Mof_H 	H 	0.1896	0.3519	0.941	0.054
Mof_C 	C 	0.17995	0.5805	0.9863	-0.071
Mof_H 	H 	0.1594	0.6654	0.9725	0.061
Mof_H 	H 	0.163	0.4883	0.9782	0.061
Mof_C 	C 	0.21538	0.5957	0.04964	-0.125
Mof_H 	H 	0.2356	0.51	0.0639	0.056
Mof_H 	H 	0.2014	0.5978	0.0686	0.063
Mof_C 	C 	0.28146	0.7493	0.12038	-0.043
Mof_H 	H 	0.2983	0.6561	0.1299	0.05
Mof_H 	H 	0.2723	0.7571	0.1449	0.051
Mof_O 	O 	0.69847	0.4193	0.95298	-0.387
Mof_O 	O 	0.66439	0.4467	0.99413	-0.277
Mof_O 	O 	0.41413	0.7791	0.87838	-0.28
Mof_O 	O 	0.48769	0.8153	0.94343	-0.382
Mof_O 	O 	0.50165	0.3232	0.80251	-0.244
Mof_O 	O 	0.55666	0.9244	0.79425	-0.221
Mof_N 	N 	0.68898	0.1253	0.86722	-0.109
Mof_N 	N 	0.70098	0.0765	0.95692	-0.17
Mof_N 	N 	0.74033	0.2377	0.0607	-0.234
Mof_H 	H 	0.7206	0.3216	0.0543	0.09
Mof_N 	N 	0.43823	0.9069	0.04267	-0.089
Mof_N 	N 	0.43301	0.0191	0.96174	-0.215
Mof_H 	H 	0.4185	0.9303	0.9374	0.109
Mof_N 	N 	0.50939	0.8436	0.06065	-0.178
Mof_C 	C 	0.47125	0.2185	0.759	-0.001
Mof_H 	H 	0.4563	0.1584	0.7706	0.037
Mof_H 	H 	0.4488	0.2718	0.7244	0.05
Mof_C 	C 	0.5299	0.0193	0.80258	-0.061
Mof_H 	H 	0.5117	0.9575	0.8087	0.076
Mof_H 	H 	0.549	0.0831	0.8355	0.056
Mof_C 	C 	0.48583	0.4327	0.81916	0.279
Mof_C 	C 	0.5188	0.5289	0.8605	-0.269
Mof_H 	H 	0.5479	0.5219	0.8716	0.142
Mof_C 	C 	0.50837	0.6345	0.885	0.145
Mof_H 	H 	0.5307	0.6969	0.9135	-0.009
Mof_C 	C 	0.46437	0.6492	0.86765	-0.188
Mof_C 	C 	0.43192	0.5576	0.82378	0.142
Mof_H 	H 	0.4023	0.5699	0.8103	-0.01
Mof_C 	C 	0.44186	0.4483	0.79916	-0.279
Mof_H 	H 	0.4195	0.3875	0.77	0.128
Mof_C 	C 	0.58329	0.8183	0.83546	0.271
Mof_C 	C 	0.59035	0.8122	0.88684	-0.272
Mof_H 	H 	0.577	0.8826	0.8958	0.132
Mof_C 	C 	0.61771	0.6997	0.92498	0.138
Mof_H 	H 	0.6217	0.6935	0.9592	-0.005
Mof_C 	C 	0.63913	0.5967	0.91365	-0.188
Mof_C 	C 	0.66975	0.4786	0.95707	0.352
Mof_C 	C 	0.63231	0.6081	0.8621	0.147
Mof_H 	H 	0.6469	0.541	0.8538	-0.015
Mof_C 	C 	0.60457	0.7161	0.8231	-0.265
Mof_H 	H 	0.6	0.7209	0.7885	0.137
Mof_C 	C 	0.45488	0.7552	0.8988	0.348
Mof_C 	C 	0.41791	0.1537	0.9243	-0.083
Mof_H 	H 	0.3857	0.15	0.8957	0.056
Mof_H 	H 	0.4252	0.2454	0.9462	0.058
Mof_C 	C 	0.55877	0.8455	0.10394	-0.124
Mof_H 	H 	0.5674	0.9348	0.1275	0.076
Mof_H 	H 	0.568	0.7571	0.128	0.071
Mof_C 	C 	0.49517	0.6834	0.0444	0.025
Mof_H 	H 	0.5083	0.6427	0.0268	0.011
Mof_H 	H 	0.5063	0.6244	0.0781	0.031
Mof_C 	C 	0.44429	0.668	0.0034	-0.294
Mof_H 	H 	0.4364	0.5617	0.9991	0.144
Mof_H 	H 	0.434	0.7063	0.9666	0.145
Mof_C 	C 	0.48606	0.9028	0.0841	-0.026
Mof_H 	H 	0.4968	0.0042	0.0986	0.031
Mof_H 	H 	0.4935	0.8393	0.1154	0.057
Mof_C 	C 	0.41976	0.0245	0.00048	-0.152
Mof_H 	H 	0.3874	0.0192	0.9778	0.095
Mof_H 	H 	0.4288	0.1217	0.0196	0.07
Mof_C 	C 	0.42057	0.7535	0.0233	-0.04
Mof_H 	H 	0.424	0.6978	0.0539	0.052
Mof_H 	H 	0.3889	0.7594	0.9925	0.076
Mof_C 	C 	0.66849	0.1217	0.89604	-0.057
Mof_H 	H 	0.6565	0.2211	0.8939	0.052
Mof_H 	H 	0.6438	0.0506	0.877	0.058
Mof_C 	C 	0.7047	0.974	0.8667	-0.006
Mof_H 	H 	0.679	0.9093	0.8421	0.042
Mof_H 	H 	0.7211	0.9808	0.8509	0.039
Mof_C 	C 	0.73447	0.9014	0.9247	-0.162
Mof_H 	H 	0.738	0.7947	0.9205	0.079
Mof_H 	H 	0.7638	0.9479	0.9459	0.097
Mof_C 	C 	0.71517	0.9186	0.9573	-0.022
Mof_H 	H 	0.7375	0.8872	0.9961	0.051
Mof_H 	H 	0.6896	0.8519	0.941	0.05
Mof_C 	C 	0.67995	0.0805	0.9863	-0.109
Mof_H 	H 	0.6594	0.1654	0.9725	0.071
Mof_H 	H 	0.663	0.9883	0.9782	0.082
Mof_C 	C 	0.71538	0.0957	0.04964	-0.105
Mof_H 	H 	0.7356	0.01	0.0639	0.045
Mof_H 	H 	0.7014	0.0978	0.0686	0.053
Mof_C 	C 	0.78146	0.2493	0.12038	-0.04
Mof_H 	H 	0.7983	0.1561	0.1299	0.046
Mof_H 	H 	0.7723	0.2571	0.1449	0.046
Mof_Ni	Ni	2.91249e-17	0.5	0.5	1.087
Mof_Ni	Ni	0.5	2.58681e-32	0.5	1.084
Mof_Ni	Ni	-0	0.5	-0	1.073
Mof_Ni	Ni	0.5	0	-0	1.07
Mof_Ni	Ni	0.25	0.25	0.5	1.092
Mof_Ni	Ni	0.75	0.25	-0	1.078
Mof_Ni	Ni	0.75	0.75	0.5	1.093
Mof_Ni	Ni	0.25	0.75	-0	1.079
Mof_C 	C 	1.45624e-17	0.383	0.25	-0.011
Mof_C 	C 	0.5	0.883	0.25	-0.024
Mof_C 	C 	5.82497e-17	0.617	0.75	-0.007
Mof_C 	C 	0.5	0.117	0.75	0.05
_end
