# CIF file generated by openbabel 3.1.0, see https://openbabel.org
data_I
_chemical_name_common 'ACOGEF_clean'
_cell_length_a 9.8463
_cell_length_b 16.8512
_cell_length_c 17.2543
_cell_angle_alpha 101.219
_cell_angle_beta 106.579
_cell_angle_gamma 90
_space_group_name_H-M_alt 'P 1'
_space_group_name_Hall 'P 1'
loop_
    _symmetry_equiv_pos_as_xyz
    x,y,z
loop_
    _atom_site_label
    _atom_site_type_symbol
    _atom_site_fract_x
    _atom_site_fract_y
    _atom_site_fract_z
    _atom_site_occupancy
    Cd1      Cd       0.00000    0.50000    0.00000    1.000
    Cd2      Cd       0.00000    0.00000    0.00000    1.000
    H1       H        0.28620    0.87700    0.23380    1.000
    H2       H        0.66000    0.90820    0.27320    1.000
    H3       H        0.42600    0.04160    0.37380    1.000
    H4       H        0.38680    0.98060    0.28880    1.000
    H5       H        0.52360    0.91410    0.42500    1.000
    H6       H        0.54110    0.89260    0.33580    1.000
    H7       H        0.14490    0.99770    0.43000    1.000
    H8       H        0.28470    0.05290    0.45380    1.000
    H9       H        0.75220    0.08920    0.49100    1.000
    H10      H        0.59920    0.06430    0.49180    1.000
    H11      H        0.92950    0.63500    0.15400    1.000
    H12      H        0.01560    0.75030    0.24740    1.000
    H13      H        0.26670    0.78520    0.11580    1.000
    H14      H        0.16340    0.66970    0.02480    1.000
    H15      H        0.07180    0.02130    0.19180    1.000
    H16      H        0.97910    0.01460    0.29840    1.000
    H17      H        0.64250    0.88600    0.13200    1.000
    H18      H        0.74470    0.89790    0.03220    1.000
    H19      H        0.05240    0.62300    0.76620    1.000
    H20      H        0.38680    0.59180    0.72680    1.000
    H21      H        0.05220    0.45840    0.62620    1.000
    H22      H        0.09800    0.51940    0.71120    1.000
    H23      H        0.09860    0.58590    0.57500    1.000
    H24      H        0.20530    0.60740    0.66420    1.000
    H25      H        0.71490    0.50230    0.57000    1.000
    H26      H        0.83090    0.44710    0.54620    1.000
    H27      H        0.26120    0.41080    0.50900    1.000
    H28      H        0.10740    0.43570    0.50820    1.000
    H29      H        0.77550    0.86500    0.84600    1.000
    H30      H        0.76820    0.74970    0.75260    1.000
    H31      H        0.15090    0.71480    0.88420    1.000
    H32      H        0.13860    0.83030    0.97520    1.000
    H33      H        0.88000    0.47870    0.80820    1.000
    H34      H        0.68070    0.48540    0.70160    1.000
    H35      H        0.51050    0.61400    0.86800    1.000
    H36      H        0.71250    0.60210    0.96780    1.000
    H37      H        0.71380    0.12300    0.76620    1.000
    H38      H        0.34000    0.09180    0.72680    1.000
    H39      H        0.57400    0.95840    0.62620    1.000
    H40      H        0.61320    0.01940    0.71120    1.000
    H41      H        0.47640    0.08590    0.57500    1.000
    H42      H        0.45890    0.10740    0.66420    1.000
    H43      H        0.85510    0.00230    0.57000    1.000
    H44      H        0.71530    0.94710    0.54620    1.000
    H45      H        0.24780    0.91080    0.50900    1.000
    H46      H        0.40080    0.93570    0.50820    1.000
    H47      H        0.07050    0.36500    0.84600    1.000
    H48      H        0.98440    0.24970    0.75260    1.000
    H49      H        0.73330    0.21480    0.88420    1.000
    H50      H        0.83660    0.33030    0.97520    1.000
    H51      H        0.92820    0.97870    0.80820    1.000
    H52      H        0.02090    0.98540    0.70160    1.000
    H53      H        0.35750    0.11400    0.86800    1.000
    H54      H        0.25530    0.10210    0.96780    1.000
    H55      H        0.94760    0.37700    0.23380    1.000
    H56      H        0.61320    0.40820    0.27320    1.000
    H57      H        0.94780    0.54160    0.37380    1.000
    H58      H        0.90200    0.48060    0.28880    1.000
    H59      H        0.90140    0.41410    0.42500    1.000
    H60      H        0.79470    0.39260    0.33580    1.000
    H61      H        0.28510    0.49770    0.43000    1.000
    H62      H        0.16910    0.55290    0.45380    1.000
    H63      H        0.73880    0.58920    0.49100    1.000
    H64      H        0.89260    0.56430    0.49180    1.000
    H65      H        0.22450    0.13500    0.15400    1.000
    H66      H        0.23180    0.25030    0.24740    1.000
    H67      H        0.84910    0.28520    0.11580    1.000
    H68      H        0.86140    0.16970    0.02480    1.000
    H69      H        0.12000    0.52130    0.19180    1.000
    H70      H        0.31930    0.51460    0.29840    1.000
    H71      H        0.48950    0.38600    0.13200    1.000
    H72      H        0.28750    0.39790    0.03220    1.000
    C1       C        0.40475    0.98490    0.34770    1.000
    C2       C        0.53526    0.93700    0.37972    1.000
    C3       C        0.24688    0.99710    0.43956    1.000
    C4       C        0.68951    0.04360    0.48802    1.000
    C5       C        0.19612    0.88770    0.32084    1.000
    C6       C        0.00230    0.66490    0.14640    1.000
    C7       C        0.05310    0.73480    0.20340    1.000
    C8       C        0.15802    0.78120    0.19504    1.000
    C9       C        0.19770    0.75540    0.12700    1.000
    C10      C        0.13590    0.68380    0.07280    1.000
    C11      C        0.76008    0.99470    0.36396    1.000
    C12      C        0.98376    0.99410    0.17972    1.000
    C13      C        0.92879    0.99060    0.24458    1.000
    C14      C        0.79737    0.95080    0.22754    1.000
    C15      C        0.72967    0.91470    0.14594    1.000
    C16      C        0.79260    0.92180    0.08660    1.000
    C17      C        0.05705    0.51510    0.65230    1.000
    C18      C        0.15554    0.56300    0.62028    1.000
    C19      C        0.80732    0.50290    0.56044    1.000
    C20      C        0.20149    0.45640    0.51198    1.000
    C21      C        0.87528    0.61230    0.67916    1.000
    C22      C        0.85590    0.83510    0.85360    1.000
    C23      C        0.84970    0.76520    0.79660    1.000
    C24      C        0.96298    0.71880    0.80496    1.000
    C25      C        0.07070    0.74460    0.87300    1.000
    C26      C        0.06310    0.81620    0.92720    1.000
    C27      C        0.39612    0.50530    0.63604    1.000
    C28      C        0.80404    0.50590    0.82028    1.000
    C29      C        0.68421    0.50940    0.75542    1.000
    C30      C        0.56983    0.54920    0.77246    1.000
    C31      C        0.58373    0.58530    0.85406    1.000
    C32      C        0.70600    0.57820    0.91340    1.000
    C33      C        0.59525    0.01510    0.65230    1.000
    C34      C        0.46474    0.06300    0.62028    1.000
    C35      C        0.75312    0.00290    0.56044    1.000
    C36      C        0.31049    0.95640    0.51198    1.000
    C37      C        0.80388    0.11230    0.67916    1.000
    C38      C        0.99770    0.33510    0.85360    1.000
    C39      C        0.94690    0.26520    0.79660    1.000
    C40      C        0.84198    0.21880    0.80496    1.000
    C41      C        0.80230    0.24460    0.87300    1.000
    C42      C        0.86410    0.31620    0.92720    1.000
    C43      C        0.23992    0.00530    0.63604    1.000
    C44      C        0.01624    0.00590    0.82028    1.000
    C45      C        0.07121    0.00940    0.75542    1.000
    C46      C        0.20263    0.04920    0.77246    1.000
    C47      C        0.27033    0.08530    0.85406    1.000
    C48      C        0.20740    0.07820    0.91340    1.000
    C49      C        0.94295    0.48490    0.34770    1.000
    C50      C        0.84446    0.43700    0.37972    1.000
    C51      C        0.19268    0.49710    0.43956    1.000
    C52      C        0.79851    0.54360    0.48802    1.000
    C53      C        0.12472    0.38770    0.32084    1.000
    C54      C        0.14410    0.16490    0.14640    1.000
    C55      C        0.15030    0.23480    0.20340    1.000
    C56      C        0.03702    0.28120    0.19504    1.000
    C57      C        0.92930    0.25540    0.12700    1.000
    C58      C        0.93690    0.18380    0.07280    1.000
    C59      C        0.60388    0.49470    0.36396    1.000
    C60      C        0.19596    0.49410    0.17972    1.000
    C61      C        0.31579    0.49060    0.24458    1.000
    C62      C        0.43017    0.45080    0.22754    1.000
    C63      C        0.41627    0.41470    0.14594    1.000
    C64      C        0.29400    0.42180    0.08660    1.000
    I1       I        0.21223    0.53031    0.90638    1.000
    I2       I        0.30585    0.96969    0.09362    1.000
    I3       I        0.78777    0.46969    0.09362    1.000
    I4       I        0.69415    0.03031    0.90638    1.000
    N1       N        0.27583    0.95680    0.36326    1.000
    N2       N        0.66754    0.98780    0.40808    1.000
    N3       N        0.22320    0.85250    0.24780    1.000
    N4       N        0.04596    0.63620    0.08252    1.000
    N5       N        0.72769    0.94500    0.28618    1.000
    N6       N        0.91832    0.96090    0.10104    1.000
    N7       N        0.91257    0.54320    0.63674    1.000
    N8       N        0.25946    0.51220    0.59192    1.000
    N9       N        0.97540    0.64750    0.75220    1.000
    N10      N        0.96344    0.86380    0.91748    1.000
    N11      N        0.44151    0.55500    0.71382    1.000
    N12      N        0.81728    0.53910    0.89896    1.000
    N13      N        0.72417    0.04320    0.63674    1.000
    N14      N        0.33246    0.01220    0.59192    1.000
    N15      N        0.77680    0.14750    0.75220    1.000
    N16      N        0.95404    0.36380    0.91748    1.000
    N17      N        0.27231    0.05500    0.71382    1.000
    N18      N        0.08168    0.03910    0.89896    1.000
    N19      N        0.08743    0.45680    0.36326    1.000
    N20      N        0.74054    0.48780    0.40808    1.000
    N21      N        0.02460    0.35250    0.24780    1.000
    N22      N        0.03656    0.13620    0.08252    1.000
    N23      N        0.55849    0.44500    0.28618    1.000
    N24      N        0.18272    0.46090    0.10104    1.000
    O1       O        0.10647    0.85920    0.34494    1.000
    O2       O        0.86343    0.04220    0.39126    1.000
    O3       O        0.76153    0.64080    0.65506    1.000
    O4       O        0.47217    0.45780    0.60874    1.000
    O5       O        0.89353    0.14080    0.65506    1.000
    O6       O        0.13657    0.95780    0.60874    1.000
    O7       O        0.23847    0.35920    0.34494    1.000
    O8       O        0.52783    0.54220    0.39126    1.000
