data_functionalizedCrystal
_audit_creation_method	'EQeq! by Chris Wilmer'
_symmetry_space_group_name_H-M	'P1'
_symmetry_Int_Tables_number	1
_symmetry_cell_setting	triclinic
loop_
_symmetry_equiv_pos_as_xyz
  x,y,z
_cell_length_a	19.7757
_cell_length_b	44.7064
_cell_length_c	28.6303
_cell_angle_alpha	90
_cell_angle_beta	90
_cell_angle_gamma	90
loop_
_atom_site_label
_atom_site_type_symbol
_atom_site_fract_x
_atom_site_fract_y
_atom_site_fract_z
_atom_site_charge
Mof_Zn	Zn	0.57498	0.26662	0.24687	1.199
Mof_Zn	Zn	0.24271	0.38382	0.43394	1.239
Mof_O 	O 	0.3903	0.40031	0.45	-0.491
Mof_O 	O 	0.4395	0.29926	0.30064	-0.47
Mof_O 	O 	0.9398	0.26423	0.3056	-0.471
Mof_O 	O 	0.553	0.29727	0.29809	-0.478
Mof_O 	O 	0.3273	0.36561	0.4152	-0.473
Mof_O 	O 	0.2775	0.56025	0.4522	-0.508
Mof_O 	O 	0.0651	0.52467	0.30203	-0.496
Mof_O 	O 	0.2271	0.4237	0.40698	-0.483
Mof_O 	O 	0.0777	0.47571	0.29608	-0.482
Mof_O 	O 	0.0519	0.26574	0.29322	-0.513
Mof_O 	O 	0.1577	0.36272	0.4309	-0.478
Mof_O 	O 	0.6345	0.39102	0.4521	-0.524
Mof_O 	O 	0.9119	0.37155	0.4489	-0.565
Mof_C 	C 	0.0245	0.34443	0.4131	0.106
Mof_H 	H 	0.0301	0.3602	0.4351	0.018
Mof_C 	C 	0.5083	0.37274	0.4227	0.096
Mof_H 	H 	0.5106	0.3874	0.4467	0.026
Mof_C 	C 	0.0066	0.29808	0.3498	-0.238
Mof_C 	C 	0.442	0.34238	0.3702	0.09
Mof_H 	H 	0.3994	0.336	0.3585	0.036
Mof_C 	C 	0.9598	0.33391	0.403	-0.196
Mof_C 	C 	0.5637	0.33861	0.3701	0.098
Mof_H 	H 	0.6039	0.3295	0.3586	0.022
Mof_C 	C 	0.2231	0.47608	0.4014	-0.172
Mof_C 	C 	0.4455	0.36374	0.4053	-0.155
Mof_C 	C 	0.5676	0.3603	0.4049	-0.171
Mof_C 	C 	0.5018	0.33027	0.3523	-0.148
Mof_C 	C 	0.1645	0.52822	0.3687	0.142
Mof_H 	H 	0.1452	0.5461	0.3566	0.016
Mof_C 	C 	0.3834	0.37786	0.4262	0.423
Mof_C 	C 	0.1505	0.34404	0.3989	0.451
Mof_C 	C 	0.0807	0.33212	0.3916	-0.183
Mof_C 	C 	0.9983	0.27411	0.314	0.468
Mof_C 	C 	0.1742	0.47493	0.3661	0.114
Mof_H 	H 	0.1613	0.4563	0.3527	0.02
Mof_C 	C 	0.071	0.30829	0.36	0.135
Mof_H 	H 	0.1091	0.2992	0.3455	0.014
Mof_C 	C 	0.9513	0.31109	0.3708	0.173
Mof_H 	H 	0.907	0.3044	0.3632	0.002
Mof_C 	C 	0.2417	0.50352	0.4201	0.112
Mof_H 	H 	0.2748	0.5045	0.4441	0.024
Mof_C 	C 	0.2107	0.53007	0.4032	-0.192
Mof_C 	C 	0.4978	0.307	0.3136	0.406
Mof_C 	C 	0.2508	0.44767	0.4212	0.429
Mof_C 	C 	0.9005	0.3506	0.4238	0.513
Mof_C 	C 	0.0931	0.50045	0.3128	0.44
Mof_C 	C 	0.1448	0.50148	0.351	-0.19
Mof_C 	C 	0.635	0.36925	0.4253	0.452
Mof_C 	C 	0.2289	0.5592	0.427	0.513
Mof_O 	O 	0.2104	0.58481	0.4011	-0.366
Mof_O 	O 	0.844	0.349	0.4001	-0.24
Mof_O 	O 	0.1926	0.3439	0.3654	-0.22
Mof_O 	O 	0.2974	0.45082	0.4513	-0.467
Mof_O 	O 	0.6855	0.3576	0.4097	-0.641
Mof_Zn	Zn	0.76466	0.34558	0.53587	1.044
Mof_O 	O 	0.1731	0.5747	0.4356	-0.404
Mof_O 	O 	0.1992	0.3266	0.3912	-0.199
Mof_O 	O 	0.8446	0.3379	0.422	-0.48
Mof_Zn	Zn	0.77434	0.37411	0.57258	1.092
Mof_Zn	Zn	0.07498	0.76662	0.74687	1.197
Mof_Zn	Zn	0.74271	0.88382	0.93394	1.241
Mof_O 	O 	0.8903	0.90031	0.95	-0.477
Mof_O 	O 	0.9395	0.79926	0.80064	-0.479
Mof_O 	O 	0.4398	0.76423	0.8056	-0.461
Mof_O 	O 	0.053	0.79727	0.79809	-0.504
Mof_O 	O 	0.8273	0.86561	0.9152	-0.469
Mof_O 	O 	0.7775	0.06025	0.9522	-0.497
Mof_O 	O 	0.5651	0.02467	0.80203	-0.49
Mof_O 	O 	0.7271	0.9237	0.90698	-0.479
Mof_O 	O 	0.5777	0.97571	0.79608	-0.478
Mof_O 	O 	0.5519	0.76574	0.79322	-0.486
Mof_O 	O 	0.6577	0.86272	0.9309	-0.468
Mof_O 	O 	0.1345	0.89102	0.9521	-0.516
Mof_O 	O 	0.4119	0.87155	0.9489	-0.561
Mof_C 	C 	0.5245	0.84443	0.9131	0.12
Mof_H 	H 	0.5301	0.8602	0.9351	0.024
Mof_C 	C 	0.0083	0.87274	0.9227	0.077
Mof_H 	H 	0.0106	0.8874	0.9467	0.031
Mof_C 	C 	0.5066	0.79808	0.8498	-0.172
Mof_C 	C 	0.942	0.84238	0.8702	0.129
Mof_H 	H 	0.8994	0.836	0.8585	0.026
Mof_C 	C 	0.4598	0.83391	0.903	-0.197
Mof_C 	C 	0.0637	0.83861	0.8701	0.119
Mof_H 	H 	0.1039	0.8295	0.8586	0.015
Mof_C 	C 	0.7231	0.97608	0.9014	-0.165
Mof_C 	C 	0.9455	0.86374	0.9053	-0.142
Mof_C 	C 	0.0676	0.8603	0.9049	-0.174
Mof_C 	C 	0.0018	0.83027	0.8523	-0.202
Mof_C 	C 	0.6645	0.02822	0.8687	0.138
Mof_H 	H 	0.6452	0.0461	0.8566	0.02
Mof_C 	C 	0.8834	0.87786	0.9262	0.423
Mof_C 	C 	0.6505	0.84404	0.8989	0.446
Mof_C 	C 	0.5807	0.83212	0.8916	-0.169
Mof_C 	C 	0.4983	0.77411	0.814	0.41
Mof_C 	C 	0.6742	0.97493	0.8661	0.111
Mof_H 	H 	0.6613	0.9563	0.8527	0.024
Mof_C 	C 	0.571	0.80829	0.86	0.108
Mof_H 	H 	0.6091	0.7992	0.8455	0.025
Mof_C 	C 	0.4513	0.81109	0.8708	0.125
Mof_H 	H 	0.407	0.8044	0.8632	0.017
Mof_C 	C 	0.7417	0.00352	0.9201	0.109
Mof_H 	H 	0.7748	0.0045	0.9441	0.031
Mof_C 	C 	0.7107	0.03007	0.9032	-0.183
Mof_C 	C 	0.9978	0.807	0.8136	0.46
Mof_C 	C 	0.7508	0.94767	0.9212	0.428
Mof_C 	C 	0.4005	0.8506	0.9238	0.511
Mof_C 	C 	0.5931	0.00045	0.8128	0.438
Mof_C 	C 	0.6448	0.00148	0.851	-0.183
Mof_C 	C 	0.135	0.86925	0.9253	0.453
Mof_C 	C 	0.7289	0.0592	0.927	0.508
Mof_O 	O 	0.7104	0.08481	0.9011	-0.364
Mof_O 	O 	0.344	0.849	0.9001	-0.244
Mof_O 	O 	0.6926	0.8439	0.8654	-0.218
Mof_O 	O 	0.7974	0.95082	0.9513	-0.455
Mof_O 	O 	0.1855	0.8576	0.9097	-0.639
Mof_Zn	Zn	0.26466	0.84558	0.03587	1.042
Mof_O 	O 	0.6731	0.0747	0.9356	-0.393
Mof_O 	O 	0.6992	0.8266	0.8912	-0.193
Mof_O 	O 	0.3446	0.8379	0.922	-0.471
Mof_Zn	Zn	0.27434	0.87411	0.07258	1.092
Mof_Zn	Zn	0.42502	0.73338	0.24687	1.198
Mof_Zn	Zn	0.75729	0.61618	0.43394	1.238
Mof_O 	O 	0.6097	0.59969	0.45	-0.492
Mof_O 	O 	0.5605	0.70074	0.30064	-0.471
Mof_O 	O 	0.0602	0.73577	0.3056	-0.452
Mof_O 	O 	0.447	0.70273	0.29809	-0.48
Mof_O 	O 	0.6727	0.63439	0.4152	-0.474
Mof_O 	O 	0.7225	0.43975	0.4522	-0.508
Mof_O 	O 	0.9349	0.47533	0.30203	-0.481
Mof_O 	O 	0.7729	0.5763	0.40698	-0.482
Mof_O 	O 	0.9223	0.52429	0.29608	-0.47
Mof_O 	O 	0.9481	0.73426	0.29322	-0.461
Mof_O 	O 	0.8423	0.63728	0.4309	-0.474
Mof_O 	O 	0.3655	0.60898	0.4521	-0.524
Mof_O 	O 	0.0881	0.62845	0.4489	-0.577
Mof_C 	C 	0.9755	0.65557	0.4131	0.141
Mof_H 	H 	0.9699	0.6398	0.4351	0.019
Mof_C 	C 	0.4917	0.62726	0.4227	0.096
Mof_H 	H 	0.4894	0.6126	0.4467	0.026
Mof_C 	C 	0.9934	0.70192	0.3498	-0.112
Mof_C 	C 	0.558	0.65762	0.3702	0.09
Mof_H 	H 	0.6006	0.664	0.3585	0.036
Mof_C 	C 	0.0402	0.66609	0.403	-0.211
Mof_C 	C 	0.4363	0.66139	0.3701	0.098
Mof_H 	H 	0.3961	0.6705	0.3586	0.022
Mof_C 	C 	0.7769	0.52392	0.4014	-0.169
Mof_C 	C 	0.5545	0.63626	0.4053	-0.155
Mof_C 	C 	0.4324	0.6397	0.4049	-0.172
Mof_C 	C 	0.4982	0.66973	0.3523	-0.148
Mof_C 	C 	0.8355	0.47178	0.3687	0.139
Mof_H 	H 	0.8548	0.4539	0.3566	0.021
Mof_C 	C 	0.6166	0.62214	0.4262	0.423
Mof_C 	C 	0.8495	0.65596	0.3989	0.447
Mof_C 	C 	0.9193	0.66788	0.3916	-0.167
Mof_C 	C 	0.0017	0.72589	0.314	0.354
Mof_C 	C 	0.8258	0.52507	0.3661	0.112
Mof_H 	H 	0.8387	0.5437	0.3527	0.024
Mof_C 	C 	0.929	0.69171	0.36	0.086
Mof_H 	H 	0.8909	0.7008	0.3455	0.033
Mof_C 	C 	0.0487	0.68891	0.3708	0.082
Mof_H 	H 	0.093	0.6956	0.3632	0.028
Mof_C 	C 	0.7583	0.49648	0.4201	0.11
Mof_H 	H 	0.7252	0.4955	0.4441	0.025
Mof_C 	C 	0.7893	0.46993	0.4032	-0.187
Mof_C 	C 	0.5022	0.693	0.3136	0.407
Mof_C 	C 	0.7492	0.55233	0.4212	0.429
Mof_C 	C 	0.0995	0.6494	0.4238	0.513
Mof_C 	C 	0.9069	0.49955	0.3128	0.437
Mof_C 	C 	0.8552	0.49852	0.351	-0.182
Mof_C 	C 	0.365	0.63075	0.4253	0.452
Mof_C 	C 	0.7711	0.4408	0.427	0.511
Mof_O 	O 	0.7896	0.41519	0.4011	-0.364
Mof_O 	O 	0.156	0.651	0.4001	-0.242
Mof_O 	O 	0.8074	0.6561	0.3654	-0.217
Mof_O 	O 	0.7026	0.54918	0.4513	-0.467
Mof_O 	O 	0.3145	0.6424	0.4097	-0.641
Mof_Zn	Zn	0.23534	0.65442	0.53587	1.044
Mof_O 	O 	0.8269	0.4253	0.4356	-0.4
Mof_O 	O 	0.8008	0.6734	0.3912	-0.197
Mof_O 	O 	0.1554	0.6621	0.422	-0.48
Mof_Zn	Zn	0.22566	0.62589	0.57258	1.092
Mof_Zn	Zn	0.92502	0.23338	0.74687	1.2
Mof_Zn	Zn	0.25729	0.11618	0.93394	1.241
Mof_O 	O 	0.1097	0.09969	0.95	-0.488
Mof_O 	O 	0.0605	0.20074	0.80064	-0.461
Mof_O 	O 	0.5602	0.23577	0.8056	-0.461
Mof_O 	O 	0.947	0.20273	0.79809	-0.453
Mof_O 	O 	0.1727	0.13439	0.9152	-0.471
Mof_O 	O 	0.2225	0.93975	0.9522	-0.499
Mof_O 	O 	0.4349	0.97533	0.80203	-0.49
Mof_O 	O 	0.2729	0.0763	0.90698	-0.48
Mof_O 	O 	0.4223	0.02429	0.79608	-0.478
Mof_O 	O 	0.4481	0.23426	0.79322	-0.486
Mof_O 	O 	0.3423	0.13728	0.9309	-0.469
Mof_O 	O 	0.8655	0.10898	0.9521	-0.512
Mof_O 	O 	0.5881	0.12845	0.9489	-0.561
Mof_C 	C 	0.4755	0.15557	0.9131	0.121
Mof_H 	H 	0.4699	0.1398	0.9351	0.024
Mof_C 	C 	0.9917	0.12726	0.9227	0.111
Mof_H 	H 	0.9894	0.1126	0.9467	0.031
Mof_C 	C 	0.4934	0.20192	0.8498	-0.172
Mof_C 	C 	0.058	0.15762	0.8702	0.049
Mof_H 	H 	0.1006	0.164	0.8585	0.048
Mof_C 	C 	0.5402	0.16609	0.903	-0.197
Mof_C 	C 	0.9363	0.16139	0.8701	0.074
Mof_H 	H 	0.8961	0.1705	0.8586	0.033
Mof_C 	C 	0.2769	0.02392	0.9014	-0.167
Mof_C 	C 	0.0545	0.13626	0.9053	-0.159
Mof_C 	C 	0.9324	0.1397	0.9049	-0.159
Mof_C 	C 	0.9982	0.16973	0.8523	-0.088
Mof_C 	C 	0.3355	0.97178	0.8687	0.139
Mof_H 	H 	0.3548	0.9539	0.8566	0.019
Mof_C 	C 	0.1166	0.12214	0.9262	0.422
Mof_C 	C 	0.3495	0.15596	0.8989	0.446
Mof_C 	C 	0.4193	0.16788	0.8916	-0.17
Mof_C 	C 	0.5017	0.22589	0.814	0.41
Mof_C 	C 	0.3258	0.02507	0.8661	0.112
Mof_H 	H 	0.3387	0.0437	0.8527	0.023
Mof_C 	C 	0.429	0.19171	0.86	0.109
Mof_H 	H 	0.3909	0.2008	0.8455	0.024
Mof_C 	C 	0.5487	0.18891	0.8708	0.125
Mof_H 	H 	0.593	0.1956	0.8632	0.017
Mof_C 	C 	0.2583	0.99648	0.9201	0.109
Mof_H 	H 	0.2252	0.9955	0.9441	0.029
Mof_C 	C 	0.2893	0.96993	0.9032	-0.185
Mof_C 	C 	0.0022	0.193	0.8136	0.352
Mof_C 	C 	0.2492	0.05233	0.9212	0.428
Mof_C 	C 	0.5995	0.1494	0.9238	0.511
Mof_C 	C 	0.4069	0.99955	0.8128	0.438
Mof_C 	C 	0.3552	0.99852	0.851	-0.184
Mof_C 	C 	0.865	0.13075	0.9253	0.449
Mof_C 	C 	0.2711	0.9408	0.927	0.509
Mof_O 	O 	0.2896	0.91519	0.9011	-0.365
Mof_O 	O 	0.656	0.151	0.9001	-0.243
Mof_O 	O 	0.3074	0.1561	0.8654	-0.219
Mof_O 	O 	0.2026	0.04918	0.9513	-0.458
Mof_O 	O 	0.8145	0.1424	0.9097	-0.636
Mof_Zn	Zn	0.73534	0.15442	0.03587	1.043
Mof_O 	O 	0.3269	0.9253	0.9356	-0.393
Mof_O 	O 	0.3008	0.1734	0.8912	-0.195
Mof_O 	O 	0.6554	0.1621	0.922	-0.471
Mof_Zn	Zn	0.72566	0.12589	0.07258	1.092
Mof_Zn	Zn	0.92502	0.76662	0.75313	1.2
Mof_Zn	Zn	0.25729	0.88382	0.56606	1.238
Mof_O 	O 	0.1097	0.90031	0.55	-0.498
Mof_O 	O 	0.0605	0.79926	0.69936	-0.462
Mof_O 	O 	0.5602	0.76423	0.6944	-0.462
Mof_O 	O 	0.947	0.79727	0.70191	-0.454
Mof_O 	O 	0.1727	0.86561	0.5848	-0.475
Mof_O 	O 	0.2225	0.06025	0.5478	-0.51
Mof_O 	O 	0.4349	0.02467	0.69797	-0.491
Mof_O 	O 	0.2729	0.9237	0.59302	-0.484
Mof_O 	O 	0.4223	0.97571	0.70392	-0.479
Mof_O 	O 	0.4481	0.76574	0.70678	-0.487
Mof_O 	O 	0.3423	0.86272	0.5691	-0.476
Mof_O 	O 	0.8655	0.89102	0.5479	-0.522
Mof_O 	O 	0.5881	0.87155	0.5511	-0.571
Mof_C 	C 	0.4755	0.84443	0.5869	0.124
Mof_H 	H 	0.4699	0.8602	0.5649	0.018
Mof_C 	C 	0.9917	0.87274	0.5773	0.113
Mof_H 	H 	0.9894	0.8874	0.5533	0.026
Mof_C 	C 	0.4934	0.79808	0.6502	-0.175
Mof_C 	C 	0.058	0.84238	0.6298	0.05
Mof_H 	H 	0.1006	0.836	0.6415	0.047
Mof_C 	C 	0.5402	0.83391	0.597	-0.203
Mof_C 	C 	0.9363	0.83861	0.6299	0.075
Mof_H 	H 	0.8961	0.8295	0.6414	0.031
Mof_C 	C 	0.2769	0.97608	0.5986	-0.172
Mof_C 	C 	0.0545	0.86374	0.5947	-0.164
Mof_C 	C 	0.9324	0.8603	0.5951	-0.164
Mof_C 	C 	0.9982	0.83027	0.6477	-0.091
Mof_C 	C 	0.3355	0.02822	0.6313	0.141
Mof_H 	H 	0.3548	0.0461	0.6434	0.018
Mof_C 	C 	0.1166	0.87786	0.5738	0.423
Mof_C 	C 	0.3495	0.84404	0.6011	0.449
Mof_C 	C 	0.4193	0.83212	0.6084	-0.175
Mof_C 	C 	0.5017	0.77411	0.686	0.411
Mof_C 	C 	0.3258	0.97493	0.6339	0.113
Mof_H 	H 	0.3387	0.9563	0.6473	0.022
Mof_C 	C 	0.429	0.80829	0.64	0.111
Mof_H 	H 	0.3909	0.7992	0.6545	0.023
Mof_C 	C 	0.5487	0.81109	0.6292	0.128
Mof_H 	H 	0.593	0.8044	0.6368	0.015
Mof_C 	C 	0.2583	0.00352	0.5799	0.112
Mof_H 	H 	0.2252	0.0045	0.5559	0.024
Mof_C 	C 	0.2893	0.03007	0.5968	-0.191
Mof_C 	C 	0.0022	0.807	0.6864	0.352
Mof_C 	C 	0.2492	0.94767	0.5788	0.429
Mof_C 	C 	0.5995	0.8506	0.5762	0.513
Mof_C 	C 	0.4069	0.00045	0.6872	0.439
Mof_C 	C 	0.3552	0.00148	0.649	-0.187
Mof_C 	C 	0.865	0.86925	0.5747	0.45
Mof_C 	C 	0.2711	0.0592	0.573	0.512
Mof_O 	O 	0.2896	0.08481	0.5989	-0.366
Mof_O 	O 	0.656	0.849	0.5999	-0.24
Mof_O 	O 	0.3074	0.8439	0.6346	-0.219
Mof_O 	O 	0.2026	0.95082	0.5487	-0.469
Mof_O 	O 	0.8145	0.8576	0.5903	-0.64
Mof_Zn	Zn	0.73534	0.84558	0.46413	1.044
Mof_O 	O 	0.3269	0.0747	0.5644	-0.402
Mof_O 	O 	0.3008	0.8266	0.6088	-0.199
Mof_O 	O 	0.6554	0.8379	0.578	-0.48
Mof_Zn	Zn	0.72566	0.87411	0.42742	1.092
Mof_Zn	Zn	0.42502	0.26662	0.25313	1.198
Mof_Zn	Zn	0.75729	0.38382	0.06606	1.237
Mof_O 	O 	0.6097	0.40031	0.05	-0.498
Mof_O 	O 	0.5605	0.29926	0.19936	-0.471
Mof_O 	O 	0.0602	0.26423	0.1944	-0.453
Mof_O 	O 	0.447	0.29727	0.20191	-0.48
Mof_O 	O 	0.6727	0.36561	0.0848	-0.476
Mof_O 	O 	0.7225	0.56025	0.0478	-0.515
Mof_O 	O 	0.9349	0.52467	0.19797	-0.482
Mof_O 	O 	0.7729	0.4237	0.09302	-0.483
Mof_O 	O 	0.9223	0.47571	0.20392	-0.47
Mof_O 	O 	0.9481	0.26574	0.20678	-0.462
Mof_O 	O 	0.8423	0.36272	0.0691	-0.478
Mof_O 	O 	0.3655	0.39102	0.0479	-0.53
Mof_O 	O 	0.0881	0.37155	0.0511	-0.583
Mof_C 	C 	0.9755	0.34443	0.0869	0.142
Mof_H 	H 	0.9699	0.3602	0.0649	0.015
Mof_C 	C 	0.4917	0.37274	0.0773	0.097
Mof_H 	H 	0.4894	0.3874	0.0533	0.021
Mof_C 	C 	0.9934	0.29808	0.1502	-0.115
Mof_C 	C 	0.558	0.34238	0.1298	0.091
Mof_H 	H 	0.6006	0.336	0.1415	0.035
Mof_C 	C 	0.0402	0.33391	0.097	-0.215
Mof_C 	C 	0.4363	0.33861	0.1299	0.099
Mof_H 	H 	0.3961	0.3295	0.1414	0.021
Mof_C 	C 	0.7769	0.47608	0.0986	-0.172
Mof_C 	C 	0.5545	0.36374	0.0947	-0.159
Mof_C 	C 	0.4324	0.3603	0.0951	-0.175
Mof_C 	C 	0.4982	0.33027	0.1477	-0.15
Mof_C 	C 	0.8355	0.52822	0.1313	0.141
Mof_H 	H 	0.8548	0.5461	0.1434	0.02
Mof_C 	C 	0.6166	0.37786	0.0738	0.424
Mof_C 	C 	0.8495	0.34404	0.1011	0.448
Mof_C 	C 	0.9193	0.33212	0.1084	-0.17
Mof_C 	C 	0.0017	0.27411	0.186	0.354
Mof_C 	C 	0.8258	0.47493	0.1339	0.113
Mof_H 	H 	0.8387	0.4563	0.1473	0.023
Mof_C 	C 	0.929	0.30829	0.14	0.087
Mof_H 	H 	0.8909	0.2992	0.1545	0.032
Mof_C 	C 	0.0487	0.31109	0.1292	0.084
Mof_H 	H 	0.093	0.3044	0.1368	0.027
Mof_C 	C 	0.7583	0.50352	0.0799	0.112
Mof_H 	H 	0.7252	0.5045	0.0559	0.021
Mof_C 	C 	0.7893	0.53007	0.0968	-0.191
Mof_C 	C 	0.5022	0.307	0.1864	0.407
Mof_C 	C 	0.7492	0.44767	0.0788	0.429
Mof_C 	C 	0.0995	0.3506	0.0762	0.514
Mof_C 	C 	0.9069	0.50045	0.1872	0.437
Mof_C 	C 	0.8552	0.50148	0.149	-0.184
Mof_C 	C 	0.365	0.36925	0.0747	0.452
Mof_C 	C 	0.7711	0.5592	0.073	0.513
Mof_O 	O 	0.7896	0.58481	0.0989	-0.364
Mof_O 	O 	0.156	0.349	0.0999	-0.24
Mof_O 	O 	0.8074	0.3439	0.1346	-0.217
Mof_O 	O 	0.7026	0.45082	0.0487	-0.472
Mof_O 	O 	0.3145	0.3576	0.0903	-0.643
Mof_Zn	Zn	0.23534	0.34558	0.96413	1.052
Mof_O 	O 	0.8269	0.5747	0.0644	-0.403
Mof_O 	O 	0.8008	0.3266	0.1088	-0.2
Mof_O 	O 	0.1554	0.3379	0.078	-0.484
Mof_Zn	Zn	0.22566	0.37411	0.92742	1.095
Mof_Zn	Zn	0.07498	0.23338	0.75313	1.197
Mof_Zn	Zn	0.74271	0.11618	0.56606	1.238
Mof_O 	O 	0.8903	0.09969	0.55	-0.487
Mof_O 	O 	0.9395	0.20074	0.69936	-0.48
Mof_O 	O 	0.4398	0.23577	0.6944	-0.462
Mof_O 	O 	0.053	0.20273	0.70191	-0.505
Mof_O 	O 	0.8273	0.13439	0.5848	-0.473
Mof_O 	O 	0.7775	0.93975	0.5478	-0.507
Mof_O 	O 	0.5651	0.97533	0.69797	-0.491
Mof_O 	O 	0.7271	0.0763	0.59302	-0.483
Mof_O 	O 	0.5777	0.02429	0.70392	-0.478
Mof_O 	O 	0.5519	0.23426	0.70678	-0.487
Mof_O 	O 	0.6577	0.13728	0.5691	-0.476
Mof_O 	O 	0.1345	0.10898	0.5479	-0.526
Mof_O 	O 	0.4119	0.12845	0.5511	-0.571
Mof_C 	C 	0.5245	0.15557	0.5869	0.123
Mof_H 	H 	0.5301	0.1398	0.5649	0.019
Mof_C 	C 	0.0083	0.12726	0.5773	0.079
Mof_H 	H 	0.0106	0.1126	0.5533	0.025
Mof_C 	C 	0.5066	0.20192	0.6502	-0.175
Mof_C 	C 	0.942	0.15762	0.6298	0.131
Mof_H 	H 	0.8994	0.164	0.6415	0.025
Mof_C 	C 	0.4598	0.16609	0.597	-0.203
Mof_C 	C 	0.0637	0.16139	0.6299	0.12
Mof_H 	H 	0.1039	0.1705	0.6414	0.013
Mof_C 	C 	0.7231	0.02392	0.5986	-0.169
Mof_C 	C 	0.9455	0.13626	0.5947	-0.147
Mof_C 	C 	0.0676	0.1397	0.5951	-0.179
Mof_C 	C 	0.0018	0.16973	0.6477	-0.205
Mof_C 	C 	0.6645	0.97178	0.6313	0.14
Mof_H 	H 	0.6452	0.9539	0.6434	0.019
Mof_C 	C 	0.8834	0.12214	0.5738	0.424
Mof_C 	C 	0.6505	0.15596	0.6011	0.448
Mof_C 	C 	0.5807	0.16788	0.6084	-0.174
Mof_C 	C 	0.4983	0.22589	0.686	0.411
Mof_C 	C 	0.6742	0.02507	0.6339	0.113
Mof_H 	H 	0.6613	0.0437	0.6473	0.023
Mof_C 	C 	0.571	0.19171	0.64	0.11
Mof_H 	H 	0.6091	0.2008	0.6545	0.024
Mof_C 	C 	0.4513	0.18891	0.6292	0.127
Mof_H 	H 	0.407	0.1956	0.6368	0.015
Mof_C 	C 	0.7417	0.99648	0.5799	0.111
Mof_H 	H 	0.7748	0.9955	0.5559	0.026
Mof_C 	C 	0.7107	0.96993	0.5968	-0.188
Mof_C 	C 	0.9978	0.193	0.6864	0.461
Mof_C 	C 	0.7508	0.05233	0.5788	0.429
Mof_C 	C 	0.4005	0.1494	0.5762	0.513
Mof_C 	C 	0.5931	0.99955	0.6872	0.439
Mof_C 	C 	0.6448	0.99852	0.649	-0.186
Mof_C 	C 	0.135	0.13075	0.5747	0.453
Mof_C 	C 	0.7289	0.9408	0.573	0.512
Mof_O 	O 	0.7104	0.91519	0.5989	-0.364
Mof_O 	O 	0.344	0.151	0.5999	-0.241
Mof_O 	O 	0.6926	0.1561	0.6346	-0.218
Mof_O 	O 	0.7974	0.04918	0.5487	-0.465
Mof_O 	O 	0.1855	0.1424	0.5903	-0.643
Mof_Zn	Zn	0.26466	0.15442	0.46413	1.044
Mof_O 	O 	0.6731	0.9253	0.5644	-0.402
Mof_O 	O 	0.6992	0.1734	0.6088	-0.197
Mof_O 	O 	0.3446	0.1621	0.578	-0.48
Mof_Zn	Zn	0.27434	0.12589	0.42742	1.092
Mof_Zn	Zn	0.57498	0.73338	0.25313	1.198
Mof_Zn	Zn	0.24271	0.61618	0.06606	1.237
Mof_O 	O 	0.3903	0.59969	0.05	-0.498
Mof_O 	O 	0.4395	0.70074	0.19936	-0.471
Mof_O 	O 	0.9398	0.73577	0.1944	-0.473
Mof_O 	O 	0.553	0.70273	0.20191	-0.48
Mof_O 	O 	0.3273	0.63439	0.0848	-0.477
Mof_O 	O 	0.2775	0.43975	0.0478	-0.516
Mof_O 	O 	0.0651	0.47533	0.19797	-0.498
Mof_O 	O 	0.2271	0.5763	0.09302	-0.486
Mof_O 	O 	0.0777	0.52429	0.20392	-0.484
Mof_O 	O 	0.0519	0.73426	0.20678	-0.513
Mof_O 	O 	0.1577	0.63728	0.0691	-0.483
Mof_O 	O 	0.6345	0.60898	0.0479	-0.53
Mof_O 	O 	0.9119	0.62845	0.0511	-0.571
Mof_C 	C 	0.0245	0.65557	0.0869	0.108
Mof_H 	H 	0.0301	0.6398	0.0649	0.014
Mof_C 	C 	0.5083	0.62726	0.0773	0.097
Mof_H 	H 	0.5106	0.6126	0.0533	0.021
Mof_C 	C 	0.0066	0.70192	0.1502	-0.24
Mof_C 	C 	0.442	0.65762	0.1298	0.091
Mof_H 	H 	0.3994	0.664	0.1415	0.035
Mof_C 	C 	0.9598	0.66609	0.097	-0.2
Mof_C 	C 	0.5637	0.66139	0.1299	0.099
Mof_H 	H 	0.6039	0.6705	0.1414	0.021
Mof_C 	C 	0.2231	0.52392	0.0986	-0.176
Mof_C 	C 	0.4455	0.63626	0.0947	-0.159
Mof_C 	C 	0.5676	0.6397	0.0951	-0.175
Mof_C 	C 	0.5018	0.66973	0.1477	-0.15
Mof_C 	C 	0.1645	0.47178	0.1313	0.144
Mof_H 	H 	0.1452	0.4539	0.1434	0.015
Mof_C 	C 	0.3834	0.62214	0.0738	0.424
Mof_C 	C 	0.1505	0.65596	0.1011	0.452
Mof_C 	C 	0.0807	0.66788	0.1084	-0.187
Mof_C 	C 	0.9983	0.72589	0.186	0.468
Mof_C 	C 	0.1742	0.52507	0.1339	0.115
Mof_H 	H 	0.1613	0.5437	0.1473	0.019
Mof_C 	C 	0.071	0.69171	0.14	0.136
Mof_H 	H 	0.1091	0.7008	0.1545	0.013
Mof_C 	C 	0.9513	0.68891	0.1292	0.174
Mof_H 	H 	0.907	0.6956	0.1368	0.001
Mof_C 	C 	0.2417	0.49648	0.0799	0.113
Mof_H 	H 	0.2748	0.4955	0.0559	0.02
Mof_C 	C 	0.2107	0.46993	0.0968	-0.196
Mof_C 	C 	0.4978	0.693	0.1864	0.407
Mof_C 	C 	0.2508	0.55233	0.0788	0.43
Mof_C 	C 	0.9005	0.6494	0.0762	0.515
Mof_C 	C 	0.0931	0.49955	0.1872	0.44
Mof_C 	C 	0.1448	0.49852	0.149	-0.192
Mof_C 	C 	0.635	0.63075	0.0747	0.452
Mof_C 	C 	0.2289	0.4408	0.073	0.515
Mof_O 	O 	0.2104	0.41519	0.0989	-0.365
Mof_O 	O 	0.844	0.651	0.0999	-0.238
Mof_O 	O 	0.1926	0.6561	0.1346	-0.22
Mof_O 	O 	0.2974	0.54918	0.0487	-0.473
Mof_O 	O 	0.6855	0.6424	0.0903	-0.642
Mof_Zn	Zn	0.76466	0.65442	0.96413	1.052
Mof_O 	O 	0.1731	0.4253	0.0644	-0.408
Mof_O 	O 	0.1992	0.6734	0.1088	-0.202
Mof_O 	O 	0.8446	0.6621	0.078	-0.483
Mof_Zn	Zn	0.77434	0.62589	0.92742	1.095
Mof_Zn	Zn	0.42502	0.73338	0.75313	1.198
Mof_Zn	Zn	0.75729	0.61618	0.56606	1.238
Mof_O 	O 	0.6097	0.59969	0.55	-0.492
Mof_O 	O 	0.5605	0.70074	0.69936	-0.471
Mof_O 	O 	0.0602	0.73577	0.6944	-0.452
Mof_O 	O 	0.447	0.70273	0.70191	-0.48
Mof_O 	O 	0.6727	0.63439	0.5848	-0.474
Mof_O 	O 	0.7225	0.43975	0.5478	-0.508
Mof_O 	O 	0.9349	0.47533	0.69797	-0.482
Mof_O 	O 	0.7729	0.5763	0.59302	-0.482
Mof_O 	O 	0.9223	0.52429	0.70392	-0.47
Mof_O 	O 	0.9481	0.73426	0.70678	-0.461
Mof_O 	O 	0.8423	0.63728	0.5691	-0.474
Mof_O 	O 	0.3655	0.60898	0.5479	-0.524
Mof_O 	O 	0.0881	0.62845	0.5511	-0.577
Mof_C 	C 	0.9755	0.65557	0.5869	0.141
Mof_H 	H 	0.9699	0.6398	0.5649	0.019
Mof_C 	C 	0.4917	0.62726	0.5773	0.096
Mof_H 	H 	0.4894	0.6126	0.5533	0.026
Mof_C 	C 	0.9934	0.70192	0.6502	-0.112
Mof_C 	C 	0.558	0.65762	0.6298	0.09
Mof_H 	H 	0.6006	0.664	0.6415	0.036
Mof_C 	C 	0.0402	0.66609	0.597	-0.211
Mof_C 	C 	0.4363	0.66139	0.6299	0.098
Mof_H 	H 	0.3961	0.6705	0.6414	0.022
Mof_C 	C 	0.7769	0.52392	0.5986	-0.169
Mof_C 	C 	0.5545	0.63626	0.5947	-0.155
Mof_C 	C 	0.4324	0.6397	0.5951	-0.172
Mof_C 	C 	0.4982	0.66973	0.6477	-0.148
Mof_C 	C 	0.8355	0.47178	0.6313	0.139
Mof_H 	H 	0.8548	0.4539	0.6434	0.021
Mof_C 	C 	0.6166	0.62214	0.5738	0.423
Mof_C 	C 	0.8495	0.65596	0.6011	0.446
Mof_C 	C 	0.9193	0.66788	0.6084	-0.167
Mof_C 	C 	0.0017	0.72589	0.686	0.353
Mof_C 	C 	0.8258	0.52507	0.6339	0.112
Mof_H 	H 	0.8387	0.5437	0.6473	0.024
Mof_C 	C 	0.929	0.69171	0.64	0.086
Mof_H 	H 	0.8909	0.7008	0.6545	0.033
Mof_C 	C 	0.0487	0.68891	0.6292	0.082
Mof_H 	H 	0.093	0.6956	0.6368	0.028
Mof_C 	C 	0.7583	0.49648	0.5799	0.11
Mof_H 	H 	0.7252	0.4955	0.5559	0.025
Mof_C 	C 	0.7893	0.46993	0.5968	-0.187
Mof_C 	C 	0.5022	0.693	0.6864	0.406
Mof_C 	C 	0.7492	0.55233	0.5788	0.429
Mof_C 	C 	0.0995	0.6494	0.5762	0.513
Mof_C 	C 	0.9069	0.49955	0.6872	0.437
Mof_C 	C 	0.8552	0.49852	0.649	-0.182
Mof_C 	C 	0.365	0.63075	0.5747	0.452
Mof_C 	C 	0.7711	0.4408	0.573	0.511
Mof_O 	O 	0.7896	0.41519	0.5989	-0.364
Mof_O 	O 	0.156	0.651	0.5999	-0.242
Mof_O 	O 	0.8074	0.6561	0.6346	-0.217
Mof_O 	O 	0.7026	0.54918	0.5487	-0.467
Mof_O 	O 	0.3145	0.6424	0.5903	-0.641
Mof_Zn	Zn	0.23534	0.65442	0.46413	1.044
Mof_O 	O 	0.8269	0.4253	0.5644	-0.4
Mof_O 	O 	0.8008	0.6734	0.6088	-0.197
Mof_O 	O 	0.1554	0.6621	0.578	-0.48
Mof_Zn	Zn	0.22566	0.62589	0.42742	1.092
Mof_Zn	Zn	0.92502	0.23338	0.25313	1.199
Mof_Zn	Zn	0.25729	0.11618	0.06606	1.237
Mof_O 	O 	0.1097	0.09969	0.05	-0.503
Mof_O 	O 	0.0605	0.20074	0.19936	-0.462
Mof_O 	O 	0.5602	0.23577	0.1944	-0.463
Mof_O 	O 	0.947	0.20273	0.20191	-0.454
Mof_O 	O 	0.1727	0.13439	0.0848	-0.478
Mof_O 	O 	0.2225	0.93975	0.0478	-0.516
Mof_O 	O 	0.4349	0.97533	0.19797	-0.492
Mof_O 	O 	0.2729	0.0763	0.09302	-0.485
Mof_O 	O 	0.4223	0.02429	0.20392	-0.479
Mof_O 	O 	0.4481	0.23426	0.20678	-0.488
Mof_O 	O 	0.3423	0.13728	0.0691	-0.481
Mof_O 	O 	0.8655	0.10898	0.0479	-0.528
Mof_O 	O 	0.5881	0.12845	0.0511	-0.577
Mof_C 	C 	0.4755	0.15557	0.0869	0.125
Mof_H 	H 	0.4699	0.1398	0.0649	0.014
Mof_C 	C 	0.9917	0.12726	0.0773	0.114
Mof_H 	H 	0.9894	0.1126	0.0533	0.021
Mof_C 	C 	0.4934	0.20192	0.1502	-0.178
Mof_C 	C 	0.058	0.15762	0.1298	0.051
Mof_H 	H 	0.1006	0.164	0.1415	0.046
Mof_C 	C 	0.5402	0.16609	0.097	-0.208
Mof_C 	C 	0.9363	0.16139	0.1299	0.076
Mof_H 	H 	0.8961	0.1705	0.1414	0.03
Mof_C 	C 	0.2769	0.02392	0.0986	-0.175
Mof_C 	C 	0.0545	0.13626	0.0947	-0.167
Mof_C 	C 	0.9324	0.1397	0.0951	-0.167
Mof_C 	C 	0.9982	0.16973	0.1477	-0.092
Mof_C 	C 	0.3355	0.97178	0.1313	0.143
Mof_H 	H 	0.3548	0.9539	0.1434	0.017
Mof_C 	C 	0.1166	0.12214	0.0738	0.423
Mof_C 	C 	0.3495	0.15596	0.1011	0.45
Mof_C 	C 	0.4193	0.16788	0.1084	-0.179
Mof_C 	C 	0.5017	0.22589	0.186	0.411
Mof_C 	C 	0.3258	0.02507	0.1339	0.114
Mof_H 	H 	0.3387	0.0437	0.1473	0.021
Mof_C 	C 	0.429	0.19171	0.14	0.112
Mof_H 	H 	0.3909	0.2008	0.1545	0.022
Mof_C 	C 	0.5487	0.18891	0.1292	0.129
Mof_H 	H 	0.593	0.1956	0.1368	0.014
Mof_C 	C 	0.2583	0.99648	0.0799	0.113
Mof_H 	H 	0.2252	0.9955	0.0559	0.019
Mof_C 	C 	0.2893	0.96993	0.0968	-0.195
Mof_C 	C 	0.0022	0.193	0.1864	0.353
Mof_C 	C 	0.2492	0.05233	0.0788	0.43
Mof_C 	C 	0.5995	0.1494	0.0762	0.514
Mof_C 	C 	0.4069	0.99955	0.1872	0.439
Mof_C 	C 	0.3552	0.99852	0.149	-0.189
Mof_C 	C 	0.865	0.13075	0.0747	0.45
Mof_C 	C 	0.2711	0.9408	0.073	0.514
Mof_O 	O 	0.2896	0.91519	0.0989	-0.365
Mof_O 	O 	0.656	0.151	0.0999	-0.239
Mof_O 	O 	0.3074	0.1561	0.1346	-0.219
Mof_O 	O 	0.2026	0.04918	0.0487	-0.474
Mof_O 	O 	0.8145	0.1424	0.0903	-0.641
Mof_Zn	Zn	0.73534	0.15442	0.96413	1.052
Mof_O 	O 	0.3269	0.9253	0.0644	-0.405
Mof_O 	O 	0.3008	0.1734	0.1088	-0.202
Mof_O 	O 	0.6554	0.1621	0.078	-0.484
Mof_Zn	Zn	0.72566	0.12589	0.92742	1.095
Mof_Zn	Zn	0.57498	0.26662	0.75313	1.198
Mof_Zn	Zn	0.24271	0.38382	0.56606	1.238
Mof_O 	O 	0.3903	0.40031	0.55	-0.492
Mof_O 	O 	0.4395	0.29926	0.69936	-0.471
Mof_O 	O 	0.9398	0.26423	0.6944	-0.472
Mof_O 	O 	0.553	0.29727	0.70191	-0.479
Mof_O 	O 	0.3273	0.36561	0.5848	-0.474
Mof_O 	O 	0.2775	0.56025	0.5478	-0.509
Mof_O 	O 	0.0651	0.52467	0.69797	-0.497
Mof_O 	O 	0.2271	0.4237	0.59302	-0.485
Mof_O 	O 	0.0777	0.47571	0.70392	-0.484
Mof_O 	O 	0.0519	0.26574	0.70678	-0.513
Mof_O 	O 	0.1577	0.36272	0.5691	-0.478
Mof_O 	O 	0.6345	0.39102	0.5479	-0.524
Mof_O 	O 	0.9119	0.37155	0.5511	-0.565
Mof_C 	C 	0.0245	0.34443	0.5869	0.106
Mof_H 	H 	0.0301	0.3602	0.5649	0.018
Mof_C 	C 	0.5083	0.37274	0.5773	0.096
Mof_H 	H 	0.5106	0.3874	0.5533	0.026
Mof_C 	C 	0.0066	0.29808	0.6502	-0.238
Mof_C 	C 	0.442	0.34238	0.6298	0.09
Mof_H 	H 	0.3994	0.336	0.6415	0.036
Mof_C 	C 	0.9598	0.33391	0.597	-0.196
Mof_C 	C 	0.5637	0.33861	0.6299	0.098
Mof_H 	H 	0.6039	0.3295	0.6414	0.022
Mof_C 	C 	0.2231	0.47608	0.5986	-0.172
Mof_C 	C 	0.4455	0.36374	0.5947	-0.155
Mof_C 	C 	0.5676	0.3603	0.5951	-0.171
Mof_C 	C 	0.5018	0.33027	0.6477	-0.148
Mof_C 	C 	0.1645	0.52822	0.6313	0.142
Mof_H 	H 	0.1452	0.5461	0.6434	0.016
Mof_C 	C 	0.3834	0.37786	0.5738	0.423
Mof_C 	C 	0.1505	0.34404	0.6011	0.451
Mof_C 	C 	0.0807	0.33212	0.6084	-0.183
Mof_C 	C 	0.9983	0.27411	0.686	0.468
Mof_C 	C 	0.1742	0.47493	0.6339	0.114
Mof_H 	H 	0.1613	0.4563	0.6473	0.02
Mof_C 	C 	0.071	0.30829	0.64	0.135
Mof_H 	H 	0.1091	0.2992	0.6545	0.014
Mof_C 	C 	0.9513	0.31109	0.6292	0.173
Mof_H 	H 	0.907	0.3044	0.6368	0.002
Mof_C 	C 	0.2417	0.50352	0.5799	0.112
Mof_H 	H 	0.2748	0.5045	0.5559	0.024
Mof_C 	C 	0.2107	0.53007	0.5968	-0.192
Mof_C 	C 	0.4978	0.307	0.6864	0.406
Mof_C 	C 	0.2508	0.44767	0.5788	0.429
Mof_C 	C 	0.9005	0.3506	0.5762	0.513
Mof_C 	C 	0.0931	0.50045	0.6872	0.44
Mof_C 	C 	0.1448	0.50148	0.649	-0.19
Mof_C 	C 	0.635	0.36925	0.5747	0.452
Mof_C 	C 	0.2289	0.5592	0.573	0.513
Mof_O 	O 	0.2104	0.58481	0.5989	-0.366
Mof_O 	O 	0.844	0.349	0.5999	-0.24
Mof_O 	O 	0.1926	0.3439	0.6346	-0.22
Mof_O 	O 	0.2974	0.45082	0.5487	-0.467
Mof_O 	O 	0.6855	0.3576	0.5903	-0.641
Mof_Zn	Zn	0.76466	0.34558	0.46413	1.044
Mof_O 	O 	0.1731	0.5747	0.5644	-0.404
Mof_O 	O 	0.1992	0.3266	0.6088	-0.199
Mof_O 	O 	0.8446	0.3379	0.578	-0.48
Mof_Zn	Zn	0.77434	0.37411	0.42742	1.092
Mof_Zn	Zn	0.07498	0.76662	0.25313	1.197
Mof_Zn	Zn	0.74271	0.88382	0.06606	1.237
Mof_O 	O 	0.8903	0.90031	0.05	-0.492
Mof_O 	O 	0.9395	0.79926	0.19936	-0.48
Mof_O 	O 	0.4398	0.76423	0.1944	-0.463
Mof_O 	O 	0.053	0.79727	0.20191	-0.505
Mof_O 	O 	0.8273	0.86561	0.0848	-0.476
Mof_O 	O 	0.7775	0.06025	0.0478	-0.514
Mof_O 	O 	0.5651	0.02467	0.19797	-0.491
Mof_O 	O 	0.7271	0.9237	0.09302	-0.484
Mof_O 	O 	0.5777	0.97571	0.20392	-0.479
Mof_O 	O 	0.5519	0.76574	0.20678	-0.487
Mof_O 	O 	0.6577	0.86272	0.0691	-0.48
Mof_O 	O 	0.1345	0.89102	0.0479	-0.532
Mof_O 	O 	0.4119	0.87155	0.0511	-0.577
Mof_C 	C 	0.5245	0.84443	0.0869	0.125
Mof_H 	H 	0.5301	0.8602	0.0649	0.014
Mof_C 	C 	0.0083	0.87274	0.0773	0.08
Mof_H 	H 	0.0106	0.8874	0.0533	0.021
Mof_C 	C 	0.5066	0.79808	0.1502	-0.177
Mof_C 	C 	0.942	0.84238	0.1298	0.132
Mof_H 	H 	0.8994	0.836	0.1415	0.024
Mof_C 	C 	0.4598	0.83391	0.097	-0.208
Mof_C 	C 	0.0637	0.83861	0.1299	0.121
Mof_H 	H 	0.1039	0.8295	0.1414	0.012
Mof_C 	C 	0.7231	0.97608	0.0986	-0.173
Mof_C 	C 	0.9455	0.86374	0.0947	-0.15
Mof_C 	C 	0.0676	0.8603	0.0951	-0.182
Mof_C 	C 	0.0018	0.83027	0.1477	-0.207
Mof_C 	C 	0.6645	0.02822	0.1313	0.142
Mof_H 	H 	0.6452	0.0461	0.1434	0.018
Mof_C 	C 	0.8834	0.87786	0.0738	0.424
Mof_C 	C 	0.6505	0.84404	0.1011	0.45
Mof_C 	C 	0.5807	0.83212	0.1084	-0.178
Mof_C 	C 	0.4983	0.77411	0.186	0.411
Mof_C 	C 	0.6742	0.97493	0.1339	0.114
Mof_H 	H 	0.6613	0.9563	0.1473	0.022
Mof_C 	C 	0.571	0.80829	0.14	0.112
Mof_H 	H 	0.6091	0.7992	0.1545	0.022
Mof_C 	C 	0.4513	0.81109	0.1292	0.129
Mof_H 	H 	0.407	0.8044	0.1368	0.014
Mof_C 	C 	0.7417	0.00352	0.0799	0.112
Mof_H 	H 	0.7748	0.0045	0.0559	0.021
Mof_C 	C 	0.7107	0.03007	0.0968	-0.192
Mof_C 	C 	0.9978	0.807	0.1864	0.461
Mof_C 	C 	0.7508	0.94767	0.0788	0.429
Mof_C 	C 	0.4005	0.8506	0.0762	0.514
Mof_C 	C 	0.5931	0.00045	0.1872	0.439
Mof_C 	C 	0.6448	0.00148	0.149	-0.188
Mof_C 	C 	0.135	0.86925	0.0747	0.454
Mof_C 	C 	0.7289	0.0592	0.073	0.513
Mof_O 	O 	0.7104	0.08481	0.0989	-0.364
Mof_O 	O 	0.344	0.849	0.0999	-0.239
Mof_O 	O 	0.6926	0.8439	0.1346	-0.218
Mof_O 	O 	0.7974	0.95082	0.0487	-0.471
Mof_O 	O 	0.1855	0.8576	0.0903	-0.644
Mof_Zn	Zn	0.26466	0.84558	0.96413	1.052
Mof_O 	O 	0.6731	0.0747	0.0644	-0.406
Mof_O 	O 	0.6992	0.8266	0.1088	-0.2
Mof_O 	O 	0.3446	0.8379	0.078	-0.484
Mof_Zn	Zn	0.27434	0.87411	0.92742	1.095
Mof_Zn	Zn	0.07498	0.23338	0.24687	1.197
Mof_Zn	Zn	0.74271	0.11618	0.43394	1.238
Mof_O 	O 	0.8903	0.09969	0.45	-0.487
Mof_O 	O 	0.9395	0.20074	0.30064	-0.48
Mof_O 	O 	0.4398	0.23577	0.3056	-0.462
Mof_O 	O 	0.053	0.20273	0.29809	-0.505
Mof_O 	O 	0.8273	0.13439	0.4152	-0.473
Mof_O 	O 	0.7775	0.93975	0.4522	-0.507
Mof_O 	O 	0.5651	0.97533	0.30203	-0.491
Mof_O 	O 	0.7271	0.0763	0.40698	-0.483
Mof_O 	O 	0.5777	0.02429	0.29608	-0.478
Mof_O 	O 	0.5519	0.23426	0.29322	-0.487
Mof_O 	O 	0.6577	0.13728	0.4309	-0.476
Mof_O 	O 	0.1345	0.10898	0.4521	-0.526
Mof_O 	O 	0.4119	0.12845	0.4489	-0.571
Mof_C 	C 	0.5245	0.15557	0.4131	0.123
Mof_H 	H 	0.5301	0.1398	0.4351	0.019
Mof_C 	C 	0.0083	0.12726	0.4227	0.079
Mof_H 	H 	0.0106	0.1126	0.4467	0.025
Mof_C 	C 	0.5066	0.20192	0.3498	-0.175
Mof_C 	C 	0.942	0.15762	0.3702	0.131
Mof_H 	H 	0.8994	0.164	0.3585	0.025
Mof_C 	C 	0.4598	0.16609	0.403	-0.203
Mof_C 	C 	0.0637	0.16139	0.3701	0.121
Mof_H 	H 	0.1039	0.1705	0.3586	0.013
Mof_C 	C 	0.7231	0.02392	0.4014	-0.169
Mof_C 	C 	0.9455	0.13626	0.4053	-0.147
Mof_C 	C 	0.0676	0.1397	0.4049	-0.179
Mof_C 	C 	0.0018	0.16973	0.3523	-0.205
Mof_C 	C 	0.6645	0.97178	0.3687	0.14
Mof_H 	H 	0.6452	0.9539	0.3566	0.019
Mof_C 	C 	0.8834	0.12214	0.4262	0.424
Mof_C 	C 	0.6505	0.15596	0.3989	0.448
Mof_C 	C 	0.5807	0.16788	0.3916	-0.175
Mof_C 	C 	0.4983	0.22589	0.314	0.411
Mof_C 	C 	0.6742	0.02507	0.3661	0.113
Mof_H 	H 	0.6613	0.0437	0.3527	0.023
Mof_C 	C 	0.571	0.19171	0.36	0.11
Mof_H 	H 	0.6091	0.2008	0.3455	0.023
Mof_C 	C 	0.4513	0.18891	0.3708	0.127
Mof_H 	H 	0.407	0.1956	0.3632	0.015
Mof_C 	C 	0.7417	0.99648	0.4201	0.111
Mof_H 	H 	0.7748	0.9955	0.4441	0.026
Mof_C 	C 	0.7107	0.96993	0.4032	-0.188
Mof_C 	C 	0.9978	0.193	0.3136	0.461
Mof_C 	C 	0.7508	0.05233	0.4212	0.429
Mof_C 	C 	0.4005	0.1494	0.4238	0.513
Mof_C 	C 	0.5931	0.99955	0.3128	0.439
Mof_C 	C 	0.6448	0.99852	0.351	-0.186
Mof_C 	C 	0.135	0.13075	0.4253	0.453
Mof_C 	C 	0.7289	0.9408	0.427	0.512
Mof_O 	O 	0.7104	0.91519	0.4011	-0.364
Mof_O 	O 	0.344	0.151	0.4001	-0.241
Mof_O 	O 	0.6926	0.1561	0.3654	-0.218
Mof_O 	O 	0.7974	0.04918	0.4513	-0.465
Mof_O 	O 	0.1855	0.1424	0.4097	-0.642
Mof_Zn	Zn	0.26466	0.15442	0.53587	1.044
Mof_O 	O 	0.6731	0.9253	0.4356	-0.402
Mof_O 	O 	0.6992	0.1734	0.3912	-0.197
Mof_O 	O 	0.3446	0.1621	0.422	-0.48
Mof_Zn	Zn	0.27434	0.12589	0.57258	1.092
Mof_Zn	Zn	0.57498	0.73338	0.74687	1.198
Mof_Zn	Zn	0.24271	0.61618	0.93394	1.241
Mof_O 	O 	0.3903	0.59969	0.95	-0.482
Mof_O 	O 	0.4395	0.70074	0.80064	-0.47
Mof_O 	O 	0.9398	0.73577	0.8056	-0.471
Mof_O 	O 	0.553	0.70273	0.79809	-0.478
Mof_O 	O 	0.3273	0.63439	0.9152	-0.47
Mof_O 	O 	0.2775	0.43975	0.9522	-0.498
Mof_O 	O 	0.0651	0.47533	0.80203	-0.496
Mof_O 	O 	0.2271	0.5763	0.90698	-0.481
Mof_O 	O 	0.0777	0.52429	0.79608	-0.483
Mof_O 	O 	0.0519	0.73426	0.79322	-0.512
Mof_O 	O 	0.1577	0.63728	0.9309	-0.471
Mof_O 	O 	0.6345	0.60898	0.9521	-0.514
Mof_O 	O 	0.9119	0.62845	0.9489	-0.555
Mof_C 	C 	0.0245	0.65557	0.9131	0.104
Mof_H 	H 	0.0301	0.6398	0.9351	0.023
Mof_C 	C 	0.5083	0.62726	0.9227	0.094
Mof_H 	H 	0.5106	0.6126	0.9467	0.031
Mof_C 	C 	0.0066	0.70192	0.8498	-0.235
Mof_C 	C 	0.442	0.65762	0.8702	0.089
Mof_H 	H 	0.3994	0.664	0.8585	0.037
Mof_C 	C 	0.9598	0.66609	0.903	-0.19
Mof_C 	C 	0.5637	0.66139	0.8701	0.096
Mof_H 	H 	0.6039	0.6705	0.8586	0.024
Mof_C 	C 	0.2231	0.52392	0.9014	-0.168
Mof_C 	C 	0.4455	0.63626	0.9053	-0.151
Mof_C 	C 	0.5676	0.6397	0.9049	-0.167
Mof_C 	C 	0.5018	0.66973	0.8523	-0.145
Mof_C 	C 	0.1645	0.47178	0.8687	0.14
Mof_H 	H 	0.1452	0.4539	0.8566	0.018
Mof_C 	C 	0.3834	0.62214	0.9262	0.422
Mof_C 	C 	0.1505	0.65596	0.8989	0.448
Mof_C 	C 	0.0807	0.66788	0.8916	-0.178
Mof_C 	C 	0.9983	0.72589	0.814	0.468
Mof_C 	C 	0.1742	0.52507	0.8661	0.112
Mof_H 	H 	0.1613	0.5437	0.8527	0.022
Mof_C 	C 	0.071	0.69171	0.86	0.133
Mof_H 	H 	0.1091	0.7008	0.8455	0.015
Mof_C 	C 	0.9513	0.68891	0.8708	0.17
Mof_H 	H 	0.907	0.6956	0.8632	0.005
Mof_C 	C 	0.2417	0.49648	0.9201	0.11
Mof_H 	H 	0.2748	0.4955	0.9441	0.03
Mof_C 	C 	0.2107	0.46993	0.9032	-0.186
Mof_C 	C 	0.4978	0.693	0.8136	0.406
Mof_C 	C 	0.2508	0.55233	0.9212	0.428
Mof_C 	C 	0.9005	0.6494	0.9238	0.511
Mof_C 	C 	0.0931	0.49955	0.8128	0.439
Mof_C 	C 	0.1448	0.49852	0.851	-0.187
Mof_C 	C 	0.635	0.63075	0.9253	0.451
Mof_C 	C 	0.2289	0.4408	0.927	0.509
Mof_O 	O 	0.2104	0.41519	0.9011	-0.365
Mof_O 	O 	0.844	0.651	0.9001	-0.243
Mof_O 	O 	0.1926	0.6561	0.8654	-0.22
Mof_O 	O 	0.2974	0.54918	0.9513	-0.457
Mof_O 	O 	0.6855	0.6424	0.9097	-0.637
Mof_Zn	Zn	0.76466	0.65442	0.03587	1.043
Mof_O 	O 	0.1731	0.4253	0.9356	-0.396
Mof_O 	O 	0.1992	0.6734	0.8912	-0.194
Mof_O 	O 	0.8446	0.6621	0.922	-0.471
Mof_Zn	Zn	0.77434	0.62589	0.07258	1.092
Mof_Zn	Zn	0.92502	0.76662	0.24687	1.199
Mof_Zn	Zn	0.25729	0.88382	0.43394	1.238
Mof_O 	O 	0.1097	0.90031	0.45	-0.498
Mof_O 	O 	0.0605	0.79926	0.30064	-0.462
Mof_O 	O 	0.5602	0.76423	0.3056	-0.462
Mof_O 	O 	0.947	0.79727	0.29809	-0.454
Mof_O 	O 	0.1727	0.86561	0.4152	-0.475
Mof_O 	O 	0.2225	0.06025	0.4522	-0.51
Mof_O 	O 	0.4349	0.02467	0.30203	-0.491
Mof_O 	O 	0.2729	0.9237	0.40698	-0.484
Mof_O 	O 	0.4223	0.97571	0.29608	-0.479
Mof_O 	O 	0.4481	0.76574	0.29322	-0.487
Mof_O 	O 	0.3423	0.86272	0.4309	-0.476
Mof_O 	O 	0.8655	0.89102	0.4521	-0.522
Mof_O 	O 	0.5881	0.87155	0.4489	-0.571
Mof_C 	C 	0.4755	0.84443	0.4131	0.124
Mof_H 	H 	0.4699	0.8602	0.4351	0.018
Mof_C 	C 	0.9917	0.87274	0.4227	0.113
Mof_H 	H 	0.9894	0.8874	0.4467	0.026
Mof_C 	C 	0.4934	0.79808	0.3498	-0.175
Mof_C 	C 	0.058	0.84238	0.3702	0.05
Mof_H 	H 	0.1006	0.836	0.3585	0.047
Mof_C 	C 	0.5402	0.83391	0.403	-0.204
Mof_C 	C 	0.9363	0.83861	0.3701	0.075
Mof_H 	H 	0.8961	0.8295	0.3586	0.031
Mof_C 	C 	0.2769	0.97608	0.4014	-0.172
Mof_C 	C 	0.0545	0.86374	0.4053	-0.164
Mof_C 	C 	0.9324	0.8603	0.4049	-0.164
Mof_C 	C 	0.9982	0.83027	0.3523	-0.091
Mof_C 	C 	0.3355	0.02822	0.3687	0.141
Mof_H 	H 	0.3548	0.0461	0.3566	0.018
Mof_C 	C 	0.1166	0.87786	0.4262	0.423
Mof_C 	C 	0.3495	0.84404	0.3989	0.449
Mof_C 	C 	0.4193	0.83212	0.3916	-0.175
Mof_C 	C 	0.5017	0.77411	0.314	0.411
Mof_C 	C 	0.3258	0.97493	0.3661	0.113
Mof_H 	H 	0.3387	0.9563	0.3527	0.022
Mof_C 	C 	0.429	0.80829	0.36	0.111
Mof_H 	H 	0.3909	0.7992	0.3455	0.023
Mof_C 	C 	0.5487	0.81109	0.3708	0.128
Mof_H 	H 	0.593	0.8044	0.3632	0.015
Mof_C 	C 	0.2583	0.00352	0.4201	0.112
Mof_H 	H 	0.2252	0.0045	0.4441	0.024
Mof_C 	C 	0.2893	0.03007	0.4032	-0.191
Mof_C 	C 	0.0022	0.807	0.3136	0.352
Mof_C 	C 	0.2492	0.94767	0.4212	0.429
Mof_C 	C 	0.5995	0.8506	0.4238	0.513
Mof_C 	C 	0.4069	0.00045	0.3128	0.439
Mof_C 	C 	0.3552	0.00148	0.351	-0.187
Mof_C 	C 	0.865	0.86925	0.4253	0.45
Mof_C 	C 	0.2711	0.0592	0.427	0.512
Mof_O 	O 	0.2896	0.08481	0.4011	-0.366
Mof_O 	O 	0.656	0.849	0.4001	-0.24
Mof_O 	O 	0.3074	0.8439	0.3654	-0.219
Mof_O 	O 	0.2026	0.95082	0.4513	-0.469
Mof_O 	O 	0.8145	0.8576	0.4097	-0.64
Mof_Zn	Zn	0.73534	0.84558	0.53587	1.044
Mof_O 	O 	0.3269	0.0747	0.4356	-0.402
Mof_O 	O 	0.3008	0.8266	0.3912	-0.199
Mof_O 	O 	0.6554	0.8379	0.422	-0.48
Mof_Zn	Zn	0.72566	0.87411	0.57258	1.092
Mof_Zn	Zn	0.42502	0.26662	0.74687	1.198
Mof_Zn	Zn	0.75729	0.38382	0.93394	1.242
Mof_O 	O 	0.6097	0.40031	0.95	-0.482
Mof_O 	O 	0.5605	0.29926	0.80064	-0.47
Mof_O 	O 	0.0602	0.26423	0.8056	-0.451
Mof_O 	O 	0.447	0.29727	0.79809	-0.479
Mof_O 	O 	0.6727	0.36561	0.9152	-0.47
Mof_O 	O 	0.7225	0.56025	0.9522	-0.497
Mof_O 	O 	0.9349	0.52467	0.80203	-0.481
Mof_O 	O 	0.7729	0.4237	0.90698	-0.478
Mof_O 	O 	0.9223	0.47571	0.79608	-0.469
Mof_O 	O 	0.9481	0.26574	0.79322	-0.46
Mof_O 	O 	0.8423	0.36272	0.9309	-0.466
Mof_O 	O 	0.3655	0.39102	0.9521	-0.514
Mof_O 	O 	0.0881	0.37155	0.9489	-0.567
Mof_C 	C 	0.9755	0.34443	0.9131	0.138
Mof_H 	H 	0.9699	0.3602	0.9351	0.024
Mof_C 	C 	0.4917	0.37274	0.9227	0.094
Mof_H 	H 	0.4894	0.3874	0.9467	0.031
Mof_C 	C 	0.9934	0.29808	0.8498	-0.109
Mof_C 	C 	0.558	0.34238	0.8702	0.089
Mof_H 	H 	0.6006	0.336	0.8585	0.037
Mof_C 	C 	0.0402	0.33391	0.903	-0.205
Mof_C 	C 	0.4363	0.33861	0.8701	0.096
Mof_H 	H 	0.3961	0.3295	0.8586	0.023
Mof_C 	C 	0.7769	0.47608	0.9014	-0.164
Mof_C 	C 	0.5545	0.36374	0.9053	-0.151
Mof_C 	C 	0.4324	0.3603	0.9049	-0.167
Mof_C 	C 	0.4982	0.33027	0.8523	-0.145
Mof_C 	C 	0.8355	0.52822	0.8687	0.136
Mof_H 	H 	0.8548	0.5461	0.8566	0.022
Mof_C 	C 	0.6166	0.37786	0.9262	0.422
Mof_C 	C 	0.8495	0.34404	0.8989	0.444
Mof_C 	C 	0.9193	0.33212	0.8916	-0.161
Mof_C 	C 	0.0017	0.27411	0.814	0.353
Mof_C 	C 	0.8258	0.47493	0.8661	0.11
Mof_H 	H 	0.8387	0.4563	0.8527	0.025
Mof_C 	C 	0.929	0.30829	0.86	0.084
Mof_H 	H 	0.8909	0.2992	0.8455	0.034
Mof_C 	C 	0.0487	0.31109	0.8708	0.08
Mof_H 	H 	0.093	0.3044	0.8632	0.03
Mof_C 	C 	0.7583	0.50352	0.9201	0.108
Mof_H 	H 	0.7252	0.5045	0.9441	0.031
Mof_C 	C 	0.7893	0.53007	0.9032	-0.182
Mof_C 	C 	0.5022	0.307	0.8136	0.406
Mof_C 	C 	0.7492	0.44767	0.9212	0.428
Mof_C 	C 	0.0995	0.3506	0.9238	0.51
Mof_C 	C 	0.9069	0.50045	0.8128	0.436
Mof_C 	C 	0.8552	0.50148	0.851	-0.179
Mof_C 	C 	0.365	0.36925	0.9253	0.451
Mof_C 	C 	0.7711	0.5592	0.927	0.507
Mof_O 	O 	0.7896	0.58481	0.9011	-0.364
Mof_O 	O 	0.156	0.349	0.9001	-0.245
Mof_O 	O 	0.8074	0.3439	0.8654	-0.217
Mof_O 	O 	0.7026	0.45082	0.9513	-0.456
Mof_O 	O 	0.3145	0.3576	0.9097	-0.637
Mof_Zn	Zn	0.23534	0.34558	0.03587	1.042
Mof_O 	O 	0.8269	0.5747	0.9356	-0.391
Mof_O 	O 	0.8008	0.3266	0.8912	-0.193
Mof_O 	O 	0.1554	0.3379	0.922	-0.472
Mof_Zn	Zn	0.22566	0.37411	0.07258	1.092
Mof_Zn	Zn	1.35705e-33	0.53286	0.25	1.195
Mof_Zn	Zn	2.52921e-32	0.46714	0.25	1.195
Mof_Zn	Zn	0.5	0.03286	0.75	1.201
Mof_Zn	Zn	0.5	0.96714	0.75	1.201
Mof_Zn	Zn	2.80062e-32	0.46714	0.75	1.195
Mof_Zn	Zn	0.5	0.96714	0.25	1.201
Mof_Zn	Zn	4.07115e-33	0.53286	0.75	1.195
Mof_Zn	Zn	0.5	0.03286	0.25	1.201
Mof_Zn	Zn	0.70084	0.40744	0.5	1.21
Mof_Zn	Zn	0.34336	0.42527	0.5	1.228
Mof_Zn	Zn	0.86304	0.39708	0.5	1.181
Mof_O 	O 	0.7757	0.37897	0.5	-1.269
Mof_O 	O 	0.2555	0.39569	0.5	-0.639
Mof_O 	O 	0.7442	0.3106	0.5	-0.589
Mof_Zn	Zn	0.20084	0.90744	-0	1.204
Mof_Zn	Zn	0.84336	0.92527	-0	1.223
Mof_Zn	Zn	0.36304	0.89708	-0	1.174
Mof_O 	O 	0.2757	0.87897	-0	-1.281
Mof_O 	O 	0.7555	0.89569	-0	-0.651
Mof_O 	O 	0.2442	0.8106	-0	-0.604
Mof_Zn	Zn	0.29916	0.59256	0.5	1.21
Mof_Zn	Zn	0.65664	0.57473	0.5	1.228
Mof_Zn	Zn	0.13696	0.60292	0.5	1.179
Mof_O 	O 	0.2243	0.62103	0.5	-1.269
Mof_O 	O 	0.7445	0.60431	0.5	-0.638
Mof_O 	O 	0.2558	0.6894	0.5	-0.591
Mof_Zn	Zn	0.79916	0.09256	-0	1.204
Mof_Zn	Zn	0.15664	0.07473	-0	1.221
Mof_Zn	Zn	0.63696	0.10292	-0	1.174
Mof_O 	O 	0.7243	0.12103	-0	-1.281
Mof_O 	O 	0.2445	0.10431	-0	-0.652
Mof_O 	O 	0.7558	0.1894	-0	-0.602
Mof_Zn	Zn	0.79916	0.90744	0.5	1.21
Mof_Zn	Zn	0.15664	0.92527	0.5	1.228
Mof_Zn	Zn	0.63696	0.89708	0.5	1.18
Mof_O 	O 	0.7243	0.87897	0.5	-1.269
Mof_O 	O 	0.2445	0.89569	0.5	-0.639
Mof_O 	O 	0.7558	0.8106	0.5	-0.589
Mof_Zn	Zn	0.29916	0.40744	-0	1.204
Mof_Zn	Zn	0.65664	0.42527	-0	1.222
Mof_Zn	Zn	0.13696	0.39708	-0	1.173
Mof_O 	O 	0.2243	0.37897	-0	-1.281
Mof_O 	O 	0.7445	0.39569	-0	-0.651
Mof_O 	O 	0.2558	0.3106	-0	-0.604
Mof_Zn	Zn	0.20084	0.09256	0.5	1.21
Mof_Zn	Zn	0.84336	0.07473	0.5	1.229
Mof_Zn	Zn	0.36304	0.10292	0.5	1.18
Mof_O 	O 	0.2757	0.12103	0.5	-1.269
Mof_O 	O 	0.7555	0.10431	0.5	-0.638
Mof_O 	O 	0.2442	0.1894	0.5	-0.591
Mof_Zn	Zn	0.70084	0.59256	-0	1.204
Mof_Zn	Zn	0.34336	0.57473	-0	1.222
Mof_Zn	Zn	0.86304	0.60292	-0	1.175
Mof_O 	O 	0.7757	0.62103	-0	-1.281
Mof_O 	O 	0.2555	0.60431	-0	-0.652
Mof_O 	O 	0.7442	0.6894	-0	-0.602
_end
