data_functionalizedCrystal
_audit_creation_method	'EQeq! by Chris Wilmer'
_symmetry_space_group_name_H-M	'P1'
_symmetry_Int_Tables_number	1
_symmetry_cell_setting	triclinic
loop_
_symmetry_equiv_pos_as_xyz
  x,y,z
_cell_length_a	9.2209
_cell_length_b	9.5441
_cell_length_c	21.5841
_cell_angle_alpha	90
_cell_angle_beta	90
_cell_angle_gamma	116.219
loop_
_atom_site_label
_atom_site_type_symbol
_atom_site_fract_x
_atom_site_fract_y
_atom_site_fract_z
_atom_site_charge
Mof_Gd	Gd	0.1241	0.85832	0.49154	1.904
Mof_Gd	Gd	0.3759	0.14168	0.99154	1.885
Mof_Gd	Gd	0.8759	0.14168	0.50846	1.904
Mof_Gd	Gd	0.6241	0.85832	0.00846	1.885
Mof_Cu	Cu	0.04005	0.19136	0.85407	0.853
Mof_Cu	Cu	0.45995	0.80864	0.35407	0.853
Mof_Cu	Cu	0.95995	0.80864	0.14593	0.852
Mof_Cu	Cu	0.54005	0.19136	0.64593	0.852
Mof_H 	H 	0.9948	0.1526	0.7237	-0.025
Mof_H 	H 	0.1067	0.8134	0.6667	-0.001
Mof_H 	H 	0.1521	0.7741	0.7694	0.092
Mof_H 	H 	0.1167	0.9234	0.8455	-0.011
Mof_H 	H 	0.7946	0.2982	0.8436	-0.041
Mof_H 	H 	0.747	0.5046	0.8726	0.113
Mof_H 	H 	0.9386	0.7033	0.9314	-0.005
Mof_H 	H 	0.2093	0.4737	0.9293	-0.02
Mof_H 	H 	0.5052	0.8474	0.2237	-0.026
Mof_H 	H 	0.3933	0.1866	0.1667	-0
Mof_H 	H 	0.3479	0.2259	0.2694	0.09
Mof_H 	H 	0.3833	0.0766	0.3455	-0.011
Mof_H 	H 	0.7054	0.7018	0.3436	-0.042
Mof_H 	H 	0.753	0.4954	0.3726	0.115
Mof_H 	H 	0.5614	0.2967	0.4314	-0.007
Mof_H 	H 	0.2907	0.5263	0.4293	-0.021
Mof_H 	H 	0.0052	0.8474	0.2763	-0.025
Mof_H 	H 	0.8933	0.1866	0.3333	-0.001
Mof_H 	H 	0.8479	0.2259	0.2306	0.092
Mof_H 	H 	0.8833	0.0766	0.1545	-0.011
Mof_H 	H 	0.2054	0.7018	0.1564	-0.041
Mof_H 	H 	0.253	0.4954	0.1274	0.113
Mof_H 	H 	0.0614	0.2967	0.0686	-0.005
Mof_H 	H 	0.7907	0.5263	0.0707	-0.02
Mof_H 	H 	0.4948	0.1526	0.7763	-0.026
Mof_H 	H 	0.6067	0.8134	0.8333	-0
Mof_H 	H 	0.6521	0.7741	0.7306	0.09
Mof_H 	H 	0.6167	0.9234	0.6545	-0.011
Mof_H 	H 	0.2946	0.2982	0.6564	-0.042
Mof_H 	H 	0.247	0.5046	0.6274	0.115
Mof_H 	H 	0.4386	0.7033	0.5686	-0.007
Mof_H 	H 	0.7093	0.4737	0.5707	-0.021
Mof_C 	C 	0.0287	0.0764	0.7327	0.092
Mof_C 	C 	0.045	0.9902	0.6836	-0.199
Mof_C 	C 	0.0932	0.874	0.6979	0.098
Mof_C 	C 	0.1204	0.851	0.7589	-0.183
Mof_C 	C 	0.1005	0.9424	0.8044	0.113
Mof_C 	C 	0.0122	0.0243	0.6195	0.467
Mof_C 	C 	0.8719	0.3772	0.8674	0.117
Mof_C 	C 	0.8423	0.5009	0.8844	-0.195
Mof_C 	C 	0.9559	0.6186	0.919	0.132
Mof_C 	C 	0.0967	0.6098	0.9352	-0.205
Mof_C 	C 	0.116	0.481	0.9174	0.12
Mof_C 	C 	0.2309	0.742	0.97	0.482
Mof_C 	C 	0.9887	0.4923	0.4646	0.253
Mof_C 	C 	0.9964	0.0227	0.9658	0.247
Mof_C 	C 	0.4713	0.9236	0.2327	0.093
Mof_C 	C 	0.455	0.0098	0.1836	-0.197
Mof_C 	C 	0.4068	0.126	0.1979	0.095
Mof_C 	C 	0.3796	0.149	0.2589	-0.18
Mof_C 	C 	0.3995	0.0576	0.3044	0.108
Mof_C 	C 	0.4878	0.9757	0.1195	0.462
Mof_C 	C 	0.6281	0.6228	0.3674	0.12
Mof_C 	C 	0.6577	0.4991	0.3844	-0.199
Mof_C 	C 	0.5441	0.3814	0.419	0.138
Mof_C 	C 	0.4033	0.3902	0.4352	-0.211
Mof_C 	C 	0.384	0.519	0.4174	0.123
Mof_C 	C 	0.2691	0.258	0.47	0.486
Mof_C 	C 	0.5113	0.5077	0.9646	0.253
Mof_C 	C 	0.5036	0.9773	0.4658	0.253
Mof_C 	C 	0.9713	0.9236	0.2673	0.092
Mof_C 	C 	0.955	0.0098	0.3164	-0.199
Mof_C 	C 	0.9068	0.126	0.3021	0.098
Mof_C 	C 	0.8796	0.149	0.2411	-0.183
Mof_C 	C 	0.8995	0.0576	0.1956	0.113
Mof_C 	C 	0.9878	0.9757	0.3805	0.467
Mof_C 	C 	0.1281	0.6228	0.1326	0.117
Mof_C 	C 	0.1577	0.4991	0.1156	-0.195
Mof_C 	C 	0.0441	0.3814	0.081	0.132
Mof_C 	C 	0.9033	0.3902	0.0648	-0.205
Mof_C 	C 	0.884	0.519	0.0826	0.12
Mof_C 	C 	0.7691	0.258	0.03	0.482
Mof_C 	C 	0.0113	0.5077	0.5354	0.253
Mof_C 	C 	0.0036	0.9773	0.0342	0.247
Mof_C 	C 	0.5287	0.0764	0.7673	0.093
Mof_C 	C 	0.545	0.9902	0.8164	-0.197
Mof_C 	C 	0.5932	0.874	0.8021	0.095
Mof_C 	C 	0.6204	0.851	0.7411	-0.18
Mof_C 	C 	0.6005	0.9424	0.6956	0.108
Mof_C 	C 	0.5122	0.0243	0.8805	0.462
Mof_C 	C 	0.3719	0.3772	0.6326	0.12
Mof_C 	C 	0.3423	0.5009	0.6156	-0.199
Mof_C 	C 	0.4559	0.6186	0.581	0.138
Mof_C 	C 	0.5967	0.6098	0.5648	-0.211
Mof_C 	C 	0.616	0.481	0.5826	0.123
Mof_C 	C 	0.7309	0.742	0.53	0.486
Mof_C 	C 	0.4887	0.4923	0.0354	0.253
Mof_C 	C 	0.4964	0.0227	0.5342	0.253
Mof_N 	N 	0.0587	0.0573	0.79209	-0.274
Mof_N 	N 	0.0046	0.364	0.883	-0.275
Mof_N 	N 	0.4413	0.9427	0.29209	-0.272
Mof_N 	N 	0.4954	0.636	0.383	-0.276
Mof_N 	N 	0.9413	0.9427	0.20791	-0.274
Mof_N 	N 	0.9954	0.636	0.117	-0.275
Mof_N 	N 	0.5587	0.0573	0.70791	-0.272
Mof_N 	N 	0.5046	0.364	0.617	-0.276
Mof_O 	O 	0.0519	0.9638	0.57543	-0.535
Mof_O 	O 	0.9452	0.1121	0.61256	-0.472
Mof_O 	O 	0.3369	0.7146	0.99528	-0.474
Mof_O 	O 	0.2214	0.8686	0.97089	-0.478
Mof_O 	O 	0.0513	0.6162	0.43357	-0.388
Mof_O 	O 	0.9081	0.3566	0.44339	-0.398
Mof_O 	O 	0.1289	0.1178	0.94171	-0.477
Mof_O 	O 	0.8631	0.9614	0.93898	-0.412
Mof_O 	O 	0.4481	0.0362	0.07543	-0.529
Mof_O 	O 	0.5548	0.8879	0.11256	-0.472
Mof_O 	O 	0.1631	0.2854	0.49528	-0.479
Mof_O 	O 	0.2786	0.1314	0.47089	-0.486
Mof_O 	O 	0.4487	0.3838	0.93357	-0.388
Mof_O 	O 	0.5919	0.6434	0.94339	-0.396
Mof_O 	O 	0.3711	0.8822	0.44171	-0.478
Mof_O 	O 	0.6369	0.0386	0.43898	-0.418
Mof_O 	O 	0.9481	0.0362	0.42457	-0.535
Mof_O 	O 	0.0548	0.8879	0.38744	-0.472
Mof_O 	O 	0.6631	0.2854	0.00472	-0.474
Mof_O 	O 	0.7786	0.1314	0.02911	-0.478
Mof_O 	O 	0.9487	0.3838	0.56643	-0.388
Mof_O 	O 	0.0919	0.6434	0.55661	-0.398
Mof_O 	O 	0.8711	0.8822	0.05829	-0.477
Mof_O 	O 	0.1369	0.0386	0.06102	-0.412
Mof_O 	O 	0.5519	0.9638	0.92457	-0.529
Mof_O 	O 	0.4452	0.1121	0.88744	-0.472
Mof_O 	O 	0.8369	0.7146	0.50472	-0.479
Mof_O 	O 	0.7214	0.8686	0.52911	-0.486
Mof_O 	O 	0.5513	0.6162	0.06643	-0.388
Mof_O 	O 	0.4081	0.3566	0.05661	-0.396
Mof_O 	O 	0.6289	0.1178	0.55829	-0.478
Mof_O 	O 	0.3631	0.9614	0.56102	-0.418
_end
