# CIF file generated by openbabel 3.1.0, see https://openbabel.org
data_I
_chemical_name_common 'image0'
_cell_length_a 9.8618
_cell_length_b 11.705
_cell_length_c 17.5577
_cell_angle_alpha 78.366
_cell_angle_beta 84.12
_cell_angle_gamma 84.769
_space_group_name_H-M_alt 'P 1'
_space_group_name_Hall 'P 1'
loop_
    _symmetry_equiv_pos_as_xyz
    x,y,z
loop_
    _atom_site_label
    _atom_site_type_symbol
    _atom_site_fract_x
    _atom_site_fract_y
    _atom_site_fract_z
    _atom_site_occupancy
    Ag1      Ag       0.43070    0.11595    0.93473    1.000
    Ag2      Ag       0.24097    0.09975    0.52075    1.000
    S1       S        0.82942    0.92743    0.93279    1.000
    S2       S        0.92174    0.15501    0.92474    1.000
    S3       S        0.65656    0.09632    0.01522    1.000
    S4       S        0.18892    0.10378    0.82984    1.000
    S5       S        0.07723    0.83781    0.84374    1.000
    S6       S        0.56559    0.39424    0.84337    1.000
    S7       S        0.40018    0.56344    0.91645    1.000
    S8       S        0.32999    0.31487    0.95657    1.000
    S9       S        0.57273    0.76378    0.84528    1.000
    S10      S        0.76301    0.56997    0.75576    1.000
    N1       N        0.11910    0.19390    0.61450    1.000
    N2       N        0.87520    0.92200    0.57690    1.000
    N3       N        0.35660    0.95110    0.59020    1.000
    N4       N        0.66760    0.72570    0.54260    1.000
    C1       C        0.79550    0.06050    0.95860    1.000
    C2       C        0.02910    0.06260    0.87480    1.000
    C3       C        0.98540    0.95420    0.87890    1.000
    C4       C        0.15640    0.25970    0.79480    1.000
    C5       C        0.05190    0.29130    0.73450    1.000
    C6       C        0.08970    0.23840    0.66640    1.000
    C7       C        0.97820    0.82900    0.76350    1.000
    C8       C        0.01070    0.92720    0.69520    1.000
    C9       C        0.93400    0.92420    0.62860    1.000
    C10      C        0.42720    0.42000    0.90660    1.000
    C11      C        0.53630    0.61750    0.85190    1.000
    C12      C        0.61310    0.53820    0.81650    1.000
    C13      C        0.45660    0.83980    0.77470    1.000
    C14      C        0.50990    0.82560    0.69220    1.000
    C15      C        0.42280    0.89430    0.63410    1.000
    C16      C        0.75730    0.48090    0.68250    1.000
    C17      C        0.64420    0.51830    0.62760    1.000
    C18      C        0.65830    0.63490    0.57950    1.000
    H1       H        0.24800    0.28700    0.77200    1.000
    H2       H        0.12800    0.29700    0.83800    1.000
    H3       H        0.04400    0.37100    0.71800    1.000
    H4       H        0.96500    0.26700    0.75600    1.000
    H5       H        0.88300    0.83300    0.78000    1.000
    H6       H        0.00400    0.75700    0.75300    1.000
    H7       H        0.10100    0.92200    0.68000    1.000
    H8       H        0.99200    0.00100    0.71000    1.000
    H9       H        0.45600    0.92100    0.78000    1.000
    H10      H        0.37100    0.81000    0.79000    1.000
    H11      H        0.51100    0.74700    0.68900    1.000
    H12      H        0.59400    0.85300    0.67900    1.000
    H13      H        0.75000    0.39300    0.70700    1.000
    H14      H        0.83800    0.49000    0.65200    1.000
    H15      H        0.55900    0.51900    0.65500    1.000
    H16      H        0.64900    0.46600    0.59300    1.000
    Ag3      Ag       0.56930    0.88405    0.06527    1.000
    Ag4      Ag       0.75903    0.90025    0.47925    1.000
    S11      S        0.17058    0.07257    0.06721    1.000
    S12      S        0.07826    0.84499    0.07526    1.000
    S13      S        0.34344    0.90368    0.98478    1.000
    S14      S        0.81108    0.89622    0.17016    1.000
    S15      S        0.92277    0.16219    0.15626    1.000
    S16      S        0.43441    0.60576    0.15663    1.000
    S17      S        0.59982    0.43656    0.08355    1.000
    S18      S        0.67001    0.68513    0.04343    1.000
    S19      S        0.42727    0.23622    0.15472    1.000
    S20      S        0.23699    0.43003    0.24424    1.000
    N5       N        0.88090    0.80610    0.38550    1.000
    N6       N        0.12480    0.07800    0.42310    1.000
    N7       N        0.64340    0.04890    0.40980    1.000
    N8       N        0.33240    0.27430    0.45740    1.000
    C19      C        0.20450    0.93950    0.04140    1.000
    C20      C        0.97090    0.93740    0.12520    1.000
    C21      C        0.01460    0.04580    0.12110    1.000
    C22      C        0.84360    0.74030    0.20520    1.000
    C23      C        0.94810    0.70870    0.26550    1.000
    C24      C        0.91030    0.76160    0.33360    1.000
    C25      C        0.02180    0.17100    0.23650    1.000
    C26      C        0.98930    0.07280    0.30480    1.000
    C27      C        0.06600    0.07580    0.37140    1.000
    C28      C        0.57280    0.58000    0.09340    1.000
    C29      C        0.46370    0.38250    0.14810    1.000
    C30      C        0.38690    0.46180    0.18350    1.000
    C31      C        0.54340    0.16020    0.22530    1.000
    C32      C        0.49010    0.17440    0.30780    1.000
    C33      C        0.57720    0.10570    0.36590    1.000
    C34      C        0.24270    0.51910    0.31750    1.000
    C35      C        0.35580    0.48170    0.37240    1.000
    C36      C        0.34170    0.36510    0.42050    1.000
    H17      H        0.75200    0.71300    0.22800    1.000
    H18      H        0.87200    0.70300    0.16200    1.000
    H19      H        0.95600    0.62900    0.28200    1.000
    H20      H        0.03500    0.73300    0.24400    1.000
    H21      H        0.11700    0.16700    0.22000    1.000
    H22      H        0.99600    0.24300    0.24700    1.000
    H23      H        0.89900    0.07800    0.32000    1.000
    H24      H        0.00800    0.99900    0.29000    1.000
    H25      H        0.54400    0.07900    0.22000    1.000
    H26      H        0.62900    0.19000    0.21000    1.000
    H27      H        0.48900    0.25300    0.31100    1.000
    H28      H        0.40600    0.14700    0.32100    1.000
    H29      H        0.25000    0.60700    0.29300    1.000
    H30      H        0.16200    0.51000    0.34800    1.000
    H31      H        0.44100    0.48100    0.34500    1.000
    H32      H        0.35100    0.53400    0.40700    1.000
