data_functionalizedCrystal
_audit_creation_method	'EQeq! by Chris Wilmer'
_symmetry_space_group_name_H-M	'P1'
_symmetry_Int_Tables_number	1
_symmetry_cell_setting	triclinic
loop_
_symmetry_equiv_pos_as_xyz
  x,y,z
_cell_length_a	13.3714
_cell_length_b	13.3714
_cell_length_c	41.4227
_cell_angle_alpha	90
_cell_angle_beta	90
_cell_angle_gamma	120
loop_
_atom_site_label
_atom_site_type_symbol
_atom_site_fract_x
_atom_site_fract_y
_atom_site_fract_z
_atom_site_charge
Mof_Zn	Zn	0.35836	0.66574	0.2505	1.204
Mof_Zn	Zn	0.30738	0.64164	0.91717	1.204
Mof_Zn	Zn	0.33426	0.69262	0.58383	1.204
Mof_Zn	Zn	0.69262	0.33426	0.7495	1.204
Mof_Zn	Zn	0.66574	0.35836	0.08283	1.204
Mof_Zn	Zn	0.64164	0.30738	0.41617	1.204
Mof_H 	H 	0.2244	0.4754	0.225	0.125
Mof_H 	H 	0.339	0.4803	0.2274	0.136
Mof_H 	H 	0.3559	0.4919	0.178	0.053
Mof_H 	H 	0.462	0.646	0.1389	0.141
Mof_H 	H 	0.5801	0.7379	0.101	0.074
Mof_H 	H 	0.7064	0.9129	0.0759	0.057
Mof_H 	H 	0.6806	0.0858	0.1521	0.061
Mof_H 	H 	0.5566	0.9111	0.1777	0.073
Mof_H 	H 	0.8442	0.1174	0.0872	0.113
Mof_H 	H 	0.9129	0.3007	0.0625	0.037
Mof_H 	H 	0.869	0.459	0.0593	0.124
Mof_H 	H 	0.794	0.357	0.0411	0.114
Mof_H 	H 	0.1997	0.5818	0.1768	0.102
Mof_H 	H 	0.2464	0.5493	0.1452	0.107
Mof_H 	H 	0.0204	0.4397	0.198	0.104
Mof_H 	H 	0.8677	0.2499	0.2	-0.004
Mof_H 	H 	0.8818	0.1037	0.1748	0.088
Mof_H 	H 	0.0477	0.145	0.146	-0.002
Mof_H 	H 	0.2009	0.3341	0.1434	0.113
Mof_H 	H 	0.8994	0.4099	0.1214	0.097
Mof_H 	H 	0.9738	0.347	0.1177	0.102
Mof_H 	H 	0.1536	0.4396	0.0862	0.096
Mof_H 	H 	0.3133	0.6128	0.0698	0.019
Mof_H 	H 	0.3016	0.7812	0.0673	0.078
Mof_H 	H 	0.1301	0.7759	0.0805	0.014
Mof_H 	H 	0.9724	0.6037	0.0997	0.089
Mof_H 	H 	0.531	0.708	0.2868	0.131
Mof_H 	H 	0.527	0.6271	0.2626	0.129
Mof_H 	H 	0.4284	0.4774	0.2906	0.05
Mof_H 	H 	0.275	0.3852	0.3314	0.141
Mof_H 	H 	0.0999	0.2099	0.3297	0.074
Mof_H 	H 	0.0998	0.5099	0.3295	0.073
Mof_H 	H 	0.5117	0.6498	0.3405	0.102
Mof_H 	H 	0.4561	0.5149	0.3481	0.105
Mof_H 	H 	0.7134	0.749	0.3443	0.105
Mof_H 	H 	0.8935	0.7595	0.3397	0.003
Mof_H 	H 	0.9051	0.6037	0.3199	0.074
Mof_H 	H 	0.7383	0.4354	0.3042	0.006
Mof_H 	H 	0.5585	0.4243	0.3078	0.106
Mof_H 	H 	0.251	0.7756	0.89167	0.126
Mof_H 	H 	0.1413	0.661	0.89407	0.137
Mof_H 	H 	0.136	0.6441	0.84467	0.054
Mof_H 	H 	0.184	0.538	0.80557	0.142
Mof_H 	H 	0.1578	0.4199	0.76767	0.075
Mof_H 	H 	0.2065	0.2936	0.74257	0.058
Mof_H 	H 	0.4052	0.3194	0.81877	0.062
Mof_H 	H 	0.3545	0.4434	0.84437	0.074
Mof_H 	H 	0.2732	0.1558	0.75387	0.115
Mof_H 	H 	0.3878	0.0871	0.72917	0.038
Mof_H 	H 	0.59	0.131	0.72597	0.124
Mof_H 	H 	0.563	0.206	0.70777	0.114
Mof_H 	H 	0.3821	0.8003	0.84347	0.102
Mof_H 	H 	0.3029	0.7536	0.81187	0.107
Mof_H 	H 	0.4193	0.9796	0.86467	0.104
Mof_H 	H 	0.3822	0.1323	0.86667	-0.004
Mof_H 	H 	0.2219	0.1182	0.84147	0.088
Mof_H 	H 	0.0973	0.9523	0.81267	-0.002
Mof_H 	H 	0.1332	0.7991	0.81007	0.113
Mof_H 	H 	0.5105	0.1006	0.78807	0.097
Mof_H 	H 	0.3732	0.0262	0.78437	0.102
Mof_H 	H 	0.286	0.8464	0.75287	0.096
Mof_H 	H 	0.2995	0.6867	0.73647	0.019
Mof_H 	H 	0.4796	0.6984	0.73397	0.078
Mof_H 	H 	0.6458	0.8699	0.74717	0.014
Mof_H 	H 	0.6313	0.0276	0.76637	0.089
Mof_H 	H 	0.177	0.469	0.95347	0.131
Mof_H 	H 	0.1001	0.473	0.92927	0.129
Mof_H 	H 	0.049	0.5716	0.95727	0.05
Mof_H 	H 	0.1102	0.725	0.99807	0.141
Mof_H 	H 	0.11	0.9001	0.99637	0.074
Mof_H 	H 	0.4101	0.9002	0.99617	0.074
Mof_H 	H 	0.1381	0.4883	0.00717	0.102
Mof_H 	H 	0.0588	0.5439	0.01477	0.104
Mof_H 	H 	0.0356	0.2866	0.01097	0.103
Mof_H 	H 	0.866	0.1065	0.00637	0.004
Mof_H 	H 	0.6986	0.0949	0.98657	0.074
Mof_H 	H 	0.6971	0.2617	0.97087	0.006
Mof_H 	H 	0.8658	0.4415	0.97447	0.107
Mof_H 	H 	0.5246	0.749	0.55833	0.126
Mof_H 	H 	0.5197	0.8587	0.56073	0.137
Mof_H 	H 	0.5081	0.864	0.51133	0.054
Mof_H 	H 	0.354	0.816	0.47223	0.142
Mof_H 	H 	0.2621	0.8422	0.43433	0.075
Mof_H 	H 	0.0871	0.7935	0.40923	0.058
Mof_H 	H 	0.9142	0.5948	0.48543	0.062
Mof_H 	H 	0.0889	0.6455	0.51103	0.074
Mof_H 	H 	0.8826	0.7268	0.42053	0.114
Mof_H 	H 	0.6993	0.6122	0.39583	0.037
Mof_H 	H 	0.541	0.41	0.39263	0.124
Mof_H 	H 	0.643	0.437	0.37443	0.114
Mof_H 	H 	0.4182	0.6179	0.51013	0.102
Mof_H 	H 	0.4507	0.6971	0.47853	0.107
Mof_H 	H 	0.5603	0.5807	0.53133	0.104
Mof_H 	H 	0.7501	0.6178	0.53333	-0.004
Mof_H 	H 	0.8963	0.7781	0.50813	0.088
Mof_H 	H 	0.855	0.9027	0.47933	-0.003
Mof_H 	H 	0.6659	0.8668	0.47673	0.114
Mof_H 	H 	0.5901	0.4895	0.45473	0.097
Mof_H 	H 	0.653	0.6268	0.45103	0.102
Mof_H 	H 	0.5604	0.714	0.41953	0.097
Mof_H 	H 	0.3872	0.7005	0.40313	0.019
Mof_H 	H 	0.2188	0.5204	0.40063	0.078
Mof_H 	H 	0.2241	0.3542	0.41383	0.015
Mof_H 	H 	0.3963	0.3687	0.43303	0.087
Mof_H 	H 	0.292	0.823	0.62013	0.131
Mof_H 	H 	0.3729	0.8999	0.59593	0.129
Mof_H 	H 	0.5226	0.951	0.62393	0.05
Mof_H 	H 	0.6148	0.8898	0.66473	0.141
Mof_H 	H 	0.7901	0.89	0.66303	0.074
Mof_H 	H 	0.4901	0.5899	0.66283	0.074
Mof_H 	H 	0.3502	0.8619	0.67383	0.102
Mof_H 	H 	0.4851	0.9412	0.68143	0.105
Mof_H 	H 	0.251	0.9644	0.67763	0.103
Mof_H 	H 	0.2405	0.134	0.67303	0.004
Mof_H 	H 	0.3963	0.3014	0.65323	0.074
Mof_H 	H 	0.5646	0.3029	0.63753	0.006
Mof_H 	H 	0.5757	0.1342	0.64113	0.107
Mof_H 	H 	0.749	0.5246	0.775	0.126
Mof_H 	H 	0.8587	0.5197	0.7726	0.137
Mof_H 	H 	0.864	0.5081	0.822	0.054
Mof_H 	H 	0.816	0.354	0.8611	0.142
Mof_H 	H 	0.8422	0.2621	0.899	0.075
Mof_H 	H 	0.7935	0.0871	0.9241	0.058
Mof_H 	H 	0.5948	0.9142	0.8479	0.062
Mof_H 	H 	0.6455	0.0889	0.8223	0.074
Mof_H 	H 	0.7268	0.8826	0.9128	0.114
Mof_H 	H 	0.6122	0.6993	0.9375	0.037
Mof_H 	H 	0.41	0.541	0.9407	0.124
Mof_H 	H 	0.437	0.643	0.9589	0.114
Mof_H 	H 	0.6179	0.4182	0.8232	0.102
Mof_H 	H 	0.6971	0.4507	0.8548	0.107
Mof_H 	H 	0.5807	0.5603	0.802	0.104
Mof_H 	H 	0.6178	0.7501	0.8	-0.004
Mof_H 	H 	0.7781	0.8963	0.8252	0.088
Mof_H 	H 	0.9027	0.855	0.854	-0.003
Mof_H 	H 	0.8668	0.6659	0.8566	0.114
Mof_H 	H 	0.4895	0.5901	0.8786	0.097
Mof_H 	H 	0.6268	0.653	0.8823	0.102
Mof_H 	H 	0.714	0.5604	0.9138	0.097
Mof_H 	H 	0.7005	0.3872	0.9302	0.019
Mof_H 	H 	0.5204	0.2188	0.9327	0.078
Mof_H 	H 	0.3542	0.2241	0.9195	0.015
Mof_H 	H 	0.3687	0.3963	0.9003	0.087
Mof_H 	H 	0.823	0.292	0.7132	0.131
Mof_H 	H 	0.8999	0.3729	0.7374	0.129
Mof_H 	H 	0.951	0.5226	0.7094	0.05
Mof_H 	H 	0.8898	0.6148	0.6686	0.141
Mof_H 	H 	0.89	0.7901	0.6703	0.074
Mof_H 	H 	0.5899	0.4901	0.6705	0.074
Mof_H 	H 	0.8619	0.3502	0.6595	0.102
Mof_H 	H 	0.9412	0.4851	0.6519	0.105
Mof_H 	H 	0.9644	0.251	0.6557	0.103
Mof_H 	H 	0.134	0.2405	0.6603	0.004
Mof_H 	H 	0.3014	0.3963	0.6801	0.074
Mof_H 	H 	0.3029	0.5646	0.6958	0.006
Mof_H 	H 	0.1342	0.5757	0.6922	0.107
Mof_H 	H 	0.4754	0.2244	0.10833	0.126
Mof_H 	H 	0.4803	0.339	0.10593	0.137
Mof_H 	H 	0.4919	0.3559	0.15533	0.054
Mof_H 	H 	0.646	0.462	0.19443	0.142
Mof_H 	H 	0.7379	0.5801	0.23233	0.075
Mof_H 	H 	0.9129	0.7064	0.25743	0.058
Mof_H 	H 	0.0858	0.6806	0.18123	0.062
Mof_H 	H 	0.9111	0.5566	0.15563	0.074
Mof_H 	H 	0.1174	0.8442	0.24613	0.114
Mof_H 	H 	0.3007	0.9129	0.27083	0.038
Mof_H 	H 	0.459	0.869	0.27403	0.124
Mof_H 	H 	0.357	0.794	0.29223	0.114
Mof_H 	H 	0.5818	0.1997	0.15653	0.102
Mof_H 	H 	0.5493	0.2464	0.18813	0.107
Mof_H 	H 	0.4397	0.0204	0.13533	0.104
Mof_H 	H 	0.2499	0.8677	0.13333	-0.004
Mof_H 	H 	0.1037	0.8818	0.15853	0.088
Mof_H 	H 	0.145	0.0477	0.18733	-0.002
Mof_H 	H 	0.3341	0.2009	0.18993	0.113
Mof_H 	H 	0.4099	0.8994	0.21193	0.097
Mof_H 	H 	0.347	0.9738	0.21563	0.102
Mof_H 	H 	0.4396	0.1536	0.24713	0.096
Mof_H 	H 	0.6128	0.3133	0.26353	0.019
Mof_H 	H 	0.7812	0.3016	0.26603	0.078
Mof_H 	H 	0.7759	0.1301	0.25283	0.014
Mof_H 	H 	0.6037	0.9724	0.23363	0.089
Mof_H 	H 	0.708	0.531	0.04653	0.131
Mof_H 	H 	0.6271	0.527	0.07073	0.129
Mof_H 	H 	0.4774	0.4284	0.04273	0.05
Mof_H 	H 	0.3852	0.275	0.00193	0.141
Mof_H 	H 	0.2099	0.0999	0.00363	0.074
Mof_H 	H 	0.5099	0.0998	0.00383	0.073
Mof_H 	H 	0.6498	0.5117	0.99283	0.102
Mof_H 	H 	0.5149	0.4561	0.98523	0.105
Mof_H 	H 	0.749	0.7134	0.98903	0.105
Mof_H 	H 	0.7595	0.8935	0.99363	0.003
Mof_H 	H 	0.6037	0.9051	0.01343	0.074
Mof_H 	H 	0.4354	0.7383	0.02913	0.006
Mof_H 	H 	0.4243	0.5585	0.02553	0.106
Mof_H 	H 	0.7756	0.251	0.44167	0.126
Mof_H 	H 	0.661	0.1413	0.43927	0.136
Mof_H 	H 	0.6441	0.136	0.48867	0.054
Mof_H 	H 	0.538	0.184	0.52777	0.142
Mof_H 	H 	0.4199	0.1578	0.56567	0.075
Mof_H 	H 	0.2936	0.2065	0.59077	0.058
Mof_H 	H 	0.3194	0.4052	0.51457	0.062
Mof_H 	H 	0.4434	0.3545	0.48897	0.074
Mof_H 	H 	0.1558	0.2732	0.57947	0.115
Mof_H 	H 	0.0871	0.3878	0.60417	0.038
Mof_H 	H 	0.131	0.59	0.60737	0.124
Mof_H 	H 	0.206	0.563	0.62557	0.114
Mof_H 	H 	0.8003	0.3821	0.48987	0.102
Mof_H 	H 	0.7536	0.3029	0.52147	0.107
Mof_H 	H 	0.9796	0.4193	0.46867	0.104
Mof_H 	H 	0.1323	0.3822	0.46667	-0.004
Mof_H 	H 	0.1182	0.2219	0.49187	0.088
Mof_H 	H 	0.9523	0.0973	0.52067	-0.002
Mof_H 	H 	0.7991	0.1332	0.52327	0.113
Mof_H 	H 	0.1006	0.5105	0.54527	0.097
Mof_H 	H 	0.0262	0.3732	0.54897	0.102
Mof_H 	H 	0.8464	0.286	0.58047	0.096
Mof_H 	H 	0.6867	0.2995	0.59687	0.019
Mof_H 	H 	0.6984	0.4796	0.59937	0.078
Mof_H 	H 	0.8699	0.6458	0.58617	0.014
Mof_H 	H 	0.0276	0.6313	0.56697	0.089
Mof_H 	H 	0.469	0.177	0.37987	0.131
Mof_H 	H 	0.473	0.1001	0.40407	0.129
Mof_H 	H 	0.5716	0.049	0.37607	0.05
Mof_H 	H 	0.725	0.1102	0.33527	0.141
Mof_H 	H 	0.9001	0.11	0.33697	0.074
Mof_H 	H 	0.9002	0.4101	0.33717	0.074
Mof_H 	H 	0.4883	0.1381	0.32617	0.102
Mof_H 	H 	0.5439	0.0588	0.31857	0.105
Mof_H 	H 	0.2866	0.0356	0.32237	0.103
Mof_H 	H 	0.1065	0.866	0.32697	0.004
Mof_H 	H 	0.0949	0.6986	0.34677	0.074
Mof_H 	H 	0.2617	0.6971	0.36247	0.006
Mof_H 	H 	0.4415	0.8658	0.35887	0.107
Mof_C 	C 	0.33	0.5446	0.18708	-0.023
Mof_C 	C 	0.4282	0.6701	0.18386	0.221
Mof_C 	C 	0.5561	0.8073	0.14178	0.121
Mof_C 	C 	0.6008	0.8087	0.1116	-0.096
Mof_C 	C 	0.6757	0.9127	0.09663	-0.072
Mof_C 	C 	0.7056	0.0157	0.11182	0.103
Mof_C 	C 	0.6608	0.015	0.14173	-0.076
Mof_C 	C 	0.5865	0.9109	0.15687	-0.089
Mof_C 	C 	0.7668	0.2103	0.09214	0.211
Mof_C 	C 	0.8681	0.3207	0.078	-0.017
Mof_C 	C 	0.2247	0.5288	0.16814	-0.239
Mof_C 	C 	0.1258	0.4063	0.17019	0.171
Mof_C 	C 	0.0265	0.3803	0.18726	-0.209
Mof_C 	C 	0.9361	0.2673	0.18852	0.101
Mof_C 	C 	0.9441	0.1809	0.17357	-0.168
Mof_C 	C 	0.0424	0.2052	0.15659	0.095
Mof_C 	C 	0.133	0.3175	0.15499	-0.204
Mof_C 	C 	0.9457	0.3928	0.10608	-0.237
Mof_C 	C 	0.0474	0.5043	0.09501	0.147
Mof_C 	C 	0.1489	0.5082	0.08566	-0.175
Mof_C 	C 	0.2437	0.611	0.07559	0.063
Mof_C 	C 	0.2366	0.7108	0.07404	-0.133
Mof_C 	C 	0.1358	0.7081	0.08229	0.068
Mof_C 	C 	0.0412	0.6048	0.09334	-0.175
Mof_C 	C 	0.42975	0.54655	0.30029	-0.03
Mof_C 	C 	0.3041	0.516	0.30559	0.215
Mof_C 	C 	0.1189	0.37	0.32896	0.122
Mof_C 	C 	0.0594	0.2513	0.33115	-0.085
Mof_C 	C 	0.0595	0.428	0.3311	-0.083
Mof_C 	C 	0.5003	0.5757	0.3319	-0.223
Mof_C 	C 	0.6171	0.5853	0.32699	0.156
Mof_C 	C 	0.7176	0.6848	0.33616	-0.182
Mof_C 	C 	0.8252	0.6911	0.3334	0.074
Mof_C 	C 	0.832	0.5991	0.32164	-0.144
Mof_C 	C 	0.7331	0.4992	0.31222	0.073
Mof_C 	C 	0.6261	0.4924	0.31462	-0.18
Mof_C 	C 	0.2146	0.67	0.85375	-0.023
Mof_C 	C 	0.2419	0.5718	0.85053	0.221
Mof_C 	C 	0.2512	0.4439	0.80845	0.122
Mof_C 	C 	0.2079	0.3992	0.77827	-0.096
Mof_C 	C 	0.237	0.3243	0.7633	-0.073
Mof_C 	C 	0.3101	0.2944	0.77849	0.104
Mof_C 	C 	0.3542	0.3392	0.8084	-0.074
Mof_C 	C 	0.3244	0.4135	0.82354	-0.091
Mof_C 	C 	0.4435	0.2332	0.75881	0.211
Mof_C 	C 	0.4526	0.1319	0.74467	-0.017
Mof_C 	C 	0.3041	0.7753	0.83481	-0.239
Mof_C 	C 	0.2805	0.8742	0.83686	0.171
Mof_C 	C 	0.3538	0.9735	0.85393	-0.209
Mof_C 	C 	0.3312	0.0639	0.85519	0.101
Mof_C 	C 	0.2368	0.0559	0.84024	-0.167
Mof_C 	C 	0.1628	0.9576	0.82326	0.095
Mof_C 	C 	0.1845	0.867	0.82166	-0.204
Mof_C 	C 	0.4471	0.0543	0.77275	-0.237
Mof_C 	C 	0.4569	0.9526	0.76168	0.147
Mof_C 	C 	0.3593	0.8511	0.75233	-0.175
Mof_C 	C 	0.3673	0.7563	0.74226	0.063
Mof_C 	C 	0.4742	0.7634	0.74071	-0.133
Mof_C 	C 	0.5723	0.8642	0.74896	0.068
Mof_C 	C 	0.5636	0.9588	0.76001	-0.175
Mof_C 	C 	0.1168	0.57025	0.96696	-0.029
Mof_C 	C 	0.2119	0.6959	0.97226	0.214
Mof_C 	C 	0.2511	0.8811	0.99563	0.122
Mof_C 	C 	0.1919	0.9406	0.99782	-0.085
Mof_C 	C 	0.3685	0.9405	0.99777	-0.084
Mof_C 	C 	0.0754	0.4997	0.99857	-0.224
Mof_C 	C 	0.9682	0.3829	0.99366	0.156
Mof_C 	C 	0.9672	0.2824	0.00283	-0.178
Mof_C 	C 	0.8659	0.1748	7e-05	0.072
Mof_C 	C 	0.7671	0.168	0.98831	-0.142
Mof_C 	C 	0.7661	0.2669	0.97889	0.072
Mof_C 	C 	0.8663	0.3739	0.98129	-0.179
Mof_C 	C 	0.4554	0.7854	0.52041	-0.023
Mof_C 	C 	0.3299	0.7581	0.51719	0.221
Mof_C 	C 	0.1927	0.7488	0.47511	0.121
Mof_C 	C 	0.1913	0.7921	0.44493	-0.096
Mof_C 	C 	0.0873	0.763	0.42996	-0.072
Mof_C 	C 	0.9843	0.6899	0.44515	0.103
Mof_C 	C 	0.985	0.6458	0.47506	-0.076
Mof_C 	C 	0.0891	0.6756	0.4902	-0.089
Mof_C 	C 	0.7897	0.5565	0.42547	0.211
Mof_C 	C 	0.6793	0.5474	0.41133	-0.017
Mof_C 	C 	0.4712	0.6959	0.50147	-0.239
Mof_C 	C 	0.5937	0.7195	0.50352	0.171
Mof_C 	C 	0.6197	0.6462	0.52059	-0.208
Mof_C 	C 	0.7327	0.6688	0.52185	0.1
Mof_C 	C 	0.8191	0.7632	0.5069	-0.169
Mof_C 	C 	0.7948	0.8372	0.48992	0.097
Mof_C 	C 	0.6825	0.8155	0.48832	-0.205
Mof_C 	C 	0.6072	0.5529	0.43941	-0.238
Mof_C 	C 	0.4957	0.5431	0.42834	0.147
Mof_C 	C 	0.4918	0.6407	0.41899	-0.175
Mof_C 	C 	0.389	0.6327	0.40892	0.062
Mof_C 	C 	0.2892	0.5258	0.40737	-0.132
Mof_C 	C 	0.2919	0.4277	0.41562	0.067
Mof_C 	C 	0.3952	0.4364	0.42667	-0.172
Mof_C 	C 	0.45345	0.8832	0.63362	-0.029
Mof_C 	C 	0.484	0.7881	0.63892	0.214
Mof_C 	C 	0.63	0.7489	0.66229	0.122
Mof_C 	C 	0.7487	0.8081	0.66448	-0.085
Mof_C 	C 	0.572	0.6315	0.66443	-0.084
Mof_C 	C 	0.4243	0.9246	0.66523	-0.224
Mof_C 	C 	0.4147	0.0318	0.66032	0.156
Mof_C 	C 	0.3152	0.0328	0.66949	-0.179
Mof_C 	C 	0.3089	0.1341	0.66673	0.072
Mof_C 	C 	0.4009	0.2329	0.65497	-0.143
Mof_C 	C 	0.5008	0.2339	0.64555	0.072
Mof_C 	C 	0.5076	0.1337	0.64795	-0.18
Mof_C 	C 	0.7854	0.4554	0.81292	-0.023
Mof_C 	C 	0.7581	0.3299	0.81614	0.221
Mof_C 	C 	0.7488	0.1927	0.85822	0.121
Mof_C 	C 	0.7921	0.1913	0.8884	-0.096
Mof_C 	C 	0.763	0.0873	0.90337	-0.072
Mof_C 	C 	0.6899	0.9843	0.88818	0.103
Mof_C 	C 	0.6458	0.985	0.85827	-0.076
Mof_C 	C 	0.6756	0.0891	0.84313	-0.089
Mof_C 	C 	0.5565	0.7897	0.90786	0.211
Mof_C 	C 	0.5474	0.6793	0.922	-0.017
Mof_C 	C 	0.6959	0.4712	0.83186	-0.239
Mof_C 	C 	0.7195	0.5937	0.82981	0.171
Mof_C 	C 	0.6462	0.6197	0.81274	-0.208
Mof_C 	C 	0.6688	0.7327	0.81148	0.1
Mof_C 	C 	0.7632	0.8191	0.82643	-0.169
Mof_C 	C 	0.8372	0.7948	0.84341	0.097
Mof_C 	C 	0.8155	0.6825	0.84501	-0.205
Mof_C 	C 	0.5529	0.6072	0.89392	-0.238
Mof_C 	C 	0.5431	0.4957	0.90499	0.147
Mof_C 	C 	0.6407	0.4918	0.91434	-0.175
Mof_C 	C 	0.6327	0.389	0.92441	0.062
Mof_C 	C 	0.5258	0.2892	0.92596	-0.132
Mof_C 	C 	0.4277	0.2919	0.91771	0.067
Mof_C 	C 	0.4364	0.3952	0.90666	-0.172
Mof_C 	C 	0.8832	0.45345	0.69971	-0.029
Mof_C 	C 	0.7881	0.484	0.69441	0.214
Mof_C 	C 	0.7489	0.63	0.67104	0.122
Mof_C 	C 	0.8081	0.7487	0.66885	-0.085
Mof_C 	C 	0.6315	0.572	0.6689	-0.084
Mof_C 	C 	0.9246	0.4243	0.6681	-0.224
Mof_C 	C 	0.0318	0.4147	0.67301	0.156
Mof_C 	C 	0.0328	0.3152	0.66384	-0.179
Mof_C 	C 	0.1341	0.3089	0.6666	0.072
Mof_C 	C 	0.2329	0.4009	0.67836	-0.143
Mof_C 	C 	0.2339	0.5008	0.68778	0.072
Mof_C 	C 	0.1337	0.5076	0.68538	-0.18
Mof_C 	C 	0.5446	0.33	0.14625	-0.023
Mof_C 	C 	0.6701	0.4282	0.14947	0.221
Mof_C 	C 	0.8073	0.5561	0.19155	0.121
Mof_C 	C 	0.8087	0.6008	0.22173	-0.096
Mof_C 	C 	0.9127	0.6757	0.2367	-0.072
Mof_C 	C 	0.0157	0.7056	0.22151	0.103
Mof_C 	C 	0.015	0.6608	0.1916	-0.076
Mof_C 	C 	0.9109	0.5865	0.17646	-0.089
Mof_C 	C 	0.2103	0.7668	0.24119	0.211
Mof_C 	C 	0.3207	0.8681	0.25533	-0.017
Mof_C 	C 	0.5288	0.2247	0.16519	-0.239
Mof_C 	C 	0.4063	0.1258	0.16314	0.171
Mof_C 	C 	0.3803	0.0265	0.14607	-0.209
Mof_C 	C 	0.2673	0.9361	0.14481	0.101
Mof_C 	C 	0.1809	0.9441	0.15976	-0.168
Mof_C 	C 	0.2052	0.0424	0.17674	0.095
Mof_C 	C 	0.3175	0.133	0.17834	-0.204
Mof_C 	C 	0.3928	0.9457	0.22725	-0.237
Mof_C 	C 	0.5043	0.0474	0.23832	0.147
Mof_C 	C 	0.5082	0.1489	0.24767	-0.175
Mof_C 	C 	0.611	0.2437	0.25774	0.063
Mof_C 	C 	0.7108	0.2366	0.25929	-0.133
Mof_C 	C 	0.7081	0.1358	0.25104	0.068
Mof_C 	C 	0.6048	0.0412	0.23999	-0.175
Mof_C 	C 	0.54655	0.42975	0.03304	-0.03
Mof_C 	C 	0.516	0.3041	0.02774	0.215
Mof_C 	C 	0.37	0.1189	0.00437	0.122
Mof_C 	C 	0.2513	0.0594	0.00218	-0.085
Mof_C 	C 	0.428	0.0595	0.00223	-0.083
Mof_C 	C 	0.5757	0.5003	0.00143	-0.223
Mof_C 	C 	0.5853	0.6171	0.00634	0.156
Mof_C 	C 	0.6848	0.7176	0.99717	-0.182
Mof_C 	C 	0.6911	0.8252	0.99993	0.074
Mof_C 	C 	0.5991	0.832	0.01169	-0.144
Mof_C 	C 	0.4992	0.7331	0.02111	0.073
Mof_C 	C 	0.4924	0.6261	0.01871	-0.18
Mof_C 	C 	0.67	0.2146	0.47959	-0.023
Mof_C 	C 	0.5718	0.2419	0.48281	0.221
Mof_C 	C 	0.4439	0.2512	0.52489	0.122
Mof_C 	C 	0.3992	0.2079	0.55507	-0.096
Mof_C 	C 	0.3243	0.237	0.57004	-0.073
Mof_C 	C 	0.2944	0.3101	0.55485	0.104
Mof_C 	C 	0.3392	0.3542	0.52494	-0.074
Mof_C 	C 	0.4135	0.3244	0.5098	-0.091
Mof_C 	C 	0.2332	0.4435	0.57453	0.211
Mof_C 	C 	0.1319	0.4526	0.58867	-0.017
Mof_C 	C 	0.7753	0.3041	0.49853	-0.239
Mof_C 	C 	0.8742	0.2805	0.49648	0.171
Mof_C 	C 	0.9735	0.3538	0.47941	-0.209
Mof_C 	C 	0.0639	0.3312	0.47815	0.101
Mof_C 	C 	0.0559	0.2368	0.4931	-0.167
Mof_C 	C 	0.9576	0.1628	0.51008	0.095
Mof_C 	C 	0.867	0.1845	0.51168	-0.204
Mof_C 	C 	0.0543	0.4471	0.56059	-0.237
Mof_C 	C 	0.9526	0.4569	0.57166	0.147
Mof_C 	C 	0.8511	0.3593	0.58101	-0.175
Mof_C 	C 	0.7563	0.3673	0.59108	0.063
Mof_C 	C 	0.7634	0.4742	0.59263	-0.133
Mof_C 	C 	0.8642	0.5723	0.58438	0.068
Mof_C 	C 	0.9588	0.5636	0.57333	-0.175
Mof_C 	C 	0.57025	0.1168	0.36638	-0.029
Mof_C 	C 	0.6959	0.2119	0.36108	0.214
Mof_C 	C 	0.8811	0.2511	0.33771	0.122
Mof_C 	C 	0.9406	0.1919	0.33552	-0.086
Mof_C 	C 	0.9405	0.3685	0.33557	-0.084
Mof_C 	C 	0.4997	0.0754	0.33477	-0.224
Mof_C 	C 	0.3829	0.9682	0.33968	0.156
Mof_C 	C 	0.2824	0.9672	0.33051	-0.179
Mof_C 	C 	0.1748	0.8659	0.33327	0.072
Mof_C 	C 	0.168	0.7671	0.34503	-0.143
Mof_C 	C 	0.2669	0.7661	0.35445	0.072
Mof_C 	C 	0.3739	0.8663	0.35205	-0.18
Mof_N 	N 	0.30106	0.51732	0.22164	-0.352
Mof_N 	N 	0.4765	0.6976	0.15477	-0.234
Mof_N 	N 	0.785	0.12155	0.0961	-0.226
Mof_N 	N 	0.81903	0.38323	0.0612	-0.347
Mof_N 	N 	0.48419	0.64177	0.27649	-0.352
Mof_N 	N 	0.24107	0.42504	0.32464	-0.232
Mof_N 	N 	0.21626	0.69894	0.88831	-0.352
Mof_N 	N 	0.2211	0.5235	0.82144	-0.234
Mof_N 	N 	0.33655	0.215	0.76277	-0.226
Mof_N 	N 	0.5642	0.18097	0.72787	-0.347
Mof_N 	N 	0.15758	0.51581	0.94316	-0.352
Mof_N 	N 	0.18397	0.75893	0.99131	-0.232
Mof_N 	N 	0.48268	0.78374	0.55497	-0.352
Mof_N 	N 	0.3024	0.7789	0.4881	-0.234
Mof_N 	N 	0.87845	0.66345	0.42943	-0.226
Mof_N 	N 	0.61677	0.4358	0.39453	-0.347
Mof_N 	N 	0.35823	0.84242	0.60982	-0.352
Mof_N 	N 	0.57496	0.81603	0.65797	-0.232
Mof_N 	N 	0.78374	0.48268	0.77836	-0.352
Mof_N 	N 	0.7789	0.3024	0.84523	-0.234
Mof_N 	N 	0.66345	0.87845	0.9039	-0.226
Mof_N 	N 	0.4358	0.61677	0.9388	-0.347
Mof_N 	N 	0.84242	0.35823	0.72351	-0.352
Mof_N 	N 	0.81603	0.57496	0.67536	-0.232
Mof_N 	N 	0.51732	0.30106	0.11169	-0.352
Mof_N 	N 	0.6976	0.4765	0.17856	-0.234
Mof_N 	N 	0.12155	0.785	0.23723	-0.226
Mof_N 	N 	0.38323	0.81903	0.27213	-0.347
Mof_N 	N 	0.64177	0.48419	0.05684	-0.352
Mof_N 	N 	0.42504	0.24107	0.00869	-0.232
Mof_N 	N 	0.69894	0.21626	0.44503	-0.352
Mof_N 	N 	0.5235	0.2211	0.5119	-0.234
Mof_N 	N 	0.215	0.33655	0.57057	-0.226
Mof_N 	N 	0.18097	0.5642	0.60547	-0.347
Mof_N 	N 	0.51581	0.15758	0.39018	-0.352
Mof_N 	N 	0.75893	0.18397	0.34203	-0.232
Mof_O 	O 	0.45584	0.73975	0.20684	-0.393
Mof_O 	O 	0.67698	0.2088	0.10021	-0.369
Mof_O 	O 	0.26279	0.56847	0.29155	-0.39
Mof_O 	O 	0.28391	0.54416	0.87351	-0.393
Mof_O 	O 	0.53182	0.32302	0.76688	-0.369
Mof_O 	O 	0.30568	0.73721	0.95822	-0.39
Mof_O 	O 	0.26025	0.71609	0.54017	-0.393
Mof_O 	O 	0.7912	0.46818	0.43354	-0.369
Mof_O 	O 	0.43153	0.69432	0.62488	-0.39
Mof_O 	O 	0.71609	0.26025	0.79316	-0.393
Mof_O 	O 	0.46818	0.7912	0.89979	-0.369
Mof_O 	O 	0.69432	0.43153	0.70845	-0.39
Mof_O 	O 	0.73975	0.45584	0.12649	-0.393
Mof_O 	O 	0.2088	0.67698	0.23312	-0.369
Mof_O 	O 	0.56847	0.26279	0.04178	-0.39
Mof_O 	O 	0.54416	0.28391	0.45983	-0.393
Mof_O 	O 	0.32302	0.53182	0.56646	-0.369
Mof_O 	O 	0.73721	0.30568	0.37512	-0.39
Mof_Br	Br	0.34661	0.25782	0.35244	-0.314
Mof_Br	Br	0.48156	0.41794	0.22953	-0.316
Mof_Br	Br	0.91121	0.65339	0.0191	-0.313
Mof_Br	Br	0.93638	0.51844	0.8962	-0.316
Mof_Br	Br	0.74218	0.08879	0.68577	-0.313
Mof_Br	Br	0.58206	0.06362	0.56287	-0.316
Mof_Br	Br	0.08879	0.74218	0.64756	-0.313
Mof_Br	Br	0.06362	0.58206	0.77047	-0.316
Mof_Br	Br	0.25782	0.34661	0.9809	-0.314
Mof_Br	Br	0.41794	0.48156	0.1038	-0.316
Mof_Br	Br	0.65339	0.91121	0.31423	-0.313
Mof_Br	Br	0.51844	0.93638	0.43713	-0.316
_end
