data_functionalizedCrystal
_audit_creation_method	'EQeq! by Chris Wilmer'
_symmetry_space_group_name_H-M	'P1'
_symmetry_Int_Tables_number	1
_symmetry_cell_setting	triclinic
loop_
_symmetry_equiv_pos_as_xyz
  x,y,z
_cell_length_a	29.347
_cell_length_b	29.347
_cell_length_c	21.287
_cell_angle_alpha	90
_cell_angle_beta	90
_cell_angle_gamma	120
loop_
_atom_site_label
_atom_site_type_symbol
_atom_site_fract_x
_atom_site_fract_y
_atom_site_fract_z
_atom_site_charge
Mof_O 	O 	0.43218	0.71219	0.99194	-0.403
Mof_O 	O 	0.39639	0.62596	0.97687	-0.419
Mof_C 	C 	0.43289	0.67015	0.99388	0.369
Mof_C 	C 	0.48273	0.67218	0.017	-0.09
Mof_C 	C 	0.5209	0.7118	0.0516	-0.011
Mof_H 	H 	0.5156	0.7389	0.0653	0.037
Mof_C 	C 	0.5672	0.7131	0.0671	-0.036
Mof_H 	H 	0.5934	0.7421	0.0884	0.036
Mof_C 	C 	0.5399	0.6342	0.0088	-0.055
Mof_H 	H 	0.5481	0.6102	0.9914	0.043
Mof_C 	C 	0.4945	0.6319	0.9924	-0.007
Mof_H 	H 	0.4708	0.6054	0.9659	0.031
Mof_C 	C 	0.57502	0.67191	0.0513	0.009
Mof_C 	C 	0.62332	0.66988	0.0681	0.083
Mof_C 	C 	0.62188	0.62181	0.0685	-0.13
Mof_H 	H 	0.5908	0.5911	0.0588	0.067
Mof_C 	C 	0.7123	0.5668	0.074	-0.137
Mof_H 	H 	0.7441	0.5976	0.067	0.071
Mof_C 	C 	0.7109	0.5193	0.0751	0.094
Mof_H 	H 	0.7422	0.5192	0.0698	-0.006
Mof_C 	C 	0.5294	0.7181	0.0259	0.003
Mof_H 	H 	0.5308	0.7501	0.0191	0.026
Mof_C 	C 	0.575	0.7179	0.045	-0.029
Mof_H 	H 	0.6056	0.7495	0.0534	0.031
Mof_C 	C 	0.5237	0.623	0.0494	-0.03
Mof_H 	H 	0.521	0.591	0.0601	0.032
Mof_C 	C 	0.4796	0.6255	0.0316	-0.004
Mof_H 	H 	0.4471	0.5947	0.0296	0.036
Mof_C 	C 	0.6425	0.5334	0.039	-0.021
Mof_H 	H 	0.6253	0.5397	0.0065	0.033
Mof_C 	C 	0.643	0.4845	0.042	-0.023
Mof_H 	H 	0.6251	0.4596	0.0107	0.042
Mof_O 	O 	0.09885	0.04552	0.32527	-0.404
Mof_O 	O 	0.06306	0.95929	0.3102	-0.416
Mof_C 	C 	0.09956	0.00348	0.32721	0.364
Mof_C 	C 	0.1494	0.00551	0.35033	-0.095
Mof_C 	C 	0.18757	0.04513	0.38493	-0.011
Mof_H 	H 	0.18227	0.07223	0.39863	0.035
Mof_C 	C 	0.23387	0.04643	0.40043	-0.037
Mof_H 	H 	0.26007	0.07543	0.42173	0.034
Mof_C 	C 	0.20657	0.96753	0.34213	-0.055
Mof_H 	H 	0.21477	0.94353	0.32473	0.044
Mof_C 	C 	0.16117	0.96523	0.32573	-0.002
Mof_H 	H 	0.13747	0.93873	0.29923	0.03
Mof_C 	C 	0.24169	0.00524	0.38463	0.007
Mof_C 	C 	0.28999	0.00321	0.40143	0.074
Mof_C 	C 	0.28855	0.95514	0.40183	-0.115
Mof_H 	H 	0.25747	0.92443	0.39213	0.063
Mof_C 	C 	0.37897	0.90013	0.40733	-0.14
Mof_H 	H 	0.41077	0.93093	0.40033	0.073
Mof_C 	C 	0.37757	0.85263	0.40843	0.097
Mof_H 	H 	0.40887	0.85253	0.40313	-0.007
Mof_C 	C 	0.19607	0.05143	0.35923	0.003
Mof_H 	H 	0.19747	0.08343	0.35243	0.026
Mof_C 	C 	0.24167	0.05123	0.37833	-0.03
Mof_H 	H 	0.27227	0.08283	0.38673	0.031
Mof_C 	C 	0.19037	0.95633	0.38273	-0.027
Mof_H 	H 	0.18767	0.92433	0.39343	0.032
Mof_C 	C 	0.14627	0.95883	0.36493	-0.003
Mof_H 	H 	0.11377	0.92803	0.36293	0.036
Mof_C 	C 	0.30917	0.86673	0.37233	-0.024
Mof_H 	H 	0.29197	0.87303	0.33983	0.034
Mof_C 	C 	0.30967	0.81783	0.37533	-0.023
Mof_H 	H 	0.29177	0.79293	0.34403	0.042
Mof_O 	O 	0.76551	0.37886	0.65861	-0.404
Mof_O 	O 	0.72972	0.29263	0.64354	-0.42
Mof_C 	C 	0.76622	0.33682	0.66055	0.368
Mof_C 	C 	0.81606	0.33885	0.68367	-0.091
Mof_C 	C 	0.85423	0.37847	0.71827	-0.012
Mof_H 	H 	0.84893	0.40557	0.73197	0.036
Mof_C 	C 	0.90053	0.37977	0.73377	-0.037
Mof_H 	H 	0.92673	0.40877	0.75507	0.035
Mof_C 	C 	0.87323	0.30087	0.67547	-0.055
Mof_H 	H 	0.88143	0.27687	0.65807	0.043
Mof_C 	C 	0.82783	0.29857	0.65907	-0.007
Mof_H 	H 	0.80413	0.27207	0.63257	0.031
Mof_C 	C 	0.90835	0.33858	0.71797	0.009
Mof_C 	C 	0.95665	0.33655	0.73477	0.086
Mof_C 	C 	0.95521	0.28848	0.73517	-0.124
Mof_H 	H 	0.92413	0.25777	0.72547	0.066
Mof_C 	C 	0.04563	0.23347	0.74067	-0.136
Mof_H 	H 	0.07743	0.26427	0.73367	0.07
Mof_C 	C 	0.04423	0.18597	0.74177	0.093
Mof_H 	H 	0.07553	0.18587	0.73647	-0.006
Mof_C 	C 	0.86273	0.38477	0.69257	0.003
Mof_H 	H 	0.86413	0.41677	0.68577	0.026
Mof_C 	C 	0.90833	0.38457	0.71167	-0.029
Mof_H 	H 	0.93893	0.41617	0.72007	0.032
Mof_C 	C 	0.85703	0.28967	0.71607	-0.031
Mof_H 	H 	0.85433	0.25767	0.72677	0.032
Mof_C 	C 	0.81293	0.29217	0.69827	-0.003
Mof_H 	H 	0.78043	0.26137	0.69627	0.036
Mof_C 	C 	0.97583	0.20007	0.70567	-0.017
Mof_H 	H 	0.95863	0.20637	0.67317	0.033
Mof_C 	C 	0.97633	0.15117	0.70867	-0.019
Mof_H 	H 	0.95843	0.12627	0.67737	0.041
Mof_O 	O 	0.28781	0.71999	0.99194	-0.404
Mof_O 	O 	0.37404	0.77043	0.97687	-0.42
Mof_C 	C 	0.32985	0.76274	0.99388	0.368
Mof_C 	C 	0.32782	0.81055	0.017	-0.09
Mof_C 	C 	0.2882	0.8091	0.0516	-0.013
Mof_H 	H 	0.2611	0.7767	0.0653	0.036
Mof_C 	C 	0.2869	0.8541	0.0671	-0.036
Mof_H 	H 	0.2579	0.8513	0.0884	0.034
Mof_C 	C 	0.3658	0.9057	0.0088	-0.054
Mof_H 	H 	0.3898	0.9379	0.9914	0.043
Mof_C 	C 	0.3681	0.8626	0.9924	-0.008
Mof_H 	H 	0.3946	0.8654	0.9659	0.032
Mof_C 	C 	0.32809	0.90311	0.0513	0.004
Mof_C 	C 	0.33012	0.95344	0.0681	0.096
Mof_C 	C 	0.37819	7e-05	0.0685	-0.155
Mof_H 	H 	0.4089	0.9997	0.0588	0.079
Mof_C 	C 	0.4332	0.1455	0.074	-0.133
Mof_H 	H 	0.4024	0.1465	0.067	0.069
Mof_C 	C 	0.4807	0.1916	0.0751	0.092
Mof_H 	H 	0.4808	0.223	0.0698	-0.006
Mof_C 	C 	0.2819	0.8113	0.0259	0.003
Mof_H 	H 	0.2499	0.7807	0.0191	0.026
Mof_C 	C 	0.2821	0.8571	0.045	-0.027
Mof_H 	H 	0.2505	0.8561	0.0534	0.03
Mof_C 	C 	0.377	0.9007	0.0494	-0.029
Mof_H 	H 	0.409	0.93	0.0601	0.032
Mof_C 	C 	0.3745	0.8541	0.0316	-0.004
Mof_H 	H 	0.4053	0.8524	0.0296	0.036
Mof_C 	C 	0.4666	0.1091	0.039	-0.019
Mof_H 	H 	0.4603	0.0856	0.0065	0.032
Mof_C 	C 	0.5155	0.1585	0.042	-0.023
Mof_H 	H 	0.5404	0.1655	0.0107	0.042
Mof_O 	O 	0.95448	0.05332	0.32527	-0.405
Mof_O 	O 	0.04071	0.10376	0.3102	-0.424
Mof_C 	C 	0.99652	0.09607	0.32721	0.373
Mof_C 	C 	0.99449	0.14388	0.35033	-0.087
Mof_C 	C 	0.95487	0.14243	0.38493	-0.012
Mof_H 	H 	0.92777	0.11003	0.39863	0.036
Mof_C 	C 	0.95357	0.18743	0.40043	-0.037
Mof_H 	H 	0.92457	0.18463	0.42173	0.035
Mof_C 	C 	0.03247	0.23903	0.34213	-0.054
Mof_H 	H 	0.05647	0.27123	0.32473	0.042
Mof_C 	C 	0.03477	0.19593	0.32573	-0.012
Mof_H 	H 	0.06127	0.19873	0.29923	0.032
Mof_C 	C 	0.99476	0.23644	0.38463	0.011
Mof_C 	C 	0.99679	0.28677	0.40143	0.093
Mof_C 	C 	0.04486	0.3334	0.40183	-0.145
Mof_H 	H 	0.07557	0.33303	0.39213	0.072
Mof_C 	C 	0.09987	0.47883	0.40733	-0.133
Mof_H 	H 	0.06907	0.47983	0.40033	0.068
Mof_C 	C 	0.14737	0.52493	0.40843	0.092
Mof_H 	H 	0.14747	0.55633	0.40313	-0.006
Mof_C 	C 	0.94857	0.14463	0.35923	0.003
Mof_H 	H 	0.91657	0.11403	0.35243	0.026
Mof_C 	C 	0.94877	0.19043	0.37833	-0.028
Mof_H 	H 	0.91717	0.18943	0.38673	0.031
Mof_C 	C 	0.04367	0.23403	0.38273	-0.035
Mof_H 	H 	0.07567	0.26333	0.39343	0.033
Mof_C 	C 	0.04117	0.18743	0.36493	-0.004
Mof_H 	H 	0.07197	0.18573	0.36293	0.035
Mof_C 	C 	0.13327	0.44243	0.37233	-0.019
Mof_H 	H 	0.12697	0.41893	0.33983	0.032
Mof_C 	C 	0.18217	0.49183	0.37533	-0.023
Mof_H 	H 	0.20707	0.49883	0.34403	0.042
Mof_O 	O 	0.62114	0.38666	0.65861	-0.404
Mof_O 	O 	0.70737	0.4371	0.64354	-0.42
Mof_C 	C 	0.66318	0.42941	0.66055	0.368
Mof_C 	C 	0.66115	0.47722	0.68367	-0.091
Mof_C 	C 	0.62153	0.47577	0.71827	-0.012
Mof_H 	H 	0.59443	0.44337	0.73197	0.036
Mof_C 	C 	0.62023	0.52077	0.73377	-0.037
Mof_H 	H 	0.59123	0.51797	0.75507	0.035
Mof_C 	C 	0.69913	0.57237	0.67547	-0.055
Mof_H 	H 	0.72313	0.60457	0.65807	0.043
Mof_C 	C 	0.70143	0.52927	0.65907	-0.007
Mof_H 	H 	0.72793	0.53207	0.63257	0.031
Mof_C 	C 	0.66142	0.56978	0.71797	0.009
Mof_C 	C 	0.66345	0.62011	0.73477	0.083
Mof_C 	C 	0.71152	0.66674	0.73517	-0.13
Mof_H 	H 	0.74223	0.66637	0.72547	0.067
Mof_C 	C 	0.76653	0.81217	0.74067	-0.137
Mof_H 	H 	0.73573	0.81317	0.73367	0.071
Mof_C 	C 	0.81403	0.85827	0.74177	0.094
Mof_H 	H 	0.81413	0.88967	0.73647	-0.006
Mof_C 	C 	0.61523	0.47797	0.69257	0.003
Mof_H 	H 	0.58323	0.44737	0.68577	0.026
Mof_C 	C 	0.61543	0.52377	0.71167	-0.029
Mof_H 	H 	0.58383	0.52277	0.72007	0.031
Mof_C 	C 	0.71033	0.56737	0.71607	-0.031
Mof_H 	H 	0.74233	0.59667	0.72677	0.032
Mof_C 	C 	0.70783	0.52077	0.69827	-0.003
Mof_H 	H 	0.73863	0.51907	0.69627	0.036
Mof_C 	C 	0.79993	0.77577	0.70567	-0.021
Mof_H 	H 	0.79363	0.75227	0.67317	0.033
Mof_C 	C 	0.84883	0.82517	0.70867	-0.023
Mof_H 	H 	0.87373	0.83217	0.67737	0.042
Mof_O 	O 	0.28001	0.56782	0.99194	-0.404
Mof_O 	O 	0.22957	0.60361	0.97687	-0.42
Mof_C 	C 	0.23726	0.56711	0.99388	0.369
Mof_C 	C 	0.18945	0.51727	0.017	-0.092
Mof_C 	C 	0.1909	0.4791	0.0516	-0.011
Mof_H 	H 	0.2233	0.4844	0.0653	0.036
Mof_C 	C 	0.1459	0.4328	0.0671	-0.038
Mof_H 	H 	0.1487	0.4066	0.0884	0.035
Mof_C 	C 	0.0943	0.4601	0.0088	-0.056
Mof_H 	H 	0.0621	0.4519	0.9914	0.043
Mof_C 	C 	0.1374	0.5055	0.9924	-0.007
Mof_H 	H 	0.1346	0.5292	0.9659	0.031
Mof_C 	C 	0.09689	0.42498	0.0513	0.014
Mof_C 	C 	0.04656	0.37668	0.0681	0.07
Mof_C 	C 	0.99993	0.37812	0.0685	-0.104
Mof_H 	H 	0.0003	0.4092	0.0588	0.055
Mof_C 	C 	0.8545	0.2877	0.074	-0.14
Mof_H 	H 	0.8535	0.2559	0.067	0.072
Mof_C 	C 	0.8084	0.2891	0.0751	0.097
Mof_H 	H 	0.777	0.2578	0.0698	-0.007
Mof_C 	C 	0.1887	0.4706	0.0259	0.004
Mof_H 	H 	0.2193	0.4692	0.0191	0.026
Mof_C 	C 	0.1429	0.425	0.045	-0.03
Mof_H 	H 	0.1439	0.3944	0.0534	0.031
Mof_C 	C 	0.0993	0.4763	0.0494	-0.032
Mof_H 	H 	0.07	0.479	0.0601	0.032
Mof_C 	C 	0.1459	0.5204	0.0316	-0.002
Mof_H 	H 	0.1476	0.5529	0.0296	0.035
Mof_C 	C 	0.8909	0.3575	0.039	-0.024
Mof_H 	H 	0.9144	0.3747	0.0065	0.035
Mof_C 	C 	0.8415	0.357	0.042	-0.022
Mof_H 	H 	0.8345	0.3749	0.0107	0.042
Mof_O 	O 	0.94668	0.90115	0.32527	-0.4
Mof_O 	O 	0.89624	0.93694	0.3102	-0.417
Mof_C 	C 	0.90393	0.90044	0.32721	0.368
Mof_C 	C 	0.85612	0.8506	0.35033	-0.09
Mof_C 	C 	0.85757	0.81243	0.38493	-0.013
Mof_H 	H 	0.88997	0.81773	0.39863	0.037
Mof_C 	C 	0.81257	0.76613	0.40043	-0.037
Mof_H 	H 	0.81537	0.73993	0.42173	0.035
Mof_C 	C 	0.76097	0.79343	0.34213	-0.055
Mof_H 	H 	0.72877	0.78523	0.32473	0.043
Mof_C 	C 	0.80407	0.83883	0.32573	-0.008
Mof_H 	H 	0.80127	0.86253	0.29923	0.031
Mof_C 	C 	0.76356	0.75831	0.38463	0.009
Mof_C 	C 	0.71323	0.71001	0.40143	0.083
Mof_C 	C 	0.6666	0.71145	0.40183	-0.13
Mof_H 	H 	0.66697	0.74253	0.39213	0.067
Mof_C 	C 	0.52117	0.62103	0.40733	-0.137
Mof_H 	H 	0.52017	0.58923	0.40033	0.07
Mof_C 	C 	0.47507	0.62243	0.40843	0.094
Mof_H 	H 	0.44367	0.59113	0.40313	-0.006
Mof_C 	C 	0.85537	0.80393	0.35923	0.003
Mof_H 	H 	0.88597	0.80253	0.35243	0.026
Mof_C 	C 	0.80957	0.75833	0.37833	-0.028
Mof_H 	H 	0.81057	0.72773	0.38673	0.031
Mof_C 	C 	0.76597	0.80963	0.38273	-0.03
Mof_H 	H 	0.73667	0.81233	0.39343	0.032
Mof_C 	C 	0.81257	0.85373	0.36493	-0.003
Mof_H 	H 	0.81427	0.88623	0.36293	0.036
Mof_C 	C 	0.55757	0.69083	0.37233	-0.021
Mof_H 	H 	0.58107	0.70803	0.33983	0.033
Mof_C 	C 	0.50817	0.69033	0.37533	-0.023
Mof_H 	H 	0.50117	0.70823	0.34403	0.042
Mof_O 	O 	0.61334	0.23449	0.65861	-0.404
Mof_O 	O 	0.5629	0.27028	0.64354	-0.42
Mof_C 	C 	0.57059	0.23378	0.66055	0.368
Mof_C 	C 	0.52278	0.18394	0.68367	-0.091
Mof_C 	C 	0.52423	0.14577	0.71827	-0.012
Mof_H 	H 	0.55663	0.15107	0.73197	0.036
Mof_C 	C 	0.47923	0.09947	0.73377	-0.037
Mof_H 	H 	0.48203	0.07327	0.75507	0.034
Mof_C 	C 	0.42763	0.12677	0.67547	-0.055
Mof_H 	H 	0.39543	0.11857	0.65807	0.043
Mof_C 	C 	0.47073	0.17217	0.65907	-0.007
Mof_H 	H 	0.46793	0.19587	0.63257	0.031
Mof_C 	C 	0.43022	0.09165	0.71797	0.008
Mof_C 	C 	0.37989	0.04335	0.73477	0.082
Mof_C 	C 	0.33326	0.04479	0.73517	-0.129
Mof_H 	H 	0.33363	0.07587	0.72547	0.067
Mof_C 	C 	0.18783	0.95437	0.74067	-0.133
Mof_H 	H 	0.18683	0.92257	0.73367	0.07
Mof_C 	C 	0.14173	0.95577	0.74177	0.095
Mof_H 	H 	0.11033	0.92447	0.73647	-0.006
Mof_C 	C 	0.52203	0.13727	0.69257	0.003
Mof_H 	H 	0.55263	0.13587	0.68577	0.026
Mof_C 	C 	0.47623	0.09167	0.71167	-0.029
Mof_H 	H 	0.47723	0.06107	0.72007	0.03
Mof_C 	C 	0.43263	0.14297	0.71607	-0.031
Mof_H 	H 	0.40333	0.14567	0.72677	0.032
Mof_C 	C 	0.47923	0.18707	0.69827	-0.003
Mof_H 	H 	0.48093	0.21957	0.69627	0.036
Mof_C 	C 	0.22423	0.02417	0.70567	-0.021
Mof_H 	H 	0.24773	0.04137	0.67317	0.032
Mof_C 	C 	0.17483	0.02367	0.70867	-0.024
Mof_H 	H 	0.16783	0.04157	0.67737	0.041
Mof_O 	O 	0.71219	0.43218	0.50806	-0.404
Mof_O 	O 	0.62596	0.39639	0.52313	-0.42
Mof_C 	C 	0.67015	0.43289	0.50612	0.368
Mof_C 	C 	0.67218	0.48273	0.483	-0.091
Mof_C 	C 	0.7118	0.5209	0.4484	-0.012
Mof_H 	H 	0.7389	0.5156	0.4347	0.036
Mof_C 	C 	0.7131	0.5672	0.4329	-0.037
Mof_H 	H 	0.7421	0.5934	0.4116	0.035
Mof_C 	C 	0.6342	0.5399	0.4912	-0.055
Mof_H 	H 	0.6102	0.5481	0.5086	0.043
Mof_C 	C 	0.6319	0.4945	0.5076	-0.007
Mof_H 	H 	0.6054	0.4708	0.5341	0.031
Mof_C 	C 	0.67191	0.57502	0.4487	0.009
Mof_C 	C 	0.66988	0.62332	0.4319	0.083
Mof_C 	C 	0.62181	0.62188	0.4315	-0.13
Mof_H 	H 	0.5911	0.5908	0.4412	0.067
Mof_C 	C 	0.5668	0.7123	0.426	-0.137
Mof_H 	H 	0.5976	0.7441	0.433	0.071
Mof_C 	C 	0.5193	0.7109	0.4249	0.094
Mof_H 	H 	0.5192	0.7422	0.4302	-0.006
Mof_C 	C 	0.7181	0.5294	0.4741	0.003
Mof_H 	H 	0.7501	0.5308	0.4809	0.026
Mof_C 	C 	0.7179	0.575	0.455	-0.029
Mof_H 	H 	0.7495	0.6056	0.4466	0.031
Mof_C 	C 	0.623	0.5237	0.4506	-0.031
Mof_H 	H 	0.591	0.521	0.4399	0.032
Mof_C 	C 	0.6255	0.4796	0.4684	-0.003
Mof_H 	H 	0.5947	0.4471	0.4704	0.036
Mof_C 	C 	0.5334	0.6425	0.461	-0.021
Mof_H 	H 	0.5397	0.6253	0.4935	0.033
Mof_C 	C 	0.4845	0.643	0.458	-0.023
Mof_H 	H 	0.4596	0.6251	0.4893	0.042
Mof_O 	O 	0.37886	0.76551	0.84139	-0.404
Mof_O 	O 	0.29263	0.72972	0.85646	-0.42
Mof_C 	C 	0.33682	0.76622	0.83945	0.368
Mof_C 	C 	0.33885	0.81606	0.81633	-0.091
Mof_C 	C 	0.37847	0.85423	0.78173	-0.012
Mof_H 	H 	0.40557	0.84893	0.76803	0.036
Mof_C 	C 	0.37977	0.90053	0.76623	-0.037
Mof_H 	H 	0.40877	0.92673	0.74493	0.035
Mof_C 	C 	0.30087	0.87323	0.82453	-0.055
Mof_H 	H 	0.27687	0.88143	0.84193	0.043
Mof_C 	C 	0.29857	0.82783	0.84093	-0.007
Mof_H 	H 	0.27207	0.80413	0.86743	0.031
Mof_C 	C 	0.33858	0.90835	0.78203	0.009
Mof_C 	C 	0.33655	0.95665	0.76523	0.086
Mof_C 	C 	0.28848	0.95521	0.76483	-0.124
Mof_H 	H 	0.25777	0.92413	0.77453	0.066
Mof_C 	C 	0.23347	0.04563	0.75933	-0.136
Mof_H 	H 	0.26427	0.07743	0.76633	0.07
Mof_C 	C 	0.18597	0.04423	0.75823	0.093
Mof_H 	H 	0.18587	0.07553	0.76353	-0.006
Mof_C 	C 	0.38477	0.86273	0.80743	0.003
Mof_H 	H 	0.41677	0.86413	0.81423	0.026
Mof_C 	C 	0.38457	0.90833	0.78833	-0.029
Mof_H 	H 	0.41617	0.93893	0.77993	0.032
Mof_C 	C 	0.28967	0.85703	0.78393	-0.031
Mof_H 	H 	0.25767	0.85433	0.77323	0.032
Mof_C 	C 	0.29217	0.81293	0.80173	-0.003
Mof_H 	H 	0.26137	0.78043	0.80373	0.036
Mof_C 	C 	0.20007	0.97583	0.79433	-0.017
Mof_H 	H 	0.20637	0.95863	0.82683	0.033
Mof_C 	C 	0.15117	0.97633	0.79133	-0.019
Mof_H 	H 	0.12627	0.95843	0.82263	0.041
Mof_O 	O 	0.04552	0.09885	0.17473	-0.404
Mof_O 	O 	0.95929	0.06306	0.1898	-0.416
Mof_C 	C 	0.00348	0.09956	0.17279	0.364
Mof_C 	C 	0.00551	0.1494	0.14967	-0.095
Mof_C 	C 	0.04513	0.18757	0.11507	-0.011
Mof_H 	H 	0.07223	0.18227	0.10137	0.035
Mof_C 	C 	0.04643	0.23387	0.09957	-0.037
Mof_H 	H 	0.07543	0.26007	0.07827	0.034
Mof_C 	C 	0.96753	0.20657	0.15787	-0.055
Mof_H 	H 	0.94353	0.21477	0.17527	0.044
Mof_C 	C 	0.96523	0.16117	0.17427	-0.002
Mof_H 	H 	0.93873	0.13747	0.20077	0.03
Mof_C 	C 	0.00524	0.24169	0.11537	0.007
Mof_C 	C 	0.00321	0.28999	0.09857	0.074
Mof_C 	C 	0.95514	0.28855	0.09817	-0.114
Mof_H 	H 	0.92443	0.25747	0.10787	0.063
Mof_C 	C 	0.90013	0.37897	0.09267	-0.14
Mof_H 	H 	0.93093	0.41077	0.09967	0.073
Mof_C 	C 	0.85263	0.37757	0.09157	0.097
Mof_H 	H 	0.85253	0.40887	0.09687	-0.007
Mof_C 	C 	0.05143	0.19607	0.14077	0.003
Mof_H 	H 	0.08343	0.19747	0.14757	0.026
Mof_C 	C 	0.05123	0.24167	0.12167	-0.03
Mof_H 	H 	0.08283	0.27227	0.11327	0.031
Mof_C 	C 	0.95633	0.19037	0.11727	-0.027
Mof_H 	H 	0.92433	0.18767	0.10657	0.032
Mof_C 	C 	0.95883	0.14627	0.13507	-0.003
Mof_H 	H 	0.92803	0.11377	0.13707	0.036
Mof_C 	C 	0.86673	0.30917	0.12767	-0.024
Mof_H 	H 	0.87303	0.29197	0.16017	0.034
Mof_C 	C 	0.81783	0.30967	0.12467	-0.023
Mof_H 	H 	0.79293	0.29177	0.15597	0.042
Mof_O 	O 	0.71999	0.28781	0.50806	-0.404
Mof_O 	O 	0.77043	0.37404	0.52313	-0.42
Mof_C 	C 	0.76274	0.32985	0.50612	0.368
Mof_C 	C 	0.81055	0.32782	0.483	-0.09
Mof_C 	C 	0.8091	0.2882	0.4484	-0.013
Mof_H 	H 	0.7767	0.2611	0.4347	0.036
Mof_C 	C 	0.8541	0.2869	0.4329	-0.036
Mof_H 	H 	0.8513	0.2579	0.4116	0.034
Mof_C 	C 	0.9057	0.3658	0.4912	-0.054
Mof_H 	H 	0.9379	0.3898	0.5086	0.043
Mof_C 	C 	0.8626	0.3681	0.5076	-0.008
Mof_H 	H 	0.8654	0.3946	0.5341	0.032
Mof_C 	C 	0.90311	0.32809	0.4487	0.004
Mof_C 	C 	0.95344	0.33012	0.4319	0.097
Mof_C 	C 	7e-05	0.37819	0.4315	-0.156
Mof_H 	H 	0.9997	0.4089	0.4412	0.08
Mof_C 	C 	0.1455	0.4332	0.426	-0.133
Mof_H 	H 	0.1465	0.4024	0.433	0.069
Mof_C 	C 	0.1916	0.4807	0.4249	0.092
Mof_H 	H 	0.223	0.4808	0.4302	-0.006
Mof_C 	C 	0.8113	0.2819	0.4741	0.002
Mof_H 	H 	0.7807	0.2499	0.4809	0.026
Mof_C 	C 	0.8571	0.2821	0.455	-0.027
Mof_H 	H 	0.8561	0.2505	0.4466	0.03
Mof_C 	C 	0.9007	0.377	0.4506	-0.029
Mof_H 	H 	0.93	0.409	0.4399	0.032
Mof_C 	C 	0.8541	0.3745	0.4684	-0.004
Mof_H 	H 	0.8524	0.4053	0.4704	0.036
Mof_C 	C 	0.1091	0.4666	0.461	-0.019
Mof_H 	H 	0.0856	0.4603	0.4935	0.031
Mof_C 	C 	0.1585	0.5155	0.458	-0.023
Mof_H 	H 	0.1655	0.5404	0.4893	0.042
Mof_O 	O 	0.38666	0.62114	0.84139	-0.404
Mof_O 	O 	0.4371	0.70737	0.85646	-0.42
Mof_C 	C 	0.42941	0.66318	0.83945	0.368
Mof_C 	C 	0.47722	0.66115	0.81633	-0.091
Mof_C 	C 	0.47577	0.62153	0.78173	-0.012
Mof_H 	H 	0.44337	0.59443	0.76803	0.036
Mof_C 	C 	0.52077	0.62023	0.76623	-0.037
Mof_H 	H 	0.51797	0.59123	0.74493	0.035
Mof_C 	C 	0.57237	0.69913	0.82453	-0.055
Mof_H 	H 	0.60457	0.72313	0.84193	0.043
Mof_C 	C 	0.52927	0.70143	0.84093	-0.007
Mof_H 	H 	0.53207	0.72793	0.86743	0.031
Mof_C 	C 	0.56978	0.66142	0.78203	0.009
Mof_C 	C 	0.62011	0.66345	0.76523	0.083
Mof_C 	C 	0.66674	0.71152	0.76483	-0.13
Mof_H 	H 	0.66637	0.74223	0.77453	0.067
Mof_C 	C 	0.81217	0.76653	0.75933	-0.137
Mof_H 	H 	0.81317	0.73573	0.76633	0.071
Mof_C 	C 	0.85827	0.81403	0.75823	0.094
Mof_H 	H 	0.88967	0.81413	0.76353	-0.006
Mof_C 	C 	0.47797	0.61523	0.80743	0.003
Mof_H 	H 	0.44737	0.58323	0.81423	0.026
Mof_C 	C 	0.52377	0.61543	0.78833	-0.029
Mof_H 	H 	0.52277	0.58383	0.77993	0.031
Mof_C 	C 	0.56737	0.71033	0.78393	-0.031
Mof_H 	H 	0.59667	0.74233	0.77323	0.032
Mof_C 	C 	0.52077	0.70783	0.80173	-0.003
Mof_H 	H 	0.51907	0.73863	0.80373	0.036
Mof_C 	C 	0.77577	0.79993	0.79433	-0.021
Mof_H 	H 	0.75227	0.79363	0.82683	0.033
Mof_C 	C 	0.82517	0.84883	0.79133	-0.023
Mof_H 	H 	0.83217	0.87373	0.82263	0.042
Mof_O 	O 	0.05332	0.95448	0.17473	-0.405
Mof_O 	O 	0.10376	0.04071	0.1898	-0.424
Mof_C 	C 	0.09607	0.99652	0.17279	0.373
Mof_C 	C 	0.14388	0.99449	0.14967	-0.087
Mof_C 	C 	0.14243	0.95487	0.11507	-0.012
Mof_H 	H 	0.11003	0.92777	0.10137	0.036
Mof_C 	C 	0.18743	0.95357	0.09957	-0.037
Mof_H 	H 	0.18463	0.92457	0.07827	0.035
Mof_C 	C 	0.23903	0.03247	0.15787	-0.054
Mof_H 	H 	0.27123	0.05647	0.17527	0.042
Mof_C 	C 	0.19593	0.03477	0.17427	-0.012
Mof_H 	H 	0.19873	0.06127	0.20077	0.032
Mof_C 	C 	0.23644	0.99476	0.11537	0.011
Mof_C 	C 	0.28677	0.99679	0.09857	0.092
Mof_C 	C 	0.3334	0.04486	0.09817	-0.145
Mof_H 	H 	0.33303	0.07557	0.10787	0.072
Mof_C 	C 	0.47883	0.09987	0.09267	-0.133
Mof_H 	H 	0.47983	0.06907	0.09967	0.068
Mof_C 	C 	0.52493	0.14737	0.09157	0.092
Mof_H 	H 	0.55633	0.14747	0.09687	-0.006
Mof_C 	C 	0.14463	0.94857	0.14077	0.003
Mof_H 	H 	0.11403	0.91657	0.14757	0.026
Mof_C 	C 	0.19043	0.94877	0.12167	-0.028
Mof_H 	H 	0.18943	0.91717	0.11327	0.031
Mof_C 	C 	0.23403	0.04367	0.11727	-0.034
Mof_H 	H 	0.26333	0.07567	0.10657	0.033
Mof_C 	C 	0.18743	0.04117	0.13507	-0.004
Mof_H 	H 	0.18573	0.07197	0.13707	0.035
Mof_C 	C 	0.44243	0.13327	0.12767	-0.019
Mof_H 	H 	0.41893	0.12697	0.16017	0.032
Mof_C 	C 	0.49183	0.18217	0.12467	-0.023
Mof_H 	H 	0.49883	0.20707	0.15597	0.042
Mof_O 	O 	0.56782	0.28001	0.50806	-0.404
Mof_O 	O 	0.60361	0.22957	0.52313	-0.42
Mof_C 	C 	0.56711	0.23726	0.50612	0.369
Mof_C 	C 	0.51727	0.18945	0.483	-0.092
Mof_C 	C 	0.4791	0.1909	0.4484	-0.011
Mof_H 	H 	0.4844	0.2233	0.4347	0.036
Mof_C 	C 	0.4328	0.1459	0.4329	-0.038
Mof_H 	H 	0.4066	0.1487	0.4116	0.035
Mof_C 	C 	0.4601	0.0943	0.4912	-0.056
Mof_H 	H 	0.4519	0.0621	0.5086	0.043
Mof_C 	C 	0.5055	0.1374	0.5076	-0.007
Mof_H 	H 	0.5292	0.1346	0.5341	0.031
Mof_C 	C 	0.42498	0.09689	0.4487	0.014
Mof_C 	C 	0.37668	0.04656	0.4319	0.07
Mof_C 	C 	0.37812	0.99993	0.4315	-0.104
Mof_H 	H 	0.4092	0.0003	0.4412	0.055
Mof_C 	C 	0.2877	0.8545	0.426	-0.14
Mof_H 	H 	0.2559	0.8535	0.433	0.072
Mof_C 	C 	0.2891	0.8084	0.4249	0.097
Mof_H 	H 	0.2578	0.777	0.4302	-0.007
Mof_C 	C 	0.4706	0.1887	0.4741	0.004
Mof_H 	H 	0.4692	0.2193	0.4809	0.026
Mof_C 	C 	0.425	0.1429	0.455	-0.03
Mof_H 	H 	0.3944	0.1439	0.4466	0.031
Mof_C 	C 	0.4763	0.0993	0.4506	-0.032
Mof_H 	H 	0.479	0.07	0.4399	0.032
Mof_C 	C 	0.5204	0.1459	0.4684	-0.002
Mof_H 	H 	0.5529	0.1476	0.4704	0.035
Mof_C 	C 	0.3575	0.8909	0.461	-0.024
Mof_H 	H 	0.3747	0.9144	0.4935	0.035
Mof_C 	C 	0.357	0.8415	0.458	-0.022
Mof_H 	H 	0.3749	0.8345	0.4893	0.042
Mof_O 	O 	0.23449	0.61334	0.84139	-0.404
Mof_O 	O 	0.27028	0.5629	0.85646	-0.42
Mof_C 	C 	0.23378	0.57059	0.83945	0.368
Mof_C 	C 	0.18394	0.52278	0.81633	-0.091
Mof_C 	C 	0.14577	0.52423	0.78173	-0.012
Mof_H 	H 	0.15107	0.55663	0.76803	0.036
Mof_C 	C 	0.09947	0.47923	0.76623	-0.037
Mof_H 	H 	0.07327	0.48203	0.74493	0.034
Mof_C 	C 	0.12677	0.42763	0.82453	-0.055
Mof_H 	H 	0.11857	0.39543	0.84193	0.043
Mof_C 	C 	0.17217	0.47073	0.84093	-0.007
Mof_H 	H 	0.19587	0.46793	0.86743	0.031
Mof_C 	C 	0.09165	0.43022	0.78203	0.008
Mof_C 	C 	0.04335	0.37989	0.76523	0.082
Mof_C 	C 	0.04479	0.33326	0.76483	-0.129
Mof_H 	H 	0.07587	0.33363	0.77453	0.067
Mof_C 	C 	0.95437	0.18783	0.75933	-0.133
Mof_H 	H 	0.92257	0.18683	0.76633	0.07
Mof_C 	C 	0.95577	0.14173	0.75823	0.095
Mof_H 	H 	0.92447	0.11033	0.76353	-0.006
Mof_C 	C 	0.13727	0.52203	0.80743	0.003
Mof_H 	H 	0.13587	0.55263	0.81423	0.026
Mof_C 	C 	0.09167	0.47623	0.78833	-0.029
Mof_H 	H 	0.06107	0.47723	0.77993	0.03
Mof_C 	C 	0.14297	0.43263	0.78393	-0.031
Mof_H 	H 	0.14567	0.40333	0.77323	0.032
Mof_C 	C 	0.18707	0.47923	0.80173	-0.003
Mof_H 	H 	0.21957	0.48093	0.80373	0.036
Mof_C 	C 	0.02417	0.22423	0.79433	-0.021
Mof_H 	H 	0.04137	0.24773	0.82683	0.032
Mof_C 	C 	0.02367	0.17483	0.79133	-0.024
Mof_H 	H 	0.04157	0.16783	0.82263	0.041
Mof_O 	O 	0.90115	0.94668	0.17473	-0.4
Mof_O 	O 	0.93694	0.89624	0.1898	-0.417
Mof_C 	C 	0.90044	0.90393	0.17279	0.368
Mof_C 	C 	0.8506	0.85612	0.14967	-0.09
Mof_C 	C 	0.81243	0.85757	0.11507	-0.013
Mof_H 	H 	0.81773	0.88997	0.10137	0.037
Mof_C 	C 	0.76613	0.81257	0.09957	-0.037
Mof_H 	H 	0.73993	0.81537	0.07827	0.035
Mof_C 	C 	0.79343	0.76097	0.15787	-0.055
Mof_H 	H 	0.78523	0.72877	0.17527	0.043
Mof_C 	C 	0.83883	0.80407	0.17427	-0.008
Mof_H 	H 	0.86253	0.80127	0.20077	0.031
Mof_C 	C 	0.75831	0.76356	0.11537	0.009
Mof_C 	C 	0.71001	0.71323	0.09857	0.083
Mof_C 	C 	0.71145	0.6666	0.09817	-0.13
Mof_H 	H 	0.74253	0.66697	0.10787	0.067
Mof_C 	C 	0.62103	0.52117	0.09267	-0.137
Mof_H 	H 	0.58923	0.52017	0.09967	0.07
Mof_C 	C 	0.62243	0.47507	0.09157	0.094
Mof_H 	H 	0.59113	0.44367	0.09687	-0.006
Mof_C 	C 	0.80393	0.85537	0.14077	0.003
Mof_H 	H 	0.80253	0.88597	0.14757	0.026
Mof_C 	C 	0.75833	0.80957	0.12167	-0.028
Mof_H 	H 	0.72773	0.81057	0.11327	0.031
Mof_C 	C 	0.80963	0.76597	0.11727	-0.03
Mof_H 	H 	0.81233	0.73667	0.10657	0.032
Mof_C 	C 	0.85373	0.81257	0.13507	-0.003
Mof_H 	H 	0.88623	0.81427	0.13707	0.036
Mof_C 	C 	0.69083	0.55757	0.12767	-0.021
Mof_H 	H 	0.70803	0.58107	0.16017	0.033
Mof_C 	C 	0.69033	0.50817	0.12467	-0.023
Mof_H 	H 	0.70823	0.50117	0.15597	0.042
Mof_O 	O 	0.56782	0.28781	0.00806	-0.404
Mof_O 	O 	0.60361	0.37404	0.02313	-0.42
Mof_C 	C 	0.56711	0.32985	0.00612	0.369
Mof_C 	C 	0.51727	0.32782	0.983	-0.091
Mof_C 	C 	0.4791	0.2882	0.9484	-0.012
Mof_H 	H 	0.4844	0.2611	0.9347	0.036
Mof_C 	C 	0.4328	0.2869	0.9329	-0.037
Mof_H 	H 	0.4066	0.2579	0.9116	0.035
Mof_C 	C 	0.4601	0.3658	0.9912	-0.055
Mof_H 	H 	0.4519	0.3898	0.0086	0.043
Mof_C 	C 	0.5055	0.3681	0.0076	-0.008
Mof_H 	H 	0.5292	0.3946	0.0341	0.031
Mof_C 	C 	0.42498	0.32809	0.9487	0.009
Mof_C 	C 	0.37668	0.33012	0.9319	0.083
Mof_C 	C 	0.37812	0.37819	0.9315	-0.13
Mof_H 	H 	0.4092	0.4089	0.9412	0.067
Mof_C 	C 	0.2877	0.4332	0.926	-0.137
Mof_H 	H 	0.2559	0.4024	0.933	0.071
Mof_C 	C 	0.2891	0.4807	0.9249	0.094
Mof_H 	H 	0.2578	0.4808	0.9302	-0.006
Mof_C 	C 	0.4706	0.2819	0.9741	0.003
Mof_H 	H 	0.4692	0.2499	0.9809	0.026
Mof_C 	C 	0.425	0.2821	0.955	-0.029
Mof_H 	H 	0.3944	0.2505	0.9466	0.031
Mof_C 	C 	0.4763	0.377	0.9506	-0.031
Mof_H 	H 	0.479	0.409	0.9399	0.032
Mof_C 	C 	0.5204	0.3745	0.9684	-0.003
Mof_H 	H 	0.5529	0.4053	0.9704	0.036
Mof_C 	C 	0.3575	0.4666	0.961	-0.021
Mof_H 	H 	0.3747	0.4603	0.9935	0.033
Mof_C 	C 	0.357	0.5155	0.958	-0.023
Mof_H 	H 	0.3749	0.5404	0.9893	0.042
Mof_O 	O 	0.23449	0.62114	0.34139	-0.404
Mof_O 	O 	0.27028	0.70737	0.35646	-0.42
Mof_C 	C 	0.23378	0.66318	0.33945	0.368
Mof_C 	C 	0.18394	0.66115	0.31633	-0.091
Mof_C 	C 	0.14577	0.62153	0.28173	-0.012
Mof_H 	H 	0.15107	0.59443	0.26803	0.036
Mof_C 	C 	0.09947	0.62023	0.26623	-0.037
Mof_H 	H 	0.07327	0.59123	0.24493	0.034
Mof_C 	C 	0.12677	0.69913	0.32453	-0.055
Mof_H 	H 	0.11857	0.72313	0.34193	0.043
Mof_C 	C 	0.17217	0.70143	0.34093	-0.007
Mof_H 	H 	0.19587	0.72793	0.36743	0.031
Mof_C 	C 	0.09165	0.66142	0.28203	0.008
Mof_C 	C 	0.04335	0.66345	0.26523	0.082
Mof_C 	C 	0.04479	0.71152	0.26483	-0.129
Mof_H 	H 	0.07587	0.74223	0.27453	0.067
Mof_C 	C 	0.95437	0.76653	0.25933	-0.133
Mof_H 	H 	0.92257	0.73573	0.26633	0.07
Mof_C 	C 	0.95577	0.81403	0.25823	0.095
Mof_H 	H 	0.92447	0.81413	0.26353	-0.006
Mof_C 	C 	0.13727	0.61523	0.30743	0.003
Mof_H 	H 	0.13587	0.58323	0.31423	0.026
Mof_C 	C 	0.09167	0.61543	0.28833	-0.029
Mof_H 	H 	0.06107	0.58383	0.27993	0.03
Mof_C 	C 	0.14297	0.71033	0.28393	-0.031
Mof_H 	H 	0.14567	0.74233	0.27323	0.032
Mof_C 	C 	0.18707	0.70783	0.30173	-0.003
Mof_H 	H 	0.21957	0.73863	0.30373	0.036
Mof_C 	C 	0.02417	0.79993	0.29433	-0.02
Mof_H 	H 	0.04137	0.79363	0.32683	0.032
Mof_C 	C 	0.02367	0.84883	0.29133	-0.024
Mof_H 	H 	0.04157	0.87373	0.32263	0.042
Mof_O 	O 	0.90115	0.95448	0.67473	-0.403
Mof_O 	O 	0.93694	0.04071	0.6898	-0.422
Mof_C 	C 	0.90044	0.99652	0.67279	0.373
Mof_C 	C 	0.8506	0.99449	0.64967	-0.086
Mof_C 	C 	0.81243	0.95487	0.61507	-0.013
Mof_H 	H 	0.81773	0.92777	0.60137	0.037
Mof_C 	C 	0.76613	0.95357	0.59957	-0.037
Mof_H 	H 	0.73993	0.92457	0.57827	0.035
Mof_C 	C 	0.79343	0.03247	0.65787	-0.054
Mof_H 	H 	0.78523	0.05647	0.67527	0.042
Mof_C 	C 	0.83883	0.03477	0.67427	-0.013
Mof_H 	H 	0.86253	0.06127	0.70077	0.033
Mof_C 	C 	0.75831	0.99476	0.61537	0.011
Mof_C 	C 	0.71001	0.99679	0.59857	0.093
Mof_C 	C 	0.71145	0.04486	0.59817	-0.146
Mof_H 	H 	0.74253	0.07557	0.60787	0.072
Mof_C 	C 	0.62103	0.09987	0.59267	-0.133
Mof_H 	H 	0.58923	0.06907	0.59967	0.068
Mof_C 	C 	0.62243	0.14737	0.59157	0.092
Mof_H 	H 	0.59113	0.14747	0.59687	-0.006
Mof_C 	C 	0.80393	0.94857	0.64077	0.003
Mof_H 	H 	0.80253	0.91657	0.64757	0.026
Mof_C 	C 	0.75833	0.94877	0.62167	-0.028
Mof_H 	H 	0.72773	0.91717	0.61327	0.031
Mof_C 	C 	0.80963	0.04367	0.61727	-0.034
Mof_H 	H 	0.81233	0.07567	0.60657	0.033
Mof_C 	C 	0.85373	0.04117	0.63507	-0.004
Mof_H 	H 	0.88623	0.07197	0.63707	0.036
Mof_C 	C 	0.69083	0.13327	0.62767	-0.019
Mof_H 	H 	0.70803	0.12697	0.66017	0.032
Mof_C 	C 	0.69033	0.18217	0.62467	-0.023
Mof_H 	H 	0.70823	0.20707	0.65597	0.042
Mof_O 	O 	0.71219	0.28001	0.00806	-0.404
Mof_O 	O 	0.62596	0.22957	0.02313	-0.42
Mof_C 	C 	0.67015	0.23726	0.00612	0.369
Mof_C 	C 	0.67218	0.18945	0.983	-0.092
Mof_C 	C 	0.7118	0.1909	0.9484	-0.011
Mof_H 	H 	0.7389	0.2233	0.9347	0.036
Mof_C 	C 	0.7131	0.1459	0.9329	-0.039
Mof_H 	H 	0.7421	0.1487	0.9116	0.035
Mof_C 	C 	0.6342	0.0943	0.9912	-0.055
Mof_H 	H 	0.6102	0.0621	0.0086	0.043
Mof_C 	C 	0.6319	0.1374	0.0076	-0.007
Mof_H 	H 	0.6054	0.1346	0.0341	0.031
Mof_C 	C 	0.67191	0.09689	0.9487	0.014
Mof_C 	C 	0.66988	0.04656	0.9319	0.069
Mof_C 	C 	0.62181	0.99993	0.9315	-0.103
Mof_H 	H 	0.5911	0.0003	0.9412	0.054
Mof_C 	C 	0.5668	0.8545	0.926	-0.14
Mof_H 	H 	0.5976	0.8535	0.933	0.072
Mof_C 	C 	0.5193	0.8084	0.9249	0.096
Mof_H 	H 	0.5192	0.777	0.9302	-0.007
Mof_C 	C 	0.7181	0.1887	0.9741	0.004
Mof_H 	H 	0.7501	0.2193	0.9809	0.026
Mof_C 	C 	0.7179	0.1429	0.955	-0.03
Mof_H 	H 	0.7495	0.1439	0.9466	0.031
Mof_C 	C 	0.623	0.0993	0.9506	-0.034
Mof_H 	H 	0.591	0.07	0.9399	0.033
Mof_C 	C 	0.6255	0.1459	0.9684	-0.001
Mof_H 	H 	0.5947	0.1476	0.9704	0.035
Mof_C 	C 	0.5334	0.8909	0.961	-0.024
Mof_H 	H 	0.5397	0.9144	0.9935	0.035
Mof_C 	C 	0.4845	0.8415	0.958	-0.022
Mof_H 	H 	0.4596	0.8345	0.9893	0.042
Mof_O 	O 	0.37886	0.61334	0.34139	-0.404
Mof_O 	O 	0.29263	0.5629	0.35646	-0.42
Mof_C 	C 	0.33682	0.57059	0.33945	0.368
Mof_C 	C 	0.33885	0.52278	0.31633	-0.091
Mof_C 	C 	0.37847	0.52423	0.28173	-0.012
Mof_H 	H 	0.40557	0.55663	0.26803	0.036
Mof_C 	C 	0.37977	0.47923	0.26623	-0.037
Mof_H 	H 	0.40877	0.48203	0.24493	0.035
Mof_C 	C 	0.30087	0.42763	0.32453	-0.055
Mof_H 	H 	0.27687	0.39543	0.34193	0.043
Mof_C 	C 	0.29857	0.47073	0.34093	-0.007
Mof_H 	H 	0.27207	0.46793	0.36743	0.031
Mof_C 	C 	0.33858	0.43022	0.28203	0.009
Mof_C 	C 	0.33655	0.37989	0.26523	0.083
Mof_C 	C 	0.28848	0.33326	0.26483	-0.13
Mof_H 	H 	0.25777	0.33363	0.27453	0.067
Mof_C 	C 	0.23347	0.18783	0.25933	-0.137
Mof_H 	H 	0.26427	0.18683	0.26633	0.071
Mof_C 	C 	0.18597	0.14173	0.25823	0.094
Mof_H 	H 	0.18587	0.11033	0.26353	-0.007
Mof_C 	C 	0.38477	0.52203	0.30743	0.003
Mof_H 	H 	0.41677	0.55263	0.31423	0.026
Mof_C 	C 	0.38457	0.47623	0.28833	-0.029
Mof_H 	H 	0.41617	0.47723	0.27993	0.031
Mof_C 	C 	0.28967	0.43263	0.28393	-0.031
Mof_H 	H 	0.25767	0.40333	0.27323	0.032
Mof_C 	C 	0.29217	0.47923	0.30173	-0.003
Mof_H 	H 	0.26137	0.48093	0.30373	0.036
Mof_C 	C 	0.20007	0.22423	0.29433	-0.021
Mof_H 	H 	0.20637	0.24773	0.32683	0.033
Mof_C 	C 	0.15117	0.17483	0.29133	-0.023
Mof_H 	H 	0.12627	0.16783	0.32263	0.042
Mof_O 	O 	0.04552	0.94668	0.67473	-0.401
Mof_O 	O 	0.95929	0.89624	0.6898	-0.414
Mof_C 	C 	0.00348	0.90393	0.67279	0.363
Mof_C 	C 	0.00551	0.85612	0.64967	-0.095
Mof_C 	C 	0.04513	0.85757	0.61507	-0.012
Mof_H 	H 	0.07223	0.88997	0.60137	0.036
Mof_C 	C 	0.04643	0.81257	0.59957	-0.037
Mof_H 	H 	0.07543	0.81537	0.57827	0.035
Mof_C 	C 	0.96753	0.76097	0.65787	-0.055
Mof_H 	H 	0.94353	0.72877	0.67527	0.044
Mof_C 	C 	0.96523	0.80407	0.67427	-0.002
Mof_H 	H 	0.93873	0.80127	0.70077	0.03
Mof_C 	C 	0.00524	0.76356	0.61537	0.006
Mof_C 	C 	0.00321	0.71323	0.59857	0.073
Mof_C 	C 	0.95514	0.6666	0.59817	-0.114
Mof_H 	H 	0.92443	0.66697	0.60787	0.062
Mof_C 	C 	0.90013	0.52117	0.59267	-0.14
Mof_H 	H 	0.93093	0.52017	0.59967	0.073
Mof_C 	C 	0.85263	0.47507	0.59157	0.096
Mof_H 	H 	0.85253	0.44367	0.59687	-0.007
Mof_C 	C 	0.05143	0.85537	0.64077	0.003
Mof_H 	H 	0.08343	0.88597	0.64757	0.026
Mof_C 	C 	0.05123	0.80957	0.62167	-0.029
Mof_H 	H 	0.08283	0.81057	0.61327	0.031
Mof_C 	C 	0.95633	0.76597	0.61727	-0.026
Mof_H 	H 	0.92433	0.73667	0.60657	0.031
Mof_C 	C 	0.95883	0.81257	0.63507	-0.003
Mof_H 	H 	0.92803	0.81427	0.63707	0.036
Mof_C 	C 	0.86673	0.55757	0.62767	-0.024
Mof_H 	H 	0.87303	0.58107	0.66017	0.035
Mof_C 	C 	0.81783	0.50817	0.62467	-0.022
Mof_H 	H 	0.79293	0.50117	0.65597	0.042
Mof_O 	O 	0.71999	0.43218	0.00806	-0.404
Mof_O 	O 	0.77043	0.39639	0.02313	-0.42
Mof_C 	C 	0.76274	0.43289	0.00612	0.368
Mof_C 	C 	0.81055	0.48273	0.983	-0.09
Mof_C 	C 	0.8091	0.5209	0.9484	-0.013
Mof_H 	H 	0.7767	0.5156	0.9347	0.036
Mof_C 	C 	0.8541	0.5672	0.9329	-0.036
Mof_H 	H 	0.8513	0.5934	0.9116	0.034
Mof_C 	C 	0.9057	0.5399	0.9912	-0.053
Mof_H 	H 	0.9379	0.5481	0.0086	0.043
Mof_C 	C 	0.8626	0.4945	0.0076	-0.008
Mof_H 	H 	0.8654	0.4708	0.0341	0.032
Mof_C 	C 	0.90311	0.57502	0.9487	0.004
Mof_C 	C 	0.95344	0.62332	0.9319	0.097
Mof_C 	C 	7e-05	0.62188	0.9315	-0.156
Mof_H 	H 	0.9997	0.5908	0.9412	0.08
Mof_C 	C 	0.1455	0.7123	0.926	-0.133
Mof_H 	H 	0.1465	0.7441	0.933	0.069
Mof_C 	C 	0.1916	0.7109	0.9249	0.092
Mof_H 	H 	0.223	0.7422	0.9302	-0.006
Mof_C 	C 	0.8113	0.5294	0.9741	0.003
Mof_H 	H 	0.7807	0.5308	0.9809	0.026
Mof_C 	C 	0.8571	0.575	0.955	-0.027
Mof_H 	H 	0.8561	0.6056	0.9466	0.031
Mof_C 	C 	0.9007	0.5237	0.9506	-0.03
Mof_H 	H 	0.93	0.521	0.9399	0.032
Mof_C 	C 	0.8541	0.4796	0.9684	-0.003
Mof_H 	H 	0.8524	0.4471	0.9704	0.036
Mof_C 	C 	0.1091	0.6425	0.961	-0.019
Mof_H 	H 	0.0856	0.6253	0.9935	0.031
Mof_C 	C 	0.1585	0.643	0.958	-0.023
Mof_H 	H 	0.1655	0.6251	0.9893	0.042
Mof_O 	O 	0.38666	0.76551	0.34139	-0.404
Mof_O 	O 	0.4371	0.72972	0.35646	-0.42
Mof_C 	C 	0.42941	0.76622	0.33945	0.368
Mof_C 	C 	0.47722	0.81606	0.31633	-0.091
Mof_C 	C 	0.47577	0.85423	0.28173	-0.012
Mof_H 	H 	0.44337	0.84893	0.26803	0.036
Mof_C 	C 	0.52077	0.90053	0.26623	-0.037
Mof_H 	H 	0.51797	0.92673	0.24493	0.035
Mof_C 	C 	0.57237	0.87323	0.32453	-0.055
Mof_H 	H 	0.60457	0.88143	0.34193	0.043
Mof_C 	C 	0.52927	0.82783	0.34093	-0.007
Mof_H 	H 	0.53207	0.80413	0.36743	0.031
Mof_C 	C 	0.56978	0.90835	0.28203	0.009
Mof_C 	C 	0.62011	0.95665	0.26523	0.086
Mof_C 	C 	0.66674	0.95521	0.26483	-0.124
Mof_H 	H 	0.66637	0.92413	0.27453	0.066
Mof_C 	C 	0.81217	0.04563	0.25933	-0.136
Mof_H 	H 	0.81317	0.07743	0.26633	0.07
Mof_C 	C 	0.85827	0.04423	0.25823	0.093
Mof_H 	H 	0.88967	0.07553	0.26353	-0.006
Mof_C 	C 	0.47797	0.86273	0.30743	0.003
Mof_H 	H 	0.44737	0.86413	0.31423	0.026
Mof_C 	C 	0.52377	0.90833	0.28833	-0.029
Mof_H 	H 	0.52277	0.93893	0.27993	0.032
Mof_C 	C 	0.56737	0.85703	0.28393	-0.031
Mof_H 	H 	0.59667	0.85433	0.27323	0.032
Mof_C 	C 	0.52077	0.81293	0.30173	-0.003
Mof_H 	H 	0.51907	0.78043	0.30373	0.036
Mof_C 	C 	0.77577	0.97583	0.29433	-0.017
Mof_H 	H 	0.75227	0.95863	0.32683	0.033
Mof_C 	C 	0.82517	0.97633	0.29133	-0.019
Mof_H 	H 	0.83217	0.95843	0.32263	0.041
Mof_O 	O 	0.05332	0.09885	0.67473	-0.405
Mof_O 	O 	0.10376	0.06306	0.6898	-0.421
Mof_C 	C 	0.09607	0.09956	0.67279	0.369
Mof_C 	C 	0.14388	0.1494	0.64967	-0.091
Mof_C 	C 	0.14243	0.18757	0.61507	-0.012
Mof_H 	H 	0.11003	0.18227	0.60137	0.035
Mof_C 	C 	0.18743	0.23387	0.59957	-0.037
Mof_H 	H 	0.18463	0.26007	0.57827	0.034
Mof_C 	C 	0.23903	0.20657	0.65787	-0.055
Mof_H 	H 	0.27123	0.21477	0.67527	0.043
Mof_C 	C 	0.19593	0.16117	0.67427	-0.007
Mof_H 	H 	0.19873	0.13747	0.70077	0.031
Mof_C 	C 	0.23644	0.24169	0.61537	0.009
Mof_C 	C 	0.28677	0.28999	0.59857	0.083
Mof_C 	C 	0.3334	0.28855	0.59817	-0.13
Mof_H 	H 	0.33303	0.25747	0.60787	0.067
Mof_C 	C 	0.47883	0.37897	0.59267	-0.137
Mof_H 	H 	0.47983	0.41077	0.59967	0.071
Mof_C 	C 	0.52493	0.37757	0.59157	0.094
Mof_H 	H 	0.55633	0.40887	0.59687	-0.006
Mof_C 	C 	0.14463	0.19607	0.64077	0.003
Mof_H 	H 	0.11403	0.19747	0.64757	0.026
Mof_C 	C 	0.19043	0.24167	0.62167	-0.029
Mof_H 	H 	0.18943	0.27227	0.61327	0.031
Mof_C 	C 	0.23403	0.19037	0.61727	-0.031
Mof_H 	H 	0.26333	0.18767	0.60657	0.032
Mof_C 	C 	0.18743	0.14627	0.63507	-0.003
Mof_H 	H 	0.18573	0.11377	0.63707	0.036
Mof_C 	C 	0.44243	0.30917	0.62767	-0.021
Mof_H 	H 	0.41893	0.29197	0.66017	0.033
Mof_C 	C 	0.49183	0.30967	0.62467	-0.023
Mof_H 	H 	0.49883	0.29177	0.65597	0.042
Mof_O 	O 	0.28781	0.56782	0.49194	-0.404
Mof_O 	O 	0.37404	0.60361	0.47687	-0.42
Mof_C 	C 	0.32985	0.56711	0.49388	0.368
Mof_C 	C 	0.32782	0.51727	0.517	-0.091
Mof_C 	C 	0.2882	0.4791	0.5516	-0.012
Mof_H 	H 	0.2611	0.4844	0.5653	0.036
Mof_C 	C 	0.2869	0.4328	0.5671	-0.037
Mof_H 	H 	0.2579	0.4066	0.5884	0.035
Mof_C 	C 	0.3658	0.4601	0.5088	-0.055
Mof_H 	H 	0.3898	0.4519	0.4914	0.043
Mof_C 	C 	0.3681	0.5055	0.4924	-0.007
Mof_H 	H 	0.3946	0.5292	0.4659	0.031
Mof_C 	C 	0.32809	0.42498	0.5513	0.009
Mof_C 	C 	0.33012	0.37668	0.5681	0.083
Mof_C 	C 	0.37819	0.37812	0.5685	-0.13
Mof_H 	H 	0.4089	0.4092	0.5588	0.067
Mof_C 	C 	0.4332	0.2877	0.574	-0.137
Mof_H 	H 	0.4024	0.2559	0.567	0.071
Mof_C 	C 	0.4807	0.2891	0.5751	0.094
Mof_H 	H 	0.4808	0.2578	0.5698	-0.006
Mof_C 	C 	0.2819	0.4706	0.5259	0.003
Mof_H 	H 	0.2499	0.4692	0.5191	0.026
Mof_C 	C 	0.2821	0.425	0.545	-0.029
Mof_H 	H 	0.2505	0.3944	0.5534	0.031
Mof_C 	C 	0.377	0.4763	0.5494	-0.031
Mof_H 	H 	0.409	0.479	0.5601	0.032
Mof_C 	C 	0.3745	0.5204	0.5316	-0.003
Mof_H 	H 	0.4053	0.5529	0.5296	0.036
Mof_C 	C 	0.4666	0.3575	0.539	-0.021
Mof_H 	H 	0.4603	0.3747	0.5065	0.033
Mof_C 	C 	0.5155	0.357	0.542	-0.023
Mof_H 	H 	0.5404	0.3749	0.5107	0.042
Mof_O 	O 	0.95448	0.90115	0.82527	-0.403
Mof_O 	O 	0.04071	0.93694	0.8102	-0.422
Mof_C 	C 	0.99652	0.90044	0.82721	0.373
Mof_C 	C 	0.99449	0.8506	0.85033	-0.086
Mof_C 	C 	0.95487	0.81243	0.88493	-0.013
Mof_H 	H 	0.92777	0.81773	0.89863	0.037
Mof_C 	C 	0.95357	0.76613	0.90043	-0.037
Mof_H 	H 	0.92457	0.73993	0.92173	0.035
Mof_C 	C 	0.03247	0.79343	0.84213	-0.054
Mof_H 	H 	0.05647	0.78523	0.82473	0.042
Mof_C 	C 	0.03477	0.83883	0.82573	-0.012
Mof_H 	H 	0.06127	0.86253	0.79923	0.033
Mof_C 	C 	0.99476	0.75831	0.88463	0.011
Mof_C 	C 	0.99679	0.71001	0.90143	0.093
Mof_C 	C 	0.04486	0.71145	0.90183	-0.145
Mof_H 	H 	0.07557	0.74253	0.89213	0.072
Mof_C 	C 	0.09987	0.62103	0.90733	-0.133
Mof_H 	H 	0.06907	0.58923	0.90033	0.068
Mof_C 	C 	0.14737	0.62243	0.90843	0.092
Mof_H 	H 	0.14747	0.59113	0.90313	-0.006
Mof_C 	C 	0.94857	0.80393	0.85923	0.003
Mof_H 	H 	0.91657	0.80253	0.85243	0.026
Mof_C 	C 	0.94877	0.75833	0.87833	-0.028
Mof_H 	H 	0.91717	0.72773	0.88673	0.031
Mof_C 	C 	0.04367	0.80963	0.88273	-0.034
Mof_H 	H 	0.07567	0.81233	0.89343	0.033
Mof_C 	C 	0.04117	0.85373	0.86493	-0.004
Mof_H 	H 	0.07197	0.88623	0.86293	0.036
Mof_C 	C 	0.13327	0.69083	0.87233	-0.019
Mof_H 	H 	0.12697	0.70803	0.83983	0.032
Mof_C 	C 	0.18217	0.69033	0.87533	-0.023
Mof_H 	H 	0.20707	0.70823	0.84403	0.042
Mof_O 	O 	0.62114	0.23449	0.15861	-0.404
Mof_O 	O 	0.70737	0.27028	0.14354	-0.42
Mof_C 	C 	0.66318	0.23378	0.16055	0.368
Mof_C 	C 	0.66115	0.18394	0.18367	-0.091
Mof_C 	C 	0.62153	0.14577	0.21827	-0.012
Mof_H 	H 	0.59443	0.15107	0.23197	0.036
Mof_C 	C 	0.62023	0.09947	0.23377	-0.037
Mof_H 	H 	0.59123	0.07327	0.25507	0.034
Mof_C 	C 	0.69913	0.12677	0.17547	-0.055
Mof_H 	H 	0.72313	0.11857	0.15807	0.043
Mof_C 	C 	0.70143	0.17217	0.15907	-0.007
Mof_H 	H 	0.72793	0.19587	0.13257	0.031
Mof_C 	C 	0.66142	0.09165	0.21797	0.008
Mof_C 	C 	0.66345	0.04335	0.23477	0.082
Mof_C 	C 	0.71152	0.04479	0.23517	-0.129
Mof_H 	H 	0.74223	0.07587	0.22547	0.067
Mof_C 	C 	0.76653	0.95437	0.24067	-0.133
Mof_H 	H 	0.73573	0.92257	0.23367	0.07
Mof_C 	C 	0.81403	0.95577	0.24177	0.095
Mof_H 	H 	0.81413	0.92447	0.23647	-0.006
Mof_C 	C 	0.61523	0.13727	0.19257	0.003
Mof_H 	H 	0.58323	0.13587	0.18577	0.026
Mof_C 	C 	0.61543	0.09167	0.21167	-0.029
Mof_H 	H 	0.58383	0.06107	0.22007	0.03
Mof_C 	C 	0.71033	0.14297	0.21607	-0.031
Mof_H 	H 	0.74233	0.14567	0.22677	0.032
Mof_C 	C 	0.70783	0.18707	0.19827	-0.003
Mof_H 	H 	0.73863	0.21957	0.19627	0.036
Mof_C 	C 	0.79993	0.02417	0.20567	-0.02
Mof_H 	H 	0.79363	0.04137	0.17317	0.032
Mof_C 	C 	0.84883	0.02367	0.20867	-0.024
Mof_H 	H 	0.87373	0.04157	0.17737	0.042
Mof_O 	O 	0.28001	0.71219	0.49194	-0.404
Mof_O 	O 	0.22957	0.62596	0.47687	-0.42
Mof_C 	C 	0.23726	0.67015	0.49388	0.369
Mof_C 	C 	0.18945	0.67218	0.517	-0.092
Mof_C 	C 	0.1909	0.7118	0.5516	-0.011
Mof_H 	H 	0.2233	0.7389	0.5653	0.036
Mof_C 	C 	0.1459	0.7131	0.5671	-0.038
Mof_H 	H 	0.1487	0.7421	0.5884	0.035
Mof_C 	C 	0.0943	0.6342	0.5088	-0.056
Mof_H 	H 	0.0621	0.6102	0.4914	0.043
Mof_C 	C 	0.1374	0.6319	0.4924	-0.007
Mof_H 	H 	0.1346	0.6054	0.4659	0.031
Mof_C 	C 	0.09689	0.67191	0.5513	0.014
Mof_C 	C 	0.04656	0.66988	0.5681	0.069
Mof_C 	C 	0.99993	0.62181	0.5685	-0.103
Mof_H 	H 	0.0003	0.5911	0.5588	0.054
Mof_C 	C 	0.8545	0.5668	0.574	-0.14
Mof_H 	H 	0.8535	0.5976	0.567	0.072
Mof_C 	C 	0.8084	0.5193	0.5751	0.096
Mof_H 	H 	0.777	0.5192	0.5698	-0.007
Mof_C 	C 	0.1887	0.7181	0.5259	0.004
Mof_H 	H 	0.2193	0.7501	0.5191	0.026
Mof_C 	C 	0.1429	0.7179	0.545	-0.03
Mof_H 	H 	0.1439	0.7495	0.5534	0.032
Mof_C 	C 	0.0993	0.623	0.5494	-0.032
Mof_H 	H 	0.07	0.591	0.5601	0.032
Mof_C 	C 	0.1459	0.6255	0.5316	-0.002
Mof_H 	H 	0.1476	0.5947	0.5296	0.035
Mof_C 	C 	0.8909	0.5334	0.539	-0.024
Mof_H 	H 	0.9144	0.5397	0.5065	0.035
Mof_C 	C 	0.8415	0.4845	0.542	-0.022
Mof_H 	H 	0.8345	0.4596	0.5107	0.042
Mof_O 	O 	0.94668	0.04552	0.82527	-0.401
Mof_O 	O 	0.89624	0.95929	0.8102	-0.414
Mof_C 	C 	0.90393	0.00348	0.82721	0.363
Mof_C 	C 	0.85612	0.00551	0.85033	-0.095
Mof_C 	C 	0.85757	0.04513	0.88493	-0.012
Mof_H 	H 	0.88997	0.07223	0.89863	0.036
Mof_C 	C 	0.81257	0.04643	0.90043	-0.037
Mof_H 	H 	0.81537	0.07543	0.92173	0.034
Mof_C 	C 	0.76097	0.96753	0.84213	-0.055
Mof_H 	H 	0.72877	0.94353	0.82473	0.044
Mof_C 	C 	0.80407	0.96523	0.82573	-0.002
Mof_H 	H 	0.80127	0.93873	0.79923	0.03
Mof_C 	C 	0.76356	0.00524	0.88463	0.006
Mof_C 	C 	0.71323	0.00321	0.90143	0.073
Mof_C 	C 	0.6666	0.95514	0.90183	-0.114
Mof_H 	H 	0.66697	0.92443	0.89213	0.062
Mof_C 	C 	0.52117	0.90013	0.90733	-0.14
Mof_H 	H 	0.52017	0.93093	0.90033	0.073
Mof_C 	C 	0.47507	0.85263	0.90843	0.097
Mof_H 	H 	0.44367	0.85253	0.90313	-0.007
Mof_C 	C 	0.85537	0.05143	0.85923	0.003
Mof_H 	H 	0.88597	0.08343	0.85243	0.026
Mof_C 	C 	0.80957	0.05123	0.87833	-0.029
Mof_H 	H 	0.81057	0.08283	0.88673	0.031
Mof_C 	C 	0.76597	0.95633	0.88273	-0.027
Mof_H 	H 	0.73667	0.92433	0.89343	0.031
Mof_C 	C 	0.81257	0.95883	0.86493	-0.003
Mof_H 	H 	0.81427	0.92803	0.86293	0.036
Mof_C 	C 	0.55757	0.86673	0.87233	-0.024
Mof_H 	H 	0.58107	0.87303	0.83983	0.035
Mof_C 	C 	0.50817	0.81783	0.87533	-0.022
Mof_H 	H 	0.50117	0.79293	0.84403	0.042
Mof_O 	O 	0.61334	0.37886	0.15861	-0.404
Mof_O 	O 	0.5629	0.29263	0.14354	-0.42
Mof_C 	C 	0.57059	0.33682	0.16055	0.368
Mof_C 	C 	0.52278	0.33885	0.18367	-0.091
Mof_C 	C 	0.52423	0.37847	0.21827	-0.012
Mof_H 	H 	0.55663	0.40557	0.23197	0.036
Mof_C 	C 	0.47923	0.37977	0.23377	-0.037
Mof_H 	H 	0.48203	0.40877	0.25507	0.035
Mof_C 	C 	0.42763	0.30087	0.17547	-0.055
Mof_H 	H 	0.39543	0.27687	0.15807	0.043
Mof_C 	C 	0.47073	0.29857	0.15907	-0.007
Mof_H 	H 	0.46793	0.27207	0.13257	0.031
Mof_C 	C 	0.43022	0.33858	0.21797	0.009
Mof_C 	C 	0.37989	0.33655	0.23477	0.083
Mof_C 	C 	0.33326	0.28848	0.23517	-0.13
Mof_H 	H 	0.33363	0.25777	0.22547	0.067
Mof_C 	C 	0.18783	0.23347	0.24067	-0.137
Mof_H 	H 	0.18683	0.26427	0.23367	0.071
Mof_C 	C 	0.14173	0.18597	0.24177	0.094
Mof_H 	H 	0.11033	0.18587	0.23647	-0.007
Mof_C 	C 	0.52203	0.38477	0.19257	0.003
Mof_H 	H 	0.55263	0.41677	0.18577	0.026
Mof_C 	C 	0.47623	0.38457	0.21167	-0.029
Mof_H 	H 	0.47723	0.41617	0.22007	0.031
Mof_C 	C 	0.43263	0.28967	0.21607	-0.031
Mof_H 	H 	0.40333	0.25767	0.22677	0.032
Mof_C 	C 	0.47923	0.29217	0.19827	-0.003
Mof_H 	H 	0.48093	0.26137	0.19627	0.036
Mof_C 	C 	0.22423	0.20007	0.20567	-0.021
Mof_H 	H 	0.24773	0.20637	0.17317	0.033
Mof_C 	C 	0.17483	0.15117	0.20867	-0.023
Mof_H 	H 	0.16783	0.12627	0.17737	0.042
Mof_O 	O 	0.43218	0.71999	0.49194	-0.404
Mof_O 	O 	0.39639	0.77043	0.47687	-0.42
Mof_C 	C 	0.43289	0.76274	0.49388	0.368
Mof_C 	C 	0.48273	0.81055	0.517	-0.09
Mof_C 	C 	0.5209	0.8091	0.5516	-0.013
Mof_H 	H 	0.5156	0.7767	0.5653	0.036
Mof_C 	C 	0.5672	0.8541	0.5671	-0.036
Mof_H 	H 	0.5934	0.8513	0.5884	0.034
Mof_C 	C 	0.5399	0.9057	0.5088	-0.054
Mof_H 	H 	0.5481	0.9379	0.4914	0.043
Mof_C 	C 	0.4945	0.8626	0.4924	-0.008
Mof_H 	H 	0.4708	0.8654	0.4659	0.032
Mof_C 	C 	0.57502	0.90311	0.5513	0.004
Mof_C 	C 	0.62332	0.95344	0.5681	0.097
Mof_C 	C 	0.62188	7e-05	0.5685	-0.157
Mof_H 	H 	0.5908	0.9997	0.5588	0.08
Mof_C 	C 	0.7123	0.1455	0.574	-0.133
Mof_H 	H 	0.7441	0.1465	0.567	0.069
Mof_C 	C 	0.7109	0.1916	0.5751	0.092
Mof_H 	H 	0.7422	0.223	0.5698	-0.006
Mof_C 	C 	0.5294	0.8113	0.5259	0.002
Mof_H 	H 	0.5308	0.7807	0.5191	0.026
Mof_C 	C 	0.575	0.8571	0.545	-0.027
Mof_H 	H 	0.6056	0.8561	0.5534	0.031
Mof_C 	C 	0.5237	0.9007	0.5494	-0.029
Mof_H 	H 	0.521	0.93	0.5601	0.032
Mof_C 	C 	0.4796	0.8541	0.5316	-0.004
Mof_H 	H 	0.4471	0.8524	0.5296	0.036
Mof_C 	C 	0.6425	0.1091	0.539	-0.019
Mof_H 	H 	0.6253	0.0856	0.5065	0.031
Mof_C 	C 	0.643	0.1585	0.542	-0.023
Mof_H 	H 	0.6251	0.1655	0.5107	0.042
Mof_O 	O 	0.09885	0.05332	0.82527	-0.405
Mof_O 	O 	0.06306	0.10376	0.8102	-0.421
Mof_C 	C 	0.09956	0.09607	0.82721	0.369
Mof_C 	C 	0.1494	0.14388	0.85033	-0.091
Mof_C 	C 	0.18757	0.14243	0.88493	-0.012
Mof_H 	H 	0.18227	0.11003	0.89863	0.035
Mof_C 	C 	0.23387	0.18743	0.90043	-0.037
Mof_H 	H 	0.26007	0.18463	0.92173	0.034
Mof_C 	C 	0.20657	0.23903	0.84213	-0.055
Mof_H 	H 	0.21477	0.27123	0.82473	0.043
Mof_C 	C 	0.16117	0.19593	0.82573	-0.007
Mof_H 	H 	0.13747	0.19873	0.79923	0.031
Mof_C 	C 	0.24169	0.23644	0.88463	0.009
Mof_C 	C 	0.28999	0.28677	0.90143	0.083
Mof_C 	C 	0.28855	0.3334	0.90183	-0.13
Mof_H 	H 	0.25747	0.33303	0.89213	0.067
Mof_C 	C 	0.37897	0.47883	0.90733	-0.137
Mof_H 	H 	0.41077	0.47983	0.90033	0.07
Mof_C 	C 	0.37757	0.52493	0.90843	0.094
Mof_H 	H 	0.40887	0.55633	0.90313	-0.006
Mof_C 	C 	0.19607	0.14463	0.85923	0.003
Mof_H 	H 	0.19747	0.11403	0.85243	0.026
Mof_C 	C 	0.24167	0.19043	0.87833	-0.029
Mof_H 	H 	0.27227	0.18943	0.88673	0.031
Mof_C 	C 	0.19037	0.23403	0.88273	-0.031
Mof_H 	H 	0.18767	0.26333	0.89343	0.032
Mof_C 	C 	0.14627	0.18743	0.86493	-0.003
Mof_H 	H 	0.11377	0.18573	0.86293	0.036
Mof_C 	C 	0.30917	0.44243	0.87233	-0.021
Mof_H 	H 	0.29197	0.41893	0.83983	0.033
Mof_C 	C 	0.30967	0.49183	0.87533	-0.023
Mof_H 	H 	0.29177	0.49883	0.84403	0.042
Mof_O 	O 	0.76551	0.38666	0.15861	-0.404
Mof_O 	O 	0.72972	0.4371	0.14354	-0.42
Mof_C 	C 	0.76622	0.42941	0.16055	0.368
Mof_C 	C 	0.81606	0.47722	0.18367	-0.091
Mof_C 	C 	0.85423	0.47577	0.21827	-0.012
Mof_H 	H 	0.84893	0.44337	0.23197	0.036
Mof_C 	C 	0.90053	0.52077	0.23377	-0.037
Mof_H 	H 	0.92673	0.51797	0.25507	0.035
Mof_C 	C 	0.87323	0.57237	0.17547	-0.055
Mof_H 	H 	0.88143	0.60457	0.15807	0.043
Mof_C 	C 	0.82783	0.52927	0.15907	-0.007
Mof_H 	H 	0.80413	0.53207	0.13257	0.031
Mof_C 	C 	0.90835	0.56978	0.21797	0.009
Mof_C 	C 	0.95665	0.62011	0.23477	0.086
Mof_C 	C 	0.95521	0.66674	0.23517	-0.124
Mof_H 	H 	0.92413	0.66637	0.22547	0.066
Mof_C 	C 	0.04563	0.81217	0.24067	-0.136
Mof_H 	H 	0.07743	0.81317	0.23367	0.07
Mof_C 	C 	0.04423	0.85827	0.24177	0.093
Mof_H 	H 	0.07553	0.88967	0.23647	-0.006
Mof_C 	C 	0.86273	0.47797	0.19257	0.003
Mof_H 	H 	0.86413	0.44737	0.18577	0.026
Mof_C 	C 	0.90833	0.52377	0.21167	-0.029
Mof_H 	H 	0.93893	0.52277	0.22007	0.032
Mof_C 	C 	0.85703	0.56737	0.21607	-0.031
Mof_H 	H 	0.85433	0.59667	0.22677	0.032
Mof_C 	C 	0.81293	0.52077	0.19827	-0.003
Mof_H 	H 	0.78043	0.51907	0.19627	0.036
Mof_C 	C 	0.97583	0.77577	0.20567	-0.017
Mof_H 	H 	0.95863	0.75227	0.17317	0.033
Mof_C 	C 	0.97633	0.82517	0.20867	-0.019
Mof_H 	H 	0.95843	0.83217	0.17737	0.041
Mof_Ni	Ni	0.66667	0.402	0.08333	1.122
Mof_N 	N 	0.66667	0.47344	0.08333	-0.214
Mof_N 	N 	0.66667	0.71515	0.08333	-0.137
Mof_C 	C 	0.66667	0.61957	0.08333	0.044
Mof_C 	C 	0.66667	0.56916	0.08333	0.065
Mof_Ni	Ni	0.598	0.26467	0.08333	1.122
Mof_N 	N 	0.52656	0.19322	0.08333	-0.214
Mof_N 	N 	0.28485	0.95151	0.08333	-0.141
Mof_C 	C 	0.38043	0.04709	0.08333	0.058
Mof_C 	C 	0.43084	0.0975	0.08333	0.057
Mof_Ni	Ni	0.73533	0.33333	0.08333	1.122
Mof_N 	N 	0.80678	0.33333	0.08333	-0.215
Mof_N 	N 	0.04849	0.33333	0.08333	-0.134
Mof_C 	C 	0.95291	0.33333	0.08333	0.03
Mof_C 	C 	0.9025	0.33333	0.08333	0.074
Mof_Ni	Ni	0.402	0.66667	0.41667	1.122
Mof_N 	N 	0.47344	0.66667	0.41667	-0.214
Mof_N 	N 	0.71515	0.66667	0.41667	-0.137
Mof_C 	C 	0.61957	0.66667	0.41667	0.044
Mof_C 	C 	0.56916	0.66667	0.41667	0.065
Mof_Ni	Ni	0.06866	0	0.75	1.121
Mof_N 	N 	0.14011	0	0.75	-0.217
Mof_N 	N 	0.38182	0	0.75	-0.14
Mof_C 	C 	0.28624	0	0.75	0.04
Mof_C 	C 	0.23583	0	0.75	0.059
Mof_Ni	Ni	0.26467	0.598	0.41667	1.122
Mof_N 	N 	0.19322	0.52656	0.41667	-0.214
Mof_N 	N 	0.95151	0.28485	0.41667	-0.141
Mof_C 	C 	0.04709	0.38043	0.41667	0.058
Mof_C 	C 	0.0975	0.43084	0.41667	0.056
Mof_Ni	Ni	0.93134	0.93134	0.75	1.124
Mof_N 	N 	0.85989	0.85989	0.75	-0.214
Mof_N 	N 	0.61818	0.61818	0.75	-0.137
Mof_C 	C 	0.71376	0.71376	0.75	0.044
Mof_C 	C 	0.76417	0.76417	0.75	0.065
Mof_Ni	Ni	0.33333	0.73533	0.41667	1.122
Mof_N 	N 	0.33333	0.80678	0.41667	-0.215
Mof_N 	N 	0.33333	0.04849	0.41667	-0.134
Mof_C 	C 	0.33333	0.95291	0.41667	0.03
Mof_C 	C 	0.33333	0.9025	0.41667	0.074
Mof_Ni	Ni	-2.17914e-18	0.06866	0.75	1.121
Mof_N 	N 	-9.33955e-18	0.14011	0.75	-0.217
Mof_N 	N 	1.93021e-17	0.38182	0.75	-0.14
Mof_C 	C 	-9.33955e-18	0.28624	0.75	0.04
Mof_C 	C 	-9.33955e-18	0.23583	0.75	0.059
Mof_Ni	Ni	0.33333	0.598	0.91667	1.122
Mof_N 	N 	0.33333	0.52656	0.91667	-0.214
Mof_N 	N 	0.33333	0.28485	0.91667	-0.137
Mof_C 	C 	0.33333	0.38043	0.91667	0.044
Mof_C 	C 	0.33333	0.43084	0.91667	0.065
Mof_Ni	Ni	-2.22076e-17	0.93134	0.25	1.122
Mof_N 	N 	-2.22076e-17	0.85989	0.25	-0.218
Mof_N 	N 	3.50757e-17	0.61818	0.25	-0.14
Mof_C 	C 	3.50757e-17	0.71376	0.25	0.04
Mof_C 	C 	3.50757e-17	0.76417	0.25	0.058
Mof_Ni	Ni	0.402	0.73533	0.91667	1.122
Mof_N 	N 	0.47344	0.80678	0.91667	-0.215
Mof_N 	N 	0.71515	0.04849	0.91667	-0.134
Mof_C 	C 	0.61957	0.95291	0.91667	0.029
Mof_C 	C 	0.56916	0.9025	0.91667	0.075
Mof_Ni	Ni	0.06866	0.06866	0.25	1.122
Mof_N 	N 	0.14011	0.14011	0.25	-0.214
Mof_N 	N 	0.38182	0.38182	0.25	-0.137
Mof_C 	C 	0.28624	0.28624	0.25	0.044
Mof_C 	C 	0.23583	0.23583	0.25	0.065
Mof_Ni	Ni	0.26467	0.66667	0.91667	1.122
Mof_N 	N 	0.19322	0.66667	0.91667	-0.213
Mof_N 	N 	0.95151	0.66667	0.91667	-0.141
Mof_C 	C 	0.04709	0.66667	0.91667	0.058
Mof_C 	C 	0.0975	0.66667	0.91667	0.056
Mof_Ni	Ni	0.93134	3.17986e-33	0.25	1.122
Mof_N 	N 	0.85989	3.17986e-33	0.25	-0.217
Mof_N 	N 	0.61818	3.17986e-33	0.25	-0.14
Mof_C 	C 	0.71376	3.17986e-33	0.25	0.04
Mof_C 	C 	0.76417	3.17986e-33	0.25	0.059
Mof_Ni	Ni	0.598	0.33333	0.58333	1.122
Mof_N 	N 	0.52656	0.33333	0.58333	-0.214
Mof_N 	N 	0.28485	0.33333	0.58333	-0.137
Mof_C 	C 	0.38043	0.33333	0.58333	0.044
Mof_C 	C 	0.43084	0.33333	0.58333	0.065
Mof_Ni	Ni	0.73533	0.402	0.58333	1.122
Mof_N 	N 	0.80678	0.47344	0.58333	-0.215
Mof_N 	N 	0.04849	0.71515	0.58333	-0.134
Mof_C 	C 	0.95291	0.61957	0.58333	0.029
Mof_C 	C 	0.9025	0.56916	0.58333	0.075
Mof_Ni	Ni	0.66667	0.26467	0.58333	1.122
Mof_N 	N 	0.66667	0.19322	0.58333	-0.213
Mof_N 	N 	0.66667	0.95151	0.58333	-0.141
Mof_C 	C 	0.66667	0.04709	0.58333	0.059
Mof_C 	C 	0.66667	0.0975	0.58333	0.056
Mof_O 	O 	0.66667	0.33333	0.08333	-0.733
Mof_O 	O 	-6.35972e-33	0	0.75	-0.735
Mof_O 	O 	0.33333	0.66667	0.41667	-0.733
Mof_O 	O 	0.33333	0.66667	0.91667	-0.733
Mof_O 	O 	-3.17986e-33	3.17986e-33	0.25	-0.735
Mof_O 	O 	0.66667	0.33333	0.58333	-0.733
Mof_H 	H 	0.66667	0.33333	0.0373	0.143
Mof_H 	H 	0.33333	0.66667	0.37063	0.143
Mof_H 	H 	6.35972e-33	1.27194e-32	0.70397	0.14
Mof_H 	H 	0.33333	0.66667	0.4627	0.143
Mof_H 	H 	-1.27194e-32	0	0.79603	0.14
Mof_H 	H 	0.66667	0.33333	0.12937	0.143
Mof_H 	H 	0.33333	0.66667	0.9627	0.143
Mof_H 	H 	1.58993e-33	3.17986e-33	0.29603	0.14
Mof_H 	H 	0.66667	0.33333	0.62937	0.143
Mof_H 	H 	0.66667	0.33333	0.5373	0.143
Mof_H 	H 	0.33333	0.66667	0.87063	0.143
Mof_H 	H 	1.58993e-33	0	0.20397	0.14
_end
