data_functionalizedCrystal
_audit_creation_method	'EQeq! by Chris Wilmer'
_symmetry_space_group_name_H-M	'P1'
_symmetry_Int_Tables_number	1
_symmetry_cell_setting	triclinic
loop_
_symmetry_equiv_pos_as_xyz
  x,y,z
_cell_length_a	12.456
_cell_length_b	29.027
_cell_length_c	5.3996
_cell_angle_alpha	90
_cell_angle_beta	90
_cell_angle_gamma	90
loop_
_atom_site_label
_atom_site_type_symbol
_atom_site_fract_x
_atom_site_fract_y
_atom_site_fract_z
_atom_site_charge
Mof_O 	O 	0.3683	0.7065	0.5739	-0.578
Mof_H 	H 	0.3393	0.6829	0.5359	0.24
Mof_O 	O 	0.3705	0.7095	0.9198	-0.614
Mof_H 	H 	0.3415	0.686	0.9588	0.25
Mof_O 	O 	0.2518	0.7854	0.4187	-0.545
Mof_H 	H 	0.2519	0.813	0.4192	0.2
Mof_C 	C 	0.4779	0.9518	0.548	-0.041
Mof_H 	H 	0.4309	0.9558	0.6962	-0.228
Mof_C 	C 	0.4236	0.9744	0.348	-0.49
Mof_H 	H 	0.3512	0.9608	0.3289	0.191
Mof_H 	H 	0.4636	0.9687	0.1922	0.147
Mof_C 	C 	0.588	0.974	0.617	0.576
Mof_H 	H 	0.3594	0.9679	0.4832	-0.138
Mof_H 	H 	0.3846	0.9599	0.7711	-0.036
Mof_O 	O 	0.8683	0.2065	0.0739	-0.575
Mof_H 	H 	0.8393	0.1829	0.0359	0.235
Mof_O 	O 	0.8705	0.2095	0.4198	-0.59
Mof_H 	H 	0.8415	0.186	0.4588	0.257
Mof_O 	O 	0.7518	0.2854	0.9187	-0.533
Mof_H 	H 	0.7519	0.313	0.9192	0.207
Mof_C 	C 	0.9779	0.4518	0.048	-0.12
Mof_H 	H 	0.9309	0.4558	0.1962	-0.242
Mof_C 	C 	0.9236	0.4744	0.848	-0.529
Mof_H 	H 	0.8512	0.4608	0.8289	0.215
Mof_H 	H 	0.9636	0.4687	0.6922	0.179
Mof_C 	C 	0.088	0.474	0.117	0.62
Mof_H 	H 	0.8594	0.4679	0.9832	-0.161
Mof_H 	H 	0.8846	0.4599	0.2711	-0.047
Mof_O 	O 	0.6317	0.7935	0.5739	-0.578
Mof_H 	H 	0.6607	0.8171	0.5359	0.24
Mof_O 	O 	0.6295	0.7905	0.9198	-0.614
Mof_H 	H 	0.6585	0.814	0.9588	0.251
Mof_O 	O 	0.7482	0.7146	0.4187	-0.546
Mof_H 	H 	0.7481	0.687	0.4192	0.202
Mof_C 	C 	0.5221	0.5482	0.548	-0.042
Mof_H 	H 	0.5691	0.5442	0.6962	-0.226
Mof_C 	C 	0.5764	0.5256	0.348	-0.488
Mof_H 	H 	0.6488	0.5392	0.3289	0.191
Mof_H 	H 	0.5364	0.5313	0.1922	0.147
Mof_C 	C 	0.412	0.526	0.617	0.576
Mof_H 	H 	0.6406	0.5321	0.4832	-0.136
Mof_H 	H 	0.6154	0.5401	0.7711	-0.034
Mof_O 	O 	0.1317	0.2935	0.0739	-0.589
Mof_H 	H 	0.1607	0.3171	0.0359	0.234
Mof_O 	O 	0.1295	0.2905	0.4198	-0.604
Mof_H 	H 	0.1585	0.314	0.4588	0.257
Mof_O 	O 	0.2482	0.2146	0.9187	-0.532
Mof_H 	H 	0.2481	0.187	0.9192	0.205
Mof_C 	C 	0.0221	0.0482	0.048	0.056
Mof_H 	H 	0.0691	0.0442	0.1962	-0.295
Mof_C 	C 	0.0764	0.0256	0.848	-0.56
Mof_H 	H 	0.1488	0.0392	0.8289	0.216
Mof_H 	H 	0.0364	0.0313	0.6922	0.145
Mof_C 	C 	0.912	0.026	0.117	0.686
Mof_H 	H 	0.1406	0.0321	0.9832	-0.152
Mof_H 	H 	0.1154	0.0401	0.2711	-0.019
Mof_O 	O 	0.6317	0.2065	0.4261	-0.578
Mof_H 	H 	0.6607	0.1829	0.4641	0.24
Mof_O 	O 	0.6295	0.2095	0.0802	-0.614
Mof_H 	H 	0.6585	0.186	0.0412	0.251
Mof_O 	O 	0.7482	0.2854	0.5813	-0.546
Mof_H 	H 	0.7481	0.313	0.5808	0.202
Mof_C 	C 	0.5221	0.4518	0.452	-0.042
Mof_H 	H 	0.5691	0.4558	0.3038	-0.226
Mof_C 	C 	0.5764	0.4744	0.652	-0.488
Mof_H 	H 	0.6488	0.4608	0.6711	0.191
Mof_H 	H 	0.5364	0.4687	0.8078	0.147
Mof_C 	C 	0.412	0.474	0.383	0.576
Mof_H 	H 	0.6406	0.4679	0.5168	-0.136
Mof_H 	H 	0.6154	0.4599	0.2289	-0.034
Mof_O 	O 	0.1317	0.7065	0.9261	-0.589
Mof_H 	H 	0.1607	0.6829	0.9641	0.234
Mof_O 	O 	0.1295	0.7095	0.5802	-0.604
Mof_H 	H 	0.1585	0.686	0.5412	0.257
Mof_O 	O 	0.2482	0.7854	0.0813	-0.532
Mof_H 	H 	0.2481	0.813	0.0808	0.205
Mof_C 	C 	0.0221	0.9518	0.952	0.056
Mof_H 	H 	0.0691	0.9558	0.8038	-0.295
Mof_C 	C 	0.0764	0.9744	0.152	-0.56
Mof_H 	H 	0.1488	0.9608	0.1711	0.216
Mof_H 	H 	0.0364	0.9687	0.3078	0.145
Mof_C 	C 	0.912	0.974	0.883	0.686
Mof_H 	H 	0.1406	0.9679	0.0168	-0.152
Mof_H 	H 	0.1154	0.9599	0.7289	-0.019
Mof_O 	O 	0.3683	0.2935	0.4261	-0.578
Mof_H 	H 	0.3393	0.3171	0.4641	0.24
Mof_O 	O 	0.3705	0.2905	0.0802	-0.614
Mof_H 	H 	0.3415	0.314	0.0412	0.25
Mof_O 	O 	0.2518	0.2146	0.5813	-0.545
Mof_H 	H 	0.2519	0.187	0.5808	0.2
Mof_C 	C 	0.4779	0.0482	0.452	-0.041
Mof_H 	H 	0.4309	0.0442	0.3038	-0.228
Mof_C 	C 	0.4236	0.0256	0.652	-0.49
Mof_H 	H 	0.3512	0.0392	0.6711	0.191
Mof_H 	H 	0.4636	0.0313	0.8078	0.147
Mof_C 	C 	0.588	0.026	0.383	0.576
Mof_H 	H 	0.3594	0.0321	0.5168	-0.138
Mof_H 	H 	0.3846	0.0401	0.2289	-0.036
Mof_O 	O 	0.8683	0.7935	0.9261	-0.575
Mof_H 	H 	0.8393	0.8171	0.9641	0.235
Mof_O 	O 	0.8705	0.7905	0.5802	-0.59
Mof_H 	H 	0.8415	0.814	0.5412	0.257
Mof_O 	O 	0.7518	0.7146	0.0813	-0.533
Mof_H 	H 	0.7519	0.687	0.0808	0.207
Mof_C 	C 	0.9779	0.5482	0.952	-0.12
Mof_H 	H 	0.9309	0.5442	0.8038	-0.242
Mof_C 	C 	0.9236	0.5256	0.152	-0.529
Mof_H 	H 	0.8512	0.5392	0.1711	0.215
Mof_H 	H 	0.9636	0.5313	0.3078	0.179
Mof_C 	C 	0.088	0.526	0.883	0.62
Mof_H 	H 	0.8594	0.5321	0.0168	-0.161
Mof_H 	H 	0.8846	0.5401	0.7289	-0.047
Mof_O 	O 	0.6317	0.2935	0.4261	-0.578
Mof_H 	H 	0.6607	0.3171	0.4641	0.24
Mof_O 	O 	0.6295	0.2905	0.0802	-0.614
Mof_H 	H 	0.6585	0.314	0.0412	0.251
Mof_O 	O 	0.7482	0.2146	0.5813	-0.546
Mof_H 	H 	0.7481	0.187	0.5808	0.202
Mof_C 	C 	0.5221	0.0482	0.452	-0.042
Mof_H 	H 	0.5691	0.0442	0.3038	-0.227
Mof_C 	C 	0.5764	0.0256	0.652	-0.489
Mof_H 	H 	0.6488	0.0392	0.6711	0.192
Mof_H 	H 	0.5364	0.0313	0.8078	0.147
Mof_C 	C 	0.412	0.026	0.383	0.577
Mof_H 	H 	0.6406	0.0321	0.5168	-0.137
Mof_H 	H 	0.6154	0.0401	0.2289	-0.034
Mof_O 	O 	0.1317	0.7935	0.9261	-0.589
Mof_H 	H 	0.1607	0.8171	0.9641	0.234
Mof_O 	O 	0.1295	0.7905	0.5802	-0.604
Mof_H 	H 	0.1585	0.814	0.5412	0.257
Mof_O 	O 	0.2482	0.7146	0.0813	-0.532
Mof_H 	H 	0.2481	0.687	0.0808	0.204
Mof_C 	C 	0.0221	0.5482	0.952	0.056
Mof_H 	H 	0.0691	0.5442	0.8038	-0.289
Mof_C 	C 	0.0764	0.5256	0.152	-0.553
Mof_H 	H 	0.1488	0.5392	0.1711	0.212
Mof_H 	H 	0.0364	0.5313	0.3078	0.143
Mof_C 	C 	0.912	0.526	0.883	0.674
Mof_H 	H 	0.1406	0.5321	0.0168	-0.148
Mof_H 	H 	0.1154	0.5401	0.7289	-0.018
Mof_O 	O 	0.3683	0.2065	0.4261	-0.578
Mof_H 	H 	0.3393	0.1829	0.4641	0.24
Mof_O 	O 	0.3705	0.2095	0.0802	-0.614
Mof_H 	H 	0.3415	0.186	0.0412	0.25
Mof_O 	O 	0.2518	0.2854	0.5813	-0.545
Mof_H 	H 	0.2519	0.313	0.5808	0.2
Mof_C 	C 	0.4779	0.4518	0.452	-0.041
Mof_H 	H 	0.4309	0.4558	0.3038	-0.227
Mof_C 	C 	0.4236	0.4744	0.652	-0.489
Mof_H 	H 	0.3512	0.4608	0.6711	0.19
Mof_H 	H 	0.4636	0.4687	0.8078	0.147
Mof_C 	C 	0.588	0.474	0.383	0.574
Mof_H 	H 	0.3594	0.4679	0.5168	-0.138
Mof_H 	H 	0.3846	0.4599	0.2289	-0.035
Mof_O 	O 	0.8683	0.7065	0.9261	-0.575
Mof_H 	H 	0.8393	0.6829	0.9641	0.235
Mof_O 	O 	0.8705	0.7095	0.5802	-0.59
Mof_H 	H 	0.8415	0.686	0.5412	0.257
Mof_O 	O 	0.7518	0.7854	0.0813	-0.533
Mof_H 	H 	0.7519	0.813	0.0808	0.207
Mof_C 	C 	0.9779	0.9518	0.952	-0.12
Mof_H 	H 	0.9309	0.9558	0.8038	-0.248
Mof_C 	C 	0.9236	0.9744	0.152	-0.536
Mof_H 	H 	0.8512	0.9608	0.1711	0.218
Mof_H 	H 	0.9636	0.9687	0.3078	0.181
Mof_C 	C 	0.088	0.974	0.883	0.632
Mof_H 	H 	0.8594	0.9679	0.0168	-0.164
Mof_H 	H 	0.8846	0.9599	0.7289	-0.047
Mof_O 	O 	0.3683	0.7935	0.5739	-0.578
Mof_H 	H 	0.3393	0.8171	0.5359	0.24
Mof_O 	O 	0.3705	0.7905	0.9198	-0.614
Mof_H 	H 	0.3415	0.814	0.9588	0.25
Mof_O 	O 	0.2518	0.7146	0.4187	-0.545
Mof_H 	H 	0.2519	0.687	0.4192	0.2
Mof_C 	C 	0.4779	0.5482	0.548	-0.041
Mof_H 	H 	0.4309	0.5442	0.6962	-0.227
Mof_C 	C 	0.4236	0.5256	0.348	-0.489
Mof_H 	H 	0.3512	0.5392	0.3289	0.19
Mof_H 	H 	0.4636	0.5313	0.1922	0.147
Mof_C 	C 	0.588	0.526	0.617	0.574
Mof_H 	H 	0.3594	0.5321	0.4832	-0.138
Mof_H 	H 	0.3846	0.5401	0.7711	-0.035
Mof_O 	O 	0.8683	0.2935	0.0739	-0.575
Mof_H 	H 	0.8393	0.3171	0.0359	0.235
Mof_O 	O 	0.8705	0.2905	0.4198	-0.59
Mof_H 	H 	0.8415	0.314	0.4588	0.257
Mof_O 	O 	0.7518	0.2146	0.9187	-0.533
Mof_H 	H 	0.7519	0.187	0.9192	0.207
Mof_C 	C 	0.9779	0.0482	0.048	-0.12
Mof_H 	H 	0.9309	0.0442	0.1962	-0.248
Mof_C 	C 	0.9236	0.0256	0.848	-0.536
Mof_H 	H 	0.8512	0.0392	0.8289	0.218
Mof_H 	H 	0.9636	0.0313	0.6922	0.181
Mof_C 	C 	0.088	0.026	0.117	0.632
Mof_H 	H 	0.8594	0.0321	0.9832	-0.164
Mof_H 	H 	0.8846	0.0401	0.2711	-0.047
Mof_O 	O 	0.6317	0.7065	0.5739	-0.578
Mof_H 	H 	0.6607	0.6829	0.5359	0.24
Mof_O 	O 	0.6295	0.7095	0.9198	-0.614
Mof_H 	H 	0.6585	0.686	0.9588	0.251
Mof_O 	O 	0.7482	0.7854	0.4187	-0.546
Mof_H 	H 	0.7481	0.813	0.4192	0.202
Mof_C 	C 	0.5221	0.9518	0.548	-0.042
Mof_H 	H 	0.5691	0.9558	0.6962	-0.227
Mof_C 	C 	0.5764	0.9744	0.348	-0.489
Mof_H 	H 	0.6488	0.9608	0.3289	0.192
Mof_H 	H 	0.5364	0.9687	0.1922	0.147
Mof_C 	C 	0.412	0.974	0.617	0.577
Mof_H 	H 	0.6406	0.9679	0.4832	-0.137
Mof_H 	H 	0.6154	0.9599	0.7711	-0.034
Mof_O 	O 	0.1317	0.2065	0.0739	-0.589
Mof_H 	H 	0.1607	0.1829	0.0359	0.234
Mof_O 	O 	0.1295	0.2095	0.4198	-0.604
Mof_H 	H 	0.1585	0.186	0.4588	0.257
Mof_O 	O 	0.2482	0.2854	0.9187	-0.532
Mof_H 	H 	0.2481	0.313	0.9192	0.204
Mof_C 	C 	0.0221	0.4518	0.048	0.056
Mof_H 	H 	0.0691	0.4558	0.1962	-0.289
Mof_C 	C 	0.0764	0.4744	0.848	-0.553
Mof_H 	H 	0.1488	0.4608	0.8289	0.212
Mof_H 	H 	0.0364	0.4687	0.6922	0.143
Mof_C 	C 	0.912	0.474	0.117	0.674
Mof_H 	H 	0.1406	0.4679	0.9832	-0.148
Mof_H 	H 	0.1154	0.4599	0.2711	-0.018
Mof_Co	Co	0.37551	0.75	0.2454	1.308
Mof_Co	Co	0.87551	0.25	0.7454	1.318
Mof_Co	Co	0.62449	0.75	0.2454	1.309
Mof_Co	Co	0.12449	0.25	0.7454	1.309
Mof_Co	Co	0.62449	0.25	0.7546	1.309
Mof_Co	Co	0.12449	0.75	0.2546	1.309
Mof_Co	Co	0.37551	0.25	0.7546	1.308
Mof_Co	Co	0.87551	0.75	0.2546	1.318
Mof_Co	Co	0.25	0.75	0.75	1.301
Mof_Co	Co	0.75	0.75	0.75	1.3
Mof_Co	Co	0.75	0.25	0.25	1.3
Mof_Co	Co	0.25	0.25	0.25	1.301
Mof_Co	Co	0.5	0.80905	0.7424	1.258
Mof_O 	O 	0.5	0.7938	0.103	-0.488
Mof_H 	H 	0.5	0.8173	0.1797	0.111
Mof_O 	O 	0.5	0.7882	0.388	-0.615
Mof_H 	H 	0.5	0.8114	0.3085	0.307
Mof_O 	O 	0.5	0.8786	0.7373	-0.424
Mof_O 	O 	0.5	0.8807	0.3264	-0.345
Mof_C 	C 	0.5	0.8997	0.528	0.344
Mof_Co	Co	-8.49559e-33	0.30905	0.2424	1.249
Mof_O 	O 	-1.19502e-32	0.2938	0.603	-0.517
Mof_H 	H 	-1.18255e-32	0.3173	0.6797	0.118
Mof_O 	O 	-1.78927e-33	0.2882	0.888	-0.61
Mof_H 	H 	-1.48488e-32	0.3114	0.8085	0.302
Mof_O 	O 	-2.0626e-32	0.3786	0.2373	-0.423
Mof_O 	O 	-1.15871e-32	0.3807	0.8264	-0.341
Mof_C 	C 	-7.02574e-33	0.3997	0.028	0.311
Mof_Co	Co	0.5	0.69095	0.7424	1.258
Mof_O 	O 	0.5	0.7062	0.103	-0.488
Mof_H 	H 	0.5	0.6827	0.1797	0.111
Mof_O 	O 	0.5	0.7118	0.388	-0.615
Mof_H 	H 	0.5	0.6886	0.3085	0.307
Mof_O 	O 	0.5	0.6214	0.7373	-0.424
Mof_O 	O 	0.5	0.6193	0.3264	-0.345
Mof_C 	C 	0.5	0.6003	0.528	0.344
Mof_Co	Co	-5.26302e-33	0.19095	0.2424	1.249
Mof_O 	O 	-5.48506e-33	0.2062	0.603	-0.517
Mof_H 	H 	-8.59297e-33	0.1827	0.6797	0.118
Mof_O 	O 	-8.25441e-33	0.2118	0.888	-0.61
Mof_H 	H 	-1.16162e-32	0.1886	0.8085	0.302
Mof_O 	O 	-1.23059e-33	0.1214	0.2373	-0.423
Mof_O 	O 	-1.15871e-32	0.1193	0.8264	-0.341
Mof_C 	C 	-2.17688e-33	0.1003	0.028	0.311
Mof_Co	Co	0.5	0.30905	0.2576	1.258
Mof_O 	O 	0.5	0.2938	0.897	-0.488
Mof_H 	H 	0.5	0.3173	0.8203	0.111
Mof_O 	O 	0.5	0.2882	0.612	-0.615
Mof_H 	H 	0.5	0.3114	0.6915	0.307
Mof_O 	O 	0.5	0.3786	0.2627	-0.424
Mof_O 	O 	0.5	0.3807	0.6736	-0.345
Mof_C 	C 	0.5	0.3997	0.472	0.344
Mof_Co	Co	-1.16989e-32	0.80905	0.7576	1.249
Mof_O 	O 	-3.16804e-32	0.7938	0.397	-0.517
Mof_H 	H 	-1.07934e-32	0.8173	0.3203	0.118
Mof_O 	O 	-2.8103e-32	0.7882	0.112	-0.61
Mof_H 	H 	-1.58516e-32	0.8114	0.1915	0.302
Mof_O 	O 	-8.45806e-33	0.8786	0.7627	-0.423
Mof_O 	O 	-1.42644e-32	0.8807	0.1736	-0.341
Mof_C 	C 	-3.7211e-32	0.8997	0.972	0.311
Mof_Co	Co	0.5	0.19095	0.2576	1.258
Mof_O 	O 	0.5	0.2062	0.897	-0.488
Mof_H 	H 	0.5	0.1827	0.8203	0.111
Mof_O 	O 	0.5	0.2118	0.612	-0.615
Mof_H 	H 	0.5	0.1886	0.6915	0.307
Mof_O 	O 	0.5	0.1214	0.2627	-0.424
Mof_O 	O 	0.5	0.1193	0.6736	-0.345
Mof_C 	C 	0.5	0.1003	0.472	0.344
Mof_Co	Co	-1.16989e-32	0.69095	0.7576	1.249
Mof_O 	O 	-5.81988e-33	0.7062	0.397	-0.517
Mof_H 	H 	-3.6654e-32	0.6827	0.3203	0.118
Mof_O 	O 	-1.51727e-32	0.7118	0.112	-0.61
Mof_H 	H 	-2.87819e-32	0.6886	0.1915	0.302
Mof_O 	O 	-8.45806e-33	0.6214	0.7627	-0.423
Mof_O 	O 	-2.71947e-32	0.6193	0.1736	-0.341
Mof_C 	C 	-2.42807e-32	0.6003	0.972	0.311
_end
