data_functionalizedCrystal
_audit_creation_method	'EQeq! by Chris Wilmer'
_symmetry_space_group_name_H-M	'P1'
_symmetry_Int_Tables_number	1
_symmetry_cell_setting	triclinic
loop_
_symmetry_equiv_pos_as_xyz
  x,y,z
_cell_length_a	6.7292
_cell_length_b	15.0619
_cell_length_c	15.0619
_cell_angle_alpha	62.1776
_cell_angle_beta	81.4354
_cell_angle_gamma	98.5646
loop_
_atom_site_label
_atom_site_type_symbol
_atom_site_fract_x
_atom_site_fract_y
_atom_site_fract_z
_atom_site_charge
Mof_Ni	Ni	0.1163	0.7187	0.7042	1.081
Mof_Ni	Ni	0.1163	0.2958	0.2813	1.083
Mof_Ni	Ni	0.8205	0.4229	0.2958	1.107
Mof_Ni	Ni	0.8205	0.7042	0.5771	1.107
Mof_Ni	Ni	0.3976	0.2813	0.4229	1.096
Mof_Ni	Ni	0.3976	0.5771	0.7187	1.096
Mof_H 	H 	0.5344	0	0.5718	-0.025
Mof_H 	H 	0.2595	0.5185	-0	0.111
Mof_H 	H 	0.741	0.4815	0.5185	0.12
Mof_H 	H 	0.2595	0	0.4815	0.112
Mof_H 	H 	0.5344	0.4282	-0	-0.023
Mof_H 	H 	0.1062	0.5718	0.4282	-0.036
Mof_C 	C 	0.5569	0.3549	0.1862	0.448
Mof_C 	C 	0.7431	0.1862	0.4589	0.436
Mof_C 	C 	0.5883	0.50145	0.49855	-0.326
Mof_C 	C 	0.202	0.6451	0.5411	0.448
Mof_C 	C 	0.202	0.4589	0.3549	0.448
Mof_C 	C 	0.7431	0.5411	0.8138	0.433
Mof_C 	C 	0.7307	0.4131	0.092	-0.366
Mof_C 	C 	0.6859	0.4417	-0	0.256
Mof_C 	C 	0.0411	0.5361	0.9018	0.342
Mof_C 	C 	0.9429	0.4379	0.0982	0.421
Mof_C 	C 	0.08685	0.49855	-0	-0.364
Mof_C 	C 	0.8227	0.092	0.4949	-0.325
Mof_C 	C 	0.6859	4.39711e-17	0.5583	0.274
Mof_C 	C 	0.0411	0.0982	0.4639	0.345
Mof_C 	C 	0.08685	0	0.50145	-0.361
Mof_C 	C 	0.7307	0.908	0.5869	-0.376
Mof_C 	C 	0.3176	0.5869	0.5051	-0.377
Mof_C 	C 	0.2442	0.5583	0.4417	0.28
Mof_C 	C 	0.5569	0.8138	0.6451	0.451
Mof_C 	C 	0.9429	0.9018	0.5621	0.421
Mof_C 	C 	0.3176	0.4949	0.4131	-0.377
Mof_C 	C 	0.8227	0.5051	0.908	-0.314
Mof_C 	C 	0.505	0.4639	0.4379	0.387
Mof_C 	C 	0.505	0.5621	0.5361	0.387
Mof_O 	O 	0.582	0.4056	0.4126	-0.554
Mof_O 	O 	0.5939	0.7275	0.6578	-0.567
Mof_O 	O 	0.1764	0.1818	0.4056	-0.556
Mof_O 	O 	0.5532	0.501	0.8274	-0.444
Mof_O 	O 	0.8664	0.6147	0.7275	-0.542
Mof_O 	O 	0.0522	0.6716	0.501	-0.471
Mof_O 	O 	0.1764	0.5944	0.8182	-0.556
Mof_O 	O 	0.582	0.5874	0.5944	-0.554
Mof_O 	O 	0.2517	0.6578	0.6147	-0.576
Mof_O 	O 	0.5532	0.1726	0.499	-0.445
Mof_O 	O 	0.2517	0.3853	0.3422	-0.576
Mof_O 	O 	0.3806	0.3284	0.1726	-0.454
Mof_O 	O 	0.9946	0.8182	0.5874	-0.544
Mof_O 	O 	0.5939	0.3422	0.2725	-0.566
Mof_O 	O 	0.9946	0.4126	0.1818	-0.544
Mof_O 	O 	0.8664	0.2725	0.3853	-0.543
Mof_O 	O 	0.3806	0.8274	0.6716	-0.457
Mof_O 	O 	0.0522	0.499	0.3284	-0.471
_end
