# CIF file generated by openbabel 3.1.0, see https://openbabel.org
data_I
_chemical_name_common 'image0'
_cell_length_a 40.709
_cell_length_b 40.709
_cell_length_c 17.468
_cell_angle_alpha 90
_cell_angle_beta 90
_cell_angle_gamma 90
_space_group_name_H-M_alt 'P 1'
_space_group_name_Hall 'P 1'
loop_
    _symmetry_equiv_pos_as_xyz
    x,y,z
loop_
    _atom_site_label
    _atom_site_type_symbol
    _atom_site_fract_x
    _atom_site_fract_y
    _atom_site_fract_z
    _atom_site_occupancy
    Mn1      Mn       0.29582    0.82420    0.07856    1.000
    O1       O        0.27079    0.84493    0.00360    1.000
    O2       O        0.27751    0.74527    0.93435    1.000
    O3       O        0.32031    0.79578    0.14742    1.000
    N1       N        0.29019    0.78262    0.02640    1.000
    N2       N        0.30590    0.75553    0.06390    1.000
    C1       C        0.25513    0.83265    0.94570    1.000
    C2       C        0.23497    0.85414    0.90100    1.000
    H1       H        0.23130    0.87590    0.91890    1.000
    C3       C        0.22110    0.84490    0.83530    1.000
    H2       H        0.20810    0.86020    0.80780    1.000
    C4       C        0.22520    0.81360    0.80620    1.000
    H3       H        0.21580    0.80760    0.75840    1.000
    C5       C        0.24380    0.79066    0.84970    1.000
    H4       H        0.24630    0.76880    0.83150    1.000
    C6       C        0.25829    0.79985    0.91840    1.000
    C7       C        0.27600    0.77473    0.96110    1.000
    C8       C        0.32021    0.76529    0.12590    1.000
    C9       C        0.33749    0.74004    0.17450    1.000
    H5       H        0.35030    0.72560    0.14000    1.000
    H6       H        0.32060    0.72630    0.19950    1.000
    C10      C        0.36040    0.75268    0.23590    1.000
    H7       H        0.37600    0.76820    0.21320    1.000
    H8       H        0.37240    0.73420    0.25850    1.000
    H9       H        0.34760    0.76380    0.27570    1.000
    Mn2      Mn       0.28913    0.70912    0.00461    1.000
    O4       O        0.33059    0.69969    0.96493    1.000
    O5       O        0.31744    0.63438    0.15214    1.000
    O6       O        0.24693    0.71262    0.05571    1.000
    N3       N        0.29370    0.67417    0.07927    1.000
    N4       N        0.26550    0.66881    0.12450    1.000
    N5       N        0.26291    0.67619    0.91740    1.000
    C11      C        0.35236    0.67703    0.98610    1.000
    C12      C        0.38153    0.67542    0.94350    1.000
    H10      H        0.38500    0.69050    0.90270    1.000
    C13      C        0.40528    0.65222    0.96020    1.000
    H11      H        0.42440    0.65090    0.92910    1.000
    C14      C        0.40175    0.63109    0.02080    1.000
    H12      H        0.41840    0.61550    0.03270    1.000
    C15      C        0.37342    0.63293    0.06430    1.000
    H13      H        0.37080    0.61840    0.10650    1.000
    C16      C        0.34850    0.65562    0.04770    1.000
    C17      C        0.31888    0.65447    0.09580    1.000
    C18      C        0.24278    0.68975    0.10720    1.000
    C19      C        0.20981    0.68707    0.14460    1.000
    H14      H        0.20890    0.66600    0.17280    1.000
    H15      H        0.20780    0.70500    0.18270    1.000
    C20      C        0.18114    0.68870    0.09230    1.000
    H16      H        0.18360    0.70750    0.05770    1.000
    H17      H        0.16100    0.69120    0.12240    1.000
    H18      H        0.17990    0.66840    0.06220    1.000
    C21      C        0.23340    0.68519    0.89400    1.000
    H19      H        0.22530    0.70620    0.90860    1.000
    C22      C        0.21330    0.66500    0.84850    1.000
    H20      H        0.19150    0.67110    0.83560    1.000
    C23      C        0.22730    0.63485    0.82280    1.000
    C24      C        0.25340    0.62587    0.85500    1.000
    H21      H        0.26110    0.60410    0.84740    1.000
    C25      C        0.27140    0.64689    0.90130    1.000
    H22      H        0.29130    0.63890    0.92250    1.000
    C26      C        0.21040    0.61233    0.76440    1.000
    H23      H        0.22750    0.60290    0.73070    1.000
    H24      H        0.20010    0.59390    0.79250    1.000
    Mn3      Mn       0.22044    0.86339    0.27620    1.000
    O7       O        0.24060    0.90105    0.31263    1.000
    O8       O        0.30292    0.86518    0.13573    1.000
    O9       O        0.20526    0.82341    0.22736    1.000
    N6       N        0.25618    0.85604    0.20426    1.000
    N7       N        0.25359    0.82664    0.16230    1.000
    N8       N        0.14199    0.56018    0.55940    1.000
    C27      C        0.26571    0.91776    0.28330    1.000
    C28      C        0.27225    0.94870    0.31460    1.000
    H25      H        0.25890    0.95640    0.35540    1.000
    C29      C        0.29724    0.96817    0.28870    1.000
    H26      H        0.30080    0.98910    0.31110    1.000
    C30      C        0.31769    0.95722    0.22900    1.000
    H27      H        0.33500    0.97070    0.21020    1.000
    C31      C        0.31202    0.92665    0.19870    1.000
    H28      H        0.32620    0.91880    0.15940    1.000
    C32      C        0.28634    0.90662    0.22310    1.000
    C33      C        0.28177    0.87475    0.18600    1.000
    C34      C        0.22625    0.81187    0.17830    1.000
    C35      C        0.21717    0.78092    0.13800    1.000
    H29      H        0.23680    0.77100    0.11390    1.000
    H30      H        0.20790    0.76490    0.17490    1.000
    C36      C        0.18960    0.79010    0.07200    1.000
    H31      H        0.19730    0.80890    0.04190    1.000
    H32      H        0.18650    0.77110    0.03810    1.000
    H33      H        0.16870    0.79560    0.09670    1.000
    C37      C        0.16508    0.58066    0.53640    1.000
    H34      H        0.17120    0.58080    0.48390    1.000
    C38      C        0.18084    0.60207    0.58680    1.000
    H35      H        0.19800    0.61590    0.56900    1.000
    C39      C        0.17130    0.60305    0.66360    1.000
    C40      C        0.14812    0.58135    0.68540    1.000
    H36      H        0.14140    0.58070    0.73740    1.000
    C41      C        0.13428    0.56045    0.63470    1.000
    H37      H        0.11840    0.54520    0.65280    1.000
    C42      C        0.18700    0.62670    0.71930    1.000
    H38      H        0.19720    0.64490    0.69020    1.000
    H39      H        0.16970    0.63620    0.75240    1.000
    Mn4      Mn       0.79582    0.32420    0.57856    1.000
    O10      O        0.77079    0.34493    0.50360    1.000
    O11      O        0.77751    0.24527    0.43435    1.000
    O12      O        0.82031    0.29578    0.64742    1.000
    N9       N        0.79019    0.28262    0.52640    1.000
    N10      N        0.80590    0.25553    0.56390    1.000
    C43      C        0.75513    0.33265    0.44570    1.000
    C44      C        0.73497    0.35414    0.40100    1.000
    H40      H        0.73130    0.37590    0.41890    1.000
    C45      C        0.72110    0.34490    0.33530    1.000
    H41      H        0.70810    0.36020    0.30780    1.000
    C46      C        0.72520    0.31360    0.30620    1.000
    H42      H        0.71580    0.30760    0.25840    1.000
    C47      C        0.74380    0.29066    0.34970    1.000
    H43      H        0.74630    0.26880    0.33150    1.000
    C48      C        0.75829    0.29985    0.41840    1.000
    C49      C        0.77600    0.27473    0.46110    1.000
    C50      C        0.82021    0.26529    0.62590    1.000
    C51      C        0.83749    0.24004    0.67450    1.000
    H44      H        0.85030    0.22560    0.64000    1.000
    H45      H        0.82060    0.22630    0.69950    1.000
    C52      C        0.86040    0.25268    0.73590    1.000
    H46      H        0.87600    0.26820    0.71320    1.000
    H47      H        0.87240    0.23420    0.75850    1.000
    H48      H        0.84760    0.26380    0.77570    1.000
    Mn5      Mn       0.78913    0.20912    0.50461    1.000
    O13      O        0.83059    0.19969    0.46493    1.000
    O14      O        0.81744    0.13438    0.65214    1.000
    O15      O        0.74693    0.21262    0.55571    1.000
    N11      N        0.79370    0.17417    0.57927    1.000
    N12      N        0.76550    0.16881    0.62450    1.000
    N13      N        0.76291    0.17619    0.41740    1.000
    C53      C        0.85236    0.17703    0.48610    1.000
    C54      C        0.88153    0.17542    0.44350    1.000
    H49      H        0.88500    0.19050    0.40270    1.000
    C55      C        0.90528    0.15222    0.46020    1.000
    H50      H        0.92440    0.15090    0.42910    1.000
    C56      C        0.90175    0.13109    0.52080    1.000
    H51      H        0.91840    0.11550    0.53270    1.000
    C57      C        0.87342    0.13293    0.56430    1.000
    H52      H        0.87080    0.11840    0.60650    1.000
    C58      C        0.84850    0.15562    0.54770    1.000
    C59      C        0.81888    0.15447    0.59580    1.000
    C60      C        0.74278    0.18975    0.60720    1.000
    C61      C        0.70981    0.18707    0.64460    1.000
    H53      H        0.70890    0.16600    0.67280    1.000
    H54      H        0.70780    0.20500    0.68270    1.000
    C62      C        0.68114    0.18870    0.59230    1.000
    H55      H        0.68360    0.20750    0.55770    1.000
    H56      H        0.66100    0.19120    0.62240    1.000
    H57      H        0.67990    0.16840    0.56220    1.000
    C63      C        0.73340    0.18519    0.39400    1.000
    H58      H        0.72530    0.20620    0.40860    1.000
    C64      C        0.71330    0.16500    0.34850    1.000
    H59      H        0.69150    0.17110    0.33560    1.000
    C65      C        0.72730    0.13485    0.32280    1.000
    C66      C        0.75340    0.12587    0.35500    1.000
    H60      H        0.76110    0.10410    0.34740    1.000
    C67      C        0.77140    0.14689    0.40130    1.000
    H61      H        0.79130    0.13890    0.42250    1.000
    C68      C        0.71040    0.11233    0.26440    1.000
    H62      H        0.72750    0.10290    0.23070    1.000
    H63      H        0.70010    0.09390    0.29250    1.000
    Mn6      Mn       0.72044    0.36339    0.77620    1.000
    O16      O        0.74060    0.40105    0.81263    1.000
    O17      O        0.80292    0.36518    0.63573    1.000
    O18      O        0.70526    0.32341    0.72736    1.000
    N14      N        0.75618    0.35604    0.70426    1.000
    N15      N        0.75359    0.32664    0.66230    1.000
    N16      N        0.64199    0.06018    0.05940    1.000
    C69      C        0.76571    0.41776    0.78330    1.000
    C70      C        0.77225    0.44870    0.81460    1.000
    H64      H        0.75890    0.45640    0.85540    1.000
    C71      C        0.79724    0.46817    0.78870    1.000
    H65      H        0.80080    0.48910    0.81110    1.000
    C72      C        0.81769    0.45722    0.72900    1.000
    H66      H        0.83500    0.47070    0.71020    1.000
    C73      C        0.81202    0.42665    0.69870    1.000
    H67      H        0.82620    0.41880    0.65940    1.000
    C74      C        0.78634    0.40662    0.72310    1.000
    C75      C        0.78177    0.37475    0.68600    1.000
    C76      C        0.72625    0.31187    0.67830    1.000
    C77      C        0.71717    0.28092    0.63800    1.000
    H68      H        0.73680    0.27100    0.61390    1.000
    H69      H        0.70790    0.26490    0.67490    1.000
    C78      C        0.68960    0.29010    0.57200    1.000
    H70      H        0.69730    0.30890    0.54190    1.000
    H71      H        0.68650    0.27110    0.53810    1.000
    H72      H        0.66870    0.29560    0.59670    1.000
    C79      C        0.66508    0.08066    0.03640    1.000
    H73      H        0.67120    0.08080    0.98390    1.000
    C80      C        0.68084    0.10207    0.08680    1.000
    H74      H        0.69800    0.11590    0.06900    1.000
    C81      C        0.67130    0.10305    0.16360    1.000
    C82      C        0.64812    0.08135    0.18540    1.000
    H75      H        0.64140    0.08070    0.23740    1.000
    C83      C        0.63428    0.06045    0.13470    1.000
    H76      H        0.61840    0.04520    0.15280    1.000
    C84      C        0.68700    0.12670    0.21930    1.000
    H77      H        0.69720    0.14490    0.19020    1.000
    H78      H        0.66970    0.13620    0.25240    1.000
    Mn7      Mn       0.20418    0.17580    0.57856    1.000
    O19      O        0.22921    0.15507    0.50360    1.000
    O20      O        0.22249    0.25473    0.43435    1.000
    O21      O        0.17969    0.20422    0.64742    1.000
    N17      N        0.20981    0.21738    0.52640    1.000
    N18      N        0.19410    0.24447    0.56390    1.000
    C85      C        0.24487    0.16735    0.44570    1.000
    C86      C        0.26503    0.14586    0.40100    1.000
    H79      H        0.26870    0.12410    0.41890    1.000
    C87      C        0.27890    0.15510    0.33530    1.000
    H80      H        0.29190    0.13980    0.30780    1.000
    C88      C        0.27480    0.18640    0.30620    1.000
    H81      H        0.28420    0.19240    0.25840    1.000
    C89      C        0.25620    0.20934    0.34970    1.000
    H82      H        0.25370    0.23120    0.33150    1.000
    C90      C        0.24171    0.20015    0.41840    1.000
    C91      C        0.22400    0.22527    0.46110    1.000
    C92      C        0.17979    0.23471    0.62590    1.000
    C93      C        0.16251    0.25996    0.67450    1.000
    H83      H        0.14970    0.27440    0.64000    1.000
    H84      H        0.17940    0.27370    0.69950    1.000
    C94      C        0.13960    0.24732    0.73590    1.000
    H85      H        0.12400    0.23180    0.71320    1.000
    H86      H        0.12760    0.26580    0.75850    1.000
    H87      H        0.15240    0.23620    0.77570    1.000
    Mn8      Mn       0.21087    0.29088    0.50461    1.000
    O22      O        0.16941    0.30031    0.46493    1.000
    O23      O        0.18256    0.36562    0.65214    1.000
    O24      O        0.25307    0.28738    0.55571    1.000
    N19      N        0.20630    0.32583    0.57927    1.000
    N20      N        0.23450    0.33119    0.62450    1.000
    N21      N        0.23709    0.32381    0.41740    1.000
    C95      C        0.14764    0.32297    0.48610    1.000
    C96      C        0.11847    0.32458    0.44350    1.000
    H88      H        0.11500    0.30950    0.40270    1.000
    C97      C        0.09472    0.34778    0.46020    1.000
    H89      H        0.07560    0.34910    0.42910    1.000
    C98      C        0.09825    0.36891    0.52080    1.000
    H90      H        0.08160    0.38450    0.53270    1.000
    C99      C        0.12658    0.36707    0.56430    1.000
    H91      H        0.12920    0.38160    0.60650    1.000
    C100     C        0.15150    0.34438    0.54770    1.000
    C101     C        0.18112    0.34553    0.59580    1.000
    C102     C        0.25722    0.31025    0.60720    1.000
    C103     C        0.29019    0.31293    0.64460    1.000
    H92      H        0.29110    0.33400    0.67280    1.000
    H93      H        0.29220    0.29500    0.68270    1.000
    C104     C        0.31886    0.31130    0.59230    1.000
    H94      H        0.31640    0.29250    0.55770    1.000
    H95      H        0.33900    0.30880    0.62240    1.000
    H96      H        0.32010    0.33160    0.56220    1.000
    C105     C        0.26660    0.31481    0.39400    1.000
    H97      H        0.27470    0.29380    0.40860    1.000
    C106     C        0.28670    0.33500    0.34850    1.000
    H98      H        0.30850    0.32890    0.33560    1.000
    C107     C        0.27270    0.36515    0.32280    1.000
    C108     C        0.24660    0.37413    0.35500    1.000
    H99      H        0.23890    0.39590    0.34740    1.000
    C109     C        0.22860    0.35311    0.40130    1.000
    H100     H        0.20870    0.36110    0.42250    1.000
    C110     C        0.28960    0.38767    0.26440    1.000
    H101     H        0.27250    0.39710    0.23070    1.000
    H102     H        0.29990    0.40610    0.29250    1.000
    Mn9      Mn       0.27956    0.13661    0.77620    1.000
    O25      O        0.25940    0.09895    0.81263    1.000
    O26      O        0.19708    0.13482    0.63573    1.000
    O27      O        0.29474    0.17659    0.72736    1.000
    N22      N        0.24382    0.14396    0.70426    1.000
    N23      N        0.24641    0.17336    0.66230    1.000
    N24      N        0.35801    0.43982    0.05940    1.000
    C111     C        0.23429    0.08224    0.78330    1.000
    C112     C        0.22775    0.05130    0.81460    1.000
    H103     H        0.24110    0.04360    0.85540    1.000
    C113     C        0.20276    0.03183    0.78870    1.000
    H104     H        0.19920    0.01090    0.81110    1.000
    C114     C        0.18231    0.04278    0.72900    1.000
    H105     H        0.16500    0.02930    0.71020    1.000
    C115     C        0.18798    0.07335    0.69870    1.000
    H106     H        0.17380    0.08120    0.65940    1.000
    C116     C        0.21366    0.09338    0.72310    1.000
    C117     C        0.21823    0.12525    0.68600    1.000
    C118     C        0.27375    0.18813    0.67830    1.000
    C119     C        0.28283    0.21908    0.63800    1.000
    H107     H        0.26320    0.22900    0.61390    1.000
    H108     H        0.29210    0.23510    0.67490    1.000
    C120     C        0.31040    0.20990    0.57200    1.000
    H109     H        0.30270    0.19110    0.54190    1.000
    H110     H        0.31350    0.22890    0.53810    1.000
    H111     H        0.33130    0.20440    0.59670    1.000
    C121     C        0.33492    0.41934    0.03640    1.000
    H112     H        0.32880    0.41920    0.98390    1.000
    C122     C        0.31916    0.39793    0.08680    1.000
    H113     H        0.30200    0.38410    0.06900    1.000
    C123     C        0.32870    0.39695    0.16360    1.000
    C124     C        0.35188    0.41865    0.18540    1.000
    H114     H        0.35860    0.41930    0.23740    1.000
    C125     C        0.36572    0.43955    0.13470    1.000
    H115     H        0.38160    0.45480    0.15280    1.000
    C126     C        0.31300    0.37330    0.21930    1.000
    H116     H        0.30280    0.35510    0.19020    1.000
    H117     H        0.33030    0.36380    0.25240    1.000
    Mn10     Mn       0.70418    0.67580    0.07856    1.000
    O28      O        0.72921    0.65507    0.00360    1.000
    O29      O        0.72249    0.75473    0.93435    1.000
    O30      O        0.67969    0.70422    0.14742    1.000
    N25      N        0.70981    0.71738    0.02640    1.000
    N26      N        0.69410    0.74447    0.06390    1.000
    C127     C        0.74487    0.66735    0.94570    1.000
    C128     C        0.76503    0.64586    0.90100    1.000
    H118     H        0.76870    0.62410    0.91890    1.000
    C129     C        0.77890    0.65510    0.83530    1.000
    H119     H        0.79190    0.63980    0.80780    1.000
    C130     C        0.77480    0.68640    0.80620    1.000
    H120     H        0.78420    0.69240    0.75840    1.000
    C131     C        0.75620    0.70934    0.84970    1.000
    H121     H        0.75370    0.73120    0.83150    1.000
    C132     C        0.74171    0.70015    0.91840    1.000
    C133     C        0.72400    0.72527    0.96110    1.000
    C134     C        0.67979    0.73471    0.12590    1.000
    C135     C        0.66251    0.75996    0.17450    1.000
    H122     H        0.64970    0.77440    0.14000    1.000
    H123     H        0.67940    0.77370    0.19950    1.000
    C136     C        0.63960    0.74732    0.23590    1.000
    H124     H        0.62400    0.73180    0.21320    1.000
    H125     H        0.62760    0.76580    0.25850    1.000
    H126     H        0.65240    0.73620    0.27570    1.000
    Mn11     Mn       0.71087    0.79088    0.00461    1.000
    O31      O        0.66941    0.80031    0.96493    1.000
    O32      O        0.68256    0.86562    0.15214    1.000
    O33      O        0.75307    0.78738    0.05571    1.000
    N27      N        0.70630    0.82583    0.07927    1.000
    N28      N        0.73450    0.83119    0.12450    1.000
    N29      N        0.73709    0.82381    0.91740    1.000
    C137     C        0.64764    0.82297    0.98610    1.000
    C138     C        0.61847    0.82458    0.94350    1.000
    H127     H        0.61500    0.80950    0.90270    1.000
    C139     C        0.59472    0.84778    0.96020    1.000
    H128     H        0.57560    0.84910    0.92910    1.000
    C140     C        0.59825    0.86891    0.02080    1.000
    H129     H        0.58160    0.88450    0.03270    1.000
    C141     C        0.62658    0.86707    0.06430    1.000
    H130     H        0.62920    0.88160    0.10650    1.000
    C142     C        0.65150    0.84438    0.04770    1.000
    C143     C        0.68112    0.84553    0.09580    1.000
    C144     C        0.75722    0.81025    0.10720    1.000
    C145     C        0.79019    0.81293    0.14460    1.000
    H131     H        0.79110    0.83400    0.17280    1.000
    H132     H        0.79220    0.79500    0.18270    1.000
    C146     C        0.81886    0.81130    0.09230    1.000
    H133     H        0.81640    0.79250    0.05770    1.000
    H134     H        0.83900    0.80880    0.12240    1.000
    H135     H        0.82010    0.83160    0.06220    1.000
    C147     C        0.76660    0.81481    0.89400    1.000
    H136     H        0.77470    0.79380    0.90860    1.000
    C148     C        0.78670    0.83500    0.84850    1.000
    H137     H        0.80850    0.82890    0.83560    1.000
    C149     C        0.77270    0.86515    0.82280    1.000
    C150     C        0.74660    0.87413    0.85500    1.000
    H138     H        0.73890    0.89590    0.84740    1.000
    C151     C        0.72860    0.85311    0.90130    1.000
    H139     H        0.70870    0.86110    0.92250    1.000
    C152     C        0.78960    0.88767    0.76440    1.000
    H140     H        0.77250    0.89710    0.73070    1.000
    H141     H        0.79990    0.90610    0.79250    1.000
    Mn12     Mn       0.77956    0.63661    0.27620    1.000
    O34      O        0.75940    0.59895    0.31263    1.000
    O35      O        0.69708    0.63482    0.13573    1.000
    O36      O        0.79474    0.67659    0.22736    1.000
    N30      N        0.74382    0.64396    0.20426    1.000
    N31      N        0.74641    0.67336    0.16230    1.000
    N32      N        0.85801    0.93982    0.55940    1.000
    C153     C        0.73429    0.58224    0.28330    1.000
    C154     C        0.72775    0.55130    0.31460    1.000
    H142     H        0.74110    0.54360    0.35540    1.000
    C155     C        0.70276    0.53183    0.28870    1.000
    H143     H        0.69920    0.51090    0.31110    1.000
    C156     C        0.68231    0.54278    0.22900    1.000
    H144     H        0.66500    0.52930    0.21020    1.000
    C157     C        0.68798    0.57335    0.19870    1.000
    H145     H        0.67380    0.58120    0.15940    1.000
    C158     C        0.71366    0.59338    0.22310    1.000
    C159     C        0.71823    0.62525    0.18600    1.000
    C160     C        0.77375    0.68813    0.17830    1.000
    C161     C        0.78283    0.71908    0.13800    1.000
    H146     H        0.76320    0.72900    0.11390    1.000
    H147     H        0.79210    0.73510    0.17490    1.000
    C162     C        0.81040    0.70990    0.07200    1.000
    H148     H        0.80270    0.69110    0.04190    1.000
    H149     H        0.81350    0.72890    0.03810    1.000
    H150     H        0.83130    0.70440    0.09670    1.000
    C163     C        0.83492    0.91934    0.53640    1.000
    H151     H        0.82880    0.91920    0.48390    1.000
    C164     C        0.81916    0.89793    0.58680    1.000
    H152     H        0.80200    0.88410    0.56900    1.000
    C165     C        0.82870    0.89695    0.66360    1.000
    C166     C        0.85188    0.91865    0.68540    1.000
    H153     H        0.85860    0.91930    0.73740    1.000
    C167     C        0.86572    0.93955    0.63470    1.000
    H154     H        0.88160    0.95480    0.65280    1.000
    C168     C        0.81300    0.87330    0.71930    1.000
    H155     H        0.80280    0.85510    0.69020    1.000
    H156     H        0.83030    0.86380    0.75240    1.000
    Mn13     Mn       0.92580    0.54582    0.32856    1.000
    O37      O        0.90507    0.52079    0.25360    1.000
    O38      O        0.00473    0.52751    0.18435    1.000
    O39      O        0.95422    0.57031    0.39742    1.000
    N33      N        0.96738    0.54019    0.27640    1.000
    N34      N        0.99447    0.55590    0.31390    1.000
    C169     C        0.91735    0.50513    0.19570    1.000
    C170     C        0.89586    0.48497    0.15100    1.000
    H157     H        0.87410    0.48130    0.16890    1.000
    C171     C        0.90510    0.47110    0.08530    1.000
    H158     H        0.88980    0.45810    0.05780    1.000
    C172     C        0.93640    0.47520    0.05620    1.000
    H159     H        0.94240    0.46580    0.00840    1.000
    C173     C        0.95934    0.49380    0.09970    1.000
    H160     H        0.98120    0.49630    0.08150    1.000
    C174     C        0.95015    0.50829    0.16840    1.000
    C175     C        0.97527    0.52600    0.21110    1.000
    C176     C        0.98471    0.57021    0.37590    1.000
    C177     C        0.00996    0.58749    0.42450    1.000
    H161     H        0.02440    0.60030    0.39000    1.000
    H162     H        0.02370    0.57060    0.44950    1.000
    C178     C        0.99732    0.61040    0.48590    1.000
    H163     H        0.98180    0.62600    0.46320    1.000
    H164     H        0.01580    0.62240    0.50850    1.000
    H165     H        0.98620    0.59760    0.52570    1.000
    Mn14     Mn       0.04088    0.53913    0.25461    1.000
    O40      O        0.05031    0.58059    0.21493    1.000
    O41      O        0.11562    0.56744    0.40214    1.000
    O42      O        0.03738    0.49693    0.30571    1.000
    N35      N        0.07583    0.54370    0.32927    1.000
    N36      N        0.08119    0.51550    0.37450    1.000
    N37      N        0.07381    0.51291    0.16740    1.000
    C179     C        0.07297    0.60236    0.23610    1.000
    C180     C        0.07458    0.63153    0.19350    1.000
    H166     H        0.05950    0.63500    0.15270    1.000
    C181     C        0.09778    0.65528    0.21020    1.000
    H167     H        0.09910    0.67440    0.17910    1.000
    C182     C        0.11891    0.65175    0.27080    1.000
    H168     H        0.13450    0.66840    0.28270    1.000
    C183     C        0.11707    0.62342    0.31430    1.000
    H169     H        0.13160    0.62080    0.35650    1.000
    C184     C        0.09438    0.59850    0.29770    1.000
    C185     C        0.09553    0.56888    0.34580    1.000
    C186     C        0.06025    0.49278    0.35720    1.000
    C187     C        0.06293    0.45981    0.39460    1.000
    H170     H        0.08400    0.45890    0.42280    1.000
    H171     H        0.04500    0.45780    0.43270    1.000
    C188     C        0.06130    0.43114    0.34230    1.000
    H172     H        0.04250    0.43360    0.30770    1.000
    H173     H        0.05880    0.41100    0.37240    1.000
    H174     H        0.08160    0.42990    0.31220    1.000
    C189     C        0.06481    0.48340    0.14400    1.000
    H175     H        0.04380    0.47530    0.15860    1.000
    C190     C        0.08500    0.46330    0.09850    1.000
    H176     H        0.07890    0.44150    0.08560    1.000
    C191     C        0.11515    0.47730    0.07280    1.000
    C192     C        0.12413    0.50340    0.10500    1.000
    H177     H        0.14590    0.51110    0.09740    1.000
    C193     C        0.10311    0.52140    0.15130    1.000
    H178     H        0.11110    0.54130    0.17250    1.000
    C194     C        0.13767    0.46040    0.01440    1.000
    H179     H        0.14710    0.47750    0.98070    1.000
    H180     H        0.15610    0.45010    0.04250    1.000
    Mn15     Mn       0.88661    0.47044    0.52620    1.000
    O43      O        0.84895    0.49060    0.56263    1.000
    O44      O        0.88482    0.55292    0.38573    1.000
    O45      O        0.92659    0.45526    0.47736    1.000
    N38      N        0.89396    0.50618    0.45426    1.000
    N39      N        0.92336    0.50359    0.41230    1.000
    N40      N        0.18982    0.39199    0.80940    1.000
    C195     C        0.83224    0.51571    0.53330    1.000
    C196     C        0.80130    0.52225    0.56460    1.000
    H181     H        0.79360    0.50890    0.60540    1.000
    C197     C        0.78183    0.54724    0.53870    1.000
    H182     H        0.76090    0.55080    0.56110    1.000
    C198     C        0.79278    0.56769    0.47900    1.000
    H183     H        0.77930    0.58500    0.46020    1.000
    C199     C        0.82335    0.56202    0.44870    1.000
    H184     H        0.83120    0.57620    0.40940    1.000
    C200     C        0.84338    0.53634    0.47310    1.000
    C201     C        0.87525    0.53177    0.43600    1.000
    C202     C        0.93813    0.47625    0.42830    1.000
    C203     C        0.96908    0.46717    0.38800    1.000
    H185     H        0.97900    0.48680    0.36390    1.000
    H186     H        0.98510    0.45790    0.42490    1.000
    C204     C        0.95990    0.43960    0.32200    1.000
    H187     H        0.94110    0.44730    0.29190    1.000
    H188     H        0.97890    0.43650    0.28810    1.000
    H189     H        0.95440    0.41870    0.34670    1.000
    C205     C        0.16934    0.41508    0.78640    1.000
    H190     H        0.16920    0.42120    0.73390    1.000
    C206     C        0.14793    0.43084    0.83680    1.000
    H191     H        0.13410    0.44800    0.81900    1.000
    C207     C        0.14695    0.42130    0.91360    1.000
    C208     C        0.16865    0.39812    0.93540    1.000
    H192     H        0.16930    0.39140    0.98740    1.000
    C209     C        0.18955    0.38428    0.88470    1.000
    H193     H        0.20480    0.36840    0.90280    1.000
    C210     C        0.12330    0.43700    0.96930    1.000
    H194     H        0.10510    0.44720    0.94020    1.000
    H195     H        0.11380    0.41970    0.00240    1.000
    Mn16     Mn       0.42580    0.04582    0.82856    1.000
    O46      O        0.40507    0.02079    0.75360    1.000
    O47      O        0.50473    0.02751    0.68435    1.000
    O48      O        0.45422    0.07031    0.89742    1.000
    N41      N        0.46738    0.04019    0.77640    1.000
    N42      N        0.49447    0.05590    0.81390    1.000
    C211     C        0.41735    0.00513    0.69570    1.000
    C212     C        0.39586    0.98497    0.65100    1.000
    H196     H        0.37410    0.98130    0.66890    1.000
    C213     C        0.40510    0.97110    0.58530    1.000
    H197     H        0.38980    0.95810    0.55780    1.000
    C214     C        0.43640    0.97520    0.55620    1.000
    H198     H        0.44240    0.96580    0.50840    1.000
    C215     C        0.45934    0.99380    0.59970    1.000
    H199     H        0.48120    0.99630    0.58150    1.000
    C216     C        0.45015    0.00829    0.66840    1.000
    C217     C        0.47527    0.02600    0.71110    1.000
    C218     C        0.48471    0.07021    0.87590    1.000
    C219     C        0.50996    0.08749    0.92450    1.000
    H200     H        0.52440    0.10030    0.89000    1.000
    H201     H        0.52370    0.07060    0.94950    1.000
    C220     C        0.49732    0.11040    0.98590    1.000
    H202     H        0.48180    0.12600    0.96320    1.000
    H203     H        0.51580    0.12240    0.00850    1.000
    H204     H        0.48620    0.09760    0.02570    1.000
    Mn17     Mn       0.54088    0.03913    0.75461    1.000
    O49      O        0.55031    0.08059    0.71493    1.000
    O50      O        0.61562    0.06744    0.90214    1.000
    O51      O        0.53738    0.99693    0.80571    1.000
    N43      N        0.57583    0.04370    0.82927    1.000
    N44      N        0.58119    0.01550    0.87450    1.000
    N45      N        0.57381    0.01291    0.66740    1.000
    C221     C        0.57297    0.10236    0.73610    1.000
    C222     C        0.57458    0.13153    0.69350    1.000
    H205     H        0.55950    0.13500    0.65270    1.000
    C223     C        0.59778    0.15528    0.71020    1.000
    H206     H        0.59910    0.17440    0.67910    1.000
    C224     C        0.61891    0.15175    0.77080    1.000
    H207     H        0.63450    0.16840    0.78270    1.000
    C225     C        0.61707    0.12342    0.81430    1.000
    H208     H        0.63160    0.12080    0.85650    1.000
    C226     C        0.59438    0.09850    0.79770    1.000
    C227     C        0.59553    0.06888    0.84580    1.000
    C228     C        0.56025    0.99278    0.85720    1.000
    C229     C        0.56293    0.95981    0.89460    1.000
    H209     H        0.58400    0.95890    0.92280    1.000
    H210     H        0.54500    0.95780    0.93270    1.000
    C230     C        0.56130    0.93114    0.84230    1.000
    H211     H        0.54250    0.93360    0.80770    1.000
    H212     H        0.55880    0.91100    0.87240    1.000
    H213     H        0.58160    0.92990    0.81220    1.000
    C231     C        0.56481    0.98340    0.64400    1.000
    H214     H        0.54380    0.97530    0.65860    1.000
    C232     C        0.58500    0.96330    0.59850    1.000
    H215     H        0.57890    0.94150    0.58560    1.000
    C233     C        0.61515    0.97730    0.57280    1.000
    C234     C        0.62413    0.00340    0.60500    1.000
    H216     H        0.64590    0.01110    0.59740    1.000
    C235     C        0.60311    0.02140    0.65130    1.000
    H217     H        0.61110    0.04130    0.67250    1.000
    C236     C        0.63767    0.96040    0.51440    1.000
    H218     H        0.64710    0.97750    0.48070    1.000
    H219     H        0.65610    0.95010    0.54250    1.000
    Mn18     Mn       0.38661    0.97044    0.02620    1.000
    O52      O        0.34895    0.99060    0.06263    1.000
    O53      O        0.38482    0.05292    0.88573    1.000
    O54      O        0.42659    0.95526    0.97736    1.000
    N46      N        0.39396    0.00618    0.95426    1.000
    N47      N        0.42336    0.00359    0.91230    1.000
    N48      N        0.68982    0.89199    0.30940    1.000
    C237     C        0.33224    0.01571    0.03330    1.000
    C238     C        0.30130    0.02225    0.06460    1.000
    H220     H        0.29360    0.00890    0.10540    1.000
    C239     C        0.28183    0.04724    0.03870    1.000
    H221     H        0.26090    0.05080    0.06110    1.000
    C240     C        0.29278    0.06769    0.97900    1.000
    H222     H        0.27930    0.08500    0.96020    1.000
    C241     C        0.32335    0.06202    0.94870    1.000
    H223     H        0.33120    0.07620    0.90940    1.000
    C242     C        0.34338    0.03634    0.97310    1.000
    C243     C        0.37525    0.03177    0.93600    1.000
    C244     C        0.43813    0.97625    0.92830    1.000
    C245     C        0.46908    0.96717    0.88800    1.000
    H224     H        0.47900    0.98680    0.86390    1.000
    H225     H        0.48510    0.95790    0.92490    1.000
    C246     C        0.45990    0.93960    0.82200    1.000
    H226     H        0.44110    0.94730    0.79190    1.000
    H227     H        0.47890    0.93650    0.78810    1.000
    H228     H        0.45440    0.91870    0.84670    1.000
    C247     C        0.66934    0.91508    0.28640    1.000
    H229     H        0.66920    0.92120    0.23390    1.000
    C248     C        0.64793    0.93084    0.33680    1.000
    H230     H        0.63410    0.94800    0.31900    1.000
    C249     C        0.64695    0.92130    0.41360    1.000
    C250     C        0.66865    0.89812    0.43540    1.000
    H231     H        0.66930    0.89140    0.48740    1.000
    C251     C        0.68955    0.88428    0.38470    1.000
    H232     H        0.70480    0.86840    0.40280    1.000
    C252     C        0.62330    0.93700    0.46930    1.000
    H233     H        0.60510    0.94720    0.44020    1.000
    H234     H        0.61380    0.91970    0.50240    1.000
    Mn19     Mn       0.57420    0.45418    0.82856    1.000
    O55      O        0.59493    0.47921    0.75360    1.000
    O56      O        0.49527    0.47249    0.68435    1.000
    O57      O        0.54578    0.42969    0.89742    1.000
    N49      N        0.53262    0.45981    0.77640    1.000
    N50      N        0.50553    0.44410    0.81390    1.000
    C253     C        0.58265    0.49487    0.69570    1.000
    C254     C        0.60414    0.51503    0.65100    1.000
    H235     H        0.62590    0.51870    0.66890    1.000
    C255     C        0.59490    0.52890    0.58530    1.000
    H236     H        0.61020    0.54190    0.55780    1.000
    C256     C        0.56360    0.52480    0.55620    1.000
    H237     H        0.55760    0.53420    0.50840    1.000
    C257     C        0.54066    0.50620    0.59970    1.000
    H238     H        0.51880    0.50370    0.58150    1.000
    C258     C        0.54985    0.49171    0.66840    1.000
    C259     C        0.52473    0.47400    0.71110    1.000
    C260     C        0.51529    0.42979    0.87590    1.000
    C261     C        0.49004    0.41251    0.92450    1.000
    H239     H        0.47560    0.39970    0.89000    1.000
    H240     H        0.47630    0.42940    0.94950    1.000
    C262     C        0.50268    0.38960    0.98590    1.000
    H241     H        0.51820    0.37400    0.96320    1.000
    H242     H        0.48420    0.37760    0.00850    1.000
    H243     H        0.51380    0.40240    0.02570    1.000
    Mn20     Mn       0.45912    0.46087    0.75461    1.000
    O58      O        0.44969    0.41941    0.71493    1.000
    O59      O        0.38438    0.43256    0.90214    1.000
    O60      O        0.46262    0.50307    0.80571    1.000
    N51      N        0.42417    0.45630    0.82927    1.000
    N52      N        0.41881    0.48450    0.87450    1.000
    N53      N        0.42619    0.48709    0.66740    1.000
    C263     C        0.42703    0.39764    0.73610    1.000
    C264     C        0.42542    0.36847    0.69350    1.000
    H244     H        0.44050    0.36500    0.65270    1.000
    C265     C        0.40222    0.34472    0.71020    1.000
    H245     H        0.40090    0.32560    0.67910    1.000
    C266     C        0.38109    0.34825    0.77080    1.000
    H246     H        0.36550    0.33160    0.78270    1.000
    C267     C        0.38293    0.37658    0.81430    1.000
    H247     H        0.36840    0.37920    0.85650    1.000
    C268     C        0.40562    0.40150    0.79770    1.000
    C269     C        0.40447    0.43112    0.84580    1.000
    C270     C        0.43975    0.50722    0.85720    1.000
    C271     C        0.43707    0.54019    0.89460    1.000
    H248     H        0.41600    0.54110    0.92280    1.000
    H249     H        0.45500    0.54220    0.93270    1.000
    C272     C        0.43870    0.56886    0.84230    1.000
    H250     H        0.45750    0.56640    0.80770    1.000
    H251     H        0.44120    0.58900    0.87240    1.000
    H252     H        0.41840    0.57010    0.81220    1.000
    C273     C        0.43519    0.51660    0.64400    1.000
    H253     H        0.45620    0.52470    0.65860    1.000
    C274     C        0.41500    0.53670    0.59850    1.000
    H254     H        0.42110    0.55850    0.58560    1.000
    C275     C        0.38485    0.52270    0.57280    1.000
    C276     C        0.37587    0.49660    0.60500    1.000
    H255     H        0.35410    0.48890    0.59740    1.000
    C277     C        0.39689    0.47860    0.65130    1.000
    H256     H        0.38890    0.45870    0.67250    1.000
    C278     C        0.36233    0.53960    0.51440    1.000
    H257     H        0.35290    0.52250    0.48070    1.000
    H258     H        0.34390    0.54990    0.54250    1.000
    Mn21     Mn       0.61339    0.52956    0.02620    1.000
    O61      O        0.65105    0.50940    0.06263    1.000
    O62      O        0.61518    0.44708    0.88573    1.000
    O63      O        0.57341    0.54474    0.97736    1.000
    N54      N        0.60604    0.49382    0.95426    1.000
    N55      N        0.57664    0.49641    0.91230    1.000
    N56      N        0.31018    0.60801    0.30940    1.000
    C279     C        0.66776    0.48429    0.03330    1.000
    C280     C        0.69870    0.47775    0.06460    1.000
    H259     H        0.70640    0.49110    0.10540    1.000
    C281     C        0.71817    0.45276    0.03870    1.000
    H260     H        0.73910    0.44920    0.06110    1.000
    C282     C        0.70722    0.43231    0.97900    1.000
    H261     H        0.72070    0.41500    0.96020    1.000
    C283     C        0.67665    0.43798    0.94870    1.000
    H262     H        0.66880    0.42380    0.90940    1.000
    C284     C        0.65662    0.46366    0.97310    1.000
    C285     C        0.62475    0.46823    0.93600    1.000
    C286     C        0.56187    0.52375    0.92830    1.000
    C287     C        0.53092    0.53283    0.88800    1.000
    H263     H        0.52100    0.51320    0.86390    1.000
    H264     H        0.51490    0.54210    0.92490    1.000
    C288     C        0.54010    0.56040    0.82200    1.000
    H265     H        0.55890    0.55270    0.79190    1.000
    H266     H        0.52110    0.56350    0.78810    1.000
    H267     H        0.54560    0.58130    0.84670    1.000
    C289     C        0.33066    0.58492    0.28640    1.000
    H268     H        0.33080    0.57880    0.23390    1.000
    C290     C        0.35207    0.56916    0.33680    1.000
    H269     H        0.36590    0.55200    0.31900    1.000
    C291     C        0.35305    0.57870    0.41360    1.000
    C292     C        0.33135    0.60188    0.43540    1.000
    H270     H        0.33070    0.60860    0.48740    1.000
    C293     C        0.31045    0.61572    0.38470    1.000
    H271     H        0.29520    0.63160    0.40280    1.000
    C294     C        0.37670    0.56300    0.46930    1.000
    H272     H        0.39490    0.55280    0.44020    1.000
    H273     H        0.38620    0.58030    0.50240    1.000
    Mn22     Mn       0.07420    0.95418    0.32856    1.000
    O64      O        0.09493    0.97921    0.25360    1.000
    O65      O        0.99527    0.97249    0.18435    1.000
    O66      O        0.04578    0.92969    0.39742    1.000
    N57      N        0.03262    0.95981    0.27640    1.000
    N58      N        0.00553    0.94410    0.31390    1.000
    C295     C        0.08265    0.99487    0.19570    1.000
    C296     C        0.10414    0.01503    0.15100    1.000
    H274     H        0.12590    0.01870    0.16890    1.000
    C297     C        0.09490    0.02890    0.08530    1.000
    H275     H        0.11020    0.04190    0.05780    1.000
    C298     C        0.06360    0.02480    0.05620    1.000
    H276     H        0.05760    0.03420    0.00840    1.000
    C299     C        0.04066    0.00620    0.09970    1.000
    H277     H        0.01880    0.00370    0.08150    1.000
    C300     C        0.04985    0.99171    0.16840    1.000
    C301     C        0.02473    0.97400    0.21110    1.000
    C302     C        0.01529    0.92979    0.37590    1.000
    C303     C        0.99004    0.91251    0.42450    1.000
    H278     H        0.97560    0.89970    0.39000    1.000
    H279     H        0.97630    0.92940    0.44950    1.000
    C304     C        0.00268    0.88960    0.48590    1.000
    H280     H        0.01820    0.87400    0.46320    1.000
    H281     H        0.98420    0.87760    0.50850    1.000
    H282     H        0.01380    0.90240    0.52570    1.000
    Mn23     Mn       0.95912    0.96087    0.25461    1.000
    O67      O        0.94969    0.91941    0.21493    1.000
    O68      O        0.88438    0.93256    0.40214    1.000
    O69      O        0.96262    0.00307    0.30571    1.000
    N59      N        0.92417    0.95630    0.32927    1.000
    N60      N        0.91881    0.98450    0.37450    1.000
    N61      N        0.92619    0.98709    0.16740    1.000
    C305     C        0.92703    0.89764    0.23610    1.000
    C306     C        0.92542    0.86847    0.19350    1.000
    H283     H        0.94050    0.86500    0.15270    1.000
    C307     C        0.90222    0.84472    0.21020    1.000
    H284     H        0.90090    0.82560    0.17910    1.000
    C308     C        0.88109    0.84825    0.27080    1.000
    H285     H        0.86550    0.83160    0.28270    1.000
    C309     C        0.88293    0.87658    0.31430    1.000
    H286     H        0.86840    0.87920    0.35650    1.000
    C310     C        0.90562    0.90150    0.29770    1.000
    C311     C        0.90447    0.93112    0.34580    1.000
    C312     C        0.93975    0.00722    0.35720    1.000
    C313     C        0.93707    0.04019    0.39460    1.000
    H287     H        0.91600    0.04110    0.42280    1.000
    H288     H        0.95500    0.04220    0.43270    1.000
    C314     C        0.93870    0.06886    0.34230    1.000
    H289     H        0.95750    0.06640    0.30770    1.000
    H290     H        0.94120    0.08900    0.37240    1.000
    H291     H        0.91840    0.07010    0.31220    1.000
    C315     C        0.93519    0.01660    0.14400    1.000
    H292     H        0.95620    0.02470    0.15860    1.000
    C316     C        0.91500    0.03670    0.09850    1.000
    H293     H        0.92110    0.05850    0.08560    1.000
    C317     C        0.88485    0.02270    0.07280    1.000
    C318     C        0.87587    0.99660    0.10500    1.000
    H294     H        0.85410    0.98890    0.09740    1.000
    C319     C        0.89689    0.97860    0.15130    1.000
    H295     H        0.88890    0.95870    0.17250    1.000
    C320     C        0.86233    0.03960    0.01440    1.000
    H296     H        0.85290    0.02250    0.98070    1.000
    H297     H        0.84390    0.04990    0.04250    1.000
    Mn24     Mn       0.11339    0.02956    0.52620    1.000
    O70      O        0.15105    0.00940    0.56263    1.000
    O71      O        0.11518    0.94708    0.38573    1.000
    O72      O        0.07341    0.04474    0.47736    1.000
    N62      N        0.10604    0.99382    0.45426    1.000
    N63      N        0.07664    0.99641    0.41230    1.000
    N64      N        0.81018    0.10801    0.80940    1.000
    C321     C        0.16776    0.98429    0.53330    1.000
    C322     C        0.19870    0.97775    0.56460    1.000
    H298     H        0.20640    0.99110    0.60540    1.000
    C323     C        0.21817    0.95276    0.53870    1.000
    H299     H        0.23910    0.94920    0.56110    1.000
    C324     C        0.20722    0.93231    0.47900    1.000
    H300     H        0.22070    0.91500    0.46020    1.000
    C325     C        0.17665    0.93798    0.44870    1.000
    H301     H        0.16880    0.92380    0.40940    1.000
    C326     C        0.15662    0.96366    0.47310    1.000
    C327     C        0.12475    0.96823    0.43600    1.000
    C328     C        0.06187    0.02375    0.42830    1.000
    C329     C        0.03092    0.03283    0.38800    1.000
    H302     H        0.02100    0.01320    0.36390    1.000
    H303     H        0.01490    0.04210    0.42490    1.000
    C330     C        0.04010    0.06040    0.32200    1.000
    H304     H        0.05890    0.05270    0.29190    1.000
    H305     H        0.02110    0.06350    0.28810    1.000
    H306     H        0.04560    0.08130    0.34670    1.000
    C331     C        0.83066    0.08492    0.78640    1.000
    H307     H        0.83080    0.07880    0.73390    1.000
    C332     C        0.85207    0.06916    0.83680    1.000
    H308     H        0.86590    0.05200    0.81900    1.000
    C333     C        0.85305    0.07870    0.91360    1.000
    C334     C        0.83135    0.10188    0.93540    1.000
    H309     H        0.83070    0.10860    0.98740    1.000
    C335     C        0.81045    0.11572    0.88470    1.000
    H310     H        0.79520    0.13160    0.90280    1.000
    C336     C        0.87670    0.06300    0.96930    1.000
    H311     H        0.89490    0.05280    0.94020    1.000
    H312     H        0.88620    0.08030    0.00240    1.000
    Mn25     Mn       0.70418    0.17580    0.92144    1.000
    O73      O        0.72921    0.15507    0.99640    1.000
    O74      O        0.72249    0.25473    0.06565    1.000
    O75      O        0.67969    0.20422    0.85258    1.000
    N65      N        0.70981    0.21738    0.97360    1.000
    N66      N        0.69410    0.24447    0.93610    1.000
    C337     C        0.74487    0.16735    0.05430    1.000
    C338     C        0.76503    0.14586    0.09900    1.000
    H313     H        0.76870    0.12410    0.08110    1.000
    C339     C        0.77890    0.15510    0.16470    1.000
    H314     H        0.79190    0.13980    0.19220    1.000
    C340     C        0.77480    0.18640    0.19380    1.000
    H315     H        0.78420    0.19240    0.24160    1.000
    C341     C        0.75620    0.20934    0.15030    1.000
    H316     H        0.75370    0.23120    0.16850    1.000
    C342     C        0.74171    0.20015    0.08160    1.000
    C343     C        0.72400    0.22527    0.03890    1.000
    C344     C        0.67979    0.23471    0.87410    1.000
    C345     C        0.66251    0.25996    0.82550    1.000
    H317     H        0.64970    0.27440    0.86000    1.000
    H318     H        0.67940    0.27370    0.80050    1.000
    C346     C        0.63960    0.24732    0.76410    1.000
    H319     H        0.62400    0.23180    0.78680    1.000
    H320     H        0.62760    0.26580    0.74150    1.000
    H321     H        0.65240    0.23620    0.72430    1.000
    Mn26     Mn       0.71087    0.29088    0.99539    1.000
    O76      O        0.66941    0.30031    0.03507    1.000
    O77      O        0.68256    0.36562    0.84786    1.000
    O78      O        0.75307    0.28738    0.94429    1.000
    N67      N        0.70630    0.32583    0.92073    1.000
    N68      N        0.73450    0.33119    0.87550    1.000
    N69      N        0.73709    0.32381    0.08260    1.000
    C347     C        0.64764    0.32297    0.01390    1.000
    C348     C        0.61847    0.32458    0.05650    1.000
    H322     H        0.61500    0.30950    0.09730    1.000
    C349     C        0.59472    0.34778    0.03980    1.000
    H323     H        0.57560    0.34910    0.07090    1.000
    C350     C        0.59825    0.36891    0.97920    1.000
    H324     H        0.58160    0.38450    0.96730    1.000
    C351     C        0.62658    0.36707    0.93570    1.000
    H325     H        0.62920    0.38160    0.89350    1.000
    C352     C        0.65150    0.34438    0.95230    1.000
    C353     C        0.68112    0.34553    0.90420    1.000
    C354     C        0.75722    0.31025    0.89280    1.000
    C355     C        0.79019    0.31293    0.85540    1.000
    H326     H        0.79110    0.33400    0.82720    1.000
    H327     H        0.79220    0.29500    0.81730    1.000
    C356     C        0.81886    0.31130    0.90770    1.000
    H328     H        0.81640    0.29250    0.94230    1.000
    H329     H        0.83900    0.30880    0.87760    1.000
    H330     H        0.82010    0.33160    0.93780    1.000
    C357     C        0.76660    0.31481    0.10600    1.000
    H331     H        0.77470    0.29380    0.09140    1.000
    C358     C        0.78670    0.33500    0.15150    1.000
    H332     H        0.80850    0.32890    0.16440    1.000
    C359     C        0.77270    0.36515    0.17720    1.000
    C360     C        0.74660    0.37413    0.14500    1.000
    H333     H        0.73890    0.39590    0.15260    1.000
    C361     C        0.72860    0.35311    0.09870    1.000
    H334     H        0.70870    0.36110    0.07750    1.000
    C362     C        0.78960    0.38767    0.23560    1.000
    H335     H        0.77250    0.39710    0.26930    1.000
    H336     H        0.79990    0.40610    0.20750    1.000
    Mn27     Mn       0.77956    0.13661    0.72380    1.000
    O79      O        0.75940    0.09895    0.68737    1.000
    O80      O        0.69708    0.13482    0.86427    1.000
    O81      O        0.79474    0.17659    0.77264    1.000
    N70      N        0.74382    0.14396    0.79574    1.000
    N71      N        0.74641    0.17336    0.83770    1.000
    N72      N        0.85801    0.43982    0.44060    1.000
    C363     C        0.73429    0.08224    0.71670    1.000
    C364     C        0.72775    0.05130    0.68540    1.000
    H337     H        0.74110    0.04360    0.64460    1.000
    C365     C        0.70276    0.03183    0.71130    1.000
    H338     H        0.69920    0.01090    0.68890    1.000
    C366     C        0.68231    0.04278    0.77100    1.000
    H339     H        0.66500    0.02930    0.78980    1.000
    C367     C        0.68798    0.07335    0.80130    1.000
    H340     H        0.67380    0.08120    0.84060    1.000
    C368     C        0.71366    0.09338    0.77690    1.000
    C369     C        0.71823    0.12525    0.81400    1.000
    C370     C        0.77375    0.18813    0.82170    1.000
    C371     C        0.78283    0.21908    0.86200    1.000
    H341     H        0.76320    0.22900    0.88610    1.000
    H342     H        0.79210    0.23510    0.82510    1.000
    C372     C        0.81040    0.20990    0.92800    1.000
    H343     H        0.80270    0.19110    0.95810    1.000
    H344     H        0.81350    0.22890    0.96190    1.000
    H345     H        0.83130    0.20440    0.90330    1.000
    C373     C        0.83492    0.41934    0.46360    1.000
    H346     H        0.82880    0.41920    0.51610    1.000
    C374     C        0.81916    0.39793    0.41320    1.000
    H347     H        0.80200    0.38410    0.43100    1.000
    C375     C        0.82870    0.39695    0.33640    1.000
    C376     C        0.85188    0.41865    0.31460    1.000
    H348     H        0.85860    0.41930    0.26260    1.000
    C377     C        0.86572    0.43955    0.36530    1.000
    H349     H        0.88160    0.45480    0.34720    1.000
    C378     C        0.81300    0.37330    0.28070    1.000
    H350     H        0.80280    0.35510    0.30980    1.000
    H351     H        0.83030    0.36380    0.24760    1.000
    Mn28     Mn       0.20418    0.67580    0.42144    1.000
    O82      O        0.22921    0.65507    0.49640    1.000
    O83      O        0.22249    0.75473    0.56565    1.000
    O84      O        0.17969    0.70422    0.35258    1.000
    N73      N        0.20981    0.71738    0.47360    1.000
    N74      N        0.19410    0.74447    0.43610    1.000
    C379     C        0.24487    0.66735    0.55430    1.000
    C380     C        0.26503    0.64586    0.59900    1.000
    H352     H        0.26870    0.62410    0.58110    1.000
    C381     C        0.27890    0.65510    0.66470    1.000
    H353     H        0.29190    0.63980    0.69220    1.000
    C382     C        0.27480    0.68640    0.69380    1.000
    H354     H        0.28420    0.69240    0.74160    1.000
    C383     C        0.25620    0.70934    0.65030    1.000
    H355     H        0.25370    0.73120    0.66850    1.000
    C384     C        0.24171    0.70015    0.58160    1.000
    C385     C        0.22400    0.72527    0.53890    1.000
    C386     C        0.17979    0.73471    0.37410    1.000
    C387     C        0.16251    0.75996    0.32550    1.000
    H356     H        0.14970    0.77440    0.36000    1.000
    H357     H        0.17940    0.77370    0.30050    1.000
    C388     C        0.13960    0.74732    0.26410    1.000
    H358     H        0.12400    0.73180    0.28680    1.000
    H359     H        0.12760    0.76580    0.24150    1.000
    H360     H        0.15240    0.73620    0.22430    1.000
    Mn29     Mn       0.21087    0.79088    0.49539    1.000
    O85      O        0.16941    0.80031    0.53507    1.000
    O86      O        0.18256    0.86562    0.34786    1.000
    O87      O        0.25307    0.78738    0.44429    1.000
    N75      N        0.20630    0.82583    0.42073    1.000
    N76      N        0.23450    0.83119    0.37550    1.000
    N77      N        0.23709    0.82381    0.58260    1.000
    C389     C        0.14764    0.82297    0.51390    1.000
    C390     C        0.11847    0.82458    0.55650    1.000
    H361     H        0.11500    0.80950    0.59730    1.000
    C391     C        0.09472    0.84778    0.53980    1.000
    H362     H        0.07560    0.84910    0.57090    1.000
    C392     C        0.09825    0.86891    0.47920    1.000
    H363     H        0.08160    0.88450    0.46730    1.000
    C393     C        0.12658    0.86707    0.43570    1.000
    H364     H        0.12920    0.88160    0.39350    1.000
    C394     C        0.15150    0.84438    0.45230    1.000
    C395     C        0.18112    0.84553    0.40420    1.000
    C396     C        0.25722    0.81025    0.39280    1.000
    C397     C        0.29019    0.81293    0.35540    1.000
    H365     H        0.29110    0.83400    0.32720    1.000
    H366     H        0.29220    0.79500    0.31730    1.000
    C398     C        0.31886    0.81130    0.40770    1.000
    H367     H        0.31640    0.79250    0.44230    1.000
    H368     H        0.33900    0.80880    0.37760    1.000
    H369     H        0.32010    0.83160    0.43780    1.000
    C399     C        0.26660    0.81481    0.60600    1.000
    H370     H        0.27470    0.79380    0.59140    1.000
    C400     C        0.28670    0.83500    0.65150    1.000
    H371     H        0.30850    0.82890    0.66440    1.000
    C401     C        0.27270    0.86515    0.67720    1.000
    C402     C        0.24660    0.87413    0.64500    1.000
    H372     H        0.23890    0.89590    0.65260    1.000
    C403     C        0.22860    0.85311    0.59870    1.000
    H373     H        0.20870    0.86110    0.57750    1.000
    C404     C        0.28960    0.88767    0.73560    1.000
    H374     H        0.27250    0.89710    0.76930    1.000
    H375     H        0.29990    0.90610    0.70750    1.000
    Mn30     Mn       0.27956    0.63661    0.22380    1.000
    O88      O        0.25940    0.59895    0.18737    1.000
    O89      O        0.19708    0.63482    0.36427    1.000
    O90      O        0.29474    0.67659    0.27264    1.000
    N78      N        0.24382    0.64396    0.29574    1.000
    N79      N        0.24641    0.67336    0.33770    1.000
    N80      N        0.35801    0.93982    0.94060    1.000
    C405     C        0.23429    0.58224    0.21670    1.000
    C406     C        0.22775    0.55130    0.18540    1.000
    H376     H        0.24110    0.54360    0.14460    1.000
    C407     C        0.20276    0.53183    0.21130    1.000
    H377     H        0.19920    0.51090    0.18890    1.000
    C408     C        0.18231    0.54278    0.27100    1.000
    H378     H        0.16500    0.52930    0.28980    1.000
    C409     C        0.18798    0.57335    0.30130    1.000
    H379     H        0.17380    0.58120    0.34060    1.000
    C410     C        0.21366    0.59338    0.27690    1.000
    C411     C        0.21823    0.62525    0.31400    1.000
    C412     C        0.27375    0.68813    0.32170    1.000
    C413     C        0.28283    0.71908    0.36200    1.000
    H380     H        0.26320    0.72900    0.38610    1.000
    H381     H        0.29210    0.73510    0.32510    1.000
    C414     C        0.31040    0.70990    0.42800    1.000
    H382     H        0.30270    0.69110    0.45810    1.000
    H383     H        0.31350    0.72890    0.46190    1.000
    H384     H        0.33130    0.70440    0.40330    1.000
    C415     C        0.33492    0.91934    0.96360    1.000
    H385     H        0.32880    0.91920    0.01610    1.000
    C416     C        0.31916    0.89793    0.91320    1.000
    H386     H        0.30200    0.88410    0.93100    1.000
    C417     C        0.32870    0.89695    0.83640    1.000
    C418     C        0.35188    0.91865    0.81460    1.000
    H387     H        0.35860    0.91930    0.76260    1.000
    C419     C        0.36572    0.93955    0.86530    1.000
    H388     H        0.38160    0.95480    0.84720    1.000
    C420     C        0.31300    0.87330    0.78070    1.000
    H389     H        0.30280    0.85510    0.80980    1.000
    H390     H        0.33030    0.86380    0.74760    1.000
    Mn31     Mn       0.79582    0.82420    0.42144    1.000
    O91      O        0.77079    0.84493    0.49640    1.000
    O92      O        0.77751    0.74527    0.56565    1.000
    O93      O        0.82031    0.79578    0.35258    1.000
    N81      N        0.79019    0.78262    0.47360    1.000
    N82      N        0.80590    0.75553    0.43610    1.000
    C421     C        0.75513    0.83265    0.55430    1.000
    C422     C        0.73497    0.85414    0.59900    1.000
    H391     H        0.73130    0.87590    0.58110    1.000
    C423     C        0.72110    0.84490    0.66470    1.000
    H392     H        0.70810    0.86020    0.69220    1.000
    C424     C        0.72520    0.81360    0.69380    1.000
    H393     H        0.71580    0.80760    0.74160    1.000
    C425     C        0.74380    0.79066    0.65030    1.000
    H394     H        0.74630    0.76880    0.66850    1.000
    C426     C        0.75829    0.79985    0.58160    1.000
    C427     C        0.77600    0.77473    0.53890    1.000
    C428     C        0.82021    0.76529    0.37410    1.000
    C429     C        0.83749    0.74004    0.32550    1.000
    H395     H        0.85030    0.72560    0.36000    1.000
    H396     H        0.82060    0.72630    0.30050    1.000
    C430     C        0.86040    0.75268    0.26410    1.000
    H397     H        0.87600    0.76820    0.28680    1.000
    H398     H        0.87240    0.73420    0.24150    1.000
    H399     H        0.84760    0.76380    0.22430    1.000
    Mn32     Mn       0.78913    0.70912    0.49539    1.000
    O94      O        0.83059    0.69969    0.53507    1.000
    O95      O        0.81744    0.63438    0.34786    1.000
    O96      O        0.74693    0.71262    0.44429    1.000
    N83      N        0.79370    0.67417    0.42073    1.000
    N84      N        0.76550    0.66881    0.37550    1.000
    N85      N        0.76291    0.67619    0.58260    1.000
    C431     C        0.85236    0.67703    0.51390    1.000
    C432     C        0.88153    0.67542    0.55650    1.000
    H400     H        0.88500    0.69050    0.59730    1.000
    C433     C        0.90528    0.65222    0.53980    1.000
    H401     H        0.92440    0.65090    0.57090    1.000
    C434     C        0.90175    0.63109    0.47920    1.000
    H402     H        0.91840    0.61550    0.46730    1.000
    C435     C        0.87342    0.63293    0.43570    1.000
    H403     H        0.87080    0.61840    0.39350    1.000
    C436     C        0.84850    0.65562    0.45230    1.000
    C437     C        0.81888    0.65447    0.40420    1.000
    C438     C        0.74278    0.68975    0.39280    1.000
    C439     C        0.70981    0.68707    0.35540    1.000
    H404     H        0.70890    0.66600    0.32720    1.000
    H405     H        0.70780    0.70500    0.31730    1.000
    C440     C        0.68114    0.68870    0.40770    1.000
    H406     H        0.68360    0.70750    0.44230    1.000
    H407     H        0.66100    0.69120    0.37760    1.000
    H408     H        0.67990    0.66840    0.43780    1.000
    C441     C        0.73340    0.68519    0.60600    1.000
    H409     H        0.72530    0.70620    0.59140    1.000
    C442     C        0.71330    0.66500    0.65150    1.000
    H410     H        0.69150    0.67110    0.66440    1.000
    C443     C        0.72730    0.63485    0.67720    1.000
    C444     C        0.75340    0.62587    0.64500    1.000
    H411     H        0.76110    0.60410    0.65260    1.000
    C445     C        0.77140    0.64689    0.59870    1.000
    H412     H        0.79130    0.63890    0.57750    1.000
    C446     C        0.71040    0.61233    0.73560    1.000
    H413     H        0.72750    0.60290    0.76930    1.000
    H414     H        0.70010    0.59390    0.70750    1.000
    Mn33     Mn       0.72044    0.86339    0.22380    1.000
    O97      O        0.74060    0.90105    0.18737    1.000
    O98      O        0.80292    0.86518    0.36427    1.000
    O99      O        0.70526    0.82341    0.27264    1.000
    N86      N        0.75618    0.85604    0.29574    1.000
    N87      N        0.75359    0.82664    0.33770    1.000
    N88      N        0.64199    0.56018    0.94060    1.000
    C447     C        0.76571    0.91776    0.21670    1.000
    C448     C        0.77225    0.94870    0.18540    1.000
    H415     H        0.75890    0.95640    0.14460    1.000
    C449     C        0.79724    0.96817    0.21130    1.000
    H416     H        0.80080    0.98910    0.18890    1.000
    C450     C        0.81769    0.95722    0.27100    1.000
    H417     H        0.83500    0.97070    0.28980    1.000
    C451     C        0.81202    0.92665    0.30130    1.000
    H418     H        0.82620    0.91880    0.34060    1.000
    C452     C        0.78634    0.90662    0.27690    1.000
    C453     C        0.78177    0.87475    0.31400    1.000
    C454     C        0.72625    0.81187    0.32170    1.000
    C455     C        0.71717    0.78092    0.36200    1.000
    H419     H        0.73680    0.77100    0.38610    1.000
    H420     H        0.70790    0.76490    0.32510    1.000
    C456     C        0.68960    0.79010    0.42800    1.000
    H421     H        0.69730    0.80890    0.45810    1.000
    H422     H        0.68650    0.77110    0.46190    1.000
    H423     H        0.66870    0.79560    0.40330    1.000
    C457     C        0.66508    0.58066    0.96360    1.000
    H424     H        0.67120    0.58080    0.01610    1.000
    C458     C        0.68084    0.60207    0.91320    1.000
    H425     H        0.69800    0.61590    0.93100    1.000
    C459     C        0.67130    0.60305    0.83640    1.000
    C460     C        0.64812    0.58135    0.81460    1.000
    H426     H        0.64140    0.58070    0.76260    1.000
    C461     C        0.63428    0.56045    0.86530    1.000
    H427     H        0.61840    0.54520    0.84720    1.000
    C462     C        0.68700    0.62670    0.78070    1.000
    H428     H        0.69720    0.64490    0.80980    1.000
    H429     H        0.66970    0.63620    0.74760    1.000
    Mn34     Mn       0.29582    0.32420    0.92144    1.000
    O100     O        0.27079    0.34493    0.99640    1.000
    O101     O        0.27751    0.24527    0.06565    1.000
    O102     O        0.32031    0.29578    0.85258    1.000
    N89      N        0.29019    0.28262    0.97360    1.000
    N90      N        0.30590    0.25553    0.93610    1.000
    C463     C        0.25513    0.33265    0.05430    1.000
    C464     C        0.23497    0.35414    0.09900    1.000
    H430     H        0.23130    0.37590    0.08110    1.000
    C465     C        0.22110    0.34490    0.16470    1.000
    H431     H        0.20810    0.36020    0.19220    1.000
    C466     C        0.22520    0.31360    0.19380    1.000
    H432     H        0.21580    0.30760    0.24160    1.000
    C467     C        0.24380    0.29066    0.15030    1.000
    H433     H        0.24630    0.26880    0.16850    1.000
    C468     C        0.25829    0.29985    0.08160    1.000
    C469     C        0.27600    0.27473    0.03890    1.000
    C470     C        0.32021    0.26529    0.87410    1.000
    C471     C        0.33749    0.24004    0.82550    1.000
    H434     H        0.35030    0.22560    0.86000    1.000
    H435     H        0.32060    0.22630    0.80050    1.000
    C472     C        0.36040    0.25268    0.76410    1.000
    H436     H        0.37600    0.26820    0.78680    1.000
    H437     H        0.37240    0.23420    0.74150    1.000
    H438     H        0.34760    0.26380    0.72430    1.000
    Mn35     Mn       0.28913    0.20912    0.99539    1.000
    O103     O        0.33059    0.19969    0.03507    1.000
    O104     O        0.31744    0.13438    0.84786    1.000
    O105     O        0.24693    0.21262    0.94429    1.000
    N91      N        0.29370    0.17417    0.92073    1.000
    N92      N        0.26550    0.16881    0.87550    1.000
    N93      N        0.26291    0.17619    0.08260    1.000
    C473     C        0.35236    0.17703    0.01390    1.000
    C474     C        0.38153    0.17542    0.05650    1.000
    H439     H        0.38500    0.19050    0.09730    1.000
    C475     C        0.40528    0.15222    0.03980    1.000
    H440     H        0.42440    0.15090    0.07090    1.000
    C476     C        0.40175    0.13109    0.97920    1.000
    H441     H        0.41840    0.11550    0.96730    1.000
    C477     C        0.37342    0.13293    0.93570    1.000
    H442     H        0.37080    0.11840    0.89350    1.000
    C478     C        0.34850    0.15562    0.95230    1.000
    C479     C        0.31888    0.15447    0.90420    1.000
    C480     C        0.24278    0.18975    0.89280    1.000
    C481     C        0.20981    0.18707    0.85540    1.000
    H443     H        0.20890    0.16600    0.82720    1.000
    H444     H        0.20780    0.20500    0.81730    1.000
    C482     C        0.18114    0.18870    0.90770    1.000
    H445     H        0.18360    0.20750    0.94230    1.000
    H446     H        0.16100    0.19120    0.87760    1.000
    H447     H        0.17990    0.16840    0.93780    1.000
    C483     C        0.23340    0.18519    0.10600    1.000
    H448     H        0.22530    0.20620    0.09140    1.000
    C484     C        0.21330    0.16500    0.15150    1.000
    H449     H        0.19150    0.17110    0.16440    1.000
    C485     C        0.22730    0.13485    0.17720    1.000
    C486     C        0.25340    0.12587    0.14500    1.000
    H450     H        0.26110    0.10410    0.15260    1.000
    C487     C        0.27140    0.14689    0.09870    1.000
    H451     H        0.29130    0.13890    0.07750    1.000
    C488     C        0.21040    0.11233    0.23560    1.000
    H452     H        0.22750    0.10290    0.26930    1.000
    H453     H        0.20010    0.09390    0.20750    1.000
    Mn36     Mn       0.22044    0.36339    0.72380    1.000
    O106     O        0.24060    0.40105    0.68737    1.000
    O107     O        0.30292    0.36518    0.86427    1.000
    O108     O        0.20526    0.32341    0.77264    1.000
    N94      N        0.25618    0.35604    0.79574    1.000
    N95      N        0.25359    0.32664    0.83770    1.000
    N96      N        0.14199    0.06018    0.44060    1.000
    C489     C        0.26571    0.41776    0.71670    1.000
    C490     C        0.27225    0.44870    0.68540    1.000
    H454     H        0.25890    0.45640    0.64460    1.000
    C491     C        0.29724    0.46817    0.71130    1.000
    H455     H        0.30080    0.48910    0.68890    1.000
    C492     C        0.31769    0.45722    0.77100    1.000
    H456     H        0.33500    0.47070    0.78980    1.000
    C493     C        0.31202    0.42665    0.80130    1.000
    H457     H        0.32620    0.41880    0.84060    1.000
    C494     C        0.28634    0.40662    0.77690    1.000
    C495     C        0.28177    0.37475    0.81400    1.000
    C496     C        0.22625    0.31187    0.82170    1.000
    C497     C        0.21717    0.28092    0.86200    1.000
    H458     H        0.23680    0.27100    0.88610    1.000
    H459     H        0.20790    0.26490    0.82510    1.000
    C498     C        0.18960    0.29010    0.92800    1.000
    H460     H        0.19730    0.30890    0.95810    1.000
    H461     H        0.18650    0.27110    0.96190    1.000
    H462     H        0.16870    0.29560    0.90330    1.000
    C499     C        0.16508    0.08066    0.46360    1.000
    H463     H        0.17120    0.08080    0.51610    1.000
    C500     C        0.18084    0.10207    0.41320    1.000
    H464     H        0.19800    0.11590    0.43100    1.000
    C501     C        0.17130    0.10305    0.33640    1.000
    C502     C        0.14812    0.08135    0.31460    1.000
    H465     H        0.14140    0.08070    0.26260    1.000
    C503     C        0.13428    0.06045    0.36530    1.000
    H466     H        0.11840    0.04520    0.34720    1.000
    C504     C        0.18700    0.12670    0.28070    1.000
    H467     H        0.19720    0.14490    0.30980    1.000
    H468     H        0.16970    0.13620    0.24760    1.000
    Mn37     Mn       0.07420    0.45418    0.67144    1.000
    O109     O        0.09493    0.47921    0.74640    1.000
    O110     O        0.99527    0.47249    0.81565    1.000
    O111     O        0.04578    0.42969    0.60258    1.000
    N97      N        0.03262    0.45981    0.72360    1.000
    N98      N        0.00553    0.44410    0.68610    1.000
    C505     C        0.08265    0.49487    0.80430    1.000
    C506     C        0.10414    0.51503    0.84900    1.000
    H469     H        0.12590    0.51870    0.83110    1.000
    C507     C        0.09490    0.52890    0.91470    1.000
    H470     H        0.11020    0.54190    0.94220    1.000
    C508     C        0.06360    0.52480    0.94380    1.000
    H471     H        0.05760    0.53420    0.99160    1.000
    C509     C        0.04066    0.50620    0.90030    1.000
    H472     H        0.01880    0.50370    0.91850    1.000
    C510     C        0.04985    0.49171    0.83160    1.000
    C511     C        0.02473    0.47400    0.78890    1.000
    C512     C        0.01529    0.42979    0.62410    1.000
    C513     C        0.99004    0.41251    0.57550    1.000
    H473     H        0.97560    0.39970    0.61000    1.000
    H474     H        0.97630    0.42940    0.55050    1.000
    C514     C        0.00268    0.38960    0.51410    1.000
    H475     H        0.01820    0.37400    0.53680    1.000
    H476     H        0.98420    0.37760    0.49150    1.000
    H477     H        0.01380    0.40240    0.47430    1.000
    Mn38     Mn       0.95912    0.46087    0.74539    1.000
    O112     O        0.94969    0.41941    0.78507    1.000
    O113     O        0.88438    0.43256    0.59786    1.000
    O114     O        0.96262    0.50307    0.69429    1.000
    N99      N        0.92417    0.45630    0.67073    1.000
    N100     N        0.91881    0.48450    0.62550    1.000
    N101     N        0.92619    0.48709    0.83260    1.000
    C515     C        0.92703    0.39764    0.76390    1.000
    C516     C        0.92542    0.36847    0.80650    1.000
    H478     H        0.94050    0.36500    0.84730    1.000
    C517     C        0.90222    0.34472    0.78980    1.000
    H479     H        0.90090    0.32560    0.82090    1.000
    C518     C        0.88109    0.34825    0.72920    1.000
    H480     H        0.86550    0.33160    0.71730    1.000
    C519     C        0.88293    0.37658    0.68570    1.000
    H481     H        0.86840    0.37920    0.64350    1.000
    C520     C        0.90562    0.40150    0.70230    1.000
    C521     C        0.90447    0.43112    0.65420    1.000
    C522     C        0.93975    0.50722    0.64280    1.000
    C523     C        0.93707    0.54019    0.60540    1.000
    H482     H        0.91600    0.54110    0.57720    1.000
    H483     H        0.95500    0.54220    0.56730    1.000
    C524     C        0.93870    0.56886    0.65770    1.000
    H484     H        0.95750    0.56640    0.69230    1.000
    H485     H        0.94120    0.58900    0.62760    1.000
    H486     H        0.91840    0.57010    0.68780    1.000
    C525     C        0.93519    0.51660    0.85600    1.000
    H487     H        0.95620    0.52470    0.84140    1.000
    C526     C        0.91500    0.53670    0.90150    1.000
    H488     H        0.92110    0.55850    0.91440    1.000
    C527     C        0.88485    0.52270    0.92720    1.000
    C528     C        0.87587    0.49660    0.89500    1.000
    H489     H        0.85410    0.48890    0.90260    1.000
    C529     C        0.89689    0.47860    0.84870    1.000
    H490     H        0.88890    0.45870    0.82750    1.000
    C530     C        0.86233    0.53960    0.98560    1.000
    H491     H        0.85290    0.52250    0.01930    1.000
    H492     H        0.84390    0.54990    0.95750    1.000
    Mn39     Mn       0.11339    0.52956    0.47380    1.000
    O115     O        0.15105    0.50940    0.43737    1.000
    O116     O        0.11518    0.44708    0.61427    1.000
    O117     O        0.07341    0.54474    0.52264    1.000
    N102     N        0.10604    0.49382    0.54574    1.000
    N103     N        0.07664    0.49641    0.58770    1.000
    N104     N        0.81018    0.60801    0.19060    1.000
    C531     C        0.16776    0.48429    0.46670    1.000
    C532     C        0.19870    0.47775    0.43540    1.000
    H493     H        0.20640    0.49110    0.39460    1.000
    C533     C        0.21817    0.45276    0.46130    1.000
    H494     H        0.23910    0.44920    0.43890    1.000
    C534     C        0.20722    0.43231    0.52100    1.000
    H495     H        0.22070    0.41500    0.53980    1.000
    C535     C        0.17665    0.43798    0.55130    1.000
    H496     H        0.16880    0.42380    0.59060    1.000
    C536     C        0.15662    0.46366    0.52690    1.000
    C537     C        0.12475    0.46823    0.56400    1.000
    C538     C        0.06187    0.52375    0.57170    1.000
    C539     C        0.03092    0.53283    0.61200    1.000
    H497     H        0.02100    0.51320    0.63610    1.000
    H498     H        0.01490    0.54210    0.57510    1.000
    C540     C        0.04010    0.56040    0.67800    1.000
    H499     H        0.05890    0.55270    0.70810    1.000
    H500     H        0.02110    0.56350    0.71190    1.000
    H501     H        0.04560    0.58130    0.65330    1.000
    C541     C        0.83066    0.58492    0.21360    1.000
    H502     H        0.83080    0.57880    0.26610    1.000
    C542     C        0.85207    0.56916    0.16320    1.000
    H503     H        0.86590    0.55200    0.18100    1.000
    C543     C        0.85305    0.57870    0.08640    1.000
    C544     C        0.83135    0.60188    0.06460    1.000
    H504     H        0.83070    0.60860    0.01260    1.000
    C545     C        0.81045    0.61572    0.11530    1.000
    H505     H        0.79520    0.63160    0.09720    1.000
    C546     C        0.87670    0.56300    0.03070    1.000
    H506     H        0.89490    0.55280    0.05980    1.000
    H507     H        0.88620    0.58030    0.99760    1.000
    Mn40     Mn       0.57420    0.95418    0.17144    1.000
    O118     O        0.59493    0.97921    0.24640    1.000
    O119     O        0.49527    0.97249    0.31565    1.000
    O120     O        0.54578    0.92969    0.10258    1.000
    N105     N        0.53262    0.95981    0.22360    1.000
    N106     N        0.50553    0.94410    0.18610    1.000
    C547     C        0.58265    0.99487    0.30430    1.000
    C548     C        0.60414    0.01503    0.34900    1.000
    H508     H        0.62590    0.01870    0.33110    1.000
    C549     C        0.59490    0.02890    0.41470    1.000
    H509     H        0.61020    0.04190    0.44220    1.000
    C550     C        0.56360    0.02480    0.44380    1.000
    H510     H        0.55760    0.03420    0.49160    1.000
    C551     C        0.54066    0.00620    0.40030    1.000
    H511     H        0.51880    0.00370    0.41850    1.000
    C552     C        0.54985    0.99171    0.33160    1.000
    C553     C        0.52473    0.97400    0.28890    1.000
    C554     C        0.51529    0.92979    0.12410    1.000
    C555     C        0.49004    0.91251    0.07550    1.000
    H512     H        0.47560    0.89970    0.11000    1.000
    H513     H        0.47630    0.92940    0.05050    1.000
    C556     C        0.50268    0.88960    0.01410    1.000
    H514     H        0.51820    0.87400    0.03680    1.000
    H515     H        0.48420    0.87760    0.99150    1.000
    H516     H        0.51380    0.90240    0.97430    1.000
    Mn41     Mn       0.45912    0.96087    0.24539    1.000
    O121     O        0.44969    0.91941    0.28507    1.000
    O122     O        0.38438    0.93256    0.09786    1.000
    O123     O        0.46262    0.00307    0.19429    1.000
    N107     N        0.42417    0.95630    0.17073    1.000
    N108     N        0.41881    0.98450    0.12550    1.000
    N109     N        0.42619    0.98709    0.33260    1.000
    C557     C        0.42703    0.89764    0.26390    1.000
    C558     C        0.42542    0.86847    0.30650    1.000
    H517     H        0.44050    0.86500    0.34730    1.000
    C559     C        0.40222    0.84472    0.28980    1.000
    H518     H        0.40090    0.82560    0.32090    1.000
    C560     C        0.38109    0.84825    0.22920    1.000
    H519     H        0.36550    0.83160    0.21730    1.000
    C561     C        0.38293    0.87658    0.18570    1.000
    H520     H        0.36840    0.87920    0.14350    1.000
    C562     C        0.40562    0.90150    0.20230    1.000
    C563     C        0.40447    0.93112    0.15420    1.000
    C564     C        0.43975    0.00722    0.14280    1.000
    C565     C        0.43707    0.04019    0.10540    1.000
    H521     H        0.41600    0.04110    0.07720    1.000
    H522     H        0.45500    0.04220    0.06730    1.000
    C566     C        0.43870    0.06886    0.15770    1.000
    H523     H        0.45750    0.06640    0.19230    1.000
    H524     H        0.44120    0.08900    0.12760    1.000
    H525     H        0.41840    0.07010    0.18780    1.000
    C567     C        0.43519    0.01660    0.35600    1.000
    H526     H        0.45620    0.02470    0.34140    1.000
    C568     C        0.41500    0.03670    0.40150    1.000
    H527     H        0.42110    0.05850    0.41440    1.000
    C569     C        0.38485    0.02270    0.42720    1.000
    C570     C        0.37587    0.99660    0.39500    1.000
    H528     H        0.35410    0.98890    0.40260    1.000
    C571     C        0.39689    0.97860    0.34870    1.000
    H529     H        0.38890    0.95870    0.32750    1.000
    C572     C        0.36233    0.03960    0.48560    1.000
    H530     H        0.35290    0.02250    0.51930    1.000
    H531     H        0.34390    0.04990    0.45750    1.000
    Mn42     Mn       0.61339    0.02956    0.97380    1.000
    O124     O        0.65105    0.00940    0.93737    1.000
    O125     O        0.61518    0.94708    0.11427    1.000
    O126     O        0.57341    0.04474    0.02264    1.000
    N110     N        0.60604    0.99382    0.04574    1.000
    N111     N        0.57664    0.99641    0.08770    1.000
    N112     N        0.31018    0.10801    0.69060    1.000
    C573     C        0.66776    0.98429    0.96670    1.000
    C574     C        0.69870    0.97775    0.93540    1.000
    H532     H        0.70640    0.99110    0.89460    1.000
    C575     C        0.71817    0.95276    0.96130    1.000
    H533     H        0.73910    0.94920    0.93890    1.000
    C576     C        0.70722    0.93231    0.02100    1.000
    H534     H        0.72070    0.91500    0.03980    1.000
    C577     C        0.67665    0.93798    0.05130    1.000
    H535     H        0.66880    0.92380    0.09060    1.000
    C578     C        0.65662    0.96366    0.02690    1.000
    C579     C        0.62475    0.96823    0.06400    1.000
    C580     C        0.56187    0.02375    0.07170    1.000
    C581     C        0.53092    0.03283    0.11200    1.000
    H536     H        0.52100    0.01320    0.13610    1.000
    H537     H        0.51490    0.04210    0.07510    1.000
    C582     C        0.54010    0.06040    0.17800    1.000
    H538     H        0.55890    0.05270    0.20810    1.000
    H539     H        0.52110    0.06350    0.21190    1.000
    H540     H        0.54560    0.08130    0.15330    1.000
    C583     C        0.33066    0.08492    0.71360    1.000
    H541     H        0.33080    0.07880    0.76610    1.000
    C584     C        0.35207    0.06916    0.66320    1.000
    H542     H        0.36590    0.05200    0.68100    1.000
    C585     C        0.35305    0.07870    0.58640    1.000
    C586     C        0.33135    0.10188    0.56460    1.000
    H543     H        0.33070    0.10860    0.51260    1.000
    C587     C        0.31045    0.11572    0.61530    1.000
    H544     H        0.29520    0.13160    0.59720    1.000
    C588     C        0.37670    0.06300    0.53070    1.000
    H545     H        0.39490    0.05280    0.55980    1.000
    H546     H        0.38620    0.08030    0.49760    1.000
    Mn43     Mn       0.42580    0.54582    0.17144    1.000
    O127     O        0.40507    0.52079    0.24640    1.000
    O128     O        0.50473    0.52751    0.31565    1.000
    O129     O        0.45422    0.57031    0.10258    1.000
    N113     N        0.46738    0.54019    0.22360    1.000
    N114     N        0.49447    0.55590    0.18610    1.000
    C589     C        0.41735    0.50513    0.30430    1.000
    C590     C        0.39586    0.48497    0.34900    1.000
    H547     H        0.37410    0.48130    0.33110    1.000
    C591     C        0.40510    0.47110    0.41470    1.000
    H548     H        0.38980    0.45810    0.44220    1.000
    C592     C        0.43640    0.47520    0.44380    1.000
    H549     H        0.44240    0.46580    0.49160    1.000
    C593     C        0.45934    0.49380    0.40030    1.000
    H550     H        0.48120    0.49630    0.41850    1.000
    C594     C        0.45015    0.50829    0.33160    1.000
    C595     C        0.47527    0.52600    0.28890    1.000
    C596     C        0.48471    0.57021    0.12410    1.000
    C597     C        0.50996    0.58749    0.07550    1.000
    H551     H        0.52440    0.60030    0.11000    1.000
    H552     H        0.52370    0.57060    0.05050    1.000
    C598     C        0.49732    0.61040    0.01410    1.000
    H553     H        0.48180    0.62600    0.03680    1.000
    H554     H        0.51580    0.62240    0.99150    1.000
    H555     H        0.48620    0.59760    0.97430    1.000
    Mn44     Mn       0.54088    0.53913    0.24539    1.000
    O130     O        0.55031    0.58059    0.28507    1.000
    O131     O        0.61562    0.56744    0.09786    1.000
    O132     O        0.53738    0.49693    0.19429    1.000
    N115     N        0.57583    0.54370    0.17073    1.000
    N116     N        0.58119    0.51550    0.12550    1.000
    N117     N        0.57381    0.51291    0.33260    1.000
    C599     C        0.57297    0.60236    0.26390    1.000
    C600     C        0.57458    0.63153    0.30650    1.000
    H556     H        0.55950    0.63500    0.34730    1.000
    C601     C        0.59778    0.65528    0.28980    1.000
    H557     H        0.59910    0.67440    0.32090    1.000
    C602     C        0.61891    0.65175    0.22920    1.000
    H558     H        0.63450    0.66840    0.21730    1.000
    C603     C        0.61707    0.62342    0.18570    1.000
    H559     H        0.63160    0.62080    0.14350    1.000
    C604     C        0.59438    0.59850    0.20230    1.000
    C605     C        0.59553    0.56888    0.15420    1.000
    C606     C        0.56025    0.49278    0.14280    1.000
    C607     C        0.56293    0.45981    0.10540    1.000
    H560     H        0.58400    0.45890    0.07720    1.000
    H561     H        0.54500    0.45780    0.06730    1.000
    C608     C        0.56130    0.43114    0.15770    1.000
    H562     H        0.54250    0.43360    0.19230    1.000
    H563     H        0.55880    0.41100    0.12760    1.000
    H564     H        0.58160    0.42990    0.18780    1.000
    C609     C        0.56481    0.48340    0.35600    1.000
    H565     H        0.54380    0.47530    0.34140    1.000
    C610     C        0.58500    0.46330    0.40150    1.000
    H566     H        0.57890    0.44150    0.41440    1.000
    C611     C        0.61515    0.47730    0.42720    1.000
    C612     C        0.62413    0.50340    0.39500    1.000
    H567     H        0.64590    0.51110    0.40260    1.000
    C613     C        0.60311    0.52140    0.34870    1.000
    H568     H        0.61110    0.54130    0.32750    1.000
    C614     C        0.63767    0.46040    0.48560    1.000
    H569     H        0.64710    0.47750    0.51930    1.000
    H570     H        0.65610    0.45010    0.45750    1.000
    Mn45     Mn       0.38661    0.47044    0.97380    1.000
    O133     O        0.34895    0.49060    0.93737    1.000
    O134     O        0.38482    0.55292    0.11427    1.000
    O135     O        0.42659    0.45526    0.02264    1.000
    N118     N        0.39396    0.50618    0.04574    1.000
    N119     N        0.42336    0.50359    0.08770    1.000
    N120     N        0.68982    0.39199    0.69060    1.000
    C615     C        0.33224    0.51571    0.96670    1.000
    C616     C        0.30130    0.52225    0.93540    1.000
    H571     H        0.29360    0.50890    0.89460    1.000
    C617     C        0.28183    0.54724    0.96130    1.000
    H572     H        0.26090    0.55080    0.93890    1.000
    C618     C        0.29278    0.56769    0.02100    1.000
    H573     H        0.27930    0.58500    0.03980    1.000
    C619     C        0.32335    0.56202    0.05130    1.000
    H574     H        0.33120    0.57620    0.09060    1.000
    C620     C        0.34338    0.53634    0.02690    1.000
    C621     C        0.37525    0.53177    0.06400    1.000
    C622     C        0.43813    0.47625    0.07170    1.000
    C623     C        0.46908    0.46717    0.11200    1.000
    H575     H        0.47900    0.48680    0.13610    1.000
    H576     H        0.48510    0.45790    0.07510    1.000
    C624     C        0.45990    0.43960    0.17800    1.000
    H577     H        0.44110    0.44730    0.20810    1.000
    H578     H        0.47890    0.43650    0.21190    1.000
    H579     H        0.45440    0.41870    0.15330    1.000
    C625     C        0.66934    0.41508    0.71360    1.000
    H580     H        0.66920    0.42120    0.76610    1.000
    C626     C        0.64793    0.43084    0.66320    1.000
    H581     H        0.63410    0.44800    0.68100    1.000
    C627     C        0.64695    0.42130    0.58640    1.000
    C628     C        0.66865    0.39812    0.56460    1.000
    H582     H        0.66930    0.39140    0.51260    1.000
    C629     C        0.68955    0.38428    0.61530    1.000
    H583     H        0.70480    0.36840    0.59720    1.000
    C630     C        0.62330    0.43700    0.53070    1.000
    H584     H        0.60510    0.44720    0.55980    1.000
    H585     H        0.61380    0.41970    0.49760    1.000
    Mn46     Mn       0.92580    0.04582    0.67144    1.000
    O136     O        0.90507    0.02079    0.74640    1.000
    O137     O        0.00473    0.02751    0.81565    1.000
    O138     O        0.95422    0.07031    0.60258    1.000
    N121     N        0.96738    0.04019    0.72360    1.000
    N122     N        0.99447    0.05590    0.68610    1.000
    C631     C        0.91735    0.00513    0.80430    1.000
    C632     C        0.89586    0.98497    0.84900    1.000
    H586     H        0.87410    0.98130    0.83110    1.000
    C633     C        0.90510    0.97110    0.91470    1.000
    H587     H        0.88980    0.95810    0.94220    1.000
    C634     C        0.93640    0.97520    0.94380    1.000
    H588     H        0.94240    0.96580    0.99160    1.000
    C635     C        0.95934    0.99380    0.90030    1.000
    H589     H        0.98120    0.99630    0.91850    1.000
    C636     C        0.95015    0.00829    0.83160    1.000
    C637     C        0.97527    0.02600    0.78890    1.000
    C638     C        0.98471    0.07021    0.62410    1.000
    C639     C        0.00996    0.08749    0.57550    1.000
    H590     H        0.02440    0.10030    0.61000    1.000
    H591     H        0.02370    0.07060    0.55050    1.000
    C640     C        0.99732    0.11040    0.51410    1.000
    H592     H        0.98180    0.12600    0.53680    1.000
    H593     H        0.01580    0.12240    0.49150    1.000
    H594     H        0.98620    0.09760    0.47430    1.000
    Mn47     Mn       0.04088    0.03913    0.74539    1.000
    O139     O        0.05031    0.08059    0.78507    1.000
    O140     O        0.11562    0.06744    0.59786    1.000
    O141     O        0.03738    0.99693    0.69429    1.000
    N123     N        0.07583    0.04370    0.67073    1.000
    N124     N        0.08119    0.01550    0.62550    1.000
    N125     N        0.07381    0.01291    0.83260    1.000
    C641     C        0.07297    0.10236    0.76390    1.000
    C642     C        0.07458    0.13153    0.80650    1.000
    H595     H        0.05950    0.13500    0.84730    1.000
    C643     C        0.09778    0.15528    0.78980    1.000
    H596     H        0.09910    0.17440    0.82090    1.000
    C644     C        0.11891    0.15175    0.72920    1.000
    H597     H        0.13450    0.16840    0.71730    1.000
    C645     C        0.11707    0.12342    0.68570    1.000
    H598     H        0.13160    0.12080    0.64350    1.000
    C646     C        0.09438    0.09850    0.70230    1.000
    C647     C        0.09553    0.06888    0.65420    1.000
    C648     C        0.06025    0.99278    0.64280    1.000
    C649     C        0.06293    0.95981    0.60540    1.000
    H599     H        0.08400    0.95890    0.57720    1.000
    H600     H        0.04500    0.95780    0.56730    1.000
    C650     C        0.06130    0.93114    0.65770    1.000
    H601     H        0.04250    0.93360    0.69230    1.000
    H602     H        0.05880    0.91100    0.62760    1.000
    H603     H        0.08160    0.92990    0.68780    1.000
    C651     C        0.06481    0.98340    0.85600    1.000
    H604     H        0.04380    0.97530    0.84140    1.000
    C652     C        0.08500    0.96330    0.90150    1.000
    H605     H        0.07890    0.94150    0.91440    1.000
    C653     C        0.11515    0.97730    0.92720    1.000
    C654     C        0.12413    0.00340    0.89500    1.000
    H606     H        0.14590    0.01110    0.90260    1.000
    C655     C        0.10311    0.02140    0.84870    1.000
    H607     H        0.11110    0.04130    0.82750    1.000
    C656     C        0.13767    0.96040    0.98560    1.000
    H608     H        0.14710    0.97750    0.01930    1.000
    H609     H        0.15610    0.95010    0.95750    1.000
    Mn48     Mn       0.88661    0.97044    0.47380    1.000
    O142     O        0.84895    0.99060    0.43737    1.000
    O143     O        0.88482    0.05292    0.61427    1.000
    O144     O        0.92659    0.95526    0.52264    1.000
    N126     N        0.89396    0.00618    0.54574    1.000
    N127     N        0.92336    0.00359    0.58770    1.000
    N128     N        0.18982    0.89199    0.19060    1.000
    C657     C        0.83224    0.01571    0.46670    1.000
    C658     C        0.80130    0.02225    0.43540    1.000
    H610     H        0.79360    0.00890    0.39460    1.000
    C659     C        0.78183    0.04724    0.46130    1.000
    H611     H        0.76090    0.05080    0.43890    1.000
    C660     C        0.79278    0.06769    0.52100    1.000
    H612     H        0.77930    0.08500    0.53980    1.000
    C661     C        0.82335    0.06202    0.55130    1.000
    H613     H        0.83120    0.07620    0.59060    1.000
    C662     C        0.84338    0.03634    0.52690    1.000
    C663     C        0.87525    0.03177    0.56400    1.000
    C664     C        0.93813    0.97625    0.57170    1.000
    C665     C        0.96908    0.96717    0.61200    1.000
    H614     H        0.97900    0.98680    0.63610    1.000
    H615     H        0.98510    0.95790    0.57510    1.000
    C666     C        0.95990    0.93960    0.67800    1.000
    H616     H        0.94110    0.94730    0.70810    1.000
    H617     H        0.97890    0.93650    0.71190    1.000
    H618     H        0.95440    0.91870    0.65330    1.000
    C667     C        0.16934    0.91508    0.21360    1.000
    H619     H        0.16920    0.92120    0.26610    1.000
    C668     C        0.14793    0.93084    0.16320    1.000
    H620     H        0.13410    0.94800    0.18100    1.000
    C669     C        0.14695    0.92130    0.08640    1.000
    C670     C        0.16865    0.89812    0.06460    1.000
    H621     H        0.16930    0.89140    0.01260    1.000
    C671     C        0.18955    0.88428    0.11530    1.000
    H622     H        0.20480    0.86840    0.09720    1.000
    C672     C        0.12330    0.93700    0.03070    1.000
    H623     H        0.10510    0.94720    0.05980    1.000
    H624     H        0.11380    0.91970    0.99760    1.000
