data_functionalizedCrystal
_audit_creation_method	'EQeq! by Chris Wilmer'
_symmetry_space_group_name_H-M	'P1'
_symmetry_Int_Tables_number	1
_symmetry_cell_setting	triclinic
loop_
_symmetry_equiv_pos_as_xyz
  x,y,z
_cell_length_a	11.0942
_cell_length_b	11.0942
_cell_length_c	21.044
_cell_angle_alpha	95.893
_cell_angle_beta	95.893
_cell_angle_gamma	107.215
loop_
_atom_site_label
_atom_site_type_symbol
_atom_site_fract_x
_atom_site_fract_y
_atom_site_fract_z
_atom_site_charge
Mof_Mg	Mg	0.98216	0.49898	0.19429	1.456
Mof_Mg	Mg	0.50102	0.01784	0.30571	1.456
Mof_Mg	Mg	0.01784	0.50102	0.80571	1.457
Mof_Mg	Mg	0.49898	0.98216	0.69429	1.457
Mof_Mg	Mg	0.75266	0.24734	0.25	1.478
Mof_Mg	Mg	0.24734	0.75266	0.75	1.478
Mof_H 	H 	0.8986	0.9796	0.1493	0.029
Mof_H 	H 	0.0126	0.2424	0.0304	0.035
Mof_H 	H 	0.9346	0.8242	0.078	0.043
Mof_H 	H 	0.7198	0.6064	0.077	0.039
Mof_H 	H 	0.4767	0.2643	0.0975	0.037
Mof_H 	H 	0.6635	0.7249	0.9894	0.059
Mof_H 	H 	0.0055	0.7223	0.396	0.035
Mof_H 	H 	0.9499	0.3435	0.3892	0.052
Mof_H 	H 	0.0314	0.7482	0.5071	0.066
Mof_H 	H 	0.0204	0.1014	0.3507	0.027
Mof_H 	H 	0.7576	0.9874	0.4696	0.031
Mof_H 	H 	0.1758	0.0654	0.422	0.044
Mof_H 	H 	0.3936	0.2802	0.423	0.039
Mof_H 	H 	0.7357	0.5233	0.4025	0.037
Mof_H 	H 	0.2751	0.3365	0.5106	0.059
Mof_H 	H 	0.2777	0.9945	0.104	0.04
Mof_H 	H 	0.6565	0.0501	0.1108	0.052
Mof_H 	H 	0.2518	0.9686	0.9929	0.059
Mof_H 	H 	0.1014	0.0204	0.8507	0.029
Mof_H 	H 	0.9874	0.7576	0.9696	0.035
Mof_H 	H 	0.0654	0.1758	0.922	0.043
Mof_H 	H 	0.2802	0.3936	0.923	0.039
Mof_H 	H 	0.5233	0.7357	0.9025	0.037
Mof_H 	H 	0.3365	0.2751	0.0106	0.059
Mof_H 	H 	0.9945	0.2777	0.604	0.035
Mof_H 	H 	0.0501	0.6565	0.6108	0.052
Mof_H 	H 	0.9686	0.2518	0.4929	0.066
Mof_H 	H 	0.9796	0.8986	0.6493	0.027
Mof_H 	H 	0.2424	0.0126	0.5304	0.031
Mof_H 	H 	0.8242	0.9346	0.578	0.044
Mof_H 	H 	0.6064	0.7198	0.577	0.039
Mof_H 	H 	0.2643	0.4767	0.5975	0.037
Mof_H 	H 	0.7249	0.6635	0.4894	0.059
Mof_H 	H 	0.7223	0.0055	0.896	0.04
Mof_H 	H 	0.3435	0.9499	0.8892	0.052
Mof_H 	H 	0.7482	0.0314	0.0071	0.059
Mof_C 	C 	0.9185	0.2245	0.14108	0.422
Mof_C 	C 	0.9504	0.127	0.09559	-0.115
Mof_C 	C 	0.9279	0.0005	0.10979	0.019
Mof_C 	C 	0.994	0.157	0.0391	-0.022
Mof_C 	C 	0.0124	0.0632	0.99268	0.01
Mof_C 	C 	0.9478	0.9078	0.06716	-0.091
Mof_C 	C 	0.70638	0.42482	0.1502	0.431
Mof_C 	C 	0.61282	0.43558	0.09528	-0.115
Mof_C 	C 	0.64199	0.53981	0.06329	-0.024
Mof_C 	C 	0.5577	0.5497	0.01002	0.013
Mof_C 	C 	0.4971	0.3363	0.07516	0.022
Mof_C 	C 	0.5862	0.6572	0.97623	-0.094
Mof_C 	C 	0.96214	0.51586	0.31065	0.355
Mof_C 	C 	0.97428	0.52832	0.38242	-0.098
Mof_C 	C 	0.99995	0.65065	0.41802	0.009
Mof_C 	C 	0.96777	0.42523	0.41356	-0.034
Mof_C 	C 	0.98757	0.43863	0.48224	0.023
Mof_C 	C 	0.0167	0.6661	0.48373	-0.091
Mof_C 	C 	0.7755	0.0815	0.35892	0.423
Mof_C 	C 	0.873	0.0496	0.40441	-0.119
Mof_C 	C 	0.9995	0.0721	0.39021	0.025
Mof_C 	C 	0.843	0.006	0.4609	-0.015
Mof_C 	C 	0.9368	0.9876	0.50732	0.009
Mof_C 	C 	0.0922	0.0522	0.43284	-0.095
Mof_C 	C 	0.57518	0.29362	0.3498	0.431
Mof_C 	C 	0.56442	0.38718	0.40472	-0.115
Mof_C 	C 	0.46019	0.35801	0.43671	-0.024
Mof_C 	C 	0.4503	0.4423	0.48998	0.013
Mof_C 	C 	0.6637	0.5029	0.42484	0.022
Mof_C 	C 	0.3428	0.4138	0.52377	-0.094
Mof_C 	C 	0.48414	0.03786	0.18935	0.353
Mof_C 	C 	0.47168	0.02572	0.11758	-0.094
Mof_C 	C 	0.34935	5e-05	0.08198	-0.003
Mof_C 	C 	0.57477	0.03223	0.08644	-0.034
Mof_C 	C 	0.56137	0.01243	0.01776	0.018
Mof_C 	C 	0.3339	0.9833	0.01627	-0.075
Mof_C 	C 	0.0815	0.7755	0.85892	0.422
Mof_C 	C 	0.0496	0.873	0.90441	-0.115
Mof_C 	C 	0.0721	0.9995	0.89021	0.019
Mof_C 	C 	0.006	0.843	0.9609	-0.022
Mof_C 	C 	0.9876	0.9368	0.00732	0.01
Mof_C 	C 	0.0522	0.0922	0.93284	-0.091
Mof_C 	C 	0.29362	0.57518	0.8498	0.431
Mof_C 	C 	0.38718	0.56442	0.90472	-0.115
Mof_C 	C 	0.35801	0.46019	0.93671	-0.024
Mof_C 	C 	0.4423	0.4503	0.98998	0.013
Mof_C 	C 	0.5029	0.6637	0.92484	0.022
Mof_C 	C 	0.4138	0.3428	0.02377	-0.094
Mof_C 	C 	0.03786	0.48414	0.68935	0.355
Mof_C 	C 	0.02572	0.47168	0.61758	-0.098
Mof_C 	C 	5e-05	0.34935	0.58198	0.009
Mof_C 	C 	0.03223	0.57477	0.58644	-0.034
Mof_C 	C 	0.01243	0.56137	0.51776	0.023
Mof_C 	C 	0.9833	0.3339	0.51627	-0.091
Mof_C 	C 	0.2245	0.9185	0.64108	0.423
Mof_C 	C 	0.127	0.9504	0.59559	-0.119
Mof_C 	C 	0.0005	0.9279	0.60979	0.025
Mof_C 	C 	0.157	0.994	0.5391	-0.015
Mof_C 	C 	0.0632	0.0124	0.49268	0.009
Mof_C 	C 	0.9078	0.9478	0.56716	-0.095
Mof_C 	C 	0.42482	0.70638	0.6502	0.431
Mof_C 	C 	0.43558	0.61282	0.59528	-0.115
Mof_C 	C 	0.53981	0.64199	0.56329	-0.024
Mof_C 	C 	0.5497	0.5577	0.51002	0.013
Mof_C 	C 	0.3363	0.4971	0.57516	0.022
Mof_C 	C 	0.6572	0.5862	0.47623	-0.094
Mof_C 	C 	0.51586	0.96214	0.81065	0.353
Mof_C 	C 	0.52832	0.97428	0.88242	-0.094
Mof_C 	C 	0.65065	0.99995	0.91802	-0.003
Mof_C 	C 	0.42523	0.96777	0.91356	-0.034
Mof_C 	C 	0.43863	0.98757	0.98224	0.018
Mof_C 	C 	0.6661	0.0167	0.98373	-0.075
Mof_O 	O 	0.95715	0.33825	0.13217	-0.565
Mof_O 	O 	0.85533	0.18121	0.18491	-0.487
Mof_O 	O 	0.81207	0.51045	0.16087	-0.556
Mof_O 	O 	0.67267	0.32995	0.17989	-0.491
Mof_O 	O 	0.00557	0.61293	0.28451	-0.499
Mof_O 	O 	0.91605	0.40633	0.27633	-0.613
Mof_O 	O 	0.66175	0.04285	0.36783	-0.565
Mof_O 	O 	0.81879	0.14467	0.31509	-0.487
Mof_O 	O 	0.48955	0.18793	0.33913	-0.556
Mof_O 	O 	0.67005	0.32733	0.32011	-0.491
Mof_O 	O 	0.38707	0.99443	0.21549	-0.498
Mof_O 	O 	0.59367	0.08395	0.22367	-0.612
Mof_O 	O 	0.04285	0.66175	0.86783	-0.565
Mof_O 	O 	0.14467	0.81879	0.81509	-0.487
Mof_O 	O 	0.18793	0.48955	0.83913	-0.556
Mof_O 	O 	0.32733	0.67005	0.82011	-0.491
Mof_O 	O 	0.99443	0.38707	0.71549	-0.499
Mof_O 	O 	0.08395	0.59367	0.72367	-0.613
Mof_O 	O 	0.33825	0.95715	0.63217	-0.565
Mof_O 	O 	0.18121	0.85533	0.68491	-0.487
Mof_O 	O 	0.51045	0.81207	0.66087	-0.556
Mof_O 	O 	0.32995	0.67267	0.67989	-0.491
Mof_O 	O 	0.61293	0.00557	0.78451	-0.498
Mof_O 	O 	0.40633	0.91605	0.77633	-0.612
_end
