data_functionalizedCrystal
_audit_creation_method	'EQeq! by Chris Wilmer'
_symmetry_space_group_name_H-M	'P1'
_symmetry_Int_Tables_number	1
_symmetry_cell_setting	triclinic
loop_
_symmetry_equiv_pos_as_xyz
  x,y,z
_cell_length_a	8.38
_cell_length_b	20.9662
_cell_length_c	13.0999
_cell_angle_alpha	90
_cell_angle_beta	95.038
_cell_angle_gamma	90
loop_
_atom_site_label
_atom_site_type_symbol
_atom_site_fract_x
_atom_site_fract_y
_atom_site_fract_z
_atom_site_charge
Mof_Zn	Zn	0.6377	0.29106	0.85556	1.191
Mof_O 	O 	0.3425	0.3657	0.2769	-0.243
Mof_C 	C 	0.5012	0.4892	0.4487	0.035
Mof_O 	O 	0.6902	0.5236	0.2153	-0.23
Mof_O 	O 	0.7347	0.188	0.229	-0.452
Mof_O 	O 	0.6649	0.0895	0.266	-0.317
Mof_O 	O 	0.7524	0.2127	0.9022	-0.45
Mof_N 	N 	0.5216	0.443	0.2493	-0.192
Mof_N 	N 	0.6171	0.3475	0.9797	-0.292
Mof_C 	C 	0.5554	0.4118	0.1556	0.226
Mof_C 	C 	0.6104	0.4981	0.2762	0.224
Mof_C 	C 	0.7953	0.1054	0.1156	-0.049
Mof_C 	C 	0.4226	0.4091	0.3134	0.221
Mof_C 	C 	0.5989	0.5229	0.3828	-0.05
Mof_C 	C 	0.6785	0.5773	0.4146	-0.026
Mof_H 	H 	0.7369	0.6	0.3695	0.052
Mof_C 	C 	0.4147	0.4339	0.4168	-0.061
Mof_C 	C 	0.6716	0.5985	0.5152	-0.016
Mof_H 	H 	0.7265	0.6354	0.5366	0.054
Mof_C 	C 	0.7228	0.1293	0.2117	0.329
Mof_C 	C 	0.6729	0.365	0.1594	-0.237
Mof_H 	H 	0.732	0.3549	0.2207	0.128
Mof_C 	C 	0.5049	0.3927	0.9773	0.125
Mof_H 	H 	0.4477	0.4022	0.9151	-0.018
Mof_C 	C 	0.699	0.3344	0.0702	0.143
Mof_H 	H 	0.7774	0.303	0.0723	-0.024
Mof_C 	C 	0.47	0.4264	0.064	-0.22
Mof_H 	H 	0.3914	0.4579	0.0603	0.132
Mof_S 	S 	0.8992	0.08877	0.93084	0.028
Mof_S 	S 	0.9054	0.03528	0.14046	0.041
Mof_C 	C 	0.7911	0.1291	0.0206	-0.046
Mof_C 	C 	0.96	0.0256	0.0145	-0.009
Mof_O 	O 	0.5751	0.2028	0.018	-0.312
Mof_C 	C 	0.696	0.1863	0.9794	0.322
Mof_Zn	Zn	0.3623	0.79106	0.64444	1.19
Mof_O 	O 	0.6575	0.8657	0.2231	-0.244
Mof_C 	C 	0.4988	0.9892	0.0513	0.031
Mof_O 	O 	0.3098	0.0236	0.2847	-0.229
Mof_O 	O 	0.2653	0.688	0.271	-0.453
Mof_O 	O 	0.3351	0.5895	0.234	-0.318
Mof_O 	O 	0.2476	0.7127	0.5978	-0.452
Mof_N 	N 	0.4784	0.943	0.2507	-0.192
Mof_N 	N 	0.3829	0.8475	0.5203	-0.292
Mof_C 	C 	0.4446	0.9118	0.3444	0.226
Mof_C 	C 	0.3896	0.9981	0.2238	0.22
Mof_C 	C 	0.2047	0.6054	0.3844	-0.047
Mof_C 	C 	0.5774	0.9091	0.1866	0.22
Mof_C 	C 	0.4011	0.0229	0.1172	-0.046
Mof_C 	C 	0.3215	0.0773	0.0854	-0.024
Mof_H 	H 	0.2631	0.1	0.1305	0.052
Mof_C 	C 	0.5853	0.9339	0.0832	-0.06
Mof_C 	C 	0.3284	0.0985	0.9848	-0.019
Mof_H 	H 	0.2735	0.1354	0.9634	0.055
Mof_C 	C 	0.2772	0.6293	0.2883	0.329
Mof_C 	C 	0.3271	0.865	0.3406	-0.237
Mof_H 	H 	0.268	0.8549	0.2793	0.128
Mof_C 	C 	0.4951	0.8927	0.5227	0.125
Mof_H 	H 	0.5523	0.9022	0.5849	-0.018
Mof_C 	C 	0.301	0.8344	0.4298	0.142
Mof_H 	H 	0.2226	0.803	0.4277	-0.024
Mof_C 	C 	0.53	0.9264	0.436	-0.221
Mof_H 	H 	0.6086	0.9579	0.4397	0.132
Mof_S 	S 	0.1008	0.58877	0.56916	0.033
Mof_S 	S 	0.0946	0.53528	0.35954	0.04
Mof_C 	C 	0.2089	0.6291	0.4794	-0.051
Mof_C 	C 	0.04	0.5256	0.4855	-0.011
Mof_O 	O 	0.4249	0.7028	0.482	-0.315
Mof_C 	C 	0.304	0.6863	0.5206	0.327
Mof_Zn	Zn	0.3623	0.70894	0.14444	1.19
Mof_O 	O 	0.6575	0.6343	0.7231	-0.244
Mof_C 	C 	0.4988	0.5108	0.5513	0.034
Mof_O 	O 	0.3098	0.4764	0.7847	-0.231
Mof_O 	O 	0.2653	0.812	0.771	-0.453
Mof_O 	O 	0.3351	0.9105	0.734	-0.318
Mof_O 	O 	0.2476	0.7873	0.0978	-0.451
Mof_N 	N 	0.4784	0.557	0.7507	-0.193
Mof_N 	N 	0.3829	0.6525	0.0203	-0.292
Mof_C 	C 	0.4446	0.5882	0.8444	0.226
Mof_C 	C 	0.3896	0.5019	0.7238	0.224
Mof_C 	C 	0.2047	0.8946	0.8844	-0.049
Mof_C 	C 	0.5774	0.5909	0.6866	0.221
Mof_C 	C 	0.4011	0.4771	0.6172	-0.05
Mof_C 	C 	0.3215	0.4227	0.5854	-0.026
Mof_H 	H 	0.2631	0.4	0.6305	0.052
Mof_C 	C 	0.5853	0.5661	0.5832	-0.061
Mof_C 	C 	0.3284	0.4015	0.4848	-0.016
Mof_H 	H 	0.2735	0.3646	0.4634	0.054
Mof_C 	C 	0.2772	0.8707	0.7883	0.329
Mof_C 	C 	0.3271	0.635	0.8406	-0.237
Mof_H 	H 	0.268	0.6451	0.7793	0.128
Mof_C 	C 	0.4951	0.6073	0.0227	0.125
Mof_H 	H 	0.5523	0.5978	0.0849	-0.018
Mof_C 	C 	0.301	0.6656	0.9298	0.143
Mof_H 	H 	0.2226	0.697	0.9277	-0.024
Mof_C 	C 	0.53	0.5736	0.936	-0.22
Mof_H 	H 	0.6086	0.5421	0.9397	0.132
Mof_S 	S 	0.1008	0.91123	0.06916	0.028
Mof_S 	S 	0.0946	0.96472	0.85954	0.041
Mof_C 	C 	0.2089	0.8709	0.9794	-0.046
Mof_C 	C 	0.04	0.9744	0.9855	-0.009
Mof_O 	O 	0.4249	0.7972	0.982	-0.312
Mof_C 	C 	0.304	0.8137	0.0206	0.322
Mof_Zn	Zn	0.6377	0.20894	0.35556	1.19
Mof_O 	O 	0.3425	0.1343	0.7769	-0.244
Mof_C 	C 	0.5012	0.0108	0.9487	0.031
Mof_O 	O 	0.6902	0.9764	0.7153	-0.229
Mof_O 	O 	0.7347	0.312	0.729	-0.453
Mof_O 	O 	0.6649	0.4105	0.766	-0.318
Mof_O 	O 	0.7524	0.2873	0.4022	-0.452
Mof_N 	N 	0.5216	0.057	0.7493	-0.192
Mof_N 	N 	0.6171	0.1525	0.4797	-0.292
Mof_C 	C 	0.5554	0.0882	0.6556	0.226
Mof_C 	C 	0.6104	0.0019	0.7762	0.22
Mof_C 	C 	0.7953	0.3946	0.6156	-0.047
Mof_C 	C 	0.4226	0.0909	0.8134	0.22
Mof_C 	C 	0.5989	0.9771	0.8828	-0.046
Mof_C 	C 	0.6785	0.9227	0.9146	-0.024
Mof_H 	H 	0.7369	0.9	0.8695	0.052
Mof_C 	C 	0.4147	0.0661	0.9168	-0.06
Mof_C 	C 	0.6716	0.9015	0.0152	-0.019
Mof_H 	H 	0.7265	0.8646	0.0366	0.055
Mof_C 	C 	0.7228	0.3707	0.7117	0.329
Mof_C 	C 	0.6729	0.135	0.6594	-0.237
Mof_H 	H 	0.732	0.1451	0.7207	0.128
Mof_C 	C 	0.5049	0.1073	0.4773	0.125
Mof_H 	H 	0.4477	0.0978	0.4151	-0.018
Mof_C 	C 	0.699	0.1656	0.5702	0.142
Mof_H 	H 	0.7774	0.197	0.5723	-0.024
Mof_C 	C 	0.47	0.0736	0.564	-0.221
Mof_H 	H 	0.3914	0.0421	0.5603	0.132
Mof_S 	S 	0.8992	0.41123	0.43084	0.033
Mof_S 	S 	0.9054	0.46472	0.64046	0.04
Mof_C 	C 	0.7911	0.3709	0.5206	-0.051
Mof_C 	C 	0.96	0.4744	0.5145	-0.011
Mof_O 	O 	0.5751	0.2972	0.518	-0.315
Mof_C 	C 	0.696	0.3137	0.4794	0.327
_end
