data_functionalizedCrystal
_audit_creation_method	'EQeq! by Chris Wilmer'
_symmetry_space_group_name_H-M	'P1'
_symmetry_Int_Tables_number	1
_symmetry_cell_setting	triclinic
loop_
_symmetry_equiv_pos_as_xyz
  x,y,z
_cell_length_a	12.074
_cell_length_b	12.709
_cell_length_c	13.947
_cell_angle_alpha	90
_cell_angle_beta	90
_cell_angle_gamma	115.481
loop_
_atom_site_label
_atom_site_type_symbol
_atom_site_fract_x
_atom_site_fract_y
_atom_site_fract_z
_atom_site_charge
Mof_Ba	Ba	0.7781	0.15589	0.39531	2.041
Mof_Ba	Ba	0.60677	0.80395	0.29771	2.033
Mof_Ba	Ba	0.2219	0.34411	0.89531	2.041
Mof_Ba	Ba	0.39323	0.69605	0.79771	2.035
Mof_Ba	Ba	0.2219	0.84411	0.60469	2.042
Mof_Ba	Ba	0.39323	0.19605	0.70229	2.034
Mof_Ba	Ba	0.7781	0.65589	0.10469	2.041
Mof_Ba	Ba	0.60677	0.30395	0.20229	2.035
Mof_U 	U 	0.96864	0.01663	0.21519	0
Mof_U 	U 	0.3906	0.49519	0.17926	0.059
Mof_U 	U 	0.03136	0.48337	0.71519	0.001
Mof_U 	U 	0.6094	0.00481	0.67926	0.058
Mof_U 	U 	0.03136	0.98337	0.78481	0
Mof_U 	U 	0.6094	0.50481	0.82074	0.059
Mof_U 	U 	0.96864	0.51663	0.28481	0.001
Mof_U 	U 	0.3906	0.99519	0.32074	0.058
Mof_P 	P 	0.27024	0.20916	0.28944	0.428
Mof_P 	P 	0.10061	0.31932	0.29379	0.419
Mof_P 	P 	0.72976	0.29084	0.78944	0.429
Mof_P 	P 	0.89939	0.18068	0.79379	0.419
Mof_P 	P 	0.72976	0.79084	0.71056	0.428
Mof_P 	P 	0.89939	0.68068	0.70621	0.419
Mof_P 	P 	0.27024	0.70916	0.21056	0.429
Mof_P 	P 	0.10061	0.81932	0.20621	0.419
Mof_H 	H 	0.254	0.3379	0.4019	0.121
Mof_H 	H 	0.1426	0.2146	0.4133	0.109
Mof_H 	H 	0.746	0.1621	0.9019	0.121
Mof_H 	H 	0.8574	0.2854	0.9133	0.11
Mof_H 	H 	0.746	0.6621	0.5981	0.121
Mof_H 	H 	0.8574	0.7854	0.5867	0.109
Mof_H 	H 	0.254	0.8379	0.0981	0.121
Mof_H 	H 	0.1426	0.7146	0.0867	0.11
Mof_C 	C 	0.1937	0.2721	0.3671	-0.349
Mof_C 	C 	0.8063	0.2279	0.8671	-0.349
Mof_C 	C 	0.8063	0.7279	0.6329	-0.349
Mof_C 	C 	0.1937	0.7721	0.1329	-0.349
Mof_O 	O 	0.3766	0.3105	0.2417	-0.322
Mof_O 	O 	0.1781	0.1364	0.2138	-0.217
Mof_O 	O 	0.184	0.3873	0.2114	-0.204
Mof_O 	O 	0.3133	0.1351	0.3517	-0.221
Mof_O 	O 	0.0513	0.3935	0.3492	-0.265
Mof_O 	O 	0.9927	0.2071	0.2605	-0.296
Mof_O 	O 	0.424	0.5491	0.2988	-0.24
Mof_O 	O 	0.3558	0.4468	0.0588	-0.239
Mof_O 	O 	0.776	0.9306	0.4564	-0.366
Mof_O 	O 	0.6234	0.1895	0.7417	-0.323
Mof_O 	O 	0.8219	0.3636	0.7138	-0.217
Mof_O 	O 	0.816	0.1127	0.7114	-0.204
Mof_O 	O 	0.6867	0.3649	0.8517	-0.221
Mof_O 	O 	0.9487	0.1065	0.8492	-0.264
Mof_O 	O 	0.0073	0.2929	0.7605	-0.296
Mof_O 	O 	0.576	0.9509	0.7988	-0.24
Mof_O 	O 	0.6442	0.0532	0.5588	-0.24
Mof_O 	O 	0.224	0.5694	0.9564	-0.366
Mof_O 	O 	0.6234	0.6895	0.7583	-0.322
Mof_O 	O 	0.8219	0.8636	0.7862	-0.217
Mof_O 	O 	0.816	0.6127	0.7886	-0.204
Mof_O 	O 	0.6867	0.8649	0.6483	-0.221
Mof_O 	O 	0.9487	0.6065	0.6508	-0.265
Mof_O 	O 	0.0073	0.7929	0.7395	-0.296
Mof_O 	O 	0.576	0.4509	0.7012	-0.24
Mof_O 	O 	0.6442	0.5532	0.9412	-0.239
Mof_O 	O 	0.224	0.0694	0.5436	-0.366
Mof_O 	O 	0.3766	0.8105	0.2583	-0.323
Mof_O 	O 	0.1781	0.6364	0.2862	-0.217
Mof_O 	O 	0.184	0.8873	0.2886	-0.204
Mof_O 	O 	0.3133	0.6351	0.1483	-0.221
Mof_O 	O 	0.0513	0.8935	0.1508	-0.264
Mof_O 	O 	0.9927	0.7071	0.2395	-0.296
Mof_O 	O 	0.424	0.0491	0.2012	-0.24
Mof_O 	O 	0.3558	0.9468	0.4412	-0.24
Mof_O 	O 	0.776	0.4306	0.0436	-0.366
Mof_F 	F 	0.568	0.4797	0.1583	-0.628
Mof_F 	F 	0.5523	0.6714	0.1397	-0.591
Mof_F 	F 	0.7871	0.0159	0.2598	-0.615
Mof_F 	F 	0.808	0.8363	0.1992	-0.659
Mof_F 	F 	0.432	0.0203	0.6583	-0.628
Mof_F 	F 	0.4477	0.8286	0.6397	-0.591
Mof_F 	F 	0.2129	0.4841	0.7598	-0.615
Mof_F 	F 	0.192	0.6637	0.6992	-0.659
Mof_F 	F 	0.432	0.5203	0.8417	-0.628
Mof_F 	F 	0.4477	0.3286	0.8603	-0.591
Mof_F 	F 	0.2129	0.9841	0.7402	-0.615
Mof_F 	F 	0.192	0.1637	0.8008	-0.659
Mof_F 	F 	0.568	0.9797	0.3417	-0.628
Mof_F 	F 	0.5523	0.1714	0.3603	-0.591
Mof_F 	F 	0.7871	0.5159	0.2402	-0.615
Mof_F 	F 	0.808	0.3363	0.3008	-0.659
_end
