data_functionalizedCrystal
_audit_creation_method	'EQeq! by Chris Wilmer'
_symmetry_space_group_name_H-M	'P1'
_symmetry_Int_Tables_number	1
_symmetry_cell_setting	triclinic
loop_
_symmetry_equiv_pos_as_xyz
  x,y,z
_cell_length_a	29.05
_cell_length_b	29.05
_cell_length_c	24.502
_cell_angle_alpha	90
_cell_angle_beta	90
_cell_angle_gamma	120
loop_
_atom_site_label
_atom_site_type_symbol
_atom_site_fract_x
_atom_site_fract_y
_atom_site_fract_z
_atom_site_charge
Mof_O 	O 	0.4355	0.71369	0.97916	-0.409
Mof_O 	O 	0.39687	0.62551	0.97236	-0.406
Mof_C 	C 	0.43422	0.67051	0.98566	0.377
Mof_C 	C 	0.48256	0.67253	0.0118	-0.116
Mof_C 	C 	0.5289	0.7193	0.0211	0.042
Mof_H 	H 	0.5302	0.7513	0.014	0.03
Mof_C 	C 	0.5741	0.7199	0.0409	-0.107
Mof_H 	H 	0.6049	0.7523	0.0464	0.076
Mof_C 	C 	0.5743	0.674	0.0523	0.043
Mof_C 	C 	0.5251	0.6268	0.0493	-0.105
Mof_H 	H 	0.5224	0.5951	0.0611	0.066
Mof_C 	C 	0.4807	0.6266	0.0292	0.042
Mof_H 	H 	0.4487	0.5947	0.0272	0.032
Mof_C 	C 	0.6227	0.6724	0.069	0.076
Mof_C 	C 	0.6219	0.6243	0.0683	-0.123
Mof_H 	H 	0.5913	0.5935	0.0577	0.071
Mof_C 	C 	0.7135	0.5691	0.0854	-0.138
Mof_H 	H 	0.746	0.6006	0.0864	0.077
Mof_C 	C 	0.7117	0.5208	0.0859	0.088
Mof_H 	H 	0.7436	0.5208	0.0881	0.007
Mof_O 	O 	0.10217	0.04702	0.31249	-0.407
Mof_O 	O 	0.06354	0.95884	0.30569	-0.401
Mof_C 	C 	0.10089	0.00384	0.31899	0.373
Mof_C 	C 	0.14923	0.00586	0.34513	-0.121
Mof_C 	C 	0.19557	0.05263	0.35443	0.043
Mof_H 	H 	0.19687	0.08463	0.34733	0.03
Mof_C 	C 	0.24077	0.05323	0.37423	-0.106
Mof_H 	H 	0.27157	0.08563	0.37973	0.076
Mof_C 	C 	0.24097	0.00733	0.38563	0.038
Mof_C 	C 	0.19177	0.96013	0.38263	-0.101
Mof_H 	H 	0.18907	0.92843	0.39443	0.065
Mof_C 	C 	0.14737	0.95993	0.36253	0.048
Mof_H 	H 	0.11537	0.92803	0.36053	0.03
Mof_C 	C 	0.28937	0.00573	0.40233	0.071
Mof_C 	C 	0.28857	0.95763	0.40163	-0.117
Mof_H 	H 	0.25797	0.92683	0.39103	0.07
Mof_C 	C 	0.38017	0.90243	0.41873	-0.136
Mof_H 	H 	0.41267	0.93393	0.41973	0.078
Mof_C 	C 	0.37837	0.85413	0.41923	0.088
Mof_H 	H 	0.41027	0.85413	0.42143	0.008
Mof_O 	O 	0.76883	0.38036	0.64583	-0.408
Mof_O 	O 	0.7302	0.29218	0.63903	-0.405
Mof_C 	C 	0.76755	0.33718	0.65233	0.378
Mof_C 	C 	0.81589	0.3392	0.67847	-0.115
Mof_C 	C 	0.86223	0.38597	0.68777	0.043
Mof_H 	H 	0.86353	0.41797	0.68067	0.031
Mof_C 	C 	0.90743	0.38657	0.70757	-0.106
Mof_H 	H 	0.93823	0.41897	0.71307	0.078
Mof_C 	C 	0.90763	0.34067	0.71897	0.043
Mof_C 	C 	0.85843	0.29347	0.71597	-0.105
Mof_H 	H 	0.85573	0.26177	0.72777	0.066
Mof_C 	C 	0.81403	0.29327	0.69587	0.042
Mof_H 	H 	0.78203	0.26137	0.69387	0.032
Mof_C 	C 	0.95603	0.33907	0.73567	0.078
Mof_C 	C 	0.95523	0.29097	0.73497	-0.116
Mof_H 	H 	0.92463	0.26017	0.72437	0.069
Mof_C 	C 	0.04683	0.23577	0.75207	-0.136
Mof_H 	H 	0.07933	0.26727	0.75307	0.076
Mof_C 	C 	0.04503	0.18747	0.75257	0.086
Mof_H 	H 	0.07693	0.18747	0.75477	0.008
Mof_O 	O 	0.28631	0.72181	0.97916	-0.408
Mof_O 	O 	0.37449	0.77136	0.97236	-0.405
Mof_C 	C 	0.32949	0.76371	0.98566	0.379
Mof_C 	C 	0.32747	0.81003	0.0118	-0.116
Mof_C 	C 	0.2807	0.8096	0.0211	0.044
Mof_H 	H 	0.2487	0.7789	0.014	0.03
Mof_C 	C 	0.2801	0.8542	0.0409	-0.107
Mof_H 	H 	0.2477	0.8526	0.0464	0.077
Mof_C 	C 	0.326	0.9003	0.0523	0.045
Mof_C 	C 	0.3732	0.8983	0.0493	-0.106
Mof_H 	H 	0.4049	0.9273	0.0611	0.067
Mof_C 	C 	0.3734	0.8541	0.0292	0.043
Mof_H 	H 	0.4053	0.854	0.0272	0.032
Mof_C 	C 	0.3276	0.9503	0.069	0.074
Mof_C 	C 	0.3757	0.9976	0.0683	-0.114
Mof_H 	H 	0.4065	0.9978	0.0577	0.07
Mof_C 	C 	0.4309	0.1444	0.0854	-0.139
Mof_H 	H 	0.3994	0.1454	0.0864	0.077
Mof_C 	C 	0.4792	0.1909	0.0859	0.088
Mof_H 	H 	0.4792	0.2228	0.0881	0.007
Mof_O 	O 	0.95298	0.05514	0.31249	-0.409
Mof_O 	O 	0.04116	0.10469	0.30569	-0.41
Mof_C 	C 	0.99616	0.09704	0.31899	0.384
Mof_C 	C 	0.99414	0.14336	0.34513	-0.11
Mof_C 	C 	0.94737	0.14293	0.35443	0.043
Mof_H 	H 	0.91537	0.11223	0.34733	0.03
Mof_C 	C 	0.94677	0.18753	0.37423	-0.107
Mof_H 	H 	0.91437	0.18593	0.37973	0.076
Mof_C 	C 	0.99267	0.23363	0.38563	0.048
Mof_C 	C 	0.03987	0.23163	0.38263	-0.111
Mof_H 	H 	0.07157	0.26063	0.39443	0.067
Mof_C 	C 	0.04007	0.18743	0.36253	0.037
Mof_H 	H 	0.07197	0.18733	0.36053	0.033
Mof_C 	C 	0.99427	0.28363	0.40233	0.081
Mof_C 	C 	0.04237	0.33093	0.40163	-0.128
Mof_H 	H 	0.07317	0.33113	0.39103	0.072
Mof_C 	C 	0.09757	0.47773	0.41873	-0.139
Mof_H 	H 	0.06607	0.47873	0.41973	0.076
Mof_C 	C 	0.14587	0.52423	0.41923	0.089
Mof_H 	H 	0.14587	0.55613	0.42143	0.007
Mof_O 	O 	0.61964	0.38848	0.64583	-0.408
Mof_O 	O 	0.70782	0.43803	0.63903	-0.405
Mof_C 	C 	0.66282	0.43038	0.65233	0.378
Mof_C 	C 	0.6608	0.4767	0.67847	-0.115
Mof_C 	C 	0.61403	0.47627	0.68777	0.043
Mof_H 	H 	0.58203	0.44557	0.68067	0.03
Mof_C 	C 	0.61343	0.52087	0.70757	-0.106
Mof_H 	H 	0.58103	0.51927	0.71307	0.076
Mof_C 	C 	0.65933	0.56697	0.71897	0.043
Mof_C 	C 	0.70653	0.56497	0.71597	-0.105
Mof_H 	H 	0.73823	0.59397	0.72777	0.066
Mof_C 	C 	0.70673	0.52077	0.69587	0.042
Mof_H 	H 	0.73863	0.52067	0.69387	0.032
Mof_C 	C 	0.66093	0.61697	0.73567	0.076
Mof_C 	C 	0.70903	0.66427	0.73497	-0.123
Mof_H 	H 	0.73983	0.66447	0.72437	0.071
Mof_C 	C 	0.76423	0.81107	0.75207	-0.137
Mof_H 	H 	0.73273	0.81207	0.75307	0.077
Mof_C 	C 	0.81253	0.85757	0.75257	0.088
Mof_H 	H 	0.81253	0.88947	0.75477	0.008
Mof_O 	O 	0.27819	0.5645	0.97916	-0.408
Mof_O 	O 	0.22864	0.60313	0.97236	-0.405
Mof_C 	C 	0.23629	0.56578	0.98566	0.378
Mof_C 	C 	0.18997	0.51744	0.0118	-0.114
Mof_C 	C 	0.1904	0.4711	0.0211	0.042
Mof_H 	H 	0.2211	0.4698	0.014	0.031
Mof_C 	C 	0.1458	0.4259	0.0409	-0.105
Mof_H 	H 	0.1474	0.3951	0.0464	0.076
Mof_C 	C 	0.0997	0.4257	0.0523	0.041
Mof_C 	C 	0.1017	0.4749	0.0493	-0.104
Mof_H 	H 	0.0727	0.4776	0.0611	0.065
Mof_C 	C 	0.1459	0.5193	0.0292	0.041
Mof_H 	H 	0.146	0.5513	0.0272	0.032
Mof_C 	C 	0.0497	0.3773	0.069	0.077
Mof_C 	C 	0.0024	0.3781	0.0683	-0.131
Mof_H 	H 	0.0022	0.4087	0.0577	0.072
Mof_C 	C 	0.8556	0.2865	0.0854	-0.137
Mof_H 	H 	0.8546	0.254	0.0864	0.077
Mof_C 	C 	0.8091	0.2883	0.0859	0.088
Mof_H 	H 	0.7772	0.2564	0.0881	0.007
Mof_O 	O 	0.94486	0.89783	0.31249	-0.404
Mof_O 	O 	0.89531	0.93646	0.30569	-0.402
Mof_C 	C 	0.90296	0.89911	0.31899	0.378
Mof_C 	C 	0.85664	0.85077	0.34513	-0.113
Mof_C 	C 	0.85707	0.80443	0.35443	0.042
Mof_H 	H 	0.88777	0.80313	0.34733	0.031
Mof_C 	C 	0.81247	0.75923	0.37423	-0.105
Mof_H 	H 	0.81407	0.72843	0.37973	0.076
Mof_C 	C 	0.76637	0.75903	0.38563	0.042
Mof_C 	C 	0.76837	0.80823	0.38263	-0.104
Mof_H 	H 	0.73937	0.81093	0.39443	0.066
Mof_C 	C 	0.81257	0.85263	0.36253	0.041
Mof_H 	H 	0.81267	0.88463	0.36053	0.033
Mof_C 	C 	0.71637	0.71063	0.40233	0.076
Mof_C 	C 	0.66907	0.71143	0.40163	-0.123
Mof_H 	H 	0.66887	0.74203	0.39103	0.071
Mof_C 	C 	0.52227	0.61983	0.41873	-0.138
Mof_H 	H 	0.52127	0.58733	0.41973	0.077
Mof_C 	C 	0.47577	0.62163	0.41923	0.088
Mof_H 	H 	0.44387	0.58973	0.42143	0.007
Mof_O 	O 	0.61152	0.23117	0.64583	-0.408
Mof_O 	O 	0.56197	0.2698	0.63903	-0.405
Mof_C 	C 	0.56962	0.23245	0.65233	0.378
Mof_C 	C 	0.5233	0.18411	0.67847	-0.115
Mof_C 	C 	0.52373	0.13777	0.68777	0.043
Mof_H 	H 	0.55443	0.13647	0.68067	0.03
Mof_C 	C 	0.47913	0.09257	0.70757	-0.106
Mof_H 	H 	0.48073	0.06177	0.71307	0.075
Mof_C 	C 	0.43303	0.09237	0.71897	0.043
Mof_C 	C 	0.43503	0.14157	0.71597	-0.106
Mof_H 	H 	0.40603	0.14427	0.72777	0.066
Mof_C 	C 	0.47923	0.18597	0.69587	0.042
Mof_H 	H 	0.47933	0.21797	0.69387	0.032
Mof_C 	C 	0.38303	0.04397	0.73567	0.074
Mof_C 	C 	0.33573	0.04477	0.73497	-0.121
Mof_H 	H 	0.33553	0.07537	0.72437	0.07
Mof_C 	C 	0.18893	0.95317	0.75207	-0.131
Mof_H 	H 	0.18793	0.92067	0.75307	0.076
Mof_C 	C 	0.14243	0.95497	0.75257	0.092
Mof_H 	H 	0.11053	0.92307	0.75477	0.006
Mof_O 	O 	0.71369	0.4355	0.52084	-0.408
Mof_O 	O 	0.62551	0.39687	0.52764	-0.405
Mof_C 	C 	0.67051	0.43422	0.51434	0.378
Mof_C 	C 	0.67253	0.48256	0.4882	-0.115
Mof_C 	C 	0.7193	0.5289	0.4789	0.043
Mof_H 	H 	0.7513	0.5302	0.486	0.031
Mof_C 	C 	0.7199	0.5741	0.4591	-0.106
Mof_H 	H 	0.7523	0.6049	0.4536	0.077
Mof_C 	C 	0.674	0.5743	0.4477	0.043
Mof_C 	C 	0.6268	0.5251	0.4507	-0.105
Mof_H 	H 	0.5951	0.5224	0.4389	0.066
Mof_C 	C 	0.6266	0.4807	0.4708	0.042
Mof_H 	H 	0.5947	0.4487	0.4728	0.032
Mof_C 	C 	0.6724	0.6227	0.431	0.076
Mof_C 	C 	0.6243	0.6219	0.4317	-0.123
Mof_H 	H 	0.5935	0.5913	0.4423	0.071
Mof_C 	C 	0.5691	0.7135	0.4146	-0.138
Mof_H 	H 	0.6006	0.746	0.4136	0.077
Mof_C 	C 	0.5208	0.7117	0.4141	0.088
Mof_H 	H 	0.5208	0.7436	0.4119	0.007
Mof_O 	O 	0.38036	0.76883	0.85417	-0.408
Mof_O 	O 	0.29218	0.7302	0.86097	-0.405
Mof_C 	C 	0.33718	0.76755	0.84767	0.378
Mof_C 	C 	0.3392	0.81589	0.82153	-0.115
Mof_C 	C 	0.38597	0.86223	0.81223	0.043
Mof_H 	H 	0.41797	0.86353	0.81933	0.031
Mof_C 	C 	0.38657	0.90743	0.79243	-0.106
Mof_H 	H 	0.41897	0.93823	0.78693	0.078
Mof_C 	C 	0.34067	0.90763	0.78103	0.043
Mof_C 	C 	0.29347	0.85843	0.78403	-0.105
Mof_H 	H 	0.26177	0.85573	0.77223	0.066
Mof_C 	C 	0.29327	0.81403	0.80413	0.042
Mof_H 	H 	0.26137	0.78203	0.80613	0.032
Mof_C 	C 	0.33907	0.95603	0.76433	0.078
Mof_C 	C 	0.29097	0.95523	0.76503	-0.116
Mof_H 	H 	0.26017	0.92463	0.77563	0.069
Mof_C 	C 	0.23577	0.04683	0.74793	-0.136
Mof_H 	H 	0.26727	0.07933	0.74693	0.076
Mof_C 	C 	0.18747	0.04503	0.74743	0.086
Mof_H 	H 	0.18747	0.07693	0.74523	0.008
Mof_O 	O 	0.04702	0.10217	0.18751	-0.407
Mof_O 	O 	0.95884	0.06354	0.19431	-0.401
Mof_C 	C 	0.00384	0.10089	0.18101	0.373
Mof_C 	C 	0.00586	0.14923	0.15487	-0.121
Mof_C 	C 	0.05263	0.19557	0.14557	0.043
Mof_H 	H 	0.08463	0.19687	0.15267	0.03
Mof_C 	C 	0.05323	0.24077	0.12577	-0.106
Mof_H 	H 	0.08563	0.27157	0.12027	0.076
Mof_C 	C 	0.00733	0.24097	0.11437	0.038
Mof_C 	C 	0.96013	0.19177	0.11737	-0.101
Mof_H 	H 	0.92843	0.18907	0.10557	0.065
Mof_C 	C 	0.95993	0.14737	0.13747	0.048
Mof_H 	H 	0.92803	0.11537	0.13947	0.03
Mof_C 	C 	0.00573	0.28937	0.09767	0.071
Mof_C 	C 	0.95763	0.28857	0.09837	-0.117
Mof_H 	H 	0.92683	0.25797	0.10897	0.07
Mof_C 	C 	0.90243	0.38017	0.08127	-0.136
Mof_H 	H 	0.93393	0.41267	0.08027	0.078
Mof_C 	C 	0.85413	0.37837	0.08077	0.088
Mof_H 	H 	0.85413	0.41027	0.07857	0.008
Mof_O 	O 	0.72181	0.28631	0.52084	-0.408
Mof_O 	O 	0.77136	0.37449	0.52764	-0.405
Mof_C 	C 	0.76371	0.32949	0.51434	0.379
Mof_C 	C 	0.81003	0.32747	0.4882	-0.116
Mof_C 	C 	0.8096	0.2807	0.4789	0.044
Mof_H 	H 	0.7789	0.2487	0.486	0.03
Mof_C 	C 	0.8542	0.2801	0.4591	-0.107
Mof_H 	H 	0.8526	0.2477	0.4536	0.077
Mof_C 	C 	0.9003	0.326	0.4477	0.045
Mof_C 	C 	0.8983	0.3732	0.4507	-0.106
Mof_H 	H 	0.9273	0.4049	0.4389	0.067
Mof_C 	C 	0.8541	0.3734	0.4708	0.043
Mof_H 	H 	0.854	0.4053	0.4728	0.032
Mof_C 	C 	0.9503	0.3276	0.431	0.074
Mof_C 	C 	0.9976	0.3757	0.4317	-0.114
Mof_H 	H 	0.9978	0.4065	0.4423	0.07
Mof_C 	C 	0.1444	0.4309	0.4146	-0.139
Mof_H 	H 	0.1454	0.3994	0.4136	0.077
Mof_C 	C 	0.1909	0.4792	0.4141	0.088
Mof_H 	H 	0.2228	0.4792	0.4119	0.007
Mof_O 	O 	0.38848	0.61964	0.85417	-0.408
Mof_O 	O 	0.43803	0.70782	0.86097	-0.405
Mof_C 	C 	0.43038	0.66282	0.84767	0.378
Mof_C 	C 	0.4767	0.6608	0.82153	-0.115
Mof_C 	C 	0.47627	0.61403	0.81223	0.043
Mof_H 	H 	0.44557	0.58203	0.81933	0.03
Mof_C 	C 	0.52087	0.61343	0.79243	-0.106
Mof_H 	H 	0.51927	0.58103	0.78693	0.076
Mof_C 	C 	0.56697	0.65933	0.78103	0.043
Mof_C 	C 	0.56497	0.70653	0.78403	-0.105
Mof_H 	H 	0.59397	0.73823	0.77223	0.066
Mof_C 	C 	0.52077	0.70673	0.80413	0.042
Mof_H 	H 	0.52067	0.73863	0.80613	0.032
Mof_C 	C 	0.61697	0.66093	0.76433	0.076
Mof_C 	C 	0.66427	0.70903	0.76503	-0.123
Mof_H 	H 	0.66447	0.73983	0.77563	0.071
Mof_C 	C 	0.81107	0.76423	0.74793	-0.137
Mof_H 	H 	0.81207	0.73273	0.74693	0.077
Mof_C 	C 	0.85757	0.81253	0.74743	0.088
Mof_H 	H 	0.88947	0.81253	0.74523	0.008
Mof_O 	O 	0.05514	0.95298	0.18751	-0.409
Mof_O 	O 	0.10469	0.04116	0.19431	-0.41
Mof_C 	C 	0.09704	0.99616	0.18101	0.384
Mof_C 	C 	0.14336	0.99414	0.15487	-0.11
Mof_C 	C 	0.14293	0.94737	0.14557	0.043
Mof_H 	H 	0.11223	0.91537	0.15267	0.03
Mof_C 	C 	0.18753	0.94677	0.12577	-0.107
Mof_H 	H 	0.18593	0.91437	0.12027	0.076
Mof_C 	C 	0.23363	0.99267	0.11437	0.048
Mof_C 	C 	0.23163	0.03987	0.11737	-0.111
Mof_H 	H 	0.26063	0.07157	0.10557	0.067
Mof_C 	C 	0.18743	0.04007	0.13747	0.037
Mof_H 	H 	0.18733	0.07197	0.13947	0.033
Mof_C 	C 	0.28363	0.99427	0.09767	0.08
Mof_C 	C 	0.33093	0.04237	0.09837	-0.128
Mof_H 	H 	0.33113	0.07317	0.10897	0.072
Mof_C 	C 	0.47773	0.09757	0.08127	-0.139
Mof_H 	H 	0.47873	0.06607	0.08027	0.076
Mof_C 	C 	0.52423	0.14587	0.08077	0.089
Mof_H 	H 	0.55613	0.14587	0.07857	0.007
Mof_O 	O 	0.5645	0.27819	0.52084	-0.408
Mof_O 	O 	0.60313	0.22864	0.52764	-0.405
Mof_C 	C 	0.56578	0.23629	0.51434	0.378
Mof_C 	C 	0.51744	0.18997	0.4882	-0.114
Mof_C 	C 	0.4711	0.1904	0.4789	0.042
Mof_H 	H 	0.4698	0.2211	0.486	0.031
Mof_C 	C 	0.4259	0.1458	0.4591	-0.105
Mof_H 	H 	0.3951	0.1474	0.4536	0.076
Mof_C 	C 	0.4257	0.0997	0.4477	0.041
Mof_C 	C 	0.4749	0.1017	0.4507	-0.104
Mof_H 	H 	0.4776	0.0727	0.4389	0.065
Mof_C 	C 	0.5193	0.1459	0.4708	0.041
Mof_H 	H 	0.5513	0.146	0.4728	0.032
Mof_C 	C 	0.3773	0.0497	0.431	0.077
Mof_C 	C 	0.3781	0.0024	0.4317	-0.132
Mof_H 	H 	0.4087	0.0022	0.4423	0.072
Mof_C 	C 	0.2865	0.8556	0.4146	-0.137
Mof_H 	H 	0.254	0.8546	0.4136	0.077
Mof_C 	C 	0.2883	0.8091	0.4141	0.088
Mof_H 	H 	0.2564	0.7772	0.4119	0.007
Mof_O 	O 	0.23117	0.61152	0.85417	-0.408
Mof_O 	O 	0.2698	0.56197	0.86097	-0.405
Mof_C 	C 	0.23245	0.56962	0.84767	0.378
Mof_C 	C 	0.18411	0.5233	0.82153	-0.115
Mof_C 	C 	0.13777	0.52373	0.81223	0.043
Mof_H 	H 	0.13647	0.55443	0.81933	0.03
Mof_C 	C 	0.09257	0.47913	0.79243	-0.106
Mof_H 	H 	0.06177	0.48073	0.78693	0.075
Mof_C 	C 	0.09237	0.43303	0.78103	0.043
Mof_C 	C 	0.14157	0.43503	0.78403	-0.106
Mof_H 	H 	0.14427	0.40603	0.77223	0.066
Mof_C 	C 	0.18597	0.47923	0.80413	0.042
Mof_H 	H 	0.21797	0.47933	0.80613	0.032
Mof_C 	C 	0.04397	0.38303	0.76433	0.074
Mof_C 	C 	0.04477	0.33573	0.76503	-0.121
Mof_H 	H 	0.07537	0.33553	0.77563	0.07
Mof_C 	C 	0.95317	0.18893	0.74793	-0.131
Mof_H 	H 	0.92067	0.18793	0.74693	0.076
Mof_C 	C 	0.95497	0.14243	0.74743	0.092
Mof_H 	H 	0.92307	0.11053	0.74523	0.006
Mof_O 	O 	0.89783	0.94486	0.18751	-0.404
Mof_O 	O 	0.93646	0.89531	0.19431	-0.402
Mof_C 	C 	0.89911	0.90296	0.18101	0.378
Mof_C 	C 	0.85077	0.85664	0.15487	-0.113
Mof_C 	C 	0.80443	0.85707	0.14557	0.042
Mof_H 	H 	0.80313	0.88777	0.15267	0.031
Mof_C 	C 	0.75923	0.81247	0.12577	-0.105
Mof_H 	H 	0.72843	0.81407	0.12027	0.076
Mof_C 	C 	0.75903	0.76637	0.11437	0.042
Mof_C 	C 	0.80823	0.76837	0.11737	-0.104
Mof_H 	H 	0.81093	0.73937	0.10557	0.066
Mof_C 	C 	0.85263	0.81257	0.13747	0.041
Mof_H 	H 	0.88463	0.81267	0.13947	0.033
Mof_C 	C 	0.71063	0.71637	0.09767	0.076
Mof_C 	C 	0.71143	0.66907	0.09837	-0.123
Mof_H 	H 	0.74203	0.66887	0.10897	0.071
Mof_C 	C 	0.61983	0.52227	0.08127	-0.138
Mof_H 	H 	0.58733	0.52127	0.08027	0.077
Mof_C 	C 	0.62163	0.47577	0.08077	0.088
Mof_H 	H 	0.58973	0.44387	0.07857	0.007
Mof_O 	O 	0.5645	0.28631	0.02084	-0.408
Mof_O 	O 	0.60313	0.37449	0.02764	-0.405
Mof_C 	C 	0.56578	0.32949	0.01434	0.378
Mof_C 	C 	0.51744	0.32747	0.9882	-0.115
Mof_C 	C 	0.4711	0.2807	0.9789	0.043
Mof_H 	H 	0.4698	0.2487	0.986	0.03
Mof_C 	C 	0.4259	0.2801	0.9591	-0.106
Mof_H 	H 	0.3951	0.2477	0.9536	0.076
Mof_C 	C 	0.4257	0.326	0.9477	0.043
Mof_C 	C 	0.4749	0.3732	0.9507	-0.105
Mof_H 	H 	0.4776	0.4049	0.9389	0.066
Mof_C 	C 	0.5193	0.3734	0.9708	0.042
Mof_H 	H 	0.5513	0.4053	0.9728	0.032
Mof_C 	C 	0.3773	0.3276	0.931	0.076
Mof_C 	C 	0.3781	0.3757	0.9317	-0.123
Mof_H 	H 	0.4087	0.4065	0.9423	0.071
Mof_C 	C 	0.2865	0.4309	0.9146	-0.138
Mof_H 	H 	0.254	0.3994	0.9136	0.077
Mof_C 	C 	0.2883	0.4792	0.9141	0.088
Mof_H 	H 	0.2564	0.4792	0.9119	0.007
Mof_O 	O 	0.23117	0.61964	0.35417	-0.408
Mof_O 	O 	0.2698	0.70782	0.36097	-0.405
Mof_C 	C 	0.23245	0.66282	0.34767	0.378
Mof_C 	C 	0.18411	0.6608	0.32153	-0.115
Mof_C 	C 	0.13777	0.61403	0.31223	0.043
Mof_H 	H 	0.13647	0.58203	0.31933	0.03
Mof_C 	C 	0.09257	0.61343	0.29243	-0.106
Mof_H 	H 	0.06177	0.58103	0.28693	0.075
Mof_C 	C 	0.09237	0.65933	0.28103	0.043
Mof_C 	C 	0.14157	0.70653	0.28403	-0.106
Mof_H 	H 	0.14427	0.73823	0.27223	0.066
Mof_C 	C 	0.18597	0.70673	0.30413	0.042
Mof_H 	H 	0.21797	0.73863	0.30613	0.032
Mof_C 	C 	0.04397	0.66093	0.26433	0.074
Mof_C 	C 	0.04477	0.70903	0.26503	-0.121
Mof_H 	H 	0.07537	0.73983	0.27563	0.07
Mof_C 	C 	0.95317	0.76423	0.24793	-0.131
Mof_H 	H 	0.92067	0.73273	0.24693	0.076
Mof_C 	C 	0.95497	0.81253	0.24743	0.092
Mof_H 	H 	0.92307	0.81253	0.24523	0.007
Mof_O 	O 	0.89783	0.95298	0.68751	-0.407
Mof_O 	O 	0.93646	0.04116	0.69431	-0.408
Mof_C 	C 	0.89911	0.99616	0.68101	0.384
Mof_C 	C 	0.85077	0.99414	0.65487	-0.109
Mof_C 	C 	0.80443	0.94737	0.64557	0.042
Mof_H 	H 	0.80313	0.91537	0.65267	0.031
Mof_C 	C 	0.75923	0.94677	0.62577	-0.106
Mof_H 	H 	0.72843	0.91437	0.62027	0.076
Mof_C 	C 	0.75903	0.99267	0.61437	0.048
Mof_C 	C 	0.80823	0.03987	0.61737	-0.11
Mof_H 	H 	0.81093	0.07157	0.60557	0.067
Mof_C 	C 	0.85263	0.04007	0.63747	0.035
Mof_H 	H 	0.88463	0.07197	0.63947	0.034
Mof_C 	C 	0.71063	0.99427	0.59767	0.081
Mof_C 	C 	0.71143	0.04237	0.59837	-0.129
Mof_H 	H 	0.74203	0.07317	0.60897	0.072
Mof_C 	C 	0.61983	0.09757	0.58127	-0.139
Mof_H 	H 	0.58733	0.06607	0.58027	0.076
Mof_C 	C 	0.62163	0.14587	0.58077	0.088
Mof_H 	H 	0.58973	0.14587	0.57857	0.007
Mof_O 	O 	0.71369	0.27819	0.02084	-0.408
Mof_O 	O 	0.62551	0.22864	0.02764	-0.405
Mof_C 	C 	0.67051	0.23629	0.01434	0.378
Mof_C 	C 	0.67253	0.18997	0.9882	-0.114
Mof_C 	C 	0.7193	0.1904	0.9789	0.042
Mof_H 	H 	0.7513	0.2211	0.986	0.031
Mof_C 	C 	0.7199	0.1458	0.9591	-0.105
Mof_H 	H 	0.7523	0.1474	0.9536	0.076
Mof_C 	C 	0.674	0.0997	0.9477	0.041
Mof_C 	C 	0.6268	0.1017	0.9507	-0.104
Mof_H 	H 	0.5951	0.0727	0.9389	0.065
Mof_C 	C 	0.6266	0.1459	0.9708	0.041
Mof_H 	H 	0.5947	0.146	0.9728	0.032
Mof_C 	C 	0.6724	0.0497	0.931	0.078
Mof_C 	C 	0.6243	0.0024	0.9317	-0.132
Mof_H 	H 	0.5935	0.0022	0.9423	0.072
Mof_C 	C 	0.5691	0.8556	0.9146	-0.137
Mof_H 	H 	0.6006	0.8546	0.9136	0.077
Mof_C 	C 	0.5208	0.8091	0.9141	0.088
Mof_H 	H 	0.5208	0.7772	0.9119	0.007
Mof_O 	O 	0.38036	0.61152	0.35417	-0.408
Mof_O 	O 	0.29218	0.56197	0.36097	-0.405
Mof_C 	C 	0.33718	0.56962	0.34767	0.378
Mof_C 	C 	0.3392	0.5233	0.32153	-0.115
Mof_C 	C 	0.38597	0.52373	0.31223	0.043
Mof_H 	H 	0.41797	0.55443	0.31933	0.03
Mof_C 	C 	0.38657	0.47913	0.29243	-0.106
Mof_H 	H 	0.41897	0.48073	0.28693	0.076
Mof_C 	C 	0.34067	0.43303	0.28103	0.043
Mof_C 	C 	0.29347	0.43503	0.28403	-0.105
Mof_H 	H 	0.26177	0.40603	0.27223	0.066
Mof_C 	C 	0.29327	0.47923	0.30413	0.042
Mof_H 	H 	0.26137	0.47933	0.30613	0.032
Mof_C 	C 	0.33907	0.38303	0.26433	0.076
Mof_C 	C 	0.29097	0.33573	0.26503	-0.123
Mof_H 	H 	0.26017	0.33553	0.27563	0.071
Mof_C 	C 	0.23577	0.18893	0.24793	-0.138
Mof_H 	H 	0.26727	0.18793	0.24693	0.077
Mof_C 	C 	0.18747	0.14243	0.24743	0.088
Mof_H 	H 	0.18747	0.11053	0.24523	0.007
Mof_O 	O 	0.04702	0.94486	0.68751	-0.404
Mof_O 	O 	0.95884	0.89531	0.69431	-0.399
Mof_C 	C 	0.00384	0.90296	0.68101	0.372
Mof_C 	C 	0.00586	0.85664	0.65487	-0.12
Mof_C 	C 	0.05263	0.85707	0.64557	0.043
Mof_H 	H 	0.08463	0.88777	0.65267	0.031
Mof_C 	C 	0.05323	0.81247	0.62577	-0.105
Mof_H 	H 	0.08563	0.81407	0.62027	0.076
Mof_C 	C 	0.00733	0.76637	0.61437	0.038
Mof_C 	C 	0.96013	0.76837	0.61737	-0.1
Mof_H 	H 	0.92843	0.73937	0.60557	0.065
Mof_C 	C 	0.95993	0.81257	0.63747	0.048
Mof_H 	H 	0.92803	0.81267	0.63947	0.031
Mof_C 	C 	0.00573	0.71637	0.59767	0.071
Mof_C 	C 	0.95763	0.66907	0.59837	-0.117
Mof_H 	H 	0.92683	0.66887	0.60897	0.07
Mof_C 	C 	0.90243	0.52227	0.58127	-0.137
Mof_H 	H 	0.93393	0.52127	0.58027	0.078
Mof_C 	C 	0.85413	0.47577	0.58077	0.088
Mof_H 	H 	0.85413	0.44387	0.57857	0.008
Mof_O 	O 	0.72181	0.4355	0.02084	-0.408
Mof_O 	O 	0.77136	0.39687	0.02764	-0.405
Mof_C 	C 	0.76371	0.43422	0.01434	0.379
Mof_C 	C 	0.81003	0.48256	0.9882	-0.116
Mof_C 	C 	0.8096	0.5289	0.9789	0.044
Mof_H 	H 	0.7789	0.5302	0.986	0.03
Mof_C 	C 	0.8542	0.5741	0.9591	-0.107
Mof_H 	H 	0.8526	0.6049	0.9536	0.077
Mof_C 	C 	0.9003	0.5743	0.9477	0.045
Mof_C 	C 	0.8983	0.5251	0.9507	-0.107
Mof_H 	H 	0.9273	0.5224	0.9389	0.067
Mof_C 	C 	0.8541	0.4807	0.9708	0.043
Mof_H 	H 	0.854	0.4487	0.9728	0.032
Mof_C 	C 	0.9503	0.6227	0.931	0.074
Mof_C 	C 	0.9976	0.6219	0.9317	-0.114
Mof_H 	H 	0.9978	0.5913	0.9423	0.07
Mof_C 	C 	0.1444	0.7135	0.9146	-0.139
Mof_H 	H 	0.1454	0.746	0.9136	0.077
Mof_C 	C 	0.1909	0.7117	0.9141	0.089
Mof_H 	H 	0.2228	0.7436	0.9119	0.007
Mof_O 	O 	0.38848	0.76883	0.35417	-0.408
Mof_O 	O 	0.43803	0.7302	0.36097	-0.405
Mof_C 	C 	0.43038	0.76755	0.34767	0.378
Mof_C 	C 	0.4767	0.81589	0.32153	-0.115
Mof_C 	C 	0.47627	0.86223	0.31223	0.043
Mof_H 	H 	0.44557	0.86353	0.31933	0.031
Mof_C 	C 	0.52087	0.90743	0.29243	-0.106
Mof_H 	H 	0.51927	0.93823	0.28693	0.078
Mof_C 	C 	0.56697	0.90763	0.28103	0.043
Mof_C 	C 	0.56497	0.85843	0.28403	-0.105
Mof_H 	H 	0.59397	0.85573	0.27223	0.066
Mof_C 	C 	0.52077	0.81403	0.30413	0.042
Mof_H 	H 	0.52067	0.78203	0.30613	0.032
Mof_C 	C 	0.61697	0.95603	0.26433	0.078
Mof_C 	C 	0.66427	0.95523	0.26503	-0.115
Mof_H 	H 	0.66447	0.92463	0.27563	0.069
Mof_C 	C 	0.81107	0.04683	0.24793	-0.136
Mof_H 	H 	0.81207	0.07933	0.24693	0.076
Mof_C 	C 	0.85757	0.04503	0.24743	0.086
Mof_H 	H 	0.88947	0.07693	0.24523	0.008
Mof_O 	O 	0.05514	0.10217	0.68751	-0.409
Mof_O 	O 	0.10469	0.06354	0.69431	-0.406
Mof_C 	C 	0.09704	0.10089	0.68101	0.379
Mof_C 	C 	0.14336	0.14923	0.65487	-0.116
Mof_C 	C 	0.14293	0.19557	0.64557	0.043
Mof_H 	H 	0.11223	0.19687	0.65267	0.03
Mof_C 	C 	0.18753	0.24077	0.62577	-0.107
Mof_H 	H 	0.18593	0.27157	0.62027	0.076
Mof_C 	C 	0.23363	0.24097	0.61437	0.043
Mof_C 	C 	0.23163	0.19177	0.61737	-0.106
Mof_H 	H 	0.26063	0.18907	0.60557	0.066
Mof_C 	C 	0.18743	0.14737	0.63747	0.042
Mof_H 	H 	0.18733	0.11537	0.63947	0.031
Mof_C 	C 	0.28363	0.28937	0.59767	0.075
Mof_C 	C 	0.33093	0.28857	0.59837	-0.123
Mof_H 	H 	0.33113	0.25797	0.60897	0.071
Mof_C 	C 	0.47773	0.38017	0.58127	-0.138
Mof_H 	H 	0.47873	0.41267	0.58027	0.077
Mof_C 	C 	0.52423	0.37837	0.58077	0.088
Mof_H 	H 	0.55613	0.41027	0.57857	0.007
Mof_O 	O 	0.28631	0.5645	0.47916	-0.408
Mof_O 	O 	0.37449	0.60313	0.47236	-0.405
Mof_C 	C 	0.32949	0.56578	0.48566	0.378
Mof_C 	C 	0.32747	0.51744	0.5118	-0.115
Mof_C 	C 	0.2807	0.4711	0.5211	0.043
Mof_H 	H 	0.2487	0.4698	0.514	0.03
Mof_C 	C 	0.2801	0.4259	0.5409	-0.106
Mof_H 	H 	0.2477	0.3951	0.5464	0.076
Mof_C 	C 	0.326	0.4257	0.5523	0.043
Mof_C 	C 	0.3732	0.4749	0.5493	-0.105
Mof_H 	H 	0.4049	0.4776	0.5611	0.066
Mof_C 	C 	0.3734	0.5193	0.5292	0.042
Mof_H 	H 	0.4053	0.5513	0.5272	0.032
Mof_C 	C 	0.3276	0.3773	0.569	0.076
Mof_C 	C 	0.3757	0.3781	0.5683	-0.123
Mof_H 	H 	0.4065	0.4087	0.5577	0.071
Mof_C 	C 	0.4309	0.2865	0.5854	-0.138
Mof_H 	H 	0.3994	0.254	0.5864	0.077
Mof_C 	C 	0.4792	0.2883	0.5859	0.088
Mof_H 	H 	0.4792	0.2564	0.5881	0.007
Mof_O 	O 	0.95298	0.89783	0.81249	-0.407
Mof_O 	O 	0.04116	0.93646	0.80569	-0.408
Mof_C 	C 	0.99616	0.89911	0.81899	0.384
Mof_C 	C 	0.99414	0.85077	0.84513	-0.109
Mof_C 	C 	0.94737	0.80443	0.85443	0.042
Mof_H 	H 	0.91537	0.80313	0.84733	0.031
Mof_C 	C 	0.94677	0.75923	0.87423	-0.106
Mof_H 	H 	0.91437	0.72843	0.87973	0.076
Mof_C 	C 	0.99267	0.75903	0.88563	0.048
Mof_C 	C 	0.03987	0.80823	0.88263	-0.11
Mof_H 	H 	0.07157	0.81093	0.89443	0.067
Mof_C 	C 	0.04007	0.85263	0.86253	0.036
Mof_H 	H 	0.07197	0.88463	0.86053	0.034
Mof_C 	C 	0.99427	0.71063	0.90233	0.081
Mof_C 	C 	0.04237	0.71143	0.90163	-0.129
Mof_H 	H 	0.07317	0.74203	0.89103	0.072
Mof_C 	C 	0.09757	0.61983	0.91873	-0.139
Mof_H 	H 	0.06607	0.58733	0.91973	0.076
Mof_C 	C 	0.14587	0.62163	0.91923	0.088
Mof_H 	H 	0.14587	0.58973	0.92143	0.007
Mof_O 	O 	0.61964	0.23117	0.14583	-0.408
Mof_O 	O 	0.70782	0.2698	0.13903	-0.405
Mof_C 	C 	0.66282	0.23245	0.15233	0.378
Mof_C 	C 	0.6608	0.18411	0.17847	-0.115
Mof_C 	C 	0.61403	0.13777	0.18777	0.043
Mof_H 	H 	0.58203	0.13647	0.18067	0.03
Mof_C 	C 	0.61343	0.09257	0.20757	-0.106
Mof_H 	H 	0.58103	0.06177	0.21307	0.075
Mof_C 	C 	0.65933	0.09237	0.21897	0.043
Mof_C 	C 	0.70653	0.14157	0.21597	-0.106
Mof_H 	H 	0.73823	0.14427	0.22777	0.066
Mof_C 	C 	0.70673	0.18597	0.19587	0.042
Mof_H 	H 	0.73863	0.21797	0.19387	0.032
Mof_C 	C 	0.66093	0.04397	0.23567	0.074
Mof_C 	C 	0.70903	0.04477	0.23497	-0.121
Mof_H 	H 	0.73983	0.07537	0.22437	0.07
Mof_C 	C 	0.76423	0.95317	0.25207	-0.131
Mof_H 	H 	0.73273	0.92067	0.25307	0.076
Mof_C 	C 	0.81253	0.95497	0.25257	0.092
Mof_H 	H 	0.81253	0.92307	0.25477	0.007
Mof_O 	O 	0.27819	0.71369	0.47916	-0.408
Mof_O 	O 	0.22864	0.62551	0.47236	-0.405
Mof_C 	C 	0.23629	0.67051	0.48566	0.378
Mof_C 	C 	0.18997	0.67253	0.5118	-0.114
Mof_C 	C 	0.1904	0.7193	0.5211	0.042
Mof_H 	H 	0.2211	0.7513	0.514	0.031
Mof_C 	C 	0.1458	0.7199	0.5409	-0.105
Mof_H 	H 	0.1474	0.7523	0.5464	0.076
Mof_C 	C 	0.0997	0.674	0.5523	0.041
Mof_C 	C 	0.1017	0.6268	0.5493	-0.104
Mof_H 	H 	0.0727	0.5951	0.5611	0.065
Mof_C 	C 	0.1459	0.6266	0.5292	0.041
Mof_H 	H 	0.146	0.5947	0.5272	0.032
Mof_C 	C 	0.0497	0.6724	0.569	0.078
Mof_C 	C 	0.0024	0.6243	0.5683	-0.132
Mof_H 	H 	0.0022	0.5935	0.5577	0.072
Mof_C 	C 	0.8556	0.5691	0.5854	-0.137
Mof_H 	H 	0.8546	0.6006	0.5864	0.077
Mof_C 	C 	0.8091	0.5208	0.5859	0.088
Mof_H 	H 	0.7772	0.5208	0.5881	0.008
Mof_O 	O 	0.94486	0.04702	0.81249	-0.404
Mof_O 	O 	0.89531	0.95884	0.80569	-0.399
Mof_C 	C 	0.90296	0.00384	0.81899	0.372
Mof_C 	C 	0.85664	0.00586	0.84513	-0.12
Mof_C 	C 	0.85707	0.05263	0.85443	0.043
Mof_H 	H 	0.88777	0.08463	0.84733	0.031
Mof_C 	C 	0.81247	0.05323	0.87423	-0.105
Mof_H 	H 	0.81407	0.08563	0.87973	0.076
Mof_C 	C 	0.76637	0.00733	0.88563	0.038
Mof_C 	C 	0.76837	0.96013	0.88263	-0.1
Mof_H 	H 	0.73937	0.92843	0.89443	0.065
Mof_C 	C 	0.81257	0.95993	0.86253	0.048
Mof_H 	H 	0.81267	0.92803	0.86053	0.031
Mof_C 	C 	0.71637	0.00573	0.90233	0.071
Mof_C 	C 	0.66907	0.95763	0.90163	-0.117
Mof_H 	H 	0.66887	0.92683	0.89103	0.07
Mof_C 	C 	0.52227	0.90243	0.91873	-0.137
Mof_H 	H 	0.52127	0.93393	0.91973	0.078
Mof_C 	C 	0.47577	0.85413	0.91923	0.088
Mof_H 	H 	0.44387	0.85413	0.92143	0.008
Mof_O 	O 	0.61152	0.38036	0.14583	-0.408
Mof_O 	O 	0.56197	0.29218	0.13903	-0.405
Mof_C 	C 	0.56962	0.33718	0.15233	0.378
Mof_C 	C 	0.5233	0.3392	0.17847	-0.115
Mof_C 	C 	0.52373	0.38597	0.18777	0.043
Mof_H 	H 	0.55443	0.41797	0.18067	0.03
Mof_C 	C 	0.47913	0.38657	0.20757	-0.106
Mof_H 	H 	0.48073	0.41897	0.21307	0.076
Mof_C 	C 	0.43303	0.34067	0.21897	0.043
Mof_C 	C 	0.43503	0.29347	0.21597	-0.105
Mof_H 	H 	0.40603	0.26177	0.22777	0.066
Mof_C 	C 	0.47923	0.29327	0.19587	0.042
Mof_H 	H 	0.47933	0.26137	0.19387	0.032
Mof_C 	C 	0.38303	0.33907	0.23567	0.076
Mof_C 	C 	0.33573	0.29097	0.23497	-0.123
Mof_H 	H 	0.33553	0.26017	0.22437	0.071
Mof_C 	C 	0.18893	0.23577	0.25207	-0.138
Mof_H 	H 	0.18793	0.26727	0.25307	0.077
Mof_C 	C 	0.14243	0.18747	0.25257	0.088
Mof_H 	H 	0.11053	0.18747	0.25477	0.007
Mof_O 	O 	0.4355	0.72181	0.47916	-0.408
Mof_O 	O 	0.39687	0.77136	0.47236	-0.405
Mof_C 	C 	0.43422	0.76371	0.48566	0.379
Mof_C 	C 	0.48256	0.81003	0.5118	-0.116
Mof_C 	C 	0.5289	0.8096	0.5211	0.044
Mof_H 	H 	0.5302	0.7789	0.514	0.03
Mof_C 	C 	0.5741	0.8542	0.5409	-0.107
Mof_H 	H 	0.6049	0.8526	0.5464	0.077
Mof_C 	C 	0.5743	0.9003	0.5523	0.045
Mof_C 	C 	0.5251	0.8983	0.5493	-0.107
Mof_H 	H 	0.5224	0.9273	0.5611	0.067
Mof_C 	C 	0.4807	0.8541	0.5292	0.043
Mof_H 	H 	0.4487	0.854	0.5272	0.032
Mof_C 	C 	0.6227	0.9503	0.569	0.074
Mof_C 	C 	0.6219	0.9976	0.5683	-0.114
Mof_H 	H 	0.5913	0.9978	0.5577	0.07
Mof_C 	C 	0.7135	0.1444	0.5854	-0.139
Mof_H 	H 	0.746	0.1454	0.5864	0.077
Mof_C 	C 	0.7117	0.1909	0.5859	0.089
Mof_H 	H 	0.7436	0.2228	0.5881	0.007
Mof_O 	O 	0.10217	0.05514	0.81249	-0.409
Mof_O 	O 	0.06354	0.10469	0.80569	-0.406
Mof_C 	C 	0.10089	0.09704	0.81899	0.379
Mof_C 	C 	0.14923	0.14336	0.84513	-0.116
Mof_C 	C 	0.19557	0.14293	0.85443	0.043
Mof_H 	H 	0.19687	0.11223	0.84733	0.03
Mof_C 	C 	0.24077	0.18753	0.87423	-0.107
Mof_H 	H 	0.27157	0.18593	0.87973	0.076
Mof_C 	C 	0.24097	0.23363	0.88563	0.043
Mof_C 	C 	0.19177	0.23163	0.88263	-0.106
Mof_H 	H 	0.18907	0.26063	0.89443	0.066
Mof_C 	C 	0.14737	0.18743	0.86253	0.042
Mof_H 	H 	0.11537	0.18733	0.86053	0.031
Mof_C 	C 	0.28937	0.28363	0.90233	0.075
Mof_C 	C 	0.28857	0.33093	0.90163	-0.123
Mof_H 	H 	0.25797	0.33113	0.89103	0.071
Mof_C 	C 	0.38017	0.47773	0.91873	-0.138
Mof_H 	H 	0.41267	0.47873	0.91973	0.077
Mof_C 	C 	0.37837	0.52423	0.91923	0.088
Mof_H 	H 	0.41027	0.55613	0.92143	0.007
Mof_O 	O 	0.76883	0.38848	0.14583	-0.408
Mof_O 	O 	0.7302	0.43803	0.13903	-0.405
Mof_C 	C 	0.76755	0.43038	0.15233	0.378
Mof_C 	C 	0.81589	0.4767	0.17847	-0.115
Mof_C 	C 	0.86223	0.47627	0.18777	0.043
Mof_H 	H 	0.86353	0.44557	0.18067	0.031
Mof_C 	C 	0.90743	0.52087	0.20757	-0.106
Mof_H 	H 	0.93823	0.51927	0.21307	0.078
Mof_C 	C 	0.90763	0.56697	0.21897	0.043
Mof_C 	C 	0.85843	0.56497	0.21597	-0.105
Mof_H 	H 	0.85573	0.59397	0.22777	0.066
Mof_C 	C 	0.81403	0.52077	0.19587	0.042
Mof_H 	H 	0.78203	0.52067	0.19387	0.032
Mof_C 	C 	0.95603	0.61697	0.23567	0.078
Mof_C 	C 	0.95523	0.66427	0.23497	-0.115
Mof_H 	H 	0.92463	0.66447	0.22437	0.069
Mof_C 	C 	0.04683	0.81107	0.25207	-0.136
Mof_H 	H 	0.07933	0.81207	0.25307	0.076
Mof_C 	C 	0.04503	0.85757	0.25257	0.086
Mof_H 	H 	0.07693	0.88947	0.25477	0.008
Mof_Ni	Ni	0.66667	0.40224	0.08333	1.123
Mof_N 	N 	0.66667	0.47403	0.08333	-0.212
Mof_N 	N 	0.66667	0.71845	0.08333	-0.129
Mof_C 	C 	0.66667	0.62188	0.08333	0.049
Mof_C 	C 	0.66667	0.57048	0.08333	0.065
Mof_Ni	Ni	0.59776	0.26442	0.08333	1.123
Mof_N 	N 	0.52597	0.19263	0.08333	-0.212
Mof_N 	N 	0.28155	0.94821	0.08333	-0.129
Mof_C 	C 	0.37812	0.04478	0.08333	0.043
Mof_C 	C 	0.42952	0.09618	0.08333	0.066
Mof_Ni	Ni	0.73558	0.33333	0.08333	1.123
Mof_N 	N 	0.80737	0.33333	0.08333	-0.211
Mof_N 	N 	0.05179	0.33333	0.08333	-0.129
Mof_C 	C 	0.95522	0.33333	0.08333	0.055
Mof_C 	C 	0.90382	0.33333	0.08333	0.064
Mof_Ni	Ni	0.40224	0.66667	0.41667	1.123
Mof_N 	N 	0.47403	0.66667	0.41667	-0.212
Mof_N 	N 	0.71845	0.66667	0.41667	-0.129
Mof_C 	C 	0.62188	0.66667	0.41667	0.049
Mof_C 	C 	0.57048	0.66667	0.41667	0.065
Mof_Ni	Ni	0.06891	-1.12776e-32	0.75	1.121
Mof_N 	N 	0.1407	-1.12776e-32	0.75	-0.215
Mof_N 	N 	0.38512	-1.12776e-32	0.75	-0.132
Mof_C 	C 	0.28855	-1.12776e-32	0.75	0.043
Mof_C 	C 	0.23715	-1.12776e-32	0.75	0.059
Mof_Ni	Ni	0.26442	0.59776	0.41667	1.123
Mof_N 	N 	0.19263	0.52597	0.41667	-0.212
Mof_N 	N 	0.94821	0.28155	0.41667	-0.129
Mof_C 	C 	0.04478	0.37812	0.41667	0.043
Mof_C 	C 	0.09618	0.42952	0.41667	0.066
Mof_Ni	Ni	0.93109	0.93109	0.75	1.125
Mof_N 	N 	0.8593	0.8593	0.75	-0.212
Mof_N 	N 	0.61488	0.61488	0.75	-0.129
Mof_C 	C 	0.71145	0.71145	0.75	0.049
Mof_C 	C 	0.76285	0.76285	0.75	0.065
Mof_Ni	Ni	0.33333	0.73558	0.41667	1.123
Mof_N 	N 	0.33333	0.80737	0.41667	-0.211
Mof_N 	N 	0.33333	0.05179	0.41667	-0.129
Mof_C 	C 	0.33333	0.95522	0.41667	0.055
Mof_C 	C 	0.33333	0.90382	0.41667	0.064
Mof_Ni	Ni	5.06436e-18	0.06891	0.75	1.121
Mof_N 	N 	1.14131e-17	0.1407	0.75	-0.215
Mof_N 	N 	-2.66792e-17	0.38512	0.75	-0.132
Mof_C 	C 	-1.28436e-18	0.28855	0.75	0.043
Mof_C 	C 	2.41105e-17	0.23715	0.75	0.059
Mof_Ni	Ni	0.33333	0.59776	0.91667	1.123
Mof_N 	N 	0.33333	0.52597	0.91667	-0.212
Mof_N 	N 	0.33333	0.28155	0.91667	-0.129
Mof_C 	C 	0.33333	0.37812	0.91667	0.049
Mof_C 	C 	0.33333	0.42952	0.91667	0.065
Mof_Ni	Ni	-1.27402e-16	0.93109	0.25	1.122
Mof_N 	N 	-2.5823e-17	0.8593	0.25	-0.215
Mof_N 	N 	-2.5823e-17	0.61488	0.25	-0.132
Mof_C 	C 	2.49667e-17	0.71145	0.25	0.043
Mof_C 	C 	7.57564e-17	0.76285	0.25	0.059
Mof_Ni	Ni	0.40224	0.73558	0.91667	1.123
Mof_N 	N 	0.47403	0.80737	0.91667	-0.211
Mof_N 	N 	0.71845	0.05179	0.91667	-0.129
Mof_C 	C 	0.62188	0.95522	0.91667	0.055
Mof_C 	C 	0.57048	0.90382	0.91667	0.064
Mof_Ni	Ni	0.06891	0.06891	0.25	1.123
Mof_N 	N 	0.1407	0.1407	0.25	-0.212
Mof_N 	N 	0.38512	0.38512	0.25	-0.129
Mof_C 	C 	0.28855	0.28855	0.25	0.049
Mof_C 	C 	0.23715	0.23715	0.25	0.065
Mof_Ni	Ni	0.26442	0.66667	0.91667	1.123
Mof_N 	N 	0.19263	0.66667	0.91667	-0.212
Mof_N 	N 	0.94821	0.66667	0.91667	-0.129
Mof_C 	C 	0.04478	0.66667	0.91667	0.043
Mof_C 	C 	0.09618	0.66667	0.91667	0.066
Mof_Ni	Ni	0.93109	-5.63879e-33	0.25	1.122
Mof_N 	N 	0.8593	-5.63879e-33	0.25	-0.215
Mof_N 	N 	0.61488	-5.63879e-33	0.25	-0.132
Mof_C 	C 	0.71145	-5.63879e-33	0.25	0.043
Mof_C 	C 	0.76285	-5.63879e-33	0.25	0.059
Mof_Ni	Ni	0.59776	0.33333	0.58333	1.123
Mof_N 	N 	0.52597	0.33333	0.58333	-0.212
Mof_N 	N 	0.28155	0.33333	0.58333	-0.129
Mof_C 	C 	0.37812	0.33333	0.58333	0.049
Mof_C 	C 	0.42952	0.33333	0.58333	0.065
Mof_Ni	Ni	0.73558	0.40224	0.58333	1.123
Mof_N 	N 	0.80737	0.47403	0.58333	-0.211
Mof_N 	N 	0.05179	0.71845	0.58333	-0.129
Mof_C 	C 	0.95522	0.62188	0.58333	0.055
Mof_C 	C 	0.90382	0.57048	0.58333	0.064
Mof_Ni	Ni	0.66667	0.26442	0.58333	1.123
Mof_N 	N 	0.66667	0.19263	0.58333	-0.212
Mof_N 	N 	0.66667	0.94821	0.58333	-0.129
Mof_C 	C 	0.66667	0.04478	0.58333	0.043
Mof_C 	C 	0.66667	0.09618	0.58333	0.066
Mof_O 	O 	0.66667	0.33333	0.08333	-0.742
Mof_O 	O 	5.63879e-33	-1.12776e-32	0.75	-0.744
Mof_O 	O 	0.33333	0.66667	0.41667	-0.742
Mof_O 	O 	0.33333	0.66667	0.91667	-0.742
Mof_O 	O 	-2.8194e-33	-5.63879e-33	0.25	-0.744
Mof_O 	O 	0.66667	0.33333	0.58333	-0.742
Mof_H 	H 	0.66667	0.33333	0.1233	0.138
Mof_H 	H 	0.33333	0.66667	0.45663	0.138
Mof_H 	H 	-5.63879e-33	0	0.78997	0.135
Mof_H 	H 	0.33333	0.66667	0.3767	0.138
Mof_H 	H 	-0	0	0.71003	0.135
Mof_H 	H 	0.66667	0.33333	0.04337	0.138
Mof_H 	H 	0.33333	0.66667	0.8767	0.138
Mof_H 	H 	-1.4097e-33	-2.8194e-33	0.21003	0.135
Mof_H 	H 	0.66667	0.33333	0.54337	0.138
Mof_H 	H 	0.66667	0.33333	0.6233	0.138
Mof_H 	H 	0.33333	0.66667	0.95663	0.138
Mof_H 	H 	-0	0	0.28997	0.135
_end
