# CIF file generated by openbabel 3.1.0, see https://openbabel.org
data_I
_chemical_name_common 'image0'
_cell_length_a 14.0905
_cell_length_b 14.6762
_cell_length_c 21.5858
_cell_angle_alpha 89.937
_cell_angle_beta 85.402
_cell_angle_gamma 61.994
_space_group_name_H-M_alt 'P 1'
_space_group_name_Hall 'P 1'
loop_
    _symmetry_equiv_pos_as_xyz
    x,y,z
loop_
    _atom_site_label
    _atom_site_type_symbol
    _atom_site_fract_x
    _atom_site_fract_y
    _atom_site_fract_z
    _atom_site_occupancy
    C1       C        0.22130    0.32400    0.74423    1.000
    C2       C        0.15990    0.42650    0.76459    1.000
    H1       H        0.11730    0.44280    0.80230    1.000
    C3       C        0.16140    0.50360    0.72967    1.000
    C4       C        0.22080    0.48450    0.67292    1.000
    H2       H        0.21940    0.53870    0.65000    1.000
    C5       C        0.28210    0.38430    0.65076    1.000
    C6       C        0.28150    0.30330    0.68723    1.000
    H3       H        0.32240    0.23520    0.67240    1.000
    C7       C        0.13910    0.17390    0.85852    1.000
    H4       H        0.08040    0.18680    0.88670    1.000
    C8       C        0.13820    0.25640    0.82499    1.000
    H5       H        0.08100    0.32270    0.83240    1.000
    C9       C        0.22230    0.23890    0.78109    1.000
    C10      C        0.30510    0.14020    0.77373    1.000
    H6       H        0.36440    0.12490    0.74530    1.000
    C11      C        0.30020    0.06320    0.80888    1.000
    H7       H        0.35680    0.99650    0.80200    1.000
    C12      C        0.43380    0.25120    0.49771    1.000
    H8       H        0.45040    0.19030    0.47580    1.000
    C13      C        0.37800    0.26920    0.55491    1.000
    H9       H        0.36220    0.21860    0.57120    1.000
    C14      C        0.34490    0.35840    0.58858    1.000
    C15      C        0.37530    0.42630    0.56153    1.000
    H10      H        0.36060    0.48660    0.58350    1.000
    C16      C        0.42760    0.40680    0.50197    1.000
    H11      H        0.43660    0.45900    0.48240    1.000
    C17      C        0.00360    0.65680    0.77150    1.000
    C18      C        0.97750    0.72200    0.82363    1.000
    H12      H        0.03160    0.72090    0.84610    1.000
    C19      C        0.86990    0.78890    0.84189    1.000
    C20      C        0.78850    0.79300    0.80811    1.000
    H13      H        0.71680    0.83980    0.81990    1.000
    C21      C        0.81520    0.72640    0.75646    1.000
    C22      C        0.92320    0.65880    0.73767    1.000
    H14      H        0.94100    0.61520    0.70260    1.000
    C23      C        0.55320    0.81620    0.68715    1.000
    H15      H        0.48950    0.87780    0.68590    1.000
    C24      C        0.63210    0.81840    0.71703    1.000
    H16      H        0.62120    0.88010    0.73560    1.000
    C25      C        0.72900    0.73030    0.72052    1.000
    C26      C        0.73530    0.64170    0.69368    1.000
    H17      H        0.79680    0.57880    0.69660    1.000
    C27      C        0.65230    0.64530    0.66296    1.000
    H18      H        0.66120    0.58460    0.64400    1.000
    C28      C        0.90430    0.92190    0.98080    1.000
    H19      H        0.96200    0.92240    0.99880    1.000
    C29      C        0.92360    0.86890    0.92874    1.000
    H20      H        0.99370    0.83760    0.90960    1.000
    C30      C        0.84430    0.85650    0.90010    1.000
    C31      C        0.74060    0.91900    0.92655    1.000
    H21      H        0.68130    0.92250    0.90840    1.000
    C32      C        0.72650    0.97640    0.98089    1.000
    H22      H        0.65610    0.01820    0.99790    1.000
    C33      C        0.55550    0.42900    0.30333    1.000
    C34      C        0.51720    0.53890    0.28611    1.000
    C35      C        0.45000    0.61830    0.33003    1.000
    H23      H        0.42850    0.60310    0.36880    1.000
    C36      C        0.41680    0.71920    0.31427    1.000
    H24      H        0.37400    0.77270    0.34320    1.000
    C37      C        0.44580    0.74150    0.25716    1.000
    C38      C        0.51410    0.66340    0.21301    1.000
    H25      H        0.53420    0.67940    0.17410    1.000
    C39      C        0.55100    0.56090    0.22920    1.000
    H26      H        0.59860    0.50750    0.20150    1.000
    C40      C        0.26530    0.90960    0.21765    1.000
    C41      C        0.17640    0.98640    0.25316    1.000
    H27      H        0.18600    0.01520    0.28900    1.000
    C42      C        0.07380    0.01940    0.23462    1.000
    H28      H        0.01440    0.07110    0.25780    1.000
    C43      C        0.05920    0.97580    0.18166    1.000
    C44      C        0.14790    0.89960    0.14639    1.000
    H29      H        0.13820    0.87100    0.11060    1.000
    C45      C        0.25150    0.86590    0.16457    1.000
    H30      H        0.31090    0.81430    0.14120    1.000
    C46      C        0.95170    0.01200    0.15897    1.000
    C47      C        0.70450    0.08560    0.35425    1.000
    C48      C        0.78590    0.97580    0.34712    1.000
    C49      C        0.77440    0.90330    0.38355    1.000
    H31      H        0.71310    0.92350    0.41110    1.000
    C50      C        0.85410    0.80000    0.37916    1.000
    H32      H        0.84590    0.75130    0.40340    1.000
    C51      C        0.94600    0.77060    0.33821    1.000
    C52      C        0.95860    0.84220    0.30185    1.000
    H33      H        0.02040    0.82180    0.27470    1.000
    C53      C        0.87840    0.94520    0.30586    1.000
    H34      H        0.88650    0.99350    0.28110    1.000
    C54      C        0.11850    0.64980    0.40174    1.000
    C55      C        0.09290    0.62110    0.45809    1.000
    H35      H        0.05000    0.58850    0.46220    1.000
    C56      C        0.13390    0.64280    0.50882    1.000
    H36      H        0.11260    0.62860    0.54800    1.000
    C57      C        0.20160    0.68270    0.50563    1.000
    C58      C        0.23200    0.70710    0.44652    1.000
    H37      H        0.27980    0.73430    0.44250    1.000
    C59      C        0.18980    0.69020    0.39448    1.000
    H38      H        0.20910    0.70580    0.35520    1.000
    C60      C        0.24780    0.70290    0.56220    1.000
    C61      C        0.78050    0.25640    0.09415    1.000
    C62      C        0.80140    0.32830    0.05279    1.000
    C63      C        0.79970    0.41780    0.07951    1.000
    H39      H        0.78000    0.43400    0.12180    1.000
    C64      C        0.82680    0.47980    0.04332    1.000
    H40      H        0.82900    0.53650    0.06100    1.000
    C65      C        0.85100    0.45740    0.98033    1.000
    C66      C        0.85780    0.36800    0.95344    1.000
    H41      H        0.87910    0.35140    0.91130    1.000
    C67      C        0.83210    0.30470    0.99058    1.000
    H42      H        0.83570    0.24520    0.97310    1.000
    C68      C        0.75060    0.62040    0.90709    1.000
    C69      C        0.68440    0.70710    0.94249    1.000
    H43      H        0.70790    0.72410    0.97760    1.000
    C70      C        0.58020    0.77030    0.92544    1.000
    H44      H        0.53490    0.83030    0.94910    1.000
    C71      C        0.54420    0.74500    0.87441    1.000
    C72      C        0.61320    0.65650    0.83773    1.000
    H45      H        0.59010    0.64050    0.80210    1.000
    C73      C        0.71620    0.59240    0.85474    1.000
    H46      H        0.76170    0.53170    0.83170    1.000
    C74      C        0.43010    0.81260    0.85781    1.000
    N1       N        0.22060    0.07790    0.85163    1.000
    N2       N        0.46570    0.31420    0.47164    1.000
    N3       N        0.55890    0.73160    0.65875    1.000
    N4       N        0.80400    0.97630    0.00978    1.000
    Ni1      Ni       0.78772    0.04531    0.09797    1.000
    Ni2      Ni       0.72372    0.21476    0.22851    1.000
    O1       O        0.11147    0.60477    0.75252    1.000
    O2       O        0.53115    0.41132    0.35707    1.000
    O3       O        0.60823    0.36150    0.26063    1.000
    O4       O        0.38930    0.93125    0.29269    1.000
    O5       O        0.45840    0.87714    0.18270    1.000
    O6       O        0.86463    0.07386    0.18976    1.000
    O7       O        0.95048    0.97531    0.10642    1.000
    O8       O        0.63780    0.11279    0.39938    1.000
    O9       O        0.69445    0.15443    0.31743    1.000
    O10      O        0.00690    0.57523    0.35085    1.000
    O11      O        0.12470    0.62610    0.28055    1.000
    O12      O        0.20580    0.69460    0.61281    1.000
    Ni3      Ni       0.56837    0.27120    0.38901    1.000
    O13      O        0.32286    0.72475    0.55333    1.000
    O14      O        0.75460    0.28352    0.15087    1.000
    O15      O        0.78725    0.17809    0.06868    1.000
    O16      O        0.90566    0.60375    0.97010    1.000
    O17      O        0.95016    0.48152    0.87952    1.000
    O18      O        0.37289    0.88368    0.89888    1.000
    O19      O        0.40129    0.79341    0.80691    1.000
    S1       S        0.39736    0.87228    0.23730    1.000
    S2       S        0.05218    0.64455    0.33661    1.000
    S3       S        0.87906    0.54160    0.93225    1.000
    C75      C        0.77870    0.67600    0.25577    1.000
    C76      C        0.84010    0.57350    0.23541    1.000
    H47      H        0.88270    0.55720    0.19770    1.000
    C77      C        0.83860    0.49640    0.27033    1.000
    C78      C        0.77920    0.51550    0.32708    1.000
    H48      H        0.78060    0.46130    0.35000    1.000
    C79      C        0.71790    0.61570    0.34924    1.000
    C80      C        0.71850    0.69670    0.31277    1.000
    H49      H        0.67760    0.76480    0.32760    1.000
    C81      C        0.86090    0.82610    0.14148    1.000
    H50      H        0.91960    0.81320    0.11330    1.000
    C82      C        0.86180    0.74360    0.17501    1.000
    H51      H        0.91900    0.67730    0.16760    1.000
    C83      C        0.77770    0.76110    0.21891    1.000
    C84      C        0.69490    0.85980    0.22627    1.000
    H52      H        0.63560    0.87510    0.25470    1.000
    C85      C        0.69980    0.93680    0.19112    1.000
    H53      H        0.64320    0.00350    0.19800    1.000
    C86      C        0.56620    0.74880    0.50229    1.000
    H54      H        0.54960    0.80970    0.52420    1.000
    C87      C        0.62200    0.73080    0.44509    1.000
    H55      H        0.63780    0.78140    0.42880    1.000
    C88      C        0.65510    0.64160    0.41142    1.000
    C89      C        0.62470    0.57370    0.43847    1.000
    H56      H        0.63940    0.51340    0.41650    1.000
    C90      C        0.57240    0.59320    0.49803    1.000
    H57      H        0.56340    0.54100    0.51760    1.000
    C91      C        0.99640    0.34320    0.22850    1.000
    C92      C        0.02250    0.27800    0.17637    1.000
    H58      H        0.96840    0.27910    0.15390    1.000
    C93      C        0.13010    0.21110    0.15811    1.000
    C94      C        0.21150    0.20700    0.19189    1.000
    H59      H        0.28320    0.16020    0.18010    1.000
    C95      C        0.18480    0.27360    0.24354    1.000
    C96      C        0.07680    0.34120    0.26233    1.000
    H60      H        0.05900    0.38480    0.29740    1.000
    C97      C        0.44680    0.18380    0.31285    1.000
    H61      H        0.51050    0.12220    0.31410    1.000
    C98      C        0.36790    0.18160    0.28297    1.000
    H62      H        0.37880    0.11990    0.26440    1.000
    C99      C        0.27100    0.26970    0.27948    1.000
    C100     C        0.26470    0.35830    0.30632    1.000
    H63      H        0.20320    0.42120    0.30340    1.000
    C101     C        0.34770    0.35470    0.33704    1.000
    H64      H        0.33880    0.41540    0.35600    1.000
    C102     C        0.09570    0.07810    0.01920    1.000
    H65      H        0.03800    0.07760    0.00120    1.000
    C103     C        0.07640    0.13110    0.07126    1.000
    H66      H        0.00630    0.16240    0.09040    1.000
    C104     C        0.15570    0.14350    0.09990    1.000
    C105     C        0.25940    0.08100    0.07345    1.000
    H67      H        0.31870    0.07750    0.09160    1.000
    C106     C        0.27350    0.02360    0.01911    1.000
    H68      H        0.34390    0.98180    0.00210    1.000
    C107     C        0.44450    0.57100    0.69667    1.000
    C108     C        0.48280    0.46110    0.71389    1.000
    C109     C        0.55000    0.38170    0.66997    1.000
    H69      H        0.57150    0.39690    0.63120    1.000
    C110     C        0.58320    0.28080    0.68573    1.000
    H70      H        0.62600    0.22730    0.65680    1.000
    C111     C        0.55420    0.25850    0.74284    1.000
    C112     C        0.48590    0.33660    0.78699    1.000
    H71      H        0.46580    0.32060    0.82590    1.000
    C113     C        0.44900    0.43910    0.77080    1.000
    H72      H        0.40140    0.49250    0.79850    1.000
    C114     C        0.73470    0.09040    0.78235    1.000
    C115     C        0.82360    0.01360    0.74684    1.000
    H73      H        0.81400    0.98480    0.71100    1.000
    C116     C        0.92620    0.98060    0.76538    1.000
    H74      H        0.98560    0.92890    0.74220    1.000
    C117     C        0.94080    0.02420    0.81834    1.000
    C118     C        0.85210    0.10040    0.85361    1.000
    H75      H        0.86180    0.12900    0.88940    1.000
    C119     C        0.74850    0.13410    0.83543    1.000
    H76      H        0.68910    0.18570    0.85880    1.000
    C120     C        0.04830    0.98800    0.84103    1.000
    C121     C        0.29550    0.91440    0.64575    1.000
    C122     C        0.21410    0.02420    0.65288    1.000
    C123     C        0.22560    0.09670    0.61645    1.000
    H77      H        0.28690    0.07650    0.58890    1.000
    C124     C        0.14590    0.20000    0.62084    1.000
    H78      H        0.15410    0.24870    0.59660    1.000
    C125     C        0.05400    0.22940    0.66179    1.000
    C126     C        0.04140    0.15780    0.69815    1.000
    H79      H        0.97960    0.17820    0.72530    1.000
    C127     C        0.12160    0.05480    0.69414    1.000
    H80      H        0.11350    0.00650    0.71890    1.000
    C128     C        0.88150    0.35020    0.59826    1.000
    C129     C        0.90710    0.37890    0.54191    1.000
    H81      H        0.95000    0.41150    0.53780    1.000
    C130     C        0.86610    0.35720    0.49118    1.000
    H82      H        0.88740    0.37140    0.45200    1.000
    C131     C        0.79840    0.31730    0.49437    1.000
    C132     C        0.76800    0.29290    0.55348    1.000
    H83      H        0.72020    0.26570    0.55750    1.000
    C133     C        0.81020    0.30980    0.60552    1.000
    H84      H        0.79090    0.29420    0.64480    1.000
    C134     C        0.75220    0.29710    0.43780    1.000
    C135     C        0.21950    0.74360    0.90585    1.000
    C136     C        0.19860    0.67170    0.94721    1.000
    C137     C        0.20030    0.58220    0.92049    1.000
    H85      H        0.22000    0.56600    0.87820    1.000
    C138     C        0.17320    0.52020    0.95668    1.000
    H86      H        0.17100    0.46350    0.93900    1.000
    C139     C        0.14900    0.54260    0.01967    1.000
    C140     C        0.14220    0.63200    0.04656    1.000
    H87      H        0.12090    0.64860    0.08870    1.000
    C141     C        0.16790    0.69530    0.00942    1.000
    H88      H        0.16430    0.75480    0.02690    1.000
    C142     C        0.24940    0.37960    0.09291    1.000
    C143     C        0.31560    0.29290    0.05751    1.000
    H89      H        0.29210    0.27590    0.02240    1.000
    C144     C        0.41980    0.22970    0.07456    1.000
    H90      H        0.46510    0.16970    0.05090    1.000
    C145     C        0.45580    0.25500    0.12559    1.000
    C146     C        0.38680    0.34350    0.16227    1.000
    H91      H        0.40990    0.35950    0.19790    1.000
    C147     C        0.28380    0.40760    0.14526    1.000
    H92      H        0.23830    0.46830    0.16830    1.000
    C148     C        0.56990    0.18740    0.14219    1.000
    N5       N        0.77940    0.92210    0.14837    1.000
    N6       N        0.53430    0.68580    0.52836    1.000
    N7       N        0.44110    0.26840    0.34125    1.000
    N8       N        0.19600    0.02370    0.99022    1.000
    Ni4      Ni       0.21228    0.95469    0.90203    1.000
    Ni5      Ni       0.27628    0.78524    0.77149    1.000
    O20      O        0.88853    0.39523    0.24748    1.000
    O21      O        0.46885    0.58868    0.64293    1.000
    O22      O        0.39177    0.63850    0.73937    1.000
    O23      O        0.61070    0.06875    0.70731    1.000
    O24      O        0.54160    0.12286    0.81730    1.000
    O25      O        0.13537    0.92614    0.81024    1.000
    O26      O        0.04952    0.02469    0.89358    1.000
    O27      O        0.36220    0.88721    0.60062    1.000
    O28      O        0.30555    0.84557    0.68257    1.000
    O29      O        0.99310    0.42477    0.64915    1.000
    O30      O        0.87530    0.37390    0.71945    1.000
    O31      O        0.79420    0.30540    0.38719    1.000
    Ni6      Ni       0.43163    0.72880    0.61099    1.000
    O32      O        0.67714    0.27525    0.44667    1.000
    O33      O        0.24540    0.71648    0.84913    1.000
    O34      O        0.21275    0.82191    0.93132    1.000
    O35      O        0.09434    0.39625    0.02990    1.000
    O36      O        0.04984    0.51848    0.12048    1.000
    O37      O        0.62711    0.11632    0.10112    1.000
    O38      O        0.59871    0.20659    0.19309    1.000
    S4       S        0.60264    0.12772    0.76270    1.000
    S5       S        0.94782    0.35545    0.66339    1.000
    S6       S        0.12094    0.45840    0.06775    1.000
