data_functionalizedCrystal
_audit_creation_method	'EQeq! by Chris Wilmer'
_symmetry_space_group_name_H-M	'P1'
_symmetry_Int_Tables_number	1
_symmetry_cell_setting	triclinic
loop_
_symmetry_equiv_pos_as_xyz
  x,y,z
_cell_length_a	27.779
_cell_length_b	27.779
_cell_length_c	17.807
_cell_angle_alpha	90
_cell_angle_beta	90
_cell_angle_gamma	120
loop_
_atom_site_label
_atom_site_type_symbol
_atom_site_fract_x
_atom_site_fract_y
_atom_site_fract_z
_atom_site_charge
Mof_C 	C 	0.2774	0.0665	0.0562	0.361
Mof_C 	C 	0.2647	0.093	0.1201	-0.056
Mof_C 	C 	0.2689	0.1446	0.1103	0.002
Mof_H 	H 	0.2771	0.1618	0.0623	0.06
Mof_C 	C 	0.26102	0.17068	0.1713	-0.055
Mof_C 	C 	0.2703	0.228	0.162	0.358
Mof_C 	C 	0.24781	0.14565	0.2422	-0.096
Mof_H 	H 	0.2436	0.1643	0.2842	0.077
Mof_C 	C 	0.241	0.0928	0.2494	0.16
Mof_C 	C 	0.2504	0.0668	0.1895	-0.098
Mof_H 	H 	0.2471	0.0313	0.1958	0.08
Mof_C 	C 	0.2067	0.0829	0.3772	-0.026
Mof_H 	H 	0.1775	0.0908	0.3597	0.043
Mof_H 	H 	0.2378	0.1174	0.3983	0.042
Mof_C 	C 	0.1837	0.038	0.4353	0.041
Mof_H 	H 	0.2139	0.0323	0.4546	0.022
Mof_H 	H 	0.1553	0.0028	0.4119	0.023
Mof_C 	C 	0.1577	0.0522	0.5	-0.43
Mof_H 	H 	0.1835	0.09	0.5175	0.154
Mof_H 	H 	0.1498	0.0258	0.5412	0.149
Mof_H 	H 	0.1231	0.0499	0.4833	0.143
Mof_C 	C 	0.2996	0.9345	0.2449	0.368
Mof_C 	C 	0.2597	0.8776	0.2695	-0.071
Mof_C 	C 	0.2095	0.846	0.2321	0.003
Mof_H 	H 	0.201	0.8606	0.1891	0.051
Mof_C 	C 	0.1719	0.7929	0.2582	-0.063
Mof_C 	C 	0.1168	0.7591	0.2206	0.382
Mof_C 	C 	0.1843	0.7713	0.3209	-0.114
Mof_H 	H 	0.1581	0.7354	0.3391	0.089
Mof_C 	C 	0.2345	0.8019	0.3566	0.173
Mof_C 	C 	0.272	0.8552	0.3315	-0.108
Mof_H 	H 	0.3064	0.8765	0.357	0.091
Mof_C 	C 	0.211	0.7396	0.4619	0.092
Mof_Co	Co	0.41122	0.02587	0.25041	1.178
Mof_Co	Co	0.32909	0.99485	0.08717	1.16
Mof_O 	O 	0.27394	0.02003	0.0658	-0.466
Mof_O 	O 	0.29025	0.09176	0.99447	-0.431
Mof_O 	O 	0.28115	0.25807	0.21862	-0.457
Mof_O 	O 	0.26564	0.24293	0.09592	-0.454
Mof_O 	O 	0.22588	0.06306	0.3157	-0.218
Mof_O 	O 	0.29137	0.95246	0.1845	-0.46
Mof_O 	O 	0.34175	0.96315	0.2871	-0.51
Mof_O 	O 	0.08247	0.71471	0.2521	-0.468
Mof_O 	O 	0.1087	0.77753	0.1601	-0.465
Mof_O 	O 	0.25095	0.78392	0.4181	-0.232
Mof_C 	C 	0.2408	0.7258	0.5227	-0.022
Mof_C 	C 	0.2059	0.709	0.5989	0.007
Mof_C 	C 	0.2438	0.7543	0.5451	0.014
Mof_C 	C 	0.94407	0.39983	0.38953	0.359
Mof_C 	C 	0.93137	0.42633	0.45343	-0.057
Mof_C 	C 	0.93557	0.47793	0.44363	0.001
Mof_H 	H 	0.94377	0.49513	0.39563	0.059
Mof_C 	C 	0.92769	0.50401	0.50463	-0.056
Mof_C 	C 	0.93697	0.56133	0.49533	0.357
Mof_C 	C 	0.91448	0.47898	0.57553	-0.098
Mof_H 	H 	0.91027	0.49763	0.61753	0.076
Mof_C 	C 	0.90767	0.42613	0.58273	0.159
Mof_C 	C 	0.91707	0.40013	0.52283	-0.1
Mof_H 	H 	0.91377	0.36463	0.52913	0.079
Mof_C 	C 	0.87337	0.41623	0.71053	-0.027
Mof_H 	H 	0.84417	0.42413	0.69303	0.041
Mof_H 	H 	0.90447	0.45073	0.73163	0.041
Mof_C 	C 	0.85037	0.37133	0.76863	0.04
Mof_H 	H 	0.88057	0.36563	0.78793	0.021
Mof_H 	H 	0.82197	0.33613	0.74523	0.022
Mof_C 	C 	0.82437	0.38553	0.83333	-0.431
Mof_H 	H 	0.85017	0.42333	0.85083	0.153
Mof_H 	H 	0.81647	0.35913	0.87453	0.147
Mof_H 	H 	0.78977	0.38323	0.81663	0.142
Mof_C 	C 	0.96627	0.26783	0.57823	0.366
Mof_C 	C 	0.92637	0.21093	0.60283	-0.072
Mof_C 	C 	0.87617	0.17933	0.56543	0.002
Mof_H 	H 	0.86767	0.19393	0.52243	0.051
Mof_C 	C 	0.83857	0.12623	0.59153	-0.063
Mof_C 	C 	0.78347	0.09243	0.55393	0.382
Mof_C 	C 	0.85097	0.10463	0.65423	-0.114
Mof_H 	H 	0.82477	0.06873	0.67243	0.089
Mof_C 	C 	0.90117	0.13523	0.68993	0.173
Mof_C 	C 	0.93867	0.18853	0.66483	-0.108
Mof_H 	H 	0.97307	0.20983	0.69033	0.091
Mof_C 	C 	0.87767	0.07293	0.79523	0.092
Mof_Co	Co	0.07789	0.3592	0.58374	1.178
Mof_Co	Co	0.99576	0.32818	0.4205	1.161
Mof_O 	O 	0.94061	0.35336	0.39913	-0.466
Mof_O 	O 	0.95692	0.42509	0.3278	-0.43
Mof_O 	O 	0.94782	0.5914	0.55195	-0.457
Mof_O 	O 	0.93231	0.57626	0.42925	-0.454
Mof_O 	O 	0.89255	0.39639	0.64903	-0.218
Mof_O 	O 	0.95804	0.28579	0.51783	-0.459
Mof_O 	O 	0.00842	0.29648	0.62043	-0.509
Mof_O 	O 	0.74914	0.04804	0.58543	-0.468
Mof_O 	O 	0.77537	0.11086	0.49343	-0.464
Mof_O 	O 	0.91762	0.11725	0.75143	-0.232
Mof_C 	C 	0.90747	0.05913	0.85603	-0.022
Mof_C 	C 	0.87257	0.04233	0.93223	0.006
Mof_C 	C 	0.91047	0.08763	0.87843	0.013
Mof_C 	C 	0.61073	0.73317	0.72287	0.359
Mof_C 	C 	0.59803	0.75967	0.78677	-0.057
Mof_C 	C 	0.60223	0.81127	0.77697	0.001
Mof_H 	H 	0.61043	0.82847	0.72897	0.059
Mof_C 	C 	0.59435	0.83735	0.83797	-0.056
Mof_C 	C 	0.60363	0.89467	0.82867	0.357
Mof_C 	C 	0.58114	0.81232	0.90887	-0.097
Mof_H 	H 	0.57693	0.83097	0.95087	0.076
Mof_C 	C 	0.57433	0.75947	0.91607	0.159
Mof_C 	C 	0.58373	0.73347	0.85617	-0.1
Mof_H 	H 	0.58043	0.69797	0.86247	0.079
Mof_C 	C 	0.54003	0.74957	0.04387	-0.028
Mof_H 	H 	0.51083	0.75747	0.02637	0.041
Mof_H 	H 	0.57113	0.78407	0.06497	0.041
Mof_C 	C 	0.51703	0.70467	0.10197	0.041
Mof_H 	H 	0.54723	0.69897	0.12127	0.021
Mof_H 	H 	0.48863	0.66947	0.07857	0.021
Mof_C 	C 	0.49103	0.71887	0.16667	-0.431
Mof_H 	H 	0.51683	0.75667	0.18417	0.153
Mof_H 	H 	0.48313	0.69247	0.20787	0.148
Mof_H 	H 	0.45643	0.71657	0.14997	0.142
Mof_C 	C 	0.63293	0.60117	0.91157	0.366
Mof_C 	C 	0.59303	0.54427	0.93617	-0.071
Mof_C 	C 	0.54283	0.51267	0.89877	0.001
Mof_H 	H 	0.53433	0.52727	0.85577	0.051
Mof_C 	C 	0.50523	0.45957	0.92487	-0.062
Mof_C 	C 	0.45013	0.42577	0.88727	0.382
Mof_C 	C 	0.51763	0.43797	0.98757	-0.116
Mof_H 	H 	0.49143	0.40207	0.00577	0.09
Mof_C 	C 	0.56783	0.46857	0.02327	0.175
Mof_C 	C 	0.60533	0.52187	0.99817	-0.111
Mof_H 	H 	0.63973	0.54317	0.02367	0.092
Mof_C 	C 	0.54433	0.40627	0.12857	0.092
Mof_Co	Co	0.74455	0.69254	0.91708	1.178
Mof_Co	Co	0.66242	0.66152	0.75384	1.16
Mof_O 	O 	0.60727	0.6867	0.73247	-0.467
Mof_O 	O 	0.62358	0.75843	0.66114	-0.43
Mof_O 	O 	0.61448	0.92474	0.88529	-0.456
Mof_O 	O 	0.59897	0.9096	0.76259	-0.454
Mof_O 	O 	0.55921	0.72973	0.98237	-0.218
Mof_O 	O 	0.6247	0.61913	0.85117	-0.459
Mof_O 	O 	0.67508	0.62982	0.95377	-0.51
Mof_O 	O 	0.4158	0.38138	0.91877	-0.468
Mof_O 	O 	0.44203	0.4442	0.82677	-0.464
Mof_O 	O 	0.58428	0.45059	0.08477	-0.233
Mof_C 	C 	0.57413	0.39247	0.18937	-0.022
Mof_C 	C 	0.53923	0.37567	0.26557	0.007
Mof_C 	C 	0.57713	0.42097	0.21177	0.014
Mof_C 	C 	0.9335	0.2109	0.0562	0.362
Mof_C 	C 	0.907	0.1717	0.1201	-0.058
Mof_C 	C 	0.8554	0.1243	0.1103	0.002
Mof_H 	H 	0.8382	0.1153	0.0623	0.06
Mof_C 	C 	0.82932	0.09034	0.1713	-0.056
Mof_C 	C 	0.772	0.0423	0.162	0.357
Mof_C 	C 	0.85435	0.10216	0.2422	-0.097
Mof_H 	H 	0.8357	0.0793	0.2842	0.076
Mof_C 	C 	0.9072	0.1482	0.2494	0.159
Mof_C 	C 	0.9332	0.1836	0.1895	-0.099
Mof_H 	H 	0.9687	0.2158	0.1958	0.079
Mof_C 	C 	0.9171	0.1238	0.3772	-0.027
Mof_H 	H 	0.9092	0.0867	0.3597	0.042
Mof_H 	H 	0.8826	0.1204	0.3983	0.041
Mof_C 	C 	0.962	0.1457	0.4353	0.041
Mof_H 	H 	0.9677	0.1816	0.4546	0.021
Mof_H 	H 	0.9972	0.1525	0.4119	0.022
Mof_C 	C 	0.9478	0.1055	0.5	-0.432
Mof_H 	H 	0.91	0.0935	0.5175	0.154
Mof_H 	H 	0.9742	0.124	0.5412	0.148
Mof_H 	H 	0.9501	0.0732	0.4833	0.143
Mof_C 	C 	0.0655	0.3651	0.2449	0.367
Mof_C 	C 	0.1224	0.3821	0.2695	-0.072
Mof_C 	C 	0.154	0.3635	0.2321	0.002
Mof_H 	H 	0.1394	0.3404	0.1891	0.051
Mof_C 	C 	0.2071	0.379	0.2582	-0.063
Mof_C 	C 	0.2409	0.3577	0.2206	0.382
Mof_C 	C 	0.2287	0.413	0.3209	-0.114
Mof_H 	H 	0.2646	0.4227	0.3391	0.089
Mof_C 	C 	0.1981	0.4326	0.3566	0.173
Mof_C 	C 	0.1448	0.4168	0.3315	-0.108
Mof_H 	H 	0.1235	0.4299	0.357	0.091
Mof_C 	C 	0.2604	0.4714	0.4619	0.092
Mof_Co	Co	0.97413	0.38535	0.25041	1.178
Mof_Co	Co	0.00515	0.33424	0.08717	1.16
Mof_O 	O 	0.97997	0.25391	0.0658	-0.466
Mof_O 	O 	0.90824	0.19849	0.99447	-0.433
Mof_O 	O 	0.74193	0.02308	0.21862	-0.456
Mof_O 	O 	0.75707	0.02271	0.09592	-0.453
Mof_O 	O 	0.93694	0.16282	0.3157	-0.218
Mof_O 	O 	0.04754	0.33891	0.1845	-0.46
Mof_O 	O 	0.03685	0.3786	0.2871	-0.51
Mof_O 	O 	0.28529	0.36776	0.2521	-0.468
Mof_O 	O 	0.22247	0.33117	0.1601	-0.464
Mof_O 	O 	0.21608	0.46703	0.4181	-0.232
Mof_C 	C 	0.2742	0.515	0.5227	-0.022
Mof_C 	C 	0.291	0.4969	0.5989	0.007
Mof_C 	C 	0.2457	0.4895	0.5451	0.014
Mof_C 	C 	0.60017	0.54423	0.38953	0.359
Mof_C 	C 	0.57367	0.50503	0.45343	-0.057
Mof_C 	C 	0.52207	0.45763	0.44363	0.001
Mof_H 	H 	0.50487	0.44863	0.39563	0.059
Mof_C 	C 	0.49599	0.42367	0.50463	-0.056
Mof_C 	C 	0.43867	0.37563	0.49533	0.357
Mof_C 	C 	0.52102	0.43549	0.57553	-0.097
Mof_H 	H 	0.50237	0.41263	0.61753	0.076
Mof_C 	C 	0.57387	0.48153	0.58273	0.159
Mof_C 	C 	0.59987	0.51693	0.52283	-0.1
Mof_H 	H 	0.63537	0.54913	0.52913	0.079
Mof_C 	C 	0.58377	0.45713	0.71053	-0.027
Mof_H 	H 	0.57587	0.42003	0.69303	0.042
Mof_H 	H 	0.54927	0.45373	0.73163	0.041
Mof_C 	C 	0.62867	0.47903	0.76863	0.04
Mof_H 	H 	0.63437	0.51493	0.78793	0.021
Mof_H 	H 	0.66387	0.48583	0.74523	0.022
Mof_C 	C 	0.61447	0.43883	0.83333	-0.431
Mof_H 	H 	0.57667	0.42683	0.85083	0.153
Mof_H 	H 	0.64087	0.45733	0.87453	0.147
Mof_H 	H 	0.61677	0.40653	0.81663	0.142
Mof_C 	C 	0.73217	0.69843	0.57823	0.367
Mof_C 	C 	0.78907	0.71543	0.60283	-0.072
Mof_C 	C 	0.82067	0.69683	0.56543	0.002
Mof_H 	H 	0.80607	0.67373	0.52243	0.051
Mof_C 	C 	0.87377	0.71233	0.59153	-0.063
Mof_C 	C 	0.90757	0.69103	0.55393	0.382
Mof_C 	C 	0.89537	0.74633	0.65423	-0.114
Mof_H 	H 	0.93127	0.75603	0.67243	0.089
Mof_C 	C 	0.86477	0.76593	0.68993	0.173
Mof_C 	C 	0.81147	0.75013	0.66483	-0.108
Mof_H 	H 	0.79017	0.76323	0.69033	0.091
Mof_C 	C 	0.92707	0.80473	0.79523	0.092
Mof_Co	Co	0.6408	0.71868	0.58374	1.178
Mof_Co	Co	0.67182	0.66757	0.4205	1.16
Mof_O 	O 	0.64664	0.58724	0.39913	-0.467
Mof_O 	O 	0.57491	0.53182	0.3278	-0.43
Mof_O 	O 	0.4086	0.35641	0.55195	-0.457
Mof_O 	O 	0.42374	0.35604	0.42925	-0.454
Mof_O 	O 	0.60361	0.49615	0.64903	-0.218
Mof_O 	O 	0.71421	0.67224	0.51783	-0.459
Mof_O 	O 	0.70352	0.71193	0.62043	-0.51
Mof_O 	O 	0.95196	0.70109	0.58543	-0.468
Mof_O 	O 	0.88914	0.6645	0.49343	-0.465
Mof_O 	O 	0.88275	0.80036	0.75143	-0.232
Mof_C 	C 	0.94087	0.84833	0.85603	-0.022
Mof_C 	C 	0.95767	0.83023	0.93223	0.007
Mof_C 	C 	0.91237	0.82283	0.87843	0.014
Mof_C 	C 	0.26683	0.87757	0.72287	0.359
Mof_C 	C 	0.24033	0.83837	0.78677	-0.057
Mof_C 	C 	0.18873	0.79097	0.77697	0.001
Mof_H 	H 	0.17153	0.78197	0.72897	0.059
Mof_C 	C 	0.16265	0.75701	0.83797	-0.056
Mof_C 	C 	0.10533	0.70897	0.82867	0.357
Mof_C 	C 	0.18768	0.76883	0.90887	-0.097
Mof_H 	H 	0.16903	0.74597	0.95087	0.076
Mof_C 	C 	0.24053	0.81487	0.91607	0.159
Mof_C 	C 	0.26653	0.85027	0.85617	-0.099
Mof_H 	H 	0.30203	0.88247	0.86247	0.079
Mof_C 	C 	0.25043	0.79047	0.04387	-0.03
Mof_H 	H 	0.24253	0.75337	0.02637	0.042
Mof_H 	H 	0.21593	0.78707	0.06497	0.042
Mof_C 	C 	0.29533	0.81237	0.10197	0.042
Mof_H 	H 	0.30103	0.84827	0.12127	0.02
Mof_H 	H 	0.33053	0.81917	0.07857	0.021
Mof_C 	C 	0.28113	0.77217	0.16667	-0.433
Mof_H 	H 	0.24333	0.76017	0.18417	0.154
Mof_H 	H 	0.30753	0.79067	0.20787	0.148
Mof_H 	H 	0.28343	0.73987	0.14997	0.142
Mof_C 	C 	0.39883	0.03177	0.91157	0.364
Mof_C 	C 	0.45573	0.04877	0.93617	-0.067
Mof_C 	C 	0.48733	0.03017	0.89877	-0.003
Mof_H 	H 	0.47273	0.00707	0.85577	0.052
Mof_C 	C 	0.54043	0.04567	0.92487	-0.057
Mof_C 	C 	0.57423	0.02437	0.88727	0.378
Mof_C 	C 	0.56203	0.07967	0.98757	-0.125
Mof_H 	H 	0.59793	0.08937	0.00577	0.094
Mof_C 	C 	0.53143	0.09927	0.02327	0.183
Mof_C 	C 	0.47813	0.08347	0.99817	-0.118
Mof_H 	H 	0.45683	0.09657	0.02367	0.095
Mof_C 	C 	0.59373	0.13807	0.12857	0.093
Mof_Co	Co	0.30746	0.05202	0.91708	1.178
Mof_Co	Co	0.33848	0.00091	0.75384	1.16
Mof_O 	O 	0.3133	0.92058	0.73247	-0.466
Mof_O 	O 	0.24157	0.86516	0.66114	-0.43
Mof_O 	O 	0.07526	0.68975	0.88529	-0.456
Mof_O 	O 	0.0904	0.68938	0.76259	-0.454
Mof_O 	O 	0.27027	0.82949	0.98237	-0.216
Mof_O 	O 	0.38087	0.00558	0.85117	-0.459
Mof_O 	O 	0.37018	0.04527	0.95377	-0.51
Mof_O 	O 	0.61862	0.03443	0.91877	-0.468
Mof_O 	O 	0.5558	0.99784	0.82677	-0.462
Mof_O 	O 	0.54941	0.1337	0.08477	-0.234
Mof_C 	C 	0.60753	0.18167	0.18937	-0.022
Mof_C 	C 	0.62433	0.16357	0.26557	0.007
Mof_C 	C 	0.57903	0.15617	0.21177	0.014
Mof_C 	C 	0.7891	0.7226	0.0562	0.359
Mof_C 	C 	0.8283	0.7353	0.1201	-0.057
Mof_C 	C 	0.8757	0.7311	0.1103	0.001
Mof_H 	H 	0.8847	0.7229	0.0623	0.059
Mof_C 	C 	0.90966	0.73898	0.1713	-0.056
Mof_C 	C 	0.9577	0.7297	0.162	0.357
Mof_C 	C 	0.89784	0.75219	0.2422	-0.097
Mof_H 	H 	0.9207	0.7564	0.2842	0.076
Mof_C 	C 	0.8518	0.759	0.2494	0.159
Mof_C 	C 	0.8164	0.7496	0.1895	-0.099
Mof_H 	H 	0.7842	0.7529	0.1958	0.079
Mof_C 	C 	0.8762	0.7933	0.3772	-0.027
Mof_H 	H 	0.9133	0.8225	0.3597	0.042
Mof_H 	H 	0.8796	0.7622	0.3983	0.041
Mof_C 	C 	0.8543	0.8163	0.4353	0.04
Mof_H 	H 	0.8184	0.7861	0.4546	0.021
Mof_H 	H 	0.8475	0.8447	0.4119	0.022
Mof_C 	C 	0.8945	0.8423	0.5	-0.431
Mof_H 	H 	0.9065	0.8165	0.5175	0.153
Mof_H 	H 	0.876	0.8502	0.5412	0.148
Mof_H 	H 	0.9268	0.8769	0.4833	0.142
Mof_C 	C 	0.6349	0.7004	0.2449	0.367
Mof_C 	C 	0.6179	0.7403	0.2695	-0.072
Mof_C 	C 	0.6365	0.7905	0.2321	0.002
Mof_H 	H 	0.6596	0.799	0.1891	0.051
Mof_C 	C 	0.621	0.8281	0.2582	-0.063
Mof_C 	C 	0.6423	0.8832	0.2206	0.382
Mof_C 	C 	0.587	0.8157	0.3209	-0.114
Mof_H 	H 	0.5773	0.8419	0.3391	0.089
Mof_C 	C 	0.5674	0.7655	0.3566	0.173
Mof_C 	C 	0.5832	0.728	0.3315	-0.108
Mof_H 	H 	0.5701	0.6936	0.357	0.091
Mof_C 	C 	0.5286	0.789	0.4619	0.092
Mof_Co	Co	0.61465	0.58878	0.25041	1.178
Mof_Co	Co	0.66576	0.67091	0.08717	1.16
Mof_O 	O 	0.74609	0.72606	0.0658	-0.467
Mof_O 	O 	0.80151	0.70975	0.99447	-0.431
Mof_O 	O 	0.97692	0.71885	0.21862	-0.456
Mof_O 	O 	0.97729	0.73436	0.09592	-0.454
Mof_O 	O 	0.83718	0.77412	0.3157	-0.218
Mof_O 	O 	0.66109	0.70863	0.1845	-0.459
Mof_O 	O 	0.6214	0.65825	0.2871	-0.51
Mof_O 	O 	0.63224	0.91753	0.2521	-0.468
Mof_O 	O 	0.66883	0.8913	0.1601	-0.465
Mof_O 	O 	0.53297	0.74905	0.4181	-0.232
Mof_C 	C 	0.485	0.7592	0.5227	-0.022
Mof_C 	C 	0.5031	0.7941	0.5989	0.007
Mof_C 	C 	0.5105	0.7562	0.5451	0.014
Mof_C 	C 	0.45577	0.05593	0.38953	0.359
Mof_C 	C 	0.49497	0.06863	0.45343	-0.057
Mof_C 	C 	0.54237	0.06443	0.44363	0.001
Mof_H 	H 	0.55137	0.05623	0.39563	0.059
Mof_C 	C 	0.57633	0.07231	0.50463	-0.056
Mof_C 	C 	0.62437	0.06303	0.49533	0.357
Mof_C 	C 	0.56451	0.08552	0.57553	-0.098
Mof_H 	H 	0.58737	0.08973	0.61753	0.076
Mof_C 	C 	0.51847	0.09233	0.58273	0.159
Mof_C 	C 	0.48307	0.08293	0.52283	-0.1
Mof_H 	H 	0.45087	0.08623	0.52913	0.079
Mof_C 	C 	0.54287	0.12663	0.71053	-0.027
Mof_H 	H 	0.57997	0.15583	0.69303	0.041
Mof_H 	H 	0.54627	0.09553	0.73163	0.041
Mof_C 	C 	0.52097	0.14963	0.76863	0.04
Mof_H 	H 	0.48507	0.11943	0.78793	0.021
Mof_H 	H 	0.51417	0.17803	0.74523	0.022
Mof_C 	C 	0.56117	0.17563	0.83333	-0.431
Mof_H 	H 	0.57317	0.14983	0.85083	0.153
Mof_H 	H 	0.54267	0.18353	0.87453	0.147
Mof_H 	H 	0.59347	0.21023	0.81663	0.142
Mof_C 	C 	0.30157	0.03373	0.57823	0.366
Mof_C 	C 	0.28457	0.07363	0.60283	-0.072
Mof_C 	C 	0.30317	0.12383	0.56543	0.002
Mof_H 	H 	0.32627	0.13233	0.52243	0.051
Mof_C 	C 	0.28767	0.16143	0.59153	-0.063
Mof_C 	C 	0.30897	0.21653	0.55393	0.382
Mof_C 	C 	0.25367	0.14903	0.65423	-0.114
Mof_H 	H 	0.24397	0.17523	0.67243	0.089
Mof_C 	C 	0.23407	0.09883	0.68993	0.174
Mof_C 	C 	0.24987	0.06133	0.66483	-0.108
Mof_H 	H 	0.23677	0.02693	0.69033	0.091
Mof_C 	C 	0.19527	0.12233	0.79523	0.092
Mof_Co	Co	0.28132	0.92211	0.58374	1.178
Mof_Co	Co	0.33243	0.00424	0.4205	1.161
Mof_O 	O 	0.41276	0.05939	0.39913	-0.466
Mof_O 	O 	0.46818	0.04308	0.3278	-0.43
Mof_O 	O 	0.64359	0.05218	0.55195	-0.457
Mof_O 	O 	0.64396	0.06769	0.42925	-0.454
Mof_O 	O 	0.50385	0.10745	0.64903	-0.218
Mof_O 	O 	0.32776	0.04196	0.51783	-0.459
Mof_O 	O 	0.28807	0.99158	0.62043	-0.509
Mof_O 	O 	0.29891	0.25086	0.58543	-0.468
Mof_O 	O 	0.3355	0.22463	0.49343	-0.464
Mof_O 	O 	0.19964	0.08238	0.75143	-0.232
Mof_C 	C 	0.15167	0.09253	0.85603	-0.021
Mof_C 	C 	0.16977	0.12743	0.93223	0.007
Mof_C 	C 	0.17717	0.08953	0.87843	0.013
Mof_C 	C 	0.12243	0.38927	0.72287	0.359
Mof_C 	C 	0.16163	0.40197	0.78677	-0.057
Mof_C 	C 	0.20903	0.39777	0.77697	0.001
Mof_H 	H 	0.21803	0.38957	0.72897	0.059
Mof_C 	C 	0.24299	0.40565	0.83797	-0.056
Mof_C 	C 	0.29103	0.39637	0.82867	0.357
Mof_C 	C 	0.23117	0.41886	0.90887	-0.097
Mof_H 	H 	0.25403	0.42307	0.95087	0.076
Mof_C 	C 	0.18513	0.42567	0.91607	0.159
Mof_C 	C 	0.14973	0.41627	0.85617	-0.099
Mof_H 	H 	0.11753	0.41957	0.86247	0.079
Mof_C 	C 	0.20953	0.45997	0.04387	-0.029
Mof_H 	H 	0.24663	0.48917	0.02637	0.042
Mof_H 	H 	0.21293	0.42887	0.06497	0.041
Mof_C 	C 	0.18763	0.48297	0.10197	0.041
Mof_H 	H 	0.15173	0.45277	0.12127	0.02
Mof_H 	H 	0.18083	0.51137	0.07857	0.021
Mof_C 	C 	0.22783	0.50897	0.16667	-0.432
Mof_H 	H 	0.23983	0.48317	0.18417	0.153
Mof_H 	H 	0.20933	0.51687	0.20787	0.148
Mof_H 	H 	0.26013	0.54357	0.14997	0.142
Mof_C 	C 	0.96823	0.36707	0.91157	0.364
Mof_C 	C 	0.95123	0.40697	0.93617	-0.066
Mof_C 	C 	0.96983	0.45717	0.89877	-0.003
Mof_H 	H 	0.99293	0.46567	0.85577	0.052
Mof_C 	C 	0.95433	0.49477	0.92487	-0.057
Mof_C 	C 	0.97563	0.54987	0.88727	0.378
Mof_C 	C 	0.92033	0.48237	0.98757	-0.125
Mof_H 	H 	0.91063	0.50857	0.00577	0.094
Mof_C 	C 	0.90073	0.43217	0.02327	0.184
Mof_C 	C 	0.91653	0.39467	0.99817	-0.12
Mof_H 	H 	0.90343	0.36027	0.02367	0.096
Mof_C 	C 	0.86193	0.45567	0.12857	0.093
Mof_Co	Co	0.94798	0.25545	0.91708	1.177
Mof_Co	Co	0.99909	0.33758	0.75384	1.16
Mof_O 	O 	0.07942	0.39273	0.73247	-0.466
Mof_O 	O 	0.13484	0.37642	0.66114	-0.43
Mof_O 	O 	0.31025	0.38552	0.88529	-0.457
Mof_O 	O 	0.31062	0.40103	0.76259	-0.454
Mof_O 	O 	0.17051	0.44079	0.98237	-0.217
Mof_O 	O 	0.99442	0.3753	0.85117	-0.459
Mof_O 	O 	0.95473	0.32492	0.95377	-0.51
Mof_O 	O 	0.96557	0.5842	0.91877	-0.468
Mof_O 	O 	0.00216	0.55797	0.82677	-0.462
Mof_O 	O 	0.8663	0.41572	0.08477	-0.234
Mof_C 	C 	0.81833	0.42587	0.18937	-0.022
Mof_C 	C 	0.83643	0.46077	0.26557	0.007
Mof_C 	C 	0.84383	0.42287	0.21177	0.014
Mof_C 	C 	0.7226	0.9335	0.9438	0.36
Mof_C 	C 	0.7353	0.907	0.8799	-0.057
Mof_C 	C 	0.7311	0.8554	0.8897	0.001
Mof_H 	H 	0.7229	0.8382	0.9377	0.059
Mof_C 	C 	0.73898	0.82932	0.8287	-0.056
Mof_C 	C 	0.7297	0.772	0.838	0.357
Mof_C 	C 	0.75219	0.85435	0.7578	-0.097
Mof_H 	H 	0.7564	0.8357	0.7158	0.076
Mof_C 	C 	0.759	0.9072	0.7506	0.159
Mof_C 	C 	0.7496	0.9332	0.8105	-0.099
Mof_H 	H 	0.7529	0.9687	0.8042	0.079
Mof_C 	C 	0.7933	0.9171	0.6228	-0.027
Mof_H 	H 	0.8225	0.9092	0.6403	0.042
Mof_H 	H 	0.7622	0.8826	0.6017	0.041
Mof_C 	C 	0.8163	0.962	0.5647	0.04
Mof_H 	H 	0.7861	0.9677	0.5454	0.021
Mof_H 	H 	0.8447	0.9972	0.5881	0.022
Mof_C 	C 	0.8423	0.9478	0.5	-0.431
Mof_H 	H 	0.8165	0.91	0.4825	0.153
Mof_H 	H 	0.8502	0.9742	0.4588	0.148
Mof_H 	H 	0.8769	0.9501	0.5167	0.142
Mof_C 	C 	0.7004	0.0655	0.7551	0.367
Mof_C 	C 	0.7403	0.1224	0.7305	-0.072
Mof_C 	C 	0.7905	0.154	0.7679	0.002
Mof_H 	H 	0.799	0.1394	0.8109	0.051
Mof_C 	C 	0.8281	0.2071	0.7418	-0.063
Mof_C 	C 	0.8832	0.2409	0.7794	0.382
Mof_C 	C 	0.8157	0.2287	0.6791	-0.114
Mof_H 	H 	0.8419	0.2646	0.6609	0.089
Mof_C 	C 	0.7655	0.1981	0.6434	0.173
Mof_C 	C 	0.728	0.1448	0.6685	-0.108
Mof_H 	H 	0.6936	0.1235	0.643	0.091
Mof_C 	C 	0.789	0.2604	0.5381	0.092
Mof_Co	Co	0.58878	0.97413	0.74959	1.178
Mof_Co	Co	0.67091	0.00515	0.91283	1.16
Mof_O 	O 	0.72606	0.97997	0.9342	-0.466
Mof_O 	O 	0.70975	0.90824	0.00553	-0.431
Mof_O 	O 	0.71885	0.74193	0.78138	-0.457
Mof_O 	O 	0.73436	0.75707	0.90408	-0.454
Mof_O 	O 	0.77412	0.93694	0.6843	-0.218
Mof_O 	O 	0.70863	0.04754	0.8155	-0.46
Mof_O 	O 	0.65825	0.03685	0.7129	-0.51
Mof_O 	O 	0.91753	0.28529	0.7479	-0.468
Mof_O 	O 	0.8913	0.22247	0.8399	-0.465
Mof_O 	O 	0.74905	0.21608	0.5819	-0.232
Mof_C 	C 	0.7592	0.2742	0.4773	-0.022
Mof_C 	C 	0.7941	0.291	0.4011	0.007
Mof_C 	C 	0.7562	0.2457	0.4549	0.014
Mof_C 	C 	0.38927	0.26683	0.27713	0.359
Mof_C 	C 	0.40197	0.24033	0.21323	-0.057
Mof_C 	C 	0.39777	0.18873	0.22303	0.001
Mof_H 	H 	0.38957	0.17153	0.27103	0.059
Mof_C 	C 	0.40565	0.16265	0.16203	-0.056
Mof_C 	C 	0.39637	0.10533	0.17133	0.357
Mof_C 	C 	0.41886	0.18768	0.09113	-0.097
Mof_H 	H 	0.42307	0.16903	0.04913	0.076
Mof_C 	C 	0.42567	0.24053	0.08393	0.159
Mof_C 	C 	0.41627	0.26653	0.14383	-0.1
Mof_H 	H 	0.41957	0.30203	0.13753	0.079
Mof_C 	C 	0.45997	0.25043	0.95613	-0.028
Mof_H 	H 	0.48917	0.24253	0.97363	0.041
Mof_H 	H 	0.42887	0.21593	0.93503	0.041
Mof_C 	C 	0.48297	0.29533	0.89803	0.041
Mof_H 	H 	0.45277	0.30103	0.87873	0.021
Mof_H 	H 	0.51137	0.33053	0.92143	0.021
Mof_C 	C 	0.50897	0.28113	0.83333	-0.431
Mof_H 	H 	0.48317	0.24333	0.81583	0.153
Mof_H 	H 	0.51687	0.30753	0.79213	0.148
Mof_H 	H 	0.54357	0.28343	0.85003	0.142
Mof_C 	C 	0.36707	0.39883	0.08843	0.366
Mof_C 	C 	0.40697	0.45573	0.06383	-0.071
Mof_C 	C 	0.45717	0.48733	0.10123	0.001
Mof_H 	H 	0.46567	0.47273	0.14423	0.051
Mof_C 	C 	0.49477	0.54043	0.07513	-0.062
Mof_C 	C 	0.54987	0.57423	0.11273	0.382
Mof_C 	C 	0.48237	0.56203	0.01243	-0.116
Mof_H 	H 	0.50857	0.59793	0.99423	0.09
Mof_C 	C 	0.43217	0.53143	0.97673	0.175
Mof_C 	C 	0.39467	0.47813	0.00183	-0.111
Mof_H 	H 	0.36027	0.45683	0.97633	0.092
Mof_C 	C 	0.45567	0.59373	0.87143	0.092
Mof_Co	Co	0.25545	0.30746	0.08292	1.178
Mof_Co	Co	0.33758	0.33848	0.24616	1.16
Mof_O 	O 	0.39273	0.3133	0.26753	-0.467
Mof_O 	O 	0.37642	0.24157	0.33886	-0.43
Mof_O 	O 	0.38552	0.07526	0.11471	-0.456
Mof_O 	O 	0.40103	0.0904	0.23741	-0.454
Mof_O 	O 	0.44079	0.27027	0.01763	-0.218
Mof_O 	O 	0.3753	0.38087	0.14883	-0.459
Mof_O 	O 	0.32492	0.37018	0.04623	-0.51
Mof_O 	O 	0.5842	0.61862	0.08123	-0.468
Mof_O 	O 	0.55797	0.5558	0.17323	-0.464
Mof_O 	O 	0.41572	0.54941	0.91523	-0.233
Mof_C 	C 	0.42587	0.60753	0.81063	-0.022
Mof_C 	C 	0.46077	0.62433	0.73443	0.007
Mof_C 	C 	0.42287	0.57903	0.78823	0.014
Mof_C 	C 	0.05593	0.60017	0.61047	0.359
Mof_C 	C 	0.06863	0.57367	0.54657	-0.057
Mof_C 	C 	0.06443	0.52207	0.55637	0.001
Mof_H 	H 	0.05623	0.50487	0.60437	0.059
Mof_C 	C 	0.07231	0.49599	0.49537	-0.056
Mof_C 	C 	0.06303	0.43867	0.50467	0.357
Mof_C 	C 	0.08552	0.52102	0.42447	-0.098
Mof_H 	H 	0.08973	0.50237	0.38247	0.076
Mof_C 	C 	0.09233	0.57387	0.41727	0.159
Mof_C 	C 	0.08293	0.59987	0.47717	-0.1
Mof_H 	H 	0.08623	0.63537	0.47087	0.079
Mof_C 	C 	0.12663	0.58377	0.28947	-0.027
Mof_H 	H 	0.15583	0.57587	0.30697	0.041
Mof_H 	H 	0.09553	0.54927	0.26837	0.041
Mof_C 	C 	0.14963	0.62867	0.23137	0.04
Mof_H 	H 	0.11943	0.63437	0.21207	0.021
Mof_H 	H 	0.17803	0.66387	0.25477	0.022
Mof_C 	C 	0.17563	0.61447	0.16667	-0.431
Mof_H 	H 	0.14983	0.57667	0.14917	0.153
Mof_H 	H 	0.18353	0.64087	0.12547	0.147
Mof_H 	H 	0.21023	0.61677	0.18337	0.142
Mof_C 	C 	0.03373	0.73217	0.42177	0.366
Mof_C 	C 	0.07363	0.78907	0.39717	-0.072
Mof_C 	C 	0.12383	0.82067	0.43457	0.002
Mof_H 	H 	0.13233	0.80607	0.47757	0.051
Mof_C 	C 	0.16143	0.87377	0.40847	-0.063
Mof_C 	C 	0.21653	0.90757	0.44607	0.382
Mof_C 	C 	0.14903	0.89537	0.34577	-0.114
Mof_H 	H 	0.17523	0.93127	0.32757	0.089
Mof_C 	C 	0.09883	0.86477	0.31007	0.173
Mof_C 	C 	0.06133	0.81147	0.33517	-0.108
Mof_H 	H 	0.02693	0.79017	0.30967	0.091
Mof_C 	C 	0.12233	0.92707	0.20477	0.092
Mof_Co	Co	0.92211	0.6408	0.41626	1.178
Mof_Co	Co	0.00424	0.67182	0.5795	1.161
Mof_O 	O 	0.05939	0.64664	0.60087	-0.466
Mof_O 	O 	0.04308	0.57491	0.6722	-0.43
Mof_O 	O 	0.05218	0.4086	0.44805	-0.457
Mof_O 	O 	0.06769	0.42374	0.57075	-0.454
Mof_O 	O 	0.10745	0.60361	0.35097	-0.218
Mof_O 	O 	0.04196	0.71421	0.48217	-0.459
Mof_O 	O 	0.99158	0.70352	0.37957	-0.509
Mof_O 	O 	0.25086	0.95196	0.41457	-0.468
Mof_O 	O 	0.22463	0.88914	0.50657	-0.464
Mof_O 	O 	0.08238	0.88275	0.24857	-0.232
Mof_C 	C 	0.09253	0.94087	0.14397	-0.022
Mof_C 	C 	0.12743	0.95767	0.06777	0.006
Mof_C 	C 	0.08953	0.91237	0.12157	0.013
Mof_C 	C 	0.0665	0.7891	0.9438	0.362
Mof_C 	C 	0.093	0.8283	0.8799	-0.058
Mof_C 	C 	0.1446	0.8757	0.8897	0.002
Mof_H 	H 	0.1618	0.8847	0.9377	0.06
Mof_C 	C 	0.17068	0.90966	0.8287	-0.056
Mof_C 	C 	0.228	0.9577	0.838	0.357
Mof_C 	C 	0.14565	0.89784	0.7578	-0.097
Mof_H 	H 	0.1643	0.9207	0.7158	0.076
Mof_C 	C 	0.0928	0.8518	0.7506	0.159
Mof_C 	C 	0.0668	0.8164	0.8105	-0.099
Mof_H 	H 	0.0313	0.7842	0.8042	0.079
Mof_C 	C 	0.0829	0.8762	0.6228	-0.027
Mof_H 	H 	0.0908	0.9133	0.6403	0.042
Mof_H 	H 	0.1174	0.8796	0.6017	0.041
Mof_C 	C 	0.038	0.8543	0.5647	0.041
Mof_H 	H 	0.0323	0.8184	0.5454	0.021
Mof_H 	H 	0.0028	0.8475	0.5881	0.022
Mof_C 	C 	0.0522	0.8945	0.5	-0.432
Mof_H 	H 	0.09	0.9065	0.4825	0.154
Mof_H 	H 	0.0258	0.876	0.4588	0.148
Mof_H 	H 	0.0499	0.9268	0.5167	0.143
Mof_C 	C 	0.9345	0.6349	0.7551	0.367
Mof_C 	C 	0.8776	0.6179	0.7305	-0.072
Mof_C 	C 	0.846	0.6365	0.7679	0.002
Mof_H 	H 	0.8606	0.6596	0.8109	0.051
Mof_C 	C 	0.7929	0.621	0.7418	-0.063
Mof_C 	C 	0.7591	0.6423	0.7794	0.382
Mof_C 	C 	0.7713	0.587	0.6791	-0.114
Mof_H 	H 	0.7354	0.5773	0.6609	0.089
Mof_C 	C 	0.8019	0.5674	0.6434	0.173
Mof_C 	C 	0.8552	0.5832	0.6685	-0.108
Mof_H 	H 	0.8765	0.5701	0.643	0.091
Mof_C 	C 	0.7396	0.5286	0.5381	0.092
Mof_Co	Co	0.02587	0.61465	0.74959	1.178
Mof_Co	Co	0.99485	0.66576	0.91283	1.16
Mof_O 	O 	0.02003	0.74609	0.9342	-0.466
Mof_O 	O 	0.09176	0.80151	0.00553	-0.433
Mof_O 	O 	0.25807	0.97692	0.78138	-0.456
Mof_O 	O 	0.24293	0.97729	0.90408	-0.453
Mof_O 	O 	0.06306	0.83718	0.6843	-0.218
Mof_O 	O 	0.95246	0.66109	0.8155	-0.46
Mof_O 	O 	0.96315	0.6214	0.7129	-0.51
Mof_O 	O 	0.71471	0.63224	0.7479	-0.468
Mof_O 	O 	0.77753	0.66883	0.8399	-0.464
Mof_O 	O 	0.78392	0.53297	0.5819	-0.232
Mof_C 	C 	0.7258	0.485	0.4773	-0.022
Mof_C 	C 	0.709	0.5031	0.4011	0.007
Mof_C 	C 	0.7543	0.5105	0.4549	0.014
Mof_C 	C 	0.73317	0.12243	0.27713	0.359
Mof_C 	C 	0.75967	0.16163	0.21323	-0.057
Mof_C 	C 	0.81127	0.20903	0.22303	0.001
Mof_H 	H 	0.82847	0.21803	0.27103	0.059
Mof_C 	C 	0.83735	0.24299	0.16203	-0.056
Mof_C 	C 	0.89467	0.29103	0.17133	0.357
Mof_C 	C 	0.81232	0.23117	0.09113	-0.097
Mof_H 	H 	0.83097	0.25403	0.04913	0.076
Mof_C 	C 	0.75947	0.18513	0.08393	0.159
Mof_C 	C 	0.73347	0.14973	0.14383	-0.099
Mof_H 	H 	0.69797	0.11753	0.13753	0.079
Mof_C 	C 	0.74957	0.20953	0.95613	-0.03
Mof_H 	H 	0.75747	0.24663	0.97363	0.042
Mof_H 	H 	0.78407	0.21293	0.93503	0.042
Mof_C 	C 	0.70467	0.18763	0.89803	0.042
Mof_H 	H 	0.69897	0.15173	0.87873	0.02
Mof_H 	H 	0.66947	0.18083	0.92143	0.021
Mof_C 	C 	0.71887	0.22783	0.83333	-0.433
Mof_H 	H 	0.75667	0.23983	0.81583	0.154
Mof_H 	H 	0.69247	0.20933	0.79213	0.148
Mof_H 	H 	0.71657	0.26013	0.85003	0.142
Mof_C 	C 	0.60117	0.96823	0.08843	0.364
Mof_C 	C 	0.54427	0.95123	0.06383	-0.067
Mof_C 	C 	0.51267	0.96983	0.10123	-0.003
Mof_H 	H 	0.52727	0.99293	0.14423	0.052
Mof_C 	C 	0.45957	0.95433	0.07513	-0.057
Mof_C 	C 	0.42577	0.97563	0.11273	0.378
Mof_C 	C 	0.43797	0.92033	0.01243	-0.125
Mof_H 	H 	0.40207	0.91063	0.99423	0.094
Mof_C 	C 	0.46857	0.90073	0.97673	0.183
Mof_C 	C 	0.52187	0.91653	0.00183	-0.118
Mof_H 	H 	0.54317	0.90343	0.97633	0.095
Mof_C 	C 	0.40627	0.86193	0.87143	0.093
Mof_Co	Co	0.69254	0.94798	0.08292	1.178
Mof_Co	Co	0.66152	0.99909	0.24616	1.16
Mof_O 	O 	0.6867	0.07942	0.26753	-0.466
Mof_O 	O 	0.75843	0.13484	0.33886	-0.43
Mof_O 	O 	0.92474	0.31025	0.11471	-0.456
Mof_O 	O 	0.9096	0.31062	0.23741	-0.454
Mof_O 	O 	0.72973	0.17051	0.01763	-0.216
Mof_O 	O 	0.61913	0.99442	0.14883	-0.459
Mof_O 	O 	0.62982	0.95473	0.04623	-0.51
Mof_O 	O 	0.38138	0.96557	0.08123	-0.468
Mof_O 	O 	0.4442	0.00216	0.17323	-0.462
Mof_O 	O 	0.45059	0.8663	0.91523	-0.234
Mof_C 	C 	0.39247	0.81833	0.81063	-0.022
Mof_C 	C 	0.37567	0.83643	0.73443	0.007
Mof_C 	C 	0.42097	0.84383	0.78823	0.014
Mof_C 	C 	0.39983	0.45577	0.61047	0.359
Mof_C 	C 	0.42633	0.49497	0.54657	-0.057
Mof_C 	C 	0.47793	0.54237	0.55637	0.001
Mof_H 	H 	0.49513	0.55137	0.60437	0.059
Mof_C 	C 	0.50401	0.57633	0.49537	-0.056
Mof_C 	C 	0.56133	0.62437	0.50467	0.357
Mof_C 	C 	0.47898	0.56451	0.42447	-0.097
Mof_H 	H 	0.49763	0.58737	0.38247	0.076
Mof_C 	C 	0.42613	0.51847	0.41727	0.159
Mof_C 	C 	0.40013	0.48307	0.47717	-0.1
Mof_H 	H 	0.36463	0.45087	0.47087	0.079
Mof_C 	C 	0.41623	0.54287	0.28947	-0.027
Mof_H 	H 	0.42413	0.57997	0.30697	0.042
Mof_H 	H 	0.45073	0.54627	0.26837	0.041
Mof_C 	C 	0.37133	0.52097	0.23137	0.04
Mof_H 	H 	0.36563	0.48507	0.21207	0.021
Mof_H 	H 	0.33613	0.51417	0.25477	0.022
Mof_C 	C 	0.38553	0.56117	0.16667	-0.431
Mof_H 	H 	0.42333	0.57317	0.14917	0.153
Mof_H 	H 	0.35913	0.54267	0.12547	0.147
Mof_H 	H 	0.38323	0.59347	0.18337	0.142
Mof_C 	C 	0.26783	0.30157	0.42177	0.367
Mof_C 	C 	0.21093	0.28457	0.39717	-0.072
Mof_C 	C 	0.17933	0.30317	0.43457	0.002
Mof_H 	H 	0.19393	0.32627	0.47757	0.051
Mof_C 	C 	0.12623	0.28767	0.40847	-0.063
Mof_C 	C 	0.09243	0.30897	0.44607	0.382
Mof_C 	C 	0.10463	0.25367	0.34577	-0.114
Mof_H 	H 	0.06873	0.24397	0.32757	0.089
Mof_C 	C 	0.13523	0.23407	0.31007	0.173
Mof_C 	C 	0.18853	0.24987	0.33517	-0.108
Mof_H 	H 	0.20983	0.23677	0.30967	0.091
Mof_C 	C 	0.07293	0.19527	0.20477	0.092
Mof_Co	Co	0.3592	0.28132	0.41626	1.178
Mof_Co	Co	0.32818	0.33243	0.5795	1.16
Mof_O 	O 	0.35336	0.41276	0.60087	-0.467
Mof_O 	O 	0.42509	0.46818	0.6722	-0.43
Mof_O 	O 	0.5914	0.64359	0.44805	-0.457
Mof_O 	O 	0.57626	0.64396	0.57075	-0.454
Mof_O 	O 	0.39639	0.50385	0.35097	-0.218
Mof_O 	O 	0.28579	0.32776	0.48217	-0.459
Mof_O 	O 	0.29648	0.28807	0.37957	-0.51
Mof_O 	O 	0.04804	0.29891	0.41457	-0.468
Mof_O 	O 	0.11086	0.3355	0.50657	-0.465
Mof_O 	O 	0.11725	0.19964	0.24857	-0.232
Mof_C 	C 	0.05913	0.15167	0.14397	-0.022
Mof_C 	C 	0.04233	0.16977	0.06777	0.007
Mof_C 	C 	0.08763	0.17717	0.12157	0.014
Mof_C 	C 	0.2109	0.2774	0.9438	0.359
Mof_C 	C 	0.1717	0.2647	0.8799	-0.057
Mof_C 	C 	0.1243	0.2689	0.8897	0.001
Mof_H 	H 	0.1153	0.2771	0.9377	0.059
Mof_C 	C 	0.09034	0.26102	0.8287	-0.056
Mof_C 	C 	0.0423	0.2703	0.838	0.357
Mof_C 	C 	0.10216	0.24781	0.7578	-0.097
Mof_H 	H 	0.0793	0.2436	0.7158	0.076
Mof_C 	C 	0.1482	0.241	0.7506	0.159
Mof_C 	C 	0.1836	0.2504	0.8105	-0.099
Mof_H 	H 	0.2158	0.2471	0.8042	0.079
Mof_C 	C 	0.1238	0.2067	0.6228	-0.027
Mof_H 	H 	0.0867	0.1775	0.6403	0.042
Mof_H 	H 	0.1204	0.2378	0.6017	0.041
Mof_C 	C 	0.1457	0.1837	0.5647	0.04
Mof_H 	H 	0.1816	0.2139	0.5454	0.021
Mof_H 	H 	0.1525	0.1553	0.5881	0.022
Mof_C 	C 	0.1055	0.1577	0.5	-0.431
Mof_H 	H 	0.0935	0.1835	0.4825	0.153
Mof_H 	H 	0.124	0.1498	0.4588	0.148
Mof_H 	H 	0.0732	0.1231	0.5167	0.142
Mof_C 	C 	0.3651	0.2996	0.7551	0.367
Mof_C 	C 	0.3821	0.2597	0.7305	-0.072
Mof_C 	C 	0.3635	0.2095	0.7679	0.002
Mof_H 	H 	0.3404	0.201	0.8109	0.051
Mof_C 	C 	0.379	0.1719	0.7418	-0.063
Mof_C 	C 	0.3577	0.1168	0.7794	0.382
Mof_C 	C 	0.413	0.1843	0.6791	-0.114
Mof_H 	H 	0.4227	0.1581	0.6609	0.089
Mof_C 	C 	0.4326	0.2345	0.6434	0.173
Mof_C 	C 	0.4168	0.272	0.6685	-0.108
Mof_H 	H 	0.4299	0.3064	0.643	0.091
Mof_C 	C 	0.4714	0.211	0.5381	0.092
Mof_Co	Co	0.38535	0.41122	0.74959	1.178
Mof_Co	Co	0.33424	0.32909	0.91283	1.16
Mof_O 	O 	0.25391	0.27394	0.9342	-0.467
Mof_O 	O 	0.19849	0.29025	0.00553	-0.431
Mof_O 	O 	0.02308	0.28115	0.78138	-0.456
Mof_O 	O 	0.02271	0.26564	0.90408	-0.454
Mof_O 	O 	0.16282	0.22588	0.6843	-0.218
Mof_O 	O 	0.33891	0.29137	0.8155	-0.459
Mof_O 	O 	0.3786	0.34175	0.7129	-0.51
Mof_O 	O 	0.36776	0.08247	0.7479	-0.468
Mof_O 	O 	0.33117	0.1087	0.8399	-0.465
Mof_O 	O 	0.46703	0.25095	0.5819	-0.232
Mof_C 	C 	0.515	0.2408	0.4773	-0.022
Mof_C 	C 	0.4969	0.2059	0.4011	0.007
Mof_C 	C 	0.4895	0.2438	0.4549	0.014
Mof_C 	C 	0.87757	0.61073	0.27713	0.359
Mof_C 	C 	0.83837	0.59803	0.21323	-0.057
Mof_C 	C 	0.79097	0.60223	0.22303	0.001
Mof_H 	H 	0.78197	0.61043	0.27103	0.059
Mof_C 	C 	0.75701	0.59435	0.16203	-0.056
Mof_C 	C 	0.70897	0.60363	0.17133	0.357
Mof_C 	C 	0.76883	0.58114	0.09113	-0.097
Mof_H 	H 	0.74597	0.57693	0.04913	0.076
Mof_C 	C 	0.81487	0.57433	0.08393	0.159
Mof_C 	C 	0.85027	0.58373	0.14383	-0.099
Mof_H 	H 	0.88247	0.58043	0.13753	0.079
Mof_C 	C 	0.79047	0.54003	0.95613	-0.029
Mof_H 	H 	0.75337	0.51083	0.97363	0.042
Mof_H 	H 	0.78707	0.57113	0.93503	0.041
Mof_C 	C 	0.81237	0.51703	0.89803	0.041
Mof_H 	H 	0.84827	0.54723	0.87873	0.02
Mof_H 	H 	0.81917	0.48863	0.92143	0.021
Mof_C 	C 	0.77217	0.49103	0.83333	-0.432
Mof_H 	H 	0.76017	0.51683	0.81583	0.153
Mof_H 	H 	0.79067	0.48313	0.79213	0.148
Mof_H 	H 	0.73987	0.45643	0.85003	0.142
Mof_C 	C 	0.03177	0.63293	0.08843	0.364
Mof_C 	C 	0.04877	0.59303	0.06383	-0.066
Mof_C 	C 	0.03017	0.54283	0.10123	-0.003
Mof_H 	H 	0.00707	0.53433	0.14423	0.052
Mof_C 	C 	0.04567	0.50523	0.07513	-0.057
Mof_C 	C 	0.02437	0.45013	0.11273	0.378
Mof_C 	C 	0.07967	0.51763	0.01243	-0.125
Mof_H 	H 	0.08937	0.49143	0.99423	0.094
Mof_C 	C 	0.09927	0.56783	0.97673	0.184
Mof_C 	C 	0.08347	0.60533	0.00183	-0.12
Mof_H 	H 	0.09657	0.63973	0.97633	0.096
Mof_C 	C 	0.13807	0.54433	0.87143	0.093
Mof_Co	Co	0.05202	0.74455	0.08292	1.177
Mof_Co	Co	0.00091	0.66242	0.24616	1.16
Mof_O 	O 	0.92058	0.60727	0.26753	-0.466
Mof_O 	O 	0.86516	0.62358	0.33886	-0.43
Mof_O 	O 	0.68975	0.61448	0.11471	-0.457
Mof_O 	O 	0.68938	0.59897	0.23741	-0.454
Mof_O 	O 	0.82949	0.55921	0.01763	-0.217
Mof_O 	O 	0.00558	0.6247	0.14883	-0.459
Mof_O 	O 	0.04527	0.67508	0.04623	-0.51
Mof_O 	O 	0.03443	0.4158	0.08123	-0.468
Mof_O 	O 	0.99784	0.44203	0.17323	-0.462
Mof_O 	O 	0.1337	0.58428	0.91523	-0.234
Mof_C 	C 	0.18167	0.57413	0.81063	-0.022
Mof_C 	C 	0.16357	0.53923	0.73443	0.007
Mof_C 	C 	0.15617	0.57713	0.78823	0.014
Mof_C 	C 	0.54423	0.94407	0.61047	0.359
Mof_C 	C 	0.50503	0.93137	0.54657	-0.057
Mof_C 	C 	0.45763	0.93557	0.55637	0.001
Mof_H 	H 	0.44863	0.94377	0.60437	0.059
Mof_C 	C 	0.42367	0.92769	0.49537	-0.056
Mof_C 	C 	0.37563	0.93697	0.50467	0.357
Mof_C 	C 	0.43549	0.91448	0.42447	-0.098
Mof_H 	H 	0.41263	0.91027	0.38247	0.076
Mof_C 	C 	0.48153	0.90767	0.41727	0.159
Mof_C 	C 	0.51693	0.91707	0.47717	-0.1
Mof_H 	H 	0.54913	0.91377	0.47087	0.079
Mof_C 	C 	0.45713	0.87337	0.28947	-0.027
Mof_H 	H 	0.42003	0.84417	0.30697	0.041
Mof_H 	H 	0.45373	0.90447	0.26837	0.041
Mof_C 	C 	0.47903	0.85037	0.23137	0.04
Mof_H 	H 	0.51493	0.88057	0.21207	0.021
Mof_H 	H 	0.48583	0.82197	0.25477	0.022
Mof_C 	C 	0.43883	0.82437	0.16667	-0.431
Mof_H 	H 	0.42683	0.85017	0.14917	0.153
Mof_H 	H 	0.45733	0.81647	0.12547	0.147
Mof_H 	H 	0.40653	0.78977	0.18337	0.142
Mof_C 	C 	0.69843	0.96627	0.42177	0.366
Mof_C 	C 	0.71543	0.92637	0.39717	-0.072
Mof_C 	C 	0.69683	0.87617	0.43457	0.002
Mof_H 	H 	0.67373	0.86767	0.47757	0.051
Mof_C 	C 	0.71233	0.83857	0.40847	-0.063
Mof_C 	C 	0.69103	0.78347	0.44607	0.382
Mof_C 	C 	0.74633	0.85097	0.34577	-0.114
Mof_H 	H 	0.75603	0.82477	0.32757	0.089
Mof_C 	C 	0.76593	0.90117	0.31007	0.174
Mof_C 	C 	0.75013	0.93867	0.33517	-0.108
Mof_H 	H 	0.76323	0.97307	0.30967	0.091
Mof_C 	C 	0.80473	0.87767	0.20477	0.092
Mof_Co	Co	0.71868	0.07789	0.41626	1.178
Mof_Co	Co	0.66757	0.99576	0.5795	1.161
Mof_O 	O 	0.58724	0.94061	0.60087	-0.466
Mof_O 	O 	0.53182	0.95692	0.6722	-0.43
Mof_O 	O 	0.35641	0.94782	0.44805	-0.457
Mof_O 	O 	0.35604	0.93231	0.57075	-0.454
Mof_O 	O 	0.49615	0.89255	0.35097	-0.218
Mof_O 	O 	0.67224	0.95804	0.48217	-0.459
Mof_O 	O 	0.71193	0.00842	0.37957	-0.509
Mof_O 	O 	0.70109	0.74914	0.41457	-0.468
Mof_O 	O 	0.6645	0.77537	0.50657	-0.464
Mof_O 	O 	0.80036	0.91762	0.24857	-0.232
Mof_C 	C 	0.84833	0.90747	0.14397	-0.021
Mof_C 	C 	0.83023	0.87257	0.06777	0.007
Mof_C 	C 	0.82283	0.91047	0.12157	0.013
_end
