data_functionalizedCrystal
_audit_creation_method	'EQeq! by Chris Wilmer'
_symmetry_space_group_name_H-M	'P1'
_symmetry_Int_Tables_number	1
_symmetry_cell_setting	triclinic
loop_
_symmetry_equiv_pos_as_xyz
  x,y,z
_cell_length_a	17.0151
_cell_length_b	17.0151
_cell_length_c	21.1625
_cell_angle_alpha	66.296
_cell_angle_beta	66.296
_cell_angle_gamma	60
loop_
_atom_site_label
_atom_site_type_symbol
_atom_site_fract_x
_atom_site_fract_y
_atom_site_fract_z
_atom_site_charge
Mof_Gd	Gd	0.1547	0.0525	0.89682	1.928
Mof_Gd	Gd	0.0525	0.89598	0.89682	1.908
Mof_Gd	Gd	0.89598	0.1547	0.89682	1.911
Mof_Gd	Gd	0.3453	0.60402	0.60318	1.92
Mof_Gd	Gd	0.4475	0.3453	0.60318	1.92
Mof_Gd	Gd	0.60402	0.4475	0.60318	1.92
Mof_Gd	Gd	0.8453	0.9475	0.10318	1.933
Mof_Gd	Gd	0.9475	0.10402	0.10318	1.908
Mof_Gd	Gd	0.10402	0.8453	0.10318	1.907
Mof_Gd	Gd	0.6547	0.39598	0.39682	1.919
Mof_Gd	Gd	0.5525	0.6547	0.39682	1.92
Mof_Gd	Gd	0.39598	0.5525	0.39682	1.92
Mof_Gd	Gd	0.27613	0.22387	0.75	1.75
Mof_Gd	Gd	0.22387	0.75	0.75	1.749
Mof_Gd	Gd	0.75	0.27613	0.75	1.749
Mof_Gd	Gd	0.72387	0.77613	0.25	1.751
Mof_Gd	Gd	0.77613	0.25	0.25	1.749
Mof_Gd	Gd	0.25	0.72387	0.25	1.749
Mof_H 	H 	0.1333	0.281	0.0519	-0.02
Mof_H 	H 	0.2188	0.3709	0.9793	0.11
Mof_H 	H 	0.2786	0.3727	0.8599	-0.034
Mof_H 	H 	0.029	0.4305	0.7066	-0.03
Mof_H 	H 	0.9254	0.535	0.6349	0.122
Mof_H 	H 	0.8121	0.4971	0.6373	-0.025
Mof_H 	H 	0.281	0.5338	0.0519	-0.025
Mof_H 	H 	0.3709	0.431	0.9793	0.114
Mof_H 	H 	0.3727	0.4888	0.8599	-0.036
Mof_H 	H 	0.4305	0.8339	0.7066	-0.031
Mof_H 	H 	0.535	0.9047	0.6349	0.123
Mof_H 	H 	0.4971	0.0535	0.6373	-0.027
Mof_H 	H 	0.5338	0.1333	0.0519	-0.025
Mof_H 	H 	0.431	0.2188	0.9793	0.113
Mof_H 	H 	0.4888	0.2786	0.8599	-0.035
Mof_H 	H 	0.8339	0.029	0.7066	-0.033
Mof_H 	H 	0.9047	0.9254	0.6349	0.12
Mof_H 	H 	0.0535	0.8121	0.6373	-0.023
Mof_H 	H 	0.3667	0.9662	0.4481	-0.026
Mof_H 	H 	0.2812	0.069	0.5207	0.113
Mof_H 	H 	0.2214	0.0112	0.6401	-0.031
Mof_H 	H 	0.471	0.6661	0.7934	-0.03
Mof_H 	H 	0.5746	0.5953	0.8651	0.122
Mof_H 	H 	0.6879	0.4465	0.8627	-0.025
Mof_H 	H 	0.219	0.3667	0.4481	-0.029
Mof_H 	H 	0.1291	0.2812	0.5207	0.117
Mof_H 	H 	0.1273	0.2214	0.6401	-0.037
Mof_H 	H 	0.0695	0.471	0.7934	-0.03
Mof_H 	H 	0.965	0.5746	0.8651	0.122
Mof_H 	H 	0.0029	0.6879	0.8627	-0.026
Mof_H 	H 	0.9662	0.219	0.4481	-0.025
Mof_H 	H 	0.069	0.1291	0.5207	0.11
Mof_H 	H 	0.0112	0.1273	0.6401	-0.028
Mof_H 	H 	0.6661	0.0695	0.7934	-0.031
Mof_H 	H 	0.5953	0.965	0.8651	0.122
Mof_H 	H 	0.4465	0.0029	0.8627	-0.025
Mof_H 	H 	0.8667	0.719	0.9481	-0.024
Mof_H 	H 	0.7812	0.6291	0.0207	0.113
Mof_H 	H 	0.7214	0.6273	0.1401	-0.035
Mof_H 	H 	0.971	0.5695	0.2934	-0.026
Mof_H 	H 	0.0746	0.465	0.3651	0.12
Mof_H 	H 	0.1879	0.5029	0.3627	-0.025
Mof_H 	H 	0.719	0.4662	0.9481	-0.029
Mof_H 	H 	0.6291	0.569	0.0207	0.117
Mof_H 	H 	0.6273	0.5112	0.1401	-0.038
Mof_H 	H 	0.5695	0.1661	0.2934	-0.034
Mof_H 	H 	0.465	0.0953	0.3651	0.125
Mof_H 	H 	0.5029	0.9465	0.3627	-0.029
Mof_H 	H 	0.4662	0.8667	0.9481	-0.029
Mof_H 	H 	0.569	0.7812	0.0207	0.117
Mof_H 	H 	0.5112	0.7214	0.1401	-0.037
Mof_H 	H 	0.1661	0.971	0.2934	-0.031
Mof_H 	H 	0.0953	0.0746	0.3651	0.12
Mof_H 	H 	0.9465	0.1879	0.3627	-0.024
Mof_H 	H 	0.6333	0.0338	0.5519	-0.022
Mof_H 	H 	0.7188	0.931	0.4793	0.106
Mof_H 	H 	0.7786	0.9888	0.3599	-0.023
Mof_H 	H 	0.529	0.3339	0.2066	-0.03
Mof_H 	H 	0.4254	0.4047	0.1349	0.121
Mof_H 	H 	0.3121	0.5535	0.1373	-0.026
Mof_H 	H 	0.781	0.6333	0.5519	-0.029
Mof_H 	H 	0.8709	0.7188	0.4793	0.118
Mof_H 	H 	0.8727	0.7786	0.3599	-0.036
Mof_H 	H 	0.9305	0.529	0.2066	-0.028
Mof_H 	H 	0.035	0.4254	0.1349	0.116
Mof_H 	H 	0.9971	0.3121	0.1373	-0.024
Mof_H 	H 	0.0338	0.781	0.5519	-0.021
Mof_H 	H 	0.931	0.8709	0.4793	0.105
Mof_H 	H 	0.9888	0.8727	0.3599	-0.02
Mof_H 	H 	0.3339	0.9305	0.2066	-0.029
Mof_H 	H 	0.4047	0.035	0.1349	0.116
Mof_H 	H 	0.5535	0.9971	0.1373	-0.022
Mof_H 	H 	-0	0	-0	0.122
Mof_H 	H 	0.5	0.5	0.5	0.13
Mof_C 	C 	0.20941	0.21181	0.90877	0.348
Mof_C 	C 	0.16031	0.21561	0.97987	-0.29
Mof_C 	C 	0.16391	0.27731	0.00507	0.16
Mof_C 	C 	0.21223	0.33313	0.96151	-0.241
Mof_C 	C 	0.25065	0.33125	0.89065	0.16
Mof_C 	C 	0.09986	0.16276	0.02502	0.436
Mof_C 	C 	0.90867	0.31117	0.74509	0.353
Mof_C 	C 	0.97722	0.33122	0.74944	-0.351
Mof_C 	C 	0.98328	0.41568	0.70666	0.211
Mof_C 	C 	0.9216	0.4783	0.6637	-0.268
Mof_C 	C 	0.8547	0.4545	0.6649	0.175
Mof_C 	C 	0.04426	0.26556	0.79462	0.558
Mof_C 	C 	0.21181	0.67001	0.90877	0.352
Mof_C 	C 	0.21561	0.64421	0.97987	-0.303
Mof_C 	C 	0.27731	0.55371	0.00507	0.177
Mof_C 	C 	0.33313	0.49313	0.96151	-0.253
Mof_C 	C 	0.33125	0.52745	0.89065	0.167
Mof_C 	C 	0.16276	0.71236	0.02502	0.447
Mof_C 	C 	0.31117	0.03507	0.74509	0.356
Mof_C 	C 	0.33122	0.94212	0.74944	-0.352
Mof_C 	C 	0.41568	0.89438	0.70666	0.213
Mof_C 	C 	0.4783	0.9364	0.6637	-0.271
Mof_C 	C 	0.4545	0.0259	0.6649	0.176
Mof_C 	C 	0.26556	0.89556	0.79462	0.557
Mof_C 	C 	0.67001	0.20941	0.90877	0.351
Mof_C 	C 	0.64421	0.16031	0.97987	-0.302
Mof_C 	C 	0.55371	0.16391	0.00507	0.174
Mof_C 	C 	0.49313	0.21223	0.96151	-0.251
Mof_C 	C 	0.52745	0.25065	0.89065	0.166
Mof_C 	C 	0.71236	0.09986	0.02502	0.447
Mof_C 	C 	0.03507	0.90867	0.74509	0.344
Mof_C 	C 	0.94212	0.97722	0.74944	-0.337
Mof_C 	C 	0.89438	0.98328	0.70666	0.21
Mof_C 	C 	0.9364	0.9216	0.6637	-0.258
Mof_C 	C 	0.0259	0.8547	0.6649	0.164
Mof_C 	C 	0.89556	0.04426	0.79462	0.548
Mof_C 	C 	0.29059	0.82999	0.59123	0.354
Mof_C 	C 	0.33969	0.85579	0.52013	-0.31
Mof_C 	C 	0.33609	0.94629	0.49493	0.182
Mof_C 	C 	0.28777	0.00687	0.53849	-0.252
Mof_C 	C 	0.24935	0.97255	0.60935	0.16
Mof_C 	C 	0.40014	0.78764	0.47498	0.453
Mof_C 	C 	0.59133	0.46493	0.75491	0.353
Mof_C 	C 	0.52278	0.55788	0.75056	-0.348
Mof_C 	C 	0.51672	0.60562	0.79334	0.211
Mof_C 	C 	0.5784	0.5636	0.8363	-0.268
Mof_C 	C 	0.6453	0.4741	0.8351	0.175
Mof_C 	C 	0.45574	0.60444	0.70538	0.556
Mof_C 	C 	0.28819	0.29059	0.59123	0.355
Mof_C 	C 	0.28439	0.33969	0.52013	-0.313
Mof_C 	C 	0.22269	0.33609	0.49493	0.19
Mof_C 	C 	0.16687	0.28777	0.53849	-0.264
Mof_C 	C 	0.16875	0.24935	0.60935	0.172
Mof_C 	C 	0.33724	0.40014	0.47498	0.454
Mof_C 	C 	0.18883	0.59133	0.75491	0.352
Mof_C 	C 	0.16878	0.52278	0.75056	-0.348
Mof_C 	C 	0.08432	0.51672	0.79334	0.211
Mof_C 	C 	0.0217	0.5784	0.8363	-0.268
Mof_C 	C 	0.0455	0.6453	0.8351	0.175
Mof_C 	C 	0.23444	0.45574	0.70538	0.556
Mof_C 	C 	0.82999	0.28819	0.59123	0.352
Mof_C 	C 	0.85579	0.28439	0.52013	-0.307
Mof_C 	C 	0.94629	0.22269	0.49493	0.176
Mof_C 	C 	0.00687	0.16687	0.53849	-0.244
Mof_C 	C 	0.97255	0.16875	0.60935	0.152
Mof_C 	C 	0.78764	0.33724	0.47498	0.452
Mof_C 	C 	0.46493	0.18883	0.75491	0.353
Mof_C 	C 	0.55788	0.16878	0.75056	-0.348
Mof_C 	C 	0.60562	0.08432	0.79334	0.211
Mof_C 	C 	0.5636	0.0217	0.8363	-0.269
Mof_C 	C 	0.4741	0.0455	0.8351	0.175
Mof_C 	C 	0.60444	0.23444	0.70538	0.556
Mof_C 	C 	0.79059	0.78819	0.09123	0.351
Mof_C 	C 	0.83969	0.78439	0.02013	-0.3
Mof_C 	C 	0.83609	0.72269	0.99493	0.174
Mof_C 	C 	0.78777	0.66687	0.03849	-0.251
Mof_C 	C 	0.74935	0.66875	0.10935	0.166
Mof_C 	C 	0.90014	0.83724	0.97498	0.443
Mof_C 	C 	0.09133	0.68883	0.25491	0.352
Mof_C 	C 	0.02278	0.66878	0.25056	-0.351
Mof_C 	C 	0.01672	0.58432	0.29334	0.203
Mof_C 	C 	0.0784	0.5217	0.3363	-0.264
Mof_C 	C 	0.1453	0.5455	0.3351	0.172
Mof_C 	C 	0.95574	0.73444	0.20538	0.561
Mof_C 	C 	0.78819	0.32999	0.09123	0.355
Mof_C 	C 	0.78439	0.35579	0.02013	-0.314
Mof_C 	C 	0.72269	0.44629	0.99493	0.191
Mof_C 	C 	0.66687	0.50687	0.03849	-0.264
Mof_C 	C 	0.66875	0.47255	0.10935	0.172
Mof_C 	C 	0.83724	0.28764	0.97498	0.455
Mof_C 	C 	0.68883	0.96493	0.25491	0.361
Mof_C 	C 	0.66878	0.05788	0.25056	-0.359
Mof_C 	C 	0.58432	0.10562	0.29334	0.219
Mof_C 	C 	0.5217	0.0636	0.3363	-0.28
Mof_C 	C 	0.5455	0.9741	0.3351	0.184
Mof_C 	C 	0.73444	0.10444	0.20538	0.559
Mof_C 	C 	0.32999	0.79059	0.09123	0.354
Mof_C 	C 	0.35579	0.83969	0.02013	-0.312
Mof_C 	C 	0.44629	0.83609	0.99493	0.188
Mof_C 	C 	0.50687	0.78777	0.03849	-0.262
Mof_C 	C 	0.47255	0.74935	0.10935	0.171
Mof_C 	C 	0.28764	0.90014	0.97498	0.454
Mof_C 	C 	0.96493	0.09133	0.25491	0.348
Mof_C 	C 	0.05788	0.02278	0.25056	-0.343
Mof_C 	C 	0.10562	0.01672	0.29334	0.209
Mof_C 	C 	0.0636	0.0784	0.3363	-0.263
Mof_C 	C 	0.9741	0.1453	0.3351	0.169
Mof_C 	C 	0.10444	0.95574	0.20538	0.552
Mof_C 	C 	0.70941	0.17001	0.40877	0.351
Mof_C 	C 	0.66031	0.14421	0.47987	-0.304
Mof_C 	C 	0.66391	0.05371	0.50507	0.168
Mof_C 	C 	0.71223	0.99313	0.46151	-0.232
Mof_C 	C 	0.75065	0.02745	0.39065	0.142
Mof_C 	C 	0.59986	0.21236	0.52502	0.451
Mof_C 	C 	0.40867	0.53507	0.24509	0.353
Mof_C 	C 	0.47722	0.44212	0.24944	-0.348
Mof_C 	C 	0.48328	0.39438	0.20666	0.211
Mof_C 	C 	0.4216	0.4364	0.1637	-0.268
Mof_C 	C 	0.3547	0.5259	0.1649	0.175
Mof_C 	C 	0.54426	0.39556	0.29462	0.556
Mof_C 	C 	0.71181	0.70941	0.40877	0.356
Mof_C 	C 	0.71561	0.66031	0.47987	-0.313
Mof_C 	C 	0.77731	0.66391	0.50507	0.19
Mof_C 	C 	0.83313	0.71223	0.46151	-0.264
Mof_C 	C 	0.83125	0.75065	0.39065	0.172
Mof_C 	C 	0.66276	0.59986	0.52502	0.455
Mof_C 	C 	0.81117	0.40867	0.24509	0.351
Mof_C 	C 	0.83122	0.47722	0.24944	-0.346
Mof_C 	C 	0.91568	0.48328	0.20666	0.205
Mof_C 	C 	0.9783	0.4216	0.1637	-0.258
Mof_C 	C 	0.9545	0.3547	0.1649	0.17
Mof_C 	C 	0.76556	0.54426	0.29462	0.555
Mof_C 	C 	0.17001	0.71181	0.40877	0.349
Mof_C 	C 	0.14421	0.71561	0.47987	-0.301
Mof_C 	C 	0.05371	0.77731	0.50507	0.162
Mof_C 	C 	0.99313	0.83313	0.46151	-0.224
Mof_C 	C 	0.02745	0.83125	0.39065	0.135
Mof_C 	C 	0.21236	0.66276	0.52502	0.45
Mof_C 	C 	0.53507	0.81117	0.24509	0.352
Mof_C 	C 	0.44212	0.83122	0.24944	-0.346
Mof_C 	C 	0.39438	0.91568	0.20666	0.205
Mof_C 	C 	0.4364	0.9783	0.1637	-0.258
Mof_C 	C 	0.5259	0.9545	0.1649	0.17
Mof_C 	C 	0.39556	0.76556	0.29462	0.555
Mof_N 	N 	0.24959	0.27299	0.86443	-0.264
Mof_N 	N 	0.84801	0.37321	0.70387	-0.288
Mof_N 	N 	0.27299	0.61299	0.86443	-0.266
Mof_N 	N 	0.37321	0.07491	0.70387	-0.288
Mof_N 	N 	0.61299	0.24959	0.86443	-0.265
Mof_N 	N 	0.07491	0.84801	0.70387	-0.285
Mof_N 	N 	0.25041	0.88701	0.63557	-0.265
Mof_N 	N 	0.65199	0.42509	0.79613	-0.287
Mof_N 	N 	0.22701	0.25041	0.63557	-0.267
Mof_N 	N 	0.12679	0.65199	0.79613	-0.288
Mof_N 	N 	0.88701	0.22701	0.63557	-0.264
Mof_N 	N 	0.42509	0.12679	0.79613	-0.287
Mof_N 	N 	0.75041	0.72701	0.13557	-0.265
Mof_N 	N 	0.15199	0.62679	0.29613	-0.287
Mof_N 	N 	0.72701	0.38701	0.13557	-0.267
Mof_N 	N 	0.62679	0.92509	0.29613	-0.29
Mof_N 	N 	0.38701	0.75041	0.13557	-0.267
Mof_N 	N 	0.92509	0.15199	0.29613	-0.286
Mof_N 	N 	0.74959	0.11299	0.36443	-0.262
Mof_N 	N 	0.34801	0.57491	0.20387	-0.287
Mof_N 	N 	0.77299	0.74959	0.36443	-0.267
Mof_N 	N 	0.87321	0.34801	0.20387	-0.286
Mof_N 	N 	0.11299	0.77299	0.36443	-0.26
Mof_N 	N 	0.57491	0.87321	0.20387	-0.286
Mof_O 	O 	0.08764	0.11344	0.99988	-0.607
Mof_O 	O 	0.05578	0.17068	0.08736	-0.447
Mof_O 	O 	0.2205	0.1519	0.8797	-0.572
Mof_O 	O 	0.03211	0.19281	0.84157	-0.642
Mof_O 	O 	0.10989	0.28489	0.78493	-0.504
Mof_O 	O 	0.89628	0.23398	0.77896	-0.586
Mof_O 	O 	0.11344	0.79904	0.99988	-0.614
Mof_O 	O 	0.17068	0.68618	0.08736	-0.45
Mof_O 	O 	0.1519	0.7479	0.8797	-0.572
Mof_O 	O 	0.19281	0.93351	0.84157	-0.646
Mof_O 	O 	0.28489	0.82029	0.78493	-0.503
Mof_O 	O 	0.23398	0.09078	0.77896	-0.587
Mof_O 	O 	0.79904	0.08764	0.99988	-0.616
Mof_O 	O 	0.68618	0.05578	0.08736	-0.454
Mof_O 	O 	0.7479	0.2205	0.8797	-0.572
Mof_O 	O 	0.93351	0.03211	0.84157	-0.643
Mof_O 	O 	0.82029	0.10989	0.78493	-0.502
Mof_O 	O 	0.09078	0.89628	0.77896	-0.584
Mof_O 	O 	0.41236	0.70096	0.50012	-0.617
Mof_O 	O 	0.44422	0.81382	0.41264	-0.451
Mof_O 	O 	0.2795	0.7521	0.6203	-0.574
Mof_O 	O 	0.46789	0.56649	0.65843	-0.644
Mof_O 	O 	0.39011	0.67971	0.71507	-0.503
Mof_O 	O 	0.60372	0.40922	0.72104	-0.586
Mof_O 	O 	0.38656	0.41236	0.50012	-0.618
Mof_O 	O 	0.32932	0.44422	0.41264	-0.451
Mof_O 	O 	0.3481	0.2795	0.6203	-0.574
Mof_O 	O 	0.30719	0.46789	0.65843	-0.644
Mof_O 	O 	0.21511	0.39011	0.71507	-0.503
Mof_O 	O 	0.26602	0.60372	0.72104	-0.586
Mof_O 	O 	0.70096	0.38656	0.50012	-0.617
Mof_O 	O 	0.81382	0.32932	0.41264	-0.451
Mof_O 	O 	0.7521	0.3481	0.6203	-0.573
Mof_O 	O 	0.56649	0.30719	0.65843	-0.644
Mof_O 	O 	0.67971	0.21511	0.71507	-0.503
Mof_O 	O 	0.40922	0.26602	0.72104	-0.586
Mof_O 	O 	0.91236	0.88656	0.00012	-0.61
Mof_O 	O 	0.94422	0.82932	0.91264	-0.446
Mof_O 	O 	0.7795	0.8481	0.1203	-0.573
Mof_O 	O 	0.96789	0.80719	0.15843	-0.641
Mof_O 	O 	0.89011	0.71511	0.21507	-0.504
Mof_O 	O 	0.10372	0.76602	0.22104	-0.586
Mof_O 	O 	0.88656	0.20096	0.00012	-0.618
Mof_O 	O 	0.82932	0.31382	0.91264	-0.451
Mof_O 	O 	0.8481	0.2521	0.1203	-0.573
Mof_O 	O 	0.80719	0.06649	0.15843	-0.648
Mof_O 	O 	0.71511	0.17971	0.21507	-0.504
Mof_O 	O 	0.76602	0.90922	0.22104	-0.588
Mof_O 	O 	0.20096	0.91236	0.00012	-0.619
Mof_O 	O 	0.31382	0.94422	0.91264	-0.453
Mof_O 	O 	0.2521	0.7795	0.1203	-0.573
Mof_O 	O 	0.06649	0.96789	0.15843	-0.643
Mof_O 	O 	0.17971	0.89011	0.21507	-0.502
Mof_O 	O 	0.90922	0.10372	0.22104	-0.585
Mof_O 	O 	0.58764	0.29904	0.49988	-0.617
Mof_O 	O 	0.55578	0.18618	0.58736	-0.451
Mof_O 	O 	0.7205	0.2479	0.3797	-0.573
Mof_O 	O 	0.53211	0.43351	0.34157	-0.644
Mof_O 	O 	0.60989	0.32029	0.28493	-0.503
Mof_O 	O 	0.39628	0.59078	0.27896	-0.586
Mof_O 	O 	0.61344	0.58764	0.49988	-0.618
Mof_O 	O 	0.67068	0.55578	0.58736	-0.451
Mof_O 	O 	0.6519	0.7205	0.3797	-0.574
Mof_O 	O 	0.69281	0.53211	0.34157	-0.643
Mof_O 	O 	0.78489	0.60989	0.28493	-0.503
Mof_O 	O 	0.73398	0.39628	0.27896	-0.586
Mof_O 	O 	0.29904	0.61344	0.49988	-0.616
Mof_O 	O 	0.18618	0.67068	0.58736	-0.45
Mof_O 	O 	0.2479	0.6519	0.3797	-0.573
Mof_O 	O 	0.43351	0.69281	0.34157	-0.643
Mof_O 	O 	0.32029	0.78489	0.28493	-0.503
Mof_O 	O 	0.59078	0.73398	0.27896	-0.586
Mof_O 	O 	0.02244	0.02244	0.93268	-0.813
Mof_O 	O 	0.47756	0.47756	0.56732	-0.822
Mof_O 	O 	0.97756	0.97756	0.06732	-0.81
Mof_O 	O 	0.52244	0.52244	0.43268	-0.822
_end
