# CIF file generated by openbabel 3.1.0, see https://openbabel.org
data_I
_chemical_name_common 'ORAGEU_clean'
_cell_length_a 13.822
_cell_length_b 13.822
_cell_length_c 19.808
_cell_angle_alpha 90
_cell_angle_beta 90
_cell_angle_gamma 120
_space_group_name_H-M_alt 'P 1'
_space_group_name_Hall 'P 1'
loop_
    _symmetry_equiv_pos_as_xyz
    x,y,z
loop_
    _atom_site_label
    _atom_site_type_symbol
    _atom_site_fract_x
    _atom_site_fract_y
    _atom_site_fract_z
    _atom_site_occupancy
    Gd1      Gd       0.67827    0.74624    0.25000    1.000
    Gd2      Gd       0.06797    0.32173    0.25000    1.000
    Gd3      Gd       0.25376    0.93203    0.25000    1.000
    Gd4      Gd       0.32173    0.25376    0.75000    1.000
    Gd5      Gd       0.93203    0.67827    0.75000    1.000
    Gd6      Gd       0.74624    0.06797    0.75000    1.000
    Re1      Re       0.28616    0.75258    0.56029    1.000
    Re2      Re       0.46642    0.71384    0.56029    1.000
    Re3      Re       0.24742    0.53358    0.56029    1.000
    Re4      Re       0.71384    0.24742    0.06029    1.000
    Re5      Re       0.53358    0.28616    0.06029    1.000
    Re6      Re       0.75258    0.46642    0.06029    1.000
    Re7      Re       0.71384    0.24742    0.43971    1.000
    Re8      Re       0.53358    0.28616    0.43971    1.000
    Re9      Re       0.75258    0.46642    0.43971    1.000
    Re10     Re       0.28616    0.75258    0.93971    1.000
    Re11     Re       0.46642    0.71384    0.93971    1.000
    Re12     Re       0.24742    0.53358    0.93971    1.000
    Re13     Re       0.33333    0.66666    0.44452    1.000
    Re14     Re       0.66667    0.33334    0.94452    1.000
    Re15     Re       0.66667    0.33334    0.55548    1.000
    Re16     Re       0.33333    0.66666    0.05548    1.000
    C1       C        0.46200    0.70800    0.37480    1.000
    C2       C        0.23080    0.84820    0.51020    1.000
    C3       C        0.14970    0.71960    0.62320    1.000
    C4       C        0.36230    0.89950    0.61830    1.000
    C5       C        0.24600    0.53800    0.37480    1.000
    C6       C        0.61740    0.76920    0.51020    1.000
    C7       C        0.56990    0.85030    0.62320    1.000
    C8       C        0.53720    0.63770    0.61830    1.000
    C9       C        0.29200    0.75400    0.37480    1.000
    C10      C        0.15180    0.38260    0.51020    1.000
    C11      C        0.28040    0.43010    0.62320    1.000
    C12      C        0.10050    0.46280    0.61830    1.000
    C13      C        0.53800    0.29200    0.87480    1.000
    C14      C        0.76920    0.15180    0.01020    1.000
    C15      C        0.85030    0.28040    0.12320    1.000
    C16      C        0.63770    0.10050    0.11830    1.000
    C17      C        0.75400    0.46200    0.87480    1.000
    C18      C        0.38260    0.23080    0.01020    1.000
    C19      C        0.43010    0.14970    0.12320    1.000
    C20      C        0.46280    0.36230    0.11830    1.000
    C21      C        0.70800    0.24600    0.87480    1.000
    C22      C        0.84820    0.61740    0.01020    1.000
    C23      C        0.71960    0.56990    0.12320    1.000
    C24      C        0.89950    0.53720    0.11830    1.000
    C25      C        0.53800    0.29200    0.62520    1.000
    C26      C        0.76920    0.15180    0.48980    1.000
    C27      C        0.85030    0.28040    0.37680    1.000
    C28      C        0.63770    0.10050    0.38170    1.000
    C29      C        0.75400    0.46200    0.62520    1.000
    C30      C        0.38260    0.23080    0.48980    1.000
    C31      C        0.43010    0.14970    0.37680    1.000
    C32      C        0.46280    0.36230    0.38170    1.000
    C33      C        0.70800    0.24600    0.62520    1.000
    C34      C        0.84820    0.61740    0.48980    1.000
    C35      C        0.71960    0.56990    0.37680    1.000
    C36      C        0.89950    0.53720    0.38170    1.000
    C37      C        0.46200    0.70800    0.12520    1.000
    C38      C        0.23080    0.84820    0.98980    1.000
    C39      C        0.14970    0.71960    0.87680    1.000
    C40      C        0.36230    0.89950    0.88170    1.000
    C41      C        0.24600    0.53800    0.12520    1.000
    C42      C        0.61740    0.76920    0.98980    1.000
    C43      C        0.56990    0.85030    0.87680    1.000
    C44      C        0.53720    0.63770    0.88170    1.000
    C45      C        0.29200    0.75400    0.12520    1.000
    C46      C        0.15180    0.38260    0.98980    1.000
    C47      C        0.28040    0.43010    0.87680    1.000
    C48      C        0.10050    0.46280    0.88170    1.000
    Se1      Se       0.45563    0.85476    0.49037    1.000
    Se2      Se       0.39913    0.54437    0.49037    1.000
    Se3      Se       0.14524    0.60087    0.49037    1.000
    Se4      Se       0.54437    0.14524    0.99037    1.000
    Se5      Se       0.60087    0.45563    0.99037    1.000
    Se6      Se       0.85476    0.39913    0.99037    1.000
    Se7      Se       0.54437    0.14524    0.50963    1.000
    Se8      Se       0.60087    0.45563    0.50963    1.000
    Se9      Se       0.85476    0.39913    0.50963    1.000
    Se10     Se       0.45563    0.85476    0.00963    1.000
    Se11     Se       0.39913    0.54437    0.00963    1.000
    Se12     Se       0.14524    0.60087    0.00963    1.000
    Se13     Se       0.33333    0.66666    0.65383    1.000
    Se14     Se       0.66667    0.33334    0.15383    1.000
    Se15     Se       0.66667    0.33334    0.34617    1.000
    Se16     Se       0.33333    0.66666    0.84617    1.000
    N1       N        0.53320    0.72690    0.33610    1.000
    N2       N        0.07840    0.70570    0.65970    1.000
    N3       N        0.20060    0.90380    0.48350    1.000
    N4       N        0.39860    0.97930    0.64990    1.000
    N5       N        0.19370    0.46680    0.33610    1.000
    N6       N        0.62730    0.92160    0.65970    1.000
    N7       N        0.70320    0.79940    0.48350    1.000
    N8       N        0.58070    0.60140    0.64990    1.000
    N9       N        0.27310    0.80630    0.33610    1.000
    N10      N        0.29430    0.37270    0.65970    1.000
    N11      N        0.09620    0.29680    0.48350    1.000
    N12      N        0.02070    0.41930    0.64990    1.000
    N13      N        0.46680    0.27310    0.83610    1.000
    N14      N        0.92160    0.29430    0.15970    1.000
    N15      N        0.79940    0.09620    0.98350    1.000
    N16      N        0.60140    0.02070    0.14990    1.000
    N17      N        0.80630    0.53320    0.83610    1.000
    N18      N        0.37270    0.07840    0.15970    1.000
    N19      N        0.29680    0.20060    0.98350    1.000
    N20      N        0.41930    0.39860    0.14990    1.000
    N21      N        0.72690    0.19370    0.83610    1.000
    N22      N        0.70570    0.62730    0.15970    1.000
    N23      N        0.90380    0.70320    0.98350    1.000
    N24      N        0.97930    0.58070    0.14990    1.000
    N25      N        0.46680    0.27310    0.66390    1.000
    N26      N        0.92160    0.29430    0.34030    1.000
    N27      N        0.79940    0.09620    0.51650    1.000
    N28      N        0.60140    0.02070    0.35010    1.000
    N29      N        0.80630    0.53320    0.66390    1.000
    N30      N        0.37270    0.07840    0.34030    1.000
    N31      N        0.29680    0.20060    0.51650    1.000
    N32      N        0.41930    0.39860    0.35010    1.000
    N33      N        0.72690    0.19370    0.66390    1.000
    N34      N        0.70570    0.62730    0.34030    1.000
    N35      N        0.90380    0.70320    0.51650    1.000
    N36      N        0.97930    0.58070    0.35010    1.000
    N37      N        0.53320    0.72690    0.16390    1.000
    N38      N        0.07840    0.70570    0.84030    1.000
    N39      N        0.20060    0.90380    0.01650    1.000
    N40      N        0.39860    0.97930    0.85010    1.000
    N41      N        0.19370    0.46680    0.16390    1.000
    N42      N        0.62730    0.92160    0.84030    1.000
    N43      N        0.70320    0.79940    0.01650    1.000
    N44      N        0.58070    0.60140    0.85010    1.000
    N45      N        0.27310    0.80630    0.16390    1.000
    N46      N        0.29430    0.37270    0.84030    1.000
    N47      N        0.09620    0.29680    0.01650    1.000
    N48      N        0.02070    0.41930    0.85010    1.000
