# CIF file generated by openbabel 3.1.0, see https://openbabel.org
data_I
_chemical_name_common 'CUGLTM02_clean'
_cell_length_a 7.232
_cell_length_b 10.311
_cell_length_c 11.058
_cell_angle_alpha 90
_cell_angle_beta 90
_cell_angle_gamma 90
_space_group_name_H-M_alt 'P 1'
_space_group_name_Hall 'P 1'
loop_
    _symmetry_equiv_pos_as_xyz
    x,y,z
loop_
    _atom_site_label
    _atom_site_type_symbol
    _atom_site_fract_x
    _atom_site_fract_y
    _atom_site_fract_z
    _atom_site_occupancy
    Cu1      Cu       0.39969    0.56684    0.52913    1.000
    Cu2      Cu       0.10031    0.43316    0.02913    1.000
    H1       H        0.16580    0.22140    0.77390    1.000
    H2       H        0.31040    0.36720    0.86610    1.000
    H3       H        0.18190    0.46150    0.81540    1.000
    H4       H        0.02030    0.37990    0.65180    1.000
    H5       H        0.89630    0.25710    0.67090    1.000
    H6       H        0.84430    0.49100    0.80070    1.000
    H7       H        0.71640    0.36880    0.81290    1.000
    H8       H        0.33420    0.77860    0.27390    1.000
    H9       H        0.18960    0.63280    0.36610    1.000
    H10      H        0.31810    0.53850    0.31540    1.000
    H11      H        0.47970    0.62010    0.15180    1.000
    H12      H        0.60370    0.74290    0.17090    1.000
    H13      H        0.65570    0.50900    0.30070    1.000
    H14      H        0.78360    0.63120    0.31290    1.000
    C1       C        0.97040    0.21500    0.91160    1.000
    C2       C        0.08050    0.28430    0.80990    1.000
    C3       C        0.94940    0.33180    0.71130    1.000
    C4       C        0.79240    0.41800    0.75700    1.000
    C5       C        0.67250    0.46800    0.65490    1.000
    C6       C        0.52960    0.78500    0.41160    1.000
    C7       C        0.41950    0.71570    0.30990    1.000
    C8       C        0.55060    0.66820    0.21130    1.000
    C9       C        0.70760    0.58200    0.25700    1.000
    C10      C        0.82750    0.53200    0.15490    1.000
    N1       N        0.19070    0.39080    0.86270    1.000
    N2       N        0.30930    0.60920    0.36270    1.000
    O1       O        0.87450    0.12100    0.88090    1.000
    O2       O        0.98160    0.26190    0.01690    1.000
    O3       O        0.71480    0.44940    0.54610    1.000
    O4       O        0.52410    0.52850    0.68380    1.000
    O5       O        0.62550    0.87900    0.38090    1.000
    O6       O        0.51840    0.73810    0.51690    1.000
    O7       O        0.78520    0.55060    0.04610    1.000
    O8       O        0.97590    0.47150    0.18380    1.000
    Cu3      Cu       0.60031    0.06684    0.97087    1.000
    Cu4      Cu       0.89969    0.93316    0.47087    1.000
    H15      H        0.83420    0.72140    0.72610    1.000
    H16      H        0.68960    0.86720    0.63390    1.000
    H17      H        0.81810    0.96150    0.68460    1.000
    H18      H        0.97970    0.87990    0.84820    1.000
    H19      H        0.10370    0.75710    0.82910    1.000
    H20      H        0.15570    0.99100    0.69930    1.000
    H21      H        0.28360    0.86880    0.68710    1.000
    H22      H        0.66580    0.27860    0.22610    1.000
    H23      H        0.81040    0.13280    0.13390    1.000
    H24      H        0.68190    0.03850    0.18460    1.000
    H25      H        0.52030    0.12010    0.34820    1.000
    H26      H        0.39630    0.24290    0.32910    1.000
    H27      H        0.34430    0.00900    0.19930    1.000
    H28      H        0.21640    0.13120    0.18710    1.000
    C11      C        0.02960    0.71500    0.58840    1.000
    C12      C        0.91950    0.78430    0.69010    1.000
    C13      C        0.05060    0.83180    0.78870    1.000
    C14      C        0.20760    0.91800    0.74300    1.000
    C15      C        0.32750    0.96800    0.84510    1.000
    C16      C        0.47040    0.28500    0.08840    1.000
    C17      C        0.58050    0.21570    0.19010    1.000
    C18      C        0.44940    0.16820    0.28870    1.000
    C19      C        0.29240    0.08200    0.24300    1.000
    C20      C        0.17250    0.03200    0.34510    1.000
    N3       N        0.80930    0.89080    0.63730    1.000
    N4       N        0.69070    0.10920    0.13730    1.000
    O9       O        0.12550    0.62100    0.61910    1.000
    O10      O        0.01840    0.76190    0.48310    1.000
    O11      O        0.28520    0.94940    0.95390    1.000
    O12      O        0.47590    0.02850    0.81620    1.000
    O13      O        0.37450    0.37900    0.11910    1.000
    O14      O        0.48160    0.23810    0.98310    1.000
    O15      O        0.21480    0.05060    0.45390    1.000
    O16      O        0.02410    0.97150    0.31620    1.000
