data_functionalizedCrystal
_audit_creation_method	'EQeq! by Chris Wilmer'
_symmetry_space_group_name_H-M	'P1'
_symmetry_Int_Tables_number	1
_symmetry_cell_setting	triclinic
loop_
_symmetry_equiv_pos_as_xyz
  x,y,z
_cell_length_a	12.665
_cell_length_b	15.7376
_cell_length_c	15.7376
_cell_angle_alpha	80.6821
_cell_angle_beta	66.2728
_cell_angle_gamma	66.2728
loop_
_atom_site_label
_atom_site_type_symbol
_atom_site_fract_x
_atom_site_fract_y
_atom_site_fract_z
_atom_site_charge
Mof_Cu	Cu	3.18042e-17	0.5	0.5	0.901
Mof_Cu	Cu	0.5	0	-0	0.853
Mof_Cu	Cu	0.5	0.5	-0	0.884
Mof_Cu	Cu	0.5	4.12419e-23	0.5	0.883
Mof_H 	H 	0.3833	0.5273	0.8507	0.009
Mof_H 	H 	0.5477	0.2925	0.9587	0.053
Mof_H 	H 	0.4733	0.2539	0.8549	0.035
Mof_H 	H 	0.4749	0.2941	0.6913	0.115
Mof_H 	H 	0.378	0.3102	0.5882	0.013
Mof_H 	H 	0.1056	0.5387	0.7217	0.012
Mof_H 	H 	0.2026	0.5242	0.8226	0.12
Mof_H 	H 	0.2613	0.9727	0.6493	0.089
Mof_H 	H 	0.2989	0.2075	0.5413	0.042
Mof_H 	H 	0.0821	0.2461	0.6451	0.031
Mof_H 	H 	0.9603	0.2059	0.8087	0.075
Mof_H 	H 	0.7764	0.1898	0.9118	0.057
Mof_H 	H 	0.866	0.9613	0.7783	0.127
Mof_H 	H 	0.0494	0.9758	0.6774	0.106
Mof_H 	H 	0.234	0.1493	0.0273	-0.095
Mof_H 	H 	0.5064	0.0413	0.7925	0.044
Mof_H 	H 	0.3282	0.1451	0.7539	0.033
Mof_H 	H 	0.1662	0.3087	0.7941	0.139
Mof_H 	H 	0.9662	0.4118	0.8102	-0.007
Mof_H 	H 	0.8273	0.2783	0.0387	-0.09
Mof_H 	H 	0.0252	0.1774	0.0242	0.054
Mof_H 	H 	0.9106	0.3507	0.4727	-0
Mof_H 	H 	0.8402	0.4587	0.7075	0.054
Mof_H 	H 	0.7272	0.3549	0.7461	0.034
Mof_H 	H 	0.769	0.1913	0.7059	0.117
Mof_H 	H 	0.6882	0.0882	0.6898	0.008
Mof_H 	H 	0.6443	0.2217	0.4613	0.007
Mof_H 	H 	0.7268	0.3226	0.4758	0.112
Mof_H 	H 	0.6167	0.4727	0.1493	-0.008
Mof_H 	H 	0.4523	0.7075	0.0413	0.043
Mof_H 	H 	0.5267	0.7461	0.1451	0.035
Mof_H 	H 	0.5251	0.7059	0.3087	0.111
Mof_H 	H 	0.622	0.6898	0.4118	0.018
Mof_H 	H 	0.8944	0.4613	0.2783	0.014
Mof_H 	H 	0.7974	0.4758	0.1774	0.102
Mof_H 	H 	0.7387	0.0273	0.3507	-0.089
Mof_H 	H 	0.7011	0.7925	0.4587	0.053
Mof_H 	H 	0.9179	0.7539	0.3549	0.037
Mof_H 	H 	0.0397	0.7941	0.1913	0.15
Mof_H 	H 	0.2236	0.8102	0.0882	-0.025
Mof_H 	H 	0.134	0.0387	0.2217	-0.116
Mof_H 	H 	0.9506	0.0242	0.3226	0.114
Mof_H 	H 	0.766	0.8507	0.9727	0.084
Mof_H 	H 	0.4936	0.9587	0.2075	0.054
Mof_H 	H 	0.6718	0.8549	0.2461	0.036
Mof_H 	H 	0.8338	0.6913	0.2059	0.083
Mof_H 	H 	0.0338	0.5882	0.1898	0.042
Mof_H 	H 	0.1727	0.7217	0.9613	0.117
Mof_H 	H 	0.9748	0.8226	0.9758	0.149
Mof_H 	H 	0.0894	0.6493	0.5273	0.001
Mof_H 	H 	0.1598	0.5413	0.2925	0.041
Mof_H 	H 	0.2728	0.6451	0.2539	0.034
Mof_H 	H 	0.231	0.8087	0.2941	0.109
Mof_H 	H 	0.3118	0.9118	0.3102	0.024
Mof_H 	H 	0.3557	0.7783	0.5387	0.019
Mof_H 	H 	0.2732	0.6774	0.5242	0.109
Mof_C 	C 	0.4143	0.4646	0.8652	0.105
Mof_C 	C 	0.505	0.335	0.924	0.006
Mof_C 	C 	0.464	0.3129	0.8671	0.017
Mof_C 	C 	0.3464	0.4084	0.7658	0.188
Mof_C 	C 	0.4007	0.3435	0.6969	-0.21
Mof_C 	C 	0.3421	0.3534	0.6354	0.101
Mof_C 	C 	0.2333	0.4252	0.6436	-0.154
Mof_C 	C 	0.1804	0.4896	0.715	0.103
Mof_C 	C 	0.2378	0.4809	0.7755	-0.214
Mof_C 	C 	0.1659	0.434	0.5802	0.339
Mof_C 	C 	0.2441	0.0354	0.6348	-0.03
Mof_C 	C 	0.264	0.165	0.576	0.002
Mof_C 	C 	0.144	0.1871	0.6329	0.001
Mof_C 	C 	0.0206	0.0916	0.7342	0.061
Mof_C 	C 	0.9411	0.1565	0.8031	-0.076
Mof_C 	C 	0.8309	0.1466	0.8646	-0.009
Mof_C 	C 	0.8021	0.0748	0.8564	-0.044
Mof_C 	C 	0.885	0.0104	0.785	-0.093
Mof_C 	C 	0.9942	0.0191	0.7245	-0.109
Mof_C 	C 	0.6801	0.066	0.9198	0.294
Mof_C 	C 	0.2795	0.1348	0.9646	0.215
Mof_C 	C 	0.429	0.076	0.835	0.001
Mof_C 	C 	0.3311	0.1329	0.8129	0.012
Mof_C 	C 	0.1122	0.2342	0.9084	0.216
Mof_C 	C 	0.0976	0.3031	0.8435	-0.282
Mof_C 	C 	0.9775	0.3646	0.8534	0.192
Mof_C 	C 	0.8769	0.3564	0.9252	-0.222
Mof_C 	C 	0.8954	0.285	0.9896	0.263
Mof_C 	C 	0.0133	0.2245	0.9809	-0.214
Mof_C 	C 	0.7461	0.4198	0.934	0.368
Mof_C 	C 	0.8789	0.3652	0.5354	0.1
Mof_C 	C 	0.84	0.424	0.665	0.005
Mof_C 	C 	0.7769	0.3671	0.6871	0.015
Mof_C 	C 	0.7548	0.2658	0.5916	0.187
Mof_C 	C 	0.7442	0.1969	0.6565	-0.213
Mof_C 	C 	0.6955	0.1354	0.6466	0.102
Mof_C 	C 	0.6585	0.1436	0.5748	-0.159
Mof_C 	C 	0.67	0.215	0.5104	0.104
Mof_C 	C 	0.7187	0.2755	0.5191	-0.215
Mof_C 	C 	0.5999	0.0802	0.566	0.339
Mof_C 	C 	0.5857	0.5354	0.1348	0.091
Mof_C 	C 	0.495	0.665	0.076	-0
Mof_C 	C 	0.536	0.6871	0.1329	0.009
Mof_C 	C 	0.6536	0.5916	0.2342	0.176
Mof_C 	C 	0.5993	0.6565	0.3031	-0.199
Mof_C 	C 	0.6579	0.6466	0.3646	0.092
Mof_C 	C 	0.7667	0.5748	0.3564	-0.143
Mof_C 	C 	0.8196	0.5104	0.285	0.093
Mof_C 	C 	0.7622	0.5191	0.2245	-0.202
Mof_C 	C 	0.8341	0.566	0.4198	0.333
Mof_C 	C 	0.7559	0.9646	0.3652	0.228
Mof_C 	C 	0.736	0.835	0.424	0.004
Mof_C 	C 	0.856	0.8129	0.3671	0.024
Mof_C 	C 	0.9794	0.9084	0.2658	0.298
Mof_C 	C 	0.0589	0.8435	0.1969	-0.328
Mof_C 	C 	0.1691	0.8534	0.1354	0.203
Mof_C 	C 	0.1979	0.9252	0.1436	-0.256
Mof_C 	C 	0.115	0.9896	0.215	0.308
Mof_C 	C 	0.0058	0.9809	0.2755	-0.305
Mof_C 	C 	0.3199	0.934	0.0802	0.378
Mof_C 	C 	0.7205	0.8652	0.0354	-0
Mof_C 	C 	0.571	0.924	0.165	0.006
Mof_C 	C 	0.6689	0.8671	0.1871	0.014
Mof_C 	C 	0.8878	0.7658	0.0916	0.136
Mof_C 	C 	0.9024	0.6969	0.1565	-0.115
Mof_C 	C 	0.0225	0.6354	0.1466	-0.01
Mof_C 	C 	0.1231	0.6436	0.0748	-0.067
Mof_C 	C 	0.1046	0.715	0.0104	-0.079
Mof_C 	C 	0.9867	0.7755	0.0191	-0.172
Mof_C 	C 	0.2539	0.5802	0.066	0.301
Mof_C 	C 	0.1211	0.6348	0.4646	0.096
Mof_C 	C 	0.16	0.576	0.335	0.001
Mof_C 	C 	0.2231	0.6329	0.3129	0.01
Mof_C 	C 	0.2452	0.7342	0.4084	0.177
Mof_C 	C 	0.2558	0.8031	0.3435	-0.195
Mof_C 	C 	0.3045	0.8646	0.3534	0.089
Mof_C 	C 	0.3415	0.8564	0.4252	-0.136
Mof_C 	C 	0.33	0.785	0.4896	0.091
Mof_C 	C 	0.2813	0.7245	0.4809	-0.2
Mof_C 	C 	0.4001	0.9198	0.434	0.332
Mof_N 	N 	0.4748	0.4287	0.9235	-0.196
Mof_N 	N 	0.4054	0.3955	0.8307	-0.15
Mof_N 	N 	0.327	0.0713	0.5765	-0.201
Mof_N 	N 	0.1316	0.1045	0.6693	-0.117
Mof_N 	N 	0.3983	0.0765	0.9287	-0.222
Mof_N 	N 	0.2361	0.1693	0.8955	-0.171
Mof_N 	N 	0.9035	0.4235	0.5713	-0.205
Mof_N 	N 	0.8009	0.3307	0.6045	-0.15
Mof_N 	N 	0.5252	0.5713	0.0765	-0.218
Mof_N 	N 	0.5946	0.6045	0.1693	-0.149
Mof_N 	N 	0.673	0.9287	0.4235	-0.214
Mof_N 	N 	0.8684	0.8955	0.3307	-0.181
Mof_N 	N 	0.6017	0.9235	0.0713	-0.185
Mof_N 	N 	0.7639	0.8307	0.1045	-0.128
Mof_N 	N 	0.0965	0.5765	0.4287	-0.214
Mof_N 	N 	0.1991	0.6693	0.3955	-0.148
Mof_O 	O 	0.0577	0.4914	0.6002	-0.404
Mof_O 	O 	0.2273	0.3808	0.5102	-0.303
Mof_O 	O 	0.6493	0.0086	0.8998	-0.389
Mof_O 	O 	0.6183	0.1192	0.9898	-0.272
Mof_O 	O 	0.6579	0.3998	0.9914	-0.374
Mof_O 	O 	0.7375	0.4898	0.8808	-0.283
Mof_O 	O 	0.5491	0.1002	0.5086	-0.411
Mof_O 	O 	0.6081	0.0102	0.6192	-0.315
Mof_O 	O 	0.9423	0.5086	0.3998	-0.389
Mof_O 	O 	0.7727	0.6192	0.4898	-0.288
Mof_O 	O 	0.3507	0.9914	0.1002	-0.382
Mof_O 	O 	0.3817	0.8808	0.0102	-0.309
Mof_O 	O 	0.3421	0.6002	0.0086	-0.412
Mof_O 	O 	0.2625	0.5102	0.1192	-0.305
Mof_O 	O 	0.4509	0.8998	0.4914	-0.375
Mof_O 	O 	0.3919	0.9898	0.3808	-0.271
_end
