# CIF file generated by openbabel 3.1.0, see https://openbabel.org
data_I
_chemical_name_common 'image0'
_cell_length_a 8.4548
_cell_length_b 13.1047
_cell_length_c 9.4885
_cell_angle_alpha 90
_cell_angle_beta 94.439
_cell_angle_gamma 90
_space_group_name_H-M_alt 'P 1'
_space_group_name_Hall 'P 1'
loop_
    _symmetry_equiv_pos_as_xyz
    x,y,z
loop_
    _atom_site_label
    _atom_site_type_symbol
    _atom_site_fract_x
    _atom_site_fract_y
    _atom_site_fract_z
    _atom_site_occupancy
    Tb1      Tb       0.03815    0.76903    0.49144    1.000
    O1       O        0.84050    0.64040    0.38600    1.000
    O2       O        0.78280    0.71280    0.58340    1.000
    O3       O        0.65000    0.61390    0.84220    1.000
    O4       O        0.83430    0.51110    0.76680    1.000
    O5       O        0.54920    0.56790    0.12550    1.000
    O6       O        0.53540    0.70620    0.25050    1.000
    C1       C        0.75240    0.64830    0.48830    1.000
    C2       C        0.52410    0.54920    0.37430    1.000
    C3       C        0.61700    0.57490    0.49590    1.000
    C4       C        0.59250    0.52660    0.62440    1.000
    C5       C        0.69980    0.55270    0.75680    1.000
    C6       C        0.53900    0.61050    0.24200    1.000
    Tb2      Tb       0.46185    0.26902    0.00856    1.000
    O7       O        0.65950    0.14040    0.11400    1.000
    O8       O        0.71720    0.21280    0.91660    1.000
    O9       O        0.85000    0.11390    0.65780    1.000
    O10      O        0.66570    0.01110    0.73320    1.000
    O11      O        0.95080    0.06790    0.37450    1.000
    O12      O        0.96460    0.20620    0.24950    1.000
    C7       C        0.74760    0.14830    0.01170    1.000
    C8       C        0.97590    0.04920    0.12570    1.000
    C9       C        0.88300    0.07490    0.00410    1.000
    C10      C        0.90750    0.02660    0.87560    1.000
    C11      C        0.80020    0.05270    0.74320    1.000
    C12      C        0.96100    0.11050    0.25800    1.000
    Tb3      Tb       0.96185    0.23098    0.50856    1.000
    O13      O        0.15950    0.35960    0.61400    1.000
    O14      O        0.21720    0.28720    0.41660    1.000
    O15      O        0.35000    0.38610    0.15780    1.000
    O16      O        0.16570    0.48890    0.23320    1.000
    O17      O        0.45080    0.43210    0.87450    1.000
    O18      O        0.46460    0.29380    0.74950    1.000
    C13      C        0.24760    0.35170    0.51170    1.000
    C14      C        0.47590    0.45080    0.62570    1.000
    C15      C        0.38300    0.42510    0.50410    1.000
    C16      C        0.40750    0.47340    0.37560    1.000
    C17      C        0.30020    0.44730    0.24320    1.000
    C18      C        0.46100    0.38950    0.75800    1.000
    Tb4      Tb       0.53815    0.73098    0.99144    1.000
    O19      O        0.34050    0.85960    0.88600    1.000
    O20      O        0.28280    0.78720    0.08340    1.000
    O21      O        0.15000    0.88610    0.34220    1.000
    O22      O        0.33430    0.98890    0.26680    1.000
    O23      O        0.04920    0.93210    0.62550    1.000
    O24      O        0.03540    0.79380    0.75050    1.000
    C19      C        0.25240    0.85170    0.98830    1.000
    C20      C        0.02410    0.95080    0.87430    1.000
    C21      C        0.11700    0.92510    0.99590    1.000
    C22      C        0.09250    0.97340    0.12440    1.000
    C23      C        0.19980    0.94730    0.25680    1.000
    C24      C        0.03900    0.88950    0.74200    1.000
