data_functionalizedCrystal
_audit_creation_method	'EQeq! by Chris Wilmer'
_symmetry_space_group_name_H-M	'P1'
_symmetry_Int_Tables_number	1
_symmetry_cell_setting	triclinic
loop_
_symmetry_equiv_pos_as_xyz
  x,y,z
_cell_length_a	11.4391
_cell_length_b	15.4481
_cell_length_c	19.1156
_cell_angle_alpha	94.625
_cell_angle_beta	90
_cell_angle_gamma	90
loop_
_atom_site_label
_atom_site_type_symbol
_atom_site_fract_x
_atom_site_fract_y
_atom_site_fract_z
_atom_site_charge
Mof_Cd	Cd	0.56637	0.54334	0.4229	0.472
Mof_Cd	Cd	0.43363	0.54334	0.9229	0.472
Mof_Cd	Cd	0.56637	0.45666	0.0771	0.472
Mof_Cd	Cd	0.53199	0.5	0.75	0.524
Mof_Cd	Cd	0.46801	0.5	0.25	0.524
Mof_Cd	Cd	0.43363	0.45666	0.5771	0.472
Mof_H 	H 	0.0014	0.7637	0.3051	0.155
Mof_H 	H 	0.3148	0.6179	0.6927	-0.005
Mof_H 	H 	0.268	0.7201	0.4804	-0.018
Mof_H 	H 	0.6817	0.8328	0.7553	0.156
Mof_H 	H 	0.1902	0.0196	0.5885	0.228
Mof_H 	H 	0.15	0.933	0.367	0.225
Mof_H 	H 	0.7382	0.7107	0.1088	0.154
Mof_H 	H 	0.15	0.067	0.133	0.222
Mof_H 	H 	0.5791	0.7065	0.7232	-0.008
Mof_H 	H 	0.1194	0.179	0.9998	0.167
Mof_H 	H 	0.9919	0.8366	0.6701	0.215
Mof_H 	H 	0.844	0.336	0.714	-0.016
Mof_H 	H 	0.0081	0.8366	0.1701	0.213
Mof_H 	H 	0.1956	0.8982	0.7612	0.149
Mof_H 	H 	0.3148	0.3821	0.8073	-0.005
Mof_H 	H 	0.0014	0.2363	0.1949	0.154
Mof_H 	H 	0.743	0.806	0.344	-0.006
Mof_H 	H 	0.0081	0.1634	0.3299	0.215
Mof_H 	H 	0.257	0.194	0.656	-0.006
Mof_H 	H 	0.156	0.664	0.286	-0.016
Mof_H 	H 	0.743	0.194	0.156	-0.006
Mof_H 	H 	0.3115	0.2852	0.4751	-0.001
Mof_H 	H 	0.6817	0.1672	0.7447	0.156
Mof_H 	H 	0.2618	0.7107	0.6088	0.154
Mof_H 	H 	0.6885	0.7148	0.5249	-0.001
Mof_H 	H 	0.7918	0.8413	0.5568	0.156
Mof_H 	H 	0.3115	0.7148	0.0249	-0
Mof_H 	H 	0.2082	0.1587	0.4432	0.156
Mof_H 	H 	0.3183	0.8328	0.2553	0.156
Mof_H 	H 	0.4209	0.7065	0.2232	-0.008
Mof_H 	H 	0.5791	0.2935	0.7768	-0.008
Mof_H 	H 	0.7382	0.2893	0.3912	0.154
Mof_H 	H 	0.9986	0.2363	0.6949	0.155
Mof_H 	H 	0.3183	0.1672	0.2447	0.156
Mof_H 	H 	0.6852	0.3821	0.3073	-0.005
Mof_H 	H 	0.85	0.067	0.633	0.225
Mof_H 	H 	0.1194	0.821	0.5002	0.172
Mof_H 	H 	0.732	0.7201	0.9804	-0.016
Mof_H 	H 	0.1902	0.9804	0.9115	0.226
Mof_H 	H 	0.7918	0.1587	0.9432	0.156
Mof_H 	H 	0.6852	0.6179	0.1927	-0.005
Mof_H 	H 	0.8806	0.821	0.0002	0.167
Mof_H 	H 	0.8044	0.1018	0.2388	0.149
Mof_H 	H 	0.8044	0.8982	0.2612	0.148
Mof_H 	H 	0.4209	0.2935	0.2768	-0.008
Mof_H 	H 	0.9986	0.7637	0.8051	0.154
Mof_H 	H 	0.732	0.2799	0.5196	-0.018
Mof_H 	H 	0.8806	0.179	0.4998	0.172
Mof_H 	H 	0.9919	0.1634	0.8299	0.213
Mof_H 	H 	0.8098	0.0196	0.0885	0.226
Mof_H 	H 	0.6885	0.2852	0.9751	-0
Mof_H 	H 	0.156	0.336	0.214	-0.015
Mof_H 	H 	0.2618	0.2893	0.8912	0.154
Mof_H 	H 	0.268	0.2799	0.0196	-0.016
Mof_H 	H 	0.2082	0.8413	0.0568	0.156
Mof_H 	H 	0.8098	0.9804	0.4115	0.228
Mof_H 	H 	0.1956	0.1018	0.7388	0.148
Mof_H 	H 	0.85	0.933	0.867	0.222
Mof_H 	H 	0.257	0.806	0.844	-0.006
Mof_H 	H 	0.844	0.664	0.786	-0.015
Mof_C 	C 	0.0853	0.0305	0.1322	-0.489
Mof_C 	C 	0.3755	0.69731	0.12108	-0.202
Mof_C 	C 	0.6658	0.64462	0.3299	0.346
Mof_C 	C 	0.0559	0.2446	0.16	-0.319
Mof_C 	C 	0.0945	0.052	0.34524	0.458
Mof_C 	C 	0.2545	0.7865	0.79734	0.171
Mof_C 	C 	0.1055	0.0792	0.87024	0.438
Mof_C 	C 	0.8738	0.2104	0.5431	-0.333
Mof_C 	C 	0.8546	0.6958	0.82822	0.184
Mof_C 	C 	0.7791	0.8422	0.24753	-0.307
Mof_C 	C 	0.9055	0.052	0.84524	0.452
Mof_C 	C 	0.5599	0.38566	0.89814	0.368
Mof_C 	C 	0.7455	0.2135	0.20266	0.171
Mof_C 	C 	0.3755	0.30269	0.37892	-0.202
Mof_C 	C 	0.4401	0.61434	0.10186	0.368
Mof_C 	C 	0.022	0.9437	0.89238	0.444
Mof_C 	C 	0.6221	0.2667	0.81025	0.177
Mof_C 	C 	0.978	0.9437	0.39238	0.45
Mof_C 	C 	0.0006	0.8918	0.15442	-0.495
Mof_C 	C 	0.0486	0.8023	0.4042	0.346
Mof_C 	C 	0.7398	0.2702	0.34381	-0.3
Mof_C 	C 	0.8945	0.9208	0.12976	0.438
Mof_C 	C 	0.9441	0.2446	0.66	-0.323
Mof_C 	C 	0.3779	0.7333	0.18975	0.177
Mof_C 	C 	0.3342	0.35538	0.6701	0.346
Mof_C 	C 	0.2535	0.1519	0.34081	0.329
Mof_C 	C 	0.7745	0.31776	0.61949	-0.212
Mof_C 	C 	0.7742	0.1868	0.32297	0.326
Mof_C 	C 	0.4401	0.38566	0.39814	0.368
Mof_C 	C 	0.0853	0.9695	0.3678	-0.497
Mof_C 	C 	0.9441	0.7554	0.84	-0.319
Mof_C 	C 	0.7791	0.1578	0.25247	-0.308
Mof_C 	C 	0.785	0.2708	0.5552	0.194
Mof_C 	C 	0.2602	0.7298	0.65619	-0.3
Mof_C 	C 	0.3251	0.61969	0.36636	0.367
Mof_C 	C 	0.7455	0.7865	0.29734	0.17
Mof_C 	C 	0.2924	0.6746	0.7065	0.17
Mof_C 	C 	0.6749	0.38031	0.63364	0.367
Mof_C 	C 	0.1454	0.6958	0.32822	0.187
Mof_C 	C 	0.7493	0.8139	0.59011	-0.307
Mof_C 	C 	0.7742	0.8132	0.17703	0.325
Mof_C 	C 	0.6245	0.30269	0.87892	-0.202
Mof_C 	C 	0.3167	0.1912	0.2909	-0.298
Mof_C 	C 	0.3779	0.2667	0.31025	0.177
Mof_C 	C 	0.6221	0.7333	0.68975	0.177
Mof_C 	C 	0.1187	0.9981	0.89438	-0.483
Mof_C 	C 	0.785	0.7292	0.9448	0.189
Mof_C 	C 	0.3167	0.8088	0.2091	-0.297
Mof_C 	C 	0.7398	0.7298	0.15619	-0.299
Mof_C 	C 	0.978	0.0563	0.10762	0.444
Mof_C 	C 	0.7084	0.29705	0.22303	-0.198
Mof_C 	C 	0.7465	0.1519	0.84081	0.328
Mof_C 	C 	0.2258	0.8132	0.67703	0.326
Mof_C 	C 	0.2258	0.1868	0.82297	0.325
Mof_C 	C 	0.2535	0.8481	0.15919	0.328
Mof_C 	C 	0.2507	0.8139	0.09011	-0.306
Mof_C 	C 	0.1262	0.7896	0.4569	-0.333
Mof_C 	C 	0.022	0.0563	0.60762	0.45
Mof_C 	C 	0.6749	0.61969	0.86636	0.366
Mof_C 	C 	0.0559	0.7554	0.34	-0.323
Mof_C 	C 	0.6876	0.2618	0.92876	0.175
Mof_C 	C 	0.1187	0.0019	0.60562	-0.49
Mof_C 	C 	0.8546	0.3042	0.67178	0.187
Mof_C 	C 	0.2209	0.8422	0.74753	-0.308
Mof_C 	C 	0.2916	0.70295	0.77697	-0.198
Mof_C 	C 	0.6876	0.7382	0.57124	0.175
Mof_C 	C 	0.2545	0.2135	0.70266	0.17
Mof_C 	C 	0.0945	0.948	0.15476	0.452
Mof_C 	C 	0.6833	0.1912	0.7909	-0.297
Mof_C 	C 	0.1055	0.9208	0.62976	0.445
Mof_C 	C 	0.2602	0.2702	0.84381	-0.299
Mof_C 	C 	0.6245	0.69731	0.62108	-0.202
Mof_C 	C 	0.9994	0.1082	0.84558	-0.495
Mof_C 	C 	0.7745	0.68224	0.88051	-0.209
Mof_C 	C 	0.2924	0.3254	0.7935	0.17
Mof_C 	C 	0.5599	0.61434	0.60186	0.368
Mof_C 	C 	0.7493	0.1861	0.90989	-0.306
Mof_C 	C 	0.3251	0.38031	0.13364	0.366
Mof_C 	C 	0.8945	0.0792	0.37024	0.445
Mof_C 	C 	0.2209	0.1578	0.75247	-0.307
Mof_C 	C 	0.9994	0.8918	0.65442	-0.501
Mof_C 	C 	0.2255	0.31776	0.11949	-0.209
Mof_C 	C 	0.1454	0.3042	0.17178	0.184
Mof_C 	C 	0.8813	0.0019	0.10562	-0.483
Mof_C 	C 	0.3124	0.7382	0.07124	0.175
Mof_C 	C 	0.2916	0.29705	0.72303	-0.197
Mof_C 	C 	0.8738	0.7896	0.9569	-0.324
Mof_C 	C 	0.2255	0.68224	0.38051	-0.212
Mof_C 	C 	0.9147	0.0305	0.6322	-0.497
Mof_C 	C 	0.8813	0.9981	0.39438	-0.49
Mof_C 	C 	0.9514	0.1977	0.5958	0.346
Mof_C 	C 	0.9147	0.9695	0.8678	-0.489
Mof_C 	C 	0.9055	0.948	0.65476	0.458
Mof_C 	C 	0.7076	0.3254	0.2935	0.17
Mof_C 	C 	0.7076	0.6746	0.2065	0.17
Mof_C 	C 	0.7084	0.70295	0.27697	-0.197
Mof_C 	C 	0.6833	0.8088	0.7091	-0.298
Mof_C 	C 	0.0486	0.1977	0.0958	0.343
Mof_C 	C 	0.2507	0.1861	0.40989	-0.307
Mof_C 	C 	0.3342	0.64462	0.8299	0.346
Mof_C 	C 	0.7465	0.8481	0.65919	0.329
Mof_C 	C 	0.215	0.2708	0.0552	0.189
Mof_C 	C 	0.3124	0.2618	0.42876	0.175
Mof_C 	C 	0.9514	0.8023	0.9042	0.343
Mof_C 	C 	0.215	0.7292	0.4448	0.194
Mof_C 	C 	0.6658	0.35538	0.1701	0.346
Mof_C 	C 	0.1262	0.2104	0.0431	-0.324
Mof_C 	C 	0.0006	0.1082	0.34558	-0.501
Mof_O 	O 	0.0406	0.86289	0.91646	-0.352
Mof_O 	O 	0.3864	0.39701	0.08157	-0.285
Mof_O 	O 	0.3253	0.33432	0.60578	-0.279
Mof_O 	O 	0.5154	0.42575	0.84978	-0.312
Mof_O 	O 	0.4517	0.58627	0.03904	-0.306
Mof_O 	O 	0.6747	0.33432	0.10578	-0.279
Mof_O 	O 	0.9594	0.86289	0.41646	-0.354
Mof_O 	O 	0.3253	0.66568	0.89422	-0.279
Mof_O 	O 	0.3807	0.42756	0.69165	-0.303
Mof_O 	O 	0.4517	0.41373	0.46096	-0.306
Mof_O 	O 	0.5154	0.57425	0.65022	-0.312
Mof_O 	O 	0.2026	0.13306	0.87601	-0.352
Mof_O 	O 	0.7986	0.92605	0.68264	-0.342
Mof_O 	O 	0.6606	0.41077	0.69562	-0.296
Mof_O 	O 	0.3394	0.41077	0.19562	-0.296
Mof_O 	O 	0.6136	0.60299	0.91843	-0.285
Mof_O 	O 	0.5483	0.58627	0.53904	-0.306
Mof_O 	O 	0.6193	0.57244	0.30835	-0.303
Mof_O 	O 	0.6606	0.58923	0.80438	-0.296
Mof_O 	O 	0.4846	0.57425	0.15022	-0.312
Mof_O 	O 	0.5483	0.41373	0.96096	-0.306
Mof_O 	O 	0.2014	0.07395	0.31736	-0.342
Mof_O 	O 	0.7974	0.86694	0.12399	-0.352
Mof_O 	O 	0.2014	0.92605	0.18264	-0.342
Mof_O 	O 	0.7986	0.07395	0.81736	-0.342
Mof_O 	O 	0.3394	0.58923	0.30438	-0.296
Mof_O 	O 	0.0406	0.13711	0.58354	-0.354
Mof_O 	O 	0.3864	0.60299	0.41843	-0.286
Mof_O 	O 	0.3807	0.57244	0.80835	-0.303
Mof_O 	O 	0.2026	0.86694	0.62399	-0.353
Mof_O 	O 	0.6193	0.42756	0.19165	-0.303
Mof_O 	O 	0.6747	0.66568	0.39422	-0.279
Mof_O 	O 	0.6136	0.39701	0.58157	-0.286
Mof_O 	O 	0.9594	0.13711	0.08354	-0.352
Mof_O 	O 	0.4846	0.42575	0.34978	-0.312
Mof_O 	O 	0.7974	0.13306	0.37601	-0.353
_end
