data_functionalizedCrystal
_audit_creation_method	'EQeq! by Chris Wilmer'
_symmetry_space_group_name_H-M	'P1'
_symmetry_Int_Tables_number	1
_symmetry_cell_setting	triclinic
loop_
_symmetry_equiv_pos_as_xyz
  x,y,z
_cell_length_a	15.585
_cell_length_b	19.237
_cell_length_c	25.305
_cell_angle_alpha	90
_cell_angle_beta	90
_cell_angle_gamma	90
loop_
_atom_site_label
_atom_site_type_symbol
_atom_site_fract_x
_atom_site_fract_y
_atom_site_fract_z
_atom_site_charge
Mof_Zn	Zn	0.55378	0.33754	0.22887	1.187
Mof_Zn	Zn	0.52841	0.46438	0.45049	1.216
Mof_Zn	Zn	0.94622	0.66246	0.72887	1.187
Mof_Zn	Zn	0.97159	0.53562	0.95049	1.216
Mof_Zn	Zn	0.44622	0.83754	0.77113	1.188
Mof_Zn	Zn	0.47159	0.96438	0.54951	1.217
Mof_Zn	Zn	0.05378	0.16246	0.27113	1.187
Mof_Zn	Zn	0.02841	0.03562	0.04951	1.215
Mof_Zn	Zn	0.44622	0.66246	0.77113	1.188
Mof_Zn	Zn	0.47159	0.53562	0.54951	1.217
Mof_Zn	Zn	0.05378	0.33754	0.27113	1.187
Mof_Zn	Zn	0.02841	0.46438	0.04951	1.216
Mof_Zn	Zn	0.55378	0.16246	0.22887	1.188
Mof_Zn	Zn	0.52841	0.03562	0.45049	1.217
Mof_Zn	Zn	0.94622	0.83754	0.72887	1.187
Mof_Zn	Zn	0.97159	0.96438	0.95049	1.215
Mof_Zn	Zn	0.68421	0.25	0.30386	1.172
Mof_Zn	Zn	0.81579	0.75	0.80386	1.172
Mof_Zn	Zn	0.31579	0.75	0.69614	1.172
Mof_Zn	Zn	0.18421	0.25	0.19614	1.172
Mof_H 	H 	0.517	0.5491	0.0056	0.231
Mof_H 	H 	0.653	0.3155	0.4507	0.281
Mof_H 	H 	0.7316	0.3164	0.412	0.244
Mof_H 	H 	0.7065	0.3838	0.4432	0.29
Mof_H 	H 	0.4136	0.4469	0.3204	0.288
Mof_H 	H 	0.4718	0.5088	0.3387	0.301
Mof_H 	H 	0.4794	0.48	0.2809	0.274
Mof_H 	H 	0.4663	0.3557	0.6471	0.094
Mof_H 	H 	0.7131	0.5587	0.9987	0.089
Mof_H 	H 	0.5315	0.5064	0.1041	0.1
Mof_H 	H 	0.7702	0.4322	0.117	0.049
Mof_H 	H 	0.8033	0.3867	0.3245	0.26
Mof_H 	H 	0.8831	0.4083	0.2905	0.261
Mof_H 	H 	0.7963	0.3895	0.2627	0.267
Mof_H 	H 	0.983	0.4509	0.5056	0.231
Mof_H 	H 	0.847	0.6845	0.9507	0.28
Mof_H 	H 	0.7684	0.6836	0.912	0.244
Mof_H 	H 	0.7935	0.6162	0.9432	0.29
Mof_H 	H 	0.0864	0.5531	0.8204	0.287
Mof_H 	H 	0.0282	0.4912	0.8387	0.3
Mof_H 	H 	0.0206	0.52	0.7809	0.273
Mof_H 	H 	0.0337	0.6443	0.1471	0.094
Mof_H 	H 	0.7869	0.4413	0.4987	0.091
Mof_H 	H 	0.9685	0.4936	0.6041	0.1
Mof_H 	H 	0.7298	0.5678	0.617	0.049
Mof_H 	H 	0.6967	0.6133	0.8245	0.26
Mof_H 	H 	0.6169	0.5917	0.7905	0.261
Mof_H 	H 	0.7037	0.6105	0.7627	0.267
Mof_H 	H 	0.483	0.0491	0.9944	0.231
Mof_H 	H 	0.347	0.8155	0.5493	0.281
Mof_H 	H 	0.2684	0.8164	0.588	0.245
Mof_H 	H 	0.2935	0.8838	0.5568	0.29
Mof_H 	H 	0.5864	0.9469	0.6796	0.288
Mof_H 	H 	0.5282	0.0088	0.6613	0.302
Mof_H 	H 	0.5206	0.98	0.7191	0.274
Mof_H 	H 	0.5337	0.8557	0.3529	0.094
Mof_H 	H 	0.2869	0.0587	0.0013	0.09
Mof_H 	H 	0.4685	0.0064	0.8959	0.102
Mof_H 	H 	0.2298	0.9322	0.883	0.05
Mof_H 	H 	0.1967	0.8867	0.6755	0.261
Mof_H 	H 	0.1169	0.9083	0.7095	0.263
Mof_H 	H 	0.2037	0.8895	0.7373	0.268
Mof_H 	H 	0.017	0.9509	0.4944	0.231
Mof_H 	H 	0.153	0.1845	0.0493	0.28
Mof_H 	H 	0.2316	0.1836	0.088	0.244
Mof_H 	H 	0.2065	0.1162	0.0568	0.289
Mof_H 	H 	0.9136	0.0531	0.1796	0.278
Mof_H 	H 	0.9718	0.9912	0.1613	0.288
Mof_H 	H 	0.9794	0.02	0.2191	0.265
Mof_H 	H 	0.9663	0.1443	0.8529	0.095
Mof_H 	H 	0.2131	0.9413	0.5013	0.088
Mof_H 	H 	0.0315	0.9936	0.3959	0.098
Mof_H 	H 	0.2702	0.0678	0.383	0.046
Mof_H 	H 	0.3033	0.1133	0.1755	0.26
Mof_H 	H 	0.3831	0.0917	0.2095	0.26
Mof_H 	H 	0.2963	0.1105	0.2373	0.267
Mof_H 	H 	0.483	0.4509	0.9944	0.231
Mof_H 	H 	0.347	0.6845	0.5493	0.281
Mof_H 	H 	0.2684	0.6836	0.588	0.244
Mof_H 	H 	0.2935	0.6162	0.5568	0.29
Mof_H 	H 	0.5864	0.5531	0.6796	0.288
Mof_H 	H 	0.5282	0.4912	0.6613	0.301
Mof_H 	H 	0.5206	0.52	0.7191	0.274
Mof_H 	H 	0.5337	0.6443	0.3529	0.094
Mof_H 	H 	0.2869	0.4413	0.0013	0.089
Mof_H 	H 	0.4685	0.4936	0.8959	0.1
Mof_H 	H 	0.2298	0.5678	0.883	0.049
Mof_H 	H 	0.1967	0.6133	0.6755	0.26
Mof_H 	H 	0.1169	0.5917	0.7095	0.261
Mof_H 	H 	0.2037	0.6105	0.7373	0.267
Mof_H 	H 	0.017	0.5491	0.4944	0.231
Mof_H 	H 	0.153	0.3155	0.0493	0.28
Mof_H 	H 	0.2316	0.3164	0.088	0.244
Mof_H 	H 	0.2065	0.3838	0.0568	0.29
Mof_H 	H 	0.9136	0.4469	0.1796	0.287
Mof_H 	H 	0.9718	0.5088	0.1613	0.3
Mof_H 	H 	0.9794	0.48	0.2191	0.273
Mof_H 	H 	0.9663	0.3557	0.8529	0.094
Mof_H 	H 	0.2131	0.5587	0.5013	0.091
Mof_H 	H 	0.0315	0.5064	0.3959	0.1
Mof_H 	H 	0.2702	0.4322	0.383	0.049
Mof_H 	H 	0.3033	0.3867	0.1755	0.26
Mof_H 	H 	0.3831	0.4083	0.2095	0.261
Mof_H 	H 	0.2963	0.3895	0.2373	0.267
Mof_H 	H 	0.517	0.9509	0.0056	0.231
Mof_H 	H 	0.653	0.1845	0.4507	0.281
Mof_H 	H 	0.7316	0.1836	0.412	0.245
Mof_H 	H 	0.7065	0.1162	0.4432	0.29
Mof_H 	H 	0.4136	0.0531	0.3204	0.288
Mof_H 	H 	0.4718	0.9912	0.3387	0.302
Mof_H 	H 	0.4794	0.02	0.2809	0.274
Mof_H 	H 	0.4663	0.1443	0.6471	0.094
Mof_H 	H 	0.7131	0.9413	0.9987	0.09
Mof_H 	H 	0.5315	0.9936	0.1041	0.102
Mof_H 	H 	0.7702	0.0678	0.117	0.05
Mof_H 	H 	0.8033	0.1133	0.3245	0.261
Mof_H 	H 	0.8831	0.0917	0.2905	0.263
Mof_H 	H 	0.7963	0.1105	0.2627	0.268
Mof_H 	H 	0.983	0.0491	0.5056	0.231
Mof_H 	H 	0.847	0.8155	0.9507	0.28
Mof_H 	H 	0.7684	0.8164	0.912	0.244
Mof_H 	H 	0.7935	0.8838	0.9432	0.289
Mof_H 	H 	0.0864	0.9469	0.8204	0.278
Mof_H 	H 	0.0282	0.0088	0.8387	0.288
Mof_H 	H 	0.0206	0.98	0.7809	0.265
Mof_H 	H 	0.0337	0.8557	0.1471	0.095
Mof_H 	H 	0.7869	0.0587	0.4987	0.088
Mof_H 	H 	0.9685	0.0064	0.6041	0.098
Mof_H 	H 	0.7298	0.9322	0.617	0.046
Mof_H 	H 	0.6967	0.8867	0.8245	0.26
Mof_H 	H 	0.6169	0.9083	0.7905	0.26
Mof_H 	H 	0.7037	0.8895	0.7627	0.267
Mof_H 	H 	0.6659	0.25	0.2099	0.225
Mof_H 	H 	0.4852	0.25	0.7385	0.205
Mof_H 	H 	0.5083	0.25	0.5124	0.044
Mof_H 	H 	0.8341	0.75	0.7099	0.225
Mof_H 	H 	0.0148	0.75	0.2385	0.205
Mof_H 	H 	0.9917	0.75	0.0124	0.043
Mof_H 	H 	0.3341	0.75	0.7901	0.225
Mof_H 	H 	0.5148	0.75	0.2615	0.205
Mof_H 	H 	0.4917	0.75	0.4876	0.044
Mof_H 	H 	0.1659	0.25	0.2901	0.225
Mof_H 	H 	0.9852	0.25	0.7615	0.205
Mof_H 	H 	0.0083	0.25	0.9876	0.043
Mof_C 	C 	0.6846	0.3431	0.4258	-0.891
Mof_C 	C 	0.6273	0.3643	0.3819	0.309
Mof_C 	C 	0.5356	0.4178	0.3349	0.329
Mof_C 	C 	0.4693	0.4678	0.3172	-0.922
Mof_C 	C 	0.4929	0.3802	0.5466	0.373
Mof_C 	C 	0.4888	0.3132	0.5745	-0.053
Mof_C 	C 	0.4745	0.3139	0.6294	-0.143
Mof_C 	C 	0.8447	0.4892	0.0335	0.381
Mof_C 	C 	0.7549	0.4954	0.0538	-0.035
Mof_C 	C 	0.697	0.5334	0.0285	-0.155
Mof_C 	C 	0.6147	0.536	0.0454	0.23
Mof_C 	C 	0.5871	0.5017	0.0913	-0.161
Mof_C 	C 	0.6472	0.4609	0.1162	-0.03
Mof_C 	C 	0.7299	0.4586	0.0987	-0.032
Mof_C 	C 	0.6206	0.4185	0.1636	0.336
Mof_C 	C 	0.8334	0.3789	0.2919	-0.88
Mof_C 	C 	0.8604	0.305	0.2888	0.294
Mof_C 	C 	0.8154	0.6569	0.9258	-0.89
Mof_C 	C 	0.8727	0.6357	0.8819	0.309
Mof_C 	C 	0.9644	0.5822	0.8349	0.327
Mof_C 	C 	0.0307	0.5322	0.8172	-0.916
Mof_C 	C 	0.0071	0.6198	0.0466	0.375
Mof_C 	C 	0.0112	0.6868	0.0745	-0.054
Mof_C 	C 	0.0255	0.6861	0.1294	-0.142
Mof_C 	C 	0.6553	0.5108	0.5335	0.379
Mof_C 	C 	0.7451	0.5046	0.5538	-0.034
Mof_C 	C 	0.803	0.4666	0.5285	-0.159
Mof_C 	C 	0.8853	0.464	0.5454	0.232
Mof_C 	C 	0.9129	0.4983	0.5913	-0.162
Mof_C 	C 	0.8528	0.5391	0.6162	-0.029
Mof_C 	C 	0.7701	0.5414	0.5987	-0.034
Mof_C 	C 	0.8794	0.5815	0.6636	0.335
Mof_C 	C 	0.6666	0.6211	0.7919	-0.879
Mof_C 	C 	0.6396	0.695	0.7888	0.293
Mof_C 	C 	0.3154	0.8431	0.5742	-0.892
Mof_C 	C 	0.3727	0.8643	0.6181	0.309
Mof_C 	C 	0.4644	0.9178	0.6651	0.33
Mof_C 	C 	0.5307	0.9678	0.6828	-0.923
Mof_C 	C 	0.5071	0.8802	0.4534	0.373
Mof_C 	C 	0.5112	0.8132	0.4255	-0.053
Mof_C 	C 	0.5255	0.8139	0.3706	-0.143
Mof_C 	C 	0.1553	0.9892	0.9665	0.383
Mof_C 	C 	0.2451	0.9954	0.9462	-0.031
Mof_C 	C 	0.303	0.0334	0.9715	-0.161
Mof_C 	C 	0.3853	0.036	0.9546	0.233
Mof_C 	C 	0.4129	0.0017	0.9087	-0.165
Mof_C 	C 	0.3528	0.9609	0.8838	-0.027
Mof_C 	C 	0.2701	0.9586	0.9013	-0.035
Mof_C 	C 	0.3794	0.9185	0.8364	0.335
Mof_C 	C 	0.1666	0.8789	0.7081	-0.882
Mof_C 	C 	0.1396	0.805	0.7112	0.295
Mof_C 	C 	0.1846	0.1569	0.0742	-0.89
Mof_C 	C 	0.1273	0.1357	0.1181	0.309
Mof_C 	C 	0.0356	0.0822	0.1651	0.316
Mof_C 	C 	0.9693	0.0322	0.1828	-0.885
Mof_C 	C 	0.9929	0.1198	0.9534	0.377
Mof_C 	C 	0.9888	0.1868	0.9255	-0.054
Mof_C 	C 	0.9745	0.1861	0.8706	-0.142
Mof_C 	C 	0.3447	0.0108	0.4665	0.38
Mof_C 	C 	0.2549	0.0046	0.4462	-0.042
Mof_C 	C 	0.197	0.9666	0.4715	-0.149
Mof_C 	C 	0.1147	0.964	0.4546	0.226
Mof_C 	C 	0.0871	0.9983	0.4087	-0.152
Mof_C 	C 	0.1472	0.0391	0.3838	-0.039
Mof_C 	C 	0.2299	0.0414	0.4013	-0.027
Mof_C 	C 	0.1206	0.0815	0.3364	0.338
Mof_C 	C 	0.3334	0.1211	0.2081	-0.879
Mof_C 	C 	0.3604	0.195	0.2112	0.293
Mof_C 	C 	0.3154	0.6569	0.5742	-0.891
Mof_C 	C 	0.3727	0.6357	0.6181	0.309
Mof_C 	C 	0.4644	0.5822	0.6651	0.329
Mof_C 	C 	0.5307	0.5322	0.6828	-0.922
Mof_C 	C 	0.5071	0.6198	0.4534	0.373
Mof_C 	C 	0.5112	0.6868	0.4255	-0.053
Mof_C 	C 	0.5255	0.6861	0.3706	-0.143
Mof_C 	C 	0.1553	0.5108	0.9665	0.381
Mof_C 	C 	0.2451	0.5046	0.9462	-0.035
Mof_C 	C 	0.303	0.4666	0.9715	-0.155
Mof_C 	C 	0.3853	0.464	0.9546	0.23
Mof_C 	C 	0.4129	0.4983	0.9087	-0.161
Mof_C 	C 	0.3528	0.5391	0.8838	-0.03
Mof_C 	C 	0.2701	0.5414	0.9013	-0.032
Mof_C 	C 	0.3794	0.5815	0.8364	0.336
Mof_C 	C 	0.1666	0.6211	0.7081	-0.88
Mof_C 	C 	0.1396	0.695	0.7112	0.294
Mof_C 	C 	0.1846	0.3431	0.0742	-0.89
Mof_C 	C 	0.1273	0.3643	0.1181	0.309
Mof_C 	C 	0.0356	0.4178	0.1651	0.327
Mof_C 	C 	0.9693	0.4678	0.1828	-0.916
Mof_C 	C 	0.9929	0.3802	0.9534	0.375
Mof_C 	C 	0.9888	0.3132	0.9255	-0.054
Mof_C 	C 	0.9745	0.3139	0.8706	-0.142
Mof_C 	C 	0.3447	0.4892	0.4665	0.379
Mof_C 	C 	0.2549	0.4954	0.4462	-0.034
Mof_C 	C 	0.197	0.5334	0.4715	-0.159
Mof_C 	C 	0.1147	0.536	0.4546	0.232
Mof_C 	C 	0.0871	0.5017	0.4087	-0.162
Mof_C 	C 	0.1472	0.4609	0.3838	-0.029
Mof_C 	C 	0.2299	0.4586	0.4013	-0.034
Mof_C 	C 	0.1206	0.4185	0.3364	0.335
Mof_C 	C 	0.3334	0.3789	0.2081	-0.879
Mof_C 	C 	0.3604	0.305	0.2112	0.293
Mof_C 	C 	0.6846	0.1569	0.4258	-0.892
Mof_C 	C 	0.6273	0.1357	0.3819	0.309
Mof_C 	C 	0.5356	0.0822	0.3349	0.33
Mof_C 	C 	0.4693	0.0322	0.3172	-0.923
Mof_C 	C 	0.4929	0.1198	0.5466	0.373
Mof_C 	C 	0.4888	0.1868	0.5745	-0.053
Mof_C 	C 	0.4745	0.1861	0.6294	-0.143
Mof_C 	C 	0.8447	0.0108	0.0335	0.383
Mof_C 	C 	0.7549	0.0046	0.0538	-0.031
Mof_C 	C 	0.697	0.9666	0.0285	-0.161
Mof_C 	C 	0.6147	0.964	0.0454	0.233
Mof_C 	C 	0.5871	0.9983	0.0913	-0.165
Mof_C 	C 	0.6472	0.0391	0.1162	-0.027
Mof_C 	C 	0.7299	0.0414	0.0987	-0.035
Mof_C 	C 	0.6206	0.0815	0.1636	0.335
Mof_C 	C 	0.8334	0.1211	0.2919	-0.882
Mof_C 	C 	0.8604	0.195	0.2888	0.295
Mof_C 	C 	0.8154	0.8431	0.9258	-0.89
Mof_C 	C 	0.8727	0.8643	0.8819	0.309
Mof_C 	C 	0.9644	0.9178	0.8349	0.316
Mof_C 	C 	0.0307	0.9678	0.8172	-0.885
Mof_C 	C 	0.0071	0.8802	0.0466	0.377
Mof_C 	C 	0.0112	0.8132	0.0745	-0.054
Mof_C 	C 	0.0255	0.8139	0.1294	-0.142
Mof_C 	C 	0.6553	0.9892	0.5335	0.38
Mof_C 	C 	0.7451	0.9954	0.5538	-0.042
Mof_C 	C 	0.803	0.0334	0.5285	-0.149
Mof_C 	C 	0.8853	0.036	0.5454	0.226
Mof_C 	C 	0.9129	0.0017	0.5913	-0.152
Mof_C 	C 	0.8528	0.9609	0.6162	-0.039
Mof_C 	C 	0.7701	0.9586	0.5987	-0.027
Mof_C 	C 	0.8794	0.9185	0.6636	0.338
Mof_C 	C 	0.6666	0.8789	0.7919	-0.879
Mof_C 	C 	0.6396	0.805	0.7888	0.293
Mof_C 	C 	0.497	0.25	0.5485	-0.008
Mof_C 	C 	0.473	0.25	0.6574	0.243
Mof_C 	C 	0.003	0.75	0.0485	-0.007
Mof_C 	C 	0.027	0.75	0.1574	0.243
Mof_C 	C 	0.503	0.75	0.4515	-0.008
Mof_C 	C 	0.527	0.75	0.3426	0.243
Mof_C 	C 	0.997	0.25	0.9515	-0.007
Mof_C 	C 	0.973	0.25	0.8426	0.243
Mof_N 	N 	0.6287	0.3346	0.3343	-0.316
Mof_N 	N 	0.5701	0.3695	0.3043	-0.309
Mof_N 	N 	0.5691	0.4154	0.3839	-0.348
Mof_N 	N 	0.9409	0.2852	0.2788	-0.297
Mof_N 	N 	0.8713	0.6654	0.8343	-0.316
Mof_N 	N 	0.9299	0.6305	0.8043	-0.309
Mof_N 	N 	0.9309	0.5846	0.8839	-0.347
Mof_N 	N 	0.5591	0.7148	0.7788	-0.298
Mof_N 	N 	0.3713	0.8346	0.6657	-0.316
Mof_N 	N 	0.4299	0.8695	0.6957	-0.309
Mof_N 	N 	0.4309	0.9154	0.6161	-0.348
Mof_N 	N 	0.0591	0.7852	0.7212	-0.297
Mof_N 	N 	0.1287	0.1654	0.1657	-0.316
Mof_N 	N 	0.0701	0.1305	0.1957	-0.307
Mof_N 	N 	0.0691	0.0846	0.1161	-0.346
Mof_N 	N 	0.4409	0.2148	0.2212	-0.298
Mof_N 	N 	0.3713	0.6654	0.6657	-0.316
Mof_N 	N 	0.4299	0.6305	0.6957	-0.309
Mof_N 	N 	0.4309	0.5846	0.6161	-0.348
Mof_N 	N 	0.0591	0.7148	0.7212	-0.297
Mof_N 	N 	0.1287	0.3346	0.1657	-0.316
Mof_N 	N 	0.0701	0.3695	0.1957	-0.309
Mof_N 	N 	0.0691	0.4154	0.1161	-0.347
Mof_N 	N 	0.4409	0.2852	0.2212	-0.298
Mof_N 	N 	0.6287	0.1654	0.3343	-0.316
Mof_N 	N 	0.5701	0.1305	0.3043	-0.309
Mof_N 	N 	0.5691	0.0846	0.3839	-0.348
Mof_N 	N 	0.9409	0.2148	0.2788	-0.297
Mof_N 	N 	0.8713	0.8346	0.8343	-0.316
Mof_N 	N 	0.9299	0.8695	0.8043	-0.307
Mof_N 	N 	0.9309	0.9154	0.8839	-0.346
Mof_N 	N 	0.5591	0.7852	0.7788	-0.298
Mof_N 	N 	0.809	0.25	0.2961	-0.397
Mof_N 	N 	0.691	0.75	0.7961	-0.396
Mof_N 	N 	0.191	0.75	0.7039	-0.397
Mof_N 	N 	0.309	0.25	0.2039	-0.396
Mof_O 	O 	0.5155	0.3789	0.4983	-0.459
Mof_O 	O 	0.4758	0.434	0.5719	-0.476
Mof_O 	O 	0.8994	0.4617	0.0621	-0.471
Mof_O 	O 	0.8595	0.5174	0.9896	-0.479
Mof_O 	O 	0.6749	0.3947	0.1929	-0.426
Mof_O 	O 	0.5435	0.4106	0.1729	-0.485
Mof_O 	O 	0.5529	0.5752	0.0185	-0.415
Mof_O 	O 	0.9845	0.6211	0.9983	-0.461
Mof_O 	O 	0.0242	0.566	0.0719	-0.477
Mof_O 	O 	0.6006	0.5383	0.5621	-0.472
Mof_O 	O 	0.6405	0.4826	0.4896	-0.478
Mof_O 	O 	0.8251	0.6053	0.6929	-0.426
Mof_O 	O 	0.9565	0.5894	0.6729	-0.485
Mof_O 	O 	0.9471	0.4248	0.5185	-0.415
Mof_O 	O 	0.4845	0.8789	0.5017	-0.459
Mof_O 	O 	0.5242	0.934	0.4281	-0.476
Mof_O 	O 	0.1006	0.9617	0.9379	-0.47
Mof_O 	O 	0.1405	0.0174	0.0104	-0.482
Mof_O 	O 	0.3251	0.8947	0.8071	-0.425
Mof_O 	O 	0.4565	0.9106	0.8271	-0.484
Mof_O 	O 	0.4471	0.0752	0.9815	-0.416
Mof_O 	O 	0.0155	0.1211	0.0017	-0.463
Mof_O 	O 	0.9758	0.066	0.9281	-0.475
Mof_O 	O 	0.3994	0.0383	0.4379	-0.472
Mof_O 	O 	0.3595	0.9826	0.5104	-0.477
Mof_O 	O 	0.1749	0.1053	0.3071	-0.427
Mof_O 	O 	0.0435	0.0894	0.3271	-0.487
Mof_O 	O 	0.0529	0.9248	0.4815	-0.413
Mof_O 	O 	0.4845	0.6211	0.5017	-0.459
Mof_O 	O 	0.5242	0.566	0.4281	-0.476
Mof_O 	O 	0.1006	0.5383	0.9379	-0.471
Mof_O 	O 	0.1405	0.4826	0.0104	-0.479
Mof_O 	O 	0.3251	0.6053	0.8071	-0.426
Mof_O 	O 	0.4565	0.5894	0.8271	-0.485
Mof_O 	O 	0.4471	0.4248	0.9815	-0.415
Mof_O 	O 	0.0155	0.3789	0.0017	-0.461
Mof_O 	O 	0.9758	0.434	0.9281	-0.477
Mof_O 	O 	0.3994	0.4617	0.4379	-0.472
Mof_O 	O 	0.3595	0.5174	0.5104	-0.478
Mof_O 	O 	0.1749	0.3947	0.3071	-0.426
Mof_O 	O 	0.0435	0.4106	0.3271	-0.485
Mof_O 	O 	0.0529	0.5752	0.4815	-0.415
Mof_O 	O 	0.5155	0.1211	0.4983	-0.459
Mof_O 	O 	0.4758	0.066	0.5719	-0.476
Mof_O 	O 	0.8994	0.0383	0.0621	-0.47
Mof_O 	O 	0.8595	0.9826	0.9896	-0.482
Mof_O 	O 	0.6749	0.1053	0.1929	-0.425
Mof_O 	O 	0.5435	0.0894	0.1729	-0.484
Mof_O 	O 	0.5529	0.9248	0.0185	-0.416
Mof_O 	O 	0.9845	0.8789	0.9983	-0.463
Mof_O 	O 	0.0242	0.934	0.0719	-0.475
Mof_O 	O 	0.6006	0.9617	0.5621	-0.472
Mof_O 	O 	0.6405	0.0174	0.4896	-0.477
Mof_O 	O 	0.8251	0.8947	0.6929	-0.427
Mof_O 	O 	0.9565	0.9106	0.6729	-0.487
Mof_O 	O 	0.9471	0.0752	0.5185	-0.413
Mof_O 	O 	0.6248	0.25	0.2348	-0.895
Mof_O 	O 	0.4546	0.25	0.7088	-0.388
Mof_O 	O 	0.8752	0.75	0.7348	-0.896
Mof_O 	O 	0.0454	0.75	0.2088	-0.387
Mof_O 	O 	0.3752	0.75	0.7652	-0.895
Mof_O 	O 	0.5454	0.75	0.2912	-0.388
Mof_O 	O 	0.1248	0.25	0.2652	-0.896
Mof_O 	O 	0.9546	0.25	0.7912	-0.387
_end
