# CIF file generated by openbabel 3.1.0, see https://openbabel.org
data_I
_chemical_name_common 'image0'
_cell_length_a 11.4992
_cell_length_b 11.4992
_cell_length_c 12.7341
_cell_angle_alpha 90
_cell_angle_beta 90
_cell_angle_gamma 90
_space_group_name_H-M_alt 'P 1'
_space_group_name_Hall 'P 1'
loop_
    _symmetry_equiv_pos_as_xyz
    x,y,z
loop_
    _atom_site_label
    _atom_site_type_symbol
    _atom_site_fract_x
    _atom_site_fract_y
    _atom_site_fract_z
    _atom_site_occupancy
    N1       N        0.69870    0.50050    0.82100    1.000
    N2       N        0.79280    0.70290    0.91100    1.000
    N3       N        0.39660    0.50570    0.08550    1.000
    C1       C        0.78990    0.55560    0.78070    1.000
    H1       H        0.82380    0.52570    0.72020    1.000
    C2       C        0.83740    0.65640    0.82490    1.000
    H2       H        0.90130    0.69130    0.79320    1.000
    C3       C        0.69900    0.64880    0.95280    1.000
    C4       C        0.54900    0.65250    0.09090    1.000
    C5       C        0.49630    0.54990    0.04340    1.000
    C6       C        0.35530    0.41040    0.04330    1.000
    H3       H        0.37770    0.28790    0.92920    1.000
    N4       N        0.30130    0.49950    0.32100    1.000
    N5       N        0.20720    0.29710    0.41100    1.000
    N6       N        0.60340    0.49430    0.58550    1.000
    C7       C        0.21010    0.44440    0.28070    1.000
    H4       H        0.17620    0.47430    0.22020    1.000
    C8       C        0.16260    0.34360    0.32490    1.000
    H5       H        0.09870    0.30870    0.29320    1.000
    C9       C        0.30100    0.35120    0.45280    1.000
    C10      C        0.45100    0.34750    0.59090    1.000
    C11      C        0.50370    0.45010    0.54340    1.000
    C12      C        0.64470    0.58960    0.54330    1.000
    H6       H        0.62230    0.71210    0.42920    1.000
    N7       N        0.99950    0.19870    0.57100    1.000
    N8       N        0.79710    0.29280    0.66100    1.000
    N9       N        0.99430    0.89660    0.83550    1.000
    C13      C        0.94440    0.28990    0.53070    1.000
    H7       H        0.97430    0.32380    0.47020    1.000
    C14      C        0.84360    0.33740    0.57490    1.000
    H8       H        0.80870    0.40130    0.54320    1.000
    C15      C        0.85120    0.19900    0.70280    1.000
    C16      C        0.84750    0.04900    0.84090    1.000
    C17      C        0.95010    0.99630    0.79340    1.000
    C18      C        0.08960    0.85530    0.79330    1.000
    H9       H        0.21210    0.87770    0.67920    1.000
    N10      N        0.00050    0.80130    0.07100    1.000
    N11      N        0.20290    0.70720    0.16100    1.000
    N12      N        0.00570    0.10340    0.33550    1.000
    C19      C        0.05560    0.71010    0.03070    1.000
    H10      H        0.02570    0.67620    0.97020    1.000
    C20      C        0.15640    0.66260    0.07490    1.000
    H11      H        0.19130    0.59870    0.04320    1.000
    C21      C        0.14880    0.80100    0.20280    1.000
    C22      C        0.15250    0.95100    0.34090    1.000
    C23      C        0.04990    0.00370    0.29340    1.000
    C24      C        0.91040    0.14470    0.29330    1.000
    H12      H        0.78790    0.12230    0.17920    1.000
    N13      N        0.80130    0.00050    0.92900    1.000
    N14      N        0.70720    0.20290    0.83900    1.000
    N15      N        0.10340    0.00570    0.66450    1.000
    C25      C        0.71010    0.05560    0.96930    1.000
    H13      H        0.67620    0.02570    0.02980    1.000
    C26      C        0.66260    0.15640    0.92510    1.000
    H14      H        0.59870    0.19130    0.95680    1.000
    C27      C        0.80100    0.14880    0.79720    1.000
    C28      C        0.95100    0.15250    0.65910    1.000
    C29      C        0.00370    0.04990    0.70660    1.000
    C30      C        0.14470    0.91040    0.70670    1.000
    H15      H        0.12230    0.78790    0.82080    1.000
    N16      N        0.19870    0.99950    0.42900    1.000
    N17      N        0.29280    0.79710    0.33900    1.000
    N18      N        0.89660    0.99430    0.16450    1.000
    C31      C        0.28990    0.94440    0.46930    1.000
    H16      H        0.32380    0.97430    0.52980    1.000
    C32      C        0.33740    0.84360    0.42510    1.000
    H17      H        0.40130    0.80870    0.45680    1.000
    C33      C        0.19900    0.85120    0.29720    1.000
    C34      C        0.04900    0.84750    0.15910    1.000
    C35      C        0.99630    0.95010    0.20660    1.000
    C36      C        0.85530    0.08960    0.20670    1.000
    H18      H        0.87770    0.21210    0.32080    1.000
    N19      N        0.50050    0.69870    0.17900    1.000
    N20      N        0.70290    0.79280    0.08900    1.000
    N21      N        0.50570    0.39660    0.91450    1.000
    C37      C        0.55560    0.78990    0.21930    1.000
    H19      H        0.52570    0.82380    0.27980    1.000
    C38      C        0.65640    0.83740    0.17510    1.000
    H20      H        0.69130    0.90130    0.20680    1.000
    C39      C        0.64880    0.69900    0.04720    1.000
    C40      C        0.65250    0.54900    0.90910    1.000
    C41      C        0.54990    0.49630    0.95660    1.000
    C42      C        0.41040    0.35530    0.95670    1.000
    H21      H        0.28790    0.37770    0.07080    1.000
    N22      N        0.49950    0.30130    0.67900    1.000
    N23      N        0.29710    0.20720    0.58900    1.000
    N24      N        0.49430    0.60340    0.41450    1.000
    C43      C        0.44440    0.21010    0.71930    1.000
    H22      H        0.47430    0.17620    0.77980    1.000
    C44      C        0.34360    0.16260    0.67510    1.000
    H23      H        0.30870    0.09870    0.70680    1.000
    C45      C        0.35120    0.30100    0.54720    1.000
    C46      C        0.34750    0.45100    0.40910    1.000
    C47      C        0.45010    0.50370    0.45660    1.000
    C48      C        0.58960    0.64470    0.45670    1.000
    H24      H        0.71210    0.62230    0.57080    1.000
    Cu1      Cu       0.64734    0.35266    0.75000    1.000
    Cu2      Cu       0.35266    0.64734    0.25000    1.000
    Cu3      Cu       0.14734    0.14734    0.50000    1.000
    Cu4      Cu       0.85266    0.85266    0.00000    1.000
