data_functionalizedCrystal
_audit_creation_method	'EQeq! by Chris Wilmer'
_symmetry_space_group_name_H-M	'P1'
_symmetry_Int_Tables_number	1
_symmetry_cell_setting	triclinic
loop_
_symmetry_equiv_pos_as_xyz
  x,y,z
_cell_length_a	21.403
_cell_length_b	34.255
_cell_length_c	8.023
_cell_angle_alpha	90
_cell_angle_beta	90
_cell_angle_gamma	90
loop_
_atom_site_label
_atom_site_type_symbol
_atom_site_fract_x
_atom_site_fract_y
_atom_site_fract_z
_atom_site_charge
Mof_C 	C 	0.8075	0.9162	0.462	-0.149
Mof_H 	H 	0.8453	0.9305	0.4729	0.086
Mof_C 	C 	0.8091	0.8759	0.433	0.099
Mof_C 	C 	0.8613	0.8549	0.451	-0.037
Mof_C 	C 	0.9094	0.8362	0.478	-0.036
Mof_C 	C 	0.9612	0.8158	0.505	0.095
Mof_C 	C 	0.989	0.7951	0.375	-0.149
Mof_H 	H 	0.9706	0.7955	0.2674	0.088
Mof_C 	C 	0.043	0.7738	0.404	0.081
Mof_H 	H 	0.0619	0.7597	0.3152	0.02
Mof_C 	C 	0.0698	0.7733	0.562	-0.154
Mof_C 	C 	0.042	0.794	0.691	0.053
Mof_H 	H 	0.0604	0.7936	0.7991	-0.004
Mof_C 	C 	0.988	0.8153	0.663	-0.14
Mof_H 	H 	0.9691	0.8294	0.7514	0.071
Mof_O 	O 	0.1503	0.7522	0.773	-0.495
Mof_O 	O 	0.188	0.7654	0.528	-0.508
Mof_C 	C 	0.13	0.7618	0.644	0.38
Mof_C 	C 	0.3075	0.4162	0.962	-0.125
Mof_H 	H 	0.3453	0.4305	0.9729	0.072
Mof_C 	C 	0.3091	0.3759	0.933	0.051
Mof_C 	C 	0.3613	0.3549	0.951	0.013
Mof_C 	C 	0.4094	0.3362	0.978	-0.133
Mof_C 	C 	0.4612	0.3158	0.005	0.218
Mof_C 	C 	0.489	0.2951	0.875	-0.23
Mof_H 	H 	0.4706	0.2955	0.7674	0.108
Mof_C 	C 	0.543	0.2738	0.904	0.073
Mof_H 	H 	0.5619	0.2597	0.8152	0.017
Mof_C 	C 	0.5698	0.2733	0.062	-0.134
Mof_C 	C 	0.542	0.294	0.191	0.078
Mof_H 	H 	0.5604	0.2936	0.2991	-0.007
Mof_C 	C 	0.488	0.3153	0.163	-0.193
Mof_H 	H 	0.4691	0.3294	0.2514	0.102
Mof_O 	O 	0.6503	0.2522	0.273	-0.489
Mof_O 	O 	0.688	0.2654	0.028	-0.48
Mof_C 	C 	0.63	0.2618	0.144	0.376
Mof_C 	C 	0.1925	0.0838	0.462	-0.15
Mof_H 	H 	0.1547	0.0695	0.4729	0.085
Mof_C 	C 	0.1909	0.1241	0.433	0.098
Mof_C 	C 	0.1387	0.1451	0.451	-0.038
Mof_C 	C 	0.0906	0.1638	0.478	-0.037
Mof_C 	C 	0.0388	0.1842	0.505	0.094
Mof_C 	C 	0.011	0.2049	0.375	-0.149
Mof_H 	H 	0.0294	0.2045	0.2674	0.088
Mof_C 	C 	0.957	0.2262	0.404	0.081
Mof_H 	H 	0.9381	0.2403	0.3152	0.02
Mof_C 	C 	0.9302	0.2267	0.562	-0.154
Mof_C 	C 	0.958	0.206	0.691	0.053
Mof_H 	H 	0.9396	0.2064	0.7991	-0.004
Mof_C 	C 	0.012	0.1847	0.663	-0.14
Mof_H 	H 	0.0309	0.1706	0.7514	0.071
Mof_O 	O 	0.8497	0.2478	0.773	-0.495
Mof_O 	O 	0.812	0.2346	0.528	-0.508
Mof_C 	C 	0.87	0.2382	0.644	0.38
Mof_C 	C 	0.6925	0.5838	0.962	-0.125
Mof_H 	H 	0.6547	0.5695	0.9729	0.072
Mof_C 	C 	0.6909	0.6241	0.933	0.051
Mof_C 	C 	0.6387	0.6451	0.951	0.013
Mof_C 	C 	0.5906	0.6638	0.978	-0.133
Mof_C 	C 	0.5388	0.6842	0.005	0.218
Mof_C 	C 	0.511	0.7049	0.875	-0.23
Mof_H 	H 	0.5294	0.7045	0.7674	0.108
Mof_C 	C 	0.457	0.7262	0.904	0.073
Mof_H 	H 	0.4381	0.7403	0.8152	0.017
Mof_C 	C 	0.4302	0.7267	0.062	-0.134
Mof_C 	C 	0.458	0.706	0.191	0.078
Mof_H 	H 	0.4396	0.7064	0.2991	-0.007
Mof_C 	C 	0.512	0.6847	0.163	-0.193
Mof_H 	H 	0.5309	0.6706	0.2514	0.102
Mof_O 	O 	0.3497	0.7478	0.273	-0.489
Mof_O 	O 	0.312	0.7346	0.028	-0.48
Mof_C 	C 	0.37	0.7382	0.144	0.376
Mof_C 	C 	0.3075	0.0838	0.462	-0.15
Mof_H 	H 	0.3453	0.0695	0.4729	0.085
Mof_C 	C 	0.3091	0.1241	0.433	0.098
Mof_C 	C 	0.3613	0.1451	0.451	-0.038
Mof_C 	C 	0.4094	0.1638	0.478	-0.037
Mof_C 	C 	0.4612	0.1842	0.505	0.094
Mof_C 	C 	0.489	0.2049	0.375	-0.149
Mof_H 	H 	0.4706	0.2045	0.2674	0.088
Mof_C 	C 	0.543	0.2262	0.404	0.081
Mof_H 	H 	0.5619	0.2403	0.3152	0.02
Mof_C 	C 	0.5698	0.2267	0.562	-0.154
Mof_C 	C 	0.542	0.206	0.691	0.053
Mof_H 	H 	0.5604	0.2064	0.7991	-0.004
Mof_C 	C 	0.488	0.1847	0.663	-0.14
Mof_H 	H 	0.4691	0.1706	0.7514	0.071
Mof_O 	O 	0.6503	0.2478	0.773	-0.495
Mof_O 	O 	0.688	0.2346	0.528	-0.508
Mof_C 	C 	0.63	0.2382	0.644	0.38
Mof_C 	C 	0.8075	0.5838	0.962	-0.125
Mof_H 	H 	0.8453	0.5695	0.9729	0.072
Mof_C 	C 	0.8091	0.6241	0.933	0.051
Mof_C 	C 	0.8613	0.6451	0.951	0.013
Mof_C 	C 	0.9094	0.6638	0.978	-0.132
Mof_C 	C 	0.9612	0.6842	0.005	0.217
Mof_C 	C 	0.989	0.7049	0.875	-0.23
Mof_H 	H 	0.9706	0.7045	0.7674	0.108
Mof_C 	C 	0.043	0.7262	0.904	0.072
Mof_H 	H 	0.0619	0.7403	0.8152	0.017
Mof_C 	C 	0.0698	0.7267	0.062	-0.134
Mof_C 	C 	0.042	0.706	0.191	0.077
Mof_H 	H 	0.0604	0.7064	0.2991	-0.007
Mof_C 	C 	0.988	0.6847	0.163	-0.192
Mof_H 	H 	0.9691	0.6706	0.2514	0.101
Mof_O 	O 	0.1503	0.7478	0.273	-0.489
Mof_O 	O 	0.188	0.7346	0.028	-0.48
Mof_C 	C 	0.13	0.7382	0.144	0.376
Mof_C 	C 	0.6925	0.9162	0.462	-0.15
Mof_H 	H 	0.6547	0.9305	0.4729	0.085
Mof_C 	C 	0.6909	0.8759	0.433	0.098
Mof_C 	C 	0.6387	0.8549	0.451	-0.038
Mof_C 	C 	0.5906	0.8362	0.478	-0.037
Mof_C 	C 	0.5388	0.8158	0.505	0.094
Mof_C 	C 	0.511	0.7951	0.375	-0.149
Mof_H 	H 	0.5294	0.7955	0.2674	0.088
Mof_C 	C 	0.457	0.7738	0.404	0.081
Mof_H 	H 	0.4381	0.7597	0.3152	0.02
Mof_C 	C 	0.4302	0.7733	0.562	-0.154
Mof_C 	C 	0.458	0.794	0.691	0.053
Mof_H 	H 	0.4396	0.7936	0.7991	-0.004
Mof_C 	C 	0.512	0.8153	0.663	-0.14
Mof_H 	H 	0.5309	0.8294	0.7514	0.071
Mof_O 	O 	0.3497	0.7522	0.773	-0.495
Mof_O 	O 	0.312	0.7654	0.528	-0.508
Mof_C 	C 	0.37	0.7618	0.644	0.38
Mof_C 	C 	0.1925	0.4162	0.962	-0.125
Mof_H 	H 	0.1547	0.4305	0.9729	0.072
Mof_C 	C 	0.1909	0.3759	0.933	0.051
Mof_C 	C 	0.1387	0.3549	0.951	0.013
Mof_C 	C 	0.0906	0.3362	0.978	-0.132
Mof_C 	C 	0.0388	0.3158	0.005	0.217
Mof_C 	C 	0.011	0.2951	0.875	-0.23
Mof_H 	H 	0.0294	0.2955	0.7674	0.108
Mof_C 	C 	0.957	0.2738	0.904	0.072
Mof_H 	H 	0.9381	0.2597	0.8152	0.017
Mof_C 	C 	0.9302	0.2733	0.062	-0.134
Mof_C 	C 	0.958	0.294	0.191	0.077
Mof_H 	H 	0.9396	0.2936	0.2991	-0.007
Mof_C 	C 	0.012	0.3153	0.163	-0.192
Mof_H 	H 	0.0309	0.3294	0.2514	0.101
Mof_O 	O 	0.8497	0.2522	0.273	-0.489
Mof_O 	O 	0.812	0.2654	0.028	-0.48
Mof_C 	C 	0.87	0.2618	0.144	0.376
Mof_C 	C 	0.75	0.1786	0.519	0.54
Mof_C 	C 	0.75	0.1368	0.505	-0.268
Mof_C 	C 	0.75	0.1159	0.654	0.154
Mof_H 	H 	0.75	0.1293	0.7574	-0.058
Mof_C 	C 	0.75	0.0753	0.651	-0.206
Mof_H 	H 	0.75	0.061	0.7523	0.088
Mof_C 	C 	0.75	0.0556	0.499	0.131
Mof_C 	C 	0.75	0.0765	0.351	-0.203
Mof_H 	H 	0.75	0.0631	0.2472	0.101
Mof_C 	C 	0.75	0.1171	0.354	0.16
Mof_H 	H 	0.75	0.1314	0.2523	-0.032
Mof_C 	C 	0.75	0.013	0.49243	-0.05
Mof_C 	C 	0.75	0.9767	0.487	-0.029
Mof_C 	C 	0.75	0.9352	0.475	0.093
Mof_C 	C 	0.75	0.858	0.432	-0.147
Mof_H 	H 	0.75	0.8303	0.4304	0.087
Mof_O 	O 	0.75	0.1963	0.666	-0.567
Mof_O 	O 	0.75	0.1971	0.382	-0.46
Mof_Ho	Ho	0.75	0.2337	0.883	2.025
Mof_C 	C 	0.25	0.6786	0.019	0.554
Mof_C 	C 	0.25	0.6368	0.005	-0.198
Mof_C 	C 	0.25	0.6159	0.154	0.096
Mof_H 	H 	0.25	0.6293	0.2574	-0.033
Mof_C 	C 	0.25	0.5753	0.151	-0.115
Mof_H 	H 	0.25	0.561	0.2523	0.071
Mof_C 	C 	0.25	0.5556	0.999	0.053
Mof_C 	C 	0.25	0.5765	0.851	-0.142
Mof_H 	H 	0.25	0.5631	0.7472	0.074
Mof_C 	C 	0.25	0.6171	0.854	0.071
Mof_H 	H 	0.25	0.6314	0.7523	-0.014
Mof_C 	C 	0.25	0.513	0.99243	-0.033
Mof_C 	C 	0.25	0.4767	0.987	-0.039
Mof_C 	C 	0.25	0.4352	0.975	0.076
Mof_C 	C 	0.25	0.358	0.932	-0.111
Mof_H 	H 	0.25	0.3303	0.9304	0.068
Mof_O 	O 	0.25	0.6963	0.166	-0.577
Mof_O 	O 	0.25	0.6971	0.882	-0.488
Mof_Ho	Ho	0.25	0.7337	0.383	2.103
Mof_C 	C 	0.25	0.8214	0.519	0.54
Mof_C 	C 	0.25	0.8632	0.505	-0.268
Mof_C 	C 	0.25	0.8841	0.654	0.154
Mof_H 	H 	0.25	0.8707	0.7574	-0.058
Mof_C 	C 	0.25	0.9247	0.651	-0.206
Mof_H 	H 	0.25	0.939	0.7523	0.088
Mof_C 	C 	0.25	0.9444	0.499	0.131
Mof_C 	C 	0.25	0.9235	0.351	-0.203
Mof_H 	H 	0.25	0.9369	0.2472	0.101
Mof_C 	C 	0.25	0.8829	0.354	0.16
Mof_H 	H 	0.25	0.8686	0.2523	-0.032
Mof_C 	C 	0.25	0.987	0.49243	-0.05
Mof_C 	C 	0.25	0.0233	0.487	-0.029
Mof_C 	C 	0.25	0.0648	0.475	0.093
Mof_C 	C 	0.25	0.142	0.432	-0.147
Mof_H 	H 	0.25	0.1697	0.4304	0.087
Mof_O 	O 	0.25	0.8037	0.666	-0.567
Mof_O 	O 	0.25	0.8029	0.382	-0.46
Mof_Ho	Ho	0.25	0.7663	0.883	2.025
Mof_C 	C 	0.75	0.3214	0.019	0.554
Mof_C 	C 	0.75	0.3632	0.005	-0.198
Mof_C 	C 	0.75	0.3841	0.154	0.096
Mof_H 	H 	0.75	0.3707	0.2574	-0.033
Mof_C 	C 	0.75	0.4247	0.151	-0.115
Mof_H 	H 	0.75	0.439	0.2523	0.071
Mof_C 	C 	0.75	0.4444	0.999	0.053
Mof_C 	C 	0.75	0.4235	0.851	-0.142
Mof_H 	H 	0.75	0.4369	0.7472	0.074
Mof_C 	C 	0.75	0.3829	0.854	0.071
Mof_H 	H 	0.75	0.3686	0.7523	-0.014
Mof_C 	C 	0.75	0.487	0.99243	-0.033
Mof_C 	C 	0.75	0.5233	0.987	-0.039
Mof_C 	C 	0.75	0.5648	0.975	0.076
Mof_C 	C 	0.75	0.642	0.932	-0.111
Mof_H 	H 	0.75	0.6697	0.9304	0.068
Mof_O 	O 	0.75	0.3037	0.166	-0.577
Mof_O 	O 	0.75	0.3029	0.882	-0.488
Mof_Ho	Ho	0.75	0.2663	0.383	2.103
_end
