data_functionalizedCrystal
_audit_creation_method	'EQeq! by Chris Wilmer'
_symmetry_space_group_name_H-M	'P1'
_symmetry_Int_Tables_number	1
_symmetry_cell_setting	triclinic
loop_
_symmetry_equiv_pos_as_xyz
  x,y,z
_cell_length_a	34.3624
_cell_length_b	18.6807
_cell_length_c	25.8757
_cell_angle_alpha	90
_cell_angle_beta	90
_cell_angle_gamma	90
loop_
_atom_site_label
_atom_site_type_symbol
_atom_site_fract_x
_atom_site_fract_y
_atom_site_fract_z
_atom_site_charge
Mof_Cu	Cu	0.22642	0.03468	0.66759	0.908
Mof_Cu	Cu	0.26451	0.96321	0.74258	0.901
Mof_C 	C 	0.1107	0.8387	0.8916	0.375
Mof_O 	O 	0.18276	0.0117	0.7127	-0.416
Mof_C 	C 	0.1114	0.8905	0.8455	-0.051
Mof_O 	O 	0.2139	0.9546	0.7758	-0.421
Mof_O 	O 	0.14405	0.825	0.9064	-0.414
Mof_C 	C 	0.1464	0.9607	0.78	-0.077
Mof_O 	O 	0.07866	0.8226	0.907	-0.417
Mof_C 	C 	0.1849	0.9805	0.7558	0.378
Mof_C 	C 	0.1469	0.912	0.8224	0.029
Mof_H 	H 	0.1709	0.8941	0.8352	0.068
Mof_C 	C 	0.111	0.986	0.7606	0.03
Mof_H 	H 	0.1108	0.0185	0.7324	0.022
Mof_O 	O 	0.043	0.9787	0.7572	-0.169
Mof_C 	C 	0.0093	0.9871	0.7877	-0.084
Mof_H 	H 	0.0168	0.9947	0.8242	0.635
Mof_H 	H 	0.9946	0.0297	0.7759	0.266
Mof_C 	C 	0.9844	0.9234	0.7838	0.359
Mof_H 	H 	0.9827	0.9079	0.7473	-0.003
Mof_H 	H 	0.9958	0.8838	0.8043	-0.078
Mof_C 	C 	0.9442	0.9407	0.804	0.066
Mof_H 	H 	0.9296	0.8961	0.8108	0.017
Mof_H 	H 	0.9297	0.9694	0.7783	0.176
Mof_O 	O 	0.9491	0.9818	0.8523	-0.156
Mof_C 	C 	0.9132	0.0131	0.8744	0.098
Mof_C 	C 	0.9164	0.0657	0.9109	0.08
Mof_H 	H 	0.9412	0.0741	0.9259	0.033
Mof_C 	C 	0.85	0.0928	0.9037	-0.005
Mof_H 	H 	0.8279	0.1203	0.9134	0.043
Mof_C 	C 	0.8773	0.9988	0.8515	-0.201
Mof_H 	H 	0.8746	0.9621	0.8263	0.104
Mof_C 	C 	0.0763	0.9624	0.7847	0.241
Mof_C 	C 	0.0757	0.915	0.8272	0.018
Mof_H 	H 	0.0519	0.9005	0.8426	0.006
Mof_O 	O 	0.92058	0.1775	0.9863	-0.4
Mof_O 	O 	0.85515	0.1777	0.988	-0.429
Mof_O 	O 	0.7772	0.0433	0.8644	-0.424
Mof_O 	O 	0.80848	0.9827	0.8031	-0.418
Mof_C 	C 	0.8852	0.1078	0.9274	-0.047
Mof_C 	C 	0.8454	0.0397	0.8666	-0.045
Mof_C 	C 	0.8059	0.0244	0.8416	0.363
Mof_C 	C 	0.8862	0.1649	0.97	0.361
Mof_C 	C 	0.2314	0.8864	0.6574	0.29
Mof_O 	O 	0.2209	0.9415	0.6355	-0.393
Mof_C 	C 	0.2237	0.8168	0.6322	0.055
Mof_O 	O 	0.2525	0.8779	0.6994	-0.373
Mof_C 	C 	0.2041	0.8158	0.5857	-0.26
Mof_H 	H 	0.1959	0.8591	0.5699	0.158
Mof_O 	O 	0.2297	0.9395	0.272	-0.386
Mof_O 	O 	0.2636	0.8786	0.21	-0.401
Mof_C 	C 	0.2134	0.8118	0.3182	-0.402
Mof_H 	H 	0.2069	0.8562	0.3338	0.211
Mof_C 	C 	0.2343	0.81453	0.2728	0.135
Mof_C 	C 	0.24403	0.8852	0.2476	0.287
Mof_C 	C 	0.99039	0.7704	0.9225	0.04
Mof_N 	N 	0.00936	0.7296	0.9608	-0.106
Mof_C 	C 	0.98931	0.7296	0.0067	0.016
Mof_C 	C 	0.94896	0.7296	0.0019	-0.029
Mof_C 	C 	0.92751	0.7704	0.9633	-0.005
Mof_C 	C 	0.95103	0.7704	0.9154	-0.04
Mof_O 	O 	0.1736	0.7737	0.5174	-0.413
Mof_O 	O 	0.1798	0.7236	0.3871	-0.672
Mof_C 	C 	0.1502	0.7178	0.4909	0.811
Mof_C 	C 	0.1569	0.7841	0.4053	1.14
Mof_H 	H 	0.0051	0.7704	0.8914	0.012
Mof_H 	H 	0.002	0.7296	0.0393	0.022
Mof_H 	H 	0.9354	0.7296	0.034	0.034
Mof_H 	H 	0.8999	0.7704	0.9644	0.026
Mof_H 	H 	0.9395	0.7704	0.882	0.032
Mof_H 	H 	0.1162	0.7122	0.428	0.371
Mof_H 	H 	0.1131	0.7867	0.4576	0.418
Mof_H 	H 	0.1301	0.6988	0.5146	-0.231
Mof_H 	H 	0.1672	0.6777	0.4802	-0.13
Mof_H 	H 	0.1737	0.8216	0.4205	-0.16
Mof_H 	H 	0.1412	0.8051	0.377	-0.305
Mof_C 	C 	0.9452	0.506	0.7815	-0.151
Mof_C 	C 	0.9131	0.4326	0.8456	0.071
Mof_C 	C 	0.9185	0.3966	0.8917	-0.195
Mof_C 	C 	0.8505	0.4247	0.9124	-0.02
Mof_C 	C 	0.8775	0.4635	0.8335	0.115
Mof_C 	C 	0.9867	0.52	0.7639	-0.218
Mof_C 	C 	0.1432	0.5924	0.8166	-0.009
Mof_C 	C 	0.115	0.4928	0.7693	-0.052
Mof_C 	C 	0.0811	0.5041	0.7971	-0.126
Mof_C 	C 	0.0813	0.561	0.8336	-0.106
Mof_C 	C 	0.0127	0.4696	0.7963	-0.337
Mof_H 	H 	0.933	0.5505	0.7944	-0.114
Mof_H 	H 	0.9294	0.4871	0.7526	0.034
Mof_H 	H 	0.9429	0.3754	0.9	0.112
Mof_H 	H 	0.829	0.422	0.9354	0.052
Mof_H 	H 	0.8749	0.4878	0.8015	0.001
Mof_H 	H 	0.9938	0.5709	0.7703	-0.143
Mof_H 	H 	0.9895	0.5101	0.7266	0.1
Mof_H 	H 	0.1658	0.6204	0.8224	-0.012
Mof_H 	H 	0.1171	0.4557	0.7444	0.056
Mof_H 	H 	0.0578	0.5672	0.8525	0.065
Mof_H 	H 	0.0143	0.4857	0.8327	-0.466
Mof_H 	H 	0.0027	0.4199	0.7954	0.131
Mof_O 	O 	0.0502	0.4743	0.7714	-0.028
Mof_O 	O 	0.9482	0.4533	0.8227	-0.129
Mof_Cu	Cu	0.27358	0.96532	0.16759	0.907
Mof_Cu	Cu	0.23549	0.03679	0.24258	0.9
Mof_C 	C 	0.3893	0.1613	0.3916	0.374
Mof_O 	O 	0.31724	0.9883	0.2127	-0.418
Mof_C 	C 	0.3886	0.1095	0.3455	-0.052
Mof_O 	O 	0.2861	0.0454	0.2758	-0.422
Mof_O 	O 	0.35595	0.175	0.4064	-0.415
Mof_C 	C 	0.3536	0.0393	0.28	-0.078
Mof_O 	O 	0.42134	0.1774	0.407	-0.418
Mof_C 	C 	0.3151	0.0195	0.2558	0.377
Mof_C 	C 	0.3531	0.088	0.3224	0.028
Mof_H 	H 	0.3291	0.1059	0.3352	0.068
Mof_C 	C 	0.389	0.014	0.2606	0.026
Mof_H 	H 	0.3892	0.9815	0.2324	0.021
Mof_O 	O 	0.457	0.0213	0.2572	-0.17
Mof_C 	C 	0.4907	0.0129	0.2877	-0.083
Mof_H 	H 	0.4832	0.0053	0.3242	0.658
Mof_H 	H 	0.5054	0.9703	0.2759	0.275
Mof_C 	C 	0.5156	0.0766	0.2838	0.361
Mof_H 	H 	0.5173	0.0921	0.2473	-0.003
Mof_H 	H 	0.5042	0.1162	0.3043	-0.08
Mof_C 	C 	0.5558	0.0593	0.304	0.068
Mof_H 	H 	0.5704	0.1039	0.3108	0.017
Mof_H 	H 	0.5703	0.0306	0.2783	0.175
Mof_O 	O 	0.5509	0.0182	0.3523	-0.156
Mof_C 	C 	0.5868	0.9869	0.3744	0.095
Mof_C 	C 	0.5836	0.9343	0.4109	0.107
Mof_H 	H 	0.5588	0.9259	0.4259	0.026
Mof_C 	C 	0.65	0.9072	0.4037	-0.005
Mof_H 	H 	0.6721	0.8797	0.4134	0.043
Mof_C 	C 	0.6227	0.0012	0.3515	-0.221
Mof_H 	H 	0.6254	0.0379	0.3263	0.11
Mof_C 	C 	0.4237	0.0376	0.2847	0.241
Mof_C 	C 	0.4243	0.085	0.3272	0.019
Mof_H 	H 	0.4481	0.0995	0.3426	0.006
Mof_O 	O 	0.57942	0.8225	0.4863	-0.4
Mof_O 	O 	0.64485	0.8223	0.488	-0.43
Mof_O 	O 	0.7228	0.9567	0.3644	-0.424
Mof_O 	O 	0.69152	0.0173	0.3031	-0.418
Mof_C 	C 	0.6148	0.8922	0.4274	-0.049
Mof_C 	C 	0.6546	0.9603	0.3666	-0.045
Mof_C 	C 	0.6941	0.9756	0.3416	0.363
Mof_C 	C 	0.6138	0.8351	0.47	0.362
Mof_C 	C 	0.2686	0.1136	0.1574	0.29
Mof_O 	O 	0.2791	0.0585	0.1355	-0.393
Mof_C 	C 	0.2763	0.1832	0.1322	0.055
Mof_O 	O 	0.2475	0.1221	0.1994	-0.372
Mof_C 	C 	0.2959	0.1842	0.0857	-0.26
Mof_H 	H 	0.3041	0.1409	0.0699	0.158
Mof_O 	O 	0.2703	0.0605	0.772	-0.386
Mof_O 	O 	0.2364	0.1214	0.71	-0.4
Mof_C 	C 	0.2866	0.1882	0.8182	-0.402
Mof_H 	H 	0.2931	0.1438	0.8338	0.211
Mof_C 	C 	0.2657	0.18547	0.7728	0.135
Mof_C 	C 	0.25597	0.1148	0.7476	0.287
Mof_C 	C 	0.50961	0.2296	0.4225	0.039
Mof_N 	N 	0.49064	0.2704	0.4608	-0.105
Mof_C 	C 	0.51069	0.2704	0.5067	0.015
Mof_C 	C 	0.55104	0.2704	0.5019	-0.028
Mof_C 	C 	0.57249	0.2296	0.4633	-0.006
Mof_C 	C 	0.54897	0.2296	0.4154	-0.039
Mof_O 	O 	0.3264	0.2263	0.0174	-0.413
Mof_O 	O 	0.3202	0.2764	0.8871	-0.672
Mof_C 	C 	0.3498	0.2822	0.9909	0.811
Mof_C 	C 	0.3431	0.2159	0.9053	1.14
Mof_H 	H 	0.4949	0.2296	0.3914	0.013
Mof_H 	H 	0.498	0.2704	0.5393	0.022
Mof_H 	H 	0.5646	0.2704	0.534	0.034
Mof_H 	H 	0.6001	0.2296	0.4644	0.026
Mof_H 	H 	0.5605	0.2296	0.382	0.032
Mof_H 	H 	0.3838	0.2878	0.928	0.371
Mof_H 	H 	0.3869	0.2133	0.9576	0.419
Mof_H 	H 	0.3699	0.3012	0.0146	-0.231
Mof_H 	H 	0.3328	0.3223	0.9802	-0.13
Mof_H 	H 	0.3263	0.1784	0.9205	-0.16
Mof_H 	H 	0.3588	0.1949	0.877	-0.305
Mof_C 	C 	0.5548	0.494	0.2815	-0.151
Mof_C 	C 	0.5869	0.5674	0.3456	0.071
Mof_C 	C 	0.5815	0.6034	0.3917	-0.194
Mof_C 	C 	0.6495	0.5753	0.4124	-0.02
Mof_C 	C 	0.6225	0.5365	0.3335	0.114
Mof_C 	C 	0.5133	0.48	0.2639	-0.219
Mof_C 	C 	0.3568	0.4076	0.3166	-0.009
Mof_C 	C 	0.385	0.5072	0.2693	-0.052
Mof_C 	C 	0.4189	0.4959	0.2971	-0.125
Mof_C 	C 	0.4187	0.439	0.3336	-0.106
Mof_C 	C 	0.4873	0.5304	0.2963	-0.336
Mof_H 	H 	0.567	0.4495	0.2944	-0.114
Mof_H 	H 	0.5706	0.5129	0.2526	0.034
Mof_H 	H 	0.5571	0.6246	0.4	0.112
Mof_H 	H 	0.671	0.578	0.4354	0.052
Mof_H 	H 	0.6251	0.5122	0.3015	0.001
Mof_H 	H 	0.5062	0.4291	0.2703	-0.143
Mof_H 	H 	0.5105	0.4899	0.2266	0.1
Mof_H 	H 	0.3342	0.3796	0.3224	-0.012
Mof_H 	H 	0.3829	0.5443	0.2444	0.056
Mof_H 	H 	0.4422	0.4328	0.3525	0.065
Mof_H 	H 	0.4857	0.5143	0.3327	-0.466
Mof_H 	H 	0.4973	0.5801	0.2954	0.131
Mof_O 	O 	0.4498	0.5257	0.2714	-0.028
Mof_O 	O 	0.5518	0.5467	0.3227	-0.129
Mof_Cu	Cu	0.77358	0.53468	0.33241	0.907
Mof_Cu	Cu	0.73549	0.46321	0.25742	0.9
Mof_C 	C 	0.8893	0.3387	0.1084	0.374
Mof_O 	O 	0.81724	0.5117	0.2873	-0.418
Mof_C 	C 	0.8886	0.3905	0.1545	-0.052
Mof_O 	O 	0.7861	0.4546	0.2242	-0.422
Mof_O 	O 	0.85595	0.325	0.0936	-0.415
Mof_C 	C 	0.8536	0.4607	0.22	-0.078
Mof_O 	O 	0.92134	0.3226	0.093	-0.418
Mof_C 	C 	0.8151	0.4805	0.2442	0.377
Mof_C 	C 	0.8531	0.412	0.1776	0.028
Mof_H 	H 	0.8291	0.3941	0.1648	0.067
Mof_C 	C 	0.889	0.486	0.2394	0.026
Mof_H 	H 	0.8892	0.5185	0.2676	0.021
Mof_O 	O 	0.957	0.4787	0.2428	-0.17
Mof_C 	C 	0.9907	0.4871	0.2123	-0.083
Mof_H 	H 	0.9832	0.4947	0.1758	0.659
Mof_H 	H 	0.0054	0.5297	0.2241	0.276
Mof_C 	C 	0.0156	0.4234	0.2162	0.361
Mof_H 	H 	0.0173	0.4079	0.2527	-0.003
Mof_H 	H 	0.0042	0.3838	0.1957	-0.08
Mof_C 	C 	0.0558	0.4407	0.196	0.068
Mof_H 	H 	0.0704	0.3961	0.1892	0.017
Mof_H 	H 	0.0703	0.4694	0.2217	0.175
Mof_O 	O 	0.0509	0.4818	0.1477	-0.156
Mof_C 	C 	0.0868	0.5131	0.1256	0.096
Mof_C 	C 	0.0836	0.5657	0.0891	0.097
Mof_H 	H 	0.0588	0.5741	0.0741	0.029
Mof_C 	C 	0.15	0.5928	0.0963	-0.005
Mof_H 	H 	0.1721	0.6203	0.0866	0.043
Mof_C 	C 	0.1227	0.4988	0.1485	-0.213
Mof_H 	H 	0.1254	0.4621	0.1737	0.108
Mof_C 	C 	0.9237	0.4624	0.2153	0.24
Mof_C 	C 	0.9243	0.415	0.1728	0.019
Mof_H 	H 	0.9481	0.4005	0.1574	0.006
Mof_O 	O 	0.07942	0.6775	0.0137	-0.4
Mof_O 	O 	0.14485	0.6777	0.012	-0.429
Mof_O 	O 	0.2228	0.5433	0.1356	-0.424
Mof_O 	O 	0.19152	0.4827	0.1969	-0.418
Mof_C 	C 	0.1148	0.6078	0.0726	-0.048
Mof_C 	C 	0.1546	0.5397	0.1334	-0.045
Mof_C 	C 	0.1941	0.5244	0.1584	0.363
Mof_C 	C 	0.1138	0.6649	0.03	0.361
Mof_C 	C 	0.7686	0.3864	0.3426	0.29
Mof_O 	O 	0.7791	0.4415	0.3645	-0.393
Mof_C 	C 	0.7763	0.3168	0.3678	0.055
Mof_O 	O 	0.7475	0.3779	0.3006	-0.372
Mof_C 	C 	0.7959	0.3158	0.4143	-0.26
Mof_H 	H 	0.8041	0.3591	0.4301	0.158
Mof_O 	O 	0.7703	0.4395	0.728	-0.386
Mof_O 	O 	0.7364	0.3786	0.79	-0.401
Mof_C 	C 	0.7866	0.3118	0.6818	-0.402
Mof_H 	H 	0.7931	0.3562	0.6662	0.211
Mof_C 	C 	0.7657	0.31453	0.7272	0.135
Mof_C 	C 	0.75597	0.3852	0.7524	0.287
Mof_C 	C 	0.00961	0.2704	0.0775	0.04
Mof_N 	N 	0.99064	0.2296	0.0392	-0.106
Mof_C 	C 	0.01069	0.2296	0.9933	0.015
Mof_C 	C 	0.05104	0.2296	0.9981	-0.028
Mof_C 	C 	0.07249	0.2704	0.0367	-0.006
Mof_C 	C 	0.04897	0.2704	0.0846	-0.04
Mof_O 	O 	0.8264	0.2737	0.4826	-0.413
Mof_O 	O 	0.8202	0.2236	0.6129	-0.672
Mof_C 	C 	0.8498	0.2178	0.5091	0.811
Mof_C 	C 	0.8431	0.2841	0.5947	1.14
Mof_H 	H 	0.9949	0.2704	0.1086	0.012
Mof_H 	H 	0.998	0.2296	0.9607	0.022
Mof_H 	H 	0.0646	0.2296	0.966	0.034
Mof_H 	H 	0.1001	0.2704	0.0356	0.026
Mof_H 	H 	0.0605	0.2704	0.118	0.032
Mof_H 	H 	0.8838	0.2122	0.572	0.371
Mof_H 	H 	0.8869	0.2867	0.5424	0.418
Mof_H 	H 	0.8699	0.1988	0.4854	-0.231
Mof_H 	H 	0.8328	0.1777	0.5198	-0.13
Mof_H 	H 	0.8263	0.3216	0.5795	-0.16
Mof_H 	H 	0.8588	0.3051	0.623	-0.305
Mof_C 	C 	0.0548	0.006	0.2185	-0.154
Mof_C 	C 	0.0869	0.9326	0.1544	0.069
Mof_C 	C 	0.0815	0.8966	0.1083	-0.179
Mof_C 	C 	0.1495	0.9247	0.0876	-0.02
Mof_C 	C 	0.1225	0.9635	0.1665	0.103
Mof_C 	C 	0.0133	0.02	0.2361	-0.208
Mof_C 	C 	0.8568	0.0924	0.1834	-0.009
Mof_C 	C 	0.885	0.9928	0.2307	-0.055
Mof_C 	C 	0.9189	0.0041	0.2029	-0.126
Mof_C 	C 	0.9187	0.061	0.1664	-0.106
Mof_C 	C 	0.9873	0.9696	0.2037	-0.321
Mof_H 	H 	0.067	0.0505	0.2056	-0.113
Mof_H 	H 	0.0706	0.9871	0.2474	0.034
Mof_H 	H 	0.0571	0.8754	0.1	0.106
Mof_H 	H 	0.171	0.922	0.0646	0.052
Mof_H 	H 	0.1251	0.9878	0.1985	0.004
Mof_H 	H 	0.0062	0.0709	0.2297	-0.145
Mof_H 	H 	0.0105	0.0101	0.2734	0.097
Mof_H 	H 	0.8342	0.1204	0.1776	-0.012
Mof_H 	H 	0.8829	0.9557	0.2556	0.057
Mof_H 	H 	0.9422	0.0672	0.1475	0.065
Mof_H 	H 	0.9857	0.9857	0.1673	-0.446
Mof_H 	H 	0.9973	0.9199	0.2046	0.127
Mof_O 	O 	0.9498	0.9743	0.2286	-0.03
Mof_O 	O 	0.0518	0.9533	0.1773	-0.129
Mof_Cu	Cu	0.72642	0.46532	0.83241	0.907
Mof_Cu	Cu	0.76451	0.53679	0.75742	0.9
Mof_C 	C 	0.6107	0.6613	0.6084	0.374
Mof_O 	O 	0.68276	0.4883	0.7873	-0.418
Mof_C 	C 	0.6114	0.6095	0.6545	-0.052
Mof_O 	O 	0.7139	0.5454	0.7242	-0.422
Mof_O 	O 	0.64405	0.675	0.5936	-0.415
Mof_C 	C 	0.6464	0.5393	0.72	-0.078
Mof_O 	O 	0.57866	0.6774	0.593	-0.418
Mof_C 	C 	0.6849	0.5195	0.7442	0.377
Mof_C 	C 	0.6469	0.588	0.6776	0.028
Mof_H 	H 	0.6709	0.6059	0.6648	0.067
Mof_C 	C 	0.611	0.514	0.7394	0.026
Mof_H 	H 	0.6108	0.4815	0.7676	0.021
Mof_O 	O 	0.543	0.5213	0.7428	-0.169
Mof_C 	C 	0.5093	0.5129	0.7123	-0.083
Mof_H 	H 	0.5168	0.5053	0.6758	0.659
Mof_H 	H 	0.4946	0.4703	0.7241	0.275
Mof_C 	C 	0.4844	0.5766	0.7162	0.361
Mof_H 	H 	0.4827	0.5921	0.7527	-0.003
Mof_H 	H 	0.4958	0.6162	0.6957	-0.08
Mof_C 	C 	0.4442	0.5593	0.696	0.068
Mof_H 	H 	0.4296	0.6039	0.6892	0.017
Mof_H 	H 	0.4297	0.5306	0.7217	0.175
Mof_O 	O 	0.4491	0.5182	0.6477	-0.157
Mof_C 	C 	0.4132	0.4869	0.6256	0.096
Mof_C 	C 	0.4164	0.4343	0.5891	0.096
Mof_H 	H 	0.4412	0.4259	0.5741	0.029
Mof_C 	C 	0.35	0.4072	0.5963	-0.005
Mof_H 	H 	0.3279	0.3797	0.5866	0.043
Mof_C 	C 	0.3773	0.5012	0.6485	-0.212
Mof_H 	H 	0.3746	0.5379	0.6737	0.108
Mof_C 	C 	0.5763	0.5376	0.7153	0.24
Mof_C 	C 	0.5757	0.585	0.6728	0.019
Mof_H 	H 	0.5519	0.5995	0.6574	0.006
Mof_O 	O 	0.42058	0.3225	0.5137	-0.4
Mof_O 	O 	0.35515	0.3223	0.512	-0.43
Mof_O 	O 	0.2772	0.4567	0.6356	-0.424
Mof_O 	O 	0.30848	0.5173	0.6969	-0.418
Mof_C 	C 	0.3852	0.3922	0.5726	-0.048
Mof_C 	C 	0.3454	0.4603	0.6334	-0.045
Mof_C 	C 	0.3059	0.4756	0.6584	0.363
Mof_C 	C 	0.3862	0.3351	0.53	0.361
Mof_C 	C 	0.7314	0.6136	0.8426	0.29
Mof_O 	O 	0.7209	0.5585	0.8645	-0.393
Mof_C 	C 	0.7237	0.6832	0.8678	0.055
Mof_O 	O 	0.7525	0.6221	0.8006	-0.372
Mof_C 	C 	0.7041	0.6842	0.9143	-0.26
Mof_H 	H 	0.6959	0.6409	0.9301	0.158
Mof_O 	O 	0.7297	0.5605	0.228	-0.386
Mof_O 	O 	0.7636	0.6214	0.29	-0.401
Mof_C 	C 	0.7134	0.6882	0.1818	-0.402
Mof_H 	H 	0.7069	0.6438	0.1662	0.211
Mof_C 	C 	0.7343	0.68547	0.2272	0.135
Mof_C 	C 	0.74403	0.6148	0.2524	0.287
Mof_C 	C 	0.49039	0.7296	0.5775	0.039
Mof_N 	N 	0.50936	0.7704	0.5392	-0.105
Mof_C 	C 	0.48931	0.7704	0.4933	0.015
Mof_C 	C 	0.44896	0.7704	0.4981	-0.028
Mof_C 	C 	0.42751	0.7296	0.5367	-0.006
Mof_C 	C 	0.45103	0.7296	0.5846	-0.039
Mof_O 	O 	0.6736	0.7263	0.9826	-0.413
Mof_O 	O 	0.6798	0.7764	0.1129	-0.672
Mof_C 	C 	0.6502	0.7822	0.0091	0.81
Mof_C 	C 	0.6569	0.7159	0.0947	1.14
Mof_H 	H 	0.5051	0.7296	0.6086	0.013
Mof_H 	H 	0.502	0.7704	0.4607	0.022
Mof_H 	H 	0.4354	0.7704	0.466	0.034
Mof_H 	H 	0.3999	0.7296	0.5356	0.026
Mof_H 	H 	0.4395	0.7296	0.618	0.032
Mof_H 	H 	0.6162	0.7878	0.072	0.371
Mof_H 	H 	0.6131	0.7133	0.0424	0.418
Mof_H 	H 	0.6301	0.8012	0.9854	-0.231
Mof_H 	H 	0.6672	0.8223	0.0198	-0.13
Mof_H 	H 	0.6737	0.6784	0.0795	-0.16
Mof_H 	H 	0.6412	0.6949	0.123	-0.305
Mof_C 	C 	0.4452	0.994	0.7185	-0.152
Mof_C 	C 	0.4131	0.0674	0.6544	0.071
Mof_C 	C 	0.4185	0.1034	0.6083	-0.204
Mof_C 	C 	0.3505	0.0753	0.5876	-0.02
Mof_C 	C 	0.3775	0.0365	0.6665	0.122
Mof_C 	C 	0.4867	0.98	0.7361	-0.218
Mof_C 	C 	0.6432	0.9076	0.6834	-0.009
Mof_C 	C 	0.615	0.0072	0.7307	-0.052
Mof_C 	C 	0.5811	0.9959	0.7029	-0.126
Mof_C 	C 	0.5813	0.939	0.6664	-0.106
Mof_C 	C 	0.5127	0.0304	0.7037	-0.336
Mof_H 	H 	0.433	0.9495	0.7056	-0.114
Mof_H 	H 	0.4294	0.0129	0.7474	0.034
Mof_H 	H 	0.4429	0.1246	0.6	0.115
Mof_H 	H 	0.329	0.078	0.5646	0.052
Mof_H 	H 	0.3749	0.0122	0.6985	-0.001
Mof_H 	H 	0.4938	0.9291	0.7297	-0.143
Mof_H 	H 	0.4895	0.9899	0.7734	0.099
Mof_H 	H 	0.6658	0.8796	0.6776	-0.012
Mof_H 	H 	0.6171	0.0443	0.7556	0.056
Mof_H 	H 	0.5578	0.9328	0.6475	0.065
Mof_H 	H 	0.5143	0.0143	0.6673	-0.465
Mof_H 	H 	0.5027	0.0801	0.7046	0.13
Mof_O 	O 	0.5502	0.0257	0.7286	-0.028
Mof_O 	O 	0.4482	0.0467	0.6773	-0.129
Mof_Cu	Cu	0.77358	0.96532	0.33241	0.907
Mof_Cu	Cu	0.73549	0.03679	0.25742	0.9
Mof_C 	C 	0.8893	0.1613	0.1084	0.374
Mof_O 	O 	0.81724	0.9883	0.2873	-0.417
Mof_C 	C 	0.8886	0.1095	0.1545	-0.052
Mof_O 	O 	0.7861	0.0454	0.2242	-0.422
Mof_O 	O 	0.85595	0.175	0.0936	-0.415
Mof_C 	C 	0.8536	0.0393	0.22	-0.078
Mof_O 	O 	0.92134	0.1774	0.093	-0.418
Mof_C 	C 	0.8151	0.0195	0.2442	0.377
Mof_C 	C 	0.8531	0.088	0.1776	0.028
Mof_H 	H 	0.8291	0.1059	0.1648	0.067
Mof_C 	C 	0.889	0.014	0.2394	0.029
Mof_H 	H 	0.8892	0.9815	0.2676	0.021
Mof_O 	O 	0.957	0.0213	0.2428	-0.17
Mof_C 	C 	0.9907	0.0129	0.2123	-0.085
Mof_H 	H 	0.9832	0.0053	0.1758	0.635
Mof_H 	H 	0.0054	0.9703	0.2241	0.266
Mof_C 	C 	0.0156	0.0766	0.2162	0.359
Mof_H 	H 	0.0173	0.0921	0.2527	-0.003
Mof_H 	H 	0.0042	0.1162	0.1957	-0.078
Mof_C 	C 	0.0558	0.0593	0.196	0.066
Mof_H 	H 	0.0704	0.1039	0.1892	0.017
Mof_H 	H 	0.0703	0.0306	0.2217	0.176
Mof_O 	O 	0.0509	0.0182	0.1477	-0.156
Mof_C 	C 	0.0868	0.9869	0.1256	0.098
Mof_C 	C 	0.0836	0.9343	0.0891	0.08
Mof_H 	H 	0.0588	0.9259	0.0741	0.033
Mof_C 	C 	0.15	0.9072	0.0963	-0.005
Mof_H 	H 	0.1721	0.8797	0.0866	0.043
Mof_C 	C 	0.1227	0.0012	0.1485	-0.201
Mof_H 	H 	0.1254	0.0379	0.1737	0.104
Mof_C 	C 	0.9237	0.0376	0.2153	0.241
Mof_C 	C 	0.9243	0.085	0.1728	0.018
Mof_H 	H 	0.9481	0.0995	0.1574	0.006
Mof_O 	O 	0.07942	0.8225	0.0137	-0.4
Mof_O 	O 	0.14485	0.8223	0.012	-0.429
Mof_O 	O 	0.2228	0.9567	0.1356	-0.424
Mof_O 	O 	0.19152	0.0173	0.1969	-0.418
Mof_C 	C 	0.1148	0.8922	0.0726	-0.047
Mof_C 	C 	0.1546	0.9603	0.1334	-0.045
Mof_C 	C 	0.1941	0.9756	0.1584	0.363
Mof_C 	C 	0.1138	0.8351	0.03	0.361
Mof_C 	C 	0.7686	0.1136	0.3426	0.29
Mof_O 	O 	0.7791	0.0585	0.3645	-0.393
Mof_C 	C 	0.7763	0.1832	0.3678	0.055
Mof_O 	O 	0.7475	0.1221	0.3006	-0.373
Mof_C 	C 	0.7959	0.1842	0.4143	-0.26
Mof_H 	H 	0.8041	0.1409	0.4301	0.158
Mof_O 	O 	0.7703	0.0605	0.728	-0.386
Mof_O 	O 	0.7364	0.1214	0.79	-0.401
Mof_C 	C 	0.7866	0.1882	0.6818	-0.402
Mof_H 	H 	0.7931	0.1438	0.6662	0.211
Mof_C 	C 	0.7657	0.18547	0.7272	0.135
Mof_C 	C 	0.75597	0.1148	0.7524	0.287
Mof_C 	C 	0.00961	0.2296	0.0775	0.04
Mof_N 	N 	0.99064	0.2704	0.0392	-0.106
Mof_C 	C 	0.01069	0.2704	0.9933	0.016
Mof_C 	C 	0.05104	0.2704	0.9981	-0.029
Mof_C 	C 	0.07249	0.2296	0.0367	-0.005
Mof_C 	C 	0.04897	0.2296	0.0846	-0.04
Mof_O 	O 	0.8264	0.2263	0.4826	-0.413
Mof_O 	O 	0.8202	0.2764	0.6129	-0.672
Mof_C 	C 	0.8498	0.2822	0.5091	0.811
Mof_C 	C 	0.8431	0.2159	0.5947	1.14
Mof_H 	H 	0.9949	0.2296	0.1086	0.012
Mof_H 	H 	0.998	0.2704	0.9607	0.022
Mof_H 	H 	0.0646	0.2704	0.966	0.034
Mof_H 	H 	0.1001	0.2296	0.0356	0.026
Mof_H 	H 	0.0605	0.2296	0.118	0.032
Mof_H 	H 	0.8838	0.2878	0.572	0.371
Mof_H 	H 	0.8869	0.2133	0.5424	0.418
Mof_H 	H 	0.8699	0.3012	0.4854	-0.231
Mof_H 	H 	0.8328	0.3223	0.5198	-0.13
Mof_H 	H 	0.8263	0.1784	0.5795	-0.16
Mof_H 	H 	0.8588	0.1949	0.623	-0.305
Mof_C 	C 	0.0548	0.494	0.2185	-0.151
Mof_C 	C 	0.0869	0.5674	0.1544	0.071
Mof_C 	C 	0.0815	0.6034	0.1083	-0.195
Mof_C 	C 	0.1495	0.5753	0.0876	-0.02
Mof_C 	C 	0.1225	0.5365	0.1665	0.115
Mof_C 	C 	0.0133	0.48	0.2361	-0.218
Mof_C 	C 	0.8568	0.4076	0.1834	-0.009
Mof_C 	C 	0.885	0.5072	0.2307	-0.052
Mof_C 	C 	0.9189	0.4959	0.2029	-0.126
Mof_C 	C 	0.9187	0.439	0.1664	-0.106
Mof_C 	C 	0.9873	0.5304	0.2037	-0.337
Mof_H 	H 	0.067	0.4495	0.2056	-0.114
Mof_H 	H 	0.0706	0.5129	0.2474	0.034
Mof_H 	H 	0.0571	0.6246	0.1	0.112
Mof_H 	H 	0.171	0.578	0.0646	0.052
Mof_H 	H 	0.1251	0.5122	0.1985	0.001
Mof_H 	H 	0.0062	0.4291	0.2297	-0.143
Mof_H 	H 	0.0105	0.4899	0.2734	0.1
Mof_H 	H 	0.8342	0.3796	0.1776	-0.012
Mof_H 	H 	0.8829	0.5443	0.2556	0.056
Mof_H 	H 	0.9422	0.4328	0.1475	0.065
Mof_H 	H 	0.9857	0.5143	0.1673	-0.466
Mof_H 	H 	0.9973	0.5801	0.2046	0.131
Mof_O 	O 	0.9498	0.5257	0.2286	-0.028
Mof_O 	O 	0.0518	0.5467	0.1773	-0.129
Mof_Cu	Cu	0.72642	0.03468	0.83241	0.907
Mof_Cu	Cu	0.76451	0.96321	0.75742	0.9
Mof_C 	C 	0.6107	0.8387	0.6084	0.374
Mof_O 	O 	0.68276	0.0117	0.7873	-0.418
Mof_C 	C 	0.6114	0.8905	0.6545	-0.052
Mof_O 	O 	0.7139	0.9546	0.7242	-0.422
Mof_O 	O 	0.64405	0.825	0.5936	-0.415
Mof_C 	C 	0.6464	0.9607	0.72	-0.078
Mof_O 	O 	0.57866	0.8226	0.593	-0.418
Mof_C 	C 	0.6849	0.9805	0.7442	0.377
Mof_C 	C 	0.6469	0.912	0.6776	0.028
Mof_H 	H 	0.6709	0.8941	0.6648	0.068
Mof_C 	C 	0.611	0.986	0.7394	0.026
Mof_H 	H 	0.6108	0.0185	0.7676	0.021
Mof_O 	O 	0.543	0.9787	0.7428	-0.17
Mof_C 	C 	0.5093	0.9871	0.7123	-0.083
Mof_H 	H 	0.5168	0.9947	0.6758	0.658
Mof_H 	H 	0.4946	0.0297	0.7241	0.275
Mof_C 	C 	0.4844	0.9234	0.7162	0.361
Mof_H 	H 	0.4827	0.9079	0.7527	-0.003
Mof_H 	H 	0.4958	0.8838	0.6957	-0.08
Mof_C 	C 	0.4442	0.9407	0.696	0.068
Mof_H 	H 	0.4296	0.8961	0.6892	0.017
Mof_H 	H 	0.4297	0.9694	0.7217	0.175
Mof_O 	O 	0.4491	0.9818	0.6477	-0.156
Mof_C 	C 	0.4132	0.0131	0.6256	0.095
Mof_C 	C 	0.4164	0.0657	0.5891	0.107
Mof_H 	H 	0.4412	0.0741	0.5741	0.026
Mof_C 	C 	0.35	0.0928	0.5963	-0.005
Mof_H 	H 	0.3279	0.1203	0.5866	0.043
Mof_C 	C 	0.3773	0.9988	0.6485	-0.221
Mof_H 	H 	0.3746	0.9621	0.6737	0.11
Mof_C 	C 	0.5763	0.9624	0.7153	0.241
Mof_C 	C 	0.5757	0.915	0.6728	0.019
Mof_H 	H 	0.5519	0.9005	0.6574	0.006
Mof_O 	O 	0.42058	0.1775	0.5137	-0.4
Mof_O 	O 	0.35515	0.1777	0.512	-0.43
Mof_O 	O 	0.2772	0.0433	0.6356	-0.424
Mof_O 	O 	0.30848	0.9827	0.6969	-0.418
Mof_C 	C 	0.3852	0.1078	0.5726	-0.049
Mof_C 	C 	0.3454	0.0397	0.6334	-0.045
Mof_C 	C 	0.3059	0.0244	0.6584	0.363
Mof_C 	C 	0.3862	0.1649	0.53	0.362
Mof_C 	C 	0.7314	0.8864	0.8426	0.29
Mof_O 	O 	0.7209	0.9415	0.8645	-0.393
Mof_C 	C 	0.7237	0.8168	0.8678	0.055
Mof_O 	O 	0.7525	0.8779	0.8006	-0.372
Mof_C 	C 	0.7041	0.8158	0.9143	-0.26
Mof_H 	H 	0.6959	0.8591	0.9301	0.158
Mof_O 	O 	0.7297	0.9395	0.228	-0.386
Mof_O 	O 	0.7636	0.8786	0.29	-0.4
Mof_C 	C 	0.7134	0.8118	0.1818	-0.402
Mof_H 	H 	0.7069	0.8562	0.1662	0.211
Mof_C 	C 	0.7343	0.81453	0.2272	0.135
Mof_C 	C 	0.74403	0.8852	0.2524	0.287
Mof_C 	C 	0.49039	0.7704	0.5775	0.039
Mof_N 	N 	0.50936	0.7296	0.5392	-0.105
Mof_C 	C 	0.48931	0.7296	0.4933	0.015
Mof_C 	C 	0.44896	0.7296	0.4981	-0.028
Mof_C 	C 	0.42751	0.7704	0.5367	-0.006
Mof_C 	C 	0.45103	0.7704	0.5846	-0.039
Mof_O 	O 	0.6736	0.7737	0.9826	-0.413
Mof_O 	O 	0.6798	0.7236	0.1129	-0.672
Mof_C 	C 	0.6502	0.7178	0.0091	0.811
Mof_C 	C 	0.6569	0.7841	0.0947	1.14
Mof_H 	H 	0.5051	0.7704	0.6086	0.013
Mof_H 	H 	0.502	0.7296	0.4607	0.022
Mof_H 	H 	0.4354	0.7296	0.466	0.034
Mof_H 	H 	0.3999	0.7704	0.5356	0.026
Mof_H 	H 	0.4395	0.7704	0.618	0.032
Mof_H 	H 	0.6162	0.7122	0.072	0.371
Mof_H 	H 	0.6131	0.7867	0.0424	0.419
Mof_H 	H 	0.6301	0.6988	0.9854	-0.231
Mof_H 	H 	0.6672	0.6777	0.0198	-0.13
Mof_H 	H 	0.6737	0.8216	0.0795	-0.16
Mof_H 	H 	0.6412	0.8051	0.123	-0.305
Mof_C 	C 	0.4452	0.506	0.7185	-0.151
Mof_C 	C 	0.4131	0.4326	0.6544	0.071
Mof_C 	C 	0.4185	0.3966	0.6083	-0.194
Mof_C 	C 	0.3505	0.4247	0.5876	-0.02
Mof_C 	C 	0.3775	0.4635	0.6665	0.114
Mof_C 	C 	0.4867	0.52	0.7361	-0.219
Mof_C 	C 	0.6432	0.5924	0.6834	-0.009
Mof_C 	C 	0.615	0.4928	0.7307	-0.052
Mof_C 	C 	0.5811	0.5041	0.7029	-0.125
Mof_C 	C 	0.5813	0.561	0.6664	-0.106
Mof_C 	C 	0.5127	0.4696	0.7037	-0.336
Mof_H 	H 	0.433	0.5505	0.7056	-0.114
Mof_H 	H 	0.4294	0.4871	0.7474	0.034
Mof_H 	H 	0.4429	0.3754	0.6	0.112
Mof_H 	H 	0.329	0.422	0.5646	0.052
Mof_H 	H 	0.3749	0.4878	0.6985	0.001
Mof_H 	H 	0.4938	0.5709	0.7297	-0.143
Mof_H 	H 	0.4895	0.5101	0.7734	0.1
Mof_H 	H 	0.6658	0.6204	0.6776	-0.012
Mof_H 	H 	0.6171	0.4557	0.7556	0.056
Mof_H 	H 	0.5578	0.5672	0.6475	0.065
Mof_H 	H 	0.5143	0.4857	0.6673	-0.466
Mof_H 	H 	0.5027	0.4199	0.7046	0.131
Mof_O 	O 	0.5502	0.4743	0.7286	-0.028
Mof_O 	O 	0.4482	0.4533	0.6773	-0.129
Mof_Cu	Cu	0.22642	0.46532	0.66759	0.907
Mof_Cu	Cu	0.26451	0.53679	0.74258	0.9
Mof_C 	C 	0.1107	0.6613	0.8916	0.374
Mof_O 	O 	0.18276	0.4883	0.7127	-0.418
Mof_C 	C 	0.1114	0.6095	0.8455	-0.052
Mof_O 	O 	0.2139	0.5454	0.7758	-0.422
Mof_O 	O 	0.14405	0.675	0.9064	-0.415
Mof_C 	C 	0.1464	0.5393	0.78	-0.078
Mof_O 	O 	0.07866	0.6774	0.907	-0.418
Mof_C 	C 	0.1849	0.5195	0.7558	0.377
Mof_C 	C 	0.1469	0.588	0.8224	0.028
Mof_H 	H 	0.1709	0.6059	0.8352	0.067
Mof_C 	C 	0.111	0.514	0.7606	0.026
Mof_H 	H 	0.1108	0.4815	0.7324	0.021
Mof_O 	O 	0.043	0.5213	0.7572	-0.17
Mof_C 	C 	0.0093	0.5129	0.7877	-0.083
Mof_H 	H 	0.0168	0.5053	0.8242	0.659
Mof_H 	H 	0.9946	0.4703	0.7759	0.276
Mof_C 	C 	0.9844	0.5766	0.7838	0.361
Mof_H 	H 	0.9827	0.5921	0.7473	-0.003
Mof_H 	H 	0.9958	0.6162	0.8043	-0.08
Mof_C 	C 	0.9442	0.5593	0.804	0.068
Mof_H 	H 	0.9296	0.6039	0.8108	0.017
Mof_H 	H 	0.9297	0.5306	0.7783	0.175
Mof_O 	O 	0.9491	0.5182	0.8523	-0.156
Mof_C 	C 	0.9132	0.4869	0.8744	0.096
Mof_C 	C 	0.9164	0.4343	0.9109	0.097
Mof_H 	H 	0.9412	0.4259	0.9259	0.029
Mof_C 	C 	0.85	0.4072	0.9037	-0.005
Mof_H 	H 	0.8279	0.3797	0.9134	0.043
Mof_C 	C 	0.8773	0.5012	0.8515	-0.213
Mof_H 	H 	0.8746	0.5379	0.8263	0.108
Mof_C 	C 	0.0763	0.5376	0.7847	0.24
Mof_C 	C 	0.0757	0.585	0.8272	0.019
Mof_H 	H 	0.0519	0.5995	0.8426	0.006
Mof_O 	O 	0.92058	0.3225	0.9863	-0.4
Mof_O 	O 	0.85515	0.3223	0.988	-0.429
Mof_O 	O 	0.7772	0.4567	0.8644	-0.424
Mof_O 	O 	0.80848	0.5173	0.8031	-0.418
Mof_C 	C 	0.8852	0.3922	0.9274	-0.048
Mof_C 	C 	0.8454	0.4603	0.8666	-0.045
Mof_C 	C 	0.8059	0.4756	0.8416	0.363
Mof_C 	C 	0.8862	0.3351	0.97	0.361
Mof_C 	C 	0.2314	0.6136	0.6574	0.29
Mof_O 	O 	0.2209	0.5585	0.6355	-0.393
Mof_C 	C 	0.2237	0.6832	0.6322	0.055
Mof_O 	O 	0.2525	0.6221	0.6994	-0.372
Mof_C 	C 	0.2041	0.6842	0.5857	-0.26
Mof_H 	H 	0.1959	0.6409	0.5699	0.158
Mof_O 	O 	0.2297	0.5605	0.272	-0.386
Mof_O 	O 	0.2636	0.6214	0.21	-0.401
Mof_C 	C 	0.2134	0.6882	0.3182	-0.402
Mof_H 	H 	0.2069	0.6438	0.3338	0.211
Mof_C 	C 	0.2343	0.68547	0.2728	0.135
Mof_C 	C 	0.24403	0.6148	0.2476	0.287
Mof_C 	C 	0.99039	0.7296	0.9225	0.04
Mof_N 	N 	0.00936	0.7704	0.9608	-0.106
Mof_C 	C 	0.98931	0.7704	0.0067	0.015
Mof_C 	C 	0.94896	0.7704	0.0019	-0.028
Mof_C 	C 	0.92751	0.7296	0.9633	-0.006
Mof_C 	C 	0.95103	0.7296	0.9154	-0.04
Mof_O 	O 	0.1736	0.7263	0.5174	-0.413
Mof_O 	O 	0.1798	0.7764	0.3871	-0.672
Mof_C 	C 	0.1502	0.7822	0.4909	0.811
Mof_C 	C 	0.1569	0.7159	0.4053	1.14
Mof_H 	H 	0.0051	0.7296	0.8914	0.012
Mof_H 	H 	0.002	0.7704	0.0393	0.022
Mof_H 	H 	0.9354	0.7704	0.034	0.034
Mof_H 	H 	0.8999	0.7296	0.9644	0.026
Mof_H 	H 	0.9395	0.7296	0.882	0.032
Mof_H 	H 	0.1162	0.7878	0.428	0.371
Mof_H 	H 	0.1131	0.7133	0.4576	0.418
Mof_H 	H 	0.1301	0.8012	0.5146	-0.231
Mof_H 	H 	0.1672	0.8223	0.4802	-0.13
Mof_H 	H 	0.1737	0.6784	0.4205	-0.16
Mof_H 	H 	0.1412	0.6949	0.377	-0.305
Mof_C 	C 	0.9452	0.994	0.7815	-0.154
Mof_C 	C 	0.9131	0.0674	0.8456	0.069
Mof_C 	C 	0.9185	0.1034	0.8917	-0.179
Mof_C 	C 	0.8505	0.0753	0.9124	-0.02
Mof_C 	C 	0.8775	0.0365	0.8335	0.103
Mof_C 	C 	0.9867	0.98	0.7639	-0.208
Mof_C 	C 	0.1432	0.9076	0.8166	-0.009
Mof_C 	C 	0.115	0.0072	0.7693	-0.055
Mof_C 	C 	0.0811	0.9959	0.7971	-0.126
Mof_C 	C 	0.0813	0.939	0.8336	-0.106
Mof_C 	C 	0.0127	0.0304	0.7963	-0.321
Mof_H 	H 	0.933	0.9495	0.7944	-0.113
Mof_H 	H 	0.9294	0.0129	0.7526	0.034
Mof_H 	H 	0.9429	0.1246	0.9	0.106
Mof_H 	H 	0.829	0.078	0.9354	0.052
Mof_H 	H 	0.8749	0.0122	0.8015	0.004
Mof_H 	H 	0.9938	0.9291	0.7703	-0.145
Mof_H 	H 	0.9895	0.9899	0.7266	0.097
Mof_H 	H 	0.1658	0.8796	0.8224	-0.012
Mof_H 	H 	0.1171	0.0443	0.7444	0.057
Mof_H 	H 	0.0578	0.9328	0.8525	0.065
Mof_H 	H 	0.0143	0.0143	0.8327	-0.446
Mof_H 	H 	0.0027	0.0801	0.7954	0.127
Mof_O 	O 	0.0502	0.0257	0.7714	-0.03
Mof_O 	O 	0.9482	0.0467	0.8227	-0.129
Mof_Cu	Cu	0.27358	0.53468	0.16759	0.907
Mof_Cu	Cu	0.23549	0.46321	0.24258	0.9
Mof_C 	C 	0.3893	0.3387	0.3916	0.374
Mof_O 	O 	0.31724	0.5117	0.2127	-0.418
Mof_C 	C 	0.3886	0.3905	0.3455	-0.052
Mof_O 	O 	0.2861	0.4546	0.2758	-0.422
Mof_O 	O 	0.35595	0.325	0.4064	-0.415
Mof_C 	C 	0.3536	0.4607	0.28	-0.078
Mof_O 	O 	0.42134	0.3226	0.407	-0.418
Mof_C 	C 	0.3151	0.4805	0.2558	0.377
Mof_C 	C 	0.3531	0.412	0.3224	0.028
Mof_H 	H 	0.3291	0.3941	0.3352	0.067
Mof_C 	C 	0.389	0.486	0.2606	0.026
Mof_H 	H 	0.3892	0.5185	0.2324	0.021
Mof_O 	O 	0.457	0.4787	0.2572	-0.169
Mof_C 	C 	0.4907	0.4871	0.2877	-0.083
Mof_H 	H 	0.4832	0.4947	0.3242	0.659
Mof_H 	H 	0.5054	0.5297	0.2759	0.275
Mof_C 	C 	0.5156	0.4234	0.2838	0.361
Mof_H 	H 	0.5173	0.4079	0.2473	-0.003
Mof_H 	H 	0.5042	0.3838	0.3043	-0.08
Mof_C 	C 	0.5558	0.4407	0.304	0.068
Mof_H 	H 	0.5704	0.3961	0.3108	0.017
Mof_H 	H 	0.5703	0.4694	0.2783	0.175
Mof_O 	O 	0.5509	0.4818	0.3523	-0.157
Mof_C 	C 	0.5868	0.5131	0.3744	0.096
Mof_C 	C 	0.5836	0.5657	0.4109	0.096
Mof_H 	H 	0.5588	0.5741	0.4259	0.029
Mof_C 	C 	0.65	0.5928	0.4037	-0.005
Mof_H 	H 	0.6721	0.6203	0.4134	0.043
Mof_C 	C 	0.6227	0.4988	0.3515	-0.212
Mof_H 	H 	0.6254	0.4621	0.3263	0.108
Mof_C 	C 	0.4237	0.4624	0.2847	0.24
Mof_C 	C 	0.4243	0.415	0.3272	0.019
Mof_H 	H 	0.4481	0.4005	0.3426	0.006
Mof_O 	O 	0.57942	0.6775	0.4863	-0.4
Mof_O 	O 	0.64485	0.6777	0.488	-0.43
Mof_O 	O 	0.7228	0.5433	0.3644	-0.424
Mof_O 	O 	0.69152	0.4827	0.3031	-0.418
Mof_C 	C 	0.6148	0.6078	0.4274	-0.048
Mof_C 	C 	0.6546	0.5397	0.3666	-0.045
Mof_C 	C 	0.6941	0.5244	0.3416	0.363
Mof_C 	C 	0.6138	0.6649	0.47	0.361
Mof_C 	C 	0.2686	0.3864	0.1574	0.29
Mof_O 	O 	0.2791	0.4415	0.1355	-0.393
Mof_C 	C 	0.2763	0.3168	0.1322	0.055
Mof_O 	O 	0.2475	0.3779	0.1994	-0.372
Mof_C 	C 	0.2959	0.3158	0.0857	-0.26
Mof_H 	H 	0.3041	0.3591	0.0699	0.158
Mof_O 	O 	0.2703	0.4395	0.772	-0.386
Mof_O 	O 	0.2364	0.3786	0.71	-0.401
Mof_C 	C 	0.2866	0.3118	0.8182	-0.402
Mof_H 	H 	0.2931	0.3562	0.8338	0.211
Mof_C 	C 	0.2657	0.31453	0.7728	0.135
Mof_C 	C 	0.25597	0.3852	0.7476	0.287
Mof_C 	C 	0.50961	0.2704	0.4225	0.039
Mof_N 	N 	0.49064	0.2296	0.4608	-0.105
Mof_C 	C 	0.51069	0.2296	0.5067	0.015
Mof_C 	C 	0.55104	0.2296	0.5019	-0.028
Mof_C 	C 	0.57249	0.2704	0.4633	-0.006
Mof_C 	C 	0.54897	0.2704	0.4154	-0.039
Mof_O 	O 	0.3264	0.2737	0.0174	-0.413
Mof_O 	O 	0.3202	0.2236	0.8871	-0.672
Mof_C 	C 	0.3498	0.2178	0.9909	0.81
Mof_C 	C 	0.3431	0.2841	0.9053	1.14
Mof_H 	H 	0.4949	0.2704	0.3914	0.013
Mof_H 	H 	0.498	0.2296	0.5393	0.022
Mof_H 	H 	0.5646	0.2296	0.534	0.034
Mof_H 	H 	0.6001	0.2704	0.4644	0.026
Mof_H 	H 	0.5605	0.2704	0.382	0.032
Mof_H 	H 	0.3838	0.2122	0.928	0.371
Mof_H 	H 	0.3869	0.2867	0.9576	0.418
Mof_H 	H 	0.3699	0.1988	0.0146	-0.231
Mof_H 	H 	0.3328	0.1777	0.9802	-0.13
Mof_H 	H 	0.3263	0.3216	0.9205	-0.16
Mof_H 	H 	0.3588	0.3051	0.877	-0.305
Mof_C 	C 	0.5548	0.006	0.2815	-0.152
Mof_C 	C 	0.5869	0.9326	0.3456	0.071
Mof_C 	C 	0.5815	0.8966	0.3917	-0.204
Mof_C 	C 	0.6495	0.9247	0.4124	-0.02
Mof_C 	C 	0.6225	0.9635	0.3335	0.122
Mof_C 	C 	0.5133	0.02	0.2639	-0.218
Mof_C 	C 	0.3568	0.0924	0.3166	-0.009
Mof_C 	C 	0.385	0.9928	0.2693	-0.052
Mof_C 	C 	0.4189	0.0041	0.2971	-0.126
Mof_C 	C 	0.4187	0.061	0.3336	-0.106
Mof_C 	C 	0.4873	0.9696	0.2963	-0.336
Mof_H 	H 	0.567	0.0505	0.2944	-0.114
Mof_H 	H 	0.5706	0.9871	0.2526	0.034
Mof_H 	H 	0.5571	0.8754	0.4	0.115
Mof_H 	H 	0.671	0.922	0.4354	0.052
Mof_H 	H 	0.6251	0.9878	0.3015	-0.001
Mof_H 	H 	0.5062	0.0709	0.2703	-0.143
Mof_H 	H 	0.5105	0.0101	0.2266	0.099
Mof_H 	H 	0.3342	0.1204	0.3224	-0.012
Mof_H 	H 	0.3829	0.9557	0.2444	0.056
Mof_H 	H 	0.4422	0.0672	0.3525	0.065
Mof_H 	H 	0.4857	0.9857	0.3327	-0.465
Mof_H 	H 	0.4973	0.9199	0.2954	0.13
Mof_O 	O 	0.4498	0.9743	0.2714	-0.028
Mof_O 	O 	0.5518	0.9533	0.3227	-0.129
Mof_Cu	Cu	0.15003	0.75	0.95891	0.908
Mof_Cu	Cu	0.07238	0.75	0.9606	0.922
Mof_C 	C 	0.2349	0.75	0.6515	-0.094
Mof_H 	H 	0.2518	0.75	0.6806	0.091
Mof_C 	C 	0.1966	0.75	0.5622	0.45
Mof_C 	C 	0.2011	0.75	0.3432	0.701
Mof_C 	C 	0.247	0.75	0.2517	-0.164
Mof_H 	H 	0.2642	0.75	0.223	0.116
Mof_C 	C 	0.1317	0.75	0.4452	-2.38
Mof_Cu	Cu	0.34997	0.25	0.45891	0.908
Mof_Cu	Cu	0.42762	0.25	0.4606	0.922
Mof_C 	C 	0.2651	0.25	0.1515	-0.094
Mof_H 	H 	0.2482	0.25	0.1806	0.091
Mof_C 	C 	0.3034	0.25	0.0622	0.45
Mof_C 	C 	0.2989	0.25	0.8432	0.701
Mof_C 	C 	0.253	0.25	0.7517	-0.164
Mof_H 	H 	0.2358	0.25	0.723	0.116
Mof_C 	C 	0.3683	0.25	0.9452	-2.38
Mof_Cu	Cu	0.84997	0.25	0.04109	0.908
Mof_Cu	Cu	0.92762	0.25	0.0394	0.922
Mof_C 	C 	0.7651	0.25	0.3485	-0.094
Mof_H 	H 	0.7482	0.25	0.3194	0.091
Mof_C 	C 	0.8034	0.25	0.4378	0.45
Mof_C 	C 	0.7989	0.25	0.6568	0.701
Mof_C 	C 	0.753	0.25	0.7483	-0.164
Mof_H 	H 	0.7358	0.25	0.777	0.116
Mof_C 	C 	0.8683	0.25	0.5548	-2.38
Mof_Cu	Cu	0.65003	0.75	0.54109	0.908
Mof_Cu	Cu	0.57238	0.75	0.5394	0.922
Mof_C 	C 	0.7349	0.75	0.8485	-0.094
Mof_H 	H 	0.7518	0.75	0.8194	0.091
Mof_C 	C 	0.6966	0.75	0.9378	0.45
Mof_C 	C 	0.7011	0.75	0.1568	0.701
Mof_C 	C 	0.747	0.75	0.2483	-0.164
Mof_H 	H 	0.7642	0.75	0.277	0.116
Mof_C 	C 	0.6317	0.75	0.0548	-2.38
_end
