data_functionalizedCrystal
_audit_creation_method	'EQeq! by Chris Wilmer'
_symmetry_space_group_name_H-M	'P1'
_symmetry_Int_Tables_number	1
_symmetry_cell_setting	triclinic
loop_
_symmetry_equiv_pos_as_xyz
  x,y,z
_cell_length_a	9.4977
_cell_length_b	12.627
_cell_length_c	18.7072
_cell_angle_alpha	106.096
_cell_angle_beta	98.452
_cell_angle_gamma	100.275
loop_
_atom_site_label
_atom_site_type_symbol
_atom_site_fract_x
_atom_site_fract_y
_atom_site_fract_z
_atom_site_charge
Mof_Eu	Eu	0.23517	0.01618	0.00304	2.24
Mof_O 	O 	0.4505	0.0286	0.0857	-0.648
Mof_N 	N 	0.0053	0.1521	0.6826	-0.114
Mof_N 	N 	0.9564	0.6082	0.6732	-0.11
Mof_O 	O 	0.6825	0.0212	0.1155	-0.584
Mof_O 	O 	0.7765	0.8287	0.8891	-0.534
Mof_O 	O 	0.0183	0.8912	0.9251	-0.598
Mof_O 	O 	0.8628	0.0672	0.9075	-0.537
Mof_O 	O 	0.1079	0.1214	0.9409	-0.557
Mof_C 	C 	0.9198	0.2324	0.5784	-0.162
Mof_C 	C 	0.9038	0.8281	0.8806	0.47
Mof_C 	C 	0.563	0.0792	0.2156	-0.149
Mof_N 	N 	0.5659	0.1651	0.3671	-0.111
Mof_C 	C 	0.9028	0.4184	0.5735	-0.152
Mof_C 	C 	0.7066	0.2556	0.5028	-0.15
Mof_C 	C 	0.4364	0.1006	0.2399	0.005
Mof_H 	H 	0.3485	0.0881	0.204	0.032
Mof_C 	C 	0.7685	0.3718	0.5229	0.179
Mof_C 	C 	0.9787	0.3476	0.6026	0.209
Mof_C 	C 	0.6888	0.0984	0.2696	-0.003
Mof_H 	H 	0.7764	0.0835	0.2545	0.038
Mof_C 	C 	0.5648	0.0386	0.1316	0.521
Mof_C 	C 	0.6854	0.1398	0.3463	-0.002
Mof_H 	H 	0.77	0.15	0.3839	0.033
Mof_C 	C 	0.0615	0.7394	0.7966	0.015
Mof_H 	H 	0.1455	0.7821	0.8347	0.002
Mof_C 	C 	0.9218	0.7436	0.8081	-0.137
Mof_C 	C 	0.8787	0.1465	0.7051	0.008
Mof_H 	H 	0.7948	0.1518	0.6729	0.025
Mof_C 	C 	0.4401	0.1403	0.3168	-0.01
Mof_H 	H 	0.3527	0.1502	0.3341	0.028
Mof_C 	C 	0.8681	0.1328	0.7761	-0.014
Mof_H 	H 	0.7787	0.1306	0.7933	0.034
Mof_C 	C 	0.802	0.6775	0.7542	-0.005
Mof_H 	H 	0.7064	0.6782	0.7634	0.032
Mof_C 	C 	0.122	0.1314	0.795	-0.003
Mof_H 	H 	0.2093	0.1291	0.8261	0.028
Mof_C 	C 	0.994	0.1225	0.8209	-0.124
Mof_C 	C 	0.7834	0.1836	0.5293	0.204
Mof_C 	C 	0.1221	0.4001	0.6579	-0.558
Mof_H 	H 	0.1614	0.3409	0.6729	0.186
Mof_H 	H 	0.1074	0.4552	0.7031	0.188
Mof_H 	H 	0.1913	0.4386	0.634	0.175
Mof_C 	C 	0.0083	0.1552	0.6021	-0.017
Mof_H 	H 	0.111	0.1806	0.5984	0.021
Mof_H 	H 	0.97	0.0775	0.5663	0.029
Mof_C 	C 	0.0739	0.6695	0.7263	-0.012
Mof_H 	H 	0.1684	0.6658	0.7163	0.026
Mof_C 	C 	0.9745	0.5434	0.597	-0.011
Mof_H 	H 	0.0803	0.5522	0.5972	0.028
Mof_H 	H 	0.9322	0.576	0.5588	0.027
Mof_C 	C 	0.8214	0.6109	0.6873	-0.002
Mof_H 	H 	0.7382	0.5652	0.6496	0.024
Mof_C 	C 	0.125	0.1437	0.7236	-0.003
Mof_H 	H 	0.2127	0.1461	0.7047	0.019
Mof_C 	C 	0.987	0.1023	0.8961	0.479
Mof_C 	C 	0.6824	0.4472	0.4898	-0.509
Mof_H 	H 	0.6131	0.4703	0.5216	0.161
Mof_H 	H 	0.6289	0.4041	0.4379	0.168
Mof_H 	H 	0.751	0.5145	0.489	0.164
Mof_C 	C 	0.5567	0.2051	0.451	-0.014
Mof_H 	H 	0.4972	0.2626	0.4587	0.025
Mof_H 	H 	0.507	0.1402	0.465	0.018
Mof_C 	C 	0.7215	0.058	0.5043	-0.561
Mof_H 	H 	0.7796	0.0195	0.4709	0.183
Mof_H 	H 	0.62	0.0408	0.4767	0.183
Mof_H 	H 	0.7246	0.0318	0.549	0.184
Mof_Eu	Eu	0.76483	0.98382	0.99696	2.24
Mof_O 	O 	0.5495	0.9714	0.9143	-0.648
Mof_N 	N 	0.9947	0.8479	0.3174	-0.114
Mof_N 	N 	0.0436	0.3918	0.3268	-0.11
Mof_O 	O 	0.3175	0.9788	0.8845	-0.584
Mof_O 	O 	0.2235	0.1713	0.1109	-0.534
Mof_O 	O 	0.9817	0.1088	0.0749	-0.598
Mof_O 	O 	0.1372	0.9328	0.0925	-0.537
Mof_O 	O 	0.8921	0.8786	0.0591	-0.557
Mof_C 	C 	0.0802	0.7676	0.4216	-0.162
Mof_C 	C 	0.0962	0.1719	0.1194	0.47
Mof_C 	C 	0.437	0.9208	0.7844	-0.149
Mof_N 	N 	0.4341	0.8349	0.6329	-0.111
Mof_C 	C 	0.0972	0.5816	0.4265	-0.152
Mof_C 	C 	0.2934	0.7444	0.4972	-0.15
Mof_C 	C 	0.5636	0.8994	0.7601	0.005
Mof_H 	H 	0.6515	0.9119	0.796	0.032
Mof_C 	C 	0.2315	0.6282	0.4771	0.179
Mof_C 	C 	0.0213	0.6524	0.3974	0.209
Mof_C 	C 	0.3112	0.9016	0.7304	-0.003
Mof_H 	H 	0.2236	0.9165	0.7455	0.038
Mof_C 	C 	0.4352	0.9614	0.8684	0.521
Mof_C 	C 	0.3146	0.8602	0.6537	-0.002
Mof_H 	H 	0.23	0.85	0.6161	0.033
Mof_C 	C 	0.9385	0.2606	0.2034	0.015
Mof_H 	H 	0.8545	0.2179	0.1653	0.002
Mof_C 	C 	0.0782	0.2564	0.1919	-0.137
Mof_C 	C 	0.1213	0.8535	0.2949	0.008
Mof_H 	H 	0.2052	0.8482	0.3271	0.025
Mof_C 	C 	0.5599	0.8597	0.6832	-0.01
Mof_H 	H 	0.6473	0.8498	0.6659	0.028
Mof_C 	C 	0.1319	0.8672	0.2239	-0.014
Mof_H 	H 	0.2213	0.8694	0.2067	0.034
Mof_C 	C 	0.198	0.3225	0.2458	-0.005
Mof_H 	H 	0.2936	0.3218	0.2366	0.032
Mof_C 	C 	0.878	0.8686	0.205	-0.003
Mof_H 	H 	0.7907	0.8709	0.1739	0.028
Mof_C 	C 	0.006	0.8775	0.1791	-0.124
Mof_C 	C 	0.2166	0.8164	0.4707	0.204
Mof_C 	C 	0.8779	0.5999	0.3421	-0.558
Mof_H 	H 	0.8386	0.6591	0.3271	0.186
Mof_H 	H 	0.8926	0.5448	0.2969	0.188
Mof_H 	H 	0.8087	0.5614	0.366	0.175
Mof_C 	C 	0.9917	0.8448	0.3979	-0.017
Mof_H 	H 	0.889	0.8194	0.4016	0.021
Mof_H 	H 	0.03	0.9225	0.4337	0.029
Mof_C 	C 	0.9261	0.3305	0.2737	-0.012
Mof_H 	H 	0.8316	0.3342	0.2837	0.026
Mof_C 	C 	0.0255	0.4566	0.403	-0.011
Mof_H 	H 	0.9197	0.4478	0.4028	0.028
Mof_H 	H 	0.0678	0.424	0.4412	0.027
Mof_C 	C 	0.1786	0.3891	0.3127	-0.002
Mof_H 	H 	0.2618	0.4348	0.3504	0.024
Mof_C 	C 	0.875	0.8563	0.2764	-0.003
Mof_H 	H 	0.7873	0.8539	0.2953	0.019
Mof_C 	C 	0.013	0.8977	0.1039	0.479
Mof_C 	C 	0.3176	0.5528	0.5102	-0.509
Mof_H 	H 	0.3869	0.5297	0.4784	0.161
Mof_H 	H 	0.3711	0.5959	0.5621	0.168
Mof_H 	H 	0.249	0.4855	0.511	0.164
Mof_C 	C 	0.4433	0.7949	0.549	-0.014
Mof_H 	H 	0.5028	0.7374	0.5413	0.025
Mof_H 	H 	0.493	0.8598	0.535	0.018
Mof_C 	C 	0.2785	0.942	0.4957	-0.561
Mof_H 	H 	0.2204	0.9805	0.5291	0.183
Mof_H 	H 	0.38	0.9592	0.5233	0.183
Mof_H 	H 	0.2754	0.9682	0.451	0.184
_end
