data_functionalizedCrystal
_audit_creation_method	'EQeq! by Chris Wilmer'
_symmetry_space_group_name_H-M	'P1'
_symmetry_Int_Tables_number	1
_symmetry_cell_setting	triclinic
loop_
_symmetry_equiv_pos_as_xyz
  x,y,z
_cell_length_a	32.356
_cell_length_b	32.356
_cell_length_c	33.363
_cell_angle_alpha	90
_cell_angle_beta	90
_cell_angle_gamma	120
loop_
_atom_site_label
_atom_site_type_symbol
_atom_site_fract_x
_atom_site_fract_y
_atom_site_fract_z
_atom_site_charge
Mof_Fe	Fe	0.1965	0.8527	0.03549	0.994
Mof_O 	O 	0.13147	0.73227	0.05475	-0.48
Mof_O 	O 	0.18692	0.78943	0.01641	-0.423
Mof_O 	O 	0.3014	0.6949	0.95312	-0.4
Mof_O 	O 	0.2968	0.7581	0.9367	-0.441
Mof_H 	H 	0.3224	0.7659	0.9246	0.195
Mof_O 	O 	0.13407	0.39391	0.058	-0.398
Mof_O 	O 	0.11735	0.37363	0.12243	-0.388
Mof_O 	O 	0.03416	0.44595	0.19622	-0.497
Mof_O 	O 	0.03699	0.51066	0.1698	-0.429
Mof_C 	C 	0.1647	0.7479	0.0296	0.441
Mof_C 	C 	0.1807	0.7142	0.01471	-0.127
Mof_C 	C 	0.2208	0.7311	0.9901	0.067
Mof_H 	H 	0.2365	0.7634	0.9813	0.044
Mof_C 	C 	0.2379	0.7011	0.9782	-0.127
Mof_C 	C 	0.214	0.6538	0.9904	0.009
Mof_H 	H 	0.2251	0.633	0.9818	0.053
Mof_C 	C 	0.1741	0.6365	0.0149	-0.004
Mof_C 	C 	0.158	0.6677	0.0266	0.009
Mof_H 	H 	0.1305	0.6561	0.0432	0.051
Mof_C 	C 	0.2829	0.719	0.9552	0.447
Mof_C 	C 	0.1512	0.5886	0.03	0.001
Mof_C 	C 	0.1345	0.5513	0.0463	-0.005
Mof_C 	C 	0.1162	0.5109	0.07324	0.003
Mof_C 	C 	0.1248	0.4733	0.06871	-0.002
Mof_H 	H 	0.1409	0.4717	0.0454	0.058
Mof_C 	C 	0.1104	0.4381	0.09744	-0.109
Mof_C 	C 	0.0853	0.43929	0.13053	0.06
Mof_H 	H 	0.0754	0.4151	0.1504	0.044
Mof_C 	C 	0.0746	0.4755	0.13504	-0.124
Mof_C 	C 	0.0907	0.5114	0.1066	0.002
Mof_H 	H 	0.0842	0.5368	0.11	0.053
Mof_C 	C 	0.1213	0.3984	0.09216	0.405
Mof_C 	C 	0.0464	0.4775	0.17	0.448
Mof_Fe	Fe	0.86317	0.18603	0.36882	0.995
Mof_O 	O 	0.79814	0.0656	0.38808	-0.479
Mof_O 	O 	0.85359	0.12276	0.34974	-0.421
Mof_O 	O 	0.96807	0.02823	0.28645	-0.396
Mof_O 	O 	0.96347	0.09143	0.27003	-0.447
Mof_H 	H 	0.98907	0.09923	0.25793	0.213
Mof_O 	O 	0.80074	0.72724	0.39133	-0.396
Mof_O 	O 	0.78402	0.70696	0.45576	-0.386
Mof_O 	O 	0.70083	0.77928	0.52955	-0.493
Mof_O 	O 	0.70366	0.84399	0.50313	-0.421
Mof_C 	C 	0.83137	0.08123	0.36293	0.435
Mof_C 	C 	0.84737	0.04753	0.34804	-0.11
Mof_C 	C 	0.88747	0.06443	0.32343	0.062
Mof_H 	H 	0.90317	0.09673	0.31463	0.048
Mof_C 	C 	0.90457	0.03443	0.31153	-0.132
Mof_C 	C 	0.88067	0.98713	0.32373	0.015
Mof_H 	H 	0.89177	0.96633	0.31513	0.056
Mof_C 	C 	0.84077	0.96983	0.34823	0.021
Mof_C 	C 	0.82467	0.00103	0.35993	-0.034
Mof_H 	H 	0.79717	0.98943	0.37653	0.076
Mof_C 	C 	0.94957	0.05233	0.28853	0.451
Mof_C 	C 	0.81787	0.92193	0.36333	-0.006
Mof_C 	C 	0.80117	0.88463	0.37963	0.003
Mof_C 	C 	0.78287	0.84423	0.40657	0.002
Mof_C 	C 	0.79147	0.80663	0.40204	-0.001
Mof_H 	H 	0.80757	0.80503	0.37873	0.058
Mof_C 	C 	0.77707	0.77143	0.43077	-0.109
Mof_C 	C 	0.75197	0.77262	0.46386	0.06
Mof_H 	H 	0.74207	0.74843	0.48373	0.045
Mof_C 	C 	0.74127	0.80883	0.46837	-0.122
Mof_C 	C 	0.75737	0.84473	0.43993	0.003
Mof_H 	H 	0.75087	0.87013	0.44333	0.055
Mof_C 	C 	0.78797	0.73173	0.42549	0.406
Mof_C 	C 	0.71307	0.81083	0.50333	0.447
Mof_Fe	Fe	0.52983	0.51937	0.70216	0.996
Mof_O 	O 	0.4648	0.39894	0.72142	-0.478
Mof_O 	O 	0.52025	0.4561	0.68308	-0.422
Mof_O 	O 	0.63473	0.36157	0.61979	-0.399
Mof_O 	O 	0.63013	0.42477	0.60337	-0.44
Mof_H 	H 	0.65573	0.43257	0.59127	0.196
Mof_O 	O 	0.4674	0.06058	0.72467	-0.397
Mof_O 	O 	0.45068	0.0403	0.7891	-0.393
Mof_O 	O 	0.36749	0.11262	0.86289	-0.494
Mof_O 	O 	0.37032	0.17733	0.83647	-0.422
Mof_C 	C 	0.49803	0.41457	0.69627	0.442
Mof_C 	C 	0.51403	0.38087	0.68138	-0.126
Mof_C 	C 	0.55413	0.39777	0.65677	0.068
Mof_H 	H 	0.56983	0.43007	0.64797	0.045
Mof_C 	C 	0.57123	0.36777	0.64487	-0.126
Mof_C 	C 	0.54733	0.32047	0.65707	0.01
Mof_H 	H 	0.55843	0.29967	0.64847	0.054
Mof_C 	C 	0.50743	0.30317	0.68157	-0.003
Mof_C 	C 	0.49133	0.33437	0.69327	0.01
Mof_H 	H 	0.46383	0.32277	0.70987	0.053
Mof_C 	C 	0.61623	0.38567	0.62187	0.448
Mof_C 	C 	0.48453	0.25527	0.69667	0.002
Mof_C 	C 	0.46783	0.21797	0.71297	-0.004
Mof_C 	C 	0.44953	0.17757	0.73991	0.004
Mof_C 	C 	0.45813	0.13997	0.73538	-0.002
Mof_H 	H 	0.47423	0.13837	0.71207	0.058
Mof_C 	C 	0.44373	0.10477	0.76411	-0.11
Mof_C 	C 	0.41863	0.10596	0.7972	0.06
Mof_H 	H 	0.40873	0.08177	0.81707	0.043
Mof_C 	C 	0.40793	0.14217	0.80171	-0.123
Mof_C 	C 	0.42403	0.17807	0.77327	0.002
Mof_H 	H 	0.41753	0.20347	0.77667	0.054
Mof_C 	C 	0.45463	0.06507	0.75883	0.406
Mof_C 	C 	0.37973	0.14417	0.83667	0.446
Mof_Fe	Fe	0.1473	0.3438	0.03549	0.996
Mof_O 	O 	0.26773	0.3992	0.05475	-0.478
Mof_O 	O 	0.21057	0.39749	0.01641	-0.423
Mof_O 	O 	0.3051	0.6065	0.95312	-0.399
Mof_O 	O 	0.2419	0.5387	0.9367	-0.441
Mof_H 	H 	0.2341	0.5565	0.9246	0.196
Mof_O 	O 	0.60609	0.74016	0.058	-0.396
Mof_O 	O 	0.62637	0.74372	0.12243	-0.386
Mof_O 	O 	0.55405	0.58821	0.19622	-0.493
Mof_O 	O 	0.48934	0.52633	0.1698	-0.422
Mof_C 	C 	0.2521	0.4168	0.0296	0.442
Mof_C 	C 	0.2858	0.4665	0.01471	-0.126
Mof_C 	C 	0.2689	0.4897	0.9901	0.069
Mof_H 	H 	0.2366	0.4731	0.9813	0.045
Mof_C 	C 	0.2989	0.5368	0.9782	-0.126
Mof_C 	C 	0.3462	0.5602	0.9904	0.011
Mof_H 	H 	0.367	0.5921	0.9818	0.054
Mof_C 	C 	0.3635	0.5376	0.0149	-0.003
Mof_C 	C 	0.3323	0.4903	0.0266	0.01
Mof_H 	H 	0.3439	0.4744	0.0432	0.053
Mof_C 	C 	0.281	0.5639	0.9552	0.448
Mof_C 	C 	0.4114	0.5626	0.03	0.002
Mof_C 	C 	0.4487	0.5832	0.0463	-0.004
Mof_C 	C 	0.4891	0.6053	0.07324	0.005
Mof_C 	C 	0.5267	0.6515	0.06871	-0.003
Mof_H 	H 	0.5283	0.6692	0.0454	0.058
Mof_C 	C 	0.5619	0.6723	0.09744	-0.108
Mof_C 	C 	0.56071	0.64601	0.13053	0.059
Mof_H 	H 	0.5849	0.6603	0.1504	0.045
Mof_C 	C 	0.5245	0.5991	0.13504	-0.122
Mof_C 	C 	0.4886	0.5793	0.1066	0.001
Mof_H 	H 	0.4632	0.5474	0.11	0.055
Mof_C 	C 	0.6016	0.7229	0.09216	0.405
Mof_C 	C 	0.5225	0.5689	0.17	0.446
Mof_Fe	Fe	0.81397	0.67713	0.36882	0.996
Mof_O 	O 	0.9344	0.73253	0.38808	-0.477
Mof_O 	O 	0.87724	0.73082	0.34974	-0.423
Mof_O 	O 	0.97177	0.93983	0.28645	-0.384
Mof_O 	O 	0.90857	0.87203	0.27003	-0.437
Mof_H 	H 	0.90077	0.88983	0.25793	0.196
Mof_O 	O 	0.27276	0.07349	0.39133	-0.402
Mof_O 	O 	0.29304	0.07705	0.45576	-0.393
Mof_O 	O 	0.22072	0.92154	0.52955	-0.494
Mof_O 	O 	0.15601	0.85966	0.50313	-0.424
Mof_C 	C 	0.91877	0.75013	0.36293	0.447
Mof_C 	C 	0.95247	0.79983	0.34804	-0.137
Mof_C 	C 	0.93557	0.82303	0.32343	0.072
Mof_H 	H 	0.90327	0.80643	0.31463	0.045
Mof_C 	C 	0.96557	0.87013	0.31153	-0.114
Mof_C 	C 	0.01287	0.89353	0.32373	0.001
Mof_H 	H 	0.03367	0.92543	0.31513	0.057
Mof_C 	C 	0.03017	0.87093	0.34823	-0.019
Mof_C 	C 	0.99897	0.82363	0.35993	0.049
Mof_H 	H 	0.01057	0.80773	0.37653	0.033
Mof_C 	C 	0.94767	0.89723	0.28853	0.442
Mof_C 	C 	0.07807	0.89593	0.36333	0.001
Mof_C 	C 	0.11537	0.91653	0.37963	0.008
Mof_C 	C 	0.15577	0.93863	0.40657	-0.027
Mof_C 	C 	0.19337	0.98483	0.40204	0.064
Mof_H 	H 	0.19497	0.00253	0.37873	0.029
Mof_C 	C 	0.22857	0.00563	0.43077	-0.164
Mof_C 	C 	0.22738	0.97934	0.46386	0.104
Mof_H 	H 	0.25157	0.99363	0.48373	0.034
Mof_C 	C 	0.19117	0.93243	0.46837	-0.146
Mof_C 	C 	0.15527	0.91263	0.43993	0.028
Mof_H 	H 	0.12987	0.88073	0.44333	0.045
Mof_C 	C 	0.26827	0.05623	0.42549	0.423
Mof_C 	C 	0.18917	0.90223	0.50333	0.455
Mof_Fe	Fe	0.48063	0.01047	0.70216	0.982
Mof_O 	O 	0.60106	0.06587	0.72142	-0.479
Mof_O 	O 	0.5439	0.06416	0.68308	-0.423
Mof_O 	O 	0.63843	0.27317	0.61979	-0.399
Mof_O 	O 	0.57523	0.20537	0.60337	-0.441
Mof_H 	H 	0.56743	0.22317	0.59127	0.196
Mof_O 	O 	0.93942	0.40683	0.72467	-0.395
Mof_O 	O 	0.9597	0.41039	0.7891	-0.38
Mof_O 	O 	0.88738	0.25488	0.86289	-0.492
Mof_O 	O 	0.82267	0.193	0.83647	-0.422
Mof_C 	C 	0.58543	0.08347	0.69627	0.441
Mof_C 	C 	0.61913	0.13317	0.68138	-0.126
Mof_C 	C 	0.60223	0.15637	0.65677	0.069
Mof_H 	H 	0.56993	0.13977	0.64797	0.045
Mof_C 	C 	0.63223	0.20347	0.64487	-0.126
Mof_C 	C 	0.67953	0.22687	0.65707	0.011
Mof_H 	H 	0.70033	0.25877	0.64847	0.054
Mof_C 	C 	0.69683	0.20427	0.68157	-0.003
Mof_C 	C 	0.66563	0.15697	0.69327	0.01
Mof_H 	H 	0.67723	0.14107	0.70987	0.053
Mof_C 	C 	0.61433	0.23057	0.62187	0.448
Mof_C 	C 	0.74473	0.22927	0.69667	0.002
Mof_C 	C 	0.78203	0.24987	0.71297	-0.004
Mof_C 	C 	0.82243	0.27197	0.73991	0.005
Mof_C 	C 	0.86003	0.31817	0.73538	-0.003
Mof_H 	H 	0.86163	0.33587	0.71207	0.059
Mof_C 	C 	0.89523	0.33897	0.76411	-0.107
Mof_C 	C 	0.89404	0.31268	0.7972	0.059
Mof_H 	H 	0.91823	0.32697	0.81707	0.046
Mof_C 	C 	0.85783	0.26577	0.80171	-0.121
Mof_C 	C 	0.82193	0.24597	0.77327	0.001
Mof_H 	H 	0.79653	0.21407	0.77667	0.055
Mof_C 	C 	0.93493	0.38957	0.75883	0.405
Mof_C 	C 	0.85583	0.23557	0.83667	0.446
Mof_Fe	Fe	0.6562	0.8035	0.03549	0.996
Mof_O 	O 	0.6008	0.86853	0.05475	-0.478
Mof_O 	O 	0.60251	0.81308	0.01641	-0.422
Mof_O 	O 	0.3935	0.6986	0.95312	-0.399
Mof_O 	O 	0.4613	0.7032	0.9367	-0.44
Mof_H 	H 	0.4435	0.6776	0.9246	0.196
Mof_O 	O 	0.25984	0.86593	0.058	-0.395
Mof_O 	O 	0.25628	0.88265	0.12243	-0.385
Mof_O 	O 	0.41179	0.96584	0.19622	-0.487
Mof_O 	O 	0.47367	0.96301	0.1698	-0.415
Mof_C 	C 	0.5832	0.8353	0.0296	0.442
Mof_C 	C 	0.5335	0.8193	0.01471	-0.125
Mof_C 	C 	0.5103	0.7792	0.9901	0.068
Mof_H 	H 	0.5269	0.7635	0.9813	0.045
Mof_C 	C 	0.4632	0.7621	0.9782	-0.126
Mof_C 	C 	0.4398	0.786	0.9904	0.01
Mof_H 	H 	0.4079	0.7749	0.9818	0.054
Mof_C 	C 	0.4624	0.8259	0.0149	-0.002
Mof_C 	C 	0.5097	0.842	0.0266	0.01
Mof_H 	H 	0.5256	0.8695	0.0432	0.054
Mof_C 	C 	0.4361	0.7171	0.9552	0.448
Mof_C 	C 	0.4374	0.8488	0.03	0.003
Mof_C 	C 	0.4168	0.8655	0.0463	-0.004
Mof_C 	C 	0.3947	0.8838	0.07324	0.006
Mof_C 	C 	0.3485	0.8752	0.06871	-0.003
Mof_H 	H 	0.3308	0.8591	0.0454	0.059
Mof_C 	C 	0.3277	0.8896	0.09744	-0.106
Mof_C 	C 	0.35399	0.9147	0.13053	0.058
Mof_H 	H 	0.3397	0.9246	0.1504	0.047
Mof_C 	C 	0.4009	0.9254	0.13504	-0.119
Mof_C 	C 	0.4207	0.9093	0.1066	0.001
Mof_H 	H 	0.4526	0.9158	0.11	0.056
Mof_C 	C 	0.2771	0.8787	0.09216	0.405
Mof_C 	C 	0.4311	0.9536	0.17	0.444
Mof_Fe	Fe	0.32287	0.13683	0.36882	0.996
Mof_O 	O 	0.26747	0.20186	0.38808	-0.479
Mof_O 	O 	0.26918	0.14641	0.34974	-0.423
Mof_O 	O 	0.06017	0.03193	0.28645	-0.4
Mof_O 	O 	0.12797	0.03653	0.27003	-0.433
Mof_H 	H 	0.11017	0.01093	0.25793	0.178
Mof_O 	O 	0.92651	0.19926	0.39133	-0.39
Mof_O 	O 	0.92295	0.21598	0.45576	-0.379
Mof_O 	O 	0.07846	0.29917	0.52955	-0.492
Mof_O 	O 	0.14034	0.29634	0.50313	-0.42
Mof_C 	C 	0.24987	0.16863	0.36293	0.442
Mof_C 	C 	0.20017	0.15263	0.34804	-0.128
Mof_C 	C 	0.17697	0.11253	0.32343	0.069
Mof_H 	H 	0.19357	0.09683	0.31463	0.044
Mof_C 	C 	0.12987	0.09543	0.31153	-0.128
Mof_C 	C 	0.10647	0.11933	0.32373	0.013
Mof_H 	H 	0.07457	0.10823	0.31513	0.051
Mof_C 	C 	0.12907	0.15923	0.34823	-0.01
Mof_C 	C 	0.17637	0.17533	0.35993	0.013
Mof_H 	H 	0.19227	0.20283	0.37653	0.052
Mof_C 	C 	0.10277	0.05043	0.28853	0.443
Mof_C 	C 	0.10407	0.18213	0.36333	0.01
Mof_C 	C 	0.08347	0.19883	0.37963	-0.023
Mof_C 	C 	0.06137	0.21713	0.40657	0.038
Mof_C 	C 	0.01517	0.20853	0.40204	-0.071
Mof_H 	H 	0.99747	0.19243	0.37873	0.088
Mof_C 	C 	0.99437	0.22293	0.43077	-0.051
Mof_C 	C 	0.02066	0.24803	0.46386	0.014
Mof_H 	H 	0.00637	0.25793	0.48373	0.055
Mof_C 	C 	0.06757	0.25873	0.46837	-0.098
Mof_C 	C 	0.08737	0.24263	0.43993	-0.027
Mof_H 	H 	0.11927	0.24913	0.44333	0.063
Mof_C 	C 	0.94377	0.21203	0.42549	0.387
Mof_C 	C 	0.09777	0.28693	0.50333	0.437
Mof_Fe	Fe	0.98953	0.47017	0.70216	1.016
Mof_O 	O 	0.93413	0.5352	0.72142	-0.474
Mof_O 	O 	0.93584	0.47975	0.68308	-0.421
Mof_O 	O 	0.72683	0.36527	0.61979	-0.399
Mof_O 	O 	0.79463	0.36987	0.60337	-0.44
Mof_H 	H 	0.77683	0.34427	0.59127	0.196
Mof_O 	O 	0.59317	0.5326	0.72467	-0.396
Mof_O 	O 	0.58961	0.54932	0.7891	-0.386
Mof_O 	O 	0.74512	0.63251	0.86289	-0.493
Mof_O 	O 	0.807	0.62968	0.83647	-0.421
Mof_C 	C 	0.91653	0.50197	0.69627	0.442
Mof_C 	C 	0.86683	0.48597	0.68138	-0.125
Mof_C 	C 	0.84363	0.44587	0.65677	0.068
Mof_H 	H 	0.86023	0.43017	0.64797	0.046
Mof_C 	C 	0.79653	0.42877	0.64487	-0.125
Mof_C 	C 	0.77313	0.45267	0.65707	0.01
Mof_H 	H 	0.74123	0.44157	0.64847	0.054
Mof_C 	C 	0.79573	0.49257	0.68157	-0.002
Mof_C 	C 	0.84303	0.50867	0.69327	0.01
Mof_H 	H 	0.85893	0.53617	0.70987	0.054
Mof_C 	C 	0.76943	0.38377	0.62187	0.448
Mof_C 	C 	0.77073	0.51547	0.69667	0.002
Mof_C 	C 	0.75013	0.53217	0.71297	-0.004
Mof_C 	C 	0.72803	0.55047	0.73991	0.005
Mof_C 	C 	0.68183	0.54187	0.73538	-0.003
Mof_H 	H 	0.66413	0.52577	0.71207	0.058
Mof_C 	C 	0.66103	0.55627	0.76411	-0.108
Mof_C 	C 	0.68732	0.58137	0.7972	0.059
Mof_H 	H 	0.67303	0.59127	0.81707	0.045
Mof_C 	C 	0.73423	0.59207	0.80171	-0.122
Mof_C 	C 	0.75403	0.57597	0.77327	0.001
Mof_H 	H 	0.78593	0.58247	0.77667	0.055
Mof_C 	C 	0.61043	0.54537	0.75883	0.405
Mof_C 	C 	0.76443	0.62027	0.83667	0.446
Mof_Fe	Fe	0.8527	0.1965	0.46451	0.995
Mof_O 	O 	0.73227	0.13147	0.44525	-0.479
Mof_O 	O 	0.78943	0.18692	0.48359	-0.422
Mof_O 	O 	0.6949	0.3014	0.54688	-0.399
Mof_O 	O 	0.7581	0.2968	0.5633	-0.44
Mof_H 	H 	0.7659	0.3224	0.5754	0.196
Mof_O 	O 	0.39391	0.13407	0.442	-0.397
Mof_O 	O 	0.37363	0.11735	0.37757	-0.387
Mof_O 	O 	0.44595	0.03416	0.30378	-0.496
Mof_O 	O 	0.51066	0.03699	0.3302	-0.428
Mof_C 	C 	0.7479	0.1647	0.4704	0.442
Mof_C 	C 	0.7142	0.1807	0.48529	-0.126
Mof_C 	C 	0.7311	0.2208	0.5099	0.068
Mof_H 	H 	0.7634	0.2365	0.5187	0.045
Mof_C 	C 	0.7011	0.2379	0.5218	-0.126
Mof_C 	C 	0.6538	0.214	0.5096	0.01
Mof_H 	H 	0.633	0.2251	0.5182	0.054
Mof_C 	C 	0.6365	0.1741	0.4851	-0.003
Mof_C 	C 	0.6677	0.158	0.4734	0.01
Mof_H 	H 	0.6561	0.1305	0.4568	0.052
Mof_C 	C 	0.719	0.2829	0.5448	0.448
Mof_C 	C 	0.5886	0.1512	0.47	0.001
Mof_C 	C 	0.5513	0.1345	0.4537	-0.005
Mof_C 	C 	0.5109	0.1162	0.42676	0.003
Mof_C 	C 	0.4733	0.1248	0.43129	-0.003
Mof_H 	H 	0.4717	0.1409	0.4546	0.058
Mof_C 	C 	0.4381	0.1104	0.40256	-0.109
Mof_C 	C 	0.43929	0.0853	0.36947	0.06
Mof_H 	H 	0.4151	0.0754	0.3496	0.044
Mof_C 	C 	0.4755	0.0746	0.36496	-0.124
Mof_C 	C 	0.5114	0.0907	0.3934	0.002
Mof_H 	H 	0.5368	0.0842	0.39	0.053
Mof_C 	C 	0.3984	0.1213	0.40784	0.405
Mof_C 	C 	0.4775	0.0464	0.33	0.448
Mof_Fe	Fe	0.51937	0.52983	0.79784	0.996
Mof_O 	O 	0.39894	0.4648	0.77858	-0.478
Mof_O 	O 	0.4561	0.52025	0.81692	-0.422
Mof_O 	O 	0.36157	0.63473	0.88021	-0.399
Mof_O 	O 	0.42477	0.63013	0.89663	-0.44
Mof_H 	H 	0.43257	0.65573	0.90873	0.196
Mof_O 	O 	0.06058	0.4674	0.77533	-0.397
Mof_O 	O 	0.0403	0.45068	0.7109	-0.393
Mof_O 	O 	0.11262	0.36749	0.63711	-0.494
Mof_O 	O 	0.17733	0.37032	0.66353	-0.422
Mof_C 	C 	0.41457	0.49803	0.80373	0.442
Mof_C 	C 	0.38087	0.51403	0.81862	-0.126
Mof_C 	C 	0.39777	0.55413	0.84323	0.068
Mof_H 	H 	0.43007	0.56983	0.85203	0.045
Mof_C 	C 	0.36777	0.57123	0.85513	-0.126
Mof_C 	C 	0.32047	0.54733	0.84293	0.01
Mof_H 	H 	0.29967	0.55843	0.85153	0.054
Mof_C 	C 	0.30317	0.50743	0.81843	-0.003
Mof_C 	C 	0.33437	0.49133	0.80673	0.01
Mof_H 	H 	0.32277	0.46383	0.79013	0.053
Mof_C 	C 	0.38567	0.61623	0.87813	0.448
Mof_C 	C 	0.25527	0.48453	0.80333	0.002
Mof_C 	C 	0.21797	0.46783	0.78703	-0.004
Mof_C 	C 	0.17757	0.44953	0.76009	0.004
Mof_C 	C 	0.13997	0.45813	0.76462	-0.002
Mof_H 	H 	0.13837	0.47423	0.78793	0.058
Mof_C 	C 	0.10477	0.44373	0.73589	-0.11
Mof_C 	C 	0.10596	0.41863	0.7028	0.06
Mof_H 	H 	0.08177	0.40873	0.68293	0.043
Mof_C 	C 	0.14217	0.40793	0.69829	-0.123
Mof_C 	C 	0.17807	0.42403	0.72673	0.002
Mof_H 	H 	0.20347	0.41753	0.72333	0.054
Mof_C 	C 	0.06507	0.45463	0.74117	0.406
Mof_C 	C 	0.14417	0.37973	0.66333	0.446
Mof_Fe	Fe	0.18603	0.86317	0.13118	0.995
Mof_O 	O 	0.0656	0.79814	0.11192	-0.479
Mof_O 	O 	0.12276	0.85359	0.15026	-0.421
Mof_O 	O 	0.02823	0.96807	0.21355	-0.396
Mof_O 	O 	0.09143	0.96347	0.22997	-0.447
Mof_H 	H 	0.09923	0.98907	0.24207	0.214
Mof_O 	O 	0.72724	0.80074	0.10867	-0.396
Mof_O 	O 	0.70696	0.78402	0.04424	-0.386
Mof_O 	O 	0.77928	0.70083	0.97045	-0.493
Mof_O 	O 	0.84399	0.70366	0.99687	-0.421
Mof_C 	C 	0.08123	0.83137	0.13707	0.435
Mof_C 	C 	0.04753	0.84737	0.15196	-0.111
Mof_C 	C 	0.06443	0.88747	0.17657	0.062
Mof_H 	H 	0.09673	0.90317	0.18537	0.048
Mof_C 	C 	0.03443	0.90457	0.18847	-0.132
Mof_C 	C 	0.98713	0.88067	0.17627	0.015
Mof_H 	H 	0.96633	0.89177	0.18487	0.056
Mof_C 	C 	0.96983	0.84077	0.15177	0.021
Mof_C 	C 	0.00103	0.82467	0.14007	-0.033
Mof_H 	H 	0.98943	0.79717	0.12347	0.076
Mof_C 	C 	0.05233	0.94957	0.21147	0.451
Mof_C 	C 	0.92193	0.81787	0.13667	-0.006
Mof_C 	C 	0.88463	0.80117	0.12037	0.003
Mof_C 	C 	0.84423	0.78287	0.09343	0.002
Mof_C 	C 	0.80663	0.79147	0.09796	-0.001
Mof_H 	H 	0.80503	0.80757	0.12127	0.058
Mof_C 	C 	0.77143	0.77707	0.06923	-0.109
Mof_C 	C 	0.77262	0.75197	0.03614	0.06
Mof_H 	H 	0.74843	0.74207	0.01627	0.045
Mof_C 	C 	0.80883	0.74127	0.03163	-0.122
Mof_C 	C 	0.84473	0.75737	0.06007	0.003
Mof_H 	H 	0.87013	0.75087	0.05667	0.055
Mof_C 	C 	0.73173	0.78797	0.07451	0.406
Mof_C 	C 	0.81083	0.71307	0.99667	0.447
Mof_Fe	Fe	0.3438	0.1473	0.46451	0.996
Mof_O 	O 	0.3992	0.26773	0.44525	-0.478
Mof_O 	O 	0.39749	0.21057	0.48359	-0.423
Mof_O 	O 	0.6065	0.3051	0.54688	-0.399
Mof_O 	O 	0.5387	0.2419	0.5633	-0.441
Mof_H 	H 	0.5565	0.2341	0.5754	0.196
Mof_O 	O 	0.74016	0.60609	0.442	-0.396
Mof_O 	O 	0.74372	0.62637	0.37757	-0.386
Mof_O 	O 	0.58821	0.55405	0.30378	-0.493
Mof_O 	O 	0.52633	0.48934	0.3302	-0.422
Mof_C 	C 	0.4168	0.2521	0.4704	0.442
Mof_C 	C 	0.4665	0.2858	0.48529	-0.126
Mof_C 	C 	0.4897	0.2689	0.5099	0.069
Mof_H 	H 	0.4731	0.2366	0.5187	0.045
Mof_C 	C 	0.5368	0.2989	0.5218	-0.126
Mof_C 	C 	0.5602	0.3462	0.5096	0.011
Mof_H 	H 	0.5921	0.367	0.5182	0.054
Mof_C 	C 	0.5376	0.3635	0.4851	-0.003
Mof_C 	C 	0.4903	0.3323	0.4734	0.01
Mof_H 	H 	0.4744	0.3439	0.4568	0.053
Mof_C 	C 	0.5639	0.281	0.5448	0.448
Mof_C 	C 	0.5626	0.4114	0.47	0.002
Mof_C 	C 	0.5832	0.4487	0.4537	-0.004
Mof_C 	C 	0.6053	0.4891	0.42676	0.005
Mof_C 	C 	0.6515	0.5267	0.43129	-0.003
Mof_H 	H 	0.6692	0.5283	0.4546	0.058
Mof_C 	C 	0.6723	0.5619	0.40256	-0.108
Mof_C 	C 	0.64601	0.56071	0.36947	0.059
Mof_H 	H 	0.6603	0.5849	0.3496	0.045
Mof_C 	C 	0.5991	0.5245	0.36496	-0.122
Mof_C 	C 	0.5793	0.4886	0.3934	0.001
Mof_H 	H 	0.5474	0.4632	0.39	0.055
Mof_C 	C 	0.7229	0.6016	0.40784	0.405
Mof_C 	C 	0.5689	0.5225	0.33	0.446
Mof_Fe	Fe	0.01047	0.48063	0.79784	0.982
Mof_O 	O 	0.06587	0.60106	0.77858	-0.479
Mof_O 	O 	0.06416	0.5439	0.81692	-0.423
Mof_O 	O 	0.27317	0.63843	0.88021	-0.399
Mof_O 	O 	0.20537	0.57523	0.89663	-0.441
Mof_H 	H 	0.22317	0.56743	0.90873	0.196
Mof_O 	O 	0.40683	0.93942	0.77533	-0.395
Mof_O 	O 	0.41039	0.9597	0.7109	-0.38
Mof_O 	O 	0.25488	0.88738	0.63711	-0.492
Mof_O 	O 	0.193	0.82267	0.66353	-0.422
Mof_C 	C 	0.08347	0.58543	0.80373	0.441
Mof_C 	C 	0.13317	0.61913	0.81862	-0.126
Mof_C 	C 	0.15637	0.60223	0.84323	0.069
Mof_H 	H 	0.13977	0.56993	0.85203	0.045
Mof_C 	C 	0.20347	0.63223	0.85513	-0.126
Mof_C 	C 	0.22687	0.67953	0.84293	0.011
Mof_H 	H 	0.25877	0.70033	0.85153	0.054
Mof_C 	C 	0.20427	0.69683	0.81843	-0.003
Mof_C 	C 	0.15697	0.66563	0.80673	0.01
Mof_H 	H 	0.14107	0.67723	0.79013	0.053
Mof_C 	C 	0.23057	0.61433	0.87813	0.448
Mof_C 	C 	0.22927	0.74473	0.80333	0.002
Mof_C 	C 	0.24987	0.78203	0.78703	-0.004
Mof_C 	C 	0.27197	0.82243	0.76009	0.005
Mof_C 	C 	0.31817	0.86003	0.76462	-0.003
Mof_H 	H 	0.33587	0.86163	0.78793	0.059
Mof_C 	C 	0.33897	0.89523	0.73589	-0.107
Mof_C 	C 	0.31268	0.89404	0.7028	0.059
Mof_H 	H 	0.32697	0.91823	0.68293	0.046
Mof_C 	C 	0.26577	0.85783	0.69829	-0.121
Mof_C 	C 	0.24597	0.82193	0.72673	0.001
Mof_H 	H 	0.21407	0.79653	0.72333	0.055
Mof_C 	C 	0.38957	0.93493	0.74117	0.405
Mof_C 	C 	0.23557	0.85583	0.66333	0.446
Mof_Fe	Fe	0.67713	0.81397	0.13118	0.996
Mof_O 	O 	0.73253	0.9344	0.11192	-0.477
Mof_O 	O 	0.73082	0.87724	0.15026	-0.423
Mof_O 	O 	0.93983	0.97177	0.21355	-0.384
Mof_O 	O 	0.87203	0.90857	0.22997	-0.437
Mof_H 	H 	0.88983	0.90077	0.24207	0.196
Mof_O 	O 	0.07349	0.27276	0.10867	-0.402
Mof_O 	O 	0.07705	0.29304	0.04424	-0.393
Mof_O 	O 	0.92154	0.22072	0.97045	-0.494
Mof_O 	O 	0.85966	0.15601	0.99687	-0.424
Mof_C 	C 	0.75013	0.91877	0.13707	0.447
Mof_C 	C 	0.79983	0.95247	0.15196	-0.137
Mof_C 	C 	0.82303	0.93557	0.17657	0.072
Mof_H 	H 	0.80643	0.90327	0.18537	0.045
Mof_C 	C 	0.87013	0.96557	0.18847	-0.114
Mof_C 	C 	0.89353	0.01287	0.17627	0.001
Mof_H 	H 	0.92543	0.03367	0.18487	0.057
Mof_C 	C 	0.87093	0.03017	0.15177	-0.019
Mof_C 	C 	0.82363	0.99897	0.14007	0.049
Mof_H 	H 	0.80773	0.01057	0.12347	0.033
Mof_C 	C 	0.89723	0.94767	0.21147	0.442
Mof_C 	C 	0.89593	0.07807	0.13667	0.001
Mof_C 	C 	0.91653	0.11537	0.12037	0.008
Mof_C 	C 	0.93863	0.15577	0.09343	-0.027
Mof_C 	C 	0.98483	0.19337	0.09796	0.063
Mof_H 	H 	0.00253	0.19497	0.12127	0.029
Mof_C 	C 	0.00563	0.22857	0.06923	-0.163
Mof_C 	C 	0.97934	0.22738	0.03614	0.104
Mof_H 	H 	0.99363	0.25157	0.01627	0.034
Mof_C 	C 	0.93243	0.19117	0.03163	-0.146
Mof_C 	C 	0.91263	0.15527	0.06007	0.028
Mof_H 	H 	0.88073	0.12987	0.05667	0.046
Mof_C 	C 	0.05623	0.26827	0.07451	0.423
Mof_C 	C 	0.90223	0.18917	0.99667	0.455
Mof_Fe	Fe	0.8035	0.6562	0.46451	0.996
Mof_O 	O 	0.86853	0.6008	0.44525	-0.478
Mof_O 	O 	0.81308	0.60251	0.48359	-0.422
Mof_O 	O 	0.6986	0.3935	0.54688	-0.399
Mof_O 	O 	0.7032	0.4613	0.5633	-0.44
Mof_H 	H 	0.6776	0.4435	0.5754	0.196
Mof_O 	O 	0.86593	0.25984	0.442	-0.395
Mof_O 	O 	0.88265	0.25628	0.37757	-0.385
Mof_O 	O 	0.96584	0.41179	0.30378	-0.487
Mof_O 	O 	0.96301	0.47367	0.3302	-0.415
Mof_C 	C 	0.8353	0.5832	0.4704	0.442
Mof_C 	C 	0.8193	0.5335	0.48529	-0.125
Mof_C 	C 	0.7792	0.5103	0.5099	0.068
Mof_H 	H 	0.7635	0.5269	0.5187	0.045
Mof_C 	C 	0.7621	0.4632	0.5218	-0.126
Mof_C 	C 	0.786	0.4398	0.5096	0.01
Mof_H 	H 	0.7749	0.4079	0.5182	0.054
Mof_C 	C 	0.8259	0.4624	0.4851	-0.003
Mof_C 	C 	0.842	0.5097	0.4734	0.01
Mof_H 	H 	0.8695	0.5256	0.4568	0.054
Mof_C 	C 	0.7171	0.4361	0.5448	0.448
Mof_C 	C 	0.8488	0.4374	0.47	0.003
Mof_C 	C 	0.8655	0.4168	0.4537	-0.004
Mof_C 	C 	0.8838	0.3947	0.42676	0.006
Mof_C 	C 	0.8752	0.3485	0.43129	-0.003
Mof_H 	H 	0.8591	0.3308	0.4546	0.059
Mof_C 	C 	0.8896	0.3277	0.40256	-0.106
Mof_C 	C 	0.9147	0.35399	0.36947	0.058
Mof_H 	H 	0.9246	0.3397	0.3496	0.047
Mof_C 	C 	0.9254	0.4009	0.36496	-0.119
Mof_C 	C 	0.9093	0.4207	0.3934	0.001
Mof_H 	H 	0.9158	0.4526	0.39	0.056
Mof_C 	C 	0.8787	0.2771	0.40784	0.405
Mof_C 	C 	0.9536	0.4311	0.33	0.444
Mof_Fe	Fe	0.47017	0.98953	0.79784	1.016
Mof_O 	O 	0.5352	0.93413	0.77858	-0.474
Mof_O 	O 	0.47975	0.93584	0.81692	-0.421
Mof_O 	O 	0.36527	0.72683	0.88021	-0.399
Mof_O 	O 	0.36987	0.79463	0.89663	-0.44
Mof_H 	H 	0.34427	0.77683	0.90873	0.196
Mof_O 	O 	0.5326	0.59317	0.77533	-0.396
Mof_O 	O 	0.54932	0.58961	0.7109	-0.386
Mof_O 	O 	0.63251	0.74512	0.63711	-0.493
Mof_O 	O 	0.62968	0.807	0.66353	-0.421
Mof_C 	C 	0.50197	0.91653	0.80373	0.442
Mof_C 	C 	0.48597	0.86683	0.81862	-0.125
Mof_C 	C 	0.44587	0.84363	0.84323	0.068
Mof_H 	H 	0.43017	0.86023	0.85203	0.046
Mof_C 	C 	0.42877	0.79653	0.85513	-0.125
Mof_C 	C 	0.45267	0.77313	0.84293	0.01
Mof_H 	H 	0.44157	0.74123	0.85153	0.054
Mof_C 	C 	0.49257	0.79573	0.81843	-0.002
Mof_C 	C 	0.50867	0.84303	0.80673	0.01
Mof_H 	H 	0.53617	0.85893	0.79013	0.054
Mof_C 	C 	0.38377	0.76943	0.87813	0.448
Mof_C 	C 	0.51547	0.77073	0.80333	0.002
Mof_C 	C 	0.53217	0.75013	0.78703	-0.004
Mof_C 	C 	0.55047	0.72803	0.76009	0.005
Mof_C 	C 	0.54187	0.68183	0.76462	-0.003
Mof_H 	H 	0.52577	0.66413	0.78793	0.058
Mof_C 	C 	0.55627	0.66103	0.73589	-0.108
Mof_C 	C 	0.58137	0.68732	0.7028	0.059
Mof_H 	H 	0.59127	0.67303	0.68293	0.045
Mof_C 	C 	0.59207	0.73423	0.69829	-0.122
Mof_C 	C 	0.57597	0.75403	0.72673	0.001
Mof_H 	H 	0.58247	0.78593	0.72333	0.055
Mof_C 	C 	0.54537	0.61043	0.74117	0.405
Mof_C 	C 	0.62027	0.76443	0.66333	0.446
Mof_Fe	Fe	0.13683	0.32287	0.13118	0.996
Mof_O 	O 	0.20186	0.26747	0.11192	-0.479
Mof_O 	O 	0.14641	0.26918	0.15026	-0.423
Mof_O 	O 	0.03193	0.06017	0.21355	-0.4
Mof_O 	O 	0.03653	0.12797	0.22997	-0.433
Mof_H 	H 	0.01093	0.11017	0.24207	0.178
Mof_O 	O 	0.19926	0.92651	0.10867	-0.39
Mof_O 	O 	0.21598	0.92295	0.04424	-0.379
Mof_O 	O 	0.29917	0.07846	0.97045	-0.492
Mof_O 	O 	0.29634	0.14034	0.99687	-0.42
Mof_C 	C 	0.16863	0.24987	0.13707	0.442
Mof_C 	C 	0.15263	0.20017	0.15196	-0.128
Mof_C 	C 	0.11253	0.17697	0.17657	0.069
Mof_H 	H 	0.09683	0.19357	0.18537	0.044
Mof_C 	C 	0.09543	0.12987	0.18847	-0.128
Mof_C 	C 	0.11933	0.10647	0.17627	0.013
Mof_H 	H 	0.10823	0.07457	0.18487	0.05
Mof_C 	C 	0.15923	0.12907	0.15177	-0.01
Mof_C 	C 	0.17533	0.17637	0.14007	0.013
Mof_H 	H 	0.20283	0.19227	0.12347	0.052
Mof_C 	C 	0.05043	0.10277	0.21147	0.443
Mof_C 	C 	0.18213	0.10407	0.13667	0.01
Mof_C 	C 	0.19883	0.08347	0.12037	-0.023
Mof_C 	C 	0.21713	0.06137	0.09343	0.038
Mof_C 	C 	0.20853	0.01517	0.09796	-0.071
Mof_H 	H 	0.19243	0.99747	0.12127	0.088
Mof_C 	C 	0.22293	0.99437	0.06923	-0.051
Mof_C 	C 	0.24803	0.02066	0.03614	0.014
Mof_H 	H 	0.25793	0.00637	0.01627	0.055
Mof_C 	C 	0.25873	0.06757	0.03163	-0.097
Mof_C 	C 	0.24263	0.08737	0.06007	-0.027
Mof_H 	H 	0.24913	0.11927	0.05667	0.063
Mof_C 	C 	0.21203	0.94377	0.07451	0.387
Mof_C 	C 	0.28693	0.09777	0.99667	0.437
Mof_Fe	Fe	0.8035	0.1473	0.96451	0.996
Mof_O 	O 	0.86853	0.26773	0.94525	-0.478
Mof_O 	O 	0.81308	0.21057	0.98359	-0.422
Mof_O 	O 	0.6986	0.3051	0.04688	-0.399
Mof_O 	O 	0.7032	0.2419	0.0633	-0.44
Mof_H 	H 	0.6776	0.2341	0.0754	0.196
Mof_O 	O 	0.86593	0.60609	0.942	-0.395
Mof_O 	O 	0.88265	0.62637	0.87757	-0.385
Mof_O 	O 	0.96584	0.55405	0.80378	-0.487
Mof_O 	O 	0.96301	0.48934	0.8302	-0.415
Mof_C 	C 	0.8353	0.2521	0.9704	0.442
Mof_C 	C 	0.8193	0.2858	0.98529	-0.125
Mof_C 	C 	0.7792	0.2689	0.0099	0.068
Mof_H 	H 	0.7635	0.2366	0.0187	0.045
Mof_C 	C 	0.7621	0.2989	0.0218	-0.126
Mof_C 	C 	0.786	0.3462	0.0096	0.01
Mof_H 	H 	0.7749	0.367	0.0182	0.054
Mof_C 	C 	0.8259	0.3635	0.9851	-0.002
Mof_C 	C 	0.842	0.3323	0.9734	0.01
Mof_H 	H 	0.8695	0.3439	0.9568	0.054
Mof_C 	C 	0.7171	0.281	0.0448	0.448
Mof_C 	C 	0.8488	0.4114	0.97	0.003
Mof_C 	C 	0.8655	0.4487	0.9537	-0.004
Mof_C 	C 	0.8838	0.4891	0.92676	0.006
Mof_C 	C 	0.8752	0.5267	0.93129	-0.003
Mof_H 	H 	0.8591	0.5283	0.9546	0.059
Mof_C 	C 	0.8896	0.5619	0.90256	-0.106
Mof_C 	C 	0.9147	0.56071	0.86947	0.058
Mof_H 	H 	0.9246	0.5849	0.8496	0.047
Mof_C 	C 	0.9254	0.5245	0.86496	-0.119
Mof_C 	C 	0.9093	0.4886	0.8934	0.001
Mof_H 	H 	0.9158	0.4632	0.89	0.056
Mof_C 	C 	0.8787	0.6016	0.90784	0.405
Mof_C 	C 	0.9536	0.5225	0.83	0.444
Mof_Fe	Fe	0.47017	0.48063	0.29784	0.996
Mof_O 	O 	0.5352	0.60106	0.27858	-0.478
Mof_O 	O 	0.47975	0.5439	0.31692	-0.422
Mof_O 	O 	0.36527	0.63843	0.38021	-0.399
Mof_O 	O 	0.36987	0.57523	0.39663	-0.44
Mof_H 	H 	0.34427	0.56743	0.40873	0.196
Mof_O 	O 	0.5326	0.93942	0.27533	-0.395
Mof_O 	O 	0.54932	0.9597	0.2109	-0.38
Mof_O 	O 	0.63251	0.88738	0.13711	-0.493
Mof_O 	O 	0.62968	0.82267	0.16353	-0.422
Mof_C 	C 	0.50197	0.58543	0.30373	0.442
Mof_C 	C 	0.48597	0.61913	0.31862	-0.126
Mof_C 	C 	0.44587	0.60223	0.34323	0.068
Mof_H 	H 	0.43017	0.56993	0.35203	0.045
Mof_C 	C 	0.42877	0.63223	0.35513	-0.126
Mof_C 	C 	0.45267	0.67953	0.34293	0.011
Mof_H 	H 	0.44157	0.70033	0.35153	0.054
Mof_C 	C 	0.49257	0.69683	0.31843	-0.003
Mof_C 	C 	0.50867	0.66563	0.30673	0.01
Mof_H 	H 	0.53617	0.67723	0.29013	0.053
Mof_C 	C 	0.38377	0.61433	0.37813	0.448
Mof_C 	C 	0.51547	0.74473	0.30333	0.002
Mof_C 	C 	0.53217	0.78203	0.28703	-0.004
Mof_C 	C 	0.55047	0.82243	0.26009	0.005
Mof_C 	C 	0.54187	0.86003	0.26462	-0.003
Mof_H 	H 	0.52577	0.86163	0.28793	0.059
Mof_C 	C 	0.55627	0.89523	0.23589	-0.107
Mof_C 	C 	0.58137	0.89404	0.2028	0.059
Mof_H 	H 	0.59127	0.91823	0.18293	0.046
Mof_C 	C 	0.59207	0.85783	0.19829	-0.121
Mof_C 	C 	0.57597	0.82193	0.22673	0.001
Mof_H 	H 	0.58247	0.79653	0.22333	0.055
Mof_C 	C 	0.54537	0.93493	0.24117	0.405
Mof_C 	C 	0.62027	0.85583	0.16333	0.446
Mof_Fe	Fe	0.13683	0.81397	0.63118	0.996
Mof_O 	O 	0.20186	0.9344	0.61192	-0.477
Mof_O 	O 	0.14641	0.87724	0.65026	-0.424
Mof_O 	O 	0.03193	0.97177	0.71355	-0.39
Mof_O 	O 	0.03653	0.90857	0.72997	-0.431
Mof_H 	H 	0.01093	0.90077	0.74207	0.179
Mof_O 	O 	0.19926	0.27276	0.60867	-0.396
Mof_O 	O 	0.21598	0.29304	0.54424	-0.386
Mof_O 	O 	0.29917	0.22072	0.47045	-0.493
Mof_O 	O 	0.29634	0.15601	0.49687	-0.422
Mof_C 	C 	0.16863	0.91877	0.63707	0.448
Mof_C 	C 	0.15263	0.95247	0.65196	-0.141
Mof_C 	C 	0.11253	0.93557	0.67657	0.073
Mof_H 	H 	0.09683	0.90327	0.68537	0.043
Mof_C 	C 	0.09543	0.96557	0.68847	-0.116
Mof_C 	C 	0.11933	0.01287	0.67627	0.004
Mof_H 	H 	0.10823	0.03367	0.68487	0.053
Mof_C 	C 	0.15923	0.03017	0.65177	-0.027
Mof_C 	C 	0.17533	0.99897	0.64007	0.056
Mof_H 	H 	0.20283	0.01057	0.62347	0.03
Mof_C 	C 	0.05043	0.94767	0.71147	0.44
Mof_C 	C 	0.18213	0.07807	0.63667	0.01
Mof_C 	C 	0.19883	0.11537	0.62037	-0.011
Mof_C 	C 	0.21713	0.15577	0.59343	0.007
Mof_C 	C 	0.20853	0.19337	0.59796	-0.005
Mof_H 	H 	0.19243	0.19497	0.62127	0.059
Mof_C 	C 	0.22293	0.22857	0.56923	-0.108
Mof_C 	C 	0.24803	0.22738	0.53614	0.059
Mof_H 	H 	0.25793	0.25157	0.51627	0.045
Mof_C 	C 	0.25873	0.19117	0.53163	-0.122
Mof_C 	C 	0.24263	0.15527	0.56007	-0.001
Mof_H 	H 	0.24913	0.12987	0.55667	0.054
Mof_C 	C 	0.21203	0.26827	0.57451	0.405
Mof_C 	C 	0.28693	0.18917	0.49667	0.446
Mof_Fe	Fe	0.8527	0.6562	0.96451	0.996
Mof_O 	O 	0.73227	0.6008	0.94525	-0.478
Mof_O 	O 	0.78943	0.60251	0.98359	-0.422
Mof_O 	O 	0.6949	0.3935	0.04688	-0.399
Mof_O 	O 	0.7581	0.4613	0.0633	-0.44
Mof_H 	H 	0.7659	0.4435	0.0754	0.196
Mof_O 	O 	0.39391	0.25984	0.942	-0.396
Mof_O 	O 	0.37363	0.25628	0.87757	-0.386
Mof_O 	O 	0.44595	0.41179	0.80378	-0.493
Mof_O 	O 	0.51066	0.47367	0.8302	-0.422
Mof_C 	C 	0.7479	0.5832	0.9704	0.442
Mof_C 	C 	0.7142	0.5335	0.98529	-0.126
Mof_C 	C 	0.7311	0.5103	0.0099	0.068
Mof_H 	H 	0.7634	0.5269	0.0187	0.046
Mof_C 	C 	0.7011	0.4632	0.0218	-0.126
Mof_C 	C 	0.6538	0.4398	0.0096	0.01
Mof_H 	H 	0.633	0.4079	0.0182	0.054
Mof_C 	C 	0.6365	0.4624	0.9851	-0.003
Mof_C 	C 	0.6677	0.5097	0.9734	0.01
Mof_H 	H 	0.6561	0.5256	0.9568	0.053
Mof_C 	C 	0.719	0.4361	0.0448	0.448
Mof_C 	C 	0.5886	0.4374	0.97	0.002
Mof_C 	C 	0.5513	0.4168	0.9537	-0.004
Mof_C 	C 	0.5109	0.3947	0.92676	0.004
Mof_C 	C 	0.4733	0.3485	0.93129	-0.003
Mof_H 	H 	0.4717	0.3308	0.9546	0.058
Mof_C 	C 	0.4381	0.3277	0.90256	-0.108
Mof_C 	C 	0.43929	0.35399	0.86947	0.059
Mof_H 	H 	0.4151	0.3397	0.8496	0.045
Mof_C 	C 	0.4755	0.4009	0.86496	-0.122
Mof_C 	C 	0.5114	0.4207	0.8934	0.001
Mof_H 	H 	0.5368	0.4526	0.89	0.055
Mof_C 	C 	0.3984	0.2771	0.90784	0.405
Mof_C 	C 	0.4775	0.4311	0.83	0.446
Mof_Fe	Fe	0.51937	0.98953	0.29784	1.016
Mof_O 	O 	0.39894	0.93413	0.27858	-0.474
Mof_O 	O 	0.4561	0.93584	0.31692	-0.421
Mof_O 	O 	0.36157	0.72683	0.38021	-0.399
Mof_O 	O 	0.42477	0.79463	0.39663	-0.44
Mof_H 	H 	0.43257	0.77683	0.40873	0.196
Mof_O 	O 	0.06058	0.59317	0.27533	-0.397
Mof_O 	O 	0.0403	0.58961	0.2109	-0.393
Mof_O 	O 	0.11262	0.74512	0.13711	-0.494
Mof_O 	O 	0.17733	0.807	0.16353	-0.422
Mof_C 	C 	0.41457	0.91653	0.30373	0.442
Mof_C 	C 	0.38087	0.86683	0.31862	-0.125
Mof_C 	C 	0.39777	0.84363	0.34323	0.068
Mof_H 	H 	0.43007	0.86023	0.35203	0.046
Mof_C 	C 	0.36777	0.79653	0.35513	-0.125
Mof_C 	C 	0.32047	0.77313	0.34293	0.01
Mof_H 	H 	0.29967	0.74123	0.35153	0.054
Mof_C 	C 	0.30317	0.79573	0.31843	-0.002
Mof_C 	C 	0.33437	0.84303	0.30673	0.01
Mof_H 	H 	0.32277	0.85893	0.29013	0.054
Mof_C 	C 	0.38567	0.76943	0.37813	0.448
Mof_C 	C 	0.25527	0.77073	0.30333	0.002
Mof_C 	C 	0.21797	0.75013	0.28703	-0.004
Mof_C 	C 	0.17757	0.72803	0.26009	0.004
Mof_C 	C 	0.13997	0.68183	0.26462	-0.002
Mof_H 	H 	0.13837	0.66413	0.28793	0.058
Mof_C 	C 	0.10477	0.66103	0.23589	-0.11
Mof_C 	C 	0.10596	0.68732	0.2028	0.06
Mof_H 	H 	0.08177	0.67303	0.18293	0.043
Mof_C 	C 	0.14217	0.73423	0.19829	-0.123
Mof_C 	C 	0.17807	0.75403	0.22673	0.002
Mof_H 	H 	0.20347	0.78593	0.22333	0.055
Mof_C 	C 	0.06507	0.61043	0.24117	0.406
Mof_C 	C 	0.14417	0.76443	0.16333	0.446
Mof_Fe	Fe	0.18603	0.32287	0.63118	0.995
Mof_O 	O 	0.0656	0.26747	0.61192	-0.479
Mof_O 	O 	0.12276	0.26918	0.65026	-0.421
Mof_O 	O 	0.02823	0.06017	0.71355	-0.403
Mof_O 	O 	0.09143	0.12797	0.72997	-0.441
Mof_H 	H 	0.09923	0.11017	0.74207	0.196
Mof_O 	O 	0.72724	0.92651	0.60867	-0.39
Mof_O 	O 	0.70696	0.92295	0.54424	-0.379
Mof_O 	O 	0.77928	0.07846	0.47045	-0.492
Mof_O 	O 	0.84399	0.14034	0.49687	-0.419
Mof_C 	C 	0.08123	0.24987	0.63707	0.436
Mof_C 	C 	0.04753	0.20017	0.65196	-0.112
Mof_C 	C 	0.06443	0.17697	0.67657	0.063
Mof_H 	H 	0.09673	0.19357	0.68537	0.046
Mof_C 	C 	0.03443	0.12987	0.68847	-0.136
Mof_C 	C 	0.98713	0.10647	0.67627	0.019
Mof_H 	H 	0.96633	0.07457	0.68487	0.052
Mof_C 	C 	0.96983	0.12907	0.65177	0.016
Mof_C 	C 	0.00103	0.17637	0.64007	-0.033
Mof_H 	H 	0.98943	0.19227	0.62347	0.075
Mof_C 	C 	0.05233	0.10277	0.71147	0.449
Mof_C 	C 	0.92193	0.10407	0.63667	0.002
Mof_C 	C 	0.88463	0.08347	0.62037	-0.015
Mof_C 	C 	0.84423	0.06137	0.59343	0.034
Mof_C 	C 	0.80663	0.01517	0.59796	-0.066
Mof_H 	H 	0.80503	0.99747	0.62127	0.086
Mof_C 	C 	0.77143	0.99437	0.56923	-0.055
Mof_C 	C 	0.77262	0.02066	0.53614	0.017
Mof_H 	H 	0.74843	0.00637	0.51627	0.055
Mof_C 	C 	0.80883	0.06757	0.53163	-0.099
Mof_C 	C 	0.84473	0.08737	0.56007	-0.023
Mof_H 	H 	0.87013	0.11927	0.55667	0.063
Mof_C 	C 	0.73173	0.94377	0.57451	0.389
Mof_C 	C 	0.81083	0.09777	0.49667	0.438
Mof_Fe	Fe	0.3438	0.1965	0.96451	0.995
Mof_O 	O 	0.3992	0.13147	0.94525	-0.479
Mof_O 	O 	0.39749	0.18692	0.98359	-0.422
Mof_O 	O 	0.6065	0.3014	0.04688	-0.399
Mof_O 	O 	0.5387	0.2968	0.0633	-0.44
Mof_H 	H 	0.5565	0.3224	0.0754	0.196
Mof_O 	O 	0.74016	0.13407	0.942	-0.397
Mof_O 	O 	0.74372	0.11735	0.87757	-0.387
Mof_O 	O 	0.58821	0.03416	0.80378	-0.496
Mof_O 	O 	0.52633	0.03699	0.8302	-0.428
Mof_C 	C 	0.4168	0.1647	0.9704	0.442
Mof_C 	C 	0.4665	0.1807	0.98529	-0.126
Mof_C 	C 	0.4897	0.2208	0.0099	0.068
Mof_H 	H 	0.4731	0.2365	0.0187	0.045
Mof_C 	C 	0.5368	0.2379	0.0218	-0.126
Mof_C 	C 	0.5602	0.214	0.0096	0.01
Mof_H 	H 	0.5921	0.2251	0.0182	0.054
Mof_C 	C 	0.5376	0.1741	0.9851	-0.003
Mof_C 	C 	0.4903	0.158	0.9734	0.01
Mof_H 	H 	0.4744	0.1305	0.9568	0.052
Mof_C 	C 	0.5639	0.2829	0.0448	0.448
Mof_C 	C 	0.5626	0.1512	0.97	0.001
Mof_C 	C 	0.5832	0.1345	0.9537	-0.005
Mof_C 	C 	0.6053	0.1162	0.92676	0.003
Mof_C 	C 	0.6515	0.1248	0.93129	-0.003
Mof_H 	H 	0.6692	0.1409	0.9546	0.058
Mof_C 	C 	0.6723	0.1104	0.90256	-0.109
Mof_C 	C 	0.64601	0.0853	0.86947	0.06
Mof_H 	H 	0.6603	0.0754	0.8496	0.044
Mof_C 	C 	0.5991	0.0746	0.86496	-0.124
Mof_C 	C 	0.5793	0.0907	0.8934	0.002
Mof_H 	H 	0.5474	0.0842	0.89	0.053
Mof_C 	C 	0.7229	0.1213	0.90784	0.405
Mof_C 	C 	0.5689	0.0464	0.83	0.448
Mof_Fe	Fe	0.01047	0.52983	0.29784	0.982
Mof_O 	O 	0.06587	0.4648	0.27858	-0.479
Mof_O 	O 	0.06416	0.52025	0.31692	-0.423
Mof_O 	O 	0.27317	0.63473	0.38021	-0.399
Mof_O 	O 	0.20537	0.63013	0.39663	-0.441
Mof_H 	H 	0.22317	0.65573	0.40873	0.196
Mof_O 	O 	0.40683	0.4674	0.27533	-0.396
Mof_O 	O 	0.41039	0.45068	0.2109	-0.386
Mof_O 	O 	0.25488	0.36749	0.13711	-0.493
Mof_O 	O 	0.193	0.37032	0.16353	-0.422
Mof_C 	C 	0.08347	0.49803	0.30373	0.441
Mof_C 	C 	0.13317	0.51403	0.31862	-0.126
Mof_C 	C 	0.15637	0.55413	0.34323	0.069
Mof_H 	H 	0.13977	0.56983	0.35203	0.045
Mof_C 	C 	0.20347	0.57123	0.35513	-0.126
Mof_C 	C 	0.22687	0.54733	0.34293	0.011
Mof_H 	H 	0.25877	0.55843	0.35153	0.054
Mof_C 	C 	0.20427	0.50743	0.31843	-0.003
Mof_C 	C 	0.15697	0.49133	0.30673	0.01
Mof_H 	H 	0.14107	0.46383	0.29013	0.053
Mof_C 	C 	0.23057	0.61623	0.37813	0.448
Mof_C 	C 	0.22927	0.48453	0.30333	0.002
Mof_C 	C 	0.24987	0.46783	0.28703	-0.004
Mof_C 	C 	0.27197	0.44953	0.26009	0.004
Mof_C 	C 	0.31817	0.45813	0.26462	-0.003
Mof_H 	H 	0.33587	0.47423	0.28793	0.058
Mof_C 	C 	0.33897	0.44373	0.23589	-0.108
Mof_C 	C 	0.31268	0.41863	0.2028	0.059
Mof_H 	H 	0.32697	0.40873	0.18293	0.045
Mof_C 	C 	0.26577	0.40793	0.19829	-0.122
Mof_C 	C 	0.24597	0.42403	0.22673	0.001
Mof_H 	H 	0.21407	0.41753	0.22333	0.054
Mof_C 	C 	0.38957	0.45463	0.24117	0.405
Mof_C 	C 	0.23557	0.37973	0.16333	0.446
Mof_Fe	Fe	0.67713	0.86317	0.63118	0.996
Mof_O 	O 	0.73253	0.79814	0.61192	-0.478
Mof_O 	O 	0.73082	0.85359	0.65026	-0.422
Mof_O 	O 	0.93983	0.96807	0.71355	-0.386
Mof_O 	O 	0.87203	0.96347	0.72997	-0.445
Mof_H 	H 	0.88983	0.98907	0.74207	0.212
Mof_O 	O 	0.07349	0.80074	0.60867	-0.402
Mof_O 	O 	0.07705	0.78402	0.54424	-0.393
Mof_O 	O 	0.92154	0.70083	0.47045	-0.494
Mof_O 	O 	0.85966	0.70366	0.49687	-0.423
Mof_C 	C 	0.75013	0.83137	0.63707	0.441
Mof_C 	C 	0.79983	0.84737	0.65196	-0.123
Mof_C 	C 	0.82303	0.88747	0.67657	0.066
Mof_H 	H 	0.80643	0.90317	0.68537	0.047
Mof_C 	C 	0.87013	0.90457	0.68847	-0.121
Mof_C 	C 	0.89353	0.88067	0.67627	0.006
Mof_H 	H 	0.92543	0.89177	0.68487	0.058
Mof_C 	C 	0.87093	0.84077	0.65177	0.005
Mof_C 	C 	0.82363	0.82467	0.64007	0.006
Mof_H 	H 	0.80773	0.79717	0.62347	0.055
Mof_C 	C 	0.89723	0.94957	0.71147	0.447
Mof_C 	C 	0.89593	0.81787	0.63667	-0.006
Mof_C 	C 	0.91653	0.80117	0.62037	0.014
Mof_C 	C 	0.93863	0.78287	0.59343	-0.028
Mof_C 	C 	0.98483	0.79147	0.59796	0.062
Mof_H 	H 	0.00253	0.80757	0.62127	0.03
Mof_C 	C 	0.00563	0.77707	0.56923	-0.162
Mof_C 	C 	0.97934	0.75197	0.53614	0.103
Mof_H 	H 	0.99363	0.74207	0.51627	0.035
Mof_C 	C 	0.93243	0.74127	0.53163	-0.145
Mof_C 	C 	0.91263	0.75737	0.56007	0.028
Mof_H 	H 	0.88073	0.75087	0.55667	0.046
Mof_C 	C 	0.05623	0.78797	0.57451	0.422
Mof_C 	C 	0.90223	0.71307	0.49667	0.455
Mof_Fe	Fe	0.1473	0.8035	0.53549	0.996
Mof_O 	O 	0.26773	0.86853	0.55475	-0.478
Mof_O 	O 	0.21057	0.81308	0.51641	-0.422
Mof_O 	O 	0.3051	0.6986	0.45312	-0.399
Mof_O 	O 	0.2419	0.7032	0.4367	-0.44
Mof_H 	H 	0.2341	0.6776	0.4246	0.196
Mof_O 	O 	0.60609	0.86593	0.558	-0.395
Mof_O 	O 	0.62637	0.88265	0.62243	-0.385
Mof_O 	O 	0.55405	0.96584	0.69622	-0.487
Mof_O 	O 	0.48934	0.96301	0.6698	-0.415
Mof_C 	C 	0.2521	0.8353	0.5296	0.442
Mof_C 	C 	0.2858	0.8193	0.51471	-0.125
Mof_C 	C 	0.2689	0.7792	0.4901	0.069
Mof_H 	H 	0.2366	0.7635	0.4813	0.045
Mof_C 	C 	0.2989	0.7621	0.4782	-0.126
Mof_C 	C 	0.3462	0.786	0.4904	0.011
Mof_H 	H 	0.367	0.7749	0.4818	0.054
Mof_C 	C 	0.3635	0.8259	0.5149	-0.003
Mof_C 	C 	0.3323	0.842	0.5266	0.01
Mof_H 	H 	0.3439	0.8695	0.5432	0.054
Mof_C 	C 	0.281	0.7171	0.4552	0.448
Mof_C 	C 	0.4114	0.8488	0.53	0.003
Mof_C 	C 	0.4487	0.8655	0.5463	-0.004
Mof_C 	C 	0.4891	0.8838	0.57324	0.006
Mof_C 	C 	0.5267	0.8752	0.56871	-0.003
Mof_H 	H 	0.5283	0.8591	0.5454	0.059
Mof_C 	C 	0.5619	0.8896	0.59744	-0.106
Mof_C 	C 	0.56071	0.9147	0.63053	0.058
Mof_H 	H 	0.5849	0.9246	0.6504	0.047
Mof_C 	C 	0.5245	0.9254	0.63504	-0.119
Mof_C 	C 	0.4886	0.9093	0.6066	0.001
Mof_H 	H 	0.4632	0.9158	0.61	0.056
Mof_C 	C 	0.6016	0.8787	0.59216	0.405
Mof_C 	C 	0.5225	0.9536	0.67	0.444
Mof_Fe	Fe	0.81397	0.13683	0.86882	0.996
Mof_O 	O 	0.9344	0.20186	0.88808	-0.477
Mof_O 	O 	0.87724	0.14641	0.84974	-0.424
Mof_O 	O 	0.97177	0.03193	0.78645	-0.39
Mof_O 	O 	0.90857	0.03653	0.77003	-0.431
Mof_H 	H 	0.90077	0.01093	0.75793	0.179
Mof_O 	O 	0.27276	0.19926	0.89133	-0.396
Mof_O 	O 	0.29304	0.21598	0.95576	-0.386
Mof_O 	O 	0.22072	0.29917	0.02955	-0.493
Mof_O 	O 	0.15601	0.29634	0.00313	-0.422
Mof_C 	C 	0.91877	0.16863	0.86293	0.448
Mof_C 	C 	0.95247	0.15263	0.84804	-0.141
Mof_C 	C 	0.93557	0.11253	0.82343	0.073
Mof_H 	H 	0.90327	0.09683	0.81463	0.043
Mof_C 	C 	0.96557	0.09543	0.81153	-0.116
Mof_C 	C 	0.01287	0.11933	0.82373	0.004
Mof_H 	H 	0.03367	0.10823	0.81513	0.053
Mof_C 	C 	0.03017	0.15923	0.84823	-0.028
Mof_C 	C 	0.99897	0.17533	0.85993	0.056
Mof_H 	H 	0.01057	0.20283	0.87653	0.03
Mof_C 	C 	0.94767	0.05043	0.78853	0.44
Mof_C 	C 	0.07807	0.18213	0.86333	0.01
Mof_C 	C 	0.11537	0.19883	0.87963	-0.011
Mof_C 	C 	0.15577	0.21713	0.90657	0.007
Mof_C 	C 	0.19337	0.20853	0.90204	-0.005
Mof_H 	H 	0.19497	0.19243	0.87873	0.059
Mof_C 	C 	0.22857	0.22293	0.93077	-0.108
Mof_C 	C 	0.22738	0.24803	0.96386	0.059
Mof_H 	H 	0.25157	0.25793	0.98373	0.045
Mof_C 	C 	0.19117	0.25873	0.96837	-0.122
Mof_C 	C 	0.15527	0.24263	0.93993	-0.001
Mof_H 	H 	0.12987	0.24913	0.94333	0.054
Mof_C 	C 	0.26827	0.21203	0.92549	0.405
Mof_C 	C 	0.18917	0.28693	0.00333	0.446
Mof_Fe	Fe	0.48063	0.47017	0.20216	0.996
Mof_O 	O 	0.60106	0.5352	0.22142	-0.478
Mof_O 	O 	0.5439	0.47975	0.18308	-0.422
Mof_O 	O 	0.63843	0.36527	0.11979	-0.399
Mof_O 	O 	0.57523	0.36987	0.10337	-0.44
Mof_H 	H 	0.56743	0.34427	0.09127	0.196
Mof_O 	O 	0.93942	0.5326	0.22467	-0.395
Mof_O 	O 	0.9597	0.54932	0.2891	-0.38
Mof_O 	O 	0.88738	0.63251	0.36289	-0.493
Mof_O 	O 	0.82267	0.62968	0.33647	-0.422
Mof_C 	C 	0.58543	0.50197	0.19627	0.442
Mof_C 	C 	0.61913	0.48597	0.18138	-0.126
Mof_C 	C 	0.60223	0.44587	0.15677	0.068
Mof_H 	H 	0.56993	0.43017	0.14797	0.045
Mof_C 	C 	0.63223	0.42877	0.14487	-0.126
Mof_C 	C 	0.67953	0.45267	0.15707	0.011
Mof_H 	H 	0.70033	0.44157	0.14847	0.054
Mof_C 	C 	0.69683	0.49257	0.18157	-0.003
Mof_C 	C 	0.66563	0.50867	0.19327	0.01
Mof_H 	H 	0.67723	0.53617	0.20987	0.053
Mof_C 	C 	0.61433	0.38377	0.12187	0.448
Mof_C 	C 	0.74473	0.51547	0.19667	0.002
Mof_C 	C 	0.78203	0.53217	0.21297	-0.004
Mof_C 	C 	0.82243	0.55047	0.23991	0.005
Mof_C 	C 	0.86003	0.54187	0.23538	-0.003
Mof_H 	H 	0.86163	0.52577	0.21207	0.059
Mof_C 	C 	0.89523	0.55627	0.26411	-0.107
Mof_C 	C 	0.89404	0.58137	0.2972	0.059
Mof_H 	H 	0.91823	0.59127	0.31707	0.046
Mof_C 	C 	0.85783	0.59207	0.30171	-0.121
Mof_C 	C 	0.82193	0.57597	0.27327	0.001
Mof_H 	H 	0.79653	0.58247	0.27667	0.055
Mof_C 	C 	0.93493	0.54537	0.25883	0.405
Mof_C 	C 	0.85583	0.62027	0.33667	0.446
Mof_Fe	Fe	0.6562	0.8527	0.53549	0.996
Mof_O 	O 	0.6008	0.73227	0.55475	-0.478
Mof_O 	O 	0.60251	0.78943	0.51641	-0.422
Mof_O 	O 	0.3935	0.6949	0.45312	-0.399
Mof_O 	O 	0.4613	0.7581	0.4367	-0.44
Mof_H 	H 	0.4435	0.7659	0.4246	0.196
Mof_O 	O 	0.25984	0.39391	0.558	-0.396
Mof_O 	O 	0.25628	0.37363	0.62243	-0.386
Mof_O 	O 	0.41179	0.44595	0.69622	-0.493
Mof_O 	O 	0.47367	0.51066	0.6698	-0.422
Mof_C 	C 	0.5832	0.7479	0.5296	0.442
Mof_C 	C 	0.5335	0.7142	0.51471	-0.126
Mof_C 	C 	0.5103	0.7311	0.4901	0.068
Mof_H 	H 	0.5269	0.7634	0.4813	0.046
Mof_C 	C 	0.4632	0.7011	0.4782	-0.126
Mof_C 	C 	0.4398	0.6538	0.4904	0.01
Mof_H 	H 	0.4079	0.633	0.4818	0.054
Mof_C 	C 	0.4624	0.6365	0.5149	-0.003
Mof_C 	C 	0.5097	0.6677	0.5266	0.01
Mof_H 	H 	0.5256	0.6561	0.5432	0.053
Mof_C 	C 	0.4361	0.719	0.4552	0.448
Mof_C 	C 	0.4374	0.5886	0.53	0.002
Mof_C 	C 	0.4168	0.5513	0.5463	-0.004
Mof_C 	C 	0.3947	0.5109	0.57324	0.004
Mof_C 	C 	0.3485	0.4733	0.56871	-0.003
Mof_H 	H 	0.3308	0.4717	0.5454	0.058
Mof_C 	C 	0.3277	0.4381	0.59744	-0.108
Mof_C 	C 	0.35399	0.43929	0.63053	0.059
Mof_H 	H 	0.3397	0.4151	0.6504	0.045
Mof_C 	C 	0.4009	0.4755	0.63504	-0.122
Mof_C 	C 	0.4207	0.5114	0.6066	0.001
Mof_H 	H 	0.4526	0.5368	0.61	0.055
Mof_C 	C 	0.2771	0.3984	0.59216	0.405
Mof_C 	C 	0.4311	0.4775	0.67	0.446
Mof_Fe	Fe	0.32287	0.18603	0.86882	0.995
Mof_O 	O 	0.26747	0.0656	0.88808	-0.479
Mof_O 	O 	0.26918	0.12276	0.84974	-0.421
Mof_O 	O 	0.06017	0.02823	0.78645	-0.403
Mof_O 	O 	0.12797	0.09143	0.77003	-0.441
Mof_H 	H 	0.11017	0.09923	0.75793	0.196
Mof_O 	O 	0.92651	0.72724	0.89133	-0.39
Mof_O 	O 	0.92295	0.70696	0.95576	-0.379
Mof_O 	O 	0.07846	0.77928	0.02955	-0.492
Mof_O 	O 	0.14034	0.84399	0.00313	-0.419
Mof_C 	C 	0.24987	0.08123	0.86293	0.436
Mof_C 	C 	0.20017	0.04753	0.84804	-0.112
Mof_C 	C 	0.17697	0.06443	0.82343	0.063
Mof_H 	H 	0.19357	0.09673	0.81463	0.046
Mof_C 	C 	0.12987	0.03443	0.81153	-0.136
Mof_C 	C 	0.10647	0.98713	0.82373	0.019
Mof_H 	H 	0.07457	0.96633	0.81513	0.052
Mof_C 	C 	0.12907	0.96983	0.84823	0.015
Mof_C 	C 	0.17637	0.00103	0.85993	-0.032
Mof_H 	H 	0.19227	0.98943	0.87653	0.075
Mof_C 	C 	0.10277	0.05233	0.78853	0.449
Mof_C 	C 	0.10407	0.92193	0.86333	0.002
Mof_C 	C 	0.08347	0.88463	0.87963	-0.015
Mof_C 	C 	0.06137	0.84423	0.90657	0.034
Mof_C 	C 	0.01517	0.80663	0.90204	-0.066
Mof_H 	H 	0.99747	0.80503	0.87873	0.086
Mof_C 	C 	0.99437	0.77143	0.93077	-0.055
Mof_C 	C 	0.02066	0.77262	0.96386	0.017
Mof_H 	H 	0.00637	0.74843	0.98373	0.055
Mof_C 	C 	0.06757	0.80883	0.96837	-0.099
Mof_C 	C 	0.08737	0.84473	0.93993	-0.023
Mof_H 	H 	0.11927	0.87013	0.94333	0.063
Mof_C 	C 	0.94377	0.73173	0.92549	0.388
Mof_C 	C 	0.09777	0.81083	0.00333	0.438
Mof_Fe	Fe	0.98953	0.51937	0.20216	1.016
Mof_O 	O 	0.93413	0.39894	0.22142	-0.474
Mof_O 	O 	0.93584	0.4561	0.18308	-0.421
Mof_O 	O 	0.72683	0.36157	0.11979	-0.399
Mof_O 	O 	0.79463	0.42477	0.10337	-0.44
Mof_H 	H 	0.77683	0.43257	0.09127	0.196
Mof_O 	O 	0.59317	0.06058	0.22467	-0.397
Mof_O 	O 	0.58961	0.0403	0.2891	-0.393
Mof_O 	O 	0.74512	0.11262	0.36289	-0.494
Mof_O 	O 	0.807	0.17733	0.33647	-0.422
Mof_C 	C 	0.91653	0.41457	0.19627	0.442
Mof_C 	C 	0.86683	0.38087	0.18138	-0.125
Mof_C 	C 	0.84363	0.39777	0.15677	0.068
Mof_H 	H 	0.86023	0.43007	0.14797	0.046
Mof_C 	C 	0.79653	0.36777	0.14487	-0.125
Mof_C 	C 	0.77313	0.32047	0.15707	0.01
Mof_H 	H 	0.74123	0.29967	0.14847	0.054
Mof_C 	C 	0.79573	0.30317	0.18157	-0.002
Mof_C 	C 	0.84303	0.33437	0.19327	0.01
Mof_H 	H 	0.85893	0.32277	0.20987	0.054
Mof_C 	C 	0.76943	0.38567	0.12187	0.448
Mof_C 	C 	0.77073	0.25527	0.19667	0.002
Mof_C 	C 	0.75013	0.21797	0.21297	-0.004
Mof_C 	C 	0.72803	0.17757	0.23991	0.004
Mof_C 	C 	0.68183	0.13997	0.23538	-0.002
Mof_H 	H 	0.66413	0.13837	0.21207	0.058
Mof_C 	C 	0.66103	0.10477	0.26411	-0.11
Mof_C 	C 	0.68732	0.10596	0.2972	0.06
Mof_H 	H 	0.67303	0.08177	0.31707	0.043
Mof_C 	C 	0.73423	0.14217	0.30171	-0.123
Mof_C 	C 	0.75403	0.17807	0.27327	0.002
Mof_H 	H 	0.78593	0.20347	0.27667	0.055
Mof_C 	C 	0.61043	0.06507	0.25883	0.406
Mof_C 	C 	0.76443	0.14417	0.33667	0.446
Mof_Fe	Fe	0.1965	0.3438	0.53549	0.995
Mof_O 	O 	0.13147	0.3992	0.55475	-0.479
Mof_O 	O 	0.18692	0.39749	0.51641	-0.422
Mof_O 	O 	0.3014	0.6065	0.45312	-0.399
Mof_O 	O 	0.2968	0.5387	0.4367	-0.44
Mof_H 	H 	0.3224	0.5565	0.4246	0.196
Mof_O 	O 	0.13407	0.74016	0.558	-0.397
Mof_O 	O 	0.11735	0.74372	0.62243	-0.387
Mof_O 	O 	0.03416	0.58821	0.69622	-0.496
Mof_O 	O 	0.03699	0.52633	0.6698	-0.428
Mof_C 	C 	0.1647	0.4168	0.5296	0.442
Mof_C 	C 	0.1807	0.4665	0.51471	-0.126
Mof_C 	C 	0.2208	0.4897	0.4901	0.069
Mof_H 	H 	0.2365	0.4731	0.4813	0.045
Mof_C 	C 	0.2379	0.5368	0.4782	-0.126
Mof_C 	C 	0.214	0.5602	0.4904	0.011
Mof_H 	H 	0.2251	0.5921	0.4818	0.054
Mof_C 	C 	0.1741	0.5376	0.5149	-0.004
Mof_C 	C 	0.158	0.4903	0.5266	0.01
Mof_H 	H 	0.1305	0.4744	0.5432	0.052
Mof_C 	C 	0.2829	0.5639	0.4552	0.448
Mof_C 	C 	0.1512	0.5626	0.53	0.001
Mof_C 	C 	0.1345	0.5832	0.5463	-0.005
Mof_C 	C 	0.1162	0.6053	0.57324	0.003
Mof_C 	C 	0.1248	0.6515	0.56871	-0.003
Mof_H 	H 	0.1409	0.6692	0.5454	0.058
Mof_C 	C 	0.1104	0.6723	0.59744	-0.109
Mof_C 	C 	0.0853	0.64601	0.63053	0.06
Mof_H 	H 	0.0754	0.6603	0.6504	0.044
Mof_C 	C 	0.0746	0.5991	0.63504	-0.124
Mof_C 	C 	0.0907	0.5793	0.6066	0.002
Mof_H 	H 	0.0842	0.5474	0.61	0.053
Mof_C 	C 	0.1213	0.7229	0.59216	0.405
Mof_C 	C 	0.0464	0.5689	0.67	0.448
Mof_Fe	Fe	0.86317	0.67713	0.86882	0.996
Mof_O 	O 	0.79814	0.73253	0.88808	-0.478
Mof_O 	O 	0.85359	0.73082	0.84974	-0.422
Mof_O 	O 	0.96807	0.93983	0.78645	-0.386
Mof_O 	O 	0.96347	0.87203	0.77003	-0.445
Mof_H 	H 	0.98907	0.88983	0.75793	0.212
Mof_O 	O 	0.80074	0.07349	0.89133	-0.401
Mof_O 	O 	0.78402	0.07705	0.95576	-0.393
Mof_O 	O 	0.70083	0.92154	0.02955	-0.494
Mof_O 	O 	0.70366	0.85966	0.00313	-0.423
Mof_C 	C 	0.83137	0.75013	0.86293	0.441
Mof_C 	C 	0.84737	0.79983	0.84804	-0.123
Mof_C 	C 	0.88747	0.82303	0.82343	0.066
Mof_H 	H 	0.90317	0.80643	0.81463	0.047
Mof_C 	C 	0.90457	0.87013	0.81153	-0.121
Mof_C 	C 	0.88067	0.89353	0.82373	0.006
Mof_H 	H 	0.89177	0.92543	0.81513	0.058
Mof_C 	C 	0.84077	0.87093	0.84823	0.004
Mof_C 	C 	0.82467	0.82363	0.85993	0.006
Mof_H 	H 	0.79717	0.80773	0.87653	0.055
Mof_C 	C 	0.94957	0.89723	0.78853	0.447
Mof_C 	C 	0.81787	0.89593	0.86333	-0.006
Mof_C 	C 	0.80117	0.91653	0.87963	0.014
Mof_C 	C 	0.78287	0.93863	0.90657	-0.027
Mof_C 	C 	0.79147	0.98483	0.90204	0.061
Mof_H 	H 	0.80757	0.00253	0.87873	0.03
Mof_C 	C 	0.77707	0.00563	0.93077	-0.161
Mof_C 	C 	0.75197	0.97934	0.96386	0.102
Mof_H 	H 	0.74207	0.99363	0.98373	0.035
Mof_C 	C 	0.74127	0.93243	0.96837	-0.145
Mof_C 	C 	0.75737	0.91263	0.93993	0.028
Mof_H 	H 	0.75087	0.88073	0.94333	0.046
Mof_C 	C 	0.78797	0.05623	0.92549	0.422
Mof_C 	C 	0.71307	0.90223	0.00333	0.455
Mof_Fe	Fe	0.52983	0.01047	0.20216	0.982
Mof_O 	O 	0.4648	0.06587	0.22142	-0.479
Mof_O 	O 	0.52025	0.06416	0.18308	-0.423
Mof_O 	O 	0.63473	0.27317	0.11979	-0.399
Mof_O 	O 	0.63013	0.20537	0.10337	-0.441
Mof_H 	H 	0.65573	0.22317	0.09127	0.196
Mof_O 	O 	0.4674	0.40683	0.22467	-0.396
Mof_O 	O 	0.45068	0.41039	0.2891	-0.386
Mof_O 	O 	0.36749	0.25488	0.36289	-0.493
Mof_O 	O 	0.37032	0.193	0.33647	-0.422
Mof_C 	C 	0.49803	0.08347	0.19627	0.441
Mof_C 	C 	0.51403	0.13317	0.18138	-0.126
Mof_C 	C 	0.55413	0.15637	0.15677	0.069
Mof_H 	H 	0.56983	0.13977	0.14797	0.045
Mof_C 	C 	0.57123	0.20347	0.14487	-0.126
Mof_C 	C 	0.54733	0.22687	0.15707	0.011
Mof_H 	H 	0.55843	0.25877	0.14847	0.054
Mof_C 	C 	0.50743	0.20427	0.18157	-0.003
Mof_C 	C 	0.49133	0.15697	0.19327	0.01
Mof_H 	H 	0.46383	0.14107	0.20987	0.053
Mof_C 	C 	0.61623	0.23057	0.12187	0.448
Mof_C 	C 	0.48453	0.22927	0.19667	0.002
Mof_C 	C 	0.46783	0.24987	0.21297	-0.004
Mof_C 	C 	0.44953	0.27197	0.23991	0.004
Mof_C 	C 	0.45813	0.31817	0.23538	-0.003
Mof_H 	H 	0.47423	0.33587	0.21207	0.058
Mof_C 	C 	0.44373	0.33897	0.26411	-0.108
Mof_C 	C 	0.41863	0.31268	0.2972	0.059
Mof_H 	H 	0.40873	0.32697	0.31707	0.045
Mof_C 	C 	0.40793	0.26577	0.30171	-0.122
Mof_C 	C 	0.42403	0.24597	0.27327	0.001
Mof_H 	H 	0.41753	0.21407	0.27667	0.054
Mof_C 	C 	0.45463	0.38957	0.25883	0.405
Mof_C 	C 	0.37973	0.23557	0.33667	0.446
Mof_Fe	Fe	0.10337	0.77003	0.08333	2.134
Mof_O 	O 	0.03583	0.70249	0.08333	-0.262
Mof_O 	O 	0.16238	0.82904	0.08333	-0.709
Mof_Ni	Ni	0.10017	0.76683	0.08333	-0.442
Mof_Fe	Fe	0.22997	0.33333	0.08333	2.133
Mof_O 	O 	0.29751	0.33333	0.08333	-0.258
Mof_O 	O 	0.17096	0.33333	0.08333	-0.709
Mof_Ni	Ni	0.23317	0.33333	0.08333	-0.442
Mof_Fe	Fe	0.66667	0.89663	0.08333	2.133
Mof_O 	O 	0.66667	0.96417	0.08333	-0.254
Mof_O 	O 	0.66667	0.83762	0.08333	-0.71
Mof_Ni	Ni	0.66667	0.89983	0.08333	-0.441
Mof_Fe	Fe	0.77003	0.10337	0.41667	2.134
Mof_O 	O 	0.70249	0.03583	0.41667	-0.262
Mof_O 	O 	0.82904	0.16238	0.41667	-0.709
Mof_Ni	Ni	0.76683	0.10017	0.41667	-0.442
Mof_Fe	Fe	0.4367	0.4367	0.75	2.133
Mof_O 	O 	0.36916	0.36916	0.75	-0.258
Mof_O 	O 	0.49571	0.49571	0.75	-0.71
Mof_Ni	Ni	0.4335	0.4335	0.75	-0.442
Mof_Fe	Fe	0.33333	0.22997	0.41667	2.133
Mof_O 	O 	0.33333	0.29751	0.41667	-0.258
Mof_O 	O 	0.33333	0.17096	0.41667	-0.709
Mof_Ni	Ni	0.33333	0.23317	0.41667	-0.442
Mof_Fe	Fe	2.55622e-17	0.5633	0.75	2.136
Mof_O 	O 	8.56969e-17	0.63084	0.75	-0.264
Mof_O 	O 	-4.50509e-18	0.50429	0.75	-0.717
Mof_Ni	Ni	2.55622e-17	0.5665	0.75	-0.447
Mof_Fe	Fe	0.89663	0.66667	0.41667	2.133
Mof_O 	O 	0.96417	0.66667	0.41667	-0.254
Mof_O 	O 	0.83762	0.66667	0.41667	-0.71
Mof_Ni	Ni	0.89983	0.66667	0.41667	-0.441
Mof_Fe	Fe	0.5633	0	0.75	2.136
Mof_O 	O 	0.63084	0	0.75	-0.264
Mof_O 	O 	0.50429	0	0.75	-0.717
Mof_Ni	Ni	0.5665	0	0.75	-0.447
Mof_Fe	Fe	0.89663	0.22997	0.91667	2.133
Mof_O 	O 	0.96417	0.29751	0.91667	-0.254
Mof_O 	O 	0.83762	0.17096	0.91667	-0.71
Mof_Ni	Ni	0.89983	0.23317	0.91667	-0.441
Mof_Fe	Fe	0.5633	0.5633	0.25	2.133
Mof_O 	O 	0.63084	0.63084	0.25	-0.258
Mof_O 	O 	0.50429	0.50429	0.25	-0.71
Mof_Ni	Ni	0.5665	0.5665	0.25	-0.442
Mof_Fe	Fe	0.77003	0.66667	0.91667	2.133
Mof_O 	O 	0.70249	0.66667	0.91667	-0.258
Mof_O 	O 	0.82904	0.66667	0.91667	-0.709
Mof_Ni	Ni	0.76683	0.66667	0.91667	-0.442
Mof_Fe	Fe	0.4367	0	0.25	2.136
Mof_O 	O 	0.36916	0	0.25	-0.264
Mof_O 	O 	0.49571	0	0.25	-0.717
Mof_Ni	Ni	0.4335	0	0.25	-0.448
Mof_Fe	Fe	0.33333	0.10337	0.91667	2.134
Mof_O 	O 	0.33333	0.03583	0.91667	-0.262
Mof_O 	O 	0.33333	0.16238	0.91667	-0.709
Mof_Ni	Ni	0.33333	0.10017	0.91667	-0.442
Mof_Fe	Fe	-1.5017e-18	0.4367	0.25	2.136
Mof_O 	O 	2.85656e-17	0.36916	0.25	-0.264
Mof_O 	O 	-1.5017e-18	0.49571	0.25	-0.717
Mof_Ni	Ni	-1.5017e-18	0.4335	0.25	-0.447
Mof_Fe	Fe	0.22997	0.89663	0.58333	2.133
Mof_O 	O 	0.29751	0.96417	0.58333	-0.254
Mof_O 	O 	0.17096	0.83762	0.58333	-0.71
Mof_Ni	Ni	0.23317	0.89983	0.58333	-0.441
Mof_Fe	Fe	0.66667	0.77003	0.58333	2.133
Mof_O 	O 	0.66667	0.70249	0.58333	-0.258
Mof_O 	O 	0.66667	0.82904	0.58333	-0.709
Mof_Ni	Ni	0.66667	0.76683	0.58333	-0.442
Mof_Fe	Fe	0.10337	0.33333	0.58333	2.134
Mof_O 	O 	0.03583	0.33333	0.58333	-0.262
Mof_O 	O 	0.16238	0.33333	0.58333	-0.709
Mof_Ni	Ni	0.10017	0.33333	0.58333	-0.442
Mof_Fe	Fe	0.33333	0.66667	0.91667	1.007
Mof_Fe	Fe	3.33814e-33	0	0.25	0.973
Mof_Fe	Fe	0.66667	0.33333	0.58333	1.007
Mof_Fe	Fe	0.66667	0.33333	0.08333	1.007
Mof_Fe	Fe	-6.67629e-33	0	0.75	0.973
Mof_Fe	Fe	0.33333	0.66667	0.41667	1.007
_end
