data_functionalizedCrystal
_audit_creation_method	'EQeq! by Chris Wilmer'
_symmetry_space_group_name_H-M	'P1'
_symmetry_Int_Tables_number	1
_symmetry_cell_setting	triclinic
loop_
_symmetry_equiv_pos_as_xyz
  x,y,z
_cell_length_a	15.512
_cell_length_b	13.7953
_cell_length_c	13.0199
_cell_angle_alpha	90
_cell_angle_beta	90
_cell_angle_gamma	90
loop_
_atom_site_label
_atom_site_type_symbol
_atom_site_fract_x
_atom_site_fract_y
_atom_site_fract_z
_atom_site_charge
Mof_U 	U 	0.24452	0.49013	0.43733	0.037
Mof_U 	U 	0.22309	0.23857	0.58577	0.038
Mof_P 	P 	0.2227	0.0182	0.1757	0.474
Mof_P 	P 	0.1867	0.2421	0.3445	0.465
Mof_O 	O 	0.1975	0.3278	0.4205	-0.122
Mof_O 	O 	0.2673	0.093	0.1027	-0.123
Mof_O 	O 	0.2109	0.9318	0.1011	-0.124
Mof_O 	O 	0.209	0.1536	0.4141	-0.124
Mof_O 	O 	0.2815	0.9922	0.2641	-0.137
Mof_O 	O 	0.2541	0.2518	0.2568	-0.132
Mof_O 	O 	0.0952	0.2387	0.306	-0.132
Mof_O 	O 	0.1374	0.0534	0.2135	-0.147
Mof_U 	U 	0.74452	0.99013	0.43733	0.039
Mof_U 	U 	0.72309	0.73857	0.58577	0.039
Mof_P 	P 	0.7227	0.5182	0.1757	0.476
Mof_P 	P 	0.6867	0.7421	0.3445	0.465
Mof_O 	O 	0.6975	0.8278	0.4205	-0.121
Mof_O 	O 	0.7673	0.593	0.1027	-0.122
Mof_O 	O 	0.7109	0.4318	0.1011	-0.125
Mof_O 	O 	0.709	0.6536	0.4141	-0.124
Mof_O 	O 	0.7815	0.4922	0.2641	-0.138
Mof_O 	O 	0.7541	0.7518	0.2568	-0.131
Mof_O 	O 	0.5952	0.7387	0.306	-0.131
Mof_O 	O 	0.6374	0.5534	0.2135	-0.146
Mof_U 	U 	0.75548	0.50987	0.93733	0.039
Mof_U 	U 	0.77691	0.76143	0.08577	0.04
Mof_P 	P 	0.7773	0.9818	0.6757	0.474
Mof_P 	P 	0.8133	0.7579	0.8445	0.465
Mof_O 	O 	0.8025	0.6722	0.9205	-0.121
Mof_O 	O 	0.7327	0.907	0.6027	-0.122
Mof_O 	O 	0.7891	0.0682	0.6011	-0.124
Mof_O 	O 	0.791	0.8464	0.9141	-0.125
Mof_O 	O 	0.7185	0.0078	0.7641	-0.137
Mof_O 	O 	0.7459	0.7482	0.7568	-0.132
Mof_O 	O 	0.9048	0.7613	0.806	-0.129
Mof_O 	O 	0.8626	0.9466	0.7135	-0.145
Mof_U 	U 	0.25548	0.00987	0.93733	0.04
Mof_U 	U 	0.27691	0.26143	0.08577	0.038
Mof_P 	P 	0.2773	0.4818	0.6757	0.476
Mof_P 	P 	0.3133	0.2579	0.8445	0.465
Mof_O 	O 	0.3025	0.1722	0.9205	-0.121
Mof_O 	O 	0.2327	0.407	0.6027	-0.123
Mof_O 	O 	0.2891	0.5682	0.6011	-0.126
Mof_O 	O 	0.291	0.3464	0.9141	-0.124
Mof_O 	O 	0.2185	0.5078	0.7641	-0.139
Mof_O 	O 	0.2459	0.2482	0.7568	-0.132
Mof_O 	O 	0.4048	0.2613	0.806	-0.131
Mof_O 	O 	0.3626	0.4466	0.7135	-0.146
Mof_U 	U 	0.24452	0.50987	0.93733	0.038
Mof_U 	U 	0.22309	0.76143	0.08577	0.039
Mof_P 	P 	0.2227	0.9818	0.6757	0.474
Mof_P 	P 	0.1867	0.7579	0.8445	0.465
Mof_O 	O 	0.1975	0.6722	0.9205	-0.122
Mof_O 	O 	0.2673	0.907	0.6027	-0.123
Mof_O 	O 	0.2109	0.0682	0.6011	-0.125
Mof_O 	O 	0.209	0.8464	0.9141	-0.125
Mof_O 	O 	0.2815	0.0078	0.7641	-0.137
Mof_O 	O 	0.2541	0.7482	0.7568	-0.132
Mof_O 	O 	0.0952	0.7613	0.806	-0.132
Mof_O 	O 	0.1374	0.9466	0.7135	-0.147
Mof_U 	U 	0.74452	0.00987	0.93733	0.04
Mof_U 	U 	0.72309	0.26143	0.08577	0.039
Mof_P 	P 	0.7227	0.4818	0.6757	0.476
Mof_P 	P 	0.6867	0.2579	0.8445	0.465
Mof_O 	O 	0.6975	0.1722	0.9205	-0.121
Mof_O 	O 	0.7673	0.407	0.6027	-0.122
Mof_O 	O 	0.7109	0.5682	0.6011	-0.125
Mof_O 	O 	0.709	0.3464	0.9141	-0.123
Mof_O 	O 	0.7815	0.5078	0.7641	-0.138
Mof_O 	O 	0.7541	0.2482	0.7568	-0.131
Mof_O 	O 	0.5952	0.2613	0.806	-0.131
Mof_O 	O 	0.6374	0.4466	0.7135	-0.146
Mof_U 	U 	0.75548	0.49013	0.43733	0.039
Mof_U 	U 	0.77691	0.23857	0.58577	0.039
Mof_P 	P 	0.7773	0.0182	0.1757	0.474
Mof_P 	P 	0.8133	0.2421	0.3445	0.465
Mof_O 	O 	0.8025	0.3278	0.4205	-0.121
Mof_O 	O 	0.7327	0.093	0.1027	-0.123
Mof_O 	O 	0.7891	0.9318	0.1011	-0.123
Mof_O 	O 	0.791	0.1536	0.4141	-0.123
Mof_O 	O 	0.7185	0.9922	0.2641	-0.137
Mof_O 	O 	0.7459	0.2518	0.2568	-0.132
Mof_O 	O 	0.9048	0.2387	0.306	-0.129
Mof_O 	O 	0.8626	0.0534	0.2135	-0.145
Mof_U 	U 	0.25548	0.99013	0.43733	0.039
Mof_U 	U 	0.27691	0.73857	0.58577	0.038
Mof_P 	P 	0.2773	0.5182	0.1757	0.476
Mof_P 	P 	0.3133	0.7421	0.3445	0.465
Mof_O 	O 	0.3025	0.8278	0.4205	-0.121
Mof_O 	O 	0.2327	0.593	0.1027	-0.123
Mof_O 	O 	0.2891	0.4318	0.1011	-0.126
Mof_O 	O 	0.291	0.6536	0.4141	-0.124
Mof_O 	O 	0.2185	0.4922	0.2641	-0.139
Mof_O 	O 	0.2459	0.7518	0.2568	-0.132
Mof_O 	O 	0.4048	0.7387	0.306	-0.131
Mof_O 	O 	0.3626	0.5534	0.2135	-0.146
Mof_U 	U 	-1.49739e-33	0.11612	0.24394	0.041
Mof_U 	U 	0.5	0.61612	0.24394	0.044
Mof_U 	U 	6.87137e-33	0.88388	0.74394	0.041
Mof_U 	U 	0.5	0.38388	0.74394	0.044
_end
