data_functionalizedCrystal
_audit_creation_method	'EQeq! by Chris Wilmer'
_symmetry_space_group_name_H-M	'P1'
_symmetry_Int_Tables_number	1
_symmetry_cell_setting	triclinic
loop_
_symmetry_equiv_pos_as_xyz
  x,y,z
_cell_length_a	29.6337
_cell_length_b	29.6337
_cell_length_c	3.4913
_cell_angle_alpha	90
_cell_angle_beta	90
_cell_angle_gamma	90
loop_
_atom_site_label
_atom_site_type_symbol
_atom_site_fract_x
_atom_site_fract_y
_atom_site_fract_z
_atom_site_charge
Mof_N 	N 	0.38199	0.27318	0.3119	-0.274
Mof_N 	N 	0.3294	0.3306	0.469	0.593
Mof_H 	H 	0.3481	0.3513	0.402	-0.141
Mof_H 	H 	0.3031	0.3378	0.553	-0.125
Mof_C 	C 	0.34173	0.2852	0.4405	0.53
Mof_H 	H 	0.3326	0.315	0.4679	-0.697
Mof_N 	N 	0.88199	0.77318	0.8119	-0.277
Mof_N 	N 	0.8294	0.8306	0.969	0.616
Mof_H 	H 	0.8481	0.8513	0.902	-0.146
Mof_H 	H 	0.8031	0.8378	0.053	-0.122
Mof_C 	C 	0.84173	0.7852	0.9405	0.529
Mof_H 	H 	0.8326	0.815	0.9679	-0.723
Mof_N 	N 	0.11801	0.72682	0.8119	-0.278
Mof_N 	N 	0.1706	0.6694	0.969	0.615
Mof_H 	H 	0.1519	0.6487	0.902	-0.147
Mof_H 	H 	0.1969	0.6622	0.053	-0.123
Mof_C 	C 	0.15827	0.7148	0.9405	0.528
Mof_H 	H 	0.1674	0.685	0.9679	-0.722
Mof_N 	N 	0.61801	0.22682	0.3119	-0.273
Mof_N 	N 	0.6706	0.1694	0.469	0.593
Mof_H 	H 	0.6519	0.1487	0.402	-0.142
Mof_H 	H 	0.6969	0.1622	0.553	-0.125
Mof_C 	C 	0.65827	0.2148	0.4405	0.53
Mof_H 	H 	0.6674	0.185	0.4679	-0.697
Mof_N 	N 	0.97682	0.13199	0.5619	-0.279
Mof_N 	N 	0.9194	0.0794	0.719	0.603
Mof_H 	H 	0.8987	0.0981	0.652	-0.138
Mof_H 	H 	0.9122	0.0531	0.803	-0.122
Mof_C 	C 	0.9648	0.09173	0.6905	0.535
Mof_H 	H 	0.935	0.0826	0.7179	-0.705
Mof_N 	N 	0.47682	0.63199	0.0619	-0.266
Mof_N 	N 	0.4194	0.5794	0.219	0.596
Mof_H 	H 	0.3987	0.5981	0.152	-0.136
Mof_H 	H 	0.4122	0.5531	0.303	-0.127
Mof_C 	C 	0.4648	0.59173	0.1905	0.532
Mof_H 	H 	0.435	0.5826	0.2179	-0.7
Mof_N 	N 	0.52318	0.86801	0.0619	-0.266
Mof_N 	N 	0.5806	0.9206	0.219	0.599
Mof_H 	H 	0.6013	0.9019	0.152	-0.136
Mof_H 	H 	0.5878	0.9469	0.303	-0.124
Mof_C 	C 	0.5352	0.90827	0.1905	0.536
Mof_H 	H 	0.565	0.9174	0.2179	-0.703
Mof_N 	N 	0.02318	0.36801	0.5619	-0.275
Mof_N 	N 	0.0806	0.4206	0.719	0.598
Mof_H 	H 	0.1013	0.4019	0.652	-0.136
Mof_H 	H 	0.0878	0.4469	0.803	-0.119
Mof_C 	C 	0.0352	0.40827	0.6905	0.54
Mof_H 	H 	0.065	0.4174	0.7179	-0.703
Mof_N 	N 	0.11801	0.27318	0.1881	-0.28
Mof_N 	N 	0.1706	0.3306	0.031	0.651
Mof_H 	H 	0.1519	0.3513	0.098	-0.165
Mof_H 	H 	0.1969	0.3378	0.947	-0.115
Mof_C 	C 	0.15827	0.2852	0.0595	0.53
Mof_H 	H 	0.1674	0.315	0.0321	-0.765
Mof_N 	N 	0.61801	0.77318	0.6881	-0.274
Mof_N 	N 	0.6706	0.8306	0.531	0.594
Mof_H 	H 	0.6519	0.8513	0.598	-0.139
Mof_H 	H 	0.6969	0.8378	0.447	-0.124
Mof_C 	C 	0.65827	0.7852	0.5595	0.531
Mof_H 	H 	0.6674	0.815	0.5321	-0.698
Mof_N 	N 	0.38199	0.72682	0.6881	-0.274
Mof_N 	N 	0.3294	0.6694	0.531	0.593
Mof_H 	H 	0.3481	0.6487	0.598	-0.14
Mof_H 	H 	0.3031	0.6622	0.447	-0.125
Mof_C 	C 	0.34173	0.7148	0.5595	0.531
Mof_H 	H 	0.3326	0.685	0.5321	-0.697
Mof_N 	N 	0.88199	0.22682	0.1881	-0.28
Mof_N 	N 	0.8294	0.1694	0.031	0.651
Mof_H 	H 	0.8481	0.1487	0.098	-0.165
Mof_H 	H 	0.8031	0.1622	0.947	-0.116
Mof_C 	C 	0.84173	0.2148	0.0595	0.53
Mof_H 	H 	0.8326	0.185	0.0321	-0.765
Mof_N 	N 	0.52318	0.13199	0.9381	-0.26
Mof_N 	N 	0.5806	0.0794	0.781	0.599
Mof_H 	H 	0.6013	0.0981	0.848	-0.133
Mof_H 	H 	0.5878	0.0531	0.697	-0.128
Mof_C 	C 	0.5352	0.09173	0.8095	0.534
Mof_H 	H 	0.565	0.0826	0.7821	-0.702
Mof_N 	N 	0.02318	0.63199	0.4381	-0.273
Mof_N 	N 	0.0806	0.5794	0.281	0.592
Mof_H 	H 	0.1013	0.5981	0.348	-0.137
Mof_H 	H 	0.0878	0.5531	0.197	-0.126
Mof_C 	C 	0.0352	0.59173	0.3095	0.532
Mof_H 	H 	0.065	0.5826	0.2821	-0.696
Mof_N 	N 	0.97682	0.86801	0.4381	-0.278
Mof_N 	N 	0.9194	0.9206	0.281	0.6
Mof_H 	H 	0.8987	0.9019	0.348	-0.138
Mof_H 	H 	0.9122	0.9469	0.197	-0.124
Mof_C 	C 	0.9648	0.90827	0.3095	0.531
Mof_H 	H 	0.935	0.9174	0.2821	-0.702
Mof_N 	N 	0.47682	0.36801	0.9381	-0.261
Mof_N 	N 	0.4194	0.4206	0.781	0.599
Mof_H 	H 	0.3987	0.4019	0.848	-0.132
Mof_H 	H 	0.4122	0.4469	0.697	-0.127
Mof_C 	C 	0.4648	0.40827	0.8095	0.535
Mof_H 	H 	0.435	0.4174	0.7821	-0.703
Mof_N 	N 	0.61801	0.72682	0.6881	-0.274
Mof_N 	N 	0.6706	0.6694	0.531	0.593
Mof_H 	H 	0.6519	0.6487	0.598	-0.14
Mof_H 	H 	0.6969	0.6622	0.447	-0.125
Mof_C 	C 	0.65827	0.7148	0.5595	0.531
Mof_H 	H 	0.6674	0.685	0.5321	-0.697
Mof_N 	N 	0.11801	0.22682	0.1881	-0.28
Mof_N 	N 	0.1706	0.1694	0.031	0.651
Mof_H 	H 	0.1519	0.1487	0.098	-0.165
Mof_H 	H 	0.1969	0.1622	0.947	-0.116
Mof_C 	C 	0.15827	0.2148	0.0595	0.53
Mof_H 	H 	0.1674	0.185	0.0321	-0.764
Mof_N 	N 	0.88199	0.27318	0.1881	-0.28
Mof_N 	N 	0.8294	0.3306	0.031	0.652
Mof_H 	H 	0.8481	0.3513	0.098	-0.164
Mof_H 	H 	0.8031	0.3378	0.947	-0.115
Mof_C 	C 	0.84173	0.2852	0.0595	0.53
Mof_H 	H 	0.8326	0.315	0.0321	-0.765
Mof_N 	N 	0.38199	0.77318	0.6881	-0.274
Mof_N 	N 	0.3294	0.8306	0.531	0.594
Mof_H 	H 	0.3481	0.8513	0.598	-0.139
Mof_H 	H 	0.3031	0.8378	0.447	-0.124
Mof_C 	C 	0.34173	0.7852	0.5595	0.531
Mof_H 	H 	0.3326	0.815	0.5321	-0.698
Mof_N 	N 	0.02318	0.86801	0.4381	-0.274
Mof_N 	N 	0.0806	0.9206	0.281	0.595
Mof_H 	H 	0.1013	0.9019	0.348	-0.137
Mof_H 	H 	0.0878	0.9469	0.197	-0.122
Mof_C 	C 	0.0352	0.90827	0.3095	0.536
Mof_H 	H 	0.065	0.9174	0.2821	-0.699
Mof_N 	N 	0.52318	0.36801	0.9381	-0.261
Mof_N 	N 	0.5806	0.4206	0.781	0.599
Mof_H 	H 	0.6013	0.4019	0.848	-0.132
Mof_H 	H 	0.5878	0.4469	0.697	-0.127
Mof_C 	C 	0.5352	0.40827	0.8095	0.535
Mof_H 	H 	0.565	0.4174	0.7821	-0.703
Mof_N 	N 	0.47682	0.13199	0.9381	-0.26
Mof_N 	N 	0.4194	0.0794	0.781	0.599
Mof_H 	H 	0.3987	0.0981	0.848	-0.133
Mof_H 	H 	0.4122	0.0531	0.697	-0.128
Mof_C 	C 	0.4648	0.09173	0.8095	0.534
Mof_H 	H 	0.435	0.0826	0.7821	-0.702
Mof_N 	N 	0.97682	0.63199	0.4381	-0.278
Mof_N 	N 	0.9194	0.5794	0.281	0.598
Mof_H 	H 	0.8987	0.5981	0.348	-0.139
Mof_H 	H 	0.9122	0.5531	0.197	-0.128
Mof_C 	C 	0.9648	0.59173	0.3095	0.528
Mof_H 	H 	0.935	0.5826	0.2821	-0.7
Mof_N 	N 	0.88199	0.72682	0.8119	-0.277
Mof_N 	N 	0.8294	0.6694	0.969	0.615
Mof_H 	H 	0.8481	0.6487	0.902	-0.146
Mof_H 	H 	0.8031	0.6622	0.053	-0.123
Mof_C 	C 	0.84173	0.7148	0.9405	0.529
Mof_H 	H 	0.8326	0.685	0.9679	-0.722
Mof_N 	N 	0.38199	0.22682	0.3119	-0.273
Mof_N 	N 	0.3294	0.1694	0.469	0.593
Mof_H 	H 	0.3481	0.1487	0.402	-0.142
Mof_H 	H 	0.3031	0.1622	0.553	-0.125
Mof_C 	C 	0.34173	0.2148	0.4405	0.53
Mof_H 	H 	0.3326	0.185	0.4679	-0.697
Mof_N 	N 	0.61801	0.27318	0.3119	-0.273
Mof_N 	N 	0.6706	0.3306	0.469	0.593
Mof_H 	H 	0.6519	0.3513	0.402	-0.141
Mof_H 	H 	0.6969	0.3378	0.553	-0.125
Mof_C 	C 	0.65827	0.2852	0.4405	0.53
Mof_H 	H 	0.6674	0.315	0.4679	-0.697
Mof_N 	N 	0.11801	0.77318	0.8119	-0.278
Mof_N 	N 	0.1706	0.8306	0.969	0.615
Mof_H 	H 	0.1519	0.8513	0.902	-0.146
Mof_H 	H 	0.1969	0.8378	0.053	-0.122
Mof_C 	C 	0.15827	0.7852	0.9405	0.529
Mof_H 	H 	0.1674	0.815	0.9679	-0.723
Mof_N 	N 	0.47682	0.86801	0.0619	-0.266
Mof_N 	N 	0.4194	0.9206	0.219	0.599
Mof_H 	H 	0.3987	0.9019	0.152	-0.136
Mof_H 	H 	0.4122	0.9469	0.303	-0.124
Mof_C 	C 	0.4648	0.90827	0.1905	0.536
Mof_H 	H 	0.435	0.9174	0.2179	-0.703
Mof_N 	N 	0.97682	0.36801	0.5619	-0.279
Mof_N 	N 	0.9194	0.4206	0.719	0.604
Mof_H 	H 	0.8987	0.4019	0.652	-0.137
Mof_H 	H 	0.9122	0.4469	0.803	-0.121
Mof_C 	C 	0.9648	0.40827	0.6905	0.535
Mof_H 	H 	0.935	0.4174	0.7179	-0.706
Mof_N 	N 	0.02318	0.13199	0.5619	-0.274
Mof_N 	N 	0.0806	0.0794	0.719	0.598
Mof_H 	H 	0.1013	0.0981	0.652	-0.136
Mof_H 	H 	0.0878	0.0531	0.803	-0.12
Mof_C 	C 	0.0352	0.09173	0.6905	0.539
Mof_H 	H 	0.065	0.0826	0.7179	-0.702
Mof_N 	N 	0.52318	0.63199	0.0619	-0.266
Mof_N 	N 	0.5806	0.5794	0.219	0.596
Mof_H 	H 	0.6013	0.5981	0.152	-0.136
Mof_H 	H 	0.5878	0.5531	0.303	-0.127
Mof_C 	C 	0.5352	0.59173	0.1905	0.532
Mof_H 	H 	0.565	0.5826	0.2179	-0.7
Mof_Ag	Ag	0.43868	0.31132	0.125	0.33
Mof_Ag	Ag	0.06132	0.68868	0.625	0.364
Mof_Ag	Ag	0.93868	0.18868	0.375	0.357
Mof_Ag	Ag	0.56132	0.81132	0.875	0.342
Mof_Ag	Ag	0.06132	0.31132	0.375	0.363
Mof_Ag	Ag	0.43868	0.68868	0.875	0.341
Mof_Ag	Ag	0.56132	0.18868	0.125	0.33
Mof_Ag	Ag	0.93868	0.81132	0.625	0.358
Mof_Ag	Ag	0.56132	0.68868	0.875	0.341
Mof_Ag	Ag	0.93868	0.31132	0.375	0.357
Mof_Ag	Ag	0.06132	0.81132	0.625	0.365
Mof_Ag	Ag	0.43868	0.18868	0.125	0.33
Mof_Ag	Ag	0.93868	0.68868	0.625	0.358
Mof_Ag	Ag	0.56132	0.31132	0.125	0.33
Mof_Ag	Ag	0.43868	0.81132	0.875	0.342
Mof_Ag	Ag	0.06132	0.18868	0.375	0.363
Mof_Ag	Ag	0.25	0.25	0.75	0.563
Mof_Ag	Ag	0.25	0.75	0.25	0.554
Mof_Ag	Ag	-0	0	-0	0.5
Mof_Ag	Ag	0.5	0.5	0.5	0.537
Mof_Ag	Ag	0.5	0	0.5	0.52
Mof_Ag	Ag	-0	0.5	-0	0.516
Mof_Ag	Ag	0.75	0.25	0.75	0.563
Mof_Ag	Ag	0.75	0.75	0.25	0.554
Mof_N 	N 	0.31578	0.25	0.5262	-0.403
Mof_N 	N 	0.18422	0.75	0.0262	-0.391
Mof_N 	N 	-1.71553e-33	0.06578	0.7762	-0.389
Mof_N 	N 	0.5	0.56578	0.2762	-0.403
Mof_N 	N 	0.5	0.93422	0.2762	-0.399
Mof_N 	N 	-6.86328e-34	0.43422	0.7762	-0.391
Mof_N 	N 	0.18422	0.25	0.9738	-0.375
Mof_N 	N 	0.31578	0.75	0.4738	-0.403
Mof_N 	N 	0.81578	0.25	0.9738	-0.375
Mof_N 	N 	0.5	0.06578	0.7238	-0.402
Mof_N 	N 	-3.50335e-33	0.56578	0.2238	-0.395
Mof_N 	N 	-3.50335e-33	0.93422	0.2238	-0.391
Mof_N 	N 	0.5	0.43422	0.7238	-0.404
Mof_N 	N 	0.68422	0.75	0.4738	-0.403
Mof_N 	N 	0.81578	0.75	0.0262	-0.391
Mof_N 	N 	0.68422	0.25	0.5262	-0.403
_end
