# CIF file generated by openbabel 3.1.0, see https://openbabel.org
data_I
_chemical_name_common 'image0'
_cell_length_a 21.23
_cell_length_b 21.23
_cell_length_c 6.029
_cell_angle_alpha 90
_cell_angle_beta 90
_cell_angle_gamma 90
_space_group_name_H-M_alt 'P 1'
_space_group_name_Hall 'P 1'
loop_
    _symmetry_equiv_pos_as_xyz
    x,y,z
loop_
    _atom_site_label
    _atom_site_type_symbol
    _atom_site_fract_x
    _atom_site_fract_y
    _atom_site_fract_z
    _atom_site_occupancy
    Cd1      Cd       0.32981    0.76936    0.96341    1.000
    O1       O        0.40020    0.85670    0.97490    1.000
    O2       O        0.40400    0.80090    0.65890    1.000
    O3       O        0.31280    0.76740    0.34220    1.000
    H1       H        0.34700    0.79700    0.34000    1.000
    N1       N        0.63540    0.00090    0.49550    1.000
    N2       N        0.66320    0.99220    0.28650    1.000
    N3       N        0.70260    0.07990    0.46030    1.000
    C1       C        0.42490    0.84480    0.78300    1.000
    C2       C        0.48210    0.88210    0.70700    1.000
    C3       C        0.51040    0.92240    0.84700    1.000
    H2       H        0.49660    0.92370    0.99290    1.000
    C4       C        0.56150    0.96410    0.78100    1.000
    H3       H        0.57760    0.99380    0.87980    1.000
    C5       C        0.58560    0.95840    0.56700    1.000
    C6       C        0.55390    0.91850    0.42700    1.000
    H4       H        0.56540    0.91720    0.27870    1.000
    C7       C        0.50550    0.88020    0.49900    1.000
    H5       H        0.48810    0.85170    0.39920    1.000
    C8       C        0.65860    0.05050    0.59500    1.000
    H6       H        0.64720    0.06400    0.73580    1.000
    C9       C        0.70290    0.04100    0.27400    1.000
    H7       H        0.72850    0.04830    0.15100    1.000
    Cd2      Cd       0.17019    0.73064    0.96341    1.000
    O4       O        0.09980    0.64330    0.97490    1.000
    O5       O        0.09600    0.69910    0.65890    1.000
    O6       O        0.18720    0.73260    0.34220    1.000
    H8       H        0.15300    0.70300    0.34000    1.000
    N4       N        0.86460    0.49910    0.49550    1.000
    N5       N        0.83680    0.50780    0.28650    1.000
    N6       N        0.79740    0.42010    0.46030    1.000
    C10      C        0.07510    0.65520    0.78300    1.000
    C11      C        0.01790    0.61790    0.70700    1.000
    C12      C        0.98960    0.57760    0.84700    1.000
    H9       H        0.00340    0.57630    0.99290    1.000
    C13      C        0.93850    0.53590    0.78100    1.000
    H10      H        0.92240    0.50620    0.87980    1.000
    C14      C        0.91440    0.54160    0.56700    1.000
    C15      C        0.94610    0.58150    0.42700    1.000
    H11      H        0.93460    0.58280    0.27870    1.000
    C16      C        0.99450    0.61980    0.49900    1.000
    H12      H        0.01190    0.64830    0.39920    1.000
    C17      C        0.84140    0.44950    0.59500    1.000
    H13      H        0.85280    0.43600    0.73580    1.000
    C18      C        0.79710    0.45900    0.27400    1.000
    H14      H        0.77150    0.45170    0.15100    1.000
    Cd3      Cd       0.23064    0.82981    0.46341    1.000
    O7       O        0.14330    0.90020    0.47490    1.000
    O8       O        0.19910    0.90400    0.15890    1.000
    O9       O        0.23260    0.81280    0.84220    1.000
    H15      H        0.20300    0.84700    0.84000    1.000
    N7       N        0.99910    0.13540    0.99550    1.000
    N8       N        0.00780    0.16320    0.78650    1.000
    N9       N        0.92010    0.20260    0.96030    1.000
    C19      C        0.15520    0.92490    0.28300    1.000
    C20      C        0.11790    0.98210    0.20700    1.000
    C21      C        0.07760    0.01040    0.34700    1.000
    H16      H        0.07630    0.99660    0.49290    1.000
    C22      C        0.03590    0.06150    0.28100    1.000
    H17      H        0.00620    0.07760    0.37980    1.000
    C23      C        0.04160    0.08560    0.06700    1.000
    C24      C        0.08150    0.05390    0.92700    1.000
    H18      H        0.08280    0.06540    0.77870    1.000
    C25      C        0.11980    0.00550    0.99900    1.000
    H19      H        0.14830    0.98810    0.89920    1.000
    C26      C        0.94950    0.15860    0.09500    1.000
    H20      H        0.93600    0.14720    0.23580    1.000
    C27      C        0.95900    0.20290    0.77400    1.000
    H21      H        0.95170    0.22850    0.65100    1.000
    Cd4      Cd       0.26936    0.67019    0.46341    1.000
    O10      O        0.35670    0.59980    0.47490    1.000
    O11      O        0.30090    0.59600    0.15890    1.000
    O12      O        0.26740    0.68720    0.84220    1.000
    H22      H        0.29700    0.65300    0.84000    1.000
    N10      N        0.50090    0.36460    0.99550    1.000
    N11      N        0.49220    0.33680    0.78650    1.000
    N12      N        0.57990    0.29740    0.96030    1.000
    C28      C        0.34480    0.57510    0.28300    1.000
    C29      C        0.38210    0.51790    0.20700    1.000
    C30      C        0.42240    0.48960    0.34700    1.000
    H23      H        0.42370    0.50340    0.49290    1.000
    C31      C        0.46410    0.43850    0.28100    1.000
    H24      H        0.49380    0.42240    0.37980    1.000
    C32      C        0.45840    0.41440    0.06700    1.000
    C33      C        0.41850    0.44610    0.92700    1.000
    H25      H        0.41720    0.43460    0.77870    1.000
    C34      C        0.38020    0.49450    0.99900    1.000
    H26      H        0.35170    0.51190    0.89920    1.000
    C35      C        0.55050    0.34140    0.09500    1.000
    H27      H        0.56400    0.35280    0.23580    1.000
    C36      C        0.54100    0.29710    0.77400    1.000
    H28      H        0.54830    0.27150    0.65100    1.000
    Cd5      Cd       0.67019    0.23064    0.03659    1.000
    O13      O        0.59980    0.14330    0.02510    1.000
    O14      O        0.59600    0.19910    0.34110    1.000
    O15      O        0.68720    0.23260    0.65780    1.000
    H29      H        0.65300    0.20300    0.66000    1.000
    N13      N        0.36460    0.99910    0.50450    1.000
    N14      N        0.33680    0.00780    0.71350    1.000
    N15      N        0.29740    0.92010    0.53970    1.000
    C37      C        0.57510    0.15520    0.21700    1.000
    C38      C        0.51790    0.11790    0.29300    1.000
    C39      C        0.48960    0.07760    0.15300    1.000
    H30      H        0.50340    0.07630    0.00710    1.000
    C40      C        0.43850    0.03590    0.21900    1.000
    H31      H        0.42240    0.00620    0.12020    1.000
    C41      C        0.41440    0.04160    0.43300    1.000
    C42      C        0.44610    0.08150    0.57300    1.000
    H32      H        0.43460    0.08280    0.72130    1.000
    C43      C        0.49450    0.11980    0.50100    1.000
    H33      H        0.51190    0.14830    0.60080    1.000
    C44      C        0.34140    0.94950    0.40500    1.000
    H34      H        0.35280    0.93600    0.26420    1.000
    C45      C        0.29710    0.95900    0.72600    1.000
    H35      H        0.27150    0.95170    0.84900    1.000
    Cd6      Cd       0.82981    0.26936    0.03659    1.000
    O16      O        0.90020    0.35670    0.02510    1.000
    O17      O        0.90400    0.30090    0.34110    1.000
    O18      O        0.81280    0.26740    0.65780    1.000
    H36      H        0.84700    0.29700    0.66000    1.000
    N16      N        0.13540    0.50090    0.50450    1.000
    N17      N        0.16320    0.49220    0.71350    1.000
    N18      N        0.20260    0.57990    0.53970    1.000
    C46      C        0.92490    0.34480    0.21700    1.000
    C47      C        0.98210    0.38210    0.29300    1.000
    C48      C        0.01040    0.42240    0.15300    1.000
    H37      H        0.99660    0.42370    0.00710    1.000
    C49      C        0.06150    0.46410    0.21900    1.000
    H38      H        0.07760    0.49380    0.12020    1.000
    C50      C        0.08560    0.45840    0.43300    1.000
    C51      C        0.05390    0.41850    0.57300    1.000
    H39      H        0.06540    0.41720    0.72130    1.000
    C52      C        0.00550    0.38020    0.50100    1.000
    H40      H        0.98810    0.35170    0.60080    1.000
    C53      C        0.15860    0.55050    0.40500    1.000
    H41      H        0.14720    0.56400    0.26420    1.000
    C54      C        0.20290    0.54100    0.72600    1.000
    H42      H        0.22850    0.54830    0.84900    1.000
    Cd7      Cd       0.76936    0.17019    0.53659    1.000
    O19      O        0.85670    0.09980    0.52510    1.000
    O20      O        0.80090    0.09600    0.84110    1.000
    O21      O        0.76740    0.18720    0.15780    1.000
    H43      H        0.79700    0.15300    0.16000    1.000
    N19      N        0.00090    0.86460    0.00450    1.000
    N20      N        0.99220    0.83680    0.21350    1.000
    N21      N        0.07990    0.79740    0.03970    1.000
    C55      C        0.84480    0.07510    0.71700    1.000
    C56      C        0.88210    0.01790    0.79300    1.000
    C57      C        0.92240    0.98960    0.65300    1.000
    H44      H        0.92370    0.00340    0.50710    1.000
    C58      C        0.96410    0.93850    0.71900    1.000
    H45      H        0.99380    0.92240    0.62020    1.000
    C59      C        0.95840    0.91440    0.93300    1.000
    C60      C        0.91850    0.94610    0.07300    1.000
    H46      H        0.91720    0.93460    0.22130    1.000
    C61      C        0.88020    0.99450    0.00100    1.000
    H47      H        0.85170    0.01190    0.10080    1.000
    C62      C        0.05050    0.84140    0.90500    1.000
    H48      H        0.06400    0.85280    0.76420    1.000
    C63      C        0.04100    0.79710    0.22600    1.000
    H49      H        0.04830    0.77150    0.34900    1.000
    Cd8      Cd       0.73064    0.32981    0.53659    1.000
    O22      O        0.64330    0.40020    0.52510    1.000
    O23      O        0.69910    0.40400    0.84110    1.000
    O24      O        0.73260    0.31280    0.15780    1.000
    H50      H        0.70300    0.34700    0.16000    1.000
    N22      N        0.49910    0.63540    0.00450    1.000
    N23      N        0.50780    0.66320    0.21350    1.000
    N24      N        0.42010    0.70260    0.03970    1.000
    C64      C        0.65520    0.42490    0.71700    1.000
    C65      C        0.61790    0.48210    0.79300    1.000
    C66      C        0.57760    0.51040    0.65300    1.000
    H51      H        0.57630    0.49660    0.50710    1.000
    C67      C        0.53590    0.56150    0.71900    1.000
    H52      H        0.50620    0.57760    0.62020    1.000
    C68      C        0.54160    0.58560    0.93300    1.000
    C69      C        0.58150    0.55390    0.07300    1.000
    H53      H        0.58280    0.56540    0.22130    1.000
    C70      C        0.61980    0.50550    0.00100    1.000
    H54      H        0.64830    0.48810    0.10080    1.000
    C71      C        0.44950    0.65860    0.90500    1.000
    H55      H        0.43600    0.64720    0.76420    1.000
    C72      C        0.45900    0.70290    0.22600    1.000
    H56      H        0.45170    0.72850    0.34900    1.000
