# CIF file generated by openbabel 3.1.0, see https://openbabel.org
data_I
_chemical_name_common 'KAYBIX_clean'
_cell_length_a 6.4463
_cell_length_b 10.9728
_cell_length_c 16.0996
_cell_angle_alpha 90
_cell_angle_beta 99.775
_cell_angle_gamma 90
_space_group_name_H-M_alt 'P 1'
_space_group_name_Hall 'P 1'
loop_
    _symmetry_equiv_pos_as_xyz
    x,y,z
loop_
    _atom_site_label
    _atom_site_type_symbol
    _atom_site_fract_x
    _atom_site_fract_y
    _atom_site_fract_z
    _atom_site_occupancy
    Ca1      Ca       0.24297    0.92848    0.95223    1.000
    Ca2      Ca       0.25703    0.42848    0.54777    1.000
    Ca3      Ca       0.75703    0.07152    0.04777    1.000
    Ca4      Ca       0.74297    0.57152    0.45223    1.000
    H1       H        0.56690    0.71760    0.76530    1.000
    H2       H        0.26540    0.77260    0.76620    1.000
    H3       H        0.71990    0.62430    0.66240    1.000
    H4       H        0.93310    0.21760    0.73470    1.000
    H5       H        0.23460    0.27260    0.73380    1.000
    H6       H        0.78010    0.12430    0.83760    1.000
    H7       H        0.43310    0.28240    0.23470    1.000
    H8       H        0.73460    0.22740    0.23380    1.000
    H9       H        0.28010    0.37570    0.33760    1.000
    H10      H        0.06690    0.78240    0.26530    1.000
    H11      H        0.76540    0.72740    0.26620    1.000
    H12      H        0.21990    0.87570    0.16240    1.000
    C1       C        0.01190    0.68970    0.70260    1.000
    C2       C        0.82860    0.80300    0.82300    1.000
    C3       C        0.70920    0.72920    0.76390    1.000
    C4       C        0.12170    0.76240    0.76500    1.000
    C5       C        0.80010    0.67300    0.70290    1.000
    C6       C        0.12140    0.62460    0.63930    1.000
    C7       C        0.73070    0.86730    0.89030    1.000
    C8       C        0.48810    0.18970    0.79740    1.000
    C9       C        0.67140    0.30300    0.67700    1.000
    C10      C        0.79080    0.22920    0.73610    1.000
    C11      C        0.37830    0.26240    0.73500    1.000
    C12      C        0.69990    0.17300    0.79710    1.000
    C13      C        0.37860    0.12460    0.86070    1.000
    C14      C        0.76930    0.36730    0.60970    1.000
    C15      C        0.98810    0.31030    0.29740    1.000
    C16      C        0.17140    0.19700    0.17700    1.000
    C17      C        0.29080    0.27080    0.23610    1.000
    C18      C        0.87830    0.23760    0.23500    1.000
    C19      C        0.19990    0.32700    0.29710    1.000
    C20      C        0.87860    0.37540    0.36070    1.000
    C21      C        0.26930    0.13270    0.10970    1.000
    C22      C        0.51190    0.81030    0.20260    1.000
    C23      C        0.32860    0.69700    0.32300    1.000
    C24      C        0.20920    0.77080    0.26390    1.000
    C25      C        0.62170    0.73760    0.26500    1.000
    C26      C        0.30010    0.82700    0.20290    1.000
    C27      C        0.62140    0.87540    0.13930    1.000
    C28      C        0.23070    0.63270    0.39030    1.000
    N1       N        0.03370    0.81910    0.82410    1.000
    N2       N        0.46630    0.31910    0.67590    1.000
    N3       N        0.96630    0.18090    0.17590    1.000
    N4       N        0.53370    0.68090    0.32410    1.000
    O1       O        0.85400    0.93100    0.94263    1.000
    O2       O        0.53860    0.85200    0.88799    1.000
    O3       O        0.30820    0.59470    0.66076    1.000
    O4       O        0.01600    0.60050    0.56863    1.000
    O5       O        0.64600    0.43100    0.55737    1.000
    O6       O        0.96140    0.35200    0.61201    1.000
    O7       O        0.19180    0.09470    0.83924    1.000
    O8       O        0.48400    0.10050    0.93137    1.000
    O9       O        0.14600    0.06900    0.05737    1.000
    O10      O        0.46140    0.14800    0.11201    1.000
    O11      O        0.69180    0.40530    0.33924    1.000
    O12      O        0.98400    0.39950    0.43137    1.000
    O13      O        0.35400    0.56900    0.44263    1.000
    O14      O        0.03860    0.64800    0.38799    1.000
    O15      O        0.80820    0.90530    0.16076    1.000
    O16      O        0.51600    0.89950    0.06863    1.000
