# CIF file generated by openbabel 3.1.0, see https://openbabel.org
data_I
_chemical_name_common 'image0'
_cell_length_a 19.974
_cell_length_b 13.135
_cell_length_c 9.901
_cell_angle_alpha 90
_cell_angle_beta 113.308
_cell_angle_gamma 90
_space_group_name_H-M_alt 'P 1'
_space_group_name_Hall 'P 1'
loop_
    _symmetry_equiv_pos_as_xyz
    x,y,z
loop_
    _atom_site_label
    _atom_site_type_symbol
    _atom_site_fract_x
    _atom_site_fract_y
    _atom_site_fract_z
    _atom_site_occupancy
    O1       O        0.08380    0.08450    0.14870    1.000
    O2       O        0.08962    0.99410    0.96590    1.000
    O3       O        0.95992    0.88250    0.29640    1.000
    N1       N        0.43100    0.28170    0.61370    1.000
    N2       N        0.39790    0.26520    0.46850    1.000
    H1       H        0.40910    0.29680    0.40420    1.000
    C1       C        0.11570    0.05320    0.07130    1.000
    C2       C        0.19210    0.09010    0.10930    1.000
    C3       C        0.23220    0.12700    0.24690    1.000
    H2       H        0.21170    0.12960    0.31640    1.000
    C4       C        0.30310    0.16070    0.28360    1.000
    C5       C        0.33120    0.15990    0.17700    1.000
    H3       H        0.37820    0.18380    0.19930    1.000
    C6       C        0.29040    0.12410    0.03810    1.000
    H4       H        0.30990    0.12440    0.96690    1.000
    C7       C        0.22140    0.08800    0.00400    1.000
    H5       H        0.19430    0.06220    0.91070    1.000
    C8       C        0.34560    0.19420    0.43420    1.000
    C9       C        0.34370    0.16240    0.56410    1.000
    H6       H        0.31310    0.11370    0.57740    1.000
    C10      C        0.39760    0.21850    0.67170    1.000
    H7       H        0.40890    0.21250    0.77200    1.000
    O4       O        0.58380    0.58450    0.14870    1.000
    O5       O        0.58962    0.49410    0.96590    1.000
    O6       O        0.45992    0.38250    0.29640    1.000
    N3       N        0.93100    0.78170    0.61370    1.000
    N4       N        0.89790    0.76520    0.46850    1.000
    H8       H        0.90910    0.79680    0.40420    1.000
    C11      C        0.61570    0.55320    0.07130    1.000
    C12      C        0.69210    0.59010    0.10930    1.000
    C13      C        0.73220    0.62700    0.24690    1.000
    H9       H        0.71170    0.62960    0.31640    1.000
    C14      C        0.80310    0.66070    0.28360    1.000
    C15      C        0.83120    0.65990    0.17700    1.000
    H10      H        0.87820    0.68380    0.19930    1.000
    C16      C        0.79040    0.62410    0.03810    1.000
    H11      H        0.80990    0.62440    0.96690    1.000
    C17      C        0.72140    0.58800    0.00400    1.000
    H12      H        0.69430    0.56220    0.91070    1.000
    C18      C        0.84560    0.69420    0.43420    1.000
    C19      C        0.84370    0.66240    0.56410    1.000
    H13      H        0.81310    0.61370    0.57740    1.000
    C20      C        0.89760    0.71850    0.67170    1.000
    H14      H        0.90890    0.71250    0.77200    1.000
    O7       O        0.91620    0.08450    0.35130    1.000
    O8       O        0.91038    0.99410    0.53410    1.000
    O9       O        0.04008    0.88250    0.20360    1.000
    N5       N        0.56900    0.28170    0.88630    1.000
    N6       N        0.60210    0.26520    0.03150    1.000
    H15      H        0.59090    0.29680    0.09580    1.000
    C21      C        0.88430    0.05320    0.42870    1.000
    C22      C        0.80790    0.09010    0.39070    1.000
    C23      C        0.76780    0.12700    0.25310    1.000
    H16      H        0.78830    0.12960    0.18360    1.000
    C24      C        0.69690    0.16070    0.21640    1.000
    C25      C        0.66880    0.15990    0.32300    1.000
    H17      H        0.62180    0.18380    0.30070    1.000
    C26      C        0.70960    0.12410    0.46190    1.000
    H18      H        0.69010    0.12440    0.53310    1.000
    C27      C        0.77860    0.08800    0.49600    1.000
    H19      H        0.80570    0.06220    0.58930    1.000
    C28      C        0.65440    0.19420    0.06580    1.000
    C29      C        0.65630    0.16240    0.93590    1.000
    H20      H        0.68690    0.11370    0.92260    1.000
    C30      C        0.60240    0.21850    0.82830    1.000
    H21      H        0.59110    0.21250    0.72800    1.000
    O10      O        0.41620    0.58450    0.35130    1.000
    O11      O        0.41038    0.49410    0.53410    1.000
    O12      O        0.54008    0.38250    0.20360    1.000
    N7       N        0.06900    0.78170    0.88630    1.000
    N8       N        0.10210    0.76520    0.03150    1.000
    H22      H        0.09090    0.79680    0.09580    1.000
    C31      C        0.38430    0.55320    0.42870    1.000
    C32      C        0.30790    0.59010    0.39070    1.000
    C33      C        0.26780    0.62700    0.25310    1.000
    H23      H        0.28830    0.62960    0.18360    1.000
    C34      C        0.19690    0.66070    0.21640    1.000
    C35      C        0.16880    0.65990    0.32300    1.000
    H24      H        0.12180    0.68380    0.30070    1.000
    C36      C        0.20960    0.62410    0.46190    1.000
    H25      H        0.19010    0.62440    0.53310    1.000
    C37      C        0.27860    0.58800    0.49600    1.000
    H26      H        0.30570    0.56220    0.58930    1.000
    C38      C        0.15440    0.69420    0.06580    1.000
    C39      C        0.15630    0.66240    0.93590    1.000
    H27      H        0.18690    0.61370    0.92260    1.000
    C40      C        0.10240    0.71850    0.82830    1.000
    H28      H        0.09110    0.71250    0.72800    1.000
    O13      O        0.91620    0.91550    0.85130    1.000
    O14      O        0.91038    0.00590    0.03410    1.000
    O15      O        0.04008    0.11750    0.70360    1.000
    N9       N        0.56900    0.71830    0.38630    1.000
    N10      N        0.60210    0.73480    0.53150    1.000
    H29      H        0.59090    0.70320    0.59580    1.000
    C41      C        0.88430    0.94680    0.92870    1.000
    C42      C        0.80790    0.90990    0.89070    1.000
    C43      C        0.76780    0.87300    0.75310    1.000
    H30      H        0.78830    0.87040    0.68360    1.000
    C44      C        0.69690    0.83930    0.71640    1.000
    C45      C        0.66880    0.84010    0.82300    1.000
    H31      H        0.62180    0.81620    0.80070    1.000
    C46      C        0.70960    0.87590    0.96190    1.000
    H32      H        0.69010    0.87560    0.03310    1.000
    C47      C        0.77860    0.91200    0.99600    1.000
    H33      H        0.80570    0.93780    0.08930    1.000
    C48      C        0.65440    0.80580    0.56580    1.000
    C49      C        0.65630    0.83760    0.43590    1.000
    H34      H        0.68690    0.88630    0.42260    1.000
    C50      C        0.60240    0.78150    0.32830    1.000
    H35      H        0.59110    0.78750    0.22800    1.000
    O16      O        0.41620    0.41550    0.85130    1.000
    O17      O        0.41038    0.50590    0.03410    1.000
    O18      O        0.54008    0.61750    0.70360    1.000
    N11      N        0.06900    0.21830    0.38630    1.000
    N12      N        0.10210    0.23480    0.53150    1.000
    H36      H        0.09090    0.20320    0.59580    1.000
    C51      C        0.38430    0.44680    0.92870    1.000
    C52      C        0.30790    0.40990    0.89070    1.000
    C53      C        0.26780    0.37300    0.75310    1.000
    H37      H        0.28830    0.37040    0.68360    1.000
    C54      C        0.19690    0.33930    0.71640    1.000
    C55      C        0.16880    0.34010    0.82300    1.000
    H38      H        0.12180    0.31620    0.80070    1.000
    C56      C        0.20960    0.37590    0.96190    1.000
    H39      H        0.19010    0.37560    0.03310    1.000
    C57      C        0.27860    0.41200    0.99600    1.000
    H40      H        0.30570    0.43780    0.08930    1.000
    C58      C        0.15440    0.30580    0.56580    1.000
    C59      C        0.15630    0.33760    0.43590    1.000
    H41      H        0.18690    0.38630    0.42260    1.000
    C60      C        0.10240    0.28150    0.32830    1.000
    H42      H        0.09110    0.28750    0.22800    1.000
    O19      O        0.08380    0.91550    0.64870    1.000
    O20      O        0.08962    0.00590    0.46590    1.000
    O21      O        0.95992    0.11750    0.79640    1.000
    N13      N        0.43100    0.71830    0.11370    1.000
    N14      N        0.39790    0.73480    0.96850    1.000
    H43      H        0.40910    0.70320    0.90420    1.000
    C61      C        0.11570    0.94680    0.57130    1.000
    C62      C        0.19210    0.90990    0.60930    1.000
    C63      C        0.23220    0.87300    0.74690    1.000
    H44      H        0.21170    0.87040    0.81640    1.000
    C64      C        0.30310    0.83930    0.78360    1.000
    C65      C        0.33120    0.84010    0.67700    1.000
    H45      H        0.37820    0.81620    0.69930    1.000
    C66      C        0.29040    0.87590    0.53810    1.000
    H46      H        0.30990    0.87560    0.46690    1.000
    C67      C        0.22140    0.91200    0.50400    1.000
    H47      H        0.19430    0.93780    0.41070    1.000
    C68      C        0.34560    0.80580    0.93420    1.000
    C69      C        0.34370    0.83760    0.06410    1.000
    H48      H        0.31310    0.88630    0.07740    1.000
    C70      C        0.39760    0.78150    0.17170    1.000
    H49      H        0.40890    0.78750    0.27200    1.000
    O22      O        0.58380    0.41550    0.64870    1.000
    O23      O        0.58962    0.50590    0.46590    1.000
    O24      O        0.45992    0.61750    0.79640    1.000
    N15      N        0.93100    0.21830    0.11370    1.000
    N16      N        0.89790    0.23480    0.96850    1.000
    H50      H        0.90910    0.20320    0.90420    1.000
    C71      C        0.61570    0.44680    0.57130    1.000
    C72      C        0.69210    0.40990    0.60930    1.000
    C73      C        0.73220    0.37300    0.74690    1.000
    H51      H        0.71170    0.37040    0.81640    1.000
    C74      C        0.80310    0.33930    0.78360    1.000
    C75      C        0.83120    0.34010    0.67700    1.000
    H52      H        0.87820    0.31620    0.69930    1.000
    C76      C        0.79040    0.37590    0.53810    1.000
    H53      H        0.80990    0.37560    0.46690    1.000
    C77      C        0.72140    0.41200    0.50400    1.000
    H54      H        0.69430    0.43780    0.41070    1.000
    C78      C        0.84560    0.30580    0.93420    1.000
    C79      C        0.84370    0.33760    0.06410    1.000
    H55      H        0.81310    0.38630    0.07740    1.000
    C80      C        0.89760    0.28150    0.17170    1.000
    H56      H        0.90890    0.28750    0.27200    1.000
    Eu1      Eu       0.00000    0.05855    0.25000    1.000
    O25      O        0.00000    0.74260    0.25000    1.000
    N17      N        0.00000    0.83130    0.25000    1.000
    Eu2      Eu       0.50000    0.55855    0.25000    1.000
    O26      O        0.50000    0.24260    0.25000    1.000
    N18      N        0.50000    0.33130    0.25000    1.000
    Eu3      Eu       0.00000    0.94145    0.75000    1.000
    O27      O        0.00000    0.25740    0.75000    1.000
    N19      N        0.00000    0.16870    0.75000    1.000
    Eu4      Eu       0.50000    0.44145    0.75000    1.000
    O28      O        0.50000    0.75740    0.75000    1.000
    N20      N        0.50000    0.66870    0.75000    1.000
