# CIF file generated by openbabel 3.1.0, see https://openbabel.org
data_I
_chemical_name_common 'ILUFEB_charged'
_cell_length_a 13.7819
_cell_length_b 15.1675
_cell_length_c 15.169
_cell_angle_alpha 73.924
_cell_angle_beta 75.939
_cell_angle_gamma 67.017
_space_group_name_H-M_alt 'P 1'
_space_group_name_Hall 'P 1'
loop_
    _symmetry_equiv_pos_as_xyz
    x,y,z
loop_
    _atom_site_label
    _atom_site_type_symbol
    _atom_site_fract_x
    _atom_site_fract_y
    _atom_site_fract_z
    _atom_site_occupancy
    Cd1      Cd       0.19099    0.80441    0.69233    1.000
    Cd2      Cd       0.80901    0.19559    0.30767    1.000
    Cd3      Cd       0.00000    0.00000    0.50000    1.000
    H1       H        0.14570    0.87900    0.01730    1.000
    H2       H        0.06740    0.70790    0.91680    1.000
    H3       H        0.18580    0.90010    0.32870    1.000
    H4       H        0.37180    0.70690    0.50770    1.000
    H5       H        0.66620    0.53800    0.39760    1.000
    H6       H        0.63790    0.42050    0.20700    1.000
    H7       H        0.43200    0.60080    0.39190    1.000
    H8       H        0.50660    0.66450    0.37660    1.000
    H9       H        0.62490    0.64530    0.14020    1.000
    H10      H        0.62030    0.69380    0.22360    1.000
    H11      H        0.51350    0.81510    0.11020    1.000
    H12      H        0.46750    0.82600    0.27300    1.000
    H13      H        0.36240    0.87520    0.22390    1.000
    H14      H        0.24090    0.77430    0.24560    1.000
    H15      H        0.27050    0.66760    0.31180    1.000
    H16      H        0.32200    0.65350    0.15200    1.000
    H17      H        0.50140    0.54550    0.16240    1.000
    H18      H        0.42870    0.52850    0.26120    1.000
    H19      H        0.45920    0.71320    0.05910    1.000
    H20      H        0.35820    0.80250    0.09080    1.000
    H21      H        0.19780    0.09470    0.38290    1.000
    H22      H        0.00250    0.30030    0.21930    1.000
    H23      H        0.59770    0.26770    0.18650    1.000
    H24      H        0.45340    0.12360    0.39930    1.000
    H25      H        0.33730    0.13650    0.29730    1.000
    H26      H        0.28760    0.23220    0.34200    1.000
    H27      H        0.46310    0.13520    0.14750    1.000
    H28      H        0.49630    0.22920    0.09580    1.000
    H29      H        0.36550    0.22350    0.01880    1.000
    H30      H        0.19160    0.23750    0.10310    1.000
    H31      H        0.27800    0.14010    0.15040    1.000
    H32      H        0.15370    0.38310    0.26790    1.000
    H33      H        0.11420    0.38600    0.17550    1.000
    H34      H        0.24010    0.46890    0.13470    1.000
    H35      H        0.41830    0.38070    0.16680    1.000
    H36      H        0.33660    0.38040    0.26250    1.000
    H37      H        0.24140    0.38410    0.02270    1.000
    H38      H        0.35960    0.38200    0.01880    1.000
    H39      H        0.00950    0.80710    0.40410    1.000
    H40      H        0.82900    0.00590    0.22390    1.000
    H41      H        0.07410    0.82320    0.15950    1.000
    H42      H        0.96800    0.89420    0.11620    1.000
    H43      H        0.14550    0.64380    0.15350    1.000
    H44      H        0.08580    0.60170    0.10540    1.000
    H45      H        0.03920    0.56080    0.27160    1.000
    H46      H        0.94950    0.68990    0.35670    1.000
    H47      H        0.06330    0.69700    0.30460    1.000
    H48      H        0.77990    0.80420    0.28550    1.000
    H49      H        0.79090    0.88260    0.19120    1.000
    H50      H        0.77150    0.74560    0.15760    1.000
    H51      H        0.87460    0.82830    0.04110    1.000
    H52      H        0.91960    0.71440    0.03690    1.000
    H53      H        0.90070    0.59120    0.18610    1.000
    H54      H        0.84790    0.62860    0.28170    1.000
    H55      H        0.85430    0.12100    0.98270    1.000
    H56      H        0.93260    0.29210    0.08320    1.000
    H57      H        0.81420    0.09990    0.67130    1.000
    H58      H        0.62820    0.29310    0.49230    1.000
    H59      H        0.33380    0.46200    0.60240    1.000
    H60      H        0.36210    0.57950    0.79300    1.000
    H61      H        0.56800    0.39920    0.60810    1.000
    H62      H        0.49340    0.33550    0.62340    1.000
    H63      H        0.37510    0.35470    0.85980    1.000
    H64      H        0.37970    0.30620    0.77640    1.000
    H65      H        0.48650    0.18490    0.88980    1.000
    H66      H        0.53250    0.17400    0.72700    1.000
    H67      H        0.63760    0.12480    0.77610    1.000
    H68      H        0.75910    0.22570    0.75440    1.000
    H69      H        0.72950    0.33240    0.68820    1.000
    H70      H        0.67800    0.34650    0.84800    1.000
    H71      H        0.49860    0.45450    0.83760    1.000
    H72      H        0.57130    0.47150    0.73880    1.000
    H73      H        0.54080    0.28680    0.94090    1.000
    H74      H        0.64180    0.19750    0.90920    1.000
    H75      H        0.80220    0.90530    0.61710    1.000
    H76      H        0.99750    0.69970    0.78070    1.000
    H77      H        0.40230    0.73230    0.81350    1.000
    H78      H        0.54660    0.87640    0.60070    1.000
    H79      H        0.66270    0.86350    0.70270    1.000
    H80      H        0.71240    0.76780    0.65800    1.000
    H81      H        0.53690    0.86480    0.85250    1.000
    H82      H        0.50370    0.77080    0.90420    1.000
    H83      H        0.63450    0.77650    0.98120    1.000
    H84      H        0.80840    0.76250    0.89690    1.000
    H85      H        0.72200    0.85990    0.84960    1.000
    H86      H        0.84630    0.61690    0.73210    1.000
    H87      H        0.88580    0.61400    0.82450    1.000
    H88      H        0.75990    0.53110    0.86530    1.000
    H89      H        0.58170    0.61930    0.83320    1.000
    H90      H        0.66340    0.61960    0.73750    1.000
    H91      H        0.75860    0.61590    0.97730    1.000
    H92      H        0.64040    0.61800    0.98120    1.000
    H93      H        0.99050    0.19290    0.59590    1.000
    H94      H        0.17100    0.99410    0.77610    1.000
    H95      H        0.92590    0.17680    0.84050    1.000
    H96      H        0.03200    0.10580    0.88380    1.000
    H97      H        0.85450    0.35620    0.84650    1.000
    H98      H        0.91420    0.39830    0.89460    1.000
    H99      H        0.96080    0.43920    0.72840    1.000
    H100     H        0.05050    0.31010    0.64330    1.000
    H101     H        0.93670    0.30300    0.69540    1.000
    H102     H        0.22010    0.19580    0.71450    1.000
    H103     H        0.20910    0.11740    0.80880    1.000
    H104     H        0.22850    0.25440    0.84240    1.000
    H105     H        0.12540    0.17170    0.95890    1.000
    H106     H        0.08040    0.28560    0.96310    1.000
    H107     H        0.09930    0.40880    0.81390    1.000
    H108     H        0.15210    0.37140    0.71830    1.000
    C1       C        0.14210    0.84320    0.97640    1.000
    C2       C        0.09860    0.75130    0.92320    1.000
    C3       C        0.21370    0.86520    0.38470    1.000
    C4       C        0.31490    0.76030    0.48170    1.000
    C5       C        0.67710    0.49360    0.35960    1.000
    C6       C        0.66190    0.42950    0.25640    1.000
    C7       C        0.37170    0.74050    0.31070    1.000
    C8       C        0.46200    0.64790    0.34610    1.000
    C9       C        0.53020    0.60230    0.26160    1.000
    C10      C        0.57770    0.67510    0.19270    1.000
    C11      C        0.48380    0.76720    0.15660    1.000
    C12      C        0.41960    0.81270    0.24310    1.000
    C13      C        0.30070    0.71470    0.26610    1.000
    C14      C        0.36780    0.66940    0.18280    1.000
    C15      C        0.45850    0.57590    0.21580    1.000
    C16      C        0.41620    0.74230    0.11330    1.000
    C17      C        0.13600    0.13400    0.35480    1.000
    C18      C        0.03020    0.24550    0.26640    1.000
    C19      C        0.58210    0.22890    0.24530    1.000
    C20      C        0.50470    0.15060    0.36070    1.000
    C21      C        0.21820    0.24840    0.22780    1.000
    C22      C        0.31110    0.20890    0.28290    1.000
    C23      C        0.39980    0.24580    0.22330    1.000
    C24      C        0.43700    0.20760    0.13330    1.000
    C25      C        0.34210    0.24780    0.07820    1.000
    C26      C        0.25290    0.21250    0.13720    1.000
    C27      C        0.17650    0.35990    0.20870    1.000
    C28      C        0.26650    0.39580    0.14880    1.000
    C29      C        0.36010    0.35680    0.20340    1.000
    C30      C        0.30210    0.35840    0.05760    1.000
    C31      C        0.96730    0.86780    0.37120    1.000
    C32      C        0.86900    0.97590    0.27390    1.000
    C33      C        0.93690    0.80530    0.24240    1.000
    C34      C        0.00400    0.82710    0.14970    1.000
    C35      C        0.01980    0.75250    0.09160    1.000
    C36      C        0.07490    0.64980    0.14290    1.000
    C37      C        0.00430    0.62880    0.23760    1.000
    C38      C        0.99230    0.70290    0.29510    1.000
    C39      C        0.82590    0.81580    0.22550    1.000
    C40      C        0.84250    0.73990    0.16860    1.000
    C41      C        0.91050    0.76140    0.07500    1.000
    C42      C        0.89330    0.64020    0.22130    1.000
    C43      C        0.85790    0.15680    0.02360    1.000
    C44      C        0.90140    0.24870    0.07680    1.000
    C45      C        0.78630    0.13480    0.61530    1.000
    C46      C        0.68510    0.23970    0.51830    1.000
    C47      C        0.32290    0.50640    0.64040    1.000
    C48      C        0.33810    0.57050    0.74360    1.000
    C49      C        0.62830    0.25950    0.68930    1.000
    C50      C        0.53800    0.35210    0.65390    1.000
    C51      C        0.46980    0.39770    0.73840    1.000
    C52      C        0.42230    0.32490    0.80730    1.000
    C53      C        0.51620    0.23280    0.84340    1.000
    C54      C        0.58040    0.18730    0.75690    1.000
    C55      C        0.69930    0.28530    0.73390    1.000
    C56      C        0.63220    0.33060    0.81720    1.000
    C57      C        0.54150    0.42410    0.78420    1.000
    C58      C        0.58380    0.25770    0.88670    1.000
    C59      C        0.86400    0.86600    0.64520    1.000
    C60      C        0.96980    0.75450    0.73360    1.000
    C61      C        0.41790    0.77110    0.75470    1.000
    C62      C        0.49530    0.84940    0.63930    1.000
    C63      C        0.78180    0.75160    0.77220    1.000
    C64      C        0.68890    0.79110    0.71710    1.000
    C65      C        0.60020    0.75420    0.77670    1.000
    C66      C        0.56300    0.79240    0.86670    1.000
    C67      C        0.65790    0.75220    0.92180    1.000
    C68      C        0.74710    0.78750    0.86280    1.000
    C69      C        0.82350    0.64010    0.79130    1.000
    C70      C        0.73350    0.60420    0.85120    1.000
    C71      C        0.63990    0.64320    0.79660    1.000
    C72      C        0.69790    0.64160    0.94240    1.000
    C73      C        0.03270    0.13220    0.62880    1.000
    C74      C        0.13100    0.02410    0.72610    1.000
    C75      C        0.06310    0.19470    0.75760    1.000
    C76      C        0.99600    0.17290    0.85030    1.000
    C77      C        0.98020    0.24750    0.90840    1.000
    C78      C        0.92510    0.35020    0.85710    1.000
    C79      C        0.99570    0.37120    0.76240    1.000
    C80      C        0.00770    0.29710    0.70490    1.000
    C81      C        0.17410    0.18420    0.77450    1.000
    C82      C        0.15750    0.26010    0.83140    1.000
    C83      C        0.08950    0.23860    0.92500    1.000
    C84      C        0.10670    0.35980    0.77870    1.000
    N1       N        0.16930    0.88680    0.46590    1.000
    N2       N        0.23420    0.81930    0.52940    1.000
    N3       N        0.30480    0.78680    0.39070    1.000
    N4       N        0.75140    0.40680    0.36420    1.000
    N5       N        0.74010    0.36570    0.29720    1.000
    N6       N        0.61820    0.51100    0.29300    1.000
    N7       N        0.04430    0.11980    0.37930    1.000
    N8       N        0.97580    0.19250    0.32220    1.000
    N9       N        0.13050    0.21190    0.28450    1.000
    N10      N        0.64680    0.18700    0.30780    1.000
    N11      N        0.59680    0.13540    0.38300    1.000
    N12      N        0.49150    0.20940    0.27580    1.000
    N13      N        0.94360    0.95320    0.39120    1.000
    N14      N        0.87880    0.02270    0.32890    1.000
    N15      N        0.92270    0.87890    0.29680    1.000
    N16      N        0.08530    0.77660    0.00140    1.000
    N17      N        0.15660    0.78840    0.85480    1.000
    N18      N        0.18820    0.84860    0.89080    1.000
    N19      N        0.83070    0.11320    0.53410    1.000
    N20      N        0.76580    0.18070    0.47060    1.000
    N21      N        0.69520    0.21320    0.60930    1.000
    N22      N        0.24860    0.59320    0.63580    1.000
    N23      N        0.25990    0.63430    0.70280    1.000
    N24      N        0.38180    0.48900    0.70700    1.000
    N25      N        0.95570    0.88020    0.62070    1.000
    N26      N        0.02420    0.80750    0.67780    1.000
    N27      N        0.86950    0.78810    0.71550    1.000
    N28      N        0.35320    0.81300    0.69220    1.000
    N29      N        0.40320    0.86460    0.61700    1.000
    N30      N        0.50850    0.79060    0.72420    1.000
    N31      N        0.05640    0.04680    0.60880    1.000
    N32      N        0.12120    0.97730    0.67110    1.000
    N33      N        0.07730    0.12110    0.70320    1.000
    N34      N        0.91470    0.22340    0.99860    1.000
    N35      N        0.84340    0.21160    0.14520    1.000
    N36      N        0.81180    0.15140    0.10920    1.000
    C85      C        0.75700    0.98960    0.92460    1.000
    Se1      Se       0.88136    0.98456    0.84570    1.000
    N37      N        0.67990    0.99420    0.97710    1.000
    C86      C        0.24300    0.01040    0.07540    1.000
    Se2      Se       0.11864    0.01544    0.15430    1.000
    N38      N        0.32010    0.00580    0.02290    1.000
