# CIF file generated by openbabel 3.1.0, see https://openbabel.org
data_I
_chemical_name_common 'image0'
_cell_length_a 8.1584
_cell_length_b 8.1584
_cell_length_c 12.1399
_cell_angle_alpha 90
_cell_angle_beta 90
_cell_angle_gamma 120
_space_group_name_H-M_alt 'P 1'
_space_group_name_Hall 'P 1'
loop_
    _symmetry_equiv_pos_as_xyz
    x,y,z
loop_
    _atom_site_label
    _atom_site_type_symbol
    _atom_site_fract_x
    _atom_site_fract_y
    _atom_site_fract_z
    _atom_site_occupancy
    O1       O        0.29340    0.76150    0.56851    1.000
    O2       O        0.16210    0.49420    0.47464    1.000
    C1       C        0.26210    0.59470    0.55308    1.000
    C2       C        0.34490    0.51200    0.63040    1.000
    H1       H        0.35400    0.41020    0.59310    1.000
    H2       H        0.26350    0.46080    0.69540    1.000
    H3       H        0.47150    0.61080    0.65320    1.000
    O3       O        0.23850    0.53190    0.23518    1.000
    O4       O        0.50580    0.66790    0.14131    1.000
    C3       C        0.40530    0.66740    0.21975    1.000
    C4       C        0.48800    0.83290    0.29707    1.000
    H4       H        0.58980    0.94380    0.25977    1.000
    H5       H        0.53920    0.80270    0.36207    1.000
    H6       H        0.38920    0.86070    0.31987    1.000
    O5       O        0.46810    0.70660    0.90184    1.000
    O6       O        0.33210    0.83790    0.80797    1.000
    C5       C        0.33260    0.73790    0.88641    1.000
    C6       C        0.16710    0.65510    0.96373    1.000
    H7       H        0.05620    0.64600    0.92643    1.000
    H8       H        0.19730    0.73650    0.02873    1.000
    H9       H        0.13930    0.52850    0.98653    1.000
    O7       O        0.76150    0.29340    0.43149    1.000
    O8       O        0.49420    0.16210    0.52536    1.000
    C7       C        0.59470    0.26210    0.44692    1.000
    C8       C        0.51200    0.34490    0.36960    1.000
    H10      H        0.41020    0.35400    0.40690    1.000
    H11      H        0.46080    0.26350    0.30460    1.000
    H12      H        0.61080    0.47150    0.34680    1.000
    O9       O        0.53190    0.23850    0.76482    1.000
    O10      O        0.66790    0.50580    0.85869    1.000
    C9       C        0.66740    0.40530    0.78025    1.000
    C10      C        0.83290    0.48800    0.70293    1.000
    H13      H        0.94380    0.58980    0.74023    1.000
    H14      H        0.80270    0.53920    0.63793    1.000
    H15      H        0.86070    0.38920    0.68013    1.000
    O11      O        0.70660    0.46810    0.09816    1.000
    O12      O        0.83790    0.33210    0.19203    1.000
    C11      C        0.73790    0.33260    0.11359    1.000
    C12      C        0.65510    0.16710    0.03627    1.000
    H16      H        0.64600    0.05620    0.07357    1.000
    H17      H        0.73650    0.19730    0.97127    1.000
    H18      H        0.52850    0.13930    0.01347    1.000
    Sc1      Sc       0.41648    0.00000    0.66667    1.000
    Sc2      Sc       0.00000    0.41648    0.33333    1.000
    Sc3      Sc       0.58352    0.58352    0.00000    1.000
