# CIF file generated by openbabel 3.1.0, see https://openbabel.org
data_I
_chemical_name_common 'image0'
_cell_length_a 14.424
_cell_length_b 17.798
_cell_length_c 17.195
_cell_angle_alpha 90
_cell_angle_beta 90
_cell_angle_gamma 90
_space_group_name_H-M_alt 'P 1'
_space_group_name_Hall 'P 1'
loop_
    _symmetry_equiv_pos_as_xyz
    x,y,z
loop_
    _atom_site_label
    _atom_site_type_symbol
    _atom_site_fract_x
    _atom_site_fract_y
    _atom_site_fract_z
    _atom_site_occupancy
    Mn1      Mn       0.99799    0.83640    0.75170    1.000
    Mn2      Mn       0.50776    0.32636    0.16425    1.000
    S1       S        0.00260    0.76437    0.45091    1.000
    O1       O        0.54170    0.41232    0.08160    1.000
    O2       O        0.67100    0.39151    0.14890    1.000
    O3       O        0.10660    0.92709    0.75370    1.000
    O4       O        0.00120    0.93210    0.84560    1.000
    O5       O        0.03790    0.73660    0.67600    1.000
    O6       O        0.99380    0.83540    0.60850    1.000
    O7       O        0.00810    0.74080    0.28030    1.000
    O8       O        0.02750    0.61780    0.28180    1.000
    N1       N        0.91770    0.76030    0.82830    1.000
    N2       N        0.84490    0.85760    0.73270    1.000
    N3       N        0.10010    0.77620    0.83170    1.000
    N4       N        0.41760    0.24800    0.09390    1.000
    N5       N        0.35150    0.35940    0.17860    1.000
    N6       N        0.59950    0.23080    0.11660    1.000
    C1       C        0.82450    0.75700    0.82420    1.000
    C2       C        0.77460    0.70330    0.86570    1.000
    H1       H        0.71020    0.70260    0.86270    1.000
    C3       C        0.82020    0.65070    0.91160    1.000
    C4       C        0.91780    0.65600    0.91520    1.000
    H2       H        0.95120    0.62200    0.94510    1.000
    C5       C        0.96380    0.71160    0.87430    1.000
    C6       C        0.78340    0.81500    0.77270    1.000
    C7       C        0.68770    0.82590    0.76510    1.000
    H3       H        0.64660    0.79530    0.79210    1.000
    C8       C        0.65470    0.88180    0.71770    1.000
    H4       H        0.59130    0.88980    0.71230    1.000
    C9       C        0.71810    0.92650    0.67780    1.000
    H5       H        0.69790    0.96550    0.64610    1.000
    C10      C        0.81270    0.91160    0.68630    1.000
    H6       H        0.85490    0.94060    0.65850    1.000
    C11      C        0.06540    0.72220    0.87800    1.000
    C12      C        0.12240    0.68020    0.92660    1.000
    H7       H        0.09720    0.64310    0.95830    1.000
    C13      C        0.21560    0.69390    0.92750    1.000
    H8       H        0.25440    0.66590    0.95950    1.000
    C14      C        0.25210    0.75010    0.88000    1.000
    H9       H        0.31510    0.76100    0.88040    1.000
    C15      C        0.19230    0.78900    0.83250    1.000
    H10      H        0.21630    0.82570    0.79960    1.000
    C16      C        0.77070    0.58980    0.95590    1.000
    C17      C        0.67870    0.57270    0.94150    1.000
    H11      H        0.64710    0.59750    0.90200    1.000
    C18      C        0.63330    0.51900    0.98540    1.000
    H12      H        0.57130    0.50880    0.97500    1.000
    C19      C        0.67800    0.47980    0.04490    1.000
    C20      C        0.77120    0.49520    0.05740    1.000
    H13      H        0.80350    0.46880    0.09530    1.000
    C21      C        0.81680    0.54930    0.01390    1.000
    H14      H        0.87910    0.55900    0.02350    1.000
    C22      C        0.62850    0.42480    0.09560    1.000
    C23      C        0.32610    0.25770    0.08920    1.000
    C24      C        0.26930    0.21120    0.04440    1.000
    H15      H        0.20590    0.22030    0.04130    1.000
    C25      C        0.30930    0.15010    0.00370    1.000
    C26      C        0.40550    0.14120    0.00980    1.000
    H16      H        0.43490    0.10230    0.98330    1.000
    C27      C        0.45720    0.19060    0.05560    1.000
    C28      C        0.28730    0.31960    0.13820    1.000
    C29      C        0.19310    0.33490    0.14330    1.000
    H17      H        0.15050    0.30720    0.11460    1.000
    C30      C        0.16360    0.39210    0.19220    1.000
    H18      H        0.10070    0.40250    0.19750    1.000
    C31      C        0.22840    0.43350    0.23260    1.000
    H19      H        0.21010    0.47270    0.26500    1.000
    C32      C        0.32050    0.41570    0.22420    1.000
    H20      H        0.36380    0.44410    0.25150    1.000
    C33      C        0.55920    0.18110    0.06700    1.000
    C34      C        0.60920    0.12430    0.03240    1.000
    H21      H        0.58130    0.09240    0.99660    1.000
    C35      C        0.70180    0.11550    0.05180    1.000
    H22      H        0.73640    0.07690    0.02970    1.000
    C36      C        0.74250    0.16420    0.10380    1.000
    H23      H        0.80420    0.15870    0.11840    1.000
    C37      C        0.68830    0.22170    0.13360    1.000
    H24      H        0.71580    0.25570    0.16750    1.000
    C38      C        0.25100    0.09730    0.95810    1.000
    C39      C        0.15600    0.09210    0.97110    1.000
    H25      H        0.12920    0.12090    0.01020    1.000
    C40      C        0.10000    0.04450    0.92690    1.000
    H26      H        0.03680    0.04130    0.93710    1.000
    C41      C        0.13900    0.00180    0.86730    1.000
    C42      C        0.23490    0.00450    0.85590    1.000
    H27      H        0.26200    0.97450    0.81790    1.000
    C43      C        0.28960    0.05140    0.90030    1.000
    H28      H        0.35330    0.05250    0.89180    1.000
    C44      C        0.07840    0.95150    0.81880    1.000
    C45      C        0.02780    0.72430    0.53920    1.000
    C46      C        0.05400    0.64970    0.53090    1.000
    H29      H        0.06900    0.61840    0.57230    1.000
    C47      C        0.05500    0.62710    0.45250    1.000
    H30      H        0.07230    0.57930    0.43620    1.000
    C48      C        0.02800    0.68260    0.40280    1.000
    C49      C        0.01950    0.76840    0.61180    1.000
    C50      C        0.02040    0.68060    0.31600    1.000
    Mn3      Mn       0.49799    0.16360    0.75170    1.000
    Mn4      Mn       0.00776    0.67364    0.16425    1.000
    S2       S        0.50260    0.23563    0.45091    1.000
    O9       O        0.04170    0.58768    0.08160    1.000
    O10      O        0.17100    0.60849    0.14890    1.000
    O11      O        0.60660    0.07291    0.75370    1.000
    O12      O        0.50120    0.06790    0.84560    1.000
    O13      O        0.53790    0.26340    0.67600    1.000
    O14      O        0.49380    0.16460    0.60850    1.000
    O15      O        0.50810    0.25920    0.28030    1.000
    O16      O        0.52750    0.38220    0.28180    1.000
    N7       N        0.41770    0.23970    0.82830    1.000
    N8       N        0.34490    0.14240    0.73270    1.000
    N9       N        0.60010    0.22380    0.83170    1.000
    N10      N        0.91760    0.75200    0.09390    1.000
    N11      N        0.85150    0.64060    0.17860    1.000
    N12      N        0.09950    0.76920    0.11660    1.000
    C51      C        0.32450    0.24300    0.82420    1.000
    C52      C        0.27460    0.29670    0.86570    1.000
    H31      H        0.21020    0.29740    0.86270    1.000
    C53      C        0.32020    0.34930    0.91160    1.000
    C54      C        0.41780    0.34400    0.91520    1.000
    H32      H        0.45120    0.37800    0.94510    1.000
    C55      C        0.46380    0.28840    0.87430    1.000
    C56      C        0.28340    0.18500    0.77270    1.000
    C57      C        0.18770    0.17410    0.76510    1.000
    H33      H        0.14660    0.20470    0.79210    1.000
    C58      C        0.15470    0.11820    0.71770    1.000
    H34      H        0.09130    0.11020    0.71230    1.000
    C59      C        0.21810    0.07350    0.67780    1.000
    H35      H        0.19790    0.03450    0.64610    1.000
    C60      C        0.31270    0.08840    0.68630    1.000
    H36      H        0.35490    0.05940    0.65850    1.000
    C61      C        0.56540    0.27780    0.87800    1.000
    C62      C        0.62240    0.31980    0.92660    1.000
    H37      H        0.59720    0.35690    0.95830    1.000
    C63      C        0.71560    0.30610    0.92750    1.000
    H38      H        0.75440    0.33410    0.95950    1.000
    C64      C        0.75210    0.24990    0.88000    1.000
    H39      H        0.81510    0.23900    0.88040    1.000
    C65      C        0.69230    0.21100    0.83250    1.000
    H40      H        0.71630    0.17430    0.79960    1.000
    C66      C        0.27070    0.41020    0.95590    1.000
    C67      C        0.17870    0.42730    0.94150    1.000
    H41      H        0.14710    0.40250    0.90200    1.000
    C68      C        0.13330    0.48100    0.98540    1.000
    H42      H        0.07130    0.49120    0.97500    1.000
    C69      C        0.17800    0.52020    0.04490    1.000
    C70      C        0.27120    0.50480    0.05740    1.000
    H43      H        0.30350    0.53120    0.09530    1.000
    C71      C        0.31680    0.45070    0.01390    1.000
    H44      H        0.37910    0.44100    0.02350    1.000
    C72      C        0.12850    0.57520    0.09560    1.000
    C73      C        0.82610    0.74230    0.08920    1.000
    C74      C        0.76930    0.78880    0.04440    1.000
    H45      H        0.70590    0.77970    0.04130    1.000
    C75      C        0.80930    0.84990    0.00370    1.000
    C76      C        0.90550    0.85880    0.00980    1.000
    H46      H        0.93490    0.89770    0.98330    1.000
    C77      C        0.95720    0.80940    0.05560    1.000
    C78      C        0.78730    0.68040    0.13820    1.000
    C79      C        0.69310    0.66510    0.14330    1.000
    H47      H        0.65050    0.69280    0.11460    1.000
    C80      C        0.66360    0.60790    0.19220    1.000
    H48      H        0.60070    0.59750    0.19750    1.000
    C81      C        0.72840    0.56650    0.23260    1.000
    H49      H        0.71010    0.52730    0.26500    1.000
    C82      C        0.82050    0.58430    0.22420    1.000
    H50      H        0.86380    0.55590    0.25150    1.000
    C83      C        0.05920    0.81890    0.06700    1.000
    C84      C        0.10920    0.87570    0.03240    1.000
    H51      H        0.08130    0.90760    0.99660    1.000
    C85      C        0.20180    0.88450    0.05180    1.000
    H52      H        0.23640    0.92310    0.02970    1.000
    C86      C        0.24250    0.83580    0.10380    1.000
    H53      H        0.30420    0.84130    0.11840    1.000
    C87      C        0.18830    0.77830    0.13360    1.000
    H54      H        0.21580    0.74430    0.16750    1.000
    C88      C        0.75100    0.90270    0.95810    1.000
    C89      C        0.65600    0.90790    0.97110    1.000
    H55      H        0.62920    0.87910    0.01020    1.000
    C90      C        0.60000    0.95550    0.92690    1.000
    H56      H        0.53680    0.95870    0.93710    1.000
    C91      C        0.63900    0.99820    0.86730    1.000
    C92      C        0.73490    0.99550    0.85590    1.000
    H57      H        0.76200    0.02550    0.81790    1.000
    C93      C        0.78960    0.94860    0.90030    1.000
    H58      H        0.85330    0.94750    0.89180    1.000
    C94      C        0.57840    0.04850    0.81880    1.000
    C95      C        0.52780    0.27570    0.53920    1.000
    C96      C        0.55400    0.35030    0.53090    1.000
    H59      H        0.56900    0.38160    0.57230    1.000
    C97      C        0.55500    0.37290    0.45250    1.000
    H60      H        0.57230    0.42070    0.43620    1.000
    C98      C        0.52800    0.31740    0.40280    1.000
    C99      C        0.51950    0.23160    0.61180    1.000
    C100     C        0.52040    0.31940    0.31600    1.000
    Mn5      Mn       0.00201    0.16360    0.25170    1.000
    Mn6      Mn       0.49224    0.67364    0.66425    1.000
    S3       S        0.99740    0.23563    0.95091    1.000
    O17      O        0.45830    0.58768    0.58160    1.000
    O18      O        0.32900    0.60849    0.64890    1.000
    O19      O        0.89340    0.07291    0.25370    1.000
    O20      O        0.99880    0.06790    0.34560    1.000
    O21      O        0.96210    0.26340    0.17600    1.000
    O22      O        0.00620    0.16460    0.10850    1.000
    O23      O        0.99190    0.25920    0.78030    1.000
    O24      O        0.97250    0.38220    0.78180    1.000
    N13      N        0.08230    0.23970    0.32830    1.000
    N14      N        0.15510    0.14240    0.23270    1.000
    N15      N        0.89990    0.22380    0.33170    1.000
    N16      N        0.58240    0.75200    0.59390    1.000
    N17      N        0.64850    0.64060    0.67860    1.000
    N18      N        0.40050    0.76920    0.61660    1.000
    C101     C        0.17550    0.24300    0.32420    1.000
    C102     C        0.22540    0.29670    0.36570    1.000
    H61      H        0.28980    0.29740    0.36270    1.000
    C103     C        0.17980    0.34930    0.41160    1.000
    C104     C        0.08220    0.34400    0.41520    1.000
    H62      H        0.04880    0.37800    0.44510    1.000
    C105     C        0.03620    0.28840    0.37430    1.000
    C106     C        0.21660    0.18500    0.27270    1.000
    C107     C        0.31230    0.17410    0.26510    1.000
    H63      H        0.35340    0.20470    0.29210    1.000
    C108     C        0.34530    0.11820    0.21770    1.000
    H64      H        0.40870    0.11020    0.21230    1.000
    C109     C        0.28190    0.07350    0.17780    1.000
    H65      H        0.30210    0.03450    0.14610    1.000
    C110     C        0.18730    0.08840    0.18630    1.000
    H66      H        0.14510    0.05940    0.15850    1.000
    C111     C        0.93460    0.27780    0.37800    1.000
    C112     C        0.87760    0.31980    0.42660    1.000
    H67      H        0.90280    0.35690    0.45830    1.000
    C113     C        0.78440    0.30610    0.42750    1.000
    H68      H        0.74560    0.33410    0.45950    1.000
    C114     C        0.74790    0.24990    0.38000    1.000
    H69      H        0.68490    0.23900    0.38040    1.000
    C115     C        0.80770    0.21100    0.33250    1.000
    H70      H        0.78370    0.17430    0.29960    1.000
    C116     C        0.22930    0.41020    0.45590    1.000
    C117     C        0.32130    0.42730    0.44150    1.000
    H71      H        0.35290    0.40250    0.40200    1.000
    C118     C        0.36670    0.48100    0.48540    1.000
    H72      H        0.42870    0.49120    0.47500    1.000
    C119     C        0.32200    0.52020    0.54490    1.000
    C120     C        0.22880    0.50480    0.55740    1.000
    H73      H        0.19650    0.53120    0.59530    1.000
    C121     C        0.18320    0.45070    0.51390    1.000
    H74      H        0.12090    0.44100    0.52350    1.000
    C122     C        0.37150    0.57520    0.59560    1.000
    C123     C        0.67390    0.74230    0.58920    1.000
    C124     C        0.73070    0.78880    0.54440    1.000
    H75      H        0.79410    0.77970    0.54130    1.000
    C125     C        0.69070    0.84990    0.50370    1.000
    C126     C        0.59450    0.85880    0.50980    1.000
    H76      H        0.56510    0.89770    0.48330    1.000
    C127     C        0.54280    0.80940    0.55560    1.000
    C128     C        0.71270    0.68040    0.63820    1.000
    C129     C        0.80690    0.66510    0.64330    1.000
    H77      H        0.84950    0.69280    0.61460    1.000
    C130     C        0.83640    0.60790    0.69220    1.000
    H78      H        0.89930    0.59750    0.69750    1.000
    C131     C        0.77160    0.56650    0.73260    1.000
    H79      H        0.78990    0.52730    0.76500    1.000
    C132     C        0.67950    0.58430    0.72420    1.000
    H80      H        0.63620    0.55590    0.75150    1.000
    C133     C        0.44080    0.81890    0.56700    1.000
    C134     C        0.39080    0.87570    0.53240    1.000
    H81      H        0.41870    0.90760    0.49660    1.000
    C135     C        0.29820    0.88450    0.55180    1.000
    H82      H        0.26360    0.92310    0.52970    1.000
    C136     C        0.25750    0.83580    0.60380    1.000
    H83      H        0.19580    0.84130    0.61840    1.000
    C137     C        0.31170    0.77830    0.63360    1.000
    H84      H        0.28420    0.74430    0.66750    1.000
    C138     C        0.74900    0.90270    0.45810    1.000
    C139     C        0.84400    0.90790    0.47110    1.000
    H85      H        0.87080    0.87910    0.51020    1.000
    C140     C        0.90000    0.95550    0.42690    1.000
    H86      H        0.96320    0.95870    0.43710    1.000
    C141     C        0.86100    0.99820    0.36730    1.000
    C142     C        0.76510    0.99550    0.35590    1.000
    H87      H        0.73800    0.02550    0.31790    1.000
    C143     C        0.71040    0.94860    0.40030    1.000
    H88      H        0.64670    0.94750    0.39180    1.000
    C144     C        0.92160    0.04850    0.31880    1.000
    C145     C        0.97220    0.27570    0.03920    1.000
    C146     C        0.94600    0.35030    0.03090    1.000
    H89      H        0.93100    0.38160    0.07230    1.000
    C147     C        0.94500    0.37290    0.95250    1.000
    H90      H        0.92770    0.42070    0.93620    1.000
    C148     C        0.97200    0.31740    0.90280    1.000
    C149     C        0.98050    0.23160    0.11180    1.000
    C150     C        0.97960    0.31940    0.81600    1.000
    Mn7      Mn       0.50201    0.83640    0.25170    1.000
    Mn8      Mn       0.99224    0.32636    0.66425    1.000
    S4       S        0.49740    0.76437    0.95091    1.000
    O25      O        0.95830    0.41232    0.58160    1.000
    O26      O        0.82900    0.39151    0.64890    1.000
    O27      O        0.39340    0.92709    0.25370    1.000
    O28      O        0.49880    0.93210    0.34560    1.000
    O29      O        0.46210    0.73660    0.17600    1.000
    O30      O        0.50620    0.83540    0.10850    1.000
    O31      O        0.49190    0.74080    0.78030    1.000
    O32      O        0.47250    0.61780    0.78180    1.000
    N19      N        0.58230    0.76030    0.32830    1.000
    N20      N        0.65510    0.85760    0.23270    1.000
    N21      N        0.39990    0.77620    0.33170    1.000
    N22      N        0.08240    0.24800    0.59390    1.000
    N23      N        0.14850    0.35940    0.67860    1.000
    N24      N        0.90050    0.23080    0.61660    1.000
    C151     C        0.67550    0.75700    0.32420    1.000
    C152     C        0.72540    0.70330    0.36570    1.000
    H91      H        0.78980    0.70260    0.36270    1.000
    C153     C        0.67980    0.65070    0.41160    1.000
    C154     C        0.58220    0.65600    0.41520    1.000
    H92      H        0.54880    0.62200    0.44510    1.000
    C155     C        0.53620    0.71160    0.37430    1.000
    C156     C        0.71660    0.81500    0.27270    1.000
    C157     C        0.81230    0.82590    0.26510    1.000
    H93      H        0.85340    0.79530    0.29210    1.000
    C158     C        0.84530    0.88180    0.21770    1.000
    H94      H        0.90870    0.88980    0.21230    1.000
    C159     C        0.78190    0.92650    0.17780    1.000
    H95      H        0.80210    0.96550    0.14610    1.000
    C160     C        0.68730    0.91160    0.18630    1.000
    H96      H        0.64510    0.94060    0.15850    1.000
    C161     C        0.43460    0.72220    0.37800    1.000
    C162     C        0.37760    0.68020    0.42660    1.000
    H97      H        0.40280    0.64310    0.45830    1.000
    C163     C        0.28440    0.69390    0.42750    1.000
    H98      H        0.24560    0.66590    0.45950    1.000
    C164     C        0.24790    0.75010    0.38000    1.000
    H99      H        0.18490    0.76100    0.38040    1.000
    C165     C        0.30770    0.78900    0.33250    1.000
    H100     H        0.28370    0.82570    0.29960    1.000
    C166     C        0.72930    0.58980    0.45590    1.000
    C167     C        0.82130    0.57270    0.44150    1.000
    H101     H        0.85290    0.59750    0.40200    1.000
    C168     C        0.86670    0.51900    0.48540    1.000
    H102     H        0.92870    0.50880    0.47500    1.000
    C169     C        0.82200    0.47980    0.54490    1.000
    C170     C        0.72880    0.49520    0.55740    1.000
    H103     H        0.69650    0.46880    0.59530    1.000
    C171     C        0.68320    0.54930    0.51390    1.000
    H104     H        0.62090    0.55900    0.52350    1.000
    C172     C        0.87150    0.42480    0.59560    1.000
    C173     C        0.17390    0.25770    0.58920    1.000
    C174     C        0.23070    0.21120    0.54440    1.000
    H105     H        0.29410    0.22030    0.54130    1.000
    C175     C        0.19070    0.15010    0.50370    1.000
    C176     C        0.09450    0.14120    0.50980    1.000
    H106     H        0.06510    0.10230    0.48330    1.000
    C177     C        0.04280    0.19060    0.55560    1.000
    C178     C        0.21270    0.31960    0.63820    1.000
    C179     C        0.30690    0.33490    0.64330    1.000
    H107     H        0.34950    0.30720    0.61460    1.000
    C180     C        0.33640    0.39210    0.69220    1.000
    H108     H        0.39930    0.40250    0.69750    1.000
    C181     C        0.27160    0.43350    0.73260    1.000
    H109     H        0.28990    0.47270    0.76500    1.000
    C182     C        0.17950    0.41570    0.72420    1.000
    H110     H        0.13620    0.44410    0.75150    1.000
    C183     C        0.94080    0.18110    0.56700    1.000
    C184     C        0.89080    0.12430    0.53240    1.000
    H111     H        0.91870    0.09240    0.49660    1.000
    C185     C        0.79820    0.11550    0.55180    1.000
    H112     H        0.76360    0.07690    0.52970    1.000
    C186     C        0.75750    0.16420    0.60380    1.000
    H113     H        0.69580    0.15870    0.61840    1.000
    C187     C        0.81170    0.22170    0.63360    1.000
    H114     H        0.78420    0.25570    0.66750    1.000
    C188     C        0.24900    0.09730    0.45810    1.000
    C189     C        0.34400    0.09210    0.47110    1.000
    H115     H        0.37080    0.12090    0.51020    1.000
    C190     C        0.40000    0.04450    0.42690    1.000
    H116     H        0.46320    0.04130    0.43710    1.000
    C191     C        0.36100    0.00180    0.36730    1.000
    C192     C        0.26510    0.00450    0.35590    1.000
    H117     H        0.23800    0.97450    0.31790    1.000
    C193     C        0.21040    0.05140    0.40030    1.000
    H118     H        0.14670    0.05250    0.39180    1.000
    C194     C        0.42160    0.95150    0.31880    1.000
    C195     C        0.47220    0.72430    0.03920    1.000
    C196     C        0.44600    0.64970    0.03090    1.000
    H119     H        0.43100    0.61840    0.07230    1.000
    C197     C        0.44500    0.62710    0.95250    1.000
    H120     H        0.42770    0.57930    0.93620    1.000
    C198     C        0.47200    0.68260    0.90280    1.000
    C199     C        0.48050    0.76840    0.11180    1.000
    C200     C        0.47960    0.68060    0.81600    1.000
