data_functionalizedCrystal
_audit_creation_method	'EQeq! by Chris Wilmer'
_symmetry_space_group_name_H-M	'P1'
_symmetry_Int_Tables_number	1
_symmetry_cell_setting	triclinic
loop_
_symmetry_equiv_pos_as_xyz
  x,y,z
_cell_length_a	30.9697
_cell_length_b	30.9697
_cell_length_c	21.302
_cell_angle_alpha	90
_cell_angle_beta	90
_cell_angle_gamma	90
loop_
_atom_site_label
_atom_site_type_symbol
_atom_site_fract_x
_atom_site_fract_y
_atom_site_fract_z
_atom_site_charge
Mof_Mo	Mo	0.67712	0.39568	0.02465	0.646
Mof_Mo	Mo	0.53247	0.22168	0.19642	0.657
Mof_Mo	Mo	0.72505	0.36149	0.11683	0.699
Mof_Cu	Cu	0.61611	0.43414	0.21116	0.779
Mof_Cu	Cu	0.58474	0.35526	0.17465	0.77
Mof_I 	I 	0.54248	0.42932	0.14965	-0.584
Mof_I 	I 	0.61855	0.36554	0.28763	-0.53
Mof_P 	P 	0.66813	0.41695	0.13707	-0.603
Mof_P 	P 	0.54132	0.29771	0.17525	-0.275
Mof_P 	P 	0.64554	0.35257	0.11079	-0.02
Mof_P 	P 	0.75247	0.37388	0.0111	-0.275
Mof_P 	P 	0.4825	0.23	0.2838	0.063
Mof_P 	P 	0.5281	0.2828	0.2806	-0.196
Mof_P 	P 	0.70832	0.32074	0.0169	1.632
Mof_P 	P 	0.743	0.4331	0.0675	-2.376
Mof_S 	S 	0.50802	0.26181	0.1003	-0.181
Mof_S 	S 	0.6875	0.3202	0.0413	-2.123
Mof_S 	S 	0.7255	0.43696	0.0885	2.439
Mof_C 	C 	0.6042	0.2159	0.0423	-0.857
Mof_H 	H 	0.5801	0.2364	0.0432	0.254
Mof_H 	H 	0.6127	0.2105	0.9987	0.248
Mof_H 	H 	0.6287	0.228	0.0654	0.279
Mof_C 	C 	0.5645	0.1615	0.2454	0.011
Mof_C 	C 	0.6047	0.2071	0.1828	-0.127
Mof_H 	H 	0.6267	0.2287	0.1691	0.036
Mof_C 	C 	0.7934	0.3443	0.1549	-0.096
Mof_H 	H 	0.8214	0.3524	0.1346	0.041
Mof_C 	C 	0.6642	0.4079	0.9196	-0.056
Mof_H 	H 	0.6803	0.3958	0.8829	-0.015
Mof_C 	C 	0.5639	0.3691	0.8794	-0.996
Mof_H 	H 	0.5431	0.3889	0.8987	0.292
Mof_H 	H 	0.5486	0.3442	0.8619	0.271
Mof_H 	H 	0.5795	0.3841	0.8458	0.288
Mof_C 	C 	0.7708	0.3046	0.1457	-0.029
Mof_C 	C 	0.7852	0.2687	0.1019	-0.332
Mof_H 	H 	0.7977	0.2451	0.1265	0.112
Mof_H 	H 	0.8069	0.2799	0.0726	0.081
Mof_H 	H 	0.7603	0.258	0.0782	0.089
Mof_C 	C 	0.5947	0.1975	0.2466	0.002
Mof_C 	C 	0.5573	0.1518	0.1818	-0.132
Mof_H 	H 	0.539	0.1274	0.1667	0.045
Mof_C 	C 	0.5834	0.178	0.1422	-0.176
Mof_C 	C 	0.7727	0.3678	0.2039	-0.233
Mof_C 	C 	0.5496	0.1546	0.0396	-0.774
Mof_H 	H 	0.5256	0.1751	0.043	0.222
Mof_H 	H 	0.5417	0.1274	0.0598	0.235
Mof_H 	H 	0.5561	0.1494	0.9952	0.21
Mof_C 	C 	0.8192	0.4335	0.1968	-0.966
Mof_H 	H 	0.8432	0.4156	0.1821	0.3
Mof_H 	H 	0.8304	0.4581	0.2205	0.277
Mof_H 	H 	0.8026	0.444	0.1607	0.281
Mof_C 	C 	0.6253	0.1392	0.0643	-0.78
Mof_H 	H 	0.6523	0.1492	0.0833	0.23
Mof_H 	H 	0.6299	0.1338	0.0194	0.22
Mof_H 	H 	0.6161	0.1124	0.0847	0.233
Mof_C 	C 	0.5465	0.1386	0.3004	-0.392
Mof_H 	H 	0.5639	0.1129	0.3092	0.129
Mof_H 	H 	0.5167	0.13	0.2915	0.113
Mof_H 	H 	0.547	0.1578	0.337	0.126
Mof_C 	C 	0.6126	0.4248	0.9905	-0.052
Mof_H 	H 	0.5863	0.4262	0.0176	0.005
Mof_C 	C 	0.6219	0.3895	0.9513	-0.307
Mof_C 	C 	0.669	0.4486	0.9465	-0.126
Mof_C 	C 	0.7347	0.3045	0.1868	0.039
Mof_C 	C 	0.5903	0.1738	0.0726	0.533
Mof_C 	C 	0.6137	0.2176	0.3043	-0.408
Mof_H 	H 	0.6429	0.2064	0.3108	0.143
Mof_H 	H 	0.5957	0.2105	0.3407	0.13
Mof_H 	H 	0.6148	0.249	0.299	0.125
Mof_C 	C 	0.7537	0.4343	0.2639	-0.906
Mof_H 	H 	0.736	0.4169	0.2925	0.282
Mof_H 	H 	0.7357	0.4445	0.2289	0.236
Mof_H 	H 	0.7655	0.4592	0.2865	0.271
Mof_C 	C 	0.8174	0.3894	0.2912	-0.956
Mof_H 	H 	0.8419	0.3734	0.2739	0.304
Mof_H 	H 	0.7998	0.37	0.3171	0.285
Mof_H 	H 	0.828	0.4133	0.3171	0.277
Mof_C 	C 	0.7903	0.407	0.2385	0.663
Mof_C 	C 	0.7359	0.3433	0.2215	-0.127
Mof_H 	H 	0.7158	0.3507	0.2567	0.039
Mof_C 	C 	0.7032	0.2672	0.1942	-0.422
Mof_H 	H 	0.7158	0.2452	0.2217	0.144
Mof_H 	H 	0.6972	0.2545	0.1529	0.152
Mof_H 	H 	0.6762	0.2778	0.2126	0.133
Mof_C 	C 	0.5732	0.3391	0.9806	-1.291
Mof_H 	H 	0.5649	0.3637	0.0069	0.377
Mof_H 	H 	0.5914	0.3194	0.005	0.397
Mof_H 	H 	0.5472	0.3239	0.9665	0.366
Mof_C 	C 	0.596	0.3538	0.929	0.807
Mof_C 	C 	0.6386	0.5038	0.024	-0.305
Mof_H 	H 	0.6213	0.5245	0.9999	0.089
Mof_H 	H 	0.668	0.5151	0.0292	0.054
Mof_H 	H 	0.6255	0.4995	0.0654	0.054
Mof_C 	C 	0.6405	0.4571	0.9861	-0.014
Mof_C 	C 	0.6298	0.3229	0.8879	-0.862
Mof_H 	H 	0.6334	0.2951	0.9093	0.246
Mof_H 	H 	0.6578	0.3373	0.8845	0.244
Mof_H 	H 	0.618	0.318	0.8458	0.236
Mof_Mo	Mo	0.17712	0.89568	0.52465	0.645
Mof_Mo	Mo	0.03247	0.72168	0.69642	0.656
Mof_Mo	Mo	0.22505	0.86149	0.61683	0.698
Mof_Cu	Cu	0.11611	0.93414	0.71116	0.778
Mof_Cu	Cu	0.08474	0.85526	0.67465	0.769
Mof_I 	I 	0.04248	0.92932	0.64965	-0.585
Mof_I 	I 	0.11855	0.86554	0.78763	-0.531
Mof_P 	P 	0.16813	0.91695	0.63707	-0.604
Mof_P 	P 	0.04132	0.79771	0.67525	-0.276
Mof_P 	P 	0.14554	0.85257	0.61079	-0.021
Mof_P 	P 	0.25247	0.87388	0.5111	-0.276
Mof_P 	P 	0.9825	0.73	0.7838	0.062
Mof_P 	P 	0.0281	0.7828	0.7806	-0.197
Mof_P 	P 	0.20832	0.82074	0.5169	1.631
Mof_P 	P 	0.243	0.9331	0.5675	-2.377
Mof_S 	S 	0.00802	0.76181	0.6003	-0.18
Mof_S 	S 	0.1875	0.8202	0.5413	-2.124
Mof_S 	S 	0.2255	0.93696	0.5885	2.438
Mof_C 	C 	0.1042	0.7159	0.5423	-0.857
Mof_H 	H 	0.0801	0.7364	0.5432	0.252
Mof_H 	H 	0.1127	0.7105	0.4987	0.246
Mof_H 	H 	0.1287	0.728	0.5654	0.278
Mof_C 	C 	0.0645	0.6615	0.7454	0.011
Mof_C 	C 	0.1047	0.7071	0.6828	-0.128
Mof_H 	H 	0.1267	0.7287	0.6691	0.035
Mof_C 	C 	0.2934	0.8443	0.6549	-0.097
Mof_H 	H 	0.3214	0.8524	0.6346	0.04
Mof_C 	C 	0.1642	0.9079	0.4196	-0.056
Mof_H 	H 	0.1803	0.8958	0.3829	-0.016
Mof_C 	C 	0.0639	0.8691	0.3794	-0.997
Mof_H 	H 	0.0431	0.8889	0.3987	0.291
Mof_H 	H 	0.0486	0.8442	0.3619	0.27
Mof_H 	H 	0.0795	0.8841	0.3458	0.287
Mof_C 	C 	0.2708	0.8046	0.6457	-0.03
Mof_C 	C 	0.2852	0.7687	0.6019	-0.333
Mof_H 	H 	0.2977	0.7451	0.6265	0.111
Mof_H 	H 	0.3069	0.7799	0.5726	0.08
Mof_H 	H 	0.2603	0.758	0.5782	0.088
Mof_C 	C 	0.0947	0.6975	0.7466	0.001
Mof_C 	C 	0.0573	0.6518	0.6818	-0.134
Mof_H 	H 	0.039	0.6274	0.6667	0.045
Mof_C 	C 	0.0834	0.678	0.6422	-0.177
Mof_C 	C 	0.2727	0.8678	0.7039	-0.233
Mof_C 	C 	0.0496	0.6546	0.5396	-0.773
Mof_H 	H 	0.0256	0.6751	0.543	0.222
Mof_H 	H 	0.0417	0.6274	0.5598	0.235
Mof_H 	H 	0.0561	0.6494	0.4952	0.21
Mof_C 	C 	0.3192	0.9335	0.6968	-0.966
Mof_H 	H 	0.3432	0.9156	0.6821	0.3
Mof_H 	H 	0.3304	0.9581	0.7205	0.277
Mof_H 	H 	0.3026	0.944	0.6607	0.281
Mof_C 	C 	0.1253	0.6392	0.5643	-0.78
Mof_H 	H 	0.1523	0.6492	0.5833	0.23
Mof_H 	H 	0.1299	0.6338	0.5194	0.22
Mof_H 	H 	0.1161	0.6124	0.5847	0.233
Mof_C 	C 	0.0465	0.6386	0.8004	-0.393
Mof_H 	H 	0.0639	0.6129	0.8092	0.129
Mof_H 	H 	0.0167	0.63	0.7915	0.113
Mof_H 	H 	0.047	0.6578	0.837	0.126
Mof_C 	C 	0.1126	0.9248	0.4905	-0.052
Mof_H 	H 	0.0863	0.9262	0.5176	0.005
Mof_C 	C 	0.1219	0.8895	0.4513	-0.307
Mof_C 	C 	0.169	0.9486	0.4465	-0.126
Mof_C 	C 	0.2347	0.8045	0.6868	0.039
Mof_C 	C 	0.0903	0.6738	0.5726	0.532
Mof_C 	C 	0.1137	0.7176	0.8043	-0.408
Mof_H 	H 	0.1429	0.7064	0.8108	0.143
Mof_H 	H 	0.0957	0.7105	0.8407	0.13
Mof_H 	H 	0.1148	0.749	0.799	0.125
Mof_C 	C 	0.2537	0.9343	0.7639	-0.906
Mof_H 	H 	0.236	0.9169	0.7925	0.282
Mof_H 	H 	0.2357	0.9445	0.7289	0.236
Mof_H 	H 	0.2655	0.9592	0.7865	0.271
Mof_C 	C 	0.3174	0.8894	0.7912	-0.956
Mof_H 	H 	0.3419	0.8734	0.7739	0.303
Mof_H 	H 	0.2998	0.87	0.8171	0.285
Mof_H 	H 	0.328	0.9133	0.8171	0.277
Mof_C 	C 	0.2903	0.907	0.7385	0.663
Mof_C 	C 	0.2359	0.8433	0.7215	-0.127
Mof_H 	H 	0.2158	0.8507	0.7567	0.039
Mof_C 	C 	0.2032	0.7672	0.6942	-0.422
Mof_H 	H 	0.2158	0.7452	0.7217	0.144
Mof_H 	H 	0.1972	0.7545	0.6529	0.152
Mof_H 	H 	0.1762	0.7778	0.7126	0.133
Mof_C 	C 	0.0732	0.8391	0.4806	-1.292
Mof_H 	H 	0.0649	0.8637	0.5069	0.377
Mof_H 	H 	0.0914	0.8194	0.505	0.397
Mof_H 	H 	0.0472	0.8239	0.4665	0.366
Mof_C 	C 	0.096	0.8538	0.429	0.808
Mof_C 	C 	0.1386	0.0038	0.524	-0.306
Mof_H 	H 	0.1213	0.0245	0.4999	0.089
Mof_H 	H 	0.168	0.0151	0.5292	0.054
Mof_H 	H 	0.1255	0.9995	0.5654	0.054
Mof_C 	C 	0.1405	0.9571	0.4861	-0.014
Mof_C 	C 	0.1298	0.8229	0.3879	-0.862
Mof_H 	H 	0.1334	0.7951	0.4093	0.246
Mof_H 	H 	0.1578	0.8373	0.3845	0.244
Mof_H 	H 	0.118	0.818	0.3458	0.236
Mof_Mo	Mo	0.82288	0.60432	0.52465	0.645
Mof_Mo	Mo	0.96753	0.77832	0.69642	0.656
Mof_Mo	Mo	0.77495	0.63851	0.61683	0.698
Mof_Cu	Cu	0.88389	0.56586	0.71116	0.778
Mof_Cu	Cu	0.91526	0.64474	0.67465	0.769
Mof_I 	I 	0.95752	0.57068	0.64965	-0.585
Mof_I 	I 	0.88145	0.63446	0.78763	-0.531
Mof_P 	P 	0.83187	0.58305	0.63707	-0.604
Mof_P 	P 	0.95868	0.70229	0.67525	-0.276
Mof_P 	P 	0.85446	0.64743	0.61079	-0.021
Mof_P 	P 	0.74753	0.62612	0.5111	-0.276
Mof_P 	P 	0.0175	0.77	0.7838	0.062
Mof_P 	P 	0.9719	0.7172	0.7806	-0.197
Mof_P 	P 	0.79168	0.67926	0.5169	1.631
Mof_P 	P 	0.757	0.5669	0.5675	-2.377
Mof_S 	S 	0.99198	0.73819	0.6003	-0.184
Mof_S 	S 	0.8125	0.6798	0.5413	-2.124
Mof_S 	S 	0.7745	0.56304	0.5885	2.438
Mof_C 	C 	0.8958	0.7841	0.5423	-0.857
Mof_H 	H 	0.9199	0.7636	0.5432	0.252
Mof_H 	H 	0.8873	0.7895	0.4987	0.246
Mof_H 	H 	0.8713	0.772	0.5654	0.278
Mof_C 	C 	0.9355	0.8385	0.7454	0.011
Mof_C 	C 	0.8953	0.7929	0.6828	-0.128
Mof_H 	H 	0.8733	0.7713	0.6691	0.035
Mof_C 	C 	0.7066	0.6557	0.6549	-0.097
Mof_H 	H 	0.6786	0.6476	0.6346	0.04
Mof_C 	C 	0.8358	0.5921	0.4196	-0.057
Mof_H 	H 	0.8197	0.6042	0.3829	-0.016
Mof_C 	C 	0.9361	0.6309	0.3794	-0.997
Mof_H 	H 	0.9569	0.6111	0.3987	0.291
Mof_H 	H 	0.9514	0.6558	0.3619	0.27
Mof_H 	H 	0.9205	0.6159	0.3458	0.287
Mof_C 	C 	0.7292	0.6954	0.6457	-0.03
Mof_C 	C 	0.7148	0.7313	0.6019	-0.333
Mof_H 	H 	0.7023	0.7549	0.6265	0.111
Mof_H 	H 	0.6931	0.7201	0.5726	0.08
Mof_H 	H 	0.7397	0.742	0.5782	0.088
Mof_C 	C 	0.9053	0.8025	0.7466	0.001
Mof_C 	C 	0.9427	0.8482	0.6818	-0.134
Mof_H 	H 	0.961	0.8726	0.6667	0.044
Mof_C 	C 	0.9166	0.822	0.6422	-0.177
Mof_C 	C 	0.7273	0.6322	0.7039	-0.233
Mof_C 	C 	0.9504	0.8454	0.5396	-0.773
Mof_H 	H 	0.9744	0.8249	0.543	0.222
Mof_H 	H 	0.9583	0.8726	0.5598	0.235
Mof_H 	H 	0.9439	0.8506	0.4952	0.21
Mof_C 	C 	0.6808	0.5665	0.6968	-0.966
Mof_H 	H 	0.6568	0.5844	0.6821	0.3
Mof_H 	H 	0.6696	0.5419	0.7205	0.277
Mof_H 	H 	0.6974	0.556	0.6607	0.281
Mof_C 	C 	0.8747	0.8608	0.5643	-0.78
Mof_H 	H 	0.8477	0.8508	0.5833	0.23
Mof_H 	H 	0.8701	0.8662	0.5194	0.22
Mof_H 	H 	0.8839	0.8876	0.5847	0.233
Mof_C 	C 	0.9535	0.8614	0.8004	-0.392
Mof_H 	H 	0.9361	0.8871	0.8092	0.129
Mof_H 	H 	0.9833	0.87	0.7915	0.113
Mof_H 	H 	0.953	0.8422	0.837	0.126
Mof_C 	C 	0.8874	0.5752	0.4905	-0.052
Mof_H 	H 	0.9137	0.5738	0.5176	0.005
Mof_C 	C 	0.8781	0.6105	0.4513	-0.307
Mof_C 	C 	0.831	0.5514	0.4465	-0.126
Mof_C 	C 	0.7653	0.6955	0.6868	0.039
Mof_C 	C 	0.9097	0.8262	0.5726	0.532
Mof_C 	C 	0.8863	0.7824	0.8043	-0.408
Mof_H 	H 	0.8571	0.7936	0.8108	0.143
Mof_H 	H 	0.9043	0.7895	0.8407	0.13
Mof_H 	H 	0.8852	0.751	0.799	0.125
Mof_C 	C 	0.7463	0.5657	0.7639	-0.906
Mof_H 	H 	0.764	0.5831	0.7925	0.282
Mof_H 	H 	0.7643	0.5555	0.7289	0.236
Mof_H 	H 	0.7345	0.5408	0.7865	0.271
Mof_C 	C 	0.6826	0.6106	0.7912	-0.956
Mof_H 	H 	0.6581	0.6266	0.7739	0.304
Mof_H 	H 	0.7002	0.63	0.8171	0.285
Mof_H 	H 	0.672	0.5867	0.8171	0.277
Mof_C 	C 	0.7097	0.593	0.7385	0.663
Mof_C 	C 	0.7641	0.6567	0.7215	-0.127
Mof_H 	H 	0.7842	0.6493	0.7567	0.039
Mof_C 	C 	0.7968	0.7328	0.6942	-0.422
Mof_H 	H 	0.7842	0.7548	0.7217	0.144
Mof_H 	H 	0.8028	0.7455	0.6529	0.152
Mof_H 	H 	0.8238	0.7222	0.7126	0.133
Mof_C 	C 	0.9268	0.6609	0.4806	-1.292
Mof_H 	H 	0.9351	0.6363	0.5069	0.377
Mof_H 	H 	0.9086	0.6806	0.505	0.397
Mof_H 	H 	0.9528	0.6761	0.4665	0.366
Mof_C 	C 	0.904	0.6462	0.429	0.808
Mof_C 	C 	0.8614	0.4962	0.524	-0.305
Mof_H 	H 	0.8787	0.4755	0.4999	0.089
Mof_H 	H 	0.832	0.4849	0.5292	0.053
Mof_H 	H 	0.8745	0.5005	0.5654	0.054
Mof_C 	C 	0.8595	0.5429	0.4861	-0.014
Mof_C 	C 	0.8702	0.6771	0.3879	-0.862
Mof_H 	H 	0.8666	0.7049	0.4093	0.246
Mof_H 	H 	0.8422	0.6627	0.3845	0.244
Mof_H 	H 	0.882	0.682	0.3458	0.236
Mof_Mo	Mo	0.32288	0.10432	0.02465	0.645
Mof_Mo	Mo	0.46753	0.27832	0.19642	0.656
Mof_Mo	Mo	0.27495	0.13851	0.11683	0.698
Mof_Cu	Cu	0.38389	0.06586	0.21116	0.778
Mof_Cu	Cu	0.41526	0.14474	0.17465	0.769
Mof_I 	I 	0.45752	0.07068	0.14965	-0.585
Mof_I 	I 	0.38145	0.13446	0.28763	-0.531
Mof_P 	P 	0.33187	0.08305	0.13707	-0.604
Mof_P 	P 	0.45868	0.20229	0.17525	-0.276
Mof_P 	P 	0.35446	0.14743	0.11079	-0.021
Mof_P 	P 	0.24753	0.12612	0.0111	-0.276
Mof_P 	P 	0.5175	0.27	0.2838	0.062
Mof_P 	P 	0.4719	0.2172	0.2806	-0.197
Mof_P 	P 	0.29168	0.17926	0.0169	1.63
Mof_P 	P 	0.257	0.0669	0.0675	-2.377
Mof_S 	S 	0.49198	0.23819	0.1003	-0.182
Mof_S 	S 	0.3125	0.1798	0.0413	-2.123
Mof_S 	S 	0.2745	0.06304	0.0885	2.438
Mof_C 	C 	0.3958	0.2841	0.0423	-0.858
Mof_H 	H 	0.4199	0.2636	0.0432	0.252
Mof_H 	H 	0.3873	0.2895	0.9987	0.246
Mof_H 	H 	0.3713	0.272	0.0654	0.278
Mof_C 	C 	0.4355	0.3385	0.2454	0.011
Mof_C 	C 	0.3953	0.2929	0.1828	-0.128
Mof_H 	H 	0.3733	0.2713	0.1691	0.035
Mof_C 	C 	0.2066	0.1557	0.1549	-0.097
Mof_H 	H 	0.1786	0.1476	0.1346	0.04
Mof_C 	C 	0.3358	0.0921	0.9196	-0.057
Mof_H 	H 	0.3197	0.1042	0.8829	-0.016
Mof_C 	C 	0.4361	0.1309	0.8794	-0.997
Mof_H 	H 	0.4569	0.1111	0.8987	0.291
Mof_H 	H 	0.4514	0.1558	0.8619	0.27
Mof_H 	H 	0.4205	0.1159	0.8458	0.287
Mof_C 	C 	0.2292	0.1954	0.1457	-0.03
Mof_C 	C 	0.2148	0.2313	0.1019	-0.333
Mof_H 	H 	0.2023	0.2549	0.1265	0.111
Mof_H 	H 	0.1931	0.2201	0.0726	0.08
Mof_H 	H 	0.2397	0.242	0.0782	0.088
Mof_C 	C 	0.4053	0.3025	0.2466	0.001
Mof_C 	C 	0.4427	0.3482	0.1818	-0.133
Mof_H 	H 	0.461	0.3726	0.1667	0.044
Mof_C 	C 	0.4166	0.322	0.1422	-0.177
Mof_C 	C 	0.2273	0.1322	0.2039	-0.233
Mof_C 	C 	0.4504	0.3454	0.0396	-0.774
Mof_H 	H 	0.4744	0.3249	0.043	0.222
Mof_H 	H 	0.4583	0.3726	0.0598	0.235
Mof_H 	H 	0.4439	0.3506	0.9952	0.21
Mof_C 	C 	0.1808	0.0665	0.1968	-0.966
Mof_H 	H 	0.1568	0.0844	0.1821	0.3
Mof_H 	H 	0.1696	0.0419	0.2205	0.277
Mof_H 	H 	0.1974	0.056	0.1607	0.281
Mof_C 	C 	0.3747	0.3608	0.0643	-0.78
Mof_H 	H 	0.3477	0.3508	0.0833	0.23
Mof_H 	H 	0.3701	0.3662	0.0194	0.22
Mof_H 	H 	0.3839	0.3876	0.0847	0.233
Mof_C 	C 	0.4535	0.3614	0.3004	-0.392
Mof_H 	H 	0.4361	0.3871	0.3092	0.129
Mof_H 	H 	0.4833	0.37	0.2915	0.113
Mof_H 	H 	0.453	0.3422	0.337	0.126
Mof_C 	C 	0.3874	0.0752	0.9905	-0.051
Mof_H 	H 	0.4137	0.0738	0.0176	0.004
Mof_C 	C 	0.3781	0.1105	0.9513	-0.307
Mof_C 	C 	0.331	0.0514	0.9465	-0.125
Mof_C 	C 	0.2653	0.1955	0.1868	0.039
Mof_C 	C 	0.4097	0.3262	0.0726	0.532
Mof_C 	C 	0.3863	0.2824	0.3043	-0.408
Mof_H 	H 	0.3571	0.2936	0.3108	0.143
Mof_H 	H 	0.4043	0.2895	0.3407	0.13
Mof_H 	H 	0.3852	0.251	0.299	0.125
Mof_C 	C 	0.2463	0.0657	0.2639	-0.906
Mof_H 	H 	0.264	0.0831	0.2925	0.282
Mof_H 	H 	0.2643	0.0555	0.2289	0.236
Mof_H 	H 	0.2345	0.0408	0.2865	0.271
Mof_C 	C 	0.1826	0.1106	0.2912	-0.956
Mof_H 	H 	0.1581	0.1266	0.2739	0.303
Mof_H 	H 	0.2002	0.13	0.3171	0.285
Mof_H 	H 	0.172	0.0867	0.3171	0.277
Mof_C 	C 	0.2097	0.093	0.2385	0.663
Mof_C 	C 	0.2641	0.1567	0.2215	-0.127
Mof_H 	H 	0.2842	0.1493	0.2567	0.039
Mof_C 	C 	0.2968	0.2328	0.1942	-0.422
Mof_H 	H 	0.2842	0.2548	0.2217	0.144
Mof_H 	H 	0.3028	0.2455	0.1529	0.152
Mof_H 	H 	0.3238	0.2222	0.2126	0.133
Mof_C 	C 	0.4268	0.1609	0.9806	-1.289
Mof_H 	H 	0.4351	0.1363	0.0069	0.377
Mof_H 	H 	0.4086	0.1806	0.005	0.396
Mof_H 	H 	0.4528	0.1761	0.9665	0.365
Mof_C 	C 	0.404	0.1462	0.929	0.807
Mof_C 	C 	0.3614	0.9962	0.024	-0.303
Mof_H 	H 	0.3787	0.9755	0.9999	0.088
Mof_H 	H 	0.332	0.9849	0.0292	0.053
Mof_H 	H 	0.3745	0.0005	0.0654	0.053
Mof_C 	C 	0.3595	0.0429	0.9861	-0.015
Mof_C 	C 	0.3702	0.1771	0.8879	-0.861
Mof_H 	H 	0.3666	0.2049	0.9093	0.246
Mof_H 	H 	0.3422	0.1627	0.8845	0.244
Mof_H 	H 	0.382	0.182	0.8458	0.236
Mof_Mo	Mo	0.35432	0.92712	0.27465	0.645
Mof_Mo	Mo	0.52832	0.78247	0.44642	0.656
Mof_Mo	Mo	0.38851	0.97505	0.36683	0.698
Mof_Cu	Cu	0.31586	0.86611	0.46116	0.778
Mof_Cu	Cu	0.39474	0.83474	0.42465	0.769
Mof_I 	I 	0.32068	0.79248	0.39965	-0.585
Mof_I 	I 	0.38446	0.86855	0.53763	-0.531
Mof_P 	P 	0.33305	0.91813	0.38707	-0.604
Mof_P 	P 	0.45229	0.79132	0.42525	-0.276
Mof_P 	P 	0.39743	0.89554	0.36079	-0.021
Mof_P 	P 	0.37612	0.00247	0.2611	-0.276
Mof_P 	P 	0.52	0.7325	0.5338	0.062
Mof_P 	P 	0.4672	0.7781	0.5306	-0.197
Mof_P 	P 	0.42926	0.95832	0.2669	1.631
Mof_P 	P 	0.3169	0.993	0.3175	-2.378
Mof_S 	S 	0.48819	0.75802	0.3503	-0.182
Mof_S 	S 	0.4298	0.9375	0.2913	-2.124
Mof_S 	S 	0.31304	0.9755	0.3385	2.439
Mof_C 	C 	0.5341	0.8542	0.2923	-0.857
Mof_H 	H 	0.5136	0.8301	0.2932	0.252
Mof_H 	H 	0.5395	0.8627	0.2487	0.246
Mof_H 	H 	0.522	0.8787	0.3154	0.278
Mof_C 	C 	0.5885	0.8145	0.4954	0.011
Mof_C 	C 	0.5429	0.8547	0.4328	-0.128
Mof_H 	H 	0.5213	0.8767	0.4191	0.035
Mof_C 	C 	0.4057	0.0434	0.4049	-0.097
Mof_H 	H 	0.3976	0.0714	0.3846	0.04
Mof_C 	C 	0.3421	0.9142	0.1696	-0.057
Mof_H 	H 	0.3542	0.9303	0.1329	-0.016
Mof_C 	C 	0.3809	0.8139	0.1294	-0.998
Mof_H 	H 	0.3611	0.7931	0.1487	0.291
Mof_H 	H 	0.4058	0.7986	0.1119	0.271
Mof_H 	H 	0.3659	0.8295	0.0958	0.287
Mof_C 	C 	0.4454	0.0208	0.3957	-0.03
Mof_C 	C 	0.4813	0.0352	0.3519	-0.333
Mof_H 	H 	0.5049	0.0477	0.3765	0.111
Mof_H 	H 	0.4701	0.0569	0.3226	0.08
Mof_H 	H 	0.492	0.0103	0.3282	0.088
Mof_C 	C 	0.5525	0.8447	0.4966	0.001
Mof_C 	C 	0.5982	0.8073	0.4318	-0.134
Mof_H 	H 	0.6226	0.789	0.4167	0.045
Mof_C 	C 	0.572	0.8334	0.3922	-0.177
Mof_C 	C 	0.3822	0.0227	0.4539	-0.233
Mof_C 	C 	0.5954	0.7996	0.2896	-0.773
Mof_H 	H 	0.5749	0.7756	0.293	0.222
Mof_H 	H 	0.6226	0.7917	0.3098	0.235
Mof_H 	H 	0.6006	0.8061	0.2452	0.21
Mof_C 	C 	0.3165	0.0692	0.4468	-0.966
Mof_H 	H 	0.3344	0.0932	0.4321	0.3
Mof_H 	H 	0.2919	0.0804	0.4705	0.277
Mof_H 	H 	0.306	0.0526	0.4107	0.281
Mof_C 	C 	0.6108	0.8753	0.3143	-0.78
Mof_H 	H 	0.6008	0.9023	0.3333	0.23
Mof_H 	H 	0.6162	0.8799	0.2694	0.22
Mof_H 	H 	0.6376	0.8661	0.3347	0.233
Mof_C 	C 	0.6114	0.7965	0.5504	-0.392
Mof_H 	H 	0.6371	0.8139	0.5592	0.129
Mof_H 	H 	0.62	0.7667	0.5415	0.113
Mof_H 	H 	0.5922	0.797	0.587	0.126
Mof_C 	C 	0.3252	0.8626	0.2405	-0.052
Mof_H 	H 	0.3238	0.8363	0.2676	0.005
Mof_C 	C 	0.3605	0.8719	0.2013	-0.307
Mof_C 	C 	0.3014	0.919	0.1965	-0.126
Mof_C 	C 	0.4455	0.9847	0.4368	0.039
Mof_C 	C 	0.5762	0.8403	0.3226	0.532
Mof_C 	C 	0.5324	0.8637	0.5543	-0.408
Mof_H 	H 	0.5436	0.8929	0.5608	0.143
Mof_H 	H 	0.5395	0.8457	0.5907	0.13
Mof_H 	H 	0.501	0.8648	0.549	0.125
Mof_C 	C 	0.3157	0.0037	0.5139	-0.906
Mof_H 	H 	0.3331	0.986	0.5425	0.282
Mof_H 	H 	0.3055	0.9857	0.4789	0.236
Mof_H 	H 	0.2908	0.0155	0.5365	0.271
Mof_C 	C 	0.3606	0.0674	0.5412	-0.957
Mof_H 	H 	0.3766	0.0919	0.5239	0.304
Mof_H 	H 	0.38	0.0498	0.5671	0.285
Mof_H 	H 	0.3367	0.078	0.5671	0.277
Mof_C 	C 	0.343	0.0403	0.4885	0.663
Mof_C 	C 	0.4067	0.9859	0.4715	-0.127
Mof_H 	H 	0.3993	0.9658	0.5067	0.039
Mof_C 	C 	0.4828	0.9532	0.4442	-0.422
Mof_H 	H 	0.5048	0.9658	0.4717	0.144
Mof_H 	H 	0.4955	0.9472	0.4029	0.152
Mof_H 	H 	0.4722	0.9262	0.4626	0.133
Mof_C 	C 	0.4109	0.8232	0.2306	-1.292
Mof_H 	H 	0.3863	0.8149	0.2569	0.377
Mof_H 	H 	0.4306	0.8414	0.255	0.397
Mof_H 	H 	0.4261	0.7972	0.2165	0.366
Mof_C 	C 	0.3962	0.846	0.179	0.808
Mof_C 	C 	0.2462	0.8886	0.274	-0.305
Mof_H 	H 	0.2255	0.8713	0.2499	0.089
Mof_H 	H 	0.2349	0.918	0.2792	0.053
Mof_H 	H 	0.2505	0.8755	0.3154	0.054
Mof_C 	C 	0.2929	0.8905	0.2361	-0.014
Mof_C 	C 	0.4271	0.8798	0.1379	-0.862
Mof_H 	H 	0.4549	0.8834	0.1593	0.246
Mof_H 	H 	0.4127	0.9078	0.1345	0.244
Mof_H 	H 	0.432	0.868	0.0958	0.236
Mof_Mo	Mo	0.85432	0.42712	0.77465	0.645
Mof_Mo	Mo	0.02832	0.28247	0.94642	0.656
Mof_Mo	Mo	0.88851	0.47505	0.86683	0.698
Mof_Cu	Cu	0.81586	0.36611	0.96116	0.778
Mof_Cu	Cu	0.89474	0.33474	0.92465	0.769
Mof_I 	I 	0.82068	0.29248	0.89965	-0.585
Mof_I 	I 	0.88446	0.36855	0.03763	-0.531
Mof_P 	P 	0.83305	0.41813	0.88707	-0.604
Mof_P 	P 	0.95229	0.29132	0.92525	-0.276
Mof_P 	P 	0.89743	0.39554	0.86079	-0.021
Mof_P 	P 	0.87612	0.50247	0.7611	-0.276
Mof_P 	P 	0.02	0.2325	0.0338	0.062
Mof_P 	P 	0.9672	0.2781	0.0306	-0.197
Mof_P 	P 	0.92926	0.45832	0.7669	1.631
Mof_P 	P 	0.8169	0.493	0.8175	-2.377
Mof_S 	S 	0.98819	0.25802	0.8503	-0.181
Mof_S 	S 	0.9298	0.4375	0.7913	-2.124
Mof_S 	S 	0.81304	0.4755	0.8385	2.438
Mof_C 	C 	0.0341	0.3542	0.7923	-0.857
Mof_H 	H 	0.0136	0.3301	0.7932	0.252
Mof_H 	H 	0.0395	0.3627	0.7487	0.246
Mof_H 	H 	0.022	0.3787	0.8154	0.278
Mof_C 	C 	0.0885	0.3145	0.9954	0.011
Mof_C 	C 	0.0429	0.3547	0.9328	-0.128
Mof_H 	H 	0.0213	0.3767	0.9191	0.035
Mof_C 	C 	0.9057	0.5434	0.9049	-0.097
Mof_H 	H 	0.8976	0.5714	0.8846	0.04
Mof_C 	C 	0.8421	0.4142	0.6696	-0.057
Mof_H 	H 	0.8542	0.4303	0.6329	-0.016
Mof_C 	C 	0.8809	0.3139	0.6294	-0.997
Mof_H 	H 	0.8611	0.2931	0.6487	0.291
Mof_H 	H 	0.9058	0.2986	0.6119	0.27
Mof_H 	H 	0.8659	0.3295	0.5958	0.287
Mof_C 	C 	0.9454	0.5208	0.8957	-0.03
Mof_C 	C 	0.9813	0.5352	0.8519	-0.333
Mof_H 	H 	0.0049	0.5477	0.8765	0.111
Mof_H 	H 	0.9701	0.5569	0.8226	0.08
Mof_H 	H 	0.992	0.5103	0.8282	0.088
Mof_C 	C 	0.0525	0.3447	0.9966	0.001
Mof_C 	C 	0.0982	0.3073	0.9318	-0.134
Mof_H 	H 	0.1226	0.289	0.9167	0.045
Mof_C 	C 	0.072	0.3334	0.8922	-0.177
Mof_C 	C 	0.8822	0.5227	0.9539	-0.233
Mof_C 	C 	0.0954	0.2996	0.7896	-0.773
Mof_H 	H 	0.0749	0.2756	0.793	0.222
Mof_H 	H 	0.1226	0.2917	0.8098	0.235
Mof_H 	H 	0.1006	0.3061	0.7452	0.21
Mof_C 	C 	0.8165	0.5692	0.9468	-0.966
Mof_H 	H 	0.8344	0.5932	0.9321	0.3
Mof_H 	H 	0.7919	0.5804	0.9705	0.277
Mof_H 	H 	0.806	0.5526	0.9107	0.281
Mof_C 	C 	0.1108	0.3753	0.8143	-0.78
Mof_H 	H 	0.1008	0.4023	0.8333	0.23
Mof_H 	H 	0.1162	0.3799	0.7694	0.22
Mof_H 	H 	0.1376	0.3661	0.8347	0.233
Mof_C 	C 	0.1114	0.2965	0.0504	-0.393
Mof_H 	H 	0.1371	0.3139	0.0592	0.129
Mof_H 	H 	0.12	0.2667	0.0415	0.113
Mof_H 	H 	0.0922	0.297	0.087	0.126
Mof_C 	C 	0.8252	0.3626	0.7405	-0.052
Mof_H 	H 	0.8238	0.3363	0.7676	0.005
Mof_C 	C 	0.8605	0.3719	0.7013	-0.307
Mof_C 	C 	0.8014	0.419	0.6965	-0.126
Mof_C 	C 	0.9455	0.4847	0.9368	0.039
Mof_C 	C 	0.0762	0.3403	0.8226	0.532
Mof_C 	C 	0.0324	0.3637	0.0543	-0.408
Mof_H 	H 	0.0436	0.3929	0.0608	0.143
Mof_H 	H 	0.0395	0.3457	0.0907	0.13
Mof_H 	H 	0.001	0.3648	0.049	0.125
Mof_C 	C 	0.8157	0.5037	0.0139	-0.906
Mof_H 	H 	0.8331	0.486	0.0425	0.282
Mof_H 	H 	0.8055	0.4857	0.9789	0.236
Mof_H 	H 	0.7908	0.5155	0.0365	0.271
Mof_C 	C 	0.8606	0.5674	0.0412	-0.956
Mof_H 	H 	0.8766	0.5919	0.0239	0.304
Mof_H 	H 	0.88	0.5498	0.0671	0.285
Mof_H 	H 	0.8367	0.578	0.0671	0.277
Mof_C 	C 	0.843	0.5403	0.9885	0.663
Mof_C 	C 	0.9067	0.4859	0.9715	-0.127
Mof_H 	H 	0.8993	0.4658	0.0067	0.039
Mof_C 	C 	0.9828	0.4532	0.9442	-0.422
Mof_H 	H 	0.0048	0.4658	0.9717	0.144
Mof_H 	H 	0.9955	0.4472	0.9029	0.152
Mof_H 	H 	0.9722	0.4262	0.9626	0.133
Mof_C 	C 	0.9109	0.3232	0.7306	-1.292
Mof_H 	H 	0.8863	0.3149	0.7569	0.377
Mof_H 	H 	0.9306	0.3414	0.755	0.397
Mof_H 	H 	0.9261	0.2972	0.7165	0.366
Mof_C 	C 	0.8962	0.346	0.679	0.808
Mof_C 	C 	0.7462	0.3886	0.774	-0.305
Mof_H 	H 	0.7255	0.3713	0.7499	0.089
Mof_H 	H 	0.7349	0.418	0.7792	0.053
Mof_H 	H 	0.7505	0.3755	0.8154	0.054
Mof_C 	C 	0.7929	0.3905	0.7361	-0.014
Mof_C 	C 	0.9271	0.3798	0.6379	-0.862
Mof_H 	H 	0.9549	0.3834	0.6593	0.246
Mof_H 	H 	0.9127	0.4078	0.6345	0.244
Mof_H 	H 	0.932	0.368	0.5958	0.236
Mof_Mo	Mo	0.14568	0.07288	0.77465	0.645
Mof_Mo	Mo	0.97168	0.21753	0.94642	0.656
Mof_Mo	Mo	0.11149	0.02495	0.86683	0.698
Mof_Cu	Cu	0.18414	0.13389	0.96116	0.778
Mof_Cu	Cu	0.10526	0.16526	0.92465	0.769
Mof_I 	I 	0.17932	0.20752	0.89965	-0.585
Mof_I 	I 	0.11554	0.13145	0.03763	-0.531
Mof_P 	P 	0.16695	0.08187	0.88707	-0.604
Mof_P 	P 	0.04771	0.20868	0.92525	-0.276
Mof_P 	P 	0.10257	0.10446	0.86079	-0.021
Mof_P 	P 	0.12388	0.99753	0.7611	-0.276
Mof_P 	P 	0.98	0.2675	0.0338	0.062
Mof_P 	P 	0.0328	0.2219	0.0306	-0.197
Mof_P 	P 	0.07074	0.04168	0.7669	1.631
Mof_P 	P 	0.1831	0.007	0.8175	-2.377
Mof_S 	S 	0.01181	0.24198	0.8503	-0.184
Mof_S 	S 	0.0702	0.0625	0.7913	-2.124
Mof_S 	S 	0.18696	0.0245	0.8385	2.438
Mof_C 	C 	0.9659	0.1458	0.7923	-0.857
Mof_H 	H 	0.9864	0.1699	0.7932	0.252
Mof_H 	H 	0.9605	0.1373	0.7487	0.246
Mof_H 	H 	0.978	0.1213	0.8154	0.278
Mof_C 	C 	0.9115	0.1855	0.9954	0.011
Mof_C 	C 	0.9571	0.1453	0.9328	-0.128
Mof_H 	H 	0.9787	0.1233	0.9191	0.035
Mof_C 	C 	0.0943	0.9566	0.9049	-0.097
Mof_H 	H 	0.1024	0.9286	0.8846	0.04
Mof_C 	C 	0.1579	0.0858	0.6696	-0.057
Mof_H 	H 	0.1458	0.0697	0.6329	-0.016
Mof_C 	C 	0.1191	0.1861	0.6294	-0.997
Mof_H 	H 	0.1389	0.2069	0.6487	0.291
Mof_H 	H 	0.0942	0.2014	0.6119	0.27
Mof_H 	H 	0.1341	0.1705	0.5958	0.287
Mof_C 	C 	0.0546	0.9792	0.8957	-0.03
Mof_C 	C 	0.0187	0.9648	0.8519	-0.332
Mof_H 	H 	0.9951	0.9523	0.8765	0.111
Mof_H 	H 	0.0299	0.9431	0.8226	0.08
Mof_H 	H 	0.008	0.9897	0.8282	0.088
Mof_C 	C 	0.9475	0.1553	0.9966	0.001
Mof_C 	C 	0.9018	0.1927	0.9318	-0.134
Mof_H 	H 	0.8774	0.211	0.9167	0.045
Mof_C 	C 	0.928	0.1666	0.8922	-0.177
Mof_C 	C 	0.1178	0.9773	0.9539	-0.232
Mof_C 	C 	0.9046	0.2004	0.7896	-0.773
Mof_H 	H 	0.9251	0.2244	0.793	0.222
Mof_H 	H 	0.8774	0.2083	0.8098	0.235
Mof_H 	H 	0.8994	0.1939	0.7452	0.21
Mof_C 	C 	0.1835	0.9308	0.9468	-0.964
Mof_H 	H 	0.1656	0.9068	0.9321	0.3
Mof_H 	H 	0.2081	0.9196	0.9705	0.277
Mof_H 	H 	0.194	0.9474	0.9107	0.281
Mof_C 	C 	0.8892	0.1247	0.8143	-0.78
Mof_H 	H 	0.8992	0.0977	0.8333	0.23
Mof_H 	H 	0.8838	0.1201	0.7694	0.22
Mof_H 	H 	0.8624	0.1339	0.8347	0.233
Mof_C 	C 	0.8886	0.2035	0.0504	-0.393
Mof_H 	H 	0.8629	0.1861	0.0592	0.129
Mof_H 	H 	0.88	0.2333	0.0415	0.113
Mof_H 	H 	0.9078	0.203	0.087	0.126
Mof_C 	C 	0.1748	0.1374	0.7405	-0.052
Mof_H 	H 	0.1762	0.1637	0.7676	0.005
Mof_C 	C 	0.1395	0.1281	0.7013	-0.307
Mof_C 	C 	0.1986	0.081	0.6965	-0.126
Mof_C 	C 	0.0545	0.0153	0.9368	0.039
Mof_C 	C 	0.9238	0.1597	0.8226	0.532
Mof_C 	C 	0.9676	0.1363	0.0543	-0.408
Mof_H 	H 	0.9564	0.1071	0.0608	0.143
Mof_H 	H 	0.9605	0.1543	0.0907	0.13
Mof_H 	H 	0.999	0.1352	0.049	0.125
Mof_C 	C 	0.1843	0.9963	0.0139	-0.902
Mof_H 	H 	0.1669	0.014	0.0425	0.281
Mof_H 	H 	0.1945	0.0143	0.9789	0.235
Mof_H 	H 	0.2092	0.9845	0.0365	0.27
Mof_C 	C 	0.1394	0.9326	0.0412	-0.955
Mof_H 	H 	0.1234	0.9081	0.0239	0.303
Mof_H 	H 	0.12	0.9502	0.0671	0.284
Mof_H 	H 	0.1633	0.922	0.0671	0.277
Mof_C 	C 	0.157	0.9597	0.9885	0.661
Mof_C 	C 	0.0933	0.0141	0.9715	-0.127
Mof_H 	H 	0.1007	0.0342	0.0067	0.039
Mof_C 	C 	0.0172	0.0468	0.9442	-0.423
Mof_H 	H 	0.9952	0.0342	0.9717	0.145
Mof_H 	H 	0.0045	0.0528	0.9029	0.152
Mof_H 	H 	0.0278	0.0738	0.9626	0.133
Mof_C 	C 	0.0891	0.1768	0.7306	-1.292
Mof_H 	H 	0.1137	0.1851	0.7569	0.377
Mof_H 	H 	0.0694	0.1586	0.755	0.397
Mof_H 	H 	0.0739	0.2028	0.7165	0.366
Mof_C 	C 	0.1038	0.154	0.679	0.808
Mof_C 	C 	0.2538	0.1114	0.774	-0.305
Mof_H 	H 	0.2745	0.1287	0.7499	0.089
Mof_H 	H 	0.2651	0.082	0.7792	0.054
Mof_H 	H 	0.2495	0.1245	0.8154	0.054
Mof_C 	C 	0.2071	0.1095	0.7361	-0.014
Mof_C 	C 	0.0729	0.1202	0.6379	-0.862
Mof_H 	H 	0.0451	0.1166	0.6593	0.246
Mof_H 	H 	0.0873	0.0922	0.6345	0.244
Mof_H 	H 	0.068	0.132	0.5958	0.236
Mof_Mo	Mo	0.64568	0.57288	0.27465	0.645
Mof_Mo	Mo	0.47168	0.71753	0.44642	0.656
Mof_Mo	Mo	0.61149	0.52495	0.36683	0.698
Mof_Cu	Cu	0.68414	0.63389	0.46116	0.778
Mof_Cu	Cu	0.60526	0.66526	0.42465	0.769
Mof_I 	I 	0.67932	0.70752	0.39965	-0.585
Mof_I 	I 	0.61554	0.63145	0.53763	-0.531
Mof_P 	P 	0.66695	0.58187	0.38707	-0.604
Mof_P 	P 	0.54771	0.70868	0.42525	-0.276
Mof_P 	P 	0.60257	0.60446	0.36079	-0.021
Mof_P 	P 	0.62388	0.49753	0.2611	-0.276
Mof_P 	P 	0.48	0.7675	0.5338	0.062
Mof_P 	P 	0.5328	0.7219	0.5306	-0.197
Mof_P 	P 	0.57074	0.54168	0.2669	1.631
Mof_P 	P 	0.6831	0.507	0.3175	-2.377
Mof_S 	S 	0.51181	0.74198	0.3503	-0.182
Mof_S 	S 	0.5702	0.5625	0.2913	-2.124
Mof_S 	S 	0.68696	0.5245	0.3385	2.438
Mof_C 	C 	0.4659	0.6458	0.2923	-0.857
Mof_H 	H 	0.4864	0.6699	0.2932	0.252
Mof_H 	H 	0.4605	0.6373	0.2487	0.246
Mof_H 	H 	0.478	0.6213	0.3154	0.278
Mof_C 	C 	0.4115	0.6855	0.4954	0.011
Mof_C 	C 	0.4571	0.6453	0.4328	-0.128
Mof_H 	H 	0.4787	0.6233	0.4191	0.035
Mof_C 	C 	0.5943	0.4566	0.4049	-0.097
Mof_H 	H 	0.6024	0.4286	0.3846	0.04
Mof_C 	C 	0.6579	0.5858	0.1696	-0.057
Mof_H 	H 	0.6458	0.5697	0.1329	-0.016
Mof_C 	C 	0.6191	0.6861	0.1294	-0.998
Mof_H 	H 	0.6389	0.7069	0.1487	0.291
Mof_H 	H 	0.5942	0.7014	0.1119	0.27
Mof_H 	H 	0.6341	0.6705	0.0958	0.287
Mof_C 	C 	0.5546	0.4792	0.3957	-0.03
Mof_C 	C 	0.5187	0.4648	0.3519	-0.333
Mof_H 	H 	0.4951	0.4523	0.3765	0.111
Mof_H 	H 	0.5299	0.4431	0.3226	0.08
Mof_H 	H 	0.508	0.4897	0.3282	0.088
Mof_C 	C 	0.4475	0.6553	0.4966	0.001
Mof_C 	C 	0.4018	0.6927	0.4318	-0.134
Mof_H 	H 	0.3774	0.711	0.4167	0.045
Mof_C 	C 	0.428	0.6666	0.3922	-0.177
Mof_C 	C 	0.6178	0.4773	0.4539	-0.233
Mof_C 	C 	0.4046	0.7004	0.2896	-0.773
Mof_H 	H 	0.4251	0.7244	0.293	0.222
Mof_H 	H 	0.3774	0.7083	0.3098	0.235
Mof_H 	H 	0.3994	0.6939	0.2452	0.21
Mof_C 	C 	0.6835	0.4308	0.4468	-0.966
Mof_H 	H 	0.6656	0.4068	0.4321	0.3
Mof_H 	H 	0.7081	0.4196	0.4705	0.277
Mof_H 	H 	0.694	0.4474	0.4107	0.281
Mof_C 	C 	0.3892	0.6247	0.3143	-0.78
Mof_H 	H 	0.3992	0.5977	0.3333	0.23
Mof_H 	H 	0.3838	0.6201	0.2694	0.22
Mof_H 	H 	0.3624	0.6339	0.3347	0.233
Mof_C 	C 	0.3886	0.7035	0.5504	-0.392
Mof_H 	H 	0.3629	0.6861	0.5592	0.129
Mof_H 	H 	0.38	0.7333	0.5415	0.113
Mof_H 	H 	0.4078	0.703	0.587	0.126
Mof_C 	C 	0.6748	0.6374	0.2405	-0.052
Mof_H 	H 	0.6762	0.6637	0.2676	0.005
Mof_C 	C 	0.6395	0.6281	0.2013	-0.307
Mof_C 	C 	0.6986	0.581	0.1965	-0.126
Mof_C 	C 	0.5545	0.5153	0.4368	0.039
Mof_C 	C 	0.4238	0.6597	0.3226	0.532
Mof_C 	C 	0.4676	0.6363	0.5543	-0.408
Mof_H 	H 	0.4564	0.6071	0.5608	0.143
Mof_H 	H 	0.4605	0.6543	0.5907	0.13
Mof_H 	H 	0.499	0.6352	0.549	0.125
Mof_C 	C 	0.6843	0.4963	0.5139	-0.906
Mof_H 	H 	0.6669	0.514	0.5425	0.282
Mof_H 	H 	0.6945	0.5143	0.4789	0.236
Mof_H 	H 	0.7092	0.4845	0.5365	0.271
Mof_C 	C 	0.6394	0.4326	0.5412	-0.956
Mof_H 	H 	0.6234	0.4081	0.5239	0.304
Mof_H 	H 	0.62	0.4502	0.5671	0.285
Mof_H 	H 	0.6633	0.422	0.5671	0.277
Mof_C 	C 	0.657	0.4597	0.4885	0.663
Mof_C 	C 	0.5933	0.5141	0.4715	-0.127
Mof_H 	H 	0.6007	0.5342	0.5067	0.039
Mof_C 	C 	0.5172	0.5468	0.4442	-0.422
Mof_H 	H 	0.4952	0.5342	0.4717	0.144
Mof_H 	H 	0.5045	0.5528	0.4029	0.152
Mof_H 	H 	0.5278	0.5738	0.4626	0.133
Mof_C 	C 	0.5891	0.6768	0.2306	-1.292
Mof_H 	H 	0.6137	0.6851	0.2569	0.377
Mof_H 	H 	0.5694	0.6586	0.255	0.397
Mof_H 	H 	0.5739	0.7028	0.2165	0.366
Mof_C 	C 	0.6038	0.654	0.179	0.808
Mof_C 	C 	0.7538	0.6114	0.274	-0.305
Mof_H 	H 	0.7745	0.6287	0.2499	0.089
Mof_H 	H 	0.7651	0.582	0.2792	0.053
Mof_H 	H 	0.7495	0.6245	0.3154	0.054
Mof_C 	C 	0.7071	0.6095	0.2361	-0.014
Mof_C 	C 	0.5729	0.6202	0.1379	-0.862
Mof_H 	H 	0.5451	0.6166	0.1593	0.246
Mof_H 	H 	0.5873	0.5922	0.1345	0.244
Mof_H 	H 	0.568	0.632	0.0958	0.236
Mof_Mo	Mo	0.32288	0.60432	0.97535	0.645
Mof_Mo	Mo	0.46753	0.77832	0.80358	0.656
Mof_Mo	Mo	0.27495	0.63851	0.88317	0.698
Mof_Cu	Cu	0.38389	0.56586	0.78884	0.778
Mof_Cu	Cu	0.41526	0.64474	0.82535	0.769
Mof_I 	I 	0.45752	0.57068	0.85035	-0.585
Mof_I 	I 	0.38145	0.63446	0.71237	-0.531
Mof_P 	P 	0.33187	0.58305	0.86293	-0.604
Mof_P 	P 	0.45868	0.70229	0.82475	-0.276
Mof_P 	P 	0.35446	0.64743	0.88921	-0.021
Mof_P 	P 	0.24753	0.62612	0.9889	-0.276
Mof_P 	P 	0.5175	0.77	0.7162	0.062
Mof_P 	P 	0.4719	0.7172	0.7194	-0.197
Mof_P 	P 	0.29168	0.67926	0.9831	1.631
Mof_P 	P 	0.257	0.5669	0.9325	-2.377
Mof_S 	S 	0.49198	0.73819	0.8997	-0.182
Mof_S 	S 	0.3125	0.6798	0.9587	-2.124
Mof_S 	S 	0.2745	0.56304	0.9115	2.438
Mof_C 	C 	0.3958	0.7841	0.9577	-0.858
Mof_H 	H 	0.4199	0.7636	0.9568	0.253
Mof_H 	H 	0.3873	0.7895	0.0013	0.247
Mof_H 	H 	0.3713	0.772	0.9346	0.278
Mof_C 	C 	0.4355	0.8385	0.7546	0.01
Mof_C 	C 	0.3953	0.7929	0.8172	-0.128
Mof_H 	H 	0.3733	0.7713	0.8309	0.035
Mof_C 	C 	0.2066	0.6557	0.8451	-0.097
Mof_H 	H 	0.1786	0.6476	0.8654	0.04
Mof_C 	C 	0.3358	0.5921	0.0804	-0.057
Mof_H 	H 	0.3197	0.6042	0.1171	-0.016
Mof_C 	C 	0.4361	0.6309	0.1206	-0.997
Mof_H 	H 	0.4569	0.6111	0.1013	0.291
Mof_H 	H 	0.4514	0.6558	0.1381	0.27
Mof_H 	H 	0.4205	0.6159	0.1542	0.287
Mof_C 	C 	0.2292	0.6954	0.8543	-0.03
Mof_C 	C 	0.2148	0.7313	0.8981	-0.333
Mof_H 	H 	0.2023	0.7549	0.8735	0.111
Mof_H 	H 	0.1931	0.7201	0.9274	0.08
Mof_H 	H 	0.2397	0.742	0.9218	0.088
Mof_C 	C 	0.4053	0.8025	0.7534	0.001
Mof_C 	C 	0.4427	0.8482	0.8182	-0.133
Mof_H 	H 	0.461	0.8726	0.8333	0.044
Mof_C 	C 	0.4166	0.822	0.8578	-0.177
Mof_C 	C 	0.2273	0.6322	0.7961	-0.233
Mof_C 	C 	0.4504	0.8454	0.9604	-0.774
Mof_H 	H 	0.4744	0.8249	0.957	0.222
Mof_H 	H 	0.4583	0.8726	0.9402	0.235
Mof_H 	H 	0.4439	0.8506	0.0048	0.21
Mof_C 	C 	0.1808	0.5665	0.8032	-0.966
Mof_H 	H 	0.1568	0.5844	0.8179	0.3
Mof_H 	H 	0.1696	0.5419	0.7795	0.277
Mof_H 	H 	0.1974	0.556	0.8393	0.281
Mof_C 	C 	0.3747	0.8608	0.9357	-0.78
Mof_H 	H 	0.3477	0.8508	0.9167	0.23
Mof_H 	H 	0.3701	0.8662	0.9806	0.22
Mof_H 	H 	0.3839	0.8876	0.9153	0.233
Mof_C 	C 	0.4535	0.8614	0.6996	-0.392
Mof_H 	H 	0.4361	0.8871	0.6908	0.129
Mof_H 	H 	0.4833	0.87	0.7085	0.113
Mof_H 	H 	0.453	0.8422	0.663	0.126
Mof_C 	C 	0.3874	0.5752	0.0095	-0.052
Mof_H 	H 	0.4137	0.5738	0.9824	0.005
Mof_C 	C 	0.3781	0.6105	0.0487	-0.307
Mof_C 	C 	0.331	0.5514	0.0535	-0.126
Mof_C 	C 	0.2653	0.6955	0.8132	0.039
Mof_C 	C 	0.4097	0.8262	0.9274	0.533
Mof_C 	C 	0.3863	0.7824	0.6957	-0.408
Mof_H 	H 	0.3571	0.7936	0.6892	0.143
Mof_H 	H 	0.4043	0.7895	0.6593	0.13
Mof_H 	H 	0.3852	0.751	0.701	0.125
Mof_C 	C 	0.2463	0.5657	0.7361	-0.906
Mof_H 	H 	0.264	0.5831	0.7075	0.282
Mof_H 	H 	0.2643	0.5555	0.7711	0.236
Mof_H 	H 	0.2345	0.5408	0.7135	0.271
Mof_C 	C 	0.1826	0.6106	0.7088	-0.956
Mof_H 	H 	0.1581	0.6266	0.7261	0.304
Mof_H 	H 	0.2002	0.63	0.6829	0.285
Mof_H 	H 	0.172	0.5867	0.6829	0.277
Mof_C 	C 	0.2097	0.593	0.7615	0.663
Mof_C 	C 	0.2641	0.6567	0.7785	-0.127
Mof_H 	H 	0.2842	0.6493	0.7433	0.039
Mof_C 	C 	0.2968	0.7328	0.8058	-0.422
Mof_H 	H 	0.2842	0.7548	0.7783	0.144
Mof_H 	H 	0.3028	0.7455	0.8471	0.152
Mof_H 	H 	0.3238	0.7222	0.7874	0.133
Mof_C 	C 	0.4268	0.6609	0.0194	-1.291
Mof_H 	H 	0.4351	0.6363	0.9931	0.377
Mof_H 	H 	0.4086	0.6806	0.995	0.397
Mof_H 	H 	0.4528	0.6761	0.0335	0.366
Mof_C 	C 	0.404	0.6462	0.071	0.807
Mof_C 	C 	0.3614	0.4962	0.976	-0.305
Mof_H 	H 	0.3787	0.4755	0.0001	0.089
Mof_H 	H 	0.332	0.4849	0.9708	0.054
Mof_H 	H 	0.3745	0.5005	0.9346	0.054
Mof_C 	C 	0.3595	0.5429	0.0139	-0.014
Mof_C 	C 	0.3702	0.6771	0.1121	-0.862
Mof_H 	H 	0.3666	0.7049	0.0907	0.246
Mof_H 	H 	0.3422	0.6627	0.1155	0.244
Mof_H 	H 	0.382	0.682	0.1542	0.236
Mof_Mo	Mo	0.82288	0.10432	0.47535	0.645
Mof_Mo	Mo	0.96753	0.27832	0.30358	0.656
Mof_Mo	Mo	0.77495	0.13851	0.38317	0.698
Mof_Cu	Cu	0.88389	0.06586	0.28884	0.778
Mof_Cu	Cu	0.91526	0.14474	0.32535	0.769
Mof_I 	I 	0.95752	0.07068	0.35035	-0.585
Mof_I 	I 	0.88145	0.13446	0.21237	-0.531
Mof_P 	P 	0.83187	0.08305	0.36293	-0.604
Mof_P 	P 	0.95868	0.20229	0.32475	-0.276
Mof_P 	P 	0.85446	0.14743	0.38921	-0.021
Mof_P 	P 	0.74753	0.12612	0.4889	-0.276
Mof_P 	P 	0.0175	0.27	0.2162	0.062
Mof_P 	P 	0.9719	0.2172	0.2194	-0.197
Mof_P 	P 	0.79168	0.17926	0.4831	1.631
Mof_P 	P 	0.757	0.0669	0.4325	-2.377
Mof_S 	S 	0.99198	0.23819	0.3997	-0.18
Mof_S 	S 	0.8125	0.1798	0.4587	-2.124
Mof_S 	S 	0.7745	0.06304	0.4115	2.438
Mof_C 	C 	0.8958	0.2841	0.4577	-0.857
Mof_H 	H 	0.9199	0.2636	0.4568	0.252
Mof_H 	H 	0.8873	0.2895	0.5013	0.246
Mof_H 	H 	0.8713	0.272	0.4346	0.278
Mof_C 	C 	0.9355	0.3385	0.2546	0.011
Mof_C 	C 	0.8953	0.2929	0.3172	-0.128
Mof_H 	H 	0.8733	0.2713	0.3309	0.035
Mof_C 	C 	0.7066	0.1557	0.3451	-0.097
Mof_H 	H 	0.6786	0.1476	0.3654	0.04
Mof_C 	C 	0.8358	0.0921	0.5804	-0.056
Mof_H 	H 	0.8197	0.1042	0.6171	-0.016
Mof_C 	C 	0.9361	0.1309	0.6206	-0.997
Mof_H 	H 	0.9569	0.1111	0.6013	0.291
Mof_H 	H 	0.9514	0.1558	0.6381	0.27
Mof_H 	H 	0.9205	0.1159	0.6542	0.287
Mof_C 	C 	0.7292	0.1954	0.3543	-0.03
Mof_C 	C 	0.7148	0.2313	0.3981	-0.333
Mof_H 	H 	0.7023	0.2549	0.3735	0.111
Mof_H 	H 	0.6931	0.2201	0.4274	0.08
Mof_H 	H 	0.7397	0.242	0.4218	0.088
Mof_C 	C 	0.9053	0.3025	0.2534	0.001
Mof_C 	C 	0.9427	0.3482	0.3182	-0.134
Mof_H 	H 	0.961	0.3726	0.3333	0.045
Mof_C 	C 	0.9166	0.322	0.3578	-0.177
Mof_C 	C 	0.7273	0.1322	0.2961	-0.233
Mof_C 	C 	0.9504	0.3454	0.4604	-0.773
Mof_H 	H 	0.9744	0.3249	0.457	0.222
Mof_H 	H 	0.9583	0.3726	0.4402	0.235
Mof_H 	H 	0.9439	0.3506	0.5048	0.21
Mof_C 	C 	0.6808	0.0665	0.3032	-0.966
Mof_H 	H 	0.6568	0.0844	0.3179	0.3
Mof_H 	H 	0.6696	0.0419	0.2795	0.277
Mof_H 	H 	0.6974	0.056	0.3393	0.281
Mof_C 	C 	0.8747	0.3608	0.4357	-0.78
Mof_H 	H 	0.8477	0.3508	0.4167	0.23
Mof_H 	H 	0.8701	0.3662	0.4806	0.22
Mof_H 	H 	0.8839	0.3876	0.4153	0.233
Mof_C 	C 	0.9535	0.3614	0.1996	-0.393
Mof_H 	H 	0.9361	0.3871	0.1908	0.129
Mof_H 	H 	0.9833	0.37	0.2085	0.113
Mof_H 	H 	0.953	0.3422	0.163	0.126
Mof_C 	C 	0.8874	0.0752	0.5095	-0.052
Mof_H 	H 	0.9137	0.0738	0.4824	0.005
Mof_C 	C 	0.8781	0.1105	0.5487	-0.307
Mof_C 	C 	0.831	0.0514	0.5535	-0.126
Mof_C 	C 	0.7653	0.1955	0.3132	0.039
Mof_C 	C 	0.9097	0.3262	0.4274	0.532
Mof_C 	C 	0.8863	0.2824	0.1957	-0.408
Mof_H 	H 	0.8571	0.2936	0.1892	0.143
Mof_H 	H 	0.9043	0.2895	0.1593	0.13
Mof_H 	H 	0.8852	0.251	0.201	0.125
Mof_C 	C 	0.7463	0.0657	0.2361	-0.906
Mof_H 	H 	0.764	0.0831	0.2075	0.282
Mof_H 	H 	0.7643	0.0555	0.2711	0.236
Mof_H 	H 	0.7345	0.0408	0.2135	0.271
Mof_C 	C 	0.6826	0.1106	0.2088	-0.956
Mof_H 	H 	0.6581	0.1266	0.2261	0.303
Mof_H 	H 	0.7002	0.13	0.1829	0.285
Mof_H 	H 	0.672	0.0867	0.1829	0.277
Mof_C 	C 	0.7097	0.093	0.2615	0.663
Mof_C 	C 	0.7641	0.1567	0.2785	-0.127
Mof_H 	H 	0.7842	0.1493	0.2433	0.039
Mof_C 	C 	0.7968	0.2328	0.3058	-0.422
Mof_H 	H 	0.7842	0.2548	0.2783	0.144
Mof_H 	H 	0.8028	0.2455	0.3471	0.152
Mof_H 	H 	0.8238	0.2222	0.2874	0.133
Mof_C 	C 	0.9268	0.1609	0.5194	-1.292
Mof_H 	H 	0.9351	0.1363	0.4931	0.377
Mof_H 	H 	0.9086	0.1806	0.495	0.397
Mof_H 	H 	0.9528	0.1761	0.5335	0.366
Mof_C 	C 	0.904	0.1462	0.571	0.808
Mof_C 	C 	0.8614	0.9962	0.476	-0.306
Mof_H 	H 	0.8787	0.9755	0.5001	0.089
Mof_H 	H 	0.832	0.9849	0.4708	0.054
Mof_H 	H 	0.8745	0.0005	0.4346	0.054
Mof_C 	C 	0.8595	0.0429	0.5139	-0.014
Mof_C 	C 	0.8702	0.1771	0.6121	-0.862
Mof_H 	H 	0.8666	0.2049	0.5907	0.246
Mof_H 	H 	0.8422	0.1627	0.6155	0.244
Mof_H 	H 	0.882	0.182	0.6542	0.236
Mof_Mo	Mo	0.17712	0.39568	0.47535	0.645
Mof_Mo	Mo	0.03247	0.22168	0.30358	0.656
Mof_Mo	Mo	0.22505	0.36149	0.38317	0.698
Mof_Cu	Cu	0.11611	0.43414	0.28884	0.778
Mof_Cu	Cu	0.08474	0.35526	0.32535	0.769
Mof_I 	I 	0.04248	0.42932	0.35035	-0.585
Mof_I 	I 	0.11855	0.36554	0.21237	-0.531
Mof_P 	P 	0.16813	0.41695	0.36293	-0.604
Mof_P 	P 	0.04132	0.29771	0.32475	-0.276
Mof_P 	P 	0.14554	0.35257	0.38921	-0.021
Mof_P 	P 	0.25247	0.37388	0.4889	-0.276
Mof_P 	P 	0.9825	0.23	0.2162	0.062
Mof_P 	P 	0.0281	0.2828	0.2194	-0.197
Mof_P 	P 	0.20832	0.32074	0.4831	1.631
Mof_P 	P 	0.243	0.4331	0.4325	-2.377
Mof_S 	S 	0.00802	0.26181	0.3997	-0.184
Mof_S 	S 	0.1875	0.3202	0.4587	-2.124
Mof_S 	S 	0.2255	0.43696	0.4115	2.438
Mof_C 	C 	0.1042	0.2159	0.4577	-0.857
Mof_H 	H 	0.0801	0.2364	0.4568	0.252
Mof_H 	H 	0.1127	0.2105	0.5013	0.246
Mof_H 	H 	0.1287	0.228	0.4346	0.278
Mof_C 	C 	0.0645	0.1615	0.2546	0.011
Mof_C 	C 	0.1047	0.2071	0.3172	-0.128
Mof_H 	H 	0.1267	0.2287	0.3309	0.035
Mof_C 	C 	0.2934	0.3443	0.3451	-0.097
Mof_H 	H 	0.3214	0.3524	0.3654	0.04
Mof_C 	C 	0.1642	0.4079	0.5804	-0.057
Mof_H 	H 	0.1803	0.3958	0.6171	-0.016
Mof_C 	C 	0.0639	0.3691	0.6206	-0.997
Mof_H 	H 	0.0431	0.3889	0.6013	0.291
Mof_H 	H 	0.0486	0.3442	0.6381	0.27
Mof_H 	H 	0.0795	0.3841	0.6542	0.287
Mof_C 	C 	0.2708	0.3046	0.3543	-0.03
Mof_C 	C 	0.2852	0.2687	0.3981	-0.333
Mof_H 	H 	0.2977	0.2451	0.3735	0.111
Mof_H 	H 	0.3069	0.2799	0.4274	0.08
Mof_H 	H 	0.2603	0.258	0.4218	0.088
Mof_C 	C 	0.0947	0.1975	0.2534	0.001
Mof_C 	C 	0.0573	0.1518	0.3182	-0.134
Mof_H 	H 	0.039	0.1274	0.3333	0.044
Mof_C 	C 	0.0834	0.178	0.3578	-0.177
Mof_C 	C 	0.2727	0.3678	0.2961	-0.233
Mof_C 	C 	0.0496	0.1546	0.4604	-0.773
Mof_H 	H 	0.0256	0.1751	0.457	0.222
Mof_H 	H 	0.0417	0.1274	0.4402	0.235
Mof_H 	H 	0.0561	0.1494	0.5048	0.21
Mof_C 	C 	0.3192	0.4335	0.3032	-0.966
Mof_H 	H 	0.3432	0.4156	0.3179	0.3
Mof_H 	H 	0.3304	0.4581	0.2795	0.277
Mof_H 	H 	0.3026	0.444	0.3393	0.281
Mof_C 	C 	0.1253	0.1392	0.4357	-0.78
Mof_H 	H 	0.1523	0.1492	0.4167	0.23
Mof_H 	H 	0.1299	0.1338	0.4806	0.22
Mof_H 	H 	0.1161	0.1124	0.4153	0.233
Mof_C 	C 	0.0465	0.1386	0.1996	-0.392
Mof_H 	H 	0.0639	0.1129	0.1908	0.129
Mof_H 	H 	0.0167	0.13	0.2085	0.113
Mof_H 	H 	0.047	0.1578	0.163	0.126
Mof_C 	C 	0.1126	0.4248	0.5095	-0.052
Mof_H 	H 	0.0863	0.4262	0.4824	0.005
Mof_C 	C 	0.1219	0.3895	0.5487	-0.307
Mof_C 	C 	0.169	0.4486	0.5535	-0.126
Mof_C 	C 	0.2347	0.3045	0.3132	0.039
Mof_C 	C 	0.0903	0.1738	0.4274	0.532
Mof_C 	C 	0.1137	0.2176	0.1957	-0.408
Mof_H 	H 	0.1429	0.2064	0.1892	0.143
Mof_H 	H 	0.0957	0.2105	0.1593	0.13
Mof_H 	H 	0.1148	0.249	0.201	0.125
Mof_C 	C 	0.2537	0.4343	0.2361	-0.906
Mof_H 	H 	0.236	0.4169	0.2075	0.282
Mof_H 	H 	0.2357	0.4445	0.2711	0.236
Mof_H 	H 	0.2655	0.4592	0.2135	0.271
Mof_C 	C 	0.3174	0.3894	0.2088	-0.956
Mof_H 	H 	0.3419	0.3734	0.2261	0.304
Mof_H 	H 	0.2998	0.37	0.1829	0.285
Mof_H 	H 	0.328	0.4133	0.1829	0.277
Mof_C 	C 	0.2903	0.407	0.2615	0.663
Mof_C 	C 	0.2359	0.3433	0.2785	-0.127
Mof_H 	H 	0.2158	0.3507	0.2433	0.039
Mof_C 	C 	0.2032	0.2672	0.3058	-0.422
Mof_H 	H 	0.2158	0.2452	0.2783	0.144
Mof_H 	H 	0.1972	0.2545	0.3471	0.152
Mof_H 	H 	0.1762	0.2778	0.2874	0.133
Mof_C 	C 	0.0732	0.3391	0.5194	-1.292
Mof_H 	H 	0.0649	0.3637	0.4931	0.377
Mof_H 	H 	0.0914	0.3194	0.495	0.397
Mof_H 	H 	0.0472	0.3239	0.5335	0.366
Mof_C 	C 	0.096	0.3538	0.571	0.808
Mof_C 	C 	0.1386	0.5038	0.476	-0.305
Mof_H 	H 	0.1213	0.5245	0.5001	0.089
Mof_H 	H 	0.168	0.5151	0.4708	0.053
Mof_H 	H 	0.1255	0.4995	0.4346	0.054
Mof_C 	C 	0.1405	0.4571	0.5139	-0.014
Mof_C 	C 	0.1298	0.3229	0.6121	-0.862
Mof_H 	H 	0.1334	0.2951	0.5907	0.246
Mof_H 	H 	0.1578	0.3373	0.6155	0.244
Mof_H 	H 	0.118	0.318	0.6542	0.236
Mof_Mo	Mo	0.67712	0.89568	0.97535	0.645
Mof_Mo	Mo	0.53247	0.72168	0.80358	0.656
Mof_Mo	Mo	0.72505	0.86149	0.88317	0.698
Mof_Cu	Cu	0.61611	0.93414	0.78884	0.778
Mof_Cu	Cu	0.58474	0.85526	0.82535	0.769
Mof_I 	I 	0.54248	0.92932	0.85035	-0.585
Mof_I 	I 	0.61855	0.86554	0.71237	-0.531
Mof_P 	P 	0.66813	0.91695	0.86293	-0.604
Mof_P 	P 	0.54132	0.79771	0.82475	-0.276
Mof_P 	P 	0.64554	0.85257	0.88921	-0.021
Mof_P 	P 	0.75247	0.87388	0.9889	-0.276
Mof_P 	P 	0.4825	0.73	0.7162	0.062
Mof_P 	P 	0.5281	0.7828	0.7194	-0.197
Mof_P 	P 	0.70832	0.82074	0.9831	1.63
Mof_P 	P 	0.743	0.9331	0.9325	-2.377
Mof_S 	S 	0.50802	0.76181	0.8997	-0.182
Mof_S 	S 	0.6875	0.8202	0.9587	-2.123
Mof_S 	S 	0.7255	0.93696	0.9115	2.438
Mof_C 	C 	0.6042	0.7159	0.9577	-0.858
Mof_H 	H 	0.5801	0.7364	0.9568	0.252
Mof_H 	H 	0.6127	0.7105	0.0013	0.246
Mof_H 	H 	0.6287	0.728	0.9346	0.278
Mof_C 	C 	0.5645	0.6615	0.7546	0.011
Mof_C 	C 	0.6047	0.7071	0.8172	-0.128
Mof_H 	H 	0.6267	0.7287	0.8309	0.035
Mof_C 	C 	0.7934	0.8443	0.8451	-0.097
Mof_H 	H 	0.8214	0.8524	0.8654	0.04
Mof_C 	C 	0.6642	0.9079	0.0804	-0.057
Mof_H 	H 	0.6803	0.8958	0.1171	-0.016
Mof_C 	C 	0.5639	0.8691	0.1206	-0.997
Mof_H 	H 	0.5431	0.8889	0.1013	0.291
Mof_H 	H 	0.5486	0.8442	0.1381	0.27
Mof_H 	H 	0.5795	0.8841	0.1542	0.287
Mof_C 	C 	0.7708	0.8046	0.8543	-0.03
Mof_C 	C 	0.7852	0.7687	0.8981	-0.333
Mof_H 	H 	0.7977	0.7451	0.8735	0.111
Mof_H 	H 	0.8069	0.7799	0.9274	0.08
Mof_H 	H 	0.7603	0.758	0.9218	0.088
Mof_C 	C 	0.5947	0.6975	0.7534	0.001
Mof_C 	C 	0.5573	0.6518	0.8182	-0.133
Mof_H 	H 	0.539	0.6274	0.8333	0.044
Mof_C 	C 	0.5834	0.678	0.8578	-0.177
Mof_C 	C 	0.7727	0.8678	0.7961	-0.233
Mof_C 	C 	0.5496	0.6546	0.9604	-0.774
Mof_H 	H 	0.5256	0.6751	0.957	0.222
Mof_H 	H 	0.5417	0.6274	0.9402	0.235
Mof_H 	H 	0.5561	0.6494	0.0048	0.21
Mof_C 	C 	0.8192	0.9335	0.8032	-0.966
Mof_H 	H 	0.8432	0.9156	0.8179	0.3
Mof_H 	H 	0.8304	0.9581	0.7795	0.277
Mof_H 	H 	0.8026	0.944	0.8393	0.281
Mof_C 	C 	0.6253	0.6392	0.9357	-0.78
Mof_H 	H 	0.6523	0.6492	0.9167	0.23
Mof_H 	H 	0.6299	0.6338	0.9806	0.22
Mof_H 	H 	0.6161	0.6124	0.9153	0.233
Mof_C 	C 	0.5465	0.6386	0.6996	-0.392
Mof_H 	H 	0.5639	0.6129	0.6908	0.129
Mof_H 	H 	0.5167	0.63	0.7085	0.113
Mof_H 	H 	0.547	0.6578	0.663	0.126
Mof_C 	C 	0.6126	0.9248	0.0095	-0.051
Mof_H 	H 	0.5863	0.9262	0.9824	0.004
Mof_C 	C 	0.6219	0.8895	0.0487	-0.307
Mof_C 	C 	0.669	0.9486	0.0535	-0.125
Mof_C 	C 	0.7347	0.8045	0.8132	0.039
Mof_C 	C 	0.5903	0.6738	0.9274	0.532
Mof_C 	C 	0.6137	0.7176	0.6957	-0.408
Mof_H 	H 	0.6429	0.7064	0.6892	0.143
Mof_H 	H 	0.5957	0.7105	0.6593	0.13
Mof_H 	H 	0.6148	0.749	0.701	0.125
Mof_C 	C 	0.7537	0.9343	0.7361	-0.906
Mof_H 	H 	0.736	0.9169	0.7075	0.282
Mof_H 	H 	0.7357	0.9445	0.7711	0.236
Mof_H 	H 	0.7655	0.9592	0.7135	0.271
Mof_C 	C 	0.8174	0.8894	0.7088	-0.956
Mof_H 	H 	0.8419	0.8734	0.7261	0.303
Mof_H 	H 	0.7998	0.87	0.6829	0.285
Mof_H 	H 	0.828	0.9133	0.6829	0.277
Mof_C 	C 	0.7903	0.907	0.7615	0.663
Mof_C 	C 	0.7359	0.8433	0.7785	-0.127
Mof_H 	H 	0.7158	0.8507	0.7433	0.039
Mof_C 	C 	0.7032	0.7672	0.8058	-0.422
Mof_H 	H 	0.7158	0.7452	0.7783	0.144
Mof_H 	H 	0.6972	0.7545	0.8471	0.152
Mof_H 	H 	0.6762	0.7778	0.7874	0.133
Mof_C 	C 	0.5732	0.8391	0.0194	-1.289
Mof_H 	H 	0.5649	0.8637	0.9931	0.377
Mof_H 	H 	0.5914	0.8194	0.995	0.396
Mof_H 	H 	0.5472	0.8239	0.0335	0.365
Mof_C 	C 	0.596	0.8538	0.071	0.807
Mof_C 	C 	0.6386	0.0038	0.976	-0.303
Mof_H 	H 	0.6213	0.0245	0.0001	0.088
Mof_H 	H 	0.668	0.0151	0.9708	0.053
Mof_H 	H 	0.6255	0.9995	0.9346	0.053
Mof_C 	C 	0.6405	0.9571	0.0139	-0.015
Mof_C 	C 	0.6298	0.8229	0.1121	-0.861
Mof_H 	H 	0.6334	0.7951	0.0907	0.246
Mof_H 	H 	0.6578	0.8373	0.1155	0.244
Mof_H 	H 	0.618	0.818	0.1542	0.236
Mof_Mo	Mo	0.64568	0.07288	0.72535	0.645
Mof_Mo	Mo	0.47168	0.21753	0.55358	0.656
Mof_Mo	Mo	0.61149	0.02495	0.63317	0.698
Mof_Cu	Cu	0.68414	0.13389	0.53884	0.778
Mof_Cu	Cu	0.60526	0.16526	0.57535	0.769
Mof_I 	I 	0.67932	0.20752	0.60035	-0.585
Mof_I 	I 	0.61554	0.13145	0.46237	-0.531
Mof_P 	P 	0.66695	0.08187	0.61293	-0.604
Mof_P 	P 	0.54771	0.20868	0.57475	-0.276
Mof_P 	P 	0.60257	0.10446	0.63921	-0.021
Mof_P 	P 	0.62388	0.99753	0.7389	-0.276
Mof_P 	P 	0.48	0.2675	0.4662	0.062
Mof_P 	P 	0.5328	0.2219	0.4694	-0.197
Mof_P 	P 	0.57074	0.04168	0.7331	1.631
Mof_P 	P 	0.6831	0.007	0.6825	-2.378
Mof_S 	S 	0.51181	0.24198	0.6497	-0.182
Mof_S 	S 	0.5702	0.0625	0.7087	-2.124
Mof_S 	S 	0.68696	0.0245	0.6615	2.439
Mof_C 	C 	0.4659	0.1458	0.7077	-0.857
Mof_H 	H 	0.4864	0.1699	0.7068	0.252
Mof_H 	H 	0.4605	0.1373	0.7513	0.246
Mof_H 	H 	0.478	0.1213	0.6846	0.278
Mof_C 	C 	0.4115	0.1855	0.5046	0.011
Mof_C 	C 	0.4571	0.1453	0.5672	-0.128
Mof_H 	H 	0.4787	0.1233	0.5809	0.035
Mof_C 	C 	0.5943	0.9566	0.5951	-0.097
Mof_H 	H 	0.6024	0.9286	0.6154	0.04
Mof_C 	C 	0.6579	0.0858	0.8304	-0.057
Mof_H 	H 	0.6458	0.0697	0.8671	-0.016
Mof_C 	C 	0.6191	0.1861	0.8706	-0.998
Mof_H 	H 	0.6389	0.2069	0.8513	0.291
Mof_H 	H 	0.5942	0.2014	0.8881	0.271
Mof_H 	H 	0.6341	0.1705	0.9042	0.287
Mof_C 	C 	0.5546	0.9792	0.6043	-0.03
Mof_C 	C 	0.5187	0.9648	0.6481	-0.333
Mof_H 	H 	0.4951	0.9523	0.6235	0.111
Mof_H 	H 	0.5299	0.9431	0.6774	0.08
Mof_H 	H 	0.508	0.9897	0.6718	0.088
Mof_C 	C 	0.4475	0.1553	0.5034	0.001
Mof_C 	C 	0.4018	0.1927	0.5682	-0.134
Mof_H 	H 	0.3774	0.211	0.5833	0.045
Mof_C 	C 	0.428	0.1666	0.6078	-0.177
Mof_C 	C 	0.6178	0.9773	0.5461	-0.233
Mof_C 	C 	0.4046	0.2004	0.7104	-0.773
Mof_H 	H 	0.4251	0.2244	0.707	0.222
Mof_H 	H 	0.3774	0.2083	0.6902	0.235
Mof_H 	H 	0.3994	0.1939	0.7548	0.21
Mof_C 	C 	0.6835	0.9308	0.5532	-0.966
Mof_H 	H 	0.6656	0.9068	0.5679	0.3
Mof_H 	H 	0.7081	0.9196	0.5295	0.277
Mof_H 	H 	0.694	0.9474	0.5893	0.281
Mof_C 	C 	0.3892	0.1247	0.6857	-0.78
Mof_H 	H 	0.3992	0.0977	0.6667	0.23
Mof_H 	H 	0.3838	0.1201	0.7306	0.22
Mof_H 	H 	0.3624	0.1339	0.6653	0.233
Mof_C 	C 	0.3886	0.2035	0.4496	-0.392
Mof_H 	H 	0.3629	0.1861	0.4408	0.129
Mof_H 	H 	0.38	0.2333	0.4585	0.113
Mof_H 	H 	0.4078	0.203	0.413	0.126
Mof_C 	C 	0.6748	0.1374	0.7595	-0.052
Mof_H 	H 	0.6762	0.1637	0.7324	0.005
Mof_C 	C 	0.6395	0.1281	0.7987	-0.307
Mof_C 	C 	0.6986	0.081	0.8035	-0.126
Mof_C 	C 	0.5545	0.0153	0.5632	0.039
Mof_C 	C 	0.4238	0.1597	0.6774	0.532
Mof_C 	C 	0.4676	0.1363	0.4457	-0.408
Mof_H 	H 	0.4564	0.1071	0.4392	0.143
Mof_H 	H 	0.4605	0.1543	0.4093	0.13
Mof_H 	H 	0.499	0.1352	0.451	0.125
Mof_C 	C 	0.6843	0.9963	0.4861	-0.906
Mof_H 	H 	0.6669	0.014	0.4575	0.282
Mof_H 	H 	0.6945	0.0143	0.5211	0.236
Mof_H 	H 	0.7092	0.9845	0.4635	0.271
Mof_C 	C 	0.6394	0.9326	0.4588	-0.957
Mof_H 	H 	0.6234	0.9081	0.4761	0.304
Mof_H 	H 	0.62	0.9502	0.4329	0.285
Mof_H 	H 	0.6633	0.922	0.4329	0.277
Mof_C 	C 	0.657	0.9597	0.5115	0.663
Mof_C 	C 	0.5933	0.0141	0.5285	-0.127
Mof_H 	H 	0.6007	0.0342	0.4933	0.039
Mof_C 	C 	0.5172	0.0468	0.5558	-0.422
Mof_H 	H 	0.4952	0.0342	0.5283	0.144
Mof_H 	H 	0.5045	0.0528	0.5971	0.152
Mof_H 	H 	0.5278	0.0738	0.5374	0.133
Mof_C 	C 	0.5891	0.1768	0.7694	-1.292
Mof_H 	H 	0.6137	0.1851	0.7431	0.377
Mof_H 	H 	0.5694	0.1586	0.745	0.397
Mof_H 	H 	0.5739	0.2028	0.7835	0.366
Mof_C 	C 	0.6038	0.154	0.821	0.808
Mof_C 	C 	0.7538	0.1114	0.726	-0.305
Mof_H 	H 	0.7745	0.1287	0.7501	0.089
Mof_H 	H 	0.7651	0.082	0.7208	0.053
Mof_H 	H 	0.7495	0.1245	0.6846	0.054
Mof_C 	C 	0.7071	0.1095	0.7639	-0.014
Mof_C 	C 	0.5729	0.1202	0.8621	-0.862
Mof_H 	H 	0.5451	0.1166	0.8407	0.246
Mof_H 	H 	0.5873	0.0922	0.8655	0.244
Mof_H 	H 	0.568	0.132	0.9042	0.236
Mof_Mo	Mo	0.14568	0.57288	0.22535	0.645
Mof_Mo	Mo	0.97168	0.71753	0.05358	0.656
Mof_Mo	Mo	0.11149	0.52495	0.13317	0.698
Mof_Cu	Cu	0.18414	0.63389	0.03884	0.778
Mof_Cu	Cu	0.10526	0.66526	0.07535	0.769
Mof_I 	I 	0.17932	0.70752	0.10035	-0.585
Mof_I 	I 	0.11554	0.63145	0.96237	-0.531
Mof_P 	P 	0.16695	0.58187	0.11293	-0.604
Mof_P 	P 	0.04771	0.70868	0.07475	-0.276
Mof_P 	P 	0.10257	0.60446	0.13921	-0.021
Mof_P 	P 	0.12388	0.49753	0.2389	-0.276
Mof_P 	P 	0.98	0.7675	0.9662	0.062
Mof_P 	P 	0.0328	0.7219	0.9694	-0.197
Mof_P 	P 	0.07074	0.54168	0.2331	1.631
Mof_P 	P 	0.1831	0.507	0.1825	-2.377
Mof_S 	S 	0.01181	0.74198	0.1497	-0.181
Mof_S 	S 	0.0702	0.5625	0.2087	-2.124
Mof_S 	S 	0.18696	0.5245	0.1615	2.438
Mof_C 	C 	0.9659	0.6458	0.2077	-0.857
Mof_H 	H 	0.9864	0.6699	0.2068	0.252
Mof_H 	H 	0.9605	0.6373	0.2513	0.246
Mof_H 	H 	0.978	0.6213	0.1846	0.278
Mof_C 	C 	0.9115	0.6855	0.0046	0.011
Mof_C 	C 	0.9571	0.6453	0.0672	-0.128
Mof_H 	H 	0.9787	0.6233	0.0809	0.035
Mof_C 	C 	0.0943	0.4566	0.0951	-0.097
Mof_H 	H 	0.1024	0.4286	0.1154	0.04
Mof_C 	C 	0.1579	0.5858	0.3304	-0.057
Mof_H 	H 	0.1458	0.5697	0.3671	-0.016
Mof_C 	C 	0.1191	0.6861	0.3706	-0.997
Mof_H 	H 	0.1389	0.7069	0.3513	0.291
Mof_H 	H 	0.0942	0.7014	0.3881	0.27
Mof_H 	H 	0.1341	0.6705	0.4042	0.287
Mof_C 	C 	0.0546	0.4792	0.1043	-0.03
Mof_C 	C 	0.0187	0.4648	0.1481	-0.333
Mof_H 	H 	0.9951	0.4523	0.1235	0.111
Mof_H 	H 	0.0299	0.4431	0.1774	0.08
Mof_H 	H 	0.008	0.4897	0.1718	0.088
Mof_C 	C 	0.9475	0.6553	0.0034	0.001
Mof_C 	C 	0.9018	0.6927	0.0682	-0.134
Mof_H 	H 	0.8774	0.711	0.0833	0.045
Mof_C 	C 	0.928	0.6666	0.1078	-0.177
Mof_C 	C 	0.1178	0.4773	0.0461	-0.233
Mof_C 	C 	0.9046	0.7004	0.2104	-0.773
Mof_H 	H 	0.9251	0.7244	0.207	0.222
Mof_H 	H 	0.8774	0.7083	0.1902	0.235
Mof_H 	H 	0.8994	0.6939	0.2548	0.21
Mof_C 	C 	0.1835	0.4308	0.0532	-0.966
Mof_H 	H 	0.1656	0.4068	0.0679	0.3
Mof_H 	H 	0.2081	0.4196	0.0295	0.277
Mof_H 	H 	0.194	0.4474	0.0893	0.281
Mof_C 	C 	0.8892	0.6247	0.1857	-0.78
Mof_H 	H 	0.8992	0.5977	0.1667	0.23
Mof_H 	H 	0.8838	0.6201	0.2306	0.22
Mof_H 	H 	0.8624	0.6339	0.1653	0.233
Mof_C 	C 	0.8886	0.7035	0.9496	-0.393
Mof_H 	H 	0.8629	0.6861	0.9408	0.129
Mof_H 	H 	0.88	0.7333	0.9585	0.113
Mof_H 	H 	0.9078	0.703	0.913	0.126
Mof_C 	C 	0.1748	0.6374	0.2595	-0.052
Mof_H 	H 	0.1762	0.6637	0.2324	0.005
Mof_C 	C 	0.1395	0.6281	0.2987	-0.307
Mof_C 	C 	0.1986	0.581	0.3035	-0.126
Mof_C 	C 	0.0545	0.5153	0.0632	0.039
Mof_C 	C 	0.9238	0.6597	0.1774	0.532
Mof_C 	C 	0.9676	0.6363	0.9457	-0.408
Mof_H 	H 	0.9564	0.6071	0.9392	0.143
Mof_H 	H 	0.9605	0.6543	0.9093	0.13
Mof_H 	H 	0.999	0.6352	0.951	0.125
Mof_C 	C 	0.1843	0.4963	0.9861	-0.906
Mof_H 	H 	0.1669	0.514	0.9575	0.282
Mof_H 	H 	0.1945	0.5143	0.0211	0.236
Mof_H 	H 	0.2092	0.4845	0.9635	0.271
Mof_C 	C 	0.1394	0.4326	0.9588	-0.956
Mof_H 	H 	0.1234	0.4081	0.9761	0.304
Mof_H 	H 	0.12	0.4502	0.9329	0.285
Mof_H 	H 	0.1633	0.422	0.9329	0.277
Mof_C 	C 	0.157	0.4597	0.0115	0.663
Mof_C 	C 	0.0933	0.5141	0.0285	-0.127
Mof_H 	H 	0.1007	0.5342	0.9933	0.039
Mof_C 	C 	0.0172	0.5468	0.0558	-0.422
Mof_H 	H 	0.9952	0.5342	0.0283	0.144
Mof_H 	H 	0.0045	0.5528	0.0971	0.152
Mof_H 	H 	0.0278	0.5738	0.0374	0.133
Mof_C 	C 	0.0891	0.6768	0.2694	-1.292
Mof_H 	H 	0.1137	0.6851	0.2431	0.377
Mof_H 	H 	0.0694	0.6586	0.245	0.397
Mof_H 	H 	0.0739	0.7028	0.2835	0.366
Mof_C 	C 	0.1038	0.654	0.321	0.808
Mof_C 	C 	0.2538	0.6114	0.226	-0.305
Mof_H 	H 	0.2745	0.6287	0.2501	0.089
Mof_H 	H 	0.2651	0.582	0.2208	0.053
Mof_H 	H 	0.2495	0.6245	0.1846	0.054
Mof_C 	C 	0.2071	0.6095	0.2639	-0.014
Mof_C 	C 	0.0729	0.6202	0.3621	-0.862
Mof_H 	H 	0.0451	0.6166	0.3407	0.246
Mof_H 	H 	0.0873	0.5922	0.3655	0.244
Mof_H 	H 	0.068	0.632	0.4042	0.236
Mof_Mo	Mo	0.85432	0.92712	0.22535	0.645
Mof_Mo	Mo	0.02832	0.78247	0.05358	0.656
Mof_Mo	Mo	0.88851	0.97505	0.13317	0.698
Mof_Cu	Cu	0.81586	0.86611	0.03884	0.778
Mof_Cu	Cu	0.89474	0.83474	0.07535	0.769
Mof_I 	I 	0.82068	0.79248	0.10035	-0.585
Mof_I 	I 	0.88446	0.86855	0.96237	-0.531
Mof_P 	P 	0.83305	0.91813	0.11293	-0.604
Mof_P 	P 	0.95229	0.79132	0.07475	-0.276
Mof_P 	P 	0.89743	0.89554	0.13921	-0.021
Mof_P 	P 	0.87612	0.00247	0.2389	-0.276
Mof_P 	P 	0.02	0.7325	0.9662	0.062
Mof_P 	P 	0.9672	0.7781	0.9694	-0.197
Mof_P 	P 	0.92926	0.95832	0.2331	1.631
Mof_P 	P 	0.8169	0.993	0.1825	-2.377
Mof_S 	S 	0.98819	0.75802	0.1497	-0.184
Mof_S 	S 	0.9298	0.9375	0.2087	-2.124
Mof_S 	S 	0.81304	0.9755	0.1615	2.438
Mof_C 	C 	0.0341	0.8542	0.2077	-0.857
Mof_H 	H 	0.0136	0.8301	0.2068	0.252
Mof_H 	H 	0.0395	0.8627	0.2513	0.246
Mof_H 	H 	0.022	0.8787	0.1846	0.278
Mof_C 	C 	0.0885	0.8145	0.0046	0.011
Mof_C 	C 	0.0429	0.8547	0.0672	-0.128
Mof_H 	H 	0.0213	0.8767	0.0809	0.035
Mof_C 	C 	0.9057	0.0434	0.0951	-0.097
Mof_H 	H 	0.8976	0.0714	0.1154	0.04
Mof_C 	C 	0.8421	0.9142	0.3304	-0.057
Mof_H 	H 	0.8542	0.9303	0.3671	-0.016
Mof_C 	C 	0.8809	0.8139	0.3706	-0.997
Mof_H 	H 	0.8611	0.7931	0.3513	0.291
Mof_H 	H 	0.9058	0.7986	0.3881	0.27
Mof_H 	H 	0.8659	0.8295	0.4042	0.287
Mof_C 	C 	0.9454	0.0208	0.1043	-0.03
Mof_C 	C 	0.9813	0.0352	0.1481	-0.332
Mof_H 	H 	0.0049	0.0477	0.1235	0.111
Mof_H 	H 	0.9701	0.0569	0.1774	0.08
Mof_H 	H 	0.992	0.0103	0.1718	0.088
Mof_C 	C 	0.0525	0.8447	0.0034	0.001
Mof_C 	C 	0.0982	0.8073	0.0682	-0.134
Mof_H 	H 	0.1226	0.789	0.0833	0.045
Mof_C 	C 	0.072	0.8334	0.1078	-0.177
Mof_C 	C 	0.8822	0.0227	0.0461	-0.232
Mof_C 	C 	0.0954	0.7996	0.2104	-0.773
Mof_H 	H 	0.0749	0.7756	0.207	0.222
Mof_H 	H 	0.1226	0.7917	0.1902	0.235
Mof_H 	H 	0.1006	0.8061	0.2548	0.21
Mof_C 	C 	0.8165	0.0692	0.0532	-0.964
Mof_H 	H 	0.8344	0.0932	0.0679	0.3
Mof_H 	H 	0.7919	0.0804	0.0295	0.277
Mof_H 	H 	0.806	0.0526	0.0893	0.281
Mof_C 	C 	0.1108	0.8753	0.1857	-0.78
Mof_H 	H 	0.1008	0.9023	0.1667	0.23
Mof_H 	H 	0.1162	0.8799	0.2306	0.22
Mof_H 	H 	0.1376	0.8661	0.1653	0.233
Mof_C 	C 	0.1114	0.7965	0.9496	-0.393
Mof_H 	H 	0.1371	0.8139	0.9408	0.129
Mof_H 	H 	0.12	0.7667	0.9585	0.113
Mof_H 	H 	0.0922	0.797	0.913	0.126
Mof_C 	C 	0.8252	0.8626	0.2595	-0.052
Mof_H 	H 	0.8238	0.8363	0.2324	0.005
Mof_C 	C 	0.8605	0.8719	0.2987	-0.307
Mof_C 	C 	0.8014	0.919	0.3035	-0.126
Mof_C 	C 	0.9455	0.9847	0.0632	0.039
Mof_C 	C 	0.0762	0.8403	0.1774	0.532
Mof_C 	C 	0.0324	0.8637	0.9457	-0.408
Mof_H 	H 	0.0436	0.8929	0.9392	0.143
Mof_H 	H 	0.0395	0.8457	0.9093	0.13
Mof_H 	H 	0.001	0.8648	0.951	0.125
Mof_C 	C 	0.8157	0.0037	0.9861	-0.902
Mof_H 	H 	0.8331	0.986	0.9575	0.281
Mof_H 	H 	0.8055	0.9857	0.0211	0.235
Mof_H 	H 	0.7908	0.0155	0.9635	0.27
Mof_C 	C 	0.8606	0.0674	0.9588	-0.955
Mof_H 	H 	0.8766	0.0919	0.9761	0.303
Mof_H 	H 	0.88	0.0498	0.9329	0.284
Mof_H 	H 	0.8367	0.078	0.9329	0.277
Mof_C 	C 	0.843	0.0403	0.0115	0.661
Mof_C 	C 	0.9067	0.9859	0.0285	-0.127
Mof_H 	H 	0.8993	0.9658	0.9933	0.039
Mof_C 	C 	0.9828	0.9532	0.0558	-0.423
Mof_H 	H 	0.0048	0.9658	0.0283	0.145
Mof_H 	H 	0.9955	0.9472	0.0971	0.152
Mof_H 	H 	0.9722	0.9262	0.0374	0.133
Mof_C 	C 	0.9109	0.8232	0.2694	-1.292
Mof_H 	H 	0.8863	0.8149	0.2431	0.377
Mof_H 	H 	0.9306	0.8414	0.245	0.397
Mof_H 	H 	0.9261	0.7972	0.2835	0.366
Mof_C 	C 	0.8962	0.846	0.321	0.808
Mof_C 	C 	0.7462	0.8886	0.226	-0.305
Mof_H 	H 	0.7255	0.8713	0.2501	0.089
Mof_H 	H 	0.7349	0.918	0.2208	0.054
Mof_H 	H 	0.7505	0.8755	0.1846	0.054
Mof_C 	C 	0.7929	0.8905	0.2639	-0.014
Mof_C 	C 	0.9271	0.8798	0.3621	-0.862
Mof_H 	H 	0.9549	0.8834	0.3407	0.246
Mof_H 	H 	0.9127	0.9078	0.3655	0.244
Mof_H 	H 	0.932	0.868	0.4042	0.236
Mof_Mo	Mo	0.35432	0.42712	0.72535	0.645
Mof_Mo	Mo	0.52832	0.28247	0.55358	0.656
Mof_Mo	Mo	0.38851	0.47505	0.63317	0.698
Mof_Cu	Cu	0.31586	0.36611	0.53884	0.778
Mof_Cu	Cu	0.39474	0.33474	0.57535	0.769
Mof_I 	I 	0.32068	0.29248	0.60035	-0.585
Mof_I 	I 	0.38446	0.36855	0.46237	-0.531
Mof_P 	P 	0.33305	0.41813	0.61293	-0.604
Mof_P 	P 	0.45229	0.29132	0.57475	-0.276
Mof_P 	P 	0.39743	0.39554	0.63921	-0.021
Mof_P 	P 	0.37612	0.50247	0.7389	-0.276
Mof_P 	P 	0.52	0.2325	0.4662	0.062
Mof_P 	P 	0.4672	0.2781	0.4694	-0.197
Mof_P 	P 	0.42926	0.45832	0.7331	1.631
Mof_P 	P 	0.3169	0.493	0.6825	-2.377
Mof_S 	S 	0.48819	0.25802	0.6497	-0.182
Mof_S 	S 	0.4298	0.4375	0.7087	-2.124
Mof_S 	S 	0.31304	0.4755	0.6615	2.438
Mof_C 	C 	0.5341	0.3542	0.7077	-0.857
Mof_H 	H 	0.5136	0.3301	0.7068	0.252
Mof_H 	H 	0.5395	0.3627	0.7513	0.246
Mof_H 	H 	0.522	0.3787	0.6846	0.278
Mof_C 	C 	0.5885	0.3145	0.5046	0.011
Mof_C 	C 	0.5429	0.3547	0.5672	-0.128
Mof_H 	H 	0.5213	0.3767	0.5809	0.035
Mof_C 	C 	0.4057	0.5434	0.5951	-0.097
Mof_H 	H 	0.3976	0.5714	0.6154	0.04
Mof_C 	C 	0.3421	0.4142	0.8304	-0.057
Mof_H 	H 	0.3542	0.4303	0.8671	-0.016
Mof_C 	C 	0.3809	0.3139	0.8706	-0.998
Mof_H 	H 	0.3611	0.2931	0.8513	0.291
Mof_H 	H 	0.4058	0.2986	0.8881	0.27
Mof_H 	H 	0.3659	0.3295	0.9042	0.287
Mof_C 	C 	0.4454	0.5208	0.6043	-0.03
Mof_C 	C 	0.4813	0.5352	0.6481	-0.333
Mof_H 	H 	0.5049	0.5477	0.6235	0.111
Mof_H 	H 	0.4701	0.5569	0.6774	0.08
Mof_H 	H 	0.492	0.5103	0.6718	0.088
Mof_C 	C 	0.5525	0.3447	0.5034	0.001
Mof_C 	C 	0.5982	0.3073	0.5682	-0.134
Mof_H 	H 	0.6226	0.289	0.5833	0.045
Mof_C 	C 	0.572	0.3334	0.6078	-0.177
Mof_C 	C 	0.3822	0.5227	0.5461	-0.233
Mof_C 	C 	0.5954	0.2996	0.7104	-0.773
Mof_H 	H 	0.5749	0.2756	0.707	0.222
Mof_H 	H 	0.6226	0.2917	0.6902	0.235
Mof_H 	H 	0.6006	0.3061	0.7548	0.21
Mof_C 	C 	0.3165	0.5692	0.5532	-0.966
Mof_H 	H 	0.3344	0.5932	0.5679	0.3
Mof_H 	H 	0.2919	0.5804	0.5295	0.277
Mof_H 	H 	0.306	0.5526	0.5893	0.281
Mof_C 	C 	0.6108	0.3753	0.6857	-0.78
Mof_H 	H 	0.6008	0.4023	0.6667	0.23
Mof_H 	H 	0.6162	0.3799	0.7306	0.22
Mof_H 	H 	0.6376	0.3661	0.6653	0.233
Mof_C 	C 	0.6114	0.2965	0.4496	-0.392
Mof_H 	H 	0.6371	0.3139	0.4408	0.129
Mof_H 	H 	0.62	0.2667	0.4585	0.113
Mof_H 	H 	0.5922	0.297	0.413	0.126
Mof_C 	C 	0.3252	0.3626	0.7595	-0.052
Mof_H 	H 	0.3238	0.3363	0.7324	0.005
Mof_C 	C 	0.3605	0.3719	0.7987	-0.307
Mof_C 	C 	0.3014	0.419	0.8035	-0.126
Mof_C 	C 	0.4455	0.4847	0.5632	0.039
Mof_C 	C 	0.5762	0.3403	0.6774	0.532
Mof_C 	C 	0.5324	0.3637	0.4457	-0.408
Mof_H 	H 	0.5436	0.3929	0.4392	0.143
Mof_H 	H 	0.5395	0.3457	0.4093	0.13
Mof_H 	H 	0.501	0.3648	0.451	0.125
Mof_C 	C 	0.3157	0.5037	0.4861	-0.906
Mof_H 	H 	0.3331	0.486	0.4575	0.282
Mof_H 	H 	0.3055	0.4857	0.5211	0.236
Mof_H 	H 	0.2908	0.5155	0.4635	0.271
Mof_C 	C 	0.3606	0.5674	0.4588	-0.956
Mof_H 	H 	0.3766	0.5919	0.4761	0.304
Mof_H 	H 	0.38	0.5498	0.4329	0.285
Mof_H 	H 	0.3367	0.578	0.4329	0.277
Mof_C 	C 	0.343	0.5403	0.5115	0.663
Mof_C 	C 	0.4067	0.4859	0.5285	-0.127
Mof_H 	H 	0.3993	0.4658	0.4933	0.039
Mof_C 	C 	0.4828	0.4532	0.5558	-0.422
Mof_H 	H 	0.5048	0.4658	0.5283	0.144
Mof_H 	H 	0.4955	0.4472	0.5971	0.152
Mof_H 	H 	0.4722	0.4262	0.5374	0.133
Mof_C 	C 	0.4109	0.3232	0.7694	-1.292
Mof_H 	H 	0.3863	0.3149	0.7431	0.377
Mof_H 	H 	0.4306	0.3414	0.745	0.397
Mof_H 	H 	0.4261	0.2972	0.7835	0.366
Mof_C 	C 	0.3962	0.346	0.821	0.808
Mof_C 	C 	0.2462	0.3886	0.726	-0.305
Mof_H 	H 	0.2255	0.3713	0.7501	0.089
Mof_H 	H 	0.2349	0.418	0.7208	0.053
Mof_H 	H 	0.2505	0.3755	0.6846	0.054
Mof_C 	C 	0.2929	0.3905	0.7639	-0.014
Mof_C 	C 	0.4271	0.3798	0.8621	-0.862
Mof_H 	H 	0.4549	0.3834	0.8407	0.246
Mof_H 	H 	0.4127	0.4078	0.8655	0.244
Mof_H 	H 	0.432	0.368	0.9042	0.236
_end
