# CIF file generated by openbabel 3.1.0, see https://openbabel.org
data_I
_chemical_name_common 'image0'
_cell_length_a 10.12
_cell_length_b 21.934
_cell_length_c 15.818
_cell_angle_alpha 90
_cell_angle_beta 105.43
_cell_angle_gamma 90
_space_group_name_H-M_alt 'P 1'
_space_group_name_Hall 'P 1'
loop_
    _symmetry_equiv_pos_as_xyz
    x,y,z
loop_
    _atom_site_label
    _atom_site_type_symbol
    _atom_site_fract_x
    _atom_site_fract_y
    _atom_site_fract_z
    _atom_site_occupancy
    C1       C        0.82230    0.24530    0.38120    1.000
    C2       C        0.93620    0.28420    0.41760    1.000
    C3       C        0.06900    0.25770    0.43180    1.000
    H1       H        0.14590    0.28100    0.45780    1.000
    C4       C        0.08610    0.19910    0.40810    1.000
    H2       H        0.17430    0.18350    0.41780    1.000
    C5       C        0.97520    0.16230    0.37010    1.000
    C6       C        0.84130    0.18650    0.35730    1.000
    H3       H        0.76560    0.16230    0.33240    1.000
    C7       C        0.68140    0.27370    0.37040    1.000
    H4       H        0.67090    0.28370    0.42800    1.000
    H5       H        0.67680    0.31150    0.33790    1.000
    C8       C        0.43540    0.26720    0.31750    1.000
    H6       H        0.43830    0.30660    0.29010    1.000
    H7       H        0.42350    0.27410    0.37560    1.000
    C9       C        0.31560    0.23070    0.26360    1.000
    H8       H        0.29980    0.19590    0.29740    1.000
    H9       H        0.33770    0.21550    0.21140    1.000
    N1       N        0.56630    0.23450    0.32490    1.000
    O1       O        0.92110    0.34100    0.43670    1.000
    O2       O        0.10160    0.08970    0.28810    1.000
    O3       O        0.05690    0.05400    0.42110    1.000
    O4       O        0.87100    0.06290    0.28990    1.000
    S1       S        0.00235    0.08753    0.34022    1.000
    K1       K        0.83862    0.96762    0.40370    1.000
    H10      H        0.56100    0.19820    0.34200    1.000
    H11      H        0.81100    0.08200    0.52600    1.000
    C10      C        0.32230    0.74530    0.88120    1.000
    C11      C        0.43620    0.78420    0.91760    1.000
    C12      C        0.56900    0.75770    0.93180    1.000
    H12      H        0.64590    0.78100    0.95780    1.000
    C13      C        0.58610    0.69910    0.90810    1.000
    H13      H        0.67430    0.68350    0.91780    1.000
    C14      C        0.47520    0.66230    0.87010    1.000
    C15      C        0.34130    0.68650    0.85730    1.000
    H14      H        0.26560    0.66230    0.83240    1.000
    C16      C        0.18140    0.77370    0.87040    1.000
    H15      H        0.17090    0.78370    0.92800    1.000
    H16      H        0.17680    0.81150    0.83790    1.000
    C17      C        0.93540    0.76720    0.81750    1.000
    H17      H        0.93830    0.80660    0.79010    1.000
    H18      H        0.92350    0.77410    0.87560    1.000
    C18      C        0.81560    0.73070    0.76360    1.000
    H19      H        0.79980    0.69590    0.79740    1.000
    H20      H        0.83770    0.71550    0.71140    1.000
    N2       N        0.06630    0.73450    0.82490    1.000
    O5       O        0.42110    0.84100    0.93670    1.000
    O6       O        0.60160    0.58970    0.78810    1.000
    O7       O        0.55690    0.55400    0.92110    1.000
    O8       O        0.37100    0.56290    0.78990    1.000
    S2       S        0.50235    0.58753    0.84022    1.000
    K2       K        0.33862    0.46762    0.90370    1.000
    H21      H        0.06100    0.69820    0.84200    1.000
    H22      H        0.31100    0.58200    0.02600    1.000
    C19      C        0.67770    0.24530    0.61880    1.000
    C20      C        0.56380    0.28420    0.58240    1.000
    C21      C        0.43100    0.25770    0.56820    1.000
    H23      H        0.35410    0.28100    0.54220    1.000
    C22      C        0.41390    0.19910    0.59190    1.000
    H24      H        0.32570    0.18350    0.58220    1.000
    C23      C        0.52480    0.16230    0.62990    1.000
    C24      C        0.65870    0.18650    0.64270    1.000
    H25      H        0.73440    0.16230    0.66760    1.000
    C25      C        0.81860    0.27370    0.62960    1.000
    H26      H        0.82910    0.28370    0.57200    1.000
    H27      H        0.82320    0.31150    0.66210    1.000
    C26      C        0.06460    0.26720    0.68250    1.000
    H28      H        0.06170    0.30660    0.70990    1.000
    H29      H        0.07650    0.27410    0.62440    1.000
    C27      C        0.18440    0.23070    0.73640    1.000
    H30      H        0.20020    0.19590    0.70260    1.000
    H31      H        0.16230    0.21550    0.78860    1.000
    N3       N        0.93370    0.23450    0.67510    1.000
    O9       O        0.57890    0.34100    0.56330    1.000
    O10      O        0.39840    0.08970    0.71190    1.000
    O11      O        0.44310    0.05400    0.57890    1.000
    O12      O        0.62900    0.06290    0.71010    1.000
    S3       S        0.49765    0.08753    0.65978    1.000
    K3       K        0.66138    0.96762    0.59630    1.000
    H32      H        0.93900    0.19820    0.65800    1.000
    H33      H        0.68900    0.08200    0.47400    1.000
    C28      C        0.17770    0.74530    0.11880    1.000
    C29      C        0.06380    0.78420    0.08240    1.000
    C30      C        0.93100    0.75770    0.06820    1.000
    H34      H        0.85410    0.78100    0.04220    1.000
    C31      C        0.91390    0.69910    0.09190    1.000
    H35      H        0.82570    0.68350    0.08220    1.000
    C32      C        0.02480    0.66230    0.12990    1.000
    C33      C        0.15870    0.68650    0.14270    1.000
    H36      H        0.23440    0.66230    0.16760    1.000
    C34      C        0.31860    0.77370    0.12960    1.000
    H37      H        0.32910    0.78370    0.07200    1.000
    H38      H        0.32320    0.81150    0.16210    1.000
    C35      C        0.56460    0.76720    0.18250    1.000
    H39      H        0.56170    0.80660    0.20990    1.000
    H40      H        0.57650    0.77410    0.12440    1.000
    C36      C        0.68440    0.73070    0.23640    1.000
    H41      H        0.70020    0.69590    0.20260    1.000
    H42      H        0.66230    0.71550    0.28860    1.000
    N4       N        0.43370    0.73450    0.17510    1.000
    O13      O        0.07890    0.84100    0.06330    1.000
    O14      O        0.89840    0.58970    0.21190    1.000
    O15      O        0.94310    0.55400    0.07890    1.000
    O16      O        0.12900    0.56290    0.21010    1.000
    S4       S        0.99765    0.58753    0.15978    1.000
    K4       K        0.16138    0.46762    0.09630    1.000
    H43      H        0.43900    0.69820    0.15800    1.000
    H44      H        0.18900    0.58200    0.97400    1.000
    C37      C        0.17770    0.75470    0.61880    1.000
    C38      C        0.06380    0.71580    0.58240    1.000
    C39      C        0.93100    0.74230    0.56820    1.000
    H45      H        0.85410    0.71900    0.54220    1.000
    C40      C        0.91390    0.80090    0.59190    1.000
    H46      H        0.82570    0.81650    0.58220    1.000
    C41      C        0.02480    0.83770    0.62990    1.000
    C42      C        0.15870    0.81350    0.64270    1.000
    H47      H        0.23440    0.83770    0.66760    1.000
    C43      C        0.31860    0.72630    0.62960    1.000
    H48      H        0.32910    0.71630    0.57200    1.000
    H49      H        0.32320    0.68850    0.66210    1.000
    C44      C        0.56460    0.73280    0.68250    1.000
    H50      H        0.56170    0.69340    0.70990    1.000
    H51      H        0.57650    0.72590    0.62440    1.000
    C45      C        0.68440    0.76930    0.73640    1.000
    H52      H        0.70020    0.80410    0.70260    1.000
    H53      H        0.66230    0.78450    0.78860    1.000
    N5       N        0.43370    0.76550    0.67510    1.000
    O17      O        0.07890    0.65900    0.56330    1.000
    O18      O        0.89840    0.91030    0.71190    1.000
    O19      O        0.94310    0.94600    0.57890    1.000
    O20      O        0.12900    0.93710    0.71010    1.000
    S5       S        0.99765    0.91247    0.65978    1.000
    K5       K        0.16138    0.03238    0.59630    1.000
    H54      H        0.43900    0.80180    0.65800    1.000
    H55      H        0.18900    0.91800    0.47400    1.000
    C46      C        0.67770    0.25470    0.11880    1.000
    C47      C        0.56380    0.21580    0.08240    1.000
    C48      C        0.43100    0.24230    0.06820    1.000
    H56      H        0.35410    0.21900    0.04220    1.000
    C49      C        0.41390    0.30090    0.09190    1.000
    H57      H        0.32570    0.31650    0.08220    1.000
    C50      C        0.52480    0.33770    0.12990    1.000
    C51      C        0.65870    0.31350    0.14270    1.000
    H58      H        0.73440    0.33770    0.16760    1.000
    C52      C        0.81860    0.22630    0.12960    1.000
    H59      H        0.82910    0.21630    0.07200    1.000
    H60      H        0.82320    0.18850    0.16210    1.000
    C53      C        0.06460    0.23280    0.18250    1.000
    H61      H        0.06170    0.19340    0.20990    1.000
    H62      H        0.07650    0.22590    0.12440    1.000
    C54      C        0.18440    0.26930    0.23640    1.000
    H63      H        0.20020    0.30410    0.20260    1.000
    H64      H        0.16230    0.28450    0.28860    1.000
    N6       N        0.93370    0.26550    0.17510    1.000
    O21      O        0.57890    0.15900    0.06330    1.000
    O22      O        0.39840    0.41030    0.21190    1.000
    O23      O        0.44310    0.44600    0.07890    1.000
    O24      O        0.62900    0.43710    0.21010    1.000
    S6       S        0.49765    0.41247    0.15978    1.000
    K6       K        0.66138    0.53238    0.09630    1.000
    H65      H        0.93900    0.30180    0.15800    1.000
    H66      H        0.68900    0.41800    0.97400    1.000
    C55      C        0.32230    0.75470    0.38120    1.000
    C56      C        0.43620    0.71580    0.41760    1.000
    C57      C        0.56900    0.74230    0.43180    1.000
    H67      H        0.64590    0.71900    0.45780    1.000
    C58      C        0.58610    0.80090    0.40810    1.000
    H68      H        0.67430    0.81650    0.41780    1.000
    C59      C        0.47520    0.83770    0.37010    1.000
    C60      C        0.34130    0.81350    0.35730    1.000
    H69      H        0.26560    0.83770    0.33240    1.000
    C61      C        0.18140    0.72630    0.37040    1.000
    H70      H        0.17090    0.71630    0.42800    1.000
    H71      H        0.17680    0.68850    0.33790    1.000
    C62      C        0.93540    0.73280    0.31750    1.000
    H72      H        0.93830    0.69340    0.29010    1.000
    H73      H        0.92350    0.72590    0.37560    1.000
    C63      C        0.81560    0.76930    0.26360    1.000
    H74      H        0.79980    0.80410    0.29740    1.000
    H75      H        0.83770    0.78450    0.21140    1.000
    N7       N        0.06630    0.76550    0.32490    1.000
    O25      O        0.42110    0.65900    0.43670    1.000
    O26      O        0.60160    0.91030    0.28810    1.000
    O27      O        0.55690    0.94600    0.42110    1.000
    O28      O        0.37100    0.93710    0.28990    1.000
    S7       S        0.50235    0.91247    0.34022    1.000
    K7       K        0.33862    0.03238    0.40370    1.000
    H76      H        0.06100    0.80180    0.34200    1.000
    H77      H        0.31100    0.91800    0.52600    1.000
    C64      C        0.82230    0.25470    0.88120    1.000
    C65      C        0.93620    0.21580    0.91760    1.000
    C66      C        0.06900    0.24230    0.93180    1.000
    H78      H        0.14590    0.21900    0.95780    1.000
    C67      C        0.08610    0.30090    0.90810    1.000
    H79      H        0.17430    0.31650    0.91780    1.000
    C68      C        0.97520    0.33770    0.87010    1.000
    C69      C        0.84130    0.31350    0.85730    1.000
    H80      H        0.76560    0.33770    0.83240    1.000
    C70      C        0.68140    0.22630    0.87040    1.000
    H81      H        0.67090    0.21630    0.92800    1.000
    H82      H        0.67680    0.18850    0.83790    1.000
    C71      C        0.43540    0.23280    0.81750    1.000
    H83      H        0.43830    0.19340    0.79010    1.000
    H84      H        0.42350    0.22590    0.87560    1.000
    C72      C        0.31560    0.26930    0.76360    1.000
    H85      H        0.29980    0.30410    0.79740    1.000
    H86      H        0.33770    0.28450    0.71140    1.000
    N8       N        0.56630    0.26550    0.82490    1.000
    O29      O        0.92110    0.15900    0.93670    1.000
    O30      O        0.10160    0.41030    0.78810    1.000
    O31      O        0.05690    0.44600    0.92110    1.000
    O32      O        0.87100    0.43710    0.78990    1.000
    S8       S        0.00235    0.41247    0.84022    1.000
    K8       K        0.83862    0.53238    0.90370    1.000
    H87      H        0.56100    0.30180    0.84200    1.000
    H88      H        0.81100    0.41800    0.02600    1.000
    O33      O        0.75000    0.05740    0.50000    1.000
    O34      O        0.25000    0.55740    0.00000    1.000
    O35      O        0.25000    0.94260    0.50000    1.000
    O36      O        0.75000    0.44260    0.00000    1.000
