data_functionalizedCrystal
_audit_creation_method	'EQeq! by Chris Wilmer'
_symmetry_space_group_name_H-M	'P1'
_symmetry_Int_Tables_number	1
_symmetry_cell_setting	triclinic
loop_
_symmetry_equiv_pos_as_xyz
  x,y,z
_cell_length_a	7.1054
_cell_length_b	18.2419
_cell_length_c	24.9477
_cell_angle_alpha	90
_cell_angle_beta	90
_cell_angle_gamma	99.522
loop_
_atom_site_label
_atom_site_type_symbol
_atom_site_fract_x
_atom_site_fract_y
_atom_site_fract_z
_atom_site_charge
Mof_Ce	Ce	0.77882	0.9838	0.59859	2.242
Mof_Ce	Ce	0.22118	0.0162	0.09859	2.285
Mof_Ce	Ce	0.22118	0.0162	0.40141	2.289
Mof_Ce	Ce	0.77882	0.9838	0.90141	2.231
Mof_Cu	Cu	0.25102	0.55361	0.68316	0.782
Mof_Cu	Cu	0.17371	0.43896	0.58014	0.802
Mof_Cu	Cu	0.37816	0.54422	0.49231	0.779
Mof_Cu	Cu	0.74898	0.44639	0.18316	0.771
Mof_Cu	Cu	0.82629	0.56104	0.08014	0.79
Mof_Cu	Cu	0.62184	0.45578	0.99231	0.771
Mof_Cu	Cu	0.74898	0.44639	0.31684	0.771
Mof_Cu	Cu	0.82629	0.56104	0.41986	0.79
Mof_Cu	Cu	0.62184	0.45578	0.50769	0.775
Mof_Cu	Cu	0.25102	0.55361	0.81684	0.781
Mof_Cu	Cu	0.17371	0.43896	0.91986	0.8
Mof_Cu	Cu	0.37816	0.54422	0.00769	0.781
Mof_Cu	Cu	0.23017	0.43386	0.75	0.766
Mof_Cu	Cu	0.76983	0.56614	0.25	0.752
Mof_H 	H 	0.2989	0.8273	0.659	0.035
Mof_H 	H 	0.4049	0.7172	0.6747	-0.005
Mof_H 	H 	0.8941	0.6061	0.6557	0.022
Mof_H 	H 	0.7748	0.713	0.6398	0.077
Mof_H 	H 	0.1942	0.2172	0.4654	0.021
Mof_H 	H 	0.1937	0.3399	0.4853	0.001
Mof_H 	H 	0.1126	0.2934	0.6366	0.015
Mof_H 	H 	0.0999	0.1692	0.6203	0.001
Mof_H 	H 	0.6948	0.1955	0.473	0.044
Mof_H 	H 	0.6795	0.3177	0.4543	-0.008
Mof_H 	H 	0.588	0.3582	0.6043	-0.004
Mof_H 	H 	0.61	0.2384	0.6277	0.069
Mof_H 	H 	0.7011	0.1727	0.159	0.006
Mof_H 	H 	0.5951	0.2828	0.1747	0.012
Mof_H 	H 	0.1059	0.3939	0.1557	0.029
Mof_H 	H 	0.2252	0.287	0.1398	0.043
Mof_H 	H 	0.8058	0.7828	0.9654	0.001
Mof_H 	H 	0.8063	0.6601	0.9853	-0.013
Mof_H 	H 	0.8874	0.7066	0.1366	0.008
Mof_H 	H 	0.9001	0.8308	0.1203	-0.009
Mof_H 	H 	0.3052	0.8045	0.973	0.013
Mof_H 	H 	0.3205	0.6823	0.9543	0.015
Mof_H 	H 	0.412	0.6418	0.1043	-0
Mof_H 	H 	0.39	0.7616	0.1277	0.063
Mof_H 	H 	0.7011	0.1727	0.341	0.006
Mof_H 	H 	0.5951	0.2828	0.3253	0.012
Mof_H 	H 	0.1059	0.3939	0.3443	0.03
Mof_H 	H 	0.2252	0.287	0.3602	0.043
Mof_H 	H 	0.8058	0.7828	0.5346	0.017
Mof_H 	H 	0.8063	0.6601	0.5147	-0.002
Mof_H 	H 	0.8874	0.7066	0.3634	0.007
Mof_H 	H 	0.9001	0.8308	0.3797	-0.006
Mof_H 	H 	0.3052	0.8045	0.527	0.049
Mof_H 	H 	0.3205	0.6823	0.5457	-0.005
Mof_H 	H 	0.412	0.6418	0.3957	-0.006
Mof_H 	H 	0.39	0.7616	0.3723	0.071
Mof_H 	H 	0.2989	0.8273	0.841	0.034
Mof_H 	H 	0.4049	0.7172	0.8253	-0.005
Mof_H 	H 	0.8941	0.6061	0.8443	0.022
Mof_H 	H 	0.7748	0.713	0.8602	0.077
Mof_H 	H 	0.1942	0.2172	0.0346	0.03
Mof_H 	H 	0.1937	0.3399	0.0147	0.01
Mof_H 	H 	0.1126	0.2934	0.8634	0.014
Mof_H 	H 	0.0999	0.1692	0.8797	0.003
Mof_H 	H 	0.6948	0.1955	0.027	0.065
Mof_H 	H 	0.6795	0.3177	0.0457	-0.02
Mof_H 	H 	0.588	0.3582	0.8957	-0.008
Mof_H 	H 	0.61	0.2384	0.8723	0.074
Mof_H 	H 	0.7654	0.2912	0.75	0.058
Mof_H 	H 	0.6173	0.3927	0.75	0.03
Mof_H 	H 	0.1196	0.2667	0.75	0.016
Mof_H 	H 	0.257	0.162	0.75	0.049
Mof_H 	H 	0.2346	0.7088	0.25	0.067
Mof_H 	H 	0.3827	0.6073	0.25	0.027
Mof_H 	H 	0.8804	0.7333	0.25	0.002
Mof_H 	H 	0.743	0.838	0.25	0.046
Mof_C 	C 	0.9465	0.8542	0.6376	0.251
Mof_C 	C 	0.0242	0.783	0.6486	0.02
Mof_C 	C 	0.2131	0.7829	0.6585	-0.087
Mof_C 	C 	0.2759	0.7162	0.6678	0.042
Mof_C 	C 	0.9769	0.6513	0.6567	0.012
Mof_C 	C 	0.9039	0.7152	0.6472	-0.106
Mof_C 	C 	0.1441	0.0976	0.5284	0.535
Mof_C 	C 	0.1469	0.1789	0.54057	-0.164
Mof_C 	C 	0.1756	0.2313	0.5005	0.03
Mof_C 	C 	0.1765	0.3051	0.5129	-0.016
Mof_C 	C 	0.1274	0.2778	0.6016	-0.008
Mof_C 	C 	0.1212	0.2031	0.5922	0.032
Mof_C 	C 	0.6725	0.1246	0.5671	0.308
Mof_C 	C 	0.6539	0.2031	0.5524	-0.034
Mof_C 	C 	0.6738	0.2278	0.5004	-0.06
Mof_C 	C 	0.6623	0.301	0.4894	0.028
Mof_C 	C 	0.6098	0.325	0.5777	0.031
Mof_C 	C 	0.6224	0.2532	0.592	-0.069
Mof_C 	C 	0.0535	0.1458	0.1376	0.37
Mof_C 	C 	0.9758	0.217	0.1486	-0.119
Mof_C 	C 	0.7869	0.2171	0.1585	-0.011
Mof_C 	C 	0.7241	0.2838	0.1678	-0.005
Mof_C 	C 	0.0231	0.3487	0.1567	0.007
Mof_C 	C 	0.0961	0.2848	0.1472	0.001
Mof_C 	C 	0.8559	0.9024	0.0284	0.554
Mof_C 	C 	0.8531	0.8211	0.04057	-0.185
Mof_C 	C 	0.8244	0.7687	0.0005	0.053
Mof_C 	C 	0.8235	0.6949	0.0129	-0.014
Mof_C 	C 	0.8726	0.7222	0.1016	-0.019
Mof_C 	C 	0.8788	0.7969	0.0922	0.039
Mof_C 	C 	0.3275	0.8754	0.0671	0.322
Mof_C 	C 	0.3461	0.7969	0.0524	-0.06
Mof_C 	C 	0.3262	0.7722	0.0004	0.019
Mof_C 	C 	0.3377	0.699	0.9894	-0.03
Mof_C 	C 	0.3902	0.675	0.0777	0.021
Mof_C 	C 	0.3776	0.7468	0.092	-0.043
Mof_C 	C 	0.0535	0.1458	0.3624	0.369
Mof_C 	C 	0.9758	0.217	0.3514	-0.119
Mof_C 	C 	0.7869	0.2171	0.3415	-0.011
Mof_C 	C 	0.7241	0.2838	0.3322	-0.005
Mof_C 	C 	0.0231	0.3487	0.3433	0.007
Mof_C 	C 	0.0961	0.2848	0.3528	0
Mof_C 	C 	0.8559	0.9024	0.4716	0.533
Mof_C 	C 	0.8531	0.8211	0.45943	-0.172
Mof_C 	C 	0.8244	0.7687	0.4995	0.027
Mof_C 	C 	0.8235	0.6949	0.4871	-0.023
Mof_C 	C 	0.8726	0.7222	0.3984	-0.015
Mof_C 	C 	0.8788	0.7969	0.4078	0.03
Mof_C 	C 	0.3275	0.8754	0.4329	0.31
Mof_C 	C 	0.3461	0.7969	0.4476	-0.026
Mof_C 	C 	0.3262	0.7722	0.4996	-0.059
Mof_C 	C 	0.3377	0.699	0.5106	0.034
Mof_C 	C 	0.3902	0.675	0.4223	0.037
Mof_C 	C 	0.3776	0.7468	0.408	-0.068
Mof_C 	C 	0.9465	0.8542	0.8624	0.252
Mof_C 	C 	0.0242	0.783	0.8514	0.018
Mof_C 	C 	0.2131	0.7829	0.8415	-0.086
Mof_C 	C 	0.2759	0.7162	0.8322	0.041
Mof_C 	C 	0.9769	0.6513	0.8433	0.011
Mof_C 	C 	0.9039	0.7152	0.8528	-0.105
Mof_C 	C 	0.1441	0.0976	0.9716	0.524
Mof_C 	C 	0.1469	0.1789	0.95943	-0.156
Mof_C 	C 	0.1756	0.2313	0.9995	0.016
Mof_C 	C 	0.1765	0.3051	0.9871	-0.026
Mof_C 	C 	0.1274	0.2778	0.8984	-0.006
Mof_C 	C 	0.1212	0.2031	0.9078	0.028
Mof_C 	C 	0.6725	0.1246	0.9329	0.3
Mof_C 	C 	0.6539	0.2031	0.9476	-0.013
Mof_C 	C 	0.6738	0.2278	0.9996	-0.107
Mof_C 	C 	0.6623	0.301	0.0106	0.067
Mof_C 	C 	0.6098	0.325	0.9223	0.04
Mof_C 	C 	0.6224	0.2532	0.908	-0.084
Mof_C 	C 	0.6301	0.1455	0.75	0.322
Mof_C 	C 	0.5291	0.2134	0.75	-0.048
Mof_C 	C 	0.6328	0.2846	0.75	-0.047
Mof_C 	C 	0.5429	0.3457	0.75	0.01
Mof_C 	C 	0.2521	0.2721	0.75	0.023
Mof_C 	C 	0.3342	0.2084	0.75	-0.055
Mof_C 	C 	0.3699	0.8545	0.25	0.317
Mof_C 	C 	0.4709	0.7866	0.25	-0.041
Mof_C 	C 	0.3672	0.7154	0.25	-0.053
Mof_C 	C 	0.4571	0.6543	0.25	0.014
Mof_C 	C 	0.7479	0.7279	0.25	0.027
Mof_C 	C 	0.6658	0.7916	0.25	-0.061
Mof_I 	I 	0.9817	0.44286	0.67015	-0.651
Mof_I 	I 	0.50922	0.52958	0.58924	-0.728
Mof_I 	I 	0.0183	0.55714	0.17015	-0.604
Mof_I 	I 	0.49078	0.47042	0.08924	-0.728
Mof_I 	I 	0.0183	0.55714	0.32985	-0.604
Mof_I 	I 	0.49078	0.47042	0.41076	-0.73
Mof_I 	I 	0.9817	0.44286	0.82985	-0.651
Mof_I 	I 	0.50922	0.52958	0.91076	-0.734
Mof_I 	I 	0.52523	0.55811	0.75	-0.6
Mof_I 	I 	0.47477	0.44189	0.25	-0.603
Mof_I 	I 	1.3792e-17	0.5	0.5	-0.735
Mof_I 	I 	-3.56489e-17	0.5	-0	-0.723
Mof_N 	N 	0.1616	0.6507	0.6674	-0.228
Mof_N 	N 	0.1536	0.3288	0.5629	-0.215
Mof_N 	N 	0.6275	0.349	0.52728	-0.235
Mof_N 	N 	0.8384	0.3493	0.1674	-0.235
Mof_N 	N 	0.8464	0.6712	0.0629	-0.219
Mof_N 	N 	0.3725	0.651	0.02728	-0.215
Mof_N 	N 	0.8384	0.3493	0.3326	-0.235
Mof_N 	N 	0.8464	0.6712	0.4371	-0.22
Mof_N 	N 	0.3725	0.651	0.47272	-0.233
Mof_N 	N 	0.1616	0.6507	0.8326	-0.228
Mof_N 	N 	0.1536	0.3288	0.9371	-0.215
Mof_N 	N 	0.6275	0.349	0.97272	-0.247
Mof_N 	N 	0.352	0.3405	0.75	-0.229
Mof_N 	N 	0.648	0.6595	0.25	-0.235
Mof_O 	O 	0.0597	0.9128	0.6297	-0.425
Mof_O 	O 	0.7693	0.8508	0.6359	-0.474
Mof_O 	O 	0.2092	0.0831	0.48348	-0.591
Mof_O 	O 	0.0793	0.05058	0.56302	-0.57
Mof_O 	O 	0.6988	0.08011	0.53045	-0.467
Mof_O 	O 	0.6665	0.1068	0.61552	-0.494
Mof_O 	O 	0.9403	0.0872	0.1297	-0.491
Mof_O 	O 	0.2307	0.1492	0.1359	-0.503
Mof_O 	O 	0.7908	0.9169	0.98348	-0.606
Mof_O 	O 	0.9207	0.94942	0.06302	-0.588
Mof_O 	O 	0.3012	0.91989	0.03045	-0.457
Mof_O 	O 	0.3335	0.8932	0.11552	-0.491
Mof_O 	O 	0.9403	0.0872	0.3703	-0.491
Mof_O 	O 	0.2307	0.1492	0.3641	-0.503
Mof_O 	O 	0.7908	0.9169	0.51652	-0.591
Mof_O 	O 	0.9207	0.94942	0.43698	-0.586
Mof_O 	O 	0.3012	0.91989	0.46955	-0.46
Mof_O 	O 	0.3335	0.8932	0.38448	-0.49
Mof_O 	O 	0.0597	0.9128	0.8703	-0.426
Mof_O 	O 	0.7693	0.8508	0.8641	-0.474
Mof_O 	O 	0.2092	0.0831	0.01652	-0.583
Mof_O 	O 	0.0793	0.05058	0.93698	-0.567
Mof_O 	O 	0.6988	0.08011	0.96955	-0.466
Mof_O 	O 	0.6665	0.1068	0.88448	-0.49
Mof_O 	O 	0.805	0.1553	0.75	-0.31
Mof_O 	O 	0.5254	0.0836	0.75	-0.327
Mof_O 	O 	0.195	0.8447	0.25	-0.292
Mof_O 	O 	0.4746	0.9164	0.25	-0.324
_end
