data_functionalizedCrystal
_audit_creation_method	'EQeq! by Chris Wilmer'
_symmetry_space_group_name_H-M	'P1'
_symmetry_Int_Tables_number	1
_symmetry_cell_setting	triclinic
loop_
_symmetry_equiv_pos_as_xyz
  x,y,z
_cell_length_a	14.475
_cell_length_b	16.613
_cell_length_c	24.839
_cell_angle_alpha	90
_cell_angle_beta	95.062
_cell_angle_gamma	90
loop_
_atom_site_label
_atom_site_type_symbol
_atom_site_fract_x
_atom_site_fract_y
_atom_site_fract_z
_atom_site_charge
Mof_Cd	Cd	0.37597	0.26026	0.48663	0.457
Mof_N 	N 	0.1421	0.78632	0.23975	-0.115
Mof_C 	C 	0.0916	0.82542	0.20068	0.032
Mof_H 	H 	0.0609	0.7957	0.1729	0.044
Mof_C 	C 	0.08297	0.90802	0.19959	-0.048
Mof_C 	C 	0.12695	0.95212	0.24222	-0.02
Mof_H 	H 	0.1223	0.0079	0.2427	0.057
Mof_C 	C 	0.1781	0.91163	0.28427	-0.053
Mof_C 	C 	0.1819	0.8289	0.28056	0.036
Mof_H 	H 	0.2147	0.801	0.3086	0.02
Mof_N 	N 	0.98466	0.91517	0.11213	-0.239
Mof_H 	H 	0.9786	0.8641	0.1073	0.164
Mof_N 	N 	0.02711	0.03127	0.15274	-0.128
Mof_N 	N 	0.90509	0.11883	0.02997	-0.139
Mof_C 	C 	0.03143	0.95229	0.15551	0.142
Mof_C 	C 	0.9765	0.04635	0.10403	0.01
Mof_C 	C 	0.9498	0.97351	0.07832	0.133
Mof_C 	C 	0.898	0.97372	0.02847	-0.173
Mof_H 	H 	0.878	0.9263	0.0113	0.095
Mof_C 	C 	0.8779	0.04829	0.006	0.09
Mof_H 	H 	0.8438	0.0503	0.9725	0.018
Mof_C 	C 	0.9525	0.11831	0.07777	0.014
Mof_H 	H 	0.9703	0.1669	0.0942	0.049
Mof_N 	N 	0.27379	0.92489	0.37251	-0.231
Mof_H 	H 	0.2849	0.8746	0.3783	0.13
Mof_N 	N 	0.21791	0.0375	0.33135	-0.122
Mof_N 	N 	0.33654	0.13596	0.45082	-0.143
Mof_C 	C 	0.2236	0.95698	0.32893	0.134
Mof_C 	C 	0.2685	0.05706	0.37927	0.012
Mof_C 	C 	0.3032	0.98722	0.40526	0.124
Mof_C 	C 	0.355	0.99164	0.45531	-0.181
Mof_H 	H 	0.3783	0.946	0.4735	0.107
Mof_C 	C 	0.3693	0.0681	0.47607	0.091
Mof_H 	H 	0.4035	0.0734	0.5094	0.016
Mof_C 	C 	0.2882	0.13136	0.40306	0.015
Mof_H 	H 	0.2673	0.1782	0.3854	0.046
Mof_O 	O 	0.99589	0.7654	0.42801	-0.325
Mof_O 	O 	0.04123	0.70653	0.50337	-0.308
Mof_O 	O 	0.1385	0.29037	0.43099	-0.33
Mof_O 	O 	0.28585	0.32604	0.42198	-0.325
Mof_C 	C 	0.0565	0.7279	0.45699	0.423
Mof_C 	C 	0.1452	0.7076	0.4348	-0.463
Mof_H 	H 	0.1953	0.7138	0.4631	0.164
Mof_H 	H 	0.1558	0.7455	0.4062	0.17
Mof_C 	C 	0.1478	0.62245	0.41228	0.159
Mof_C 	C 	0.0703	0.575	0.40415	-0.1
Mof_H 	H 	0.0128	0.5961	0.4107	0.081
Mof_C 	C 	0.0759	0.4955	0.38614	-0.115
Mof_H 	H 	0.0225	0.4642	0.3815	0.079
Mof_C 	C 	0.1601	0.46295	0.37513	0.18
Mof_C 	C 	0.2372	0.5124	0.38091	-0.116
Mof_H 	H 	0.294	0.4923	0.3724	0.085
Mof_C 	C 	0.232	0.5908	0.39901	-0.099
Mof_H 	H 	0.285	0.6227	0.4023	0.068
Mof_C 	C 	0.1684	0.3761	0.35926	-0.479
Mof_H 	H 	0.2128	0.3711	0.3324	0.186
Mof_H 	H 	0.1089	0.3566	0.3435	0.183
Mof_C 	C 	0.1998	0.32646	0.40816	0.437
Mof_Cd	Cd	0.87597	0.76026	0.48663	0.458
Mof_N 	N 	0.6421	0.28632	0.23975	-0.114
Mof_C 	C 	0.5916	0.32542	0.20068	0.032
Mof_H 	H 	0.5609	0.2957	0.1729	0.044
Mof_C 	C 	0.58297	0.40802	0.19959	-0.048
Mof_C 	C 	0.62695	0.45212	0.24222	-0.019
Mof_H 	H 	0.6223	0.5079	0.2427	0.056
Mof_C 	C 	0.6781	0.41163	0.28427	-0.053
Mof_C 	C 	0.6819	0.3289	0.28056	0.036
Mof_H 	H 	0.7147	0.301	0.3086	0.02
Mof_N 	N 	0.48466	0.41517	0.11213	-0.238
Mof_H 	H 	0.4786	0.3641	0.1073	0.164
Mof_N 	N 	0.52711	0.53127	0.15274	-0.129
Mof_N 	N 	0.40509	0.61883	0.02997	-0.139
Mof_C 	C 	0.53143	0.45229	0.15551	0.142
Mof_C 	C 	0.4765	0.54635	0.10403	0.011
Mof_C 	C 	0.4498	0.47351	0.07832	0.133
Mof_C 	C 	0.398	0.47372	0.02847	-0.172
Mof_H 	H 	0.378	0.4263	0.0113	0.095
Mof_C 	C 	0.3779	0.54829	0.006	0.09
Mof_H 	H 	0.3438	0.5503	0.9725	0.018
Mof_C 	C 	0.4525	0.61831	0.07777	0.013
Mof_H 	H 	0.4703	0.6669	0.0942	0.049
Mof_N 	N 	0.77379	0.42489	0.37251	-0.231
Mof_H 	H 	0.7849	0.3746	0.3783	0.129
Mof_N 	N 	0.71791	0.5375	0.33135	-0.122
Mof_N 	N 	0.83654	0.63596	0.45082	-0.143
Mof_C 	C 	0.7236	0.45698	0.32893	0.135
Mof_C 	C 	0.7685	0.55706	0.37927	0.012
Mof_C 	C 	0.8032	0.48722	0.40526	0.124
Mof_C 	C 	0.855	0.49164	0.45531	-0.181
Mof_H 	H 	0.8783	0.446	0.4735	0.107
Mof_C 	C 	0.8693	0.5681	0.47607	0.09
Mof_H 	H 	0.9035	0.5734	0.5094	0.016
Mof_C 	C 	0.7882	0.63136	0.40306	0.015
Mof_H 	H 	0.7673	0.6782	0.3854	0.045
Mof_O 	O 	0.49589	0.2654	0.42801	-0.325
Mof_O 	O 	0.54123	0.20653	0.50337	-0.308
Mof_O 	O 	0.6385	0.79037	0.43099	-0.33
Mof_O 	O 	0.78585	0.82604	0.42198	-0.325
Mof_C 	C 	0.5565	0.2279	0.45699	0.423
Mof_C 	C 	0.6452	0.2076	0.4348	-0.463
Mof_H 	H 	0.6953	0.2138	0.4631	0.164
Mof_H 	H 	0.6558	0.2455	0.4062	0.17
Mof_C 	C 	0.6478	0.12245	0.41228	0.159
Mof_C 	C 	0.5703	0.075	0.40415	-0.1
Mof_H 	H 	0.5128	0.0961	0.4107	0.081
Mof_C 	C 	0.5759	0.9955	0.38614	-0.115
Mof_H 	H 	0.5225	0.9642	0.3815	0.079
Mof_C 	C 	0.6601	0.96295	0.37513	0.179
Mof_C 	C 	0.7372	0.0124	0.38091	-0.115
Mof_H 	H 	0.794	0.9923	0.3724	0.085
Mof_C 	C 	0.732	0.0908	0.39901	-0.099
Mof_H 	H 	0.785	0.1227	0.4023	0.068
Mof_C 	C 	0.6684	0.8761	0.35926	-0.478
Mof_H 	H 	0.7128	0.8711	0.3324	0.185
Mof_H 	H 	0.6089	0.8566	0.3435	0.182
Mof_C 	C 	0.6998	0.82646	0.40816	0.437
Mof_Cd	Cd	0.62403	0.26026	0.01337	0.458
Mof_N 	N 	0.8579	0.78632	0.26025	-0.114
Mof_C 	C 	0.9084	0.82542	0.29932	0.032
Mof_H 	H 	0.9391	0.7957	0.3271	0.044
Mof_C 	C 	0.91703	0.90802	0.30041	-0.048
Mof_C 	C 	0.87305	0.95212	0.25778	-0.02
Mof_H 	H 	0.8777	0.0079	0.2573	0.057
Mof_C 	C 	0.8219	0.91163	0.21573	-0.053
Mof_C 	C 	0.8181	0.8289	0.21944	0.036
Mof_H 	H 	0.7853	0.801	0.1914	0.02
Mof_N 	N 	0.01534	0.91517	0.38787	-0.238
Mof_H 	H 	0.0214	0.8641	0.3927	0.164
Mof_N 	N 	0.97289	0.03127	0.34726	-0.129
Mof_N 	N 	0.09491	0.11883	0.47003	-0.138
Mof_C 	C 	0.96857	0.95229	0.34449	0.141
Mof_C 	C 	0.0235	0.04635	0.39597	0.011
Mof_C 	C 	0.0502	0.97351	0.42168	0.133
Mof_C 	C 	0.102	0.97372	0.47153	-0.172
Mof_H 	H 	0.122	0.9263	0.4887	0.095
Mof_C 	C 	0.1221	0.04829	0.494	0.089
Mof_H 	H 	0.1562	0.0503	0.5275	0.018
Mof_C 	C 	0.0475	0.11831	0.42223	0.013
Mof_H 	H 	0.0297	0.1669	0.4058	0.049
Mof_N 	N 	0.72621	0.92489	0.12749	-0.231
Mof_H 	H 	0.7151	0.8746	0.1217	0.13
Mof_N 	N 	0.78209	0.0375	0.16865	-0.122
Mof_N 	N 	0.66346	0.13596	0.04918	-0.143
Mof_C 	C 	0.7764	0.95698	0.17107	0.134
Mof_C 	C 	0.7315	0.05706	0.12073	0.012
Mof_C 	C 	0.6968	0.98722	0.09474	0.124
Mof_C 	C 	0.645	0.99164	0.04469	-0.182
Mof_H 	H 	0.6217	0.946	0.0265	0.108
Mof_C 	C 	0.6307	0.0681	0.02393	0.092
Mof_H 	H 	0.5965	0.0734	0.9906	0.015
Mof_C 	C 	0.7118	0.13136	0.09694	0.016
Mof_H 	H 	0.7327	0.1782	0.1146	0.045
Mof_O 	O 	0.00411	0.7654	0.07199	-0.323
Mof_O 	O 	0.95877	0.70653	0.99663	-0.306
Mof_O 	O 	0.8615	0.29037	0.06901	-0.331
Mof_O 	O 	0.71415	0.32604	0.07802	-0.325
Mof_C 	C 	0.9435	0.7279	0.04301	0.42
Mof_C 	C 	0.8548	0.7076	0.0652	-0.461
Mof_H 	H 	0.8047	0.7138	0.0369	0.164
Mof_H 	H 	0.8442	0.7455	0.0938	0.169
Mof_C 	C 	0.8522	0.62245	0.08772	0.157
Mof_C 	C 	0.9297	0.575	0.09585	-0.1
Mof_H 	H 	0.9872	0.5961	0.0893	0.081
Mof_C 	C 	0.9241	0.4955	0.11386	-0.116
Mof_H 	H 	0.9775	0.4642	0.1185	0.079
Mof_C 	C 	0.8399	0.46295	0.12487	0.18
Mof_C 	C 	0.7628	0.5124	0.11909	-0.116
Mof_H 	H 	0.706	0.4923	0.1276	0.085
Mof_C 	C 	0.768	0.5908	0.10099	-0.098
Mof_H 	H 	0.715	0.6227	0.0977	0.067
Mof_C 	C 	0.8316	0.3761	0.14074	-0.479
Mof_H 	H 	0.7872	0.3711	0.1676	0.186
Mof_H 	H 	0.8911	0.3566	0.1565	0.182
Mof_C 	C 	0.8002	0.32646	0.09184	0.437
Mof_Cd	Cd	0.12403	0.76026	0.01337	0.458
Mof_N 	N 	0.3579	0.28632	0.26025	-0.114
Mof_C 	C 	0.4084	0.32542	0.29932	0.032
Mof_H 	H 	0.4391	0.2957	0.3271	0.044
Mof_C 	C 	0.41703	0.40802	0.30041	-0.048
Mof_C 	C 	0.37305	0.45212	0.25778	-0.019
Mof_H 	H 	0.3777	0.5079	0.2573	0.056
Mof_C 	C 	0.3219	0.41163	0.21573	-0.053
Mof_C 	C 	0.3181	0.3289	0.21944	0.036
Mof_H 	H 	0.2853	0.301	0.1914	0.02
Mof_N 	N 	0.51534	0.41517	0.38787	-0.238
Mof_H 	H 	0.5214	0.3641	0.3927	0.164
Mof_N 	N 	0.47289	0.53127	0.34726	-0.129
Mof_N 	N 	0.59491	0.61883	0.47003	-0.138
Mof_C 	C 	0.46857	0.45229	0.34449	0.142
Mof_C 	C 	0.5235	0.54635	0.39597	0.011
Mof_C 	C 	0.5502	0.47351	0.42168	0.133
Mof_C 	C 	0.602	0.47372	0.47153	-0.172
Mof_H 	H 	0.622	0.4263	0.4887	0.095
Mof_C 	C 	0.6221	0.54829	0.494	0.089
Mof_H 	H 	0.6562	0.5503	0.5275	0.018
Mof_C 	C 	0.5475	0.61831	0.42223	0.013
Mof_H 	H 	0.5297	0.6669	0.4058	0.049
Mof_N 	N 	0.22621	0.42489	0.12749	-0.231
Mof_H 	H 	0.2151	0.3746	0.1217	0.13
Mof_N 	N 	0.28209	0.5375	0.16865	-0.122
Mof_N 	N 	0.16346	0.63596	0.04918	-0.143
Mof_C 	C 	0.2764	0.45698	0.17107	0.135
Mof_C 	C 	0.2315	0.55706	0.12073	0.011
Mof_C 	C 	0.1968	0.48722	0.09474	0.125
Mof_C 	C 	0.145	0.49164	0.04469	-0.181
Mof_H 	H 	0.1217	0.446	0.0265	0.108
Mof_C 	C 	0.1307	0.5681	0.02393	0.092
Mof_H 	H 	0.0965	0.5734	0.9906	0.015
Mof_C 	C 	0.2118	0.63136	0.09694	0.016
Mof_H 	H 	0.2327	0.6782	0.1146	0.045
Mof_O 	O 	0.50411	0.2654	0.07199	-0.325
Mof_O 	O 	0.45877	0.20653	0.99663	-0.308
Mof_O 	O 	0.3615	0.79037	0.06901	-0.33
Mof_O 	O 	0.21415	0.82604	0.07802	-0.325
Mof_C 	C 	0.4435	0.2279	0.04301	0.423
Mof_C 	C 	0.3548	0.2076	0.0652	-0.464
Mof_H 	H 	0.3047	0.2138	0.0369	0.165
Mof_H 	H 	0.3442	0.2455	0.0938	0.17
Mof_C 	C 	0.3522	0.12245	0.08772	0.159
Mof_C 	C 	0.4297	0.075	0.09585	-0.1
Mof_H 	H 	0.4872	0.0961	0.0893	0.082
Mof_C 	C 	0.4241	0.9955	0.11386	-0.115
Mof_H 	H 	0.4775	0.9642	0.1185	0.079
Mof_C 	C 	0.3399	0.96295	0.12487	0.178
Mof_C 	C 	0.2628	0.0124	0.11909	-0.113
Mof_H 	H 	0.206	0.9923	0.1276	0.084
Mof_C 	C 	0.268	0.0908	0.10099	-0.1
Mof_H 	H 	0.215	0.1227	0.0977	0.068
Mof_C 	C 	0.3316	0.8761	0.14074	-0.478
Mof_H 	H 	0.2872	0.8711	0.1676	0.185
Mof_H 	H 	0.3911	0.8566	0.1565	0.182
Mof_C 	C 	0.3002	0.82646	0.09184	0.437
Mof_Cd	Cd	0.62403	0.73974	0.51337	0.458
Mof_N 	N 	0.8579	0.21368	0.76025	-0.114
Mof_C 	C 	0.9084	0.17458	0.79932	0.032
Mof_H 	H 	0.9391	0.2043	0.8271	0.044
Mof_C 	C 	0.91703	0.09198	0.80041	-0.048
Mof_C 	C 	0.87305	0.04788	0.75778	-0.02
Mof_H 	H 	0.8777	0.9921	0.7573	0.057
Mof_C 	C 	0.8219	0.08837	0.71573	-0.053
Mof_C 	C 	0.8181	0.1711	0.71944	0.036
Mof_H 	H 	0.7853	0.199	0.6914	0.02
Mof_N 	N 	0.01534	0.08483	0.88787	-0.239
Mof_H 	H 	0.0214	0.1359	0.8927	0.164
Mof_N 	N 	0.97289	0.96873	0.84726	-0.128
Mof_N 	N 	0.09491	0.88117	0.97003	-0.139
Mof_C 	C 	0.96857	0.04771	0.84449	0.142
Mof_C 	C 	0.0235	0.95365	0.89597	0.01
Mof_C 	C 	0.0502	0.02649	0.92168	0.133
Mof_C 	C 	0.102	0.02628	0.97153	-0.173
Mof_H 	H 	0.122	0.0737	0.9887	0.095
Mof_C 	C 	0.1221	0.95171	0.994	0.09
Mof_H 	H 	0.1562	0.9497	0.0275	0.018
Mof_C 	C 	0.0475	0.88169	0.92223	0.014
Mof_H 	H 	0.0297	0.8331	0.9058	0.049
Mof_N 	N 	0.72621	0.07511	0.62749	-0.231
Mof_H 	H 	0.7151	0.1254	0.6217	0.13
Mof_N 	N 	0.78209	0.9625	0.66865	-0.122
Mof_N 	N 	0.66346	0.86404	0.54918	-0.143
Mof_C 	C 	0.7764	0.04302	0.67107	0.134
Mof_C 	C 	0.7315	0.94294	0.62073	0.012
Mof_C 	C 	0.6968	0.01278	0.59474	0.124
Mof_C 	C 	0.645	0.00836	0.54469	-0.181
Mof_H 	H 	0.6217	0.054	0.5265	0.107
Mof_C 	C 	0.6307	0.9319	0.52393	0.091
Mof_H 	H 	0.5965	0.9266	0.4906	0.016
Mof_C 	C 	0.7118	0.86864	0.59694	0.015
Mof_H 	H 	0.7327	0.8218	0.6146	0.046
Mof_O 	O 	0.00411	0.2346	0.57199	-0.325
Mof_O 	O 	0.95877	0.29347	0.49663	-0.308
Mof_O 	O 	0.8615	0.70963	0.56901	-0.33
Mof_O 	O 	0.71415	0.67396	0.57802	-0.325
Mof_C 	C 	0.9435	0.2721	0.54301	0.423
Mof_C 	C 	0.8548	0.2924	0.5652	-0.463
Mof_H 	H 	0.8047	0.2862	0.5369	0.164
Mof_H 	H 	0.8442	0.2545	0.5938	0.17
Mof_C 	C 	0.8522	0.37755	0.58772	0.159
Mof_C 	C 	0.9297	0.425	0.59585	-0.1
Mof_H 	H 	0.9872	0.4039	0.5893	0.081
Mof_C 	C 	0.9241	0.5045	0.61386	-0.115
Mof_H 	H 	0.9775	0.5358	0.6185	0.079
Mof_C 	C 	0.8399	0.53705	0.62487	0.18
Mof_C 	C 	0.7628	0.4876	0.61909	-0.116
Mof_H 	H 	0.706	0.5077	0.6276	0.085
Mof_C 	C 	0.768	0.4092	0.60099	-0.099
Mof_H 	H 	0.715	0.3773	0.5977	0.068
Mof_C 	C 	0.8316	0.6239	0.64074	-0.479
Mof_H 	H 	0.7872	0.6289	0.6676	0.186
Mof_H 	H 	0.8911	0.6434	0.6565	0.183
Mof_C 	C 	0.8002	0.67354	0.59184	0.437
Mof_Cd	Cd	0.12403	0.23974	0.51337	0.458
Mof_N 	N 	0.3579	0.71368	0.76025	-0.114
Mof_C 	C 	0.4084	0.67458	0.79932	0.032
Mof_H 	H 	0.4391	0.7043	0.8271	0.044
Mof_C 	C 	0.41703	0.59198	0.80041	-0.048
Mof_C 	C 	0.37305	0.54788	0.75778	-0.019
Mof_H 	H 	0.3777	0.4921	0.7573	0.056
Mof_C 	C 	0.3219	0.58837	0.71573	-0.053
Mof_C 	C 	0.3181	0.6711	0.71944	0.036
Mof_H 	H 	0.2853	0.699	0.6914	0.02
Mof_N 	N 	0.51534	0.58483	0.88787	-0.238
Mof_H 	H 	0.5214	0.6359	0.8927	0.164
Mof_N 	N 	0.47289	0.46873	0.84726	-0.129
Mof_N 	N 	0.59491	0.38117	0.97003	-0.139
Mof_C 	C 	0.46857	0.54771	0.84449	0.142
Mof_C 	C 	0.5235	0.45365	0.89597	0.011
Mof_C 	C 	0.5502	0.52649	0.92168	0.133
Mof_C 	C 	0.602	0.52628	0.97153	-0.172
Mof_H 	H 	0.622	0.5737	0.9887	0.095
Mof_C 	C 	0.6221	0.45171	0.994	0.09
Mof_H 	H 	0.6562	0.4497	0.0275	0.018
Mof_C 	C 	0.5475	0.38169	0.92223	0.013
Mof_H 	H 	0.5297	0.3331	0.9058	0.049
Mof_N 	N 	0.22621	0.57511	0.62749	-0.231
Mof_H 	H 	0.2151	0.6254	0.6217	0.129
Mof_N 	N 	0.28209	0.4625	0.66865	-0.122
Mof_N 	N 	0.16346	0.36404	0.54918	-0.143
Mof_C 	C 	0.2764	0.54302	0.67107	0.135
Mof_C 	C 	0.2315	0.44294	0.62073	0.012
Mof_C 	C 	0.1968	0.51278	0.59474	0.124
Mof_C 	C 	0.145	0.50836	0.54469	-0.181
Mof_H 	H 	0.1217	0.554	0.5265	0.107
Mof_C 	C 	0.1307	0.4319	0.52393	0.09
Mof_H 	H 	0.0965	0.4266	0.4906	0.016
Mof_C 	C 	0.2118	0.36864	0.59694	0.015
Mof_H 	H 	0.2327	0.3218	0.6146	0.045
Mof_O 	O 	0.50411	0.7346	0.57199	-0.325
Mof_O 	O 	0.45877	0.79347	0.49663	-0.308
Mof_O 	O 	0.3615	0.20963	0.56901	-0.33
Mof_O 	O 	0.21415	0.17396	0.57802	-0.325
Mof_C 	C 	0.4435	0.7721	0.54301	0.423
Mof_C 	C 	0.3548	0.7924	0.5652	-0.463
Mof_H 	H 	0.3047	0.7862	0.5369	0.164
Mof_H 	H 	0.3442	0.7545	0.5938	0.17
Mof_C 	C 	0.3522	0.87755	0.58772	0.159
Mof_C 	C 	0.4297	0.925	0.59585	-0.1
Mof_H 	H 	0.4872	0.9039	0.5893	0.081
Mof_C 	C 	0.4241	0.0045	0.61386	-0.115
Mof_H 	H 	0.4775	0.0358	0.6185	0.079
Mof_C 	C 	0.3399	0.03705	0.62487	0.179
Mof_C 	C 	0.2628	0.9876	0.61909	-0.115
Mof_H 	H 	0.206	0.0077	0.6276	0.085
Mof_C 	C 	0.268	0.9092	0.60099	-0.099
Mof_H 	H 	0.215	0.8773	0.5977	0.068
Mof_C 	C 	0.3316	0.1239	0.64074	-0.478
Mof_H 	H 	0.2872	0.1289	0.6676	0.185
Mof_H 	H 	0.3911	0.1434	0.6565	0.182
Mof_C 	C 	0.3002	0.17354	0.59184	0.437
Mof_Cd	Cd	0.37597	0.73974	0.98663	0.458
Mof_N 	N 	0.1421	0.21368	0.73975	-0.114
Mof_C 	C 	0.0916	0.17458	0.70068	0.032
Mof_H 	H 	0.0609	0.2043	0.6729	0.044
Mof_C 	C 	0.08297	0.09198	0.69959	-0.048
Mof_C 	C 	0.12695	0.04788	0.74222	-0.02
Mof_H 	H 	0.1223	0.9921	0.7427	0.057
Mof_C 	C 	0.1781	0.08837	0.78427	-0.053
Mof_C 	C 	0.1819	0.1711	0.78056	0.036
Mof_H 	H 	0.2147	0.199	0.8086	0.02
Mof_N 	N 	0.98466	0.08483	0.61213	-0.238
Mof_H 	H 	0.9786	0.1359	0.6073	0.164
Mof_N 	N 	0.02711	0.96873	0.65274	-0.129
Mof_N 	N 	0.90509	0.88117	0.52997	-0.138
Mof_C 	C 	0.03143	0.04771	0.65551	0.141
Mof_C 	C 	0.9765	0.95365	0.60403	0.011
Mof_C 	C 	0.9498	0.02649	0.57832	0.133
Mof_C 	C 	0.898	0.02628	0.52847	-0.172
Mof_H 	H 	0.878	0.0737	0.5113	0.095
Mof_C 	C 	0.8779	0.95171	0.506	0.089
Mof_H 	H 	0.8438	0.9497	0.4725	0.018
Mof_C 	C 	0.9525	0.88169	0.57777	0.013
Mof_H 	H 	0.9703	0.8331	0.5942	0.049
Mof_N 	N 	0.27379	0.07511	0.87251	-0.231
Mof_H 	H 	0.2849	0.1254	0.8783	0.13
Mof_N 	N 	0.21791	0.9625	0.83135	-0.122
Mof_N 	N 	0.33654	0.86404	0.95082	-0.143
Mof_C 	C 	0.2236	0.04302	0.82893	0.134
Mof_C 	C 	0.2685	0.94294	0.87927	0.012
Mof_C 	C 	0.3032	0.01278	0.90526	0.124
Mof_C 	C 	0.355	0.00836	0.95531	-0.182
Mof_H 	H 	0.3783	0.054	0.9735	0.108
Mof_C 	C 	0.3693	0.9319	0.97607	0.092
Mof_H 	H 	0.4035	0.9266	0.0094	0.015
Mof_C 	C 	0.2882	0.86864	0.90306	0.016
Mof_H 	H 	0.2673	0.8218	0.8854	0.045
Mof_O 	O 	0.99589	0.2346	0.92801	-0.323
Mof_O 	O 	0.04123	0.29347	0.00337	-0.306
Mof_O 	O 	0.1385	0.70963	0.93099	-0.331
Mof_O 	O 	0.28585	0.67396	0.92198	-0.325
Mof_C 	C 	0.0565	0.2721	0.95699	0.42
Mof_C 	C 	0.1452	0.2924	0.9348	-0.461
Mof_H 	H 	0.1953	0.2862	0.9631	0.164
Mof_H 	H 	0.1558	0.2545	0.9062	0.169
Mof_C 	C 	0.1478	0.37755	0.91228	0.157
Mof_C 	C 	0.0703	0.425	0.90415	-0.1
Mof_H 	H 	0.0128	0.4039	0.9107	0.081
Mof_C 	C 	0.0759	0.5045	0.88614	-0.116
Mof_H 	H 	0.0225	0.5358	0.8815	0.079
Mof_C 	C 	0.1601	0.53705	0.87513	0.18
Mof_C 	C 	0.2372	0.4876	0.88091	-0.116
Mof_H 	H 	0.294	0.5077	0.8724	0.085
Mof_C 	C 	0.232	0.4092	0.89901	-0.098
Mof_H 	H 	0.285	0.3773	0.9023	0.067
Mof_C 	C 	0.1684	0.6239	0.85926	-0.479
Mof_H 	H 	0.2128	0.6289	0.8324	0.186
Mof_H 	H 	0.1089	0.6434	0.8435	0.182
Mof_C 	C 	0.1998	0.67354	0.90816	0.437
Mof_Cd	Cd	0.87597	0.23974	0.98663	0.458
Mof_N 	N 	0.6421	0.71368	0.73975	-0.114
Mof_C 	C 	0.5916	0.67458	0.70068	0.032
Mof_H 	H 	0.5609	0.7043	0.6729	0.044
Mof_C 	C 	0.58297	0.59198	0.69959	-0.048
Mof_C 	C 	0.62695	0.54788	0.74222	-0.019
Mof_H 	H 	0.6223	0.4921	0.7427	0.056
Mof_C 	C 	0.6781	0.58837	0.78427	-0.053
Mof_C 	C 	0.6819	0.6711	0.78056	0.036
Mof_H 	H 	0.7147	0.699	0.8086	0.02
Mof_N 	N 	0.48466	0.58483	0.61213	-0.238
Mof_H 	H 	0.4786	0.6359	0.6073	0.164
Mof_N 	N 	0.52711	0.46873	0.65274	-0.129
Mof_N 	N 	0.40509	0.38117	0.52997	-0.138
Mof_C 	C 	0.53143	0.54771	0.65551	0.142
Mof_C 	C 	0.4765	0.45365	0.60403	0.011
Mof_C 	C 	0.4498	0.52649	0.57832	0.133
Mof_C 	C 	0.398	0.52628	0.52847	-0.172
Mof_H 	H 	0.378	0.5737	0.5113	0.095
Mof_C 	C 	0.3779	0.45171	0.506	0.089
Mof_H 	H 	0.3438	0.4497	0.4725	0.018
Mof_C 	C 	0.4525	0.38169	0.57777	0.013
Mof_H 	H 	0.4703	0.3331	0.5942	0.049
Mof_N 	N 	0.77379	0.57511	0.87251	-0.231
Mof_H 	H 	0.7849	0.6254	0.8783	0.13
Mof_N 	N 	0.71791	0.4625	0.83135	-0.122
Mof_N 	N 	0.83654	0.36404	0.95082	-0.143
Mof_C 	C 	0.7236	0.54302	0.82893	0.135
Mof_C 	C 	0.7685	0.44294	0.87927	0.011
Mof_C 	C 	0.8032	0.51278	0.90526	0.125
Mof_C 	C 	0.855	0.50836	0.95531	-0.181
Mof_H 	H 	0.8783	0.554	0.9735	0.108
Mof_C 	C 	0.8693	0.4319	0.97607	0.092
Mof_H 	H 	0.9035	0.4266	0.0094	0.015
Mof_C 	C 	0.7882	0.36864	0.90306	0.016
Mof_H 	H 	0.7673	0.3218	0.8854	0.045
Mof_O 	O 	0.49589	0.7346	0.92801	-0.325
Mof_O 	O 	0.54123	0.79347	0.00337	-0.308
Mof_O 	O 	0.6385	0.20963	0.93099	-0.33
Mof_O 	O 	0.78585	0.17396	0.92198	-0.325
Mof_C 	C 	0.5565	0.7721	0.95699	0.423
Mof_C 	C 	0.6452	0.7924	0.9348	-0.464
Mof_H 	H 	0.6953	0.7862	0.9631	0.165
Mof_H 	H 	0.6558	0.7545	0.9062	0.17
Mof_C 	C 	0.6478	0.87755	0.91228	0.159
Mof_C 	C 	0.5703	0.925	0.90415	-0.1
Mof_H 	H 	0.5128	0.9039	0.9107	0.082
Mof_C 	C 	0.5759	0.0045	0.88614	-0.115
Mof_H 	H 	0.5225	0.0358	0.8815	0.079
Mof_C 	C 	0.6601	0.03705	0.87513	0.178
Mof_C 	C 	0.7372	0.9876	0.88091	-0.113
Mof_H 	H 	0.794	0.0077	0.8724	0.084
Mof_C 	C 	0.732	0.9092	0.89901	-0.1
Mof_H 	H 	0.785	0.8773	0.9023	0.068
Mof_C 	C 	0.6684	0.1239	0.85926	-0.478
Mof_H 	H 	0.7128	0.1289	0.8324	0.185
Mof_H 	H 	0.6089	0.1434	0.8435	0.182
Mof_C 	C 	0.6998	0.17354	0.90816	0.437
_end
