# CIF file generated by openbabel 3.1.0, see https://openbabel.org
data_I
_chemical_name_common 'RIPWEU_clean'
_cell_length_a 17.855
_cell_length_b 23.8756
_cell_length_c 34.8405
_cell_angle_alpha 90
_cell_angle_beta 90
_cell_angle_gamma 90
_space_group_name_H-M_alt 'P 1'
_space_group_name_Hall 'P 1'
loop_
    _symmetry_equiv_pos_as_xyz
    x,y,z
loop_
    _atom_site_label
    _atom_site_type_symbol
    _atom_site_fract_x
    _atom_site_fract_y
    _atom_site_fract_z
    _atom_site_occupancy
    K1       K        0.91460    0.83730    0.73810    1.000
    K2       K        0.58540    0.16270    0.23810    1.000
    K3       K        0.08540    0.33730    0.76190    1.000
    K4       K        0.41460    0.66270    0.26190    1.000
    Na1      Na       0.49030    0.05960    0.88170    1.000
    Na2      Na       0.88680    0.30790    0.83090    1.000
    Na3      Na       0.99790    0.02200    0.94880    1.000
    Na4      Na       0.01030    0.87140    0.94220    1.000
    Na5      Na       0.48600    0.08800    0.88130    1.000
    Na6      Na       0.00970    0.94040    0.38170    1.000
    Na7      Na       0.61320    0.69210    0.33090    1.000
    Na8      Na       0.50210    0.97800    0.44880    1.000
    Na9      Na       0.48970    0.12860    0.44220    1.000
    Na10     Na       0.01400    0.91200    0.38130    1.000
    Na11     Na       0.50970    0.55960    0.61830    1.000
    Na12     Na       0.11320    0.80790    0.66910    1.000
    Na13     Na       0.00210    0.52200    0.55120    1.000
    Na14     Na       0.98970    0.37140    0.55780    1.000
    Na15     Na       0.51400    0.58800    0.61870    1.000
    Na16     Na       0.99030    0.44040    0.11830    1.000
    Na17     Na       0.38680    0.19210    0.16910    1.000
    Na18     Na       0.49790    0.47800    0.05120    1.000
    Na19     Na       0.51030    0.62860    0.05780    1.000
    Na20     Na       0.98600    0.41200    0.11870    1.000
    Sm1      Sm       0.60120    0.69386    0.96848    1.000
    Sm2      Sm       0.88071    0.80959    0.03675    1.000
    Sm3      Sm       0.31611    0.32837    0.85662    1.000
    Sm4      Sm       0.68580    0.32692    0.85955    1.000
    Sm5      Sm       0.89135    0.21399    0.72443    1.000
    Sm6      Sm       0.99666    0.20667    0.91056    1.000
    Sm7      Sm       0.89880    0.30614    0.46848    1.000
    Sm8      Sm       0.61929    0.19041    0.53675    1.000
    Sm9      Sm       0.18389    0.67163    0.35662    1.000
    Sm10     Sm       0.81420    0.67308    0.35955    1.000
    Sm11     Sm       0.60865    0.78601    0.22443    1.000
    Sm12     Sm       0.50334    0.79333    0.41056    1.000
    Sm13     Sm       0.39880    0.19386    0.53152    1.000
    Sm14     Sm       0.11929    0.30959    0.46325    1.000
    Sm15     Sm       0.68389    0.82837    0.64338    1.000
    Sm16     Sm       0.31420    0.82692    0.64045    1.000
    Sm17     Sm       0.10865    0.71399    0.77557    1.000
    Sm18     Sm       0.00334    0.70667    0.58944    1.000
    Sm19     Sm       0.10120    0.80614    0.03152    1.000
    Sm20     Sm       0.38071    0.69041    0.96325    1.000
    Sm21     Sm       0.81611    0.17163    0.14338    1.000
    Sm22     Sm       0.18580    0.17308    0.14045    1.000
    Sm23     Sm       0.39135    0.28601    0.27557    1.000
    Sm24     Sm       0.49666    0.29333    0.08944    1.000
    Mn1      Mn       0.33740    0.21910    0.66110    1.000
    Mn2      Mn       0.16260    0.78090    0.16110    1.000
    Mn3      Mn       0.66260    0.71910    0.83890    1.000
    Mn4      Mn       0.83740    0.28090    0.33890    1.000
    P1       P        0.49630    0.01930    0.77926    1.000
    P2       P        0.37250    0.00110    0.95760    1.000
    P3       P        0.60240    0.00440    0.96140    1.000
    P4       P        0.30660    0.01330    0.84620    1.000
    P5       P        0.67870    0.01540    0.85160    1.000
    P6       P        0.00370    0.98070    0.27926    1.000
    P7       P        0.12750    0.99890    0.45760    1.000
    P8       P        0.89760    0.99560    0.46140    1.000
    P9       P        0.19340    0.98670    0.34620    1.000
    P10      P        0.82130    0.98460    0.35160    1.000
    P11      P        0.50370    0.51930    0.72074    1.000
    P12      P        0.62750    0.50110    0.54240    1.000
    P13      P        0.39760    0.50440    0.53860    1.000
    P14      P        0.69340    0.51330    0.65380    1.000
    P15      P        0.32130    0.51540    0.64840    1.000
    P16      P        0.99630    0.48070    0.22074    1.000
    P17      P        0.87250    0.49890    0.04240    1.000
    P18      P        0.10240    0.49560    0.03860    1.000
    P19      P        0.80660    0.48670    0.15380    1.000
    P20      P        0.17870    0.48460    0.14840    1.000
    H1       H        0.74060    0.22450    0.94970    1.000
    H2       H        0.77150    0.28090    0.96630    1.000
    H3       H        0.97480    0.11740    0.80680    1.000
    H4       H        0.04890    0.15300    0.80320    1.000
    H5       H        0.72810    0.72660    0.09190    1.000
    H6       H        0.67730    0.78030    0.09170    1.000
    H7       H        0.17910    0.26550    0.96600    1.000
    H8       H        0.22020    0.21380    0.94770    1.000
    H9       H        0.65010    0.29730    0.74260    1.000
    H10      H        0.65050    0.23670    0.76030    1.000
    H11      H        0.96790    0.72360    0.13930    1.000
    H12      H        0.94360    0.78600    0.14710    1.000
    H13      H        0.47340    0.24450    0.91690    1.000
    H14      H        0.47610    0.30340    0.93700    1.000
    H15      H        0.75940    0.77550    0.44970    1.000
    H16      H        0.72850    0.71910    0.46630    1.000
    H17      H        0.52520    0.88260    0.30680    1.000
    H18      H        0.45110    0.84700    0.30320    1.000
    H19      H        0.77190    0.27340    0.59190    1.000
    H20      H        0.82270    0.21970    0.59170    1.000
    H21      H        0.32090    0.73450    0.46600    1.000
    H22      H        0.27980    0.78620    0.44770    1.000
    H23      H        0.84990    0.70270    0.24260    1.000
    H24      H        0.84950    0.76330    0.26030    1.000
    H25      H        0.53210    0.27640    0.63930    1.000
    H26      H        0.55640    0.21400    0.64710    1.000
    H27      H        0.02660    0.75550    0.41690    1.000
    H28      H        0.02390    0.69660    0.43700    1.000
    H29      H        0.25940    0.72450    0.55030    1.000
    H30      H        0.22850    0.78090    0.53370    1.000
    H31      H        0.02520    0.61740    0.69320    1.000
    H32      H        0.95110    0.65300    0.69680    1.000
    H33      H        0.27190    0.22660    0.40810    1.000
    H34      H        0.32270    0.28030    0.40830    1.000
    H35      H        0.82090    0.76550    0.53400    1.000
    H36      H        0.77980    0.71380    0.55230    1.000
    H37      H        0.34990    0.79730    0.75740    1.000
    H38      H        0.34950    0.73670    0.73970    1.000
    H39      H        0.03210    0.22360    0.36070    1.000
    H40      H        0.05640    0.28600    0.35290    1.000
    H41      H        0.52660    0.74450    0.58310    1.000
    H42      H        0.52390    0.80340    0.56300    1.000
    H43      H        0.24060    0.27550    0.05030    1.000
    H44      H        0.27150    0.21910    0.03370    1.000
    H45      H        0.47480    0.38260    0.19320    1.000
    H46      H        0.54890    0.34700    0.19680    1.000
    H47      H        0.22810    0.77340    0.90810    1.000
    H48      H        0.17730    0.71970    0.90830    1.000
    H49      H        0.67910    0.23450    0.03400    1.000
    H50      H        0.72020    0.28620    0.05230    1.000
    H51      H        0.15010    0.20270    0.25740    1.000
    H52      H        0.15050    0.26330    0.23970    1.000
    H53      H        0.46790    0.77640    0.86070    1.000
    H54      H        0.44360    0.71400    0.85290    1.000
    H55      H        0.97340    0.25550    0.08310    1.000
    H56      H        0.97610    0.19660    0.06300    1.000
    W1       W        0.83565    0.08445    0.88104    1.000
    W2       W        0.38816    0.86103    0.94486    1.000
    W3       W        0.14828    0.07988    0.88166    1.000
    W4       W        0.38519    0.06189    0.04713    1.000
    W5       W        0.49542    0.87783    0.78316    1.000
    W6       W        0.49572    0.15947    0.79357    1.000
    W7       W        0.59799    0.06589    0.04928    1.000
    W8       W        0.21110    0.06697    0.98596    1.000
    W9       W        0.21026    0.08749    0.77878    1.000
    W10      W        0.58789    0.14618    0.96056    1.000
    W11      W        0.76740    0.07522    0.98477    1.000
    W12      W        0.59720    0.86391    0.94862    1.000
    W13      W        0.38488    0.09246    0.71585    1.000
    W14      W        0.76574    0.09205    0.77944    1.000
    W15      W        0.32237    0.86995    0.84315    1.000
    W16      W        0.37860    0.14316    0.95667    1.000
    W17      W        0.58196    0.92743    0.04542    1.000
    W18      W        0.36829    0.92386    0.04013    1.000
    W19      W        0.61350    0.95656    0.71354    1.000
    W20      W        0.32280    0.15424    0.85318    1.000
    W21      W        0.65939    0.15535    0.86005    1.000
    W22      W        0.66298    0.87426    0.84707    1.000
    W23      W        0.40361    0.95463    0.70609    1.000
    W24      W        0.59622    0.09569    0.71356    1.000
    W25      W        0.20786    0.92937    0.97082    1.000
    W26      W        0.78084    0.95327    0.78081    1.000
    W27      W        0.76026    0.93570    0.98755    1.000
    W28      W        0.14722    0.94098    0.86627    1.000
    W29      W        0.22555    0.94950    0.76629    1.000
    W30      W        0.83292    0.94496    0.88552    1.000
    W31      W        0.66435    0.91555    0.38104    1.000
    W32      W        0.11184    0.13897    0.44486    1.000
    W33      W        0.35172    0.92012    0.38166    1.000
    W34      W        0.11481    0.93811    0.54713    1.000
    W35      W        0.00458    0.12217    0.28316    1.000
    W36      W        0.00428    0.84053    0.29357    1.000
    W37      W        0.90201    0.93411    0.54928    1.000
    W38      W        0.28890    0.93303    0.48596    1.000
    W39      W        0.28974    0.91251    0.27878    1.000
    W40      W        0.91211    0.85382    0.46056    1.000
    W41      W        0.73260    0.92478    0.48477    1.000
    W42      W        0.90280    0.13609    0.44862    1.000
    W43      W        0.11512    0.90754    0.21585    1.000
    W44      W        0.73426    0.90795    0.27944    1.000
    W45      W        0.17763    0.13005    0.34315    1.000
    W46      W        0.12140    0.85684    0.45667    1.000
    W47      W        0.91804    0.07257    0.54542    1.000
    W48      W        0.13171    0.07614    0.54013    1.000
    W49      W        0.88650    0.04344    0.21354    1.000
    W50      W        0.17720    0.84576    0.35318    1.000
    W51      W        0.84061    0.84465    0.36005    1.000
    W52      W        0.83702    0.12574    0.34707    1.000
    W53      W        0.09639    0.04537    0.20609    1.000
    W54      W        0.90378    0.90431    0.21356    1.000
    W55      W        0.29214    0.07063    0.47082    1.000
    W56      W        0.71916    0.04673    0.28081    1.000
    W57      W        0.73974    0.06430    0.48755    1.000
    W58      W        0.35278    0.05902    0.36627    1.000
    W59      W        0.27445    0.05050    0.26629    1.000
    W60      W        0.66708    0.05504    0.38552    1.000
    W61      W        0.16435    0.58445    0.61896    1.000
    W62      W        0.61184    0.36103    0.55514    1.000
    W63      W        0.85172    0.57988    0.61834    1.000
    W64      W        0.61481    0.56189    0.45287    1.000
    W65      W        0.50458    0.37783    0.71684    1.000
    W66      W        0.50428    0.65947    0.70643    1.000
    W67      W        0.40201    0.56589    0.45072    1.000
    W68      W        0.78890    0.56697    0.51404    1.000
    W69      W        0.78974    0.58749    0.72122    1.000
    W70      W        0.41211    0.64618    0.53944    1.000
    W71      W        0.23260    0.57522    0.51523    1.000
    W72      W        0.40280    0.36391    0.55138    1.000
    W73      W        0.61512    0.59246    0.78415    1.000
    W74      W        0.23426    0.59205    0.72056    1.000
    W75      W        0.67763    0.36995    0.65685    1.000
    W76      W        0.62140    0.64316    0.54333    1.000
    W77      W        0.41804    0.42743    0.45458    1.000
    W78      W        0.63171    0.42386    0.45987    1.000
    W79      W        0.38650    0.45656    0.78646    1.000
    W80      W        0.67720    0.65424    0.64682    1.000
    W81      W        0.34061    0.65535    0.63995    1.000
    W82      W        0.33702    0.37426    0.65293    1.000
    W83      W        0.59639    0.45463    0.79391    1.000
    W84      W        0.40378    0.59569    0.78644    1.000
    W85      W        0.79214    0.42937    0.52918    1.000
    W86      W        0.21916    0.45327    0.71919    1.000
    W87      W        0.23974    0.43570    0.51245    1.000
    W88      W        0.85278    0.44098    0.63373    1.000
    W89      W        0.77445    0.44950    0.73371    1.000
    W90      W        0.16708    0.44496    0.61448    1.000
    W91      W        0.33565    0.41555    0.11896    1.000
    W92      W        0.88816    0.63897    0.05514    1.000
    W93      W        0.64828    0.42012    0.11834    1.000
    W94      W        0.88519    0.43811    0.95287    1.000
    W95      W        0.99542    0.62217    0.21684    1.000
    W96      W        0.99572    0.34053    0.20643    1.000
    W97      W        0.09799    0.43411    0.95072    1.000
    W98      W        0.71110    0.43303    0.01404    1.000
    W99      W        0.71026    0.41251    0.22122    1.000
    W100     W        0.08789    0.35382    0.03944    1.000
    W101     W        0.26740    0.42478    0.01523    1.000
    W102     W        0.09720    0.63609    0.05138    1.000
    W103     W        0.88488    0.40754    0.28415    1.000
    W104     W        0.26574    0.40795    0.22056    1.000
    W105     W        0.82237    0.63005    0.15685    1.000
    W106     W        0.87860    0.35684    0.04333    1.000
    W107     W        0.08196    0.57257    0.95458    1.000
    W108     W        0.86829    0.57614    0.95987    1.000
    W109     W        0.11350    0.54344    0.28646    1.000
    W110     W        0.82280    0.34576    0.14682    1.000
    W111     W        0.15939    0.34465    0.13995    1.000
    W112     W        0.16298    0.62574    0.15293    1.000
    W113     W        0.90361    0.54537    0.29391    1.000
    W114     W        0.09622    0.40431    0.28644    1.000
    W115     W        0.70786    0.57063    0.02918    1.000
    W116     W        0.28084    0.54673    0.21919    1.000
    W117     W        0.26026    0.56430    0.01245    1.000
    W118     W        0.64722    0.55902    0.13373    1.000
    W119     W        0.72555    0.55050    0.23371    1.000
    W120     W        0.33292    0.55504    0.11448    1.000
    C1       C        0.75430    0.26260    0.94310    1.000
    C2       C        0.74360    0.28190    0.77470    1.000
    C3       C        0.99600    0.15130    0.79620    1.000
    C4       C        0.03000    0.78080    0.10660    1.000
    C5       C        0.72130    0.76320    0.08030    1.000
    C6       C        0.17550    0.23680    0.94640    1.000
    C7       C        0.66250    0.27570    0.76530    1.000
    C8       C        0.95280    0.20530    0.81140    1.000
    C9       C        0.98610    0.76160    0.14260    1.000
    C10      C        0.17030    0.26460    0.90640    1.000
    C11      C        0.48800    0.30750    0.88030    1.000
    C12      C        0.71000    0.75690    0.03980    1.000
    C13      C        0.45800    0.28330    0.91470    1.000
    C14      C        0.81320    0.26120    0.91670    1.000
    C15      C        0.74570    0.73740    0.44310    1.000
    C16      C        0.75640    0.71810    0.27470    1.000
    C17      C        0.50400    0.84870    0.29620    1.000
    C18      C        0.47000    0.21920    0.60660    1.000
    C19      C        0.77870    0.23680    0.58030    1.000
    C20      C        0.32450    0.76320    0.44640    1.000
    C21      C        0.83750    0.72430    0.26530    1.000
    C22      C        0.54720    0.79470    0.31140    1.000
    C23      C        0.51390    0.23840    0.64260    1.000
    C24      C        0.32970    0.73540    0.40640    1.000
    C25      C        0.01200    0.69250    0.38030    1.000
    C26      C        0.79000    0.24310    0.53980    1.000
    C27      C        0.04200    0.71670    0.41470    1.000
    C28      C        0.68680    0.73880    0.41670    1.000
    C29      C        0.24570    0.76260    0.55690    1.000
    C30      C        0.25640    0.78190    0.72530    1.000
    C31      C        0.00400    0.65130    0.70380    1.000
    C32      C        0.97000    0.28080    0.39340    1.000
    C33      C        0.27870    0.26320    0.41970    1.000
    C34      C        0.82450    0.73680    0.55360    1.000
    C35      C        0.33750    0.77570    0.73470    1.000
    C36      C        0.04720    0.70530    0.68860    1.000
    C37      C        0.01390    0.26160    0.35740    1.000
    C38      C        0.82970    0.76460    0.59360    1.000
    C39      C        0.51200    0.80750    0.61970    1.000
    C40      C        0.29000    0.25690    0.46020    1.000
    C41      C        0.54200    0.78330    0.58530    1.000
    C42      C        0.18680    0.76120    0.58330    1.000
    C43      C        0.25430    0.23740    0.05690    1.000
    C44      C        0.24360    0.21810    0.22530    1.000
    C45      C        0.49600    0.34870    0.20380    1.000
    C46      C        0.53000    0.71920    0.89340    1.000
    C47      C        0.22130    0.73680    0.91970    1.000
    C48      C        0.67550    0.26320    0.05360    1.000
    C49      C        0.16250    0.22430    0.23470    1.000
    C50      C        0.45280    0.29470    0.18860    1.000
    C51      C        0.48610    0.73840    0.85740    1.000
    C52      C        0.67030    0.23540    0.09360    1.000
    C53      C        0.98800    0.19250    0.11970    1.000
    C54      C        0.21000    0.74310    0.96020    1.000
    C55      C        0.95800    0.21670    0.08530    1.000
    C56      C        0.31320    0.23880    0.08330    1.000
    O1       O        0.65200    0.73120    0.02560    1.000
    O2       O        0.75950    0.77680    0.01620    1.000
    O3       O        0.97390    0.22190    0.84690    1.000
    O4       O        0.11040    0.20270    0.95340    1.000
    O5       O        0.87440    0.23240    0.92170    1.000
    O6       O        0.37600    0.28660    0.91300    1.000
    O7       O        0.45260    0.32400    0.85300    1.000
    O8       O        0.56390    0.31050    0.87950    1.000
    O9       O        0.61780    0.29730    0.80030    1.000
    O10      O        0.11000    0.25580    0.88850    1.000
    O11      O        0.22210    0.29710    0.89900    1.000
    O12      O        0.68780    0.29180    0.92890    1.000
    O13      O        0.76450    0.30000    0.80570    1.000
    O14      O        0.80440    0.28930    0.88230    1.000
    O15      O        0.78440    0.25840    0.74860    1.000
    O16      O        0.92610    0.23890    0.78960    1.000
    O17      O        0.98760    0.15300    0.75600    1.000
    O18      O        0.99130    0.87530    0.01630    1.000
    O19      O        0.49110    0.73420    0.99920    1.000
    O20      O        0.98850    0.79390    0.07830    1.000
    O21      O        0.09840    0.78300    0.10740    1.000
    O22      O        0.03550    0.76430    0.17300    1.000
    O23      O        0.78550    0.79720    0.08800    1.000
    O24      O        0.75140    0.13320    0.88360    1.000
    O25      O        0.69330    0.93380    0.02660    1.000
    O26      O        0.62560    0.02600    0.68670    1.000
    O27      O        0.56550    0.87070    0.82390    1.000
    O28      O        0.23110    0.89230    0.86790    1.000
    O29      O        0.49210    0.85940    0.93860    1.000
    O30      O        0.22820    0.12990    0.87600    1.000
    O31      O        0.69820    0.88870    0.95720    1.000
    O32      O        0.48410    0.14700    0.95020    1.000
    O33      O        0.28490    0.88100    0.95040    1.000
    O34      O        0.81440    0.07400    0.93920    1.000
    O35      O        0.36510    0.15500    0.90390    1.000
    O36      O        0.70160    0.96250    0.73940    1.000
    O37      O        0.17580    0.02130    0.75300    1.000
    O38      O        0.81760    0.02430    0.76410    1.000
    O39      O        0.37000    0.86240    0.89040    1.000
    O40      O        0.16290    0.06600    0.93320    1.000
    O41      O        0.28190    0.01700    0.80360    1.000
    O42      O        0.61010    0.15520    0.90640    1.000
    O43      O        0.42860    0.02200    0.75120    1.000
    O44      O        0.80550    0.00470    0.00370    1.000
    O45      O        0.83020    0.08480    0.82850    1.000
    O46      O        0.42470    0.90400    0.74460    1.000
    O47      O        0.56900    0.02210    0.75300    1.000
    O48      O        0.63150    0.06590    0.85960    1.000
    O49      O        0.69600    0.08880    0.74130    1.000
    O50      O        0.56670    0.15920    0.83340    1.000
    O51      O        0.28420    0.99920    0.95700    1.000
    O52      O        0.57590    0.88290    0.00180    1.000
    O53      O        0.70790    0.13510    0.81140    1.000
    O54      O        0.69450    0.06560    0.03260    1.000
    O55      O        0.71060    0.90020    0.80160    1.000
    O56      O        0.07500    0.12930    0.88360    1.000
    O57      O        0.48180    0.92920    0.05130    1.000
    O58      O        0.09220    0.01040    0.87460    1.000
    O59      O        0.88980    0.01370    0.88590    1.000
    O60      O        0.49400    0.07040    0.80680    1.000
    O61      O        0.49940    0.09270    0.70050    1.000
    O62      O        0.39780    0.11270    0.00820    1.000
    O63      O        0.61070    0.79170    0.95540    1.000
    O64      O        0.27420    0.05830    0.02610    1.000
    O65      O        0.50360    0.95960    0.69520    1.000
    O66      O        0.14720    0.87910    0.99140    1.000
    O67      O        0.28140    0.13750    0.80630    1.000
    O68      O        0.40350    0.95030    0.93660    1.000
    O69      O        0.57420    0.99780    0.00430    1.000
    O70      O        0.75380    0.89420    0.87390    1.000
    O71      O        0.57040    0.14100    0.75520    1.000
    O72      O        0.27670    0.12040    0.96200    1.000
    O73      O        0.39990    0.05570    0.94030    1.000
    O74      O        0.69020    0.12350    0.96690    1.000
    O75      O        0.82330    0.14130    0.75830    1.000
    O76      O        0.35780    0.98990    0.06970    1.000
    O77      O        0.42060    0.87170    0.82070    1.000
    O78      O        0.49430    0.96520    0.80240    1.000
    O79      O        0.36450    0.13780    0.67880    1.000
    O80      O        0.29470    0.08240    0.73820    1.000
    O81      O        0.57390    0.05720    0.94240    1.000
    O82      O        0.68780    0.80740    0.84110    1.000
    O83      O        0.74930    0.01440    0.87780    1.000
    O84      O        0.63360    0.96090    0.85590    1.000
    O85      O        0.35270    0.95970    0.85230    1.000
    O86      O        0.64020    0.91300    0.67610    1.000
    O87      O        0.67870    0.22480    0.85890    1.000
    O88      O        0.42100    0.15700    0.83210    1.000
    O89      O        0.37720    0.02640    0.68440    1.000
    O90      O        0.37520    0.91010    0.67140    1.000
    O91      O        0.48490    0.05580    0.05490    1.000
    O92      O        0.71210    0.02060    0.80920    1.000
    O93      O        0.16220    0.93930    0.92490    1.000
    O94      O        0.83230    0.95440    0.82520    1.000
    O95      O        0.30490    0.22620    0.85040    1.000
    O96      O        0.35090    0.06700    0.85620    1.000
    O97      O        0.82440    0.88850    0.00560    1.000
    O98      O        0.15320    0.08180    0.82140    1.000
    O99      O        0.57170    0.90530    0.74790    1.000
    O100     O        0.56870    0.11700    0.01020    1.000
    O101     O        0.16230    0.99710    0.99310    1.000
    O102     O        0.69050    0.00540    0.96110    1.000
    O103     O        0.60440    0.99530    0.07450    1.000
    O104     O        0.42030    0.14020    0.75540    1.000
    O105     O        0.29950    0.95890    0.73010    1.000
    O106     O        0.39750    0.99740    0.00110    1.000
    O107     O        0.61610    0.86590    0.89510    1.000
    O108     O        0.23280    0.01070    0.87090    1.000
    O109     O        0.28040    0.89770    0.79570    1.000
    O110     O        0.27490    0.92860    0.02000    1.000
    O111     O        0.39930    0.87970    0.99740    1.000
    O112     O        0.15790    0.94890    0.81500    1.000
    O113     O        0.37410    0.79000    0.95150    1.000
    O114     O        0.57690    0.95360    0.93920    1.000
    O115     O        0.81340    0.94520    0.93780    1.000
    O116     O        0.83720    0.90870    0.75310    1.000
    O117     O        0.91000    0.12860    0.88760    1.000
    O118     O        0.23050    0.32470    0.80160    1.000
    O119     O        0.84800    0.26880    0.52560    1.000
    O120     O        0.74050    0.22320    0.51620    1.000
    O121     O        0.52610    0.77810    0.34690    1.000
    O122     O        0.38960    0.79730    0.45340    1.000
    O123     O        0.62560    0.76760    0.42170    1.000
    O124     O        0.12400    0.71340    0.41300    1.000
    O125     O        0.04740    0.67600    0.35300    1.000
    O126     O        0.93610    0.68950    0.37950    1.000
    O127     O        0.88220    0.70270    0.30030    1.000
    O128     O        0.39000    0.74420    0.38850    1.000
    O129     O        0.27790    0.70290    0.39900    1.000
    O130     O        0.81220    0.70820    0.42890    1.000
    O131     O        0.73550    0.70000    0.30570    1.000
    O132     O        0.69560    0.71070    0.38230    1.000
    O133     O        0.71560    0.74160    0.24860    1.000
    O134     O        0.57390    0.76110    0.28960    1.000
    O135     O        0.51240    0.84700    0.25600    1.000
    O136     O        0.50870    0.12470    0.51630    1.000
    O137     O        0.00890    0.26580    0.49920    1.000
    O138     O        0.51150    0.20610    0.57830    1.000
    O139     O        0.40160    0.21700    0.60740    1.000
    O140     O        0.46450    0.23570    0.67300    1.000
    O141     O        0.71450    0.20280    0.58800    1.000
    O142     O        0.74860    0.86680    0.38360    1.000
    O143     O        0.80670    0.06620    0.52660    1.000
    O144     O        0.87440    0.97400    0.18670    1.000
    O145     O        0.93450    0.12930    0.32390    1.000
    O146     O        0.26890    0.10770    0.36790    1.000
    O147     O        0.00790    0.14060    0.43860    1.000
    O148     O        0.27180    0.87010    0.37600    1.000
    O149     O        0.80180    0.11130    0.45720    1.000
    O150     O        0.01590    0.85300    0.45020    1.000
    O151     O        0.21510    0.11900    0.45040    1.000
    O152     O        0.68560    0.92600    0.43920    1.000
    O153     O        0.13490    0.84500    0.40390    1.000
    O154     O        0.79840    0.03750    0.23940    1.000
    O155     O        0.32420    0.97870    0.25300    1.000
    O156     O        0.68240    0.97570    0.26410    1.000
    O157     O        0.13000    0.13760    0.39040    1.000
    O158     O        0.33710    0.93400    0.43320    1.000
    O159     O        0.21810    0.98300    0.30360    1.000
    O160     O        0.88990    0.84480    0.40640    1.000
    O161     O        0.07140    0.97800    0.25120    1.000
    O162     O        0.69450    0.99530    0.50370    1.000
    O163     O        0.66980    0.91520    0.32850    1.000
    O164     O        0.07530    0.09600    0.24460    1.000
    O165     O        0.93100    0.97790    0.25300    1.000
    O166     O        0.86850    0.93410    0.35960    1.000
    O167     O        0.80400    0.91120    0.24130    1.000
    O168     O        0.93330    0.84080    0.33340    1.000
    O169     O        0.21580    0.00080    0.45700    1.000
    O170     O        0.92410    0.11710    0.50180    1.000
    O171     O        0.79210    0.86490    0.31140    1.000
    O172     O        0.80550    0.93440    0.53260    1.000
    O173     O        0.78940    0.09980    0.30160    1.000
    O174     O        0.42500    0.87070    0.38360    1.000
    O175     O        0.01820    0.07080    0.55130    1.000
    O176     O        0.40780    0.98960    0.37460    1.000
    O177     O        0.61020    0.98630    0.38590    1.000
    O178     O        0.00600    0.92960    0.30680    1.000
    O179     O        0.00060    0.90730    0.20050    1.000
    O180     O        0.10220    0.88730    0.50820    1.000
    O181     O        0.88930    0.20830    0.45540    1.000
    O182     O        0.22580    0.94170    0.52610    1.000
    O183     O        0.99640    0.04040    0.19520    1.000
    O184     O        0.35280    0.12090    0.49140    1.000
    O185     O        0.21860    0.86250    0.30630    1.000
    O186     O        0.09650    0.04970    0.43660    1.000
    O187     O        0.92580    0.00220    0.50430    1.000
    O188     O        0.74620    0.10580    0.37390    1.000
    O189     O        0.92960    0.85900    0.25520    1.000
    O190     O        0.22330    0.87960    0.46200    1.000
    O191     O        0.10010    0.94430    0.44030    1.000
    O192     O        0.80980    0.87650    0.46690    1.000
    O193     O        0.67670    0.85870    0.25830    1.000
    O194     O        0.14220    0.01010    0.56970    1.000
    O195     O        0.07940    0.12830    0.32070    1.000
    O196     O        0.00570    0.03480    0.30240    1.000
    O197     O        0.13550    0.86220    0.17880    1.000
    O198     O        0.20530    0.91760    0.23820    1.000
    O199     O        0.92610    0.94280    0.44240    1.000
    O200     O        0.81220    0.19260    0.34110    1.000
    O201     O        0.75070    0.98560    0.37780    1.000
    O202     O        0.86640    0.03910    0.35590    1.000
    O203     O        0.14730    0.04030    0.35230    1.000
    O204     O        0.85980    0.08700    0.17610    1.000
    O205     O        0.82130    0.77520    0.35890    1.000
    O206     O        0.07900    0.84300    0.33210    1.000
    O207     O        0.12280    0.97360    0.18440    1.000
    O208     O        0.12480    0.08990    0.17140    1.000
    O209     O        0.01510    0.94420    0.55490    1.000
    O210     O        0.78790    0.97940    0.30920    1.000
    O211     O        0.33780    0.06070    0.42490    1.000
    O212     O        0.66770    0.04560    0.32520    1.000
    O213     O        0.19510    0.77380    0.35040    1.000
    O214     O        0.14910    0.93300    0.35620    1.000
    O215     O        0.67560    0.11150    0.50560    1.000
    O216     O        0.34680    0.91820    0.32140    1.000
    O217     O        0.92830    0.09470    0.24790    1.000
    O218     O        0.93130    0.88300    0.51020    1.000
    O219     O        0.33770    0.00290    0.49310    1.000
    O220     O        0.80950    0.99460    0.46110    1.000
    O221     O        0.89560    0.00470    0.57450    1.000
    O222     O        0.07970    0.85980    0.25540    1.000
    O223     O        0.20050    0.04110    0.23010    1.000
    O224     O        0.10250    0.00260    0.50110    1.000
    O225     O        0.88390    0.13410    0.39510    1.000
    O226     O        0.26720    0.98930    0.37090    1.000
    O227     O        0.21960    0.10230    0.29570    1.000
    O228     O        0.22510    0.07140    0.52000    1.000
    O229     O        0.10070    0.12030    0.49740    1.000
    O230     O        0.34210    0.05110    0.31500    1.000
    O231     O        0.12590    0.21000    0.45150    1.000
    O232     O        0.92310    0.04640    0.43920    1.000
    O233     O        0.68660    0.05480    0.43780    1.000
    O234     O        0.66280    0.09130    0.25310    1.000
    O235     O        0.59000    0.87140    0.38760    1.000
    O236     O        0.26950    0.67530    0.30160    1.000
    O237     O        0.34800    0.23120    0.47440    1.000
    O238     O        0.24050    0.27680    0.48380    1.000
    O239     O        0.02610    0.72190    0.65310    1.000
    O240     O        0.88960    0.70270    0.54660    1.000
    O241     O        0.12560    0.73240    0.57830    1.000
    O242     O        0.62400    0.78660    0.58700    1.000
    O243     O        0.54740    0.82400    0.64700    1.000
    O244     O        0.43610    0.81050    0.62050    1.000
    O245     O        0.38220    0.79730    0.69970    1.000
    O246     O        0.89000    0.75580    0.61150    1.000
    O247     O        0.77790    0.79710    0.60100    1.000
    O248     O        0.31220    0.79180    0.57110    1.000
    O249     O        0.23550    0.80000    0.69430    1.000
    O250     O        0.19560    0.78930    0.61770    1.000
    O251     O        0.21560    0.75840    0.75140    1.000
    O252     O        0.07390    0.73890    0.71040    1.000
    O253     O        0.01240    0.65300    0.74400    1.000
    O254     O        0.00870    0.37530    0.48370    1.000
    O255     O        0.50890    0.23420    0.50080    1.000
    O256     O        0.01150    0.29390    0.42170    1.000
    O257     O        0.90160    0.28300    0.39260    1.000
    O258     O        0.96450    0.26430    0.32700    1.000
    O259     O        0.21450    0.29720    0.41200    1.000
    O260     O        0.24860    0.63320    0.61640    1.000
    O261     O        0.30670    0.43380    0.47340    1.000
    O262     O        0.37440    0.52600    0.81330    1.000
    O263     O        0.43450    0.37070    0.67610    1.000
    O264     O        0.76890    0.39230    0.63210    1.000
    O265     O        0.50790    0.35940    0.56140    1.000
    O266     O        0.77180    0.62990    0.62400    1.000
    O267     O        0.30180    0.38870    0.54280    1.000
    O268     O        0.51590    0.64700    0.54980    1.000
    O269     O        0.71510    0.38100    0.54960    1.000
    O270     O        0.18560    0.57400    0.56080    1.000
    O271     O        0.63490    0.65500    0.59610    1.000
    O272     O        0.29840    0.46250    0.76060    1.000
    O273     O        0.82420    0.52130    0.74700    1.000
    O274     O        0.18240    0.52430    0.73590    1.000
    O275     O        0.63000    0.36240    0.60960    1.000
    O276     O        0.83710    0.56600    0.56680    1.000
    O277     O        0.71810    0.51700    0.69640    1.000
    O278     O        0.38990    0.65520    0.59360    1.000
    O279     O        0.57140    0.52200    0.74880    1.000
    O280     O        0.19450    0.50470    0.49630    1.000
    O281     O        0.16980    0.58480    0.67150    1.000
    O282     O        0.57530    0.40400    0.75540    1.000
    O283     O        0.43100    0.52210    0.74700    1.000
    O284     O        0.36850    0.56590    0.64040    1.000
    O285     O        0.30400    0.58880    0.75870    1.000
    O286     O        0.43330    0.65920    0.66660    1.000
    O287     O        0.71580    0.49920    0.54300    1.000
    O288     O        0.42410    0.38290    0.49820    1.000
    O289     O        0.29210    0.63510    0.68860    1.000
    O290     O        0.30550    0.56560    0.46740    1.000
    O291     O        0.28940    0.40020    0.69840    1.000
    O292     O        0.92500    0.62930    0.61640    1.000
    O293     O        0.51820    0.42920    0.44870    1.000
    O294     O        0.90780    0.51040    0.62540    1.000
    O295     O        0.11020    0.51370    0.61410    1.000
    O296     O        0.50600    0.57040    0.69320    1.000
    O297     O        0.50060    0.59270    0.79950    1.000
    O298     O        0.60220    0.61270    0.49180    1.000
    O299     O        0.38930    0.29170    0.54460    1.000
    O300     O        0.72580    0.55830    0.47390    1.000
    O301     O        0.49640    0.45960    0.80480    1.000
    O302     O        0.85280    0.37910    0.50860    1.000
    O303     O        0.71860    0.63750    0.69370    1.000
    O304     O        0.59650    0.45030    0.56340    1.000
    O305     O        0.42580    0.49780    0.49570    1.000
    O306     O        0.24620    0.39420    0.62610    1.000
    O307     O        0.42960    0.64100    0.74480    1.000
    O308     O        0.72330    0.62040    0.53800    1.000
    O309     O        0.60010    0.55570    0.55970    1.000
    O310     O        0.30980    0.62350    0.53310    1.000
    O311     O        0.17670    0.64130    0.74170    1.000
    O312     O        0.64220    0.48990    0.43030    1.000
    O313     O        0.57940    0.37170    0.67930    1.000
    O314     O        0.50570    0.46520    0.69760    1.000
    O315     O        0.63550    0.63780    0.82120    1.000
    O316     O        0.70530    0.58240    0.76180    1.000
    O317     O        0.42610    0.55720    0.55760    1.000
    O318     O        0.31220    0.30740    0.65890    1.000
    O319     O        0.25070    0.51440    0.62220    1.000
    O320     O        0.36640    0.46090    0.64410    1.000
    O321     O        0.64730    0.45970    0.64770    1.000
    O322     O        0.35980    0.41300    0.82390    1.000
    O323     O        0.32130    0.72480    0.64110    1.000
    O324     O        0.57900    0.65700    0.66790    1.000
    O325     O        0.62280    0.52640    0.81560    1.000
    O326     O        0.62480    0.41010    0.82860    1.000
    O327     O        0.51510    0.55580    0.44510    1.000
    O328     O        0.28790    0.52060    0.69080    1.000
    O329     O        0.83780    0.43930    0.57510    1.000
    O330     O        0.16770    0.45440    0.67480    1.000
    O331     O        0.69510    0.72620    0.64960    1.000
    O332     O        0.64910    0.56700    0.64380    1.000
    O333     O        0.17560    0.38850    0.49440    1.000
    O334     O        0.84680    0.58180    0.67860    1.000
    O335     O        0.42830    0.40530    0.75210    1.000
    O336     O        0.43130    0.61700    0.48980    1.000
    O337     O        0.83770    0.49710    0.50690    1.000
    O338     O        0.30950    0.50540    0.53890    1.000
    O339     O        0.39560    0.49530    0.42550    1.000
    O340     O        0.57970    0.64020    0.74460    1.000
    O341     O        0.70050    0.45890    0.76990    1.000
    O342     O        0.60250    0.49740    0.49890    1.000
    O343     O        0.38390    0.36590    0.60490    1.000
    O344     O        0.76720    0.51070    0.62910    1.000
    O345     O        0.71960    0.39770    0.70430    1.000
    O346     O        0.72510    0.42860    0.48000    1.000
    O347     O        0.60070    0.37970    0.50260    1.000
    O348     O        0.84210    0.44890    0.68500    1.000
    O349     O        0.62590    0.29000    0.54850    1.000
    O350     O        0.42310    0.45360    0.56080    1.000
    O351     O        0.18660    0.44520    0.56220    1.000
    O352     O        0.16280    0.40870    0.74690    1.000
    O353     O        0.09000    0.62860    0.61240    1.000
    O354     O        0.76950    0.82470    0.69840    1.000
    O355     O        0.15200    0.76880    0.97440    1.000
    O356     O        0.25950    0.72320    0.98380    1.000
    O357     O        0.47390    0.27810    0.15310    1.000
    O358     O        0.61040    0.29730    0.04660    1.000
    O359     O        0.37440    0.26760    0.07830    1.000
    O360     O        0.87600    0.21340    0.08700    1.000
    O361     O        0.95260    0.17600    0.14700    1.000
    O362     O        0.06390    0.18950    0.12050    1.000
    O363     O        0.11780    0.20270    0.19970    1.000
    O364     O        0.61000    0.24420    0.11150    1.000
    O365     O        0.72210    0.20290    0.10100    1.000
    O366     O        0.18780    0.20820    0.07110    1.000
    O367     O        0.26450    0.20000    0.19430    1.000
    O368     O        0.30440    0.21070    0.11770    1.000
    O369     O        0.28440    0.24160    0.25140    1.000
    O370     O        0.42610    0.26110    0.21040    1.000
    O371     O        0.48760    0.34700    0.24400    1.000
    O372     O        0.49130    0.62470    0.98370    1.000
    O373     O        0.99110    0.76580    0.00080    1.000
    O374     O        0.48850    0.70610    0.92170    1.000
    O375     O        0.59840    0.71700    0.89260    1.000
    O376     O        0.53550    0.73570    0.82700    1.000
    O377     O        0.28550    0.70280    0.91200    1.000
    O378     O        0.25140    0.36680    0.11640    1.000
    O379     O        0.19330    0.56620    0.97340    1.000
    O380     O        0.12560    0.47400    0.31330    1.000
    O381     O        0.06550    0.62930    0.17610    1.000
    O382     O        0.73110    0.60770    0.13210    1.000
    O383     O        0.99210    0.64060    0.06140    1.000
    O384     O        0.72820    0.37010    0.12400    1.000
    O385     O        0.19820    0.61130    0.04280    1.000
    O386     O        0.98410    0.35300    0.04980    1.000
    O387     O        0.78490    0.61900    0.04960    1.000
    O388     O        0.31440    0.42600    0.06080    1.000
    O389     O        0.86510    0.34500    0.09610    1.000
    O390     O        0.20160    0.53750    0.26060    1.000
    O391     O        0.67580    0.47870    0.24700    1.000
    O392     O        0.31760    0.47570    0.23590    1.000
    O393     O        0.87000    0.63760    0.10960    1.000
    O394     O        0.66290    0.43400    0.06680    1.000
    O395     O        0.78190    0.48300    0.19640    1.000
    O396     O        0.11010    0.34480    0.09360    1.000
    O397     O        0.92860    0.47800    0.24880    1.000
    O398     O        0.30550    0.49530    0.99630    1.000
    O399     O        0.33020    0.41520    0.17150    1.000
    O400     O        0.92470    0.59600    0.25540    1.000
    O401     O        0.06900    0.47790    0.24700    1.000
    O402     O        0.13150    0.43410    0.14040    1.000
    O403     O        0.19600    0.41120    0.25870    1.000
    O404     O        0.06670    0.34080    0.16660    1.000
    O405     O        0.78420    0.50080    0.04300    1.000
    O406     O        0.07590    0.61710    0.99820    1.000
    O407     O        0.20790    0.36490    0.18860    1.000
    O408     O        0.19450    0.43440    0.96740    1.000
    O409     O        0.21060    0.59980    0.19840    1.000
    O410     O        0.57500    0.37070    0.11640    1.000
    O411     O        0.98180    0.57080    0.94870    1.000
    O412     O        0.59220    0.48960    0.12540    1.000
    O413     O        0.38980    0.48630    0.11410    1.000
    O414     O        0.99400    0.42960    0.19320    1.000
    O415     O        0.99940    0.40730    0.29950    1.000
    O416     O        0.89780    0.38730    0.99180    1.000
    O417     O        0.11070    0.70830    0.04460    1.000
    O418     O        0.77420    0.44170    0.97390    1.000
    O419     O        0.00360    0.54040    0.30480    1.000
    O420     O        0.64720    0.62090    0.00860    1.000
    O421     O        0.78140    0.36250    0.19370    1.000
    O422     O        0.90350    0.54970    0.06340    1.000
    O423     O        0.07420    0.50220    0.99570    1.000
    O424     O        0.25380    0.60580    0.12610    1.000
    O425     O        0.07040    0.35900    0.24480    1.000
    O426     O        0.77670    0.37960    0.03800    1.000
    O427     O        0.89990    0.44430    0.05970    1.000
    O428     O        0.19020    0.37650    0.03310    1.000
    O429     O        0.32330    0.35870    0.24170    1.000
    O430     O        0.85780    0.51010    0.93030    1.000
    O431     O        0.92060    0.62830    0.17930    1.000
    O432     O        0.99430    0.53480    0.19760    1.000
    O433     O        0.86450    0.36220    0.32120    1.000
    O434     O        0.79470    0.41760    0.26180    1.000
    O435     O        0.07390    0.44280    0.05760    1.000
    O436     O        0.18780    0.69260    0.15890    1.000
    O437     O        0.24930    0.48560    0.12220    1.000
    O438     O        0.13360    0.53910    0.14410    1.000
    O439     O        0.85270    0.54030    0.14770    1.000
    O440     O        0.14020    0.58700    0.32390    1.000
    O441     O        0.17870    0.27520    0.14110    1.000
    O442     O        0.92100    0.34300    0.16790    1.000
    O443     O        0.87720    0.47360    0.31560    1.000
    O444     O        0.87520    0.58990    0.32860    1.000
    O445     O        0.98490    0.44420    0.94510    1.000
    O446     O        0.21210    0.47940    0.19080    1.000
    O447     O        0.66220    0.56070    0.07510    1.000
    O448     O        0.33230    0.54560    0.17480    1.000
    O449     O        0.80490    0.27380    0.14960    1.000
    O450     O        0.85090    0.43300    0.14380    1.000
    O451     O        0.32440    0.61150    0.99440    1.000
    O452     O        0.65320    0.41820    0.17860    1.000
    O453     O        0.07170    0.59470    0.25210    1.000
    O454     O        0.06870    0.38300    0.98980    1.000
    O455     O        0.66230    0.50290    0.00690    1.000
    O456     O        0.19050    0.49460    0.03890    1.000
    O457     O        0.10440    0.50470    0.92550    1.000
    O458     O        0.92030    0.35980    0.24460    1.000
    O459     O        0.79950    0.54110    0.26990    1.000
    O460     O        0.89750    0.50260    0.99890    1.000
    O461     O        0.11610    0.63410    0.10490    1.000
    O462     O        0.73280    0.48930    0.12910    1.000
    O463     O        0.78040    0.60230    0.20430    1.000
    O464     O        0.77490    0.57140    0.98000    1.000
    O465     O        0.89930    0.62030    0.00260    1.000
    O466     O        0.65790    0.55110    0.18500    1.000
    O467     O        0.87410    0.71000    0.04850    1.000
    O468     O        0.07690    0.54640    0.06080    1.000
    O469     O        0.31340    0.55480    0.06220    1.000
    O470     O        0.33720    0.59130    0.24690    1.000
    O471     O        0.41000    0.37140    0.11240    1.000
    O472     O        0.73050    0.17530    0.19840    1.000
