data_functionalizedCrystal
_audit_creation_method	'EQeq! by Chris Wilmer'
_symmetry_space_group_name_H-M	'P1'
_symmetry_Int_Tables_number	1
_symmetry_cell_setting	triclinic
loop_
_symmetry_equiv_pos_as_xyz
  x,y,z
_cell_length_a	8.061
_cell_length_b	8.5497
_cell_length_c	19.74
_cell_angle_alpha	88.2567
_cell_angle_beta	86.3
_cell_angle_gamma	61.8733
loop_
_atom_site_label
_atom_site_type_symbol
_atom_site_fract_x
_atom_site_fract_y
_atom_site_fract_z
_atom_site_charge
Mof_Nd	Nd	0.70784	0.07546	0.01188	2.421
Mof_Nd	Nd	0.2167	0.07546	0.48812	2.402
Mof_Nd	Nd	0.29216	0.92454	0.98812	2.42
Mof_Nd	Nd	0.7833	0.92454	0.51188	2.401
Mof_H 	H 	0.807	0.286	0.162	0.157
Mof_H 	H 	0.995	0.244	0.199	0.163
Mof_H 	H 	0.852	0.548	0.175	-0.068
Mof_H 	H 	0.03	0.458	0.122	-0.062
Mof_H 	H 	0.654	0.556	0.091	0.136
Mof_H 	H 	0.833	0.468	0.038	0.139
Mof_H 	H 	0.444	0.448	0.209	0.135
Mof_H 	H 	0.255	0.466	0.18	0.148
Mof_H 	H 	0.317	0.19	0.233	-0.022
Mof_H 	H 	0.907	0.286	0.338	0.162
Mof_H 	H 	0.761	0.244	0.301	0.167
Mof_H 	H 	0.6	0.548	0.325	-0.068
Mof_H 	H 	0.512	0.458	0.378	-0.058
Mof_H 	H 	0.79	0.556	0.409	0.136
Mof_H 	H 	0.699	0.468	0.462	0.138
Mof_H 	H 	0.108	0.448	0.291	0.133
Mof_H 	H 	0.279	0.466	0.32	0.148
Mof_H 	H 	0.493	0.19	0.267	-0.02
Mof_H 	H 	0.193	0.714	0.838	0.157
Mof_H 	H 	0.005	0.756	0.801	0.163
Mof_H 	H 	0.148	0.452	0.825	-0.068
Mof_H 	H 	0.97	0.542	0.878	-0.062
Mof_H 	H 	0.346	0.444	0.909	0.136
Mof_H 	H 	0.167	0.532	0.962	0.139
Mof_H 	H 	0.556	0.552	0.791	0.135
Mof_H 	H 	0.745	0.534	0.82	0.148
Mof_H 	H 	0.683	0.81	0.767	-0.022
Mof_H 	H 	0.093	0.714	0.662	0.162
Mof_H 	H 	0.239	0.756	0.699	0.167
Mof_H 	H 	0.4	0.452	0.675	-0.068
Mof_H 	H 	0.488	0.542	0.622	-0.058
Mof_H 	H 	0.21	0.444	0.591	0.136
Mof_H 	H 	0.301	0.532	0.538	0.138
Mof_H 	H 	0.892	0.552	0.709	0.133
Mof_H 	H 	0.721	0.534	0.68	0.148
Mof_H 	H 	0.507	0.81	0.733	-0.02
Mof_C 	C 	0.0469	0.1486	0.1019	0.522
Mof_C 	C 	0.9313	0.2814	0.1553	-0.506
Mof_C 	C 	0.9064	0.4682	0.1354	0.283
Mof_C 	C 	0.7773	0.5486	0.0779	-0.492
Mof_C 	C 	0.7522	0.7274	0.0573	0.541
Mof_C 	C 	0.4965	0.2744	0.1298	0.434
Mof_C 	C 	0.3834	0.381	0.1921	-0.43
Mof_C 	C 	0.8045	0.1486	0.3981	0.544
Mof_C 	C 	0.7873	0.2814	0.3447	-0.521
Mof_C 	C 	0.6254	0.4682	0.3646	0.283
Mof_C 	C 	0.6741	0.5486	0.4221	-0.492
Mof_C 	C 	0.5204	0.7274	0.4427	0.539
Mof_C 	C 	0.2291	0.2744	0.3702	0.433
Mof_C 	C 	0.2356	0.381	0.3079	-0.43
Mof_C 	C 	0.9531	0.8514	0.8981	0.522
Mof_C 	C 	0.0687	0.7186	0.8447	-0.506
Mof_C 	C 	0.0936	0.5318	0.8646	0.283
Mof_C 	C 	0.2227	0.4514	0.9221	-0.492
Mof_C 	C 	0.2478	0.2726	0.9427	0.541
Mof_C 	C 	0.5035	0.7256	0.8702	0.434
Mof_C 	C 	0.6166	0.619	0.8079	-0.43
Mof_C 	C 	0.1955	0.8514	0.6019	0.544
Mof_C 	C 	0.2127	0.7186	0.6553	-0.521
Mof_C 	C 	0.3746	0.5318	0.6354	0.283
Mof_C 	C 	0.3259	0.4514	0.5779	-0.492
Mof_C 	C 	0.4796	0.2726	0.5573	0.539
Mof_C 	C 	0.7709	0.7256	0.6298	0.433
Mof_C 	C 	0.7644	0.619	0.6921	-0.43
Mof_C 	C 	0.3669	0.2662	0.25	0.215
Mof_C 	C 	0.6331	0.7338	0.75	0.215
Mof_O 	O 	0.9684	0.0898	0.0621	-0.727
Mof_O 	O 	0.7809	0.9016	0.9058	-0.56
Mof_O 	O 	0.595	0.8396	0.034	-0.722
Mof_O 	O 	0.8828	0.7672	0.0607	-0.546
Mof_O 	O 	0.5991	0.1104	0.1328	-0.504
Mof_O 	O 	0.4903	0.3548	0.074	-0.548
Mof_O 	O 	0.9418	0.0898	0.4379	-0.73
Mof_O 	O 	0.3175	0.9016	0.5942	-0.558
Mof_O 	O 	0.5654	0.8396	0.466	-0.72
Mof_O 	O 	0.35	0.7672	0.4393	-0.542
Mof_O 	O 	0.2905	0.1104	0.3672	-0.505
Mof_O 	O 	0.1549	0.3548	0.426	-0.547
Mof_O 	O 	0.0316	0.9102	0.9379	-0.727
Mof_O 	O 	0.2191	0.0984	0.0942	-0.56
Mof_O 	O 	0.405	0.1604	0.966	-0.722
Mof_O 	O 	0.1172	0.2328	0.9393	-0.546
Mof_O 	O 	0.4009	0.8896	0.8672	-0.504
Mof_O 	O 	0.5097	0.6452	0.926	-0.548
Mof_O 	O 	0.0582	0.9102	0.5621	-0.73
Mof_O 	O 	0.6825	0.0984	0.4058	-0.558
Mof_O 	O 	0.4346	0.1604	0.534	-0.72
Mof_O 	O 	0.65	0.2328	0.5607	-0.542
Mof_O 	O 	0.7095	0.8896	0.6328	-0.505
Mof_O 	O 	0.8451	0.6452	0.574	-0.547
_end
