data_functionalizedCrystal
_audit_creation_method	'EQeq! by Chris Wilmer'
_symmetry_space_group_name_H-M	'P1'
_symmetry_Int_Tables_number	1
_symmetry_cell_setting	triclinic
loop_
_symmetry_equiv_pos_as_xyz
  x,y,z
_cell_length_a	32.983
_cell_length_b	14.9969
_cell_length_c	31.033
_cell_angle_alpha	90
_cell_angle_beta	100.553
_cell_angle_gamma	90
loop_
_atom_site_label
_atom_site_type_symbol
_atom_site_fract_x
_atom_site_fract_y
_atom_site_fract_z
_atom_site_charge
Mof_N 	N 	0.1871	0.4901	0.279	-0.327
Mof_C 	C 	0.2115	0.5283	0.3124	0.089
Mof_H 	H 	0.2251	0.4912	0.3353	-0.034
Mof_C 	C 	0.2184	0.6199	0.3158	-0.138
Mof_H 	H 	0.2365	0.6447	0.3402	0.106
Mof_C 	C 	0.1978	0.6734	0.2825	0.098
Mof_C 	C 	0.1728	0.6327	0.2469	-0.187
Mof_H 	H 	0.1597	0.6674	0.2227	0.094
Mof_C 	C 	0.1674	0.5425	0.2472	0.146
Mof_H 	H 	0.1488	0.5159	0.2237	-0.159
Mof_C 	C 	0.2037	0.7718	0.2824	0.114
Mof_N 	N 	0.2318	0.809	0.3133	-0.104
Mof_C 	C 	0.2372	0.8954	0.3088	0.122
Mof_N 	N 	0.2179	0.9448	0.2749	-0.138
Mof_C 	C 	0.1902	0.9016	0.2465	0.115
Mof_N 	N 	0.1805	0.8158	0.2493	-0.138
Mof_N 	N 	0.3222	0.0324	0.4064	-0.287
Mof_C 	C 	0.2977	0.076	0.3737	0.064
Mof_H 	H 	0.2998	0.1391	0.3727	0.001
Mof_C 	C 	0.2701	0.0346	0.3421	-0.147
Mof_H 	H 	0.2531	0.0684	0.3199	0.112
Mof_C 	C 	0.2672	0.9431	0.3426	0.086
Mof_C 	C 	0.2924	0.8967	0.3755	-0.147
Mof_H 	H 	0.2915	0.8334	0.3767	0.125
Mof_C 	C 	0.319	0.945	0.4069	0.057
Mof_H 	H 	0.3359	0.9131	0.4299	-0.017
Mof_N 	N 	0.1229	0.0456	0.1383	-0.264
Mof_C 	C 	0.1173	0.9587	0.1437	0.072
Mof_H 	H 	0.0969	0.9289	0.1232	-0.003
Mof_C 	C 	0.1395	0.9099	0.1774	-0.109
Mof_H 	H 	0.1352	0.8474	0.1791	0.084
Mof_C 	C 	0.1675	0.9518	0.2081	0.047
Mof_C 	C 	0.1742	0.0427	0.2028	-0.074
Mof_H 	H 	0.1941	0.0739	0.2233	0.143
Mof_C 	C 	0.1515	0.0863	0.1673	0.036
Mof_H 	H 	0.1565	0.1479	0.1635	0.113
Mof_Zn	Zn	0.08071	0.11981	0.09426	1.148
Mof_I 	I 	0.02415	0.1546	0.13444	-0.077
Mof_I 	I 	0.11998	0.2337	0.05727	-0.299
Mof_N 	N 	0.06321	0.0198	0.04816	-0.268
Mof_C 	C 	0.0865	0.0033	0.0177	0.063
Mof_H 	H 	0.1072	0.0451	0.0138	-0.009
Mof_C 	C 	0.0814	0.928	0.9923	-0.113
Mof_H 	H 	0.0989	0.9171	0.9717	0.081
Mof_C 	C 	0.0508	0.8688	0.9968	0.053
Mof_C 	C 	0.0249	0.8875	0.0262	-0.115
Mof_H 	H 	0.0029	0.8485	0.0291	0.069
Mof_C 	C 	0.0319	0.9642	0.0513	0.062
Mof_H 	H 	0.0141	0.978	0.0712	-0.007
Mof_C 	C 	0.0461	0.785	0.9705	0.084
Mof_N 	N 	0.01611	0.7276	0.9772	-0.149
Mof_C 	C 	0.0123	0.6574	0.9504	0.072
Mof_N 	N 	0.03575	0.6393	0.9207	-0.151
Mof_C 	C 	0.0646	0.6992	0.9185	0.09
Mof_N 	N 	0.07149	0.7731	0.9426	-0.138
Mof_N 	N 	0.9132	0.48	0.9574	-0.277
Mof_C 	C 	0.9281	0.5329	0.9913	0.065
Mof_H 	H 	0.9161	0.5306	0.0169	-0.006
Mof_C 	C 	0.9604	0.5904	0.9903	-0.12
Mof_H 	H 	0.9701	0.6278	0.0147	0.077
Mof_C 	C 	0.9786	0.5937	0.9537	0.038
Mof_C 	C 	0.9631	0.5384	0.9188	-0.153
Mof_H 	H 	0.9745	0.5389	0.8928	0.023
Mof_C 	C 	0.931	0.4828	0.923	0.052
Mof_H 	H 	0.921	0.4438	0.8993	-0.057
Mof_Zn	Zn	0.86105	0.40234	0.9554	1.164
Mof_I 	I 	0.87455	0.25322	0.92465	-0.395
Mof_I 	I 	0.83253	0.42909	0.02504	-0.375
Mof_N 	N 	0.1417	0.6603	0.8239	-0.303
Mof_C 	C 	0.1075	0.6109	0.8224	0.066
Mof_H 	H 	0.1003	0.5688	0.7994	-0.089
Mof_C 	C 	0.0825	0.6196	0.8536	-0.13
Mof_H 	H 	0.0595	0.5812	0.8532	0.053
Mof_C 	C 	0.0917	0.686	0.8856	0.053
Mof_C 	C 	0.1262	0.7375	0.8865	-0.111
Mof_H 	H 	0.1335	0.782	0.9083	0.08
Mof_C 	C 	0.1505	0.723	0.8546	0.067
Mof_H 	H 	0.1741	0.7593	0.8549	-0.006
Mof_Zn	Zn	0.17319	0.64355	0.77303	0.895
Mof_I 	I 	0.12868	0.66846	0.69848	4.752
Mof_I 	I 	0.23799	0.73141	0.80011	-0.008
Mof_I 	I 	0.1518	0.6997	0.7119	-5.352
Mof_I 	I 	0.2511	0.7236	0.8172	-0.305
Mof_Zn	Zn	0.1896	0.6517	0.7877	0.798
Mof_I 	I 	0.015	0.1361	0.1318	-0.34
Mof_I 	I 	0.1154	0.2407	0.0648	-0.117
Mof_N 	N 	0.6871	0.9901	0.279	-0.327
Mof_C 	C 	0.7115	0.0283	0.3124	0.09
Mof_H 	H 	0.7251	0.9912	0.3353	-0.034
Mof_C 	C 	0.7184	0.1199	0.3158	-0.137
Mof_H 	H 	0.7365	0.1447	0.3402	0.107
Mof_C 	C 	0.6978	0.1734	0.2825	0.1
Mof_C 	C 	0.6728	0.1327	0.2469	-0.186
Mof_H 	H 	0.6597	0.1674	0.2227	0.095
Mof_C 	C 	0.6674	0.0425	0.2472	0.147
Mof_H 	H 	0.6488	0.0159	0.2237	-0.158
Mof_C 	C 	0.7037	0.2718	0.2824	0.115
Mof_N 	N 	0.7318	0.309	0.3133	-0.103
Mof_C 	C 	0.7372	0.3954	0.3088	0.123
Mof_N 	N 	0.7179	0.4448	0.2749	-0.137
Mof_C 	C 	0.6902	0.4016	0.2465	0.116
Mof_N 	N 	0.6805	0.3158	0.2493	-0.137
Mof_N 	N 	0.8222	0.5324	0.4064	-0.287
Mof_C 	C 	0.7977	0.576	0.3737	0.065
Mof_H 	H 	0.7998	0.6391	0.3727	0.001
Mof_C 	C 	0.7701	0.5346	0.3421	-0.147
Mof_H 	H 	0.7531	0.5684	0.3199	0.112
Mof_C 	C 	0.7672	0.4431	0.3426	0.087
Mof_C 	C 	0.7924	0.3967	0.3755	-0.148
Mof_H 	H 	0.7915	0.3334	0.3767	0.125
Mof_C 	C 	0.819	0.445	0.4069	0.057
Mof_H 	H 	0.8359	0.4131	0.4299	-0.017
Mof_N 	N 	0.6229	0.5456	0.1383	-0.264
Mof_C 	C 	0.6173	0.4587	0.1437	0.072
Mof_H 	H 	0.5969	0.4289	0.1232	-0.004
Mof_C 	C 	0.6395	0.4099	0.1774	-0.109
Mof_H 	H 	0.6352	0.3474	0.1791	0.084
Mof_C 	C 	0.6675	0.4518	0.2081	0.048
Mof_C 	C 	0.6742	0.5427	0.2028	-0.075
Mof_H 	H 	0.6941	0.5739	0.2233	0.143
Mof_C 	C 	0.6515	0.5863	0.1673	0.037
Mof_H 	H 	0.6565	0.6479	0.1635	0.113
Mof_Zn	Zn	0.58071	0.61981	0.09426	1.148
Mof_I 	I 	0.52415	0.6546	0.13444	-0.077
Mof_I 	I 	0.61998	0.7337	0.05727	-0.299
Mof_N 	N 	0.56321	0.5198	0.04816	-0.268
Mof_C 	C 	0.5865	0.5033	0.0177	0.064
Mof_H 	H 	0.6072	0.5451	0.0138	-0.009
Mof_C 	C 	0.5814	0.428	0.9923	-0.113
Mof_H 	H 	0.5989	0.4171	0.9717	0.081
Mof_C 	C 	0.5508	0.3688	0.9968	0.053
Mof_C 	C 	0.5249	0.3875	0.0262	-0.115
Mof_H 	H 	0.5029	0.3485	0.0291	0.069
Mof_C 	C 	0.5319	0.4642	0.0513	0.062
Mof_H 	H 	0.5141	0.478	0.0712	-0.007
Mof_C 	C 	0.5461	0.285	0.9705	0.084
Mof_N 	N 	0.51611	0.2276	0.9772	-0.149
Mof_C 	C 	0.5123	0.1574	0.9504	0.072
Mof_N 	N 	0.53575	0.1393	0.9207	-0.151
Mof_C 	C 	0.5646	0.1992	0.9185	0.09
Mof_N 	N 	0.57149	0.2731	0.9426	-0.138
Mof_N 	N 	0.4132	0.98	0.9574	-0.277
Mof_C 	C 	0.4281	0.0329	0.9913	0.065
Mof_H 	H 	0.4161	0.0306	0.0169	-0.006
Mof_C 	C 	0.4604	0.0904	0.9903	-0.12
Mof_H 	H 	0.4701	0.1278	0.0147	0.076
Mof_C 	C 	0.4786	0.0937	0.9537	0.038
Mof_C 	C 	0.4631	0.0384	0.9188	-0.153
Mof_H 	H 	0.4745	0.0389	0.8928	0.023
Mof_C 	C 	0.431	0.9828	0.923	0.052
Mof_H 	H 	0.421	0.9438	0.8993	-0.057
Mof_Zn	Zn	0.36105	0.90234	0.9554	1.164
Mof_I 	I 	0.37455	0.75322	0.92465	-0.395
Mof_I 	I 	0.33253	0.92909	0.02504	-0.375
Mof_N 	N 	0.6417	0.1603	0.8239	-0.303
Mof_C 	C 	0.6075	0.1109	0.8224	0.066
Mof_H 	H 	0.6003	0.0688	0.7994	-0.089
Mof_C 	C 	0.5825	0.1196	0.8536	-0.13
Mof_H 	H 	0.5595	0.0812	0.8532	0.053
Mof_C 	C 	0.5917	0.186	0.8856	0.053
Mof_C 	C 	0.6262	0.2375	0.8865	-0.111
Mof_H 	H 	0.6335	0.282	0.9083	0.08
Mof_C 	C 	0.6505	0.223	0.8546	0.067
Mof_H 	H 	0.6741	0.2593	0.8549	-0.006
Mof_Zn	Zn	0.67319	0.14355	0.77303	0.895
Mof_I 	I 	0.62868	0.16846	0.69848	4.751
Mof_I 	I 	0.73799	0.23141	0.80011	-0.008
Mof_I 	I 	0.6518	0.1997	0.7119	-5.351
Mof_I 	I 	0.7511	0.2236	0.8172	-0.305
Mof_Zn	Zn	0.6896	0.1517	0.7877	0.798
Mof_I 	I 	0.515	0.6361	0.1318	-0.34
Mof_I 	I 	0.6154	0.7407	0.0648	-0.117
Mof_N 	N 	0.1871	0.5099	0.779	-0.326
Mof_C 	C 	0.2115	0.4717	0.8124	0.09
Mof_H 	H 	0.2251	0.5088	0.8353	-0.033
Mof_C 	C 	0.2184	0.3801	0.8158	-0.137
Mof_H 	H 	0.2365	0.3553	0.8402	0.107
Mof_C 	C 	0.1978	0.3266	0.7825	0.099
Mof_C 	C 	0.1728	0.3673	0.7469	-0.186
Mof_H 	H 	0.1597	0.3326	0.7227	0.095
Mof_C 	C 	0.1674	0.4575	0.7472	0.147
Mof_H 	H 	0.1488	0.4841	0.7237	-0.158
Mof_C 	C 	0.2037	0.2282	0.7824	0.115
Mof_N 	N 	0.2318	0.191	0.8133	-0.103
Mof_C 	C 	0.2372	0.1046	0.8088	0.123
Mof_N 	N 	0.2179	0.0552	0.7749	-0.137
Mof_C 	C 	0.1902	0.0984	0.7465	0.116
Mof_N 	N 	0.1805	0.1842	0.7493	-0.137
Mof_N 	N 	0.3222	0.9676	0.9064	-0.286
Mof_C 	C 	0.2977	0.924	0.8737	0.065
Mof_H 	H 	0.2998	0.8609	0.8727	0.001
Mof_C 	C 	0.2701	0.9654	0.8421	-0.147
Mof_H 	H 	0.2531	0.9316	0.8199	0.112
Mof_C 	C 	0.2672	0.0569	0.8426	0.086
Mof_C 	C 	0.2924	0.1033	0.8755	-0.147
Mof_H 	H 	0.2915	0.1666	0.8767	0.125
Mof_C 	C 	0.319	0.055	0.9069	0.057
Mof_H 	H 	0.3359	0.0869	0.9299	-0.017
Mof_N 	N 	0.1229	0.9544	0.6383	-0.264
Mof_C 	C 	0.1173	0.0413	0.6437	0.072
Mof_H 	H 	0.0969	0.0711	0.6232	-0.003
Mof_C 	C 	0.1395	0.0901	0.6774	-0.109
Mof_H 	H 	0.1352	0.1526	0.6791	0.084
Mof_C 	C 	0.1675	0.0482	0.7081	0.047
Mof_C 	C 	0.1742	0.9573	0.7028	-0.074
Mof_H 	H 	0.1941	0.9261	0.7233	0.143
Mof_C 	C 	0.1515	0.9137	0.6673	0.036
Mof_H 	H 	0.1565	0.8521	0.6635	0.113
Mof_Zn	Zn	0.08071	0.88019	0.59426	1.148
Mof_I 	I 	0.02415	0.8454	0.63444	-0.077
Mof_I 	I 	0.11998	0.7663	0.55727	-0.299
Mof_N 	N 	0.06321	0.9802	0.54816	-0.268
Mof_C 	C 	0.0865	0.9967	0.5177	0.063
Mof_H 	H 	0.1072	0.9549	0.5138	-0.009
Mof_C 	C 	0.0814	0.072	0.4923	-0.113
Mof_H 	H 	0.0989	0.0829	0.4717	0.081
Mof_C 	C 	0.0508	0.1312	0.4968	0.053
Mof_C 	C 	0.0249	0.1125	0.5262	-0.115
Mof_H 	H 	0.0029	0.1515	0.5291	0.069
Mof_C 	C 	0.0319	0.0358	0.5513	0.062
Mof_H 	H 	0.0141	0.022	0.5712	-0.007
Mof_C 	C 	0.0461	0.215	0.4705	0.084
Mof_N 	N 	0.01611	0.2724	0.4772	-0.149
Mof_C 	C 	0.0123	0.3426	0.4504	0.072
Mof_N 	N 	0.03575	0.3607	0.4207	-0.151
Mof_C 	C 	0.0646	0.3008	0.4185	0.09
Mof_N 	N 	0.07149	0.2269	0.4426	-0.138
Mof_N 	N 	0.9132	0.52	0.4574	-0.277
Mof_C 	C 	0.9281	0.4671	0.4913	0.065
Mof_H 	H 	0.9161	0.4694	0.5169	-0.006
Mof_C 	C 	0.9604	0.4096	0.4903	-0.12
Mof_H 	H 	0.9701	0.3722	0.5147	0.076
Mof_C 	C 	0.9786	0.4063	0.4537	0.038
Mof_C 	C 	0.9631	0.4616	0.4188	-0.153
Mof_H 	H 	0.9745	0.4611	0.3928	0.023
Mof_C 	C 	0.931	0.5172	0.423	0.052
Mof_H 	H 	0.921	0.5562	0.3993	-0.057
Mof_Zn	Zn	0.86105	0.59766	0.4554	1.164
Mof_I 	I 	0.87455	0.74678	0.42465	-0.395
Mof_I 	I 	0.83253	0.57091	0.52504	-0.375
Mof_N 	N 	0.1417	0.3397	0.3239	-0.303
Mof_C 	C 	0.1075	0.3891	0.3224	0.066
Mof_H 	H 	0.1003	0.4312	0.2994	-0.089
Mof_C 	C 	0.0825	0.3804	0.3536	-0.13
Mof_H 	H 	0.0595	0.4188	0.3532	0.053
Mof_C 	C 	0.0917	0.314	0.3856	0.053
Mof_C 	C 	0.1262	0.2625	0.3865	-0.111
Mof_H 	H 	0.1335	0.218	0.4083	0.08
Mof_C 	C 	0.1505	0.277	0.3546	0.067
Mof_H 	H 	0.1741	0.2407	0.3549	-0.006
Mof_Zn	Zn	0.17319	0.35645	0.27303	0.895
Mof_I 	I 	0.12868	0.33154	0.19848	4.752
Mof_I 	I 	0.23799	0.26859	0.30011	-0.008
Mof_I 	I 	0.1518	0.3003	0.2119	-5.352
Mof_I 	I 	0.2511	0.2764	0.3172	-0.305
Mof_Zn	Zn	0.1896	0.3483	0.2877	0.798
Mof_I 	I 	0.015	0.8639	0.6318	-0.34
Mof_I 	I 	0.1154	0.7593	0.5648	-0.117
Mof_N 	N 	0.6871	0.0099	0.779	-0.327
Mof_C 	C 	0.7115	0.9717	0.8124	0.09
Mof_H 	H 	0.7251	0.0088	0.8353	-0.034
Mof_C 	C 	0.7184	0.8801	0.8158	-0.137
Mof_H 	H 	0.7365	0.8553	0.8402	0.107
Mof_C 	C 	0.6978	0.8266	0.7825	0.1
Mof_C 	C 	0.6728	0.8673	0.7469	-0.186
Mof_H 	H 	0.6597	0.8326	0.7227	0.095
Mof_C 	C 	0.6674	0.9575	0.7472	0.147
Mof_H 	H 	0.6488	0.9841	0.7237	-0.158
Mof_C 	C 	0.7037	0.7282	0.7824	0.115
Mof_N 	N 	0.7318	0.691	0.8133	-0.103
Mof_C 	C 	0.7372	0.6046	0.8088	0.123
Mof_N 	N 	0.7179	0.5552	0.7749	-0.137
Mof_C 	C 	0.6902	0.5984	0.7465	0.116
Mof_N 	N 	0.6805	0.6842	0.7493	-0.137
Mof_N 	N 	0.8222	0.4676	0.9064	-0.287
Mof_C 	C 	0.7977	0.424	0.8737	0.065
Mof_H 	H 	0.7998	0.3609	0.8727	0.001
Mof_C 	C 	0.7701	0.4654	0.8421	-0.147
Mof_H 	H 	0.7531	0.4316	0.8199	0.112
Mof_C 	C 	0.7672	0.5569	0.8426	0.087
Mof_C 	C 	0.7924	0.6033	0.8755	-0.148
Mof_H 	H 	0.7915	0.6666	0.8767	0.125
Mof_C 	C 	0.819	0.555	0.9069	0.057
Mof_H 	H 	0.8359	0.5869	0.9299	-0.017
Mof_N 	N 	0.6229	0.4544	0.6383	-0.264
Mof_C 	C 	0.6173	0.5413	0.6437	0.072
Mof_H 	H 	0.5969	0.5711	0.6232	-0.004
Mof_C 	C 	0.6395	0.5901	0.6774	-0.109
Mof_H 	H 	0.6352	0.6526	0.6791	0.084
Mof_C 	C 	0.6675	0.5482	0.7081	0.048
Mof_C 	C 	0.6742	0.4573	0.7028	-0.075
Mof_H 	H 	0.6941	0.4261	0.7233	0.143
Mof_C 	C 	0.6515	0.4137	0.6673	0.037
Mof_H 	H 	0.6565	0.3521	0.6635	0.113
Mof_Zn	Zn	0.58071	0.38019	0.59426	1.148
Mof_I 	I 	0.52415	0.3454	0.63444	-0.077
Mof_I 	I 	0.61998	0.2663	0.55727	-0.299
Mof_N 	N 	0.56321	0.4802	0.54816	-0.268
Mof_C 	C 	0.5865	0.4967	0.5177	0.064
Mof_H 	H 	0.6072	0.4549	0.5138	-0.009
Mof_C 	C 	0.5814	0.572	0.4923	-0.113
Mof_H 	H 	0.5989	0.5829	0.4717	0.081
Mof_C 	C 	0.5508	0.6312	0.4968	0.053
Mof_C 	C 	0.5249	0.6125	0.5262	-0.115
Mof_H 	H 	0.5029	0.6515	0.5291	0.069
Mof_C 	C 	0.5319	0.5358	0.5513	0.062
Mof_H 	H 	0.5141	0.522	0.5712	-0.007
Mof_C 	C 	0.5461	0.715	0.4705	0.084
Mof_N 	N 	0.51611	0.7724	0.4772	-0.149
Mof_C 	C 	0.5123	0.8426	0.4504	0.072
Mof_N 	N 	0.53575	0.8607	0.4207	-0.151
Mof_C 	C 	0.5646	0.8008	0.4185	0.09
Mof_N 	N 	0.57149	0.7269	0.4426	-0.138
Mof_N 	N 	0.4132	0.02	0.4574	-0.277
Mof_C 	C 	0.4281	0.9671	0.4913	0.065
Mof_H 	H 	0.4161	0.9694	0.5169	-0.006
Mof_C 	C 	0.4604	0.9096	0.4903	-0.12
Mof_H 	H 	0.4701	0.8722	0.5147	0.076
Mof_C 	C 	0.4786	0.9063	0.4537	0.038
Mof_C 	C 	0.4631	0.9616	0.4188	-0.154
Mof_H 	H 	0.4745	0.9611	0.3928	0.023
Mof_C 	C 	0.431	0.0172	0.423	0.052
Mof_H 	H 	0.421	0.0562	0.3993	-0.057
Mof_Zn	Zn	0.36105	0.09766	0.4554	1.164
Mof_I 	I 	0.37455	0.24678	0.42465	-0.395
Mof_I 	I 	0.33253	0.07091	0.52504	-0.375
Mof_N 	N 	0.6417	0.8397	0.3239	-0.303
Mof_C 	C 	0.6075	0.8891	0.3224	0.066
Mof_H 	H 	0.6003	0.9312	0.2994	-0.089
Mof_C 	C 	0.5825	0.8804	0.3536	-0.13
Mof_H 	H 	0.5595	0.9188	0.3532	0.053
Mof_C 	C 	0.5917	0.814	0.3856	0.053
Mof_C 	C 	0.6262	0.7625	0.3865	-0.111
Mof_H 	H 	0.6335	0.718	0.4083	0.08
Mof_C 	C 	0.6505	0.777	0.3546	0.067
Mof_H 	H 	0.6741	0.7407	0.3549	-0.006
Mof_Zn	Zn	0.67319	0.85645	0.27303	0.895
Mof_I 	I 	0.62868	0.83154	0.19848	4.751
Mof_I 	I 	0.73799	0.76859	0.30011	-0.008
Mof_I 	I 	0.6518	0.8003	0.2119	-5.352
Mof_I 	I 	0.7511	0.7764	0.3172	-0.305
Mof_Zn	Zn	0.6896	0.8483	0.2877	0.798
Mof_I 	I 	0.515	0.3639	0.6318	-0.34
Mof_I 	I 	0.6154	0.2593	0.5648	-0.117
Mof_N 	N 	0.8129	0.4901	0.221	-0.326
Mof_C 	C 	0.7885	0.5283	0.1876	0.09
Mof_H 	H 	0.7749	0.4912	0.1647	-0.033
Mof_C 	C 	0.7816	0.6199	0.1842	-0.137
Mof_H 	H 	0.7635	0.6447	0.1598	0.107
Mof_C 	C 	0.8022	0.6734	0.2175	0.099
Mof_C 	C 	0.8272	0.6327	0.2531	-0.186
Mof_H 	H 	0.8403	0.6674	0.2773	0.095
Mof_C 	C 	0.8326	0.5425	0.2528	0.147
Mof_H 	H 	0.8512	0.5159	0.2763	-0.158
Mof_C 	C 	0.7963	0.7718	0.2176	0.115
Mof_N 	N 	0.7682	0.809	0.1867	-0.103
Mof_C 	C 	0.7628	0.8954	0.1912	0.123
Mof_N 	N 	0.7821	0.9448	0.2251	-0.137
Mof_C 	C 	0.8098	0.9016	0.2535	0.116
Mof_N 	N 	0.8195	0.8158	0.2507	-0.137
Mof_N 	N 	0.6778	0.0324	0.0936	-0.286
Mof_C 	C 	0.7023	0.076	0.1263	0.065
Mof_H 	H 	0.7002	0.1391	0.1273	0.001
Mof_C 	C 	0.7299	0.0346	0.1579	-0.147
Mof_H 	H 	0.7469	0.0684	0.1801	0.112
Mof_C 	C 	0.7328	0.9431	0.1574	0.086
Mof_C 	C 	0.7076	0.8967	0.1245	-0.147
Mof_H 	H 	0.7085	0.8334	0.1233	0.125
Mof_C 	C 	0.681	0.945	0.0931	0.057
Mof_H 	H 	0.6641	0.9131	0.0701	-0.017
Mof_N 	N 	0.8771	0.0456	0.3617	-0.264
Mof_C 	C 	0.8827	0.9587	0.3563	0.072
Mof_H 	H 	0.9031	0.9289	0.3768	-0.003
Mof_C 	C 	0.8605	0.9099	0.3226	-0.109
Mof_H 	H 	0.8648	0.8474	0.3209	0.084
Mof_C 	C 	0.8325	0.9518	0.2919	0.047
Mof_C 	C 	0.8258	0.0427	0.2972	-0.074
Mof_H 	H 	0.8059	0.0739	0.2767	0.143
Mof_C 	C 	0.8485	0.0863	0.3327	0.036
Mof_H 	H 	0.8435	0.1479	0.3365	0.113
Mof_Zn	Zn	0.91929	0.11981	0.40574	1.148
Mof_I 	I 	0.97585	0.1546	0.36556	-0.077
Mof_I 	I 	0.88002	0.2337	0.44273	-0.299
Mof_N 	N 	0.93679	0.0198	0.45184	-0.268
Mof_C 	C 	0.9135	0.0033	0.4823	0.063
Mof_H 	H 	0.8928	0.0451	0.4862	-0.009
Mof_C 	C 	0.9186	0.928	0.5077	-0.113
Mof_H 	H 	0.9011	0.9171	0.5283	0.081
Mof_C 	C 	0.9492	0.8688	0.5032	0.053
Mof_C 	C 	0.9751	0.8875	0.4738	-0.115
Mof_H 	H 	0.9971	0.8485	0.4709	0.069
Mof_C 	C 	0.9681	0.9642	0.4487	0.062
Mof_H 	H 	0.9859	0.978	0.4288	-0.007
Mof_C 	C 	0.9539	0.785	0.5295	0.084
Mof_N 	N 	0.98389	0.7276	0.5228	-0.149
Mof_C 	C 	0.9877	0.6574	0.5496	0.072
Mof_N 	N 	0.96425	0.6393	0.5793	-0.151
Mof_C 	C 	0.9354	0.6992	0.5815	0.09
Mof_N 	N 	0.92851	0.7731	0.5574	-0.138
Mof_N 	N 	0.0868	0.48	0.5426	-0.277
Mof_C 	C 	0.0719	0.5329	0.5087	0.065
Mof_H 	H 	0.0839	0.5306	0.4831	-0.006
Mof_C 	C 	0.0396	0.5904	0.5097	-0.12
Mof_H 	H 	0.0299	0.6278	0.4853	0.076
Mof_C 	C 	0.0214	0.5937	0.5463	0.038
Mof_C 	C 	0.0369	0.5384	0.5812	-0.153
Mof_H 	H 	0.0255	0.5389	0.6072	0.023
Mof_C 	C 	0.069	0.4828	0.577	0.052
Mof_H 	H 	0.079	0.4438	0.6007	-0.057
Mof_Zn	Zn	0.13895	0.40234	0.5446	1.164
Mof_I 	I 	0.12545	0.25322	0.57535	-0.395
Mof_I 	I 	0.16747	0.42909	0.47496	-0.375
Mof_N 	N 	0.8583	0.6603	0.6761	-0.303
Mof_C 	C 	0.8925	0.6109	0.6776	0.066
Mof_H 	H 	0.8997	0.5688	0.7006	-0.089
Mof_C 	C 	0.9175	0.6196	0.6464	-0.13
Mof_H 	H 	0.9405	0.5812	0.6468	0.053
Mof_C 	C 	0.9083	0.686	0.6144	0.053
Mof_C 	C 	0.8738	0.7375	0.6135	-0.111
Mof_H 	H 	0.8665	0.782	0.5917	0.08
Mof_C 	C 	0.8495	0.723	0.6454	0.067
Mof_H 	H 	0.8259	0.7593	0.6451	-0.006
Mof_Zn	Zn	0.82681	0.64355	0.72697	0.895
Mof_I 	I 	0.87132	0.66846	0.80152	4.752
Mof_I 	I 	0.76201	0.73141	0.69989	-0.008
Mof_I 	I 	0.8482	0.6997	0.7881	-5.352
Mof_I 	I 	0.7489	0.7236	0.6828	-0.305
Mof_Zn	Zn	0.8104	0.6517	0.7123	0.798
Mof_I 	I 	0.985	0.1361	0.3682	-0.34
Mof_I 	I 	0.8846	0.2407	0.4352	-0.117
Mof_N 	N 	0.3129	0.9901	0.221	-0.327
Mof_C 	C 	0.2885	0.0283	0.1876	0.09
Mof_H 	H 	0.2749	0.9912	0.1647	-0.034
Mof_C 	C 	0.2816	0.1199	0.1842	-0.137
Mof_H 	H 	0.2635	0.1447	0.1598	0.107
Mof_C 	C 	0.3022	0.1734	0.2175	0.1
Mof_C 	C 	0.3272	0.1327	0.2531	-0.186
Mof_H 	H 	0.3403	0.1674	0.2773	0.095
Mof_C 	C 	0.3326	0.0425	0.2528	0.147
Mof_H 	H 	0.3512	0.0159	0.2763	-0.158
Mof_C 	C 	0.2963	0.2718	0.2176	0.115
Mof_N 	N 	0.2682	0.309	0.1867	-0.103
Mof_C 	C 	0.2628	0.3954	0.1912	0.123
Mof_N 	N 	0.2821	0.4448	0.2251	-0.137
Mof_C 	C 	0.3098	0.4016	0.2535	0.116
Mof_N 	N 	0.3195	0.3158	0.2507	-0.137
Mof_N 	N 	0.1778	0.5324	0.0936	-0.287
Mof_C 	C 	0.2023	0.576	0.1263	0.065
Mof_H 	H 	0.2002	0.6391	0.1273	0.001
Mof_C 	C 	0.2299	0.5346	0.1579	-0.147
Mof_H 	H 	0.2469	0.5684	0.1801	0.112
Mof_C 	C 	0.2328	0.4431	0.1574	0.087
Mof_C 	C 	0.2076	0.3967	0.1245	-0.148
Mof_H 	H 	0.2085	0.3334	0.1233	0.125
Mof_C 	C 	0.181	0.445	0.0931	0.057
Mof_H 	H 	0.1641	0.4131	0.0701	-0.017
Mof_N 	N 	0.3771	0.5456	0.3617	-0.264
Mof_C 	C 	0.3827	0.4587	0.3563	0.072
Mof_H 	H 	0.4031	0.4289	0.3768	-0.004
Mof_C 	C 	0.3605	0.4099	0.3226	-0.109
Mof_H 	H 	0.3648	0.3474	0.3209	0.084
Mof_C 	C 	0.3325	0.4518	0.2919	0.048
Mof_C 	C 	0.3258	0.5427	0.2972	-0.075
Mof_H 	H 	0.3059	0.5739	0.2767	0.143
Mof_C 	C 	0.3485	0.5863	0.3327	0.037
Mof_H 	H 	0.3435	0.6479	0.3365	0.113
Mof_Zn	Zn	0.41929	0.61981	0.40574	1.148
Mof_I 	I 	0.47585	0.6546	0.36556	-0.077
Mof_I 	I 	0.38002	0.7337	0.44273	-0.299
Mof_N 	N 	0.43679	0.5198	0.45184	-0.268
Mof_C 	C 	0.4135	0.5033	0.4823	0.064
Mof_H 	H 	0.3928	0.5451	0.4862	-0.009
Mof_C 	C 	0.4186	0.428	0.5077	-0.113
Mof_H 	H 	0.4011	0.4171	0.5283	0.081
Mof_C 	C 	0.4492	0.3688	0.5032	0.053
Mof_C 	C 	0.4751	0.3875	0.4738	-0.115
Mof_H 	H 	0.4971	0.3485	0.4709	0.069
Mof_C 	C 	0.4681	0.4642	0.4487	0.062
Mof_H 	H 	0.4859	0.478	0.4288	-0.007
Mof_C 	C 	0.4539	0.285	0.5295	0.084
Mof_N 	N 	0.48389	0.2276	0.5228	-0.149
Mof_C 	C 	0.4877	0.1574	0.5496	0.072
Mof_N 	N 	0.46425	0.1393	0.5793	-0.151
Mof_C 	C 	0.4354	0.1992	0.5815	0.09
Mof_N 	N 	0.42851	0.2731	0.5574	-0.138
Mof_N 	N 	0.5868	0.98	0.5426	-0.277
Mof_C 	C 	0.5719	0.0329	0.5087	0.065
Mof_H 	H 	0.5839	0.0306	0.4831	-0.006
Mof_C 	C 	0.5396	0.0904	0.5097	-0.12
Mof_H 	H 	0.5299	0.1278	0.4853	0.076
Mof_C 	C 	0.5214	0.0937	0.5463	0.038
Mof_C 	C 	0.5369	0.0384	0.5812	-0.154
Mof_H 	H 	0.5255	0.0389	0.6072	0.023
Mof_C 	C 	0.569	0.9828	0.577	0.052
Mof_H 	H 	0.579	0.9438	0.6007	-0.057
Mof_Zn	Zn	0.63895	0.90234	0.5446	1.164
Mof_I 	I 	0.62545	0.75322	0.57535	-0.395
Mof_I 	I 	0.66747	0.92909	0.47496	-0.375
Mof_N 	N 	0.3583	0.1603	0.6761	-0.303
Mof_C 	C 	0.3925	0.1109	0.6776	0.066
Mof_H 	H 	0.3997	0.0688	0.7006	-0.089
Mof_C 	C 	0.4175	0.1196	0.6464	-0.13
Mof_H 	H 	0.4405	0.0812	0.6468	0.053
Mof_C 	C 	0.4083	0.186	0.6144	0.053
Mof_C 	C 	0.3738	0.2375	0.6135	-0.111
Mof_H 	H 	0.3665	0.282	0.5917	0.08
Mof_C 	C 	0.3495	0.223	0.6454	0.067
Mof_H 	H 	0.3259	0.2593	0.6451	-0.006
Mof_Zn	Zn	0.32681	0.14355	0.72697	0.895
Mof_I 	I 	0.37132	0.16846	0.80152	4.751
Mof_I 	I 	0.26201	0.23141	0.69989	-0.008
Mof_I 	I 	0.3482	0.1997	0.7881	-5.352
Mof_I 	I 	0.2489	0.2236	0.6828	-0.305
Mof_Zn	Zn	0.3104	0.1517	0.7123	0.798
Mof_I 	I 	0.485	0.6361	0.3682	-0.34
Mof_I 	I 	0.3846	0.7407	0.4352	-0.117
Mof_N 	N 	0.8129	0.5099	0.721	-0.326
Mof_C 	C 	0.7885	0.4717	0.6876	0.09
Mof_H 	H 	0.7749	0.5088	0.6647	-0.033
Mof_C 	C 	0.7816	0.3801	0.6842	-0.137
Mof_H 	H 	0.7635	0.3553	0.6598	0.107
Mof_C 	C 	0.8022	0.3266	0.7175	0.099
Mof_C 	C 	0.8272	0.3673	0.7531	-0.186
Mof_H 	H 	0.8403	0.3326	0.7773	0.095
Mof_C 	C 	0.8326	0.4575	0.7528	0.147
Mof_H 	H 	0.8512	0.4841	0.7763	-0.158
Mof_C 	C 	0.7963	0.2282	0.7176	0.115
Mof_N 	N 	0.7682	0.191	0.6867	-0.103
Mof_C 	C 	0.7628	0.1046	0.6912	0.123
Mof_N 	N 	0.7821	0.0552	0.7251	-0.137
Mof_C 	C 	0.8098	0.0984	0.7535	0.116
Mof_N 	N 	0.8195	0.1842	0.7507	-0.137
Mof_N 	N 	0.6778	0.9676	0.5936	-0.286
Mof_C 	C 	0.7023	0.924	0.6263	0.065
Mof_H 	H 	0.7002	0.8609	0.6273	0.001
Mof_C 	C 	0.7299	0.9654	0.6579	-0.147
Mof_H 	H 	0.7469	0.9316	0.6801	0.112
Mof_C 	C 	0.7328	0.0569	0.6574	0.086
Mof_C 	C 	0.7076	0.1033	0.6245	-0.147
Mof_H 	H 	0.7085	0.1666	0.6233	0.125
Mof_C 	C 	0.681	0.055	0.5931	0.057
Mof_H 	H 	0.6641	0.0869	0.5701	-0.017
Mof_N 	N 	0.8771	0.9544	0.8617	-0.264
Mof_C 	C 	0.8827	0.0413	0.8563	0.072
Mof_H 	H 	0.9031	0.0711	0.8768	-0.003
Mof_C 	C 	0.8605	0.0901	0.8226	-0.109
Mof_H 	H 	0.8648	0.1526	0.8209	0.084
Mof_C 	C 	0.8325	0.0482	0.7919	0.047
Mof_C 	C 	0.8258	0.9573	0.7972	-0.074
Mof_H 	H 	0.8059	0.9261	0.7767	0.143
Mof_C 	C 	0.8485	0.9137	0.8327	0.036
Mof_H 	H 	0.8435	0.8521	0.8365	0.113
Mof_Zn	Zn	0.91929	0.88019	0.90574	1.148
Mof_I 	I 	0.97585	0.8454	0.86556	-0.077
Mof_I 	I 	0.88002	0.7663	0.94273	-0.299
Mof_N 	N 	0.93679	0.9802	0.95184	-0.268
Mof_C 	C 	0.9135	0.9967	0.9823	0.063
Mof_H 	H 	0.8928	0.9549	0.9862	-0.009
Mof_C 	C 	0.9186	0.072	0.0077	-0.113
Mof_H 	H 	0.9011	0.0829	0.0283	0.081
Mof_C 	C 	0.9492	0.1312	0.0032	0.053
Mof_C 	C 	0.9751	0.1125	0.9738	-0.115
Mof_H 	H 	0.9971	0.1515	0.9709	0.069
Mof_C 	C 	0.9681	0.0358	0.9487	0.062
Mof_H 	H 	0.9859	0.022	0.9288	-0.007
Mof_C 	C 	0.9539	0.215	0.0295	0.084
Mof_N 	N 	0.98389	0.2724	0.0228	-0.149
Mof_C 	C 	0.9877	0.3426	0.0496	0.072
Mof_N 	N 	0.96425	0.3607	0.0793	-0.151
Mof_C 	C 	0.9354	0.3008	0.0815	0.09
Mof_N 	N 	0.92851	0.2269	0.0574	-0.138
Mof_N 	N 	0.0868	0.52	0.0426	-0.277
Mof_C 	C 	0.0719	0.4671	0.0087	0.065
Mof_H 	H 	0.0839	0.4694	0.9831	-0.006
Mof_C 	C 	0.0396	0.4096	0.0097	-0.12
Mof_H 	H 	0.0299	0.3722	0.9853	0.077
Mof_C 	C 	0.0214	0.4063	0.0463	0.038
Mof_C 	C 	0.0369	0.4616	0.0812	-0.153
Mof_H 	H 	0.0255	0.4611	0.1072	0.023
Mof_C 	C 	0.069	0.5172	0.077	0.052
Mof_H 	H 	0.079	0.5562	0.1007	-0.057
Mof_Zn	Zn	0.13895	0.59766	0.0446	1.164
Mof_I 	I 	0.12545	0.74678	0.07535	-0.395
Mof_I 	I 	0.16747	0.57091	0.97496	-0.375
Mof_N 	N 	0.8583	0.3397	0.1761	-0.303
Mof_C 	C 	0.8925	0.3891	0.1776	0.066
Mof_H 	H 	0.8997	0.4312	0.2006	-0.089
Mof_C 	C 	0.9175	0.3804	0.1464	-0.13
Mof_H 	H 	0.9405	0.4188	0.1468	0.053
Mof_C 	C 	0.9083	0.314	0.1144	0.053
Mof_C 	C 	0.8738	0.2625	0.1135	-0.111
Mof_H 	H 	0.8665	0.218	0.0917	0.08
Mof_C 	C 	0.8495	0.277	0.1454	0.067
Mof_H 	H 	0.8259	0.2407	0.1451	-0.006
Mof_Zn	Zn	0.82681	0.35645	0.22697	0.895
Mof_I 	I 	0.87132	0.33154	0.30152	4.752
Mof_I 	I 	0.76201	0.26859	0.19989	-0.008
Mof_I 	I 	0.8482	0.3003	0.2881	-5.352
Mof_I 	I 	0.7489	0.2764	0.1828	-0.305
Mof_Zn	Zn	0.8104	0.3483	0.2123	0.798
Mof_I 	I 	0.985	0.8639	0.8682	-0.34
Mof_I 	I 	0.8846	0.7593	0.9352	-0.117
Mof_N 	N 	0.3129	0.0099	0.721	-0.327
Mof_C 	C 	0.2885	0.9717	0.6876	0.09
Mof_H 	H 	0.2749	0.0088	0.6647	-0.034
Mof_C 	C 	0.2816	0.8801	0.6842	-0.137
Mof_H 	H 	0.2635	0.8553	0.6598	0.107
Mof_C 	C 	0.3022	0.8266	0.7175	0.1
Mof_C 	C 	0.3272	0.8673	0.7531	-0.186
Mof_H 	H 	0.3403	0.8326	0.7773	0.095
Mof_C 	C 	0.3326	0.9575	0.7528	0.147
Mof_H 	H 	0.3512	0.9841	0.7763	-0.158
Mof_C 	C 	0.2963	0.7282	0.7176	0.115
Mof_N 	N 	0.2682	0.691	0.6867	-0.103
Mof_C 	C 	0.2628	0.6046	0.6912	0.123
Mof_N 	N 	0.2821	0.5552	0.7251	-0.137
Mof_C 	C 	0.3098	0.5984	0.7535	0.116
Mof_N 	N 	0.3195	0.6842	0.7507	-0.137
Mof_N 	N 	0.1778	0.4676	0.5936	-0.287
Mof_C 	C 	0.2023	0.424	0.6263	0.065
Mof_H 	H 	0.2002	0.3609	0.6273	0.001
Mof_C 	C 	0.2299	0.4654	0.6579	-0.147
Mof_H 	H 	0.2469	0.4316	0.6801	0.112
Mof_C 	C 	0.2328	0.5569	0.6574	0.087
Mof_C 	C 	0.2076	0.6033	0.6245	-0.148
Mof_H 	H 	0.2085	0.6666	0.6233	0.125
Mof_C 	C 	0.181	0.555	0.5931	0.057
Mof_H 	H 	0.1641	0.5869	0.5701	-0.017
Mof_N 	N 	0.3771	0.4544	0.8617	-0.264
Mof_C 	C 	0.3827	0.5413	0.8563	0.072
Mof_H 	H 	0.4031	0.5711	0.8768	-0.004
Mof_C 	C 	0.3605	0.5901	0.8226	-0.109
Mof_H 	H 	0.3648	0.6526	0.8209	0.084
Mof_C 	C 	0.3325	0.5482	0.7919	0.048
Mof_C 	C 	0.3258	0.4573	0.7972	-0.075
Mof_H 	H 	0.3059	0.4261	0.7767	0.143
Mof_C 	C 	0.3485	0.4137	0.8327	0.037
Mof_H 	H 	0.3435	0.3521	0.8365	0.113
Mof_Zn	Zn	0.41929	0.38019	0.90574	1.148
Mof_I 	I 	0.47585	0.3454	0.86556	-0.077
Mof_I 	I 	0.38002	0.2663	0.94273	-0.299
Mof_N 	N 	0.43679	0.4802	0.95184	-0.268
Mof_C 	C 	0.4135	0.4967	0.9823	0.064
Mof_H 	H 	0.3928	0.4549	0.9862	-0.009
Mof_C 	C 	0.4186	0.572	0.0077	-0.113
Mof_H 	H 	0.4011	0.5829	0.0283	0.081
Mof_C 	C 	0.4492	0.6312	0.0032	0.053
Mof_C 	C 	0.4751	0.6125	0.9738	-0.115
Mof_H 	H 	0.4971	0.6515	0.9709	0.069
Mof_C 	C 	0.4681	0.5358	0.9487	0.062
Mof_H 	H 	0.4859	0.522	0.9288	-0.007
Mof_C 	C 	0.4539	0.715	0.0295	0.084
Mof_N 	N 	0.48389	0.7724	0.0228	-0.149
Mof_C 	C 	0.4877	0.8426	0.0496	0.072
Mof_N 	N 	0.46425	0.8607	0.0793	-0.151
Mof_C 	C 	0.4354	0.8008	0.0815	0.09
Mof_N 	N 	0.42851	0.7269	0.0574	-0.138
Mof_N 	N 	0.5868	0.02	0.0426	-0.277
Mof_C 	C 	0.5719	0.9671	0.0087	0.065
Mof_H 	H 	0.5839	0.9694	0.9831	-0.006
Mof_C 	C 	0.5396	0.9096	0.0097	-0.12
Mof_H 	H 	0.5299	0.8722	0.9853	0.076
Mof_C 	C 	0.5214	0.9063	0.0463	0.038
Mof_C 	C 	0.5369	0.9616	0.0812	-0.153
Mof_H 	H 	0.5255	0.9611	0.1072	0.023
Mof_C 	C 	0.569	0.0172	0.077	0.052
Mof_H 	H 	0.579	0.0562	0.1007	-0.057
Mof_Zn	Zn	0.63895	0.09766	0.0446	1.164
Mof_I 	I 	0.62545	0.24678	0.07535	-0.395
Mof_I 	I 	0.66747	0.07091	0.97496	-0.375
Mof_N 	N 	0.3583	0.8397	0.1761	-0.303
Mof_C 	C 	0.3925	0.8891	0.1776	0.066
Mof_H 	H 	0.3997	0.9312	0.2006	-0.089
Mof_C 	C 	0.4175	0.8804	0.1464	-0.13
Mof_H 	H 	0.4405	0.9188	0.1468	0.053
Mof_C 	C 	0.4083	0.814	0.1144	0.053
Mof_C 	C 	0.3738	0.7625	0.1135	-0.111
Mof_H 	H 	0.3665	0.718	0.0917	0.08
Mof_C 	C 	0.3495	0.777	0.1454	0.067
Mof_H 	H 	0.3259	0.7407	0.1451	-0.006
Mof_Zn	Zn	0.32681	0.85645	0.22697	0.895
Mof_I 	I 	0.37132	0.83154	0.30152	4.751
Mof_I 	I 	0.26201	0.76859	0.19989	-0.008
Mof_I 	I 	0.3482	0.8003	0.2881	-5.351
Mof_I 	I 	0.2489	0.7764	0.1828	-0.305
Mof_Zn	Zn	0.3104	0.8483	0.2123	0.798
Mof_I 	I 	0.485	0.3639	0.8682	-0.34
Mof_I 	I 	0.3846	0.2593	0.9352	-0.117
_end
