data_functionalizedCrystal
_audit_creation_method	'EQeq! by Chris Wilmer'
_symmetry_space_group_name_H-M	'P1'
_symmetry_Int_Tables_number	1
_symmetry_cell_setting	triclinic
loop_
_symmetry_equiv_pos_as_xyz
  x,y,z
_cell_length_a	11.145
_cell_length_b	12.424
_cell_length_c	22.18
_cell_angle_alpha	102.016
_cell_angle_beta	103.475
_cell_angle_gamma	95.419
loop_
_atom_site_label
_atom_site_type_symbol
_atom_site_fract_x
_atom_site_fract_y
_atom_site_fract_z
_atom_site_charge
Mof_Gd	Gd	0.69874	0.55351	0.54865	2.16
Mof_Gd	Gd	0.0406	0.36852	0.05069	2.098
Mof_Gd	Gd	0.30126	0.44649	0.45135	2.16
Mof_Gd	Gd	0.9594	0.63148	0.94931	2.098
Mof_Co	Co	0.67761	0.91371	0.25699	1.178
Mof_Co	Co	0.32239	0.08629	0.74301	1.178
Mof_H 	H 	0.7757	0.8734	0.3883	0.035
Mof_H 	H 	0.6952	0.7649	0.4504	0.055
Mof_H 	H 	0.4023	0.6427	0.2977	0.058
Mof_H 	H 	0.3264	0.6342	0.1934	0.032
Mof_H 	H 	0.3194	0.8151	0.0655	0.038
Mof_H 	H 	0.4972	0.9263	0.1299	0.028
Mof_H 	H 	0.6795	0.151	0.2249	0.029
Mof_H 	H 	0.7609	0.2294	0.159	0.08
Mof_H 	H 	0.8511	0.936	0.08	0.081
Mof_H 	H 	0.8427	0.758	0.0815	0.05
Mof_H 	H 	0.8044	0.5421	0.1869	0.087
Mof_H 	H 	0.7323	0.6758	0.2508	0.008
Mof_H 	H 	0.9476	0.8699	0.2807	0.02
Mof_H 	H 	0.1394	0.9612	0.3486	0.094
Mof_H 	H 	0.9588	0.215	0.4123	0.07
Mof_H 	H 	0.7694	0.2522	0.4176	0.066
Mof_H 	H 	0.4015	0.1653	0.3347	0.054
Mof_H 	H 	0.4398	0.0157	0.2678	0.043
Mof_H 	H 	0.7427	0.6745	0.6816	0.225
Mof_H 	H 	0.8738	0.6823	0.6669	0.224
Mof_H 	H 	0.8382	0.3988	0.601	0.261
Mof_H 	H 	0.9303	0.5106	0.6179	0.243
Mof_H 	H 	0.8814	0.6142	0.4839	0.228
Mof_H 	H 	0.7732	0.533	0.4313	0.225
Mof_H 	H 	0.0509	0.356	0.1806	0.244
Mof_H 	H 	0.1656	0.4435	0.1852	0.219
Mof_H 	H 	0.2572	0.2768	0.0321	0.215
Mof_H 	H 	0.3064	0.3902	0.0829	0.207
Mof_H 	H 	0.9817	0.1994	0.9348	0.33
Mof_H 	H 	0.9826	0.1381	0.9774	0.503
Mof_H 	H 	0.2243	0.1266	0.6117	0.035
Mof_H 	H 	0.3048	0.2351	0.5496	0.055
Mof_H 	H 	0.5977	0.3573	0.7023	0.058
Mof_H 	H 	0.6736	0.3658	0.8066	0.032
Mof_H 	H 	0.6806	0.1849	0.9345	0.038
Mof_H 	H 	0.5028	0.0737	0.8701	0.028
Mof_H 	H 	0.3205	0.849	0.7751	0.029
Mof_H 	H 	0.2391	0.7706	0.841	0.08
Mof_H 	H 	0.1489	0.064	0.92	0.081
Mof_H 	H 	0.1573	0.242	0.9185	0.05
Mof_H 	H 	0.1956	0.4579	0.8131	0.087
Mof_H 	H 	0.2677	0.3242	0.7492	0.008
Mof_H 	H 	0.0524	0.1301	0.7193	0.02
Mof_H 	H 	0.8606	0.0388	0.6514	0.094
Mof_H 	H 	0.0412	0.785	0.5877	0.07
Mof_H 	H 	0.2306	0.7478	0.5824	0.066
Mof_H 	H 	0.5985	0.8347	0.6653	0.054
Mof_H 	H 	0.5602	0.9843	0.7322	0.043
Mof_H 	H 	0.2573	0.3255	0.3184	0.225
Mof_H 	H 	0.1262	0.3177	0.3331	0.224
Mof_H 	H 	0.1618	0.6012	0.399	0.261
Mof_H 	H 	0.0697	0.4894	0.3821	0.243
Mof_H 	H 	0.1186	0.3858	0.5161	0.228
Mof_H 	H 	0.2268	0.467	0.5687	0.225
Mof_H 	H 	0.9491	0.644	0.8194	0.244
Mof_H 	H 	0.8344	0.5565	0.8148	0.219
Mof_H 	H 	0.7428	0.7232	0.9679	0.215
Mof_H 	H 	0.6936	0.6098	0.9171	0.207
Mof_H 	H 	0.0183	0.8006	0.0652	0.33
Mof_H 	H 	0.0174	0.8619	0.0226	0.503
Mof_C 	C 	0.6992	0.8276	0.3708	0.02
Mof_C 	C 	0.6525	0.7591	0.4082	-0.007
Mof_C 	C 	0.5465	0.687	0.3809	-0.091
Mof_C 	C 	0.4778	0.6894	0.317	-0.038
Mof_C 	C 	0.5225	0.7584	0.2859	0.051
Mof_C 	C 	0.4663	0.7688	0.2215	0.015
Mof_C 	C 	0.3604	0.6935	0.1801	0.011
Mof_C 	C 	0.3063	0.7102	0.1173	-0.159
Mof_C 	C 	0.3564	0.7982	0.1038	0.034
Mof_C 	C 	0.4619	0.8679	0.1436	0.004
Mof_C 	C 	0.4935	0.608	0.4153	0.472
Mof_C 	C 	0.1932	0.6304	0.0738	0.606
Mof_C 	C 	0.7159	0.108	0.1966	0.038
Mof_C 	C 	0.7617	0.154	0.157	-0.054
Mof_C 	C 	0.8129	0.0889	0.1111	-0.04
Mof_C 	C 	0.8186	0.98	0.1098	-0.059
Mof_C 	C 	0.774	0.9367	0.1548	0.061
Mof_C 	C 	0.7701	0.8174	0.1562	0.016
Mof_C 	C 	0.8163	0.7392	0.1153	-0.027
Mof_C 	C 	0.8219	0.6351	0.126	-0.085
Mof_C 	C 	0.7951	0.6106	0.1771	-0.059
Mof_C 	C 	0.7518	0.6945	0.2154	0.079
Mof_C 	C 	0.8651	0.1425	0.0677	0.359
Mof_C 	C 	0.8793	0.5609	0.0838	0.433
Mof_C 	C 	0.9512	0.938	0.3086	0.067
Mof_C 	C 	0.0675	0.9941	0.3472	-0.054
Mof_C 	C 	0.0713	0.0973	0.3819	-0.042
Mof_C 	C 	0.9566	0.1456	0.3859	-0.05
Mof_C 	C 	0.8467	0.0826	0.3485	0.056
Mof_C 	C 	0.724	0.1148	0.3497	0.02
Mof_C 	C 	0.7025	0.2038	0.3884	0.007
Mof_C 	C 	0.5784	0.2262	0.3858	-0.107
Mof_C 	C 	0.4834	0.1522	0.3388	0.002
Mof_C 	C 	0.5054	0.0623	0.2989	0.021
Mof_C 	C 	0.1931	0.1704	0.417	0.382
Mof_C 	C 	0.5435	0.3222	0.4279	0.527
Mof_C 	C 	0.3008	0.1724	0.6292	0.02
Mof_C 	C 	0.3475	0.2409	0.5918	-0.007
Mof_C 	C 	0.4535	0.313	0.6191	-0.091
Mof_C 	C 	0.5222	0.3106	0.683	-0.038
Mof_C 	C 	0.4775	0.2416	0.7141	0.051
Mof_C 	C 	0.5337	0.2312	0.7785	0.015
Mof_C 	C 	0.6396	0.3065	0.8199	0.011
Mof_C 	C 	0.6937	0.2898	0.8827	-0.159
Mof_C 	C 	0.6436	0.2018	0.8962	0.034
Mof_C 	C 	0.5381	0.1321	0.8564	0.004
Mof_C 	C 	0.5065	0.392	0.5847	0.472
Mof_C 	C 	0.8068	0.3696	0.9262	0.606
Mof_C 	C 	0.2841	0.892	0.8034	0.038
Mof_C 	C 	0.2383	0.846	0.843	-0.054
Mof_C 	C 	0.1871	0.9111	0.8889	-0.04
Mof_C 	C 	0.1814	0.02	0.8902	-0.059
Mof_C 	C 	0.226	0.0633	0.8452	0.061
Mof_C 	C 	0.2299	0.1826	0.8438	0.016
Mof_C 	C 	0.1837	0.2608	0.8847	-0.027
Mof_C 	C 	0.1781	0.3649	0.874	-0.085
Mof_C 	C 	0.2049	0.3894	0.8229	-0.059
Mof_C 	C 	0.2482	0.3055	0.7846	0.079
Mof_C 	C 	0.1349	0.8575	0.9323	0.359
Mof_C 	C 	0.1207	0.4391	0.9162	0.433
Mof_C 	C 	0.0488	0.062	0.6914	0.067
Mof_C 	C 	0.9325	0.0059	0.6528	-0.054
Mof_C 	C 	0.9287	0.9027	0.6181	-0.042
Mof_C 	C 	0.0434	0.8544	0.6141	-0.05
Mof_C 	C 	0.1533	0.9174	0.6515	0.056
Mof_C 	C 	0.276	0.8852	0.6503	0.02
Mof_C 	C 	0.2975	0.7962	0.6116	0.007
Mof_C 	C 	0.4216	0.7738	0.6142	-0.107
Mof_C 	C 	0.5166	0.8478	0.6612	0.002
Mof_C 	C 	0.4946	0.9377	0.7011	0.021
Mof_C 	C 	0.8069	0.8296	0.583	0.382
Mof_C 	C 	0.4565	0.6778	0.5721	0.527
Mof_N 	N 	0.6324	0.8266	0.3092	-0.251
Mof_N 	N 	0.5146	0.8525	0.2021	-0.231
Mof_N 	N 	0.7203	0.9929	0.1976	-0.245
Mof_N 	N 	0.7348	0.7922	0.2097	-0.253
Mof_N 	N 	0.844	0.9792	0.3107	-0.242
Mof_N 	N 	0.6235	0.0411	0.3048	-0.229
Mof_N 	N 	0.3676	0.1734	0.6908	-0.251
Mof_N 	N 	0.4854	0.1475	0.7979	-0.231
Mof_N 	N 	0.2797	0.0071	0.8024	-0.245
Mof_N 	N 	0.2652	0.2078	0.7903	-0.253
Mof_N 	N 	0.156	0.0208	0.6893	-0.242
Mof_N 	N 	0.3765	0.9589	0.6952	-0.229
Mof_O 	O 	0.5701	0.5902	0.4621	-0.55
Mof_O 	O 	0.3782	0.5669	0.39973	-0.494
Mof_O 	O 	0.1601	0.5489	0.0903	-0.567
Mof_O 	O 	0.1443	0.6596	0.0281	-0.575
Mof_O 	O 	0.909	0.2449	0.0817	-0.432
Mof_O 	O 	0.8712	0.076	0.0164	-0.297
Mof_O 	O 	0.9046	0.5843	0.0367	-0.526
Mof_O 	O 	0.9083	0.4721	0.1033	-0.433
Mof_O 	O 	0.2869	0.1252	0.4283	-0.254
Mof_O 	O 	0.1952	0.2732	0.4386	-0.495
Mof_O 	O 	0.6366	0.3777	0.471	-0.468
Mof_O 	O 	0.4438	0.3531	0.413	-0.558
Mof_O 	O 	0.7986	0.6334	0.6624	-0.574
Mof_O 	O 	0.8673	0.4592	0.5847	-0.598
Mof_O 	O 	0.826	0.5452	0.4738	-0.571
Mof_O 	O 	0.1194	0.3715	0.1628	-0.576
Mof_O 	O 	0.2468	0.3233	0.0704	-0.586
Mof_O 	O 	0.0208	0.19	0.9747	-0.925
Mof_O 	O 	0.4299	0.4098	0.5379	-0.55
Mof_O 	O 	0.6218	0.4331	0.60027	-0.494
Mof_O 	O 	0.8399	0.4511	0.9097	-0.567
Mof_O 	O 	0.8557	0.3404	0.9719	-0.575
Mof_O 	O 	0.091	0.7551	0.9183	-0.432
Mof_O 	O 	0.1288	0.924	0.9836	-0.297
Mof_O 	O 	0.0954	0.4157	0.9633	-0.526
Mof_O 	O 	0.0917	0.5279	0.8967	-0.433
Mof_O 	O 	0.7131	0.8748	0.5717	-0.254
Mof_O 	O 	0.8048	0.7268	0.5614	-0.495
Mof_O 	O 	0.3634	0.6223	0.529	-0.468
Mof_O 	O 	0.5562	0.6469	0.587	-0.558
Mof_O 	O 	0.2014	0.3666	0.3376	-0.574
Mof_O 	O 	0.1327	0.5408	0.4153	-0.598
Mof_O 	O 	0.174	0.4548	0.5262	-0.571
Mof_O 	O 	0.8806	0.6285	0.8372	-0.576
Mof_O 	O 	0.7532	0.6767	0.9296	-0.586
Mof_O 	O 	0.9792	0.81	0.0253	-0.925
Mof_N 	N 	0.8618	0.0359	0.7994	0.061
Mof_O 	O 	0.9021	0.9478	0.7972	-0.12
Mof_O 	O 	0.9092	0.1168	0.8444	-0.156
Mof_O 	O 	0.7751	0.0459	0.7581	-0.124
Mof_N 	N 	0.1234	0.6047	0.7089	0.055
Mof_O 	O 	0.0386	0.6236	0.7349	-0.142
Mof_O 	O 	0.2117	0.5709	0.7383	-0.129
Mof_O 	O 	0.125	0.6289	0.6584	-0.141
Mof_N 	N 	0.2116	0.8487	0.4616	0.055
Mof_O 	O 	0.3165	0.8971	0.4776	-0.09
Mof_O 	O 	0.1897	0.7479	0.4376	-0.128
Mof_O 	O 	0.1238	0.8987	0.4685	-0.108
Mof_N 	N 	0.1382	0.9641	0.2006	0.061
Mof_O 	O 	0.0979	0.0522	0.2028	-0.12
Mof_O 	O 	0.0908	0.8832	0.1556	-0.156
Mof_O 	O 	0.2249	0.9541	0.2419	-0.124
Mof_N 	N 	0.8766	0.3953	0.2911	0.055
Mof_O 	O 	0.9614	0.3764	0.2651	-0.142
Mof_O 	O 	0.7883	0.4291	0.2617	-0.129
Mof_O 	O 	0.875	0.3711	0.3416	-0.141
Mof_N 	N 	0.7884	0.1513	0.5384	0.055
Mof_O 	O 	0.6835	0.1029	0.5224	-0.09
Mof_O 	O 	0.8103	0.2521	0.5624	-0.128
Mof_O 	O 	0.8762	0.1013	0.5315	-0.108
_end
