data_functionalizedCrystal
_audit_creation_method	'EQeq! by Chris Wilmer'
_symmetry_space_group_name_H-M	'P1'
_symmetry_Int_Tables_number	1
_symmetry_cell_setting	triclinic
loop_
_symmetry_equiv_pos_as_xyz
  x,y,z
_cell_length_a	10.274
_cell_length_b	34.989
_cell_length_c	34.989
_cell_angle_alpha	90
_cell_angle_beta	90
_cell_angle_gamma	90
loop_
_atom_site_label
_atom_site_type_symbol
_atom_site_fract_x
_atom_site_fract_y
_atom_site_fract_z
_atom_site_charge
Mof_Zn	Zn	0.5	0.40149	0.6635	1.211
Mof_Zn	Zn	1.06812e-32	0.90149	0.8365	1.203
Mof_Zn	Zn	0.14659	0.1773	0.1773	1.228
Mof_Zn	Zn	0.35341	0.6773	0.3227	1.231
Mof_Zn	Zn	1.1511e-32	0.8365	0.90149	1.203
Mof_Zn	Zn	0.5	0.59851	0.3365	1.211
Mof_Zn	Zn	0.35341	0.3227	0.6773	1.231
Mof_Zn	Zn	0.5	0.6635	0.40149	1.211
Mof_Zn	Zn	0.14659	0.8227	0.8227	1.229
Mof_Zn	Zn	0.85341	0.8227	0.8227	1.238
Mof_Zn	Zn	6.10172e-33	0.09851	0.1635	1.204
Mof_Zn	Zn	0.64659	0.6773	0.3227	1.233
Mof_Zn	Zn	9.28587e-33	0.1635	0.09851	1.204
Mof_Zn	Zn	0.64659	0.3227	0.6773	1.233
Mof_Zn	Zn	0.85341	0.1773	0.1773	1.238
Mof_Zn	Zn	0.5	0.3365	0.59851	1.212
Mof_H 	H 	0.6662	0.9213	0.2882	-0.003
Mof_H 	H 	0.8419	0.4867	0.2286	0.056
Mof_H 	H 	0.1662	0.2118	0.4213	-0.019
Mof_H 	H 	0.6662	0.2882	0.9213	-0.003
Mof_H 	H 	0.6581	0.0133	0.7286	0.069
Mof_H 	H 	0.3181	0.8604	0.2925	0.177
Mof_H 	H 	0.6581	0.7286	0.0133	0.069
Mof_H 	H 	0.8338	0.2118	0.4213	-0.001
Mof_H 	H 	0.1662	0.4675	0.2826	0.04
Mof_H 	H 	0.5	0.8782	0.8105	0.041
Mof_H 	H 	0.6581	0.2714	0.9867	0.069
Mof_H 	H 	0.1817	0.268	0.4068	0.033
Mof_H 	H 	0.1949	0.5277	0.2811	0.031
Mof_H 	H 	0.3051	0.9723	0.7811	0.025
Mof_H 	H 	3.69412e-32	0.6895	0.3782	0.049
Mof_H 	H 	0.3338	0.0787	0.7118	-0.009
Mof_H 	H 	0.1581	0.7714	0.5133	0.074
Mof_H 	H 	0.6949	0.9723	0.7811	0.033
Mof_H 	H 	0.6949	0.2189	0.0277	0.033
Mof_H 	H 	0.3181	0.2925	0.8604	0.177
Mof_H 	H 	0.1662	0.5325	0.7174	0.04
Mof_H 	H 	0.3181	0.1396	0.7075	0.177
Mof_H 	H 	0.6662	0.0787	0.7118	-0.003
Mof_H 	H 	0.5	0.1218	0.1895	0.041
Mof_H 	H 	0.3338	0.9675	0.2174	0.049
Mof_H 	H 	0.3419	0.7286	0.0133	0.06
Mof_H 	H 	0.6817	0.0932	0.768	0.031
Mof_H 	H 	0.3181	0.7075	0.1396	0.177
Mof_H 	H 	0.3183	0.9068	0.232	0.02
Mof_H 	H 	0.8419	0.7714	0.5133	0.056
Mof_H 	H 	0.3419	0.2714	0.9867	0.06
Mof_H 	H 	0.3419	0.0133	0.7286	0.06
Mof_H 	H 	0.6909	0.7979	0.3083	-0.108
Mof_H 	H 	0.6662	0.7826	0.0325	0.055
Mof_H 	H 	0.8419	0.2286	0.4867	0.056
Mof_H 	H 	0.3338	0.0325	0.7826	0.049
Mof_H 	H 	0.1662	0.7174	0.5325	0.04
Mof_H 	H 	0.3051	0.0277	0.2189	0.025
Mof_H 	H 	0.6949	0.0277	0.2189	0.033
Mof_H 	H 	0.1662	0.4213	0.2118	-0.019
Mof_H 	H 	0.6909	0.6917	0.2021	-0.108
Mof_H 	H 	0.6909	0.3083	0.7979	-0.108
Mof_H 	H 	0.1662	0.7882	0.5787	-0.019
Mof_H 	H 	0.8051	0.7189	0.4723	0.023
Mof_H 	H 	0.1581	0.2286	0.4867	0.074
Mof_H 	H 	0.8338	0.5325	0.7174	0.057
Mof_H 	H 	0.3338	0.2882	0.9213	-0.009
Mof_H 	H 	0.3183	0.0932	0.768	0.02
Mof_H 	H 	0.1949	0.4723	0.7189	0.031
Mof_H 	H 	0.3338	0.7118	0.0787	-0.009
Mof_H 	H 	0.6909	0.2021	0.6917	-0.108
Mof_H 	H 	0.8419	0.5133	0.7714	0.056
Mof_H 	H 	0.3338	0.2174	0.9675	0.049
Mof_H 	H 	0.8051	0.4723	0.7189	0.023
Mof_H 	H 	0.6819	0.8604	0.2925	0.185
Mof_H 	H 	0.1817	0.4068	0.268	0.033
Mof_H 	H 	0.6819	0.7075	0.1396	0.185
Mof_H 	H 	0.6949	0.7811	0.9723	0.033
Mof_H 	H 	0.6662	0.7118	0.0787	-0.003
Mof_H 	H 	5.21328e-32	0.6218	0.3105	0.049
Mof_H 	H 	0.3051	0.7811	0.9723	0.025
Mof_H 	H 	0.6662	0.2174	0.9675	0.055
Mof_H 	H 	0.3091	0.3083	0.7979	-0.117
Mof_H 	H 	0.8183	0.5932	0.732	0.013
Mof_H 	H 	0.8183	0.268	0.4068	0.013
Mof_H 	H 	0.1909	0.1917	0.2979	-0.11
Mof_H 	H 	0.8338	0.2826	0.4675	0.057
Mof_H 	H 	0.8181	0.2075	0.3604	0.169
Mof_H 	H 	0.3091	0.2021	0.6917	-0.117
Mof_H 	H 	0.8091	0.8083	0.7021	-0.115
Mof_H 	H 	0.8051	0.5277	0.2811	0.023
Mof_H 	H 	0.8091	0.1917	0.2979	-0.115
Mof_H 	H 	0.8338	0.7882	0.5787	-0.001
Mof_H 	H 	2.48602e-32	0.3782	0.6895	0.049
Mof_H 	H 	0.6819	0.2925	0.8604	0.185
Mof_H 	H 	0.6817	0.232	0.9068	0.031
Mof_H 	H 	0.1662	0.5787	0.7882	-0.019
Mof_H 	H 	0.1581	0.4867	0.2286	0.074
Mof_H 	H 	0.6817	0.9068	0.232	0.031
Mof_H 	H 	0.1817	0.5932	0.732	0.033
Mof_H 	H 	0.3051	0.2189	0.0277	0.025
Mof_H 	H 	0.1819	0.2075	0.3604	0.178
Mof_H 	H 	0.6817	0.768	0.0932	0.031
Mof_H 	H 	0.8338	0.5787	0.7882	-0.001
Mof_H 	H 	0.6662	0.0325	0.7826	0.055
Mof_H 	H 	0.6581	0.9867	0.2714	0.069
Mof_H 	H 	0.6662	0.9675	0.2174	0.055
Mof_H 	H 	0.8338	0.4213	0.2118	-0.001
Mof_H 	H 	0.1909	0.7021	0.8083	-0.11
Mof_H 	H 	0.1819	0.7925	0.6396	0.178
Mof_H 	H 	0.8181	0.3604	0.2075	0.169
Mof_H 	H 	0.8181	0.6396	0.7925	0.169
Mof_H 	H 	0.8183	0.732	0.5932	0.013
Mof_H 	H 	0.8051	0.2811	0.5277	0.023
Mof_H 	H 	0.3183	0.232	0.9068	0.02
Mof_H 	H 	5.61078e-32	0.3105	0.6218	0.049
Mof_H 	H 	0.8183	0.4068	0.268	0.013
Mof_H 	H 	0.1819	0.6396	0.7925	0.178
Mof_H 	H 	0.1662	0.2826	0.4675	0.04
Mof_H 	H 	0.8338	0.7174	0.5325	0.057
Mof_H 	H 	0.3091	0.7979	0.3083	-0.117
Mof_H 	H 	0.8091	0.7021	0.8083	-0.115
Mof_H 	H 	0.3338	0.9213	0.2882	-0.009
Mof_H 	H 	0.8338	0.4675	0.2826	0.057
Mof_H 	H 	0.6819	0.1396	0.7075	0.185
Mof_H 	H 	0.1581	0.5133	0.7714	0.074
Mof_H 	H 	0.1949	0.2811	0.5277	0.031
Mof_H 	H 	0.3338	0.7826	0.0325	0.049
Mof_H 	H 	0.5	0.8105	0.8782	0.041
Mof_H 	H 	0.3183	0.768	0.0932	0.02
Mof_H 	H 	0.5	0.1895	0.1218	0.041
Mof_H 	H 	0.1909	0.2979	0.1917	-0.11
Mof_H 	H 	0.1949	0.7189	0.4723	0.031
Mof_H 	H 	0.1819	0.3604	0.2075	0.178
Mof_H 	H 	0.1817	0.732	0.5932	0.033
Mof_H 	H 	0.8181	0.7925	0.6396	0.169
Mof_H 	H 	0.8091	0.2979	0.1917	-0.115
Mof_H 	H 	0.3419	0.9867	0.2714	0.06
Mof_H 	H 	0.1909	0.8083	0.7021	-0.11
Mof_H 	H 	0.3091	0.6917	0.2021	-0.117
Mof_C 	C 	0.7387	0.90114	0.8071	0.406
Mof_C 	C 	0.5	0.09609	0.19636	0.065
Mof_C 	C 	0.5925	0.9566	0.2302	-0.066
Mof_C 	C 	0.8839	0.28525	0.54006	0.069
Mof_C 	C 	0.896	0.653	0.79133	-0.391
Mof_C 	C 	0.5983	0.2382	0.9169	-0.005
Mof_C 	C 	1.17257e-32	0.9183	0.9183	0.462
Mof_C 	C 	0.4035	0.9298	0.272	0.08
Mof_C 	C 	0.5983	0.9169	0.2382	-0.005
Mof_C 	C 	0.5	0.90391	0.80364	0.065
Mof_C 	C 	0.1177	0.4226	0.70181	-0.118
Mof_C 	C 	1.96173e-32	0.52013	0.2789	-0.104
Mof_C 	C 	0.7387	0.09886	0.1929	0.406
Mof_C 	C 	0.6177	0.20181	0.0774	-0.128
Mof_C 	C 	0.4075	0.2302	0.9566	-0.071
Mof_C 	C 	0.4079	0.0309	0.7369	-0.106
Mof_C 	C 	2.21834e-32	0.7211	0.47987	-0.104
Mof_C 	C 	0.2387	0.40114	0.6929	0.4
Mof_C 	C 	0.6177	0.79819	0.9226	-0.128
Mof_C 	C 	-7.97457e-33	0.77918	0.6329	0.306
Mof_C 	C 	0.2613	0.09886	0.1929	0.408
Mof_C 	C 	0.8823	0.4226	0.70181	-0.089
Mof_C 	C 	0.4017	0.0831	0.7618	0
Mof_C 	C 	0.5	0.1329	0.72082	0.349
Mof_C 	C 	-1.2694e-32	0.4823	0.2633	0.074
Mof_C 	C 	0.1161	0.54006	0.28525	0.03
Mof_C 	C 	0.0921	0.2369	0.4691	-0.145
Mof_C 	C 	4.10038e-32	0.40391	0.69636	0.004
Mof_C 	C 	0.604	0.153	0.70867	-0.444
Mof_C 	C 	0.5925	0.2302	0.9566	-0.066
Mof_C 	C 	0.0925	0.2698	0.4566	-0.037
Mof_C 	C 	0.5	0.0177	0.7633	0.118
Mof_C 	C 	-1.13686e-32	0.22082	0.3671	0.306
Mof_C 	C 	0.5	0.30433	0.788	-0.649
Mof_C 	C 	0.5921	0.9691	0.2631	-0.111
Mof_C 	C 	0.5	0.75	0.31533	1.053
Mof_C 	C 	0.4079	0.7369	0.0309	-0.106
Mof_C 	C 	-1.28638e-32	0.18467	0.25	0.974
Mof_C 	C 	0.0965	0.5702	0.772	0.116
Mof_C 	C 	0.8839	0.45994	0.71475	0.069
Mof_C 	C 	0.5	0.25	0.68467	1.053
Mof_C 	C 	0.4075	0.7698	0.0434	-0.071
Mof_C 	C 	4.13197e-32	0.47987	0.7211	-0.104
Mof_C 	C 	0.1161	0.28525	0.54006	0.03
Mof_C 	C 	0.5	0.8671	0.27918	0.349
Mof_C 	C 	0.9075	0.7302	0.5434	-0.065
Mof_C 	C 	0.2613	0.8071	0.90114	0.408
Mof_C 	C 	0.5	0.9066	0.2648	-0.19
Mof_C 	C 	0.9035	0.5702	0.772	0.088
Mof_C 	C 	0.389	0.69767	0.191	0.47
Mof_C 	C 	0.0965	0.772	0.5702	0.116
Mof_C 	C 	0.0983	0.4169	0.2618	-0.035
Mof_C 	C 	0.104	0.79133	0.653	-0.437
Mof_C 	C 	0.4017	0.7618	0.0831	0
Mof_C 	C 	0.4035	0.272	0.9298	0.08
Mof_C 	C 	0.5	0.0934	0.7352	-0.19
Mof_C 	C 	0.111	0.309	0.19767	0.457
Mof_C 	C 	0.8823	0.5774	0.29819	-0.089
Mof_C 	C 	0.396	0.70867	0.153	-0.445
Mof_C 	C 	0.2387	0.6929	0.40114	0.4
Mof_C 	C 	0.5	0.2648	0.9066	-0.19
Mof_C 	C 	0.5	0.69567	0.212	-0.649
Mof_C 	C 	4.12035e-32	0.80433	0.712	-0.661
Mof_C 	C 	0.611	0.30233	0.809	0.471
Mof_C 	C 	0.9035	0.228	0.4298	0.088
Mof_C 	C 	0.0921	0.7631	0.5309	-0.145
Mof_C 	C 	7.46349e-32	0.75	0.81533	0.974
Mof_C 	C 	2.26975e-32	0.2789	0.52013	-0.104
Mof_C 	C 	0.604	0.29133	0.847	-0.444
Mof_C 	C 	0.7613	0.6929	0.40114	0.397
Mof_C 	C 	0.5983	0.7618	0.0831	-0.005
Mof_C 	C 	0.6161	0.78525	0.95994	0.038
Mof_C 	C 	0.389	0.191	0.69767	0.47
Mof_C 	C 	0.889	0.309	0.19767	0.493
Mof_C 	C 	0.5	0.788	0.30433	-0.649
Mof_C 	C 	0.5	0.97987	0.7789	-0.079
Mof_C 	C 	0.0925	0.4566	0.2698	-0.037
Mof_C 	C 	0.5	0.02013	0.2211	-0.079
Mof_C 	C 	0.111	0.80233	0.691	0.457
Mof_C 	C 	0.889	0.691	0.80233	0.493
Mof_C 	C 	0.5965	0.0702	0.728	0.085
Mof_C 	C 	3.00325e-33	0.4066	0.2352	-0.234
Mof_C 	C 	0.4079	0.9691	0.2631	-0.106
Mof_C 	C 	0.389	0.30233	0.809	0.47
Mof_C 	C 	0.5	0.72082	0.1329	0.349
Mof_C 	C 	0.1177	0.29819	0.5774	-0.118
Mof_C 	C 	0.9079	0.5309	0.7631	-0.059
Mof_C 	C 	0.5925	0.0434	0.7698	-0.066
Mof_C 	C 	0.889	0.80233	0.691	0.493
Mof_C 	C 	4.15189e-32	0.5177	0.7367	0.074
Mof_C 	C 	0.5	0.7789	0.97987	-0.079
Mof_C 	C 	0.389	0.809	0.30233	0.47
Mof_C 	C 	0.9017	0.4169	0.2618	0.047
Mof_C 	C 	0.889	0.19767	0.309	0.493
Mof_C 	C 	1.19052e-32	0.59609	0.30364	0.004
Mof_C 	C 	0.611	0.69767	0.191	0.471
Mof_C 	C 	0.0983	0.7382	0.5831	-0.035
Mof_C 	C 	0.3823	0.9226	0.79819	-0.134
Mof_C 	C 	0.9079	0.7631	0.5309	-0.059
Mof_C 	C 	0.2613	0.1929	0.09886	0.408
Mof_C 	C 	7.38007e-32	0.81533	0.75	0.974
Mof_C 	C 	0.4017	0.2382	0.9169	0
Mof_C 	C 	0.4079	0.2631	0.9691	-0.106
Mof_C 	C 	0.5	0.80364	0.90391	0.065
Mof_C 	C 	0.4017	0.9169	0.2382	0
Mof_C 	C 	0.5	0.5817	0.4183	0.47
Mof_C 	C 	0.0921	0.5309	0.7631	-0.145
Mof_C 	C 	0.9075	0.5434	0.7302	-0.065
Mof_C 	C 	0.6161	0.95994	0.78525	0.038
Mof_C 	C 	0.7613	0.40114	0.6929	0.397
Mof_C 	C 	0.9017	0.7382	0.5831	0.047
Mof_C 	C 	0.6161	0.04006	0.21475	0.038
Mof_C 	C 	0.4035	0.728	0.0702	0.08
Mof_C 	C 	0.8839	0.71475	0.45994	0.069
Mof_C 	C 	0.6177	0.0774	0.20181	-0.128
Mof_C 	C 	2.36331e-32	0.7648	0.5934	-0.234
Mof_C 	C 	9.76566e-33	0.5934	0.7648	-0.234
Mof_C 	C 	3.46105e-32	0.288	0.19567	-0.661
Mof_C 	C 	3.72695e-32	0.69636	0.40391	0.004
Mof_C 	C 	0.5	0.2367	0.9823	0.118
Mof_C 	C 	3.57895e-32	0.19567	0.288	-0.661
Mof_C 	C 	0.3823	0.79819	0.9226	-0.134
Mof_C 	C 	0.396	0.29133	0.847	-0.445
Mof_C 	C 	0.2387	0.59886	0.3071	0.4
Mof_C 	C 	0.896	0.347	0.20867	-0.391
Mof_C 	C 	0.5	0.212	0.69567	-0.649
Mof_C 	C 	0.104	0.653	0.79133	-0.437
Mof_C 	C 	0.2613	0.90114	0.8071	0.408
Mof_C 	C 	0.9017	0.2618	0.4169	0.047
Mof_C 	C 	0.5921	0.2631	0.9691	-0.111
Mof_C 	C 	0.3839	0.21475	0.04006	0.039
Mof_C 	C 	0.1161	0.71475	0.45994	0.03
Mof_C 	C 	0.5	0.19636	0.09609	0.065
Mof_C 	C 	0.4075	0.9566	0.2302	-0.071
Mof_C 	C 	0.4075	0.0434	0.7698	-0.071
Mof_C 	C 	5.05722e-33	0.0817	0.0817	0.462
Mof_C 	C 	0.7613	0.59886	0.3071	0.397
Mof_C 	C 	0.7613	0.3071	0.59886	0.397
Mof_C 	C 	0.5965	0.272	0.9298	0.085
Mof_C 	C 	0.9035	0.4298	0.228	0.088
Mof_C 	C 	0.5925	0.7698	0.0434	-0.066
Mof_C 	C 	0.611	0.191	0.69767	0.471
Mof_C 	C 	0.3823	0.20181	0.0774	-0.134
Mof_C 	C 	0.5	0.2211	0.02013	-0.079
Mof_C 	C 	0.5	0.7633	0.0177	0.118
Mof_C 	C 	0.0965	0.4298	0.228	0.116
Mof_C 	C 	0.6161	0.21475	0.04006	0.038
Mof_C 	C 	4.23824e-32	0.712	0.80433	-0.661
Mof_C 	C 	0.1177	0.70181	0.4226	-0.118
Mof_C 	C 	0.1161	0.45994	0.71475	0.03
Mof_C 	C 	0.8823	0.70181	0.4226	-0.089
Mof_C 	C 	0.5965	0.728	0.0702	0.085
Mof_C 	C 	0.5983	0.0831	0.7618	-0.005
Mof_C 	C 	2.81963e-33	0.3671	0.22082	0.306
Mof_C 	C 	-9.89757e-33	0.2633	0.4823	0.074
Mof_C 	C 	0.896	0.79133	0.653	-0.391
Mof_C 	C 	0.6177	0.9226	0.79819	-0.128
Mof_C 	C 	0.0965	0.228	0.4298	0.116
Mof_C 	C 	0.3839	0.95994	0.78525	0.039
Mof_C 	C 	0.0925	0.7302	0.5434	-0.037
Mof_C 	C 	0.2387	0.3071	0.59886	0.4
Mof_C 	C 	0.0925	0.5434	0.7302	-0.037
Mof_C 	C 	0.0983	0.5831	0.7382	-0.035
Mof_C 	C 	0.5	0.68467	0.25	1.053
Mof_C 	C 	0.9079	0.2369	0.4691	-0.059
Mof_C 	C 	7.61142e-33	0.30364	0.59609	0.004
Mof_C 	C 	0.5	0.9823	0.2367	0.118
Mof_C 	C 	0.5	0.27918	0.8671	0.349
Mof_C 	C 	0.8823	0.29819	0.5774	-0.089
Mof_C 	C 	0.611	0.809	0.30233	0.471
Mof_C 	C 	0.9035	0.772	0.5702	0.088
Mof_C 	C 	0.396	0.153	0.70867	-0.445
Mof_C 	C 	0.7387	0.8071	0.90114	0.406
Mof_C 	C 	0.104	0.20867	0.347	-0.437
Mof_C 	C 	0.5921	0.0309	0.7369	-0.111
Mof_C 	C 	0.7387	0.1929	0.09886	0.406
Mof_C 	C 	0.104	0.347	0.20867	-0.437
Mof_C 	C 	0.5	0.31533	0.75	1.053
Mof_C 	C 	0.3839	0.04006	0.21475	0.039
Mof_C 	C 	0.604	0.847	0.29133	-0.444
Mof_C 	C 	0.9079	0.4691	0.2369	-0.059
Mof_C 	C 	0.0983	0.2618	0.4169	-0.035
Mof_C 	C 	0.9075	0.2698	0.4566	-0.065
Mof_C 	C 	0.1177	0.5774	0.29819	-0.118
Mof_C 	C 	0.5921	0.7369	0.0309	-0.111
Mof_C 	C 	0.5965	0.9298	0.272	0.085
Mof_C 	C 	0.111	0.691	0.80233	0.457
Mof_C 	C 	0.9075	0.4566	0.2698	-0.065
Mof_C 	C 	0.604	0.70867	0.153	-0.444
Mof_C 	C 	0.9017	0.5831	0.7382	0.047
Mof_C 	C 	0.5	0.7352	0.0934	-0.19
Mof_C 	C 	0.8839	0.54006	0.28525	0.069
Mof_C 	C 	0.3823	0.0774	0.20181	-0.134
Mof_C 	C 	0.5	0.4183	0.5817	0.47
Mof_C 	C 	0.4035	0.0702	0.728	0.08
Mof_C 	C 	0.896	0.20867	0.347	-0.391
Mof_C 	C 	3.87225e-32	0.7367	0.5177	0.074
Mof_C 	C 	5.19184e-33	0.2352	0.4066	-0.234
Mof_C 	C 	0.111	0.19767	0.309	0.457
Mof_C 	C 	-5.66997e-33	0.25	0.18467	0.974
Mof_C 	C 	9.94928e-33	0.6329	0.77918	0.306
Mof_C 	C 	0.3839	0.78525	0.95994	0.039
Mof_C 	C 	0.0921	0.4691	0.2369	-0.145
Mof_C 	C 	0.396	0.847	0.29133	-0.445
Mof_O 	O 	0.1574	0.18991	0.07842	-0.481
Mof_O 	O 	0.5926	0.32252	0.73607	-0.712
Mof_O 	O 	9.9662e-33	0.15179	0.15179	-0.953
Mof_O 	O 	0.5926	0.67748	0.26393	-0.712
Mof_O 	O 	0.2325	0.30983	0.63328	-0.478
Mof_O 	O 	0.7325	0.80983	0.86672	-0.47
Mof_O 	O 	0.8426	0.92158	0.81009	-0.451
Mof_O 	O 	0.8426	0.18991	0.07842	-0.451
Mof_O 	O 	0.2325	0.36672	0.69017	-0.478
Mof_O 	O 	0.2675	0.86672	0.80983	-0.479
Mof_O 	O 	0.3426	0.68991	0.42158	-0.472
Mof_O 	O 	0.3426	0.42158	0.68991	-0.472
Mof_O 	O 	0.1574	0.92158	0.81009	-0.481
Mof_O 	O 	0.7675	0.30983	0.63328	-0.464
Mof_O 	O 	0.1574	0.81009	0.92158	-0.481
Mof_O 	O 	0.4074	0.73607	0.32252	-0.717
Mof_O 	O 	0.9074	0.17748	0.23607	-0.655
Mof_O 	O 	0.4074	0.32252	0.73607	-0.717
Mof_O 	O 	0.7325	0.19017	0.13328	-0.47
Mof_O 	O 	4.90285e-33	0.1127	0.06961	-0.546
Mof_O 	O 	0.2325	0.63328	0.30983	-0.478
Mof_O 	O 	0.5	0.65179	0.34821	-0.933
Mof_O 	O 	0.0926	0.17748	0.23607	-0.696
Mof_O 	O 	5.45306e-33	0.06961	0.1127	-0.546
Mof_O 	O 	0.5	0.56961	0.3873	-0.534
Mof_O 	O 	0.2325	0.69017	0.36672	-0.478
Mof_O 	O 	0.3426	0.31009	0.57842	-0.472
Mof_O 	O 	0.9074	0.82252	0.76393	-0.655
Mof_O 	O 	0.6574	0.68991	0.42158	-0.468
Mof_O 	O 	-2.12813e-32	0.84821	0.84821	-0.953
Mof_O 	O 	0.4074	0.26393	0.67748	-0.717
Mof_O 	O 	0.6574	0.42158	0.68991	-0.468
Mof_O 	O 	0.5	0.43039	0.6127	-0.534
Mof_O 	O 	0.6574	0.31009	0.57842	-0.468
Mof_O 	O 	0.5	0.6127	0.43039	-0.534
Mof_O 	O 	0.0926	0.76393	0.82252	-0.696
Mof_O 	O 	0.0926	0.82252	0.76393	-0.696
Mof_O 	O 	0.9074	0.23607	0.17748	-0.655
Mof_O 	O 	0.4074	0.67748	0.26393	-0.717
Mof_O 	O 	4.39921e-32	0.8873	0.93039	-0.546
Mof_O 	O 	0.7675	0.36672	0.69017	-0.464
Mof_O 	O 	0.7325	0.86672	0.80983	-0.47
Mof_O 	O 	0.7675	0.63328	0.30983	-0.464
Mof_O 	O 	0.2675	0.13328	0.19017	-0.479
Mof_O 	O 	0.9074	0.76393	0.82252	-0.655
Mof_O 	O 	0.6574	0.57842	0.31009	-0.468
Mof_O 	O 	0.0926	0.23607	0.17748	-0.696
Mof_O 	O 	0.2675	0.19017	0.13328	-0.479
Mof_O 	O 	0.7325	0.13328	0.19017	-0.47
Mof_O 	O 	0.7675	0.69017	0.36672	-0.464
Mof_O 	O 	0.5926	0.26393	0.67748	-0.712
Mof_O 	O 	0.5	0.3873	0.56961	-0.534
Mof_O 	O 	0.2675	0.80983	0.86672	-0.479
Mof_O 	O 	0.5	0.34821	0.65179	-0.933
Mof_O 	O 	0.3426	0.57842	0.31009	-0.472
Mof_O 	O 	0.5926	0.73607	0.32252	-0.712
Mof_O 	O 	0.1574	0.07842	0.18991	-0.481
Mof_O 	O 	0.8426	0.81009	0.92158	-0.451
Mof_O 	O 	7.55539e-32	0.93039	0.8873	-0.546
Mof_O 	O 	0.8426	0.07842	0.18991	-0.451
_end
