data_functionalizedCrystal
_audit_creation_method	'EQeq! by Chris Wilmer'
_symmetry_space_group_name_H-M	'P1'
_symmetry_Int_Tables_number	1
_symmetry_cell_setting	triclinic
loop_
_symmetry_equiv_pos_as_xyz
  x,y,z
_cell_length_a	10.125
_cell_length_b	10.7664
_cell_length_c	13.2928
_cell_angle_alpha	86.521
_cell_angle_beta	73.151
_cell_angle_gamma	85.317
loop_
_atom_site_label
_atom_site_type_symbol
_atom_site_fract_x
_atom_site_fract_y
_atom_site_fract_z
_atom_site_charge
Mof_Mn	Mn	0.86159	0.5912	0.30786	0.802
Mof_C 	C 	0.1205	0.2501	0.0723	0.341
Mof_C 	C 	0.1999	0.226	0.1522	-0.106
Mof_C 	C 	0.2538	0.3219	0.1908	0.013
Mof_H 	H 	0.2349	0.4046	0.1722	0.034
Mof_C 	C 	0.3357	0.2922	0.2568	-0.073
Mof_H 	H 	0.3718	0.3561	0.2824	0.062
Mof_C 	C 	0.3653	0.1705	0.2857	-0.021
Mof_H 	H 	0.4228	0.1527	0.3288	0.034
Mof_C 	C 	0.3089	0.0745	0.2501	-0.048
Mof_C 	C 	0.2254	0.1043	0.1843	0
Mof_H 	H 	0.1858	0.0407	0.1612	0.017
Mof_C 	C 	0.3339	0.9402	0.2777	0.062
Mof_C 	C 	0.4622	0.8869	0.2824	-0.071
Mof_H 	H 	0.536	0.9369	0.2726	0.074
Mof_C 	C 	0.4801	0.7582	0.3021	-0.047
Mof_C 	C 	0.6205	0.6998	0.2997	0.293
Mof_C 	C 	0.3701	0.6829	0.319	-0.016
Mof_H 	H 	0.3824	0.5976	0.3325	0.055
Mof_C 	C 	0.2415	0.736	0.3157	-0.049
Mof_C 	C 	0.1199	0.6576	0.3299	0.302
Mof_C 	C 	0.2253	0.8619	0.294	-0.064
Mof_H 	H 	0.1395	0.896	0.29	0.069
Mof_C 	C 	0.8278	0.3047	0.2686	0.024
Mof_H 	H 	0.7856	0.3268	0.216	0.027
Mof_C 	C 	0.8518	0.1885	0.302	0.002
Mof_H 	H 	0.8308	0.1158	0.2772	0.027
Mof_C 	C 	0.9268	0.3179	0.3892	0.118
Mof_H 	H 	0.9674	0.3491	0.436	0.01
Mof_C 	C 	0.5744	0.1549	0.0338	0.022
Mof_H 	H 	0.4809	0.1451	0.0442	0.022
Mof_C 	C 	0.6726	0.0644	0.038	-0.058
Mof_H 	H 	0.6571	0.9805	0.0528	0.063
Mof_C 	C 	0.7744	0.2346	0.0012	0.05
Mof_H 	H 	0.8418	0.2922	0.9852	0.053
Mof_C 	C 	0.5715	0.386	0.0036	0.024
Mof_C 	C 	0.4712	0.3987	0.9511	0.008
Mof_H 	H 	0.4519	0.331	0.9188	0.048
Mof_C 	C 	0.6009	0.485	0.0527	-0.018
Mof_H 	H 	0.6681	0.4748	0.0882	0.049
Mof_C 	C 	0.9587	0.096	0.4411	0.118
Mof_C 	C 	0.8938	0.9849	0.4564	-0.077
Mof_H 	H 	0.8227	0.9755	0.4268	0.077
Mof_C 	C 	0.0645	0.11152	0.48419	-0.127
Mof_H 	H 	0.1074	0.1863	0.4733	0.07
Mof_N 	N 	0.87443	0.3872	0.32318	-0.189
Mof_N 	N 	0.91399	0.19707	0.38036	-0.141
Mof_N 	N 	0.79952	0.11385	0.01711	-0.159
Mof_N 	N 	0.6393	0.26439	0.01111	-0.124
Mof_O 	O 	0.09533	0.36148	0.04575	-0.285
Mof_O 	O 	0.0875	0.15768	0.03482	-0.385
Mof_O 	O 	0.72158	0.766	0.28249	-0.314
Mof_O 	O 	0.6366	0.58449	0.3135	-0.333
Mof_O 	O 	0.1159	0.55269	0.37449	-0.3
Mof_O 	O 	0.0234	0.7071	0.29301	-0.374
Mof_Mn	Mn	0.13841	0.4088	0.69214	0.748
Mof_C 	C 	0.8795	0.7499	0.9277	0.317
Mof_C 	C 	0.8001	0.774	0.8478	-0.031
Mof_C 	C 	0.7462	0.6781	0.8092	-0.047
Mof_H 	H 	0.7651	0.5954	0.8278	0.068
Mof_C 	C 	0.6643	0.7078	0.7432	0.008
Mof_H 	H 	0.6282	0.6439	0.7176	0.038
Mof_C 	C 	0.6347	0.8295	0.7143	-0.108
Mof_H 	H 	0.5772	0.8473	0.6712	0.076
Mof_C 	C 	0.6911	0.9255	0.7499	0.078
Mof_C 	C 	0.7746	0.8957	0.8157	-0.077
Mof_H 	H 	0.8142	0.9593	0.8388	0.078
Mof_C 	C 	0.6661	0.0598	0.7223	-0.043
Mof_C 	C 	0.5378	0.1131	0.7176	-0.011
Mof_H 	H 	0.464	0.0631	0.7274	0.038
Mof_C 	C 	0.5199	0.2418	0.6979	-0.079
Mof_C 	C 	0.3795	0.3002	0.7003	0.307
Mof_C 	C 	0.6299	0.3171	0.681	0.011
Mof_H 	H 	0.6176	0.4024	0.6675	0.047
Mof_C 	C 	0.7585	0.264	0.6843	-0.07
Mof_C 	C 	0.8801	0.3424	0.6701	0.306
Mof_C 	C 	0.7747	0.1381	0.706	-0.01
Mof_H 	H 	0.8605	0.104	0.71	0.051
Mof_C 	C 	0.1722	0.6953	0.7314	0.019
Mof_H 	H 	0.2144	0.6732	0.784	0.025
Mof_C 	C 	0.1482	0.8115	0.698	-0.006
Mof_H 	H 	0.1692	0.8842	0.7228	0.037
Mof_C 	C 	0.0732	0.6821	0.6108	0.104
Mof_H 	H 	0.0326	0.6509	0.564	-0.005
Mof_C 	C 	0.4256	0.8451	0.9662	-0.021
Mof_H 	H 	0.5191	0.8549	0.9558	0.055
Mof_C 	C 	0.3274	0.9356	0.962	0.07
Mof_H 	H 	0.3429	0.0195	0.9472	0
Mof_C 	C 	0.2256	0.7654	0.9988	0.147
Mof_H 	H 	0.1582	0.7078	0.0148	-0.032
Mof_C 	C 	0.4285	0.614	0.9964	0.156
Mof_C 	C 	0.5288	0.6013	0.0489	-0.154
Mof_H 	H 	0.5481	0.669	0.0812	0.091
Mof_C 	C 	0.3991	0.515	0.9473	-0.132
Mof_H 	H 	0.3319	0.5252	0.9118	0.093
Mof_C 	C 	0.0413	0.904	0.5589	0.069
Mof_C 	C 	0.1062	0.0151	0.5436	-0.082
Mof_H 	H 	0.1773	0.0245	0.5732	0.057
Mof_C 	C 	0.9355	0.88848	0.51581	-0.021
Mof_H 	H 	0.8926	0.8137	0.5267	0.054
Mof_N 	N 	0.12557	0.6128	0.67682	-0.191
Mof_N 	N 	0.08601	0.80293	0.61964	-0.135
Mof_N 	N 	0.20048	0.88615	0.98289	-0.182
Mof_N 	N 	0.3607	0.73561	0.98889	-0.147
Mof_O 	O 	0.90467	0.63852	0.95425	-0.233
Mof_O 	O 	0.9125	0.84232	0.96518	-0.322
Mof_O 	O 	0.27842	0.234	0.71751	-0.326
Mof_O 	O 	0.3634	0.41551	0.6865	-0.332
Mof_O 	O 	0.8841	0.44731	0.62551	-0.277
Mof_O 	O 	0.9766	0.2929	0.70699	-0.332
Mof_Mn	Mn	-0	0	-0	0.667
_end
