# CIF file generated by openbabel 3.1.0, see https://openbabel.org
data_I
_chemical_name_common 'image0'
_cell_length_a 12.057
_cell_length_b 24.891
_cell_length_c 12.38
_cell_angle_alpha 90
_cell_angle_beta 93.04
_cell_angle_gamma 90
_space_group_name_H-M_alt 'P 1'
_space_group_name_Hall 'P 1'
loop_
    _symmetry_equiv_pos_as_xyz
    x,y,z
loop_
    _atom_site_label
    _atom_site_type_symbol
    _atom_site_fract_x
    _atom_site_fract_y
    _atom_site_fract_z
    _atom_site_occupancy
    Cu1      Cu       0.67730    0.67300    0.75880    1.000
    Cu2      Cu       0.67850    0.76180    0.89300    1.000
    Cu3      Cu       0.85110    0.75230    0.74300    1.000
    Cu4      Cu       0.85640    0.67880    0.92300    1.000
    Cu5      Cu       0.82550    0.41910    0.38840    1.000
    Cu6      Cu       0.64880    0.43120    0.24330    1.000
    Cu7      Cu       0.66550    0.50250    0.42190    1.000
    Cu8      Cu       0.81660    0.51140    0.26040    1.000
    I1       I        0.87910    0.64380    0.71720    1.000
    I2       I        0.89680    0.78450    0.94690    1.000
    I3       I        0.63400    0.77360    0.68410    1.000
    I4       I        0.65290    0.66350    0.98170    1.000
    I5       I        0.61110    0.39970    0.44590    1.000
    I6       I        0.86100    0.41280    0.18010    1.000
    I7       I        0.88540    0.51510    0.47160    1.000
    I8       I        0.59830    0.53650    0.22350    1.000
    S1       S        0.53100    0.62160    0.68380    1.000
    S2       S        0.57010    0.81780    0.99480    1.000
    S3       S        0.07400    0.85350    0.51210    1.000
    S4       S        0.99190    0.62850    0.02060    1.000
    N1       N        0.89100    0.56250    0.17100    1.000
    N2       N        0.44600    0.88440    0.84800    1.000
    N3       N        0.94600    0.79300    0.65300    1.000
    N4       N        0.60200    0.55100    0.53000    1.000
    C1       C        0.93400    0.58700    0.10800    1.000
    C2       C        0.49800    0.85600    0.90600    1.000
    C3       C        0.00100    0.82080    0.59700    1.000
    C4       C        0.57500    0.57900    0.59300    1.000
    Cu9      Cu       0.32270    0.17300    0.24120    1.000
    Cu10     Cu       0.32150    0.26180    0.10700    1.000
    Cu11     Cu       0.14890    0.25230    0.25700    1.000
    Cu12     Cu       0.14360    0.17880    0.07700    1.000
    Cu13     Cu       0.17450    0.91910    0.61160    1.000
    Cu14     Cu       0.35120    0.93120    0.75670    1.000
    Cu15     Cu       0.33450    0.00250    0.57810    1.000
    Cu16     Cu       0.18340    0.01140    0.73960    1.000
    I9       I        0.12090    0.14380    0.28280    1.000
    I10      I        0.10320    0.28450    0.05310    1.000
    I11      I        0.36600    0.27360    0.31590    1.000
    I12      I        0.34710    0.16350    0.01830    1.000
    I13      I        0.38890    0.89970    0.55410    1.000
    I14      I        0.13900    0.91280    0.81990    1.000
    I15      I        0.11460    0.01510    0.52840    1.000
    I16      I        0.40170    0.03650    0.77650    1.000
    S5       S        0.46900    0.12160    0.31620    1.000
    S6       S        0.42990    0.31780    0.00520    1.000
    S7       S        0.92600    0.35350    0.48790    1.000
    S8       S        0.00810    0.12850    0.97940    1.000
    N5       N        0.10900    0.06250    0.82900    1.000
    N6       N        0.55400    0.38440    0.15200    1.000
    N7       N        0.05400    0.29300    0.34700    1.000
    N8       N        0.39800    0.05100    0.47000    1.000
    C5       C        0.06600    0.08700    0.89200    1.000
    C6       C        0.50200    0.35600    0.09400    1.000
    C7       C        0.99900    0.32080    0.40300    1.000
    C8       C        0.42500    0.07900    0.40700    1.000
