data_functionalizedCrystal
_audit_creation_method	'EQeq! by Chris Wilmer'
_symmetry_space_group_name_H-M	'P1'
_symmetry_Int_Tables_number	1
_symmetry_cell_setting	triclinic
loop_
_symmetry_equiv_pos_as_xyz
  x,y,z
_cell_length_a	9.428
_cell_length_b	22.415
_cell_length_c	10.051
_cell_angle_alpha	90
_cell_angle_beta	102.12
_cell_angle_gamma	90
loop_
_atom_site_label
_atom_site_type_symbol
_atom_site_fract_x
_atom_site_fract_y
_atom_site_fract_z
_atom_site_charge
Mof_Dy	Dy	0.2505	0.27717	0.04663	1.831
Mof_Dy	Dy	0.71833	0.43461	0.85831	2.009
Mof_N 	N 	0.5983	0.4152	0.6254	-0.242
Mof_N 	N 	0.5341	0.41369	0.4025	-0.202
Mof_H 	H 	0.52406	0.42668	0.32141	0.158
Mof_N 	N 	0.7766	0.50743	0.6483	-0.2
Mof_O 	O 	0.0677	0.33781	0.1094	-0.428
Mof_O 	O 	0.0343	0.288	0.8635	-0.414
Mof_O 	O 	0.8303	0.34248	0.7913	-0.394
Mof_O 	O 	0.849	0.38065	0.0488	-0.408
Mof_O 	O 	0.5242	0.35985	0.8231	-0.46
Mof_O 	O 	0.3776	0.29458	0.6937	-0.52
Mof_O 	O 	0.2771	0.29313	0.3914	-0.552
Mof_O 	O 	0.3651	0.33741	0.2273	-0.492
Mof_O 	O 	0.6013	0.4361	0.0509	-0.402
Mof_O 	O 	0.4695	0.49149	0.1657	-0.435
Mof_O 	O 	0.9769	0.44787	0.8687	-0.429
Mof_O 	O 	0.1808	0.48171	0.0047	-0.43
Mof_C 	C 	0.456	0.36928	0.4488	-0.035
Mof_C 	C 	0.498	0.3708	0.5894	-0.057
Mof_C 	C 	0.6193	0.44017	0.5117	0.118
Mof_C 	C 	0.7235	0.48952	0.5185	0.04
Mof_C 	C 	0.7649	0.51421	0.4051	-0.101
Mof_H 	H 	0.72757	0.49935	0.31608	0.079
Mof_C 	C 	0.8633	0.56168	0.4272	0.029
Mof_H 	H 	0.89464	0.57994	0.35309	0.02
Mof_C 	C 	0.9144	0.58159	0.5588	-0.119
Mof_H 	H 	0.97965	0.61435	0.57603	0.07
Mof_C 	C 	0.8693	0.55318	0.6654	0.09
Mof_H 	H 	0.90647	0.567	0.75531	0.011
Mof_C 	C 	0.3578	0.33023	0.3497	0.435
Mof_C 	C 	0.4617	0.33826	0.7068	0.395
Mof_C 	C 	0.5209	0.47858	0.062	0.266
Mof_C 	C 	0.0452	0.47976	0.9625	0.27
Mof_C 	C 	0.953	0.34932	0.0263	0.265
Mof_C 	C 	0.9368	0.3242	0.8801	0.235
Mof_Dy	Dy	0.7495	0.77717	0.45337	1.837
Mof_Dy	Dy	0.28167	0.93461	0.64169	2.005
Mof_N 	N 	0.4017	0.9152	0.8746	-0.243
Mof_N 	N 	0.4659	0.91369	0.0975	-0.202
Mof_H 	H 	0.47594	0.92668	0.17859	0.158
Mof_N 	N 	0.2234	0.00743	0.8517	-0.196
Mof_O 	O 	0.9323	0.83781	0.3906	-0.424
Mof_O 	O 	0.9657	0.788	0.6365	-0.42
Mof_O 	O 	0.1697	0.84248	0.7087	-0.395
Mof_O 	O 	0.151	0.88065	0.4512	-0.407
Mof_O 	O 	0.4758	0.85985	0.6769	-0.46
Mof_O 	O 	0.6224	0.79458	0.8063	-0.52
Mof_O 	O 	0.7229	0.79313	0.1086	-0.549
Mof_O 	O 	0.6349	0.83741	0.2727	-0.492
Mof_O 	O 	0.3987	0.9361	0.4491	-0.402
Mof_O 	O 	0.5305	0.99149	0.3343	-0.434
Mof_O 	O 	0.0231	0.94787	0.6313	-0.427
Mof_O 	O 	0.8192	0.98171	0.4953	-0.427
Mof_C 	C 	0.544	0.86928	0.0512	-0.03
Mof_C 	C 	0.502	0.8708	0.9106	-0.061
Mof_C 	C 	0.3807	0.94017	0.9883	0.117
Mof_C 	C 	0.2765	0.98952	0.9815	0.036
Mof_C 	C 	0.2351	0.01421	0.0949	-0.098
Mof_H 	H 	0.27243	0.99935	0.18392	0.078
Mof_C 	C 	0.1367	0.06168	0.0728	0.017
Mof_H 	H 	0.10536	0.07994	0.14691	0.022
Mof_C 	C 	0.0856	0.08159	0.9412	-0.106
Mof_H 	H 	0.02035	0.11435	0.92397	0.068
Mof_C 	C 	0.1307	0.05318	0.8346	0.085
Mof_H 	H 	0.09353	0.067	0.74469	0.013
Mof_C 	C 	0.6422	0.83023	0.1503	0.433
Mof_C 	C 	0.5383	0.83826	0.7932	0.396
Mof_C 	C 	0.4791	0.97858	0.438	0.265
Mof_C 	C 	0.9548	0.97976	0.5375	0.265
Mof_C 	C 	0.047	0.84932	0.4737	0.258
Mof_C 	C 	0.0632	0.8242	0.6199	0.241
Mof_Dy	Dy	0.7495	0.72283	0.95337	1.83
Mof_Dy	Dy	0.28167	0.56539	0.14169	2.008
Mof_N 	N 	0.4017	0.5848	0.3746	-0.243
Mof_N 	N 	0.4659	0.58631	0.5975	-0.203
Mof_H 	H 	0.47594	0.57332	0.67859	0.158
Mof_N 	N 	0.2234	0.49257	0.3517	-0.2
Mof_O 	O 	0.9323	0.66219	0.8906	-0.428
Mof_O 	O 	0.9657	0.712	0.1365	-0.414
Mof_O 	O 	0.1697	0.65752	0.2087	-0.394
Mof_O 	O 	0.151	0.61935	0.9512	-0.408
Mof_O 	O 	0.4758	0.64015	0.1769	-0.46
Mof_O 	O 	0.6224	0.70542	0.3063	-0.52
Mof_O 	O 	0.7229	0.70687	0.6086	-0.552
Mof_O 	O 	0.6349	0.66259	0.7727	-0.492
Mof_O 	O 	0.3987	0.5639	0.9491	-0.402
Mof_O 	O 	0.5305	0.50851	0.8343	-0.435
Mof_O 	O 	0.0231	0.55213	0.1313	-0.429
Mof_O 	O 	0.8192	0.51829	0.9953	-0.43
Mof_C 	C 	0.544	0.63072	0.5512	-0.035
Mof_C 	C 	0.502	0.6292	0.4106	-0.057
Mof_C 	C 	0.3807	0.55983	0.4883	0.118
Mof_C 	C 	0.2765	0.51048	0.4815	0.04
Mof_C 	C 	0.2351	0.48579	0.5949	-0.101
Mof_H 	H 	0.27243	0.50065	0.68392	0.079
Mof_C 	C 	0.1367	0.43832	0.5728	0.029
Mof_H 	H 	0.10536	0.42006	0.64691	0.02
Mof_C 	C 	0.0856	0.41841	0.4412	-0.119
Mof_H 	H 	0.02035	0.38565	0.42397	0.07
Mof_C 	C 	0.1307	0.44682	0.3346	0.09
Mof_H 	H 	0.09353	0.433	0.24469	0.011
Mof_C 	C 	0.6422	0.66977	0.6503	0.435
Mof_C 	C 	0.5383	0.66174	0.2932	0.395
Mof_C 	C 	0.4791	0.52142	0.938	0.266
Mof_C 	C 	0.9548	0.52024	0.0375	0.27
Mof_C 	C 	0.047	0.65068	0.9737	0.265
Mof_C 	C 	0.0632	0.6758	0.1199	0.235
Mof_Dy	Dy	0.2505	0.22283	0.54663	1.837
Mof_Dy	Dy	0.71833	0.06539	0.35831	2.005
Mof_N 	N 	0.5983	0.0848	0.1254	-0.243
Mof_N 	N 	0.5341	0.08631	0.9025	-0.202
Mof_H 	H 	0.52406	0.07332	0.82141	0.158
Mof_N 	N 	0.7766	0.99257	0.1483	-0.196
Mof_O 	O 	0.0677	0.16219	0.6094	-0.424
Mof_O 	O 	0.0343	0.212	0.3635	-0.42
Mof_O 	O 	0.8303	0.15752	0.2913	-0.395
Mof_O 	O 	0.849	0.11935	0.5488	-0.407
Mof_O 	O 	0.5242	0.14015	0.3231	-0.46
Mof_O 	O 	0.3776	0.20542	0.1937	-0.52
Mof_O 	O 	0.2771	0.20687	0.8914	-0.549
Mof_O 	O 	0.3651	0.16259	0.7273	-0.492
Mof_O 	O 	0.6013	0.0639	0.5509	-0.402
Mof_O 	O 	0.4695	0.00851	0.6657	-0.434
Mof_O 	O 	0.9769	0.05213	0.3687	-0.427
Mof_O 	O 	0.1808	0.01829	0.5047	-0.427
Mof_C 	C 	0.456	0.13072	0.9488	-0.03
Mof_C 	C 	0.498	0.1292	0.0894	-0.061
Mof_C 	C 	0.6193	0.05983	0.0117	0.117
Mof_C 	C 	0.7235	0.01048	0.0185	0.036
Mof_C 	C 	0.7649	0.98579	0.9051	-0.098
Mof_H 	H 	0.72757	0.00065	0.81608	0.078
Mof_C 	C 	0.8633	0.93832	0.9272	0.017
Mof_H 	H 	0.89464	0.92006	0.85309	0.022
Mof_C 	C 	0.9144	0.91841	0.0588	-0.106
Mof_H 	H 	0.97965	0.88565	0.07603	0.068
Mof_C 	C 	0.8693	0.94682	0.1654	0.085
Mof_H 	H 	0.90647	0.933	0.25531	0.013
Mof_C 	C 	0.3578	0.16977	0.8497	0.433
Mof_C 	C 	0.4617	0.16174	0.2068	0.396
Mof_C 	C 	0.5209	0.02142	0.562	0.265
Mof_C 	C 	0.0452	0.02024	0.4625	0.265
Mof_C 	C 	0.953	0.15068	0.5263	0.258
Mof_C 	C 	0.9368	0.1758	0.3801	0.241
_end
