data_functionalizedCrystal
_audit_creation_method	'EQeq! by Chris Wilmer'
_symmetry_space_group_name_H-M	'P1'
_symmetry_Int_Tables_number	1
_symmetry_cell_setting	triclinic
loop_
_symmetry_equiv_pos_as_xyz
  x,y,z
_cell_length_a	28.6457
_cell_length_b	12.544
_cell_length_c	21.6016
_cell_angle_alpha	90
_cell_angle_beta	103.195
_cell_angle_gamma	90
loop_
_atom_site_label
_atom_site_type_symbol
_atom_site_fract_x
_atom_site_fract_y
_atom_site_fract_z
_atom_site_charge
Mof_C 	C 	0.17737	0.4481	0.32255	0.102
Mof_H 	H 	0.2045	0.4217	0.3505	-0.016
Mof_C 	C 	0.12864	0.5558	0.26967	0.11
Mof_H 	H 	0.1135	0.6176	0.2516	-0.007
Mof_C 	C 	0.84515	0.8727	0.14047	0.099
Mof_H 	H 	0.8326	0.9166	0.1673	-0.005
Mof_C 	C 	0.86076	0.7426	0.08852	0.088
Mof_H 	H 	0.8605	0.6738	0.0723	-0.013
Mof_C 	C 	0.80284	0.6697	0.8259	0.102
Mof_H 	H 	0.8002	0.695	0.7848	0.006
Mof_C 	C 	0.78788	0.6433	0.91382	0.103
Mof_H 	H 	0.7736	0.6429	0.9484	-0.036
Mof_C 	C 	0.06892	0.423	0.21416	0.095
Mof_C 	C 	0.03212	0.4935	0.19156	-0.077
Mof_H 	H 	0.0348	0.564	0.2052	0.062
Mof_C 	C 	0.99151	0.4601	0.14887	-0.078
Mof_H 	H 	0.9672	0.5086	0.1331	0.065
Mof_C 	C 	0.98646	0.3538	0.12889	0.094
Mof_C 	C 	0.02392	0.2841	0.15175	-0.083
Mof_H 	H 	0.0213	0.2133	0.1386	0.066
Mof_C 	C 	0.06522	0.3182	0.19393	-0.072
Mof_H 	H 	0.0903	0.2708	0.2085	0.068
Mof_C 	C 	0.8949	0.0078	0.10235	0.083
Mof_C 	C 	0.90703	0.0708	0.15569	-0.071
Mof_H 	H 	0.9042	0.0447	0.195	0.061
Mof_C 	C 	0.9235	0.1734	0.15044	-0.088
Mof_H 	H 	0.9316	0.2166	0.1863	0.071
Mof_C 	C 	0.92784	0.2116	0.09247	0.096
Mof_C 	C 	0.91533	0.148	0.03897	-0.09
Mof_H 	H 	0.9184	0.1739	0.9998	0.068
Mof_C 	C 	0.89834	0.0461	0.04368	-0.07
Mof_H 	H 	0.8893	0.0036	0.0076	0.059
Mof_C 	C 	0.91498	0.3872	0.04284	0.093
Mof_C 	C 	0.86701	0.396	0.0414	-0.084
Mof_H 	H 	0.854	0.3568	0.0699	0.067
Mof_C 	C 	0.8377	0.4626	0.99813	-0.077
Mof_H 	H 	0.8052	0.4679	0.9974	0.052
Mof_C 	C 	0.85702	0.5204	0.95648	0.094
Mof_C 	C 	0.90468	0.513	0.9574	-0.076
Mof_H 	H 	0.9175	0.5528	0.9289	0.073
Mof_C 	C 	0.93374	0.447	0.0002	-0.079
Mof_H 	H 	0.9662	0.4423	0.0007	0.062
Mof_C 	C 	0.22478	0.6987	0.22225	0.31
Mof_C 	C 	0.23224	0.7132	0.15632	-0.095
Mof_C 	C 	0.20353	0.7808	0.11428	0.026
Mof_H 	H 	0.1788	0.8167	0.1267	0.033
Mof_C 	C 	0.21074	0.7965	0.0536	-0.105
Mof_H 	H 	0.1911	0.8438	0.0263	0.062
Mof_C 	C 	0.24668	0.743	0.03296	0.037
Mof_C 	C 	0.27608	0.6773	0.07654	-0.106
Mof_H 	H 	0.3015	0.6426	0.0649	0.066
Mof_C 	C 	0.26868	0.6621	0.13678	0.032
Mof_H 	H 	0.2888	0.6164	0.1647	0.034
Mof_Co	Co	0.21807	0.68328	0.33777	1.108
Mof_N 	N 	0.17036	0.5528	0.31125	-0.256
Mof_N 	N 	0.11154	0.45772	0.25753	-0.112
Mof_N 	N 	0.14329	0.386	0.2915	-0.096
Mof_N 	N 	0.83452	0.7709	0.12997	-0.26
Mof_N 	N 	0.87632	0.9033	0.10716	-0.114
Mof_N 	N 	0.8869	0.8197	0.07256	-0.096
Mof_N 	N 	0.77212	0.6983	0.86134	-0.261
Mof_N 	N 	0.83688	0.6038	0.85308	-0.089
Mof_N 	N 	0.82701	0.5882	0.91089	-0.115
Mof_N 	N 	0.94472	0.3176	0.08662	-0.154
Mof_O 	O 	0.2499	0.63271	0.25978	-0.386
Mof_O 	O 	0.19471	0.75593	0.24154	-0.37
Mof_C 	C 	0.82263	0.4481	0.17745	0.101
Mof_H 	H 	0.7955	0.4217	0.1495	-0.017
Mof_C 	C 	0.87136	0.5558	0.23033	0.109
Mof_H 	H 	0.8865	0.6176	0.2484	-0.008
Mof_C 	C 	0.15485	0.8727	0.35953	0.098
Mof_H 	H 	0.1674	0.9166	0.3327	-0.007
Mof_C 	C 	0.13924	0.7426	0.41148	0.087
Mof_H 	H 	0.1395	0.6738	0.4277	-0.014
Mof_C 	C 	0.19716	0.6697	0.6741	0.101
Mof_H 	H 	0.1998	0.695	0.7152	0.005
Mof_C 	C 	0.21212	0.6433	0.58618	0.103
Mof_H 	H 	0.2264	0.6429	0.5516	-0.036
Mof_C 	C 	0.93108	0.423	0.28584	0.095
Mof_C 	C 	0.96788	0.4935	0.30844	-0.077
Mof_H 	H 	0.9652	0.564	0.2948	0.062
Mof_C 	C 	0.00849	0.4601	0.35113	-0.078
Mof_H 	H 	0.0328	0.5086	0.3669	0.065
Mof_C 	C 	0.01354	0.3538	0.37111	0.094
Mof_C 	C 	0.97608	0.2841	0.34825	-0.083
Mof_H 	H 	0.9787	0.2133	0.3614	0.066
Mof_C 	C 	0.93478	0.3182	0.30607	-0.072
Mof_H 	H 	0.9097	0.2708	0.2915	0.068
Mof_C 	C 	0.1051	0.0078	0.39765	0.084
Mof_C 	C 	0.09297	0.0708	0.34431	-0.072
Mof_H 	H 	0.0958	0.0447	0.305	0.061
Mof_C 	C 	0.0765	0.1734	0.34956	-0.087
Mof_H 	H 	0.0684	0.2166	0.3137	0.071
Mof_C 	C 	0.07216	0.2116	0.40753	0.096
Mof_C 	C 	0.08467	0.148	0.46103	-0.088
Mof_H 	H 	0.0816	0.1739	0.5002	0.067
Mof_C 	C 	0.10166	0.0461	0.45632	-0.071
Mof_H 	H 	0.1107	0.0036	0.4924	0.059
Mof_C 	C 	0.08502	0.3872	0.45716	0.093
Mof_C 	C 	0.13299	0.396	0.4586	-0.084
Mof_H 	H 	0.146	0.3568	0.4301	0.067
Mof_C 	C 	0.1623	0.4626	0.50187	-0.077
Mof_H 	H 	0.1948	0.4679	0.5026	0.053
Mof_C 	C 	0.14298	0.5204	0.54352	0.094
Mof_C 	C 	0.09532	0.513	0.5426	-0.076
Mof_H 	H 	0.0825	0.5528	0.5711	0.073
Mof_C 	C 	0.06626	0.447	0.4998	-0.079
Mof_H 	H 	0.0338	0.4423	0.4993	0.062
Mof_C 	C 	0.77522	0.6987	0.27775	0.309
Mof_C 	C 	0.76776	0.7132	0.34368	-0.095
Mof_C 	C 	0.79647	0.7808	0.38572	0.025
Mof_H 	H 	0.8212	0.8167	0.3733	0.033
Mof_C 	C 	0.78926	0.7965	0.4464	-0.105
Mof_H 	H 	0.8089	0.8438	0.4737	0.061
Mof_C 	C 	0.75332	0.743	0.46704	0.036
Mof_C 	C 	0.72392	0.6773	0.42346	-0.106
Mof_H 	H 	0.6985	0.6426	0.4351	0.065
Mof_C 	C 	0.73132	0.6621	0.36322	0.031
Mof_H 	H 	0.7112	0.6164	0.3353	0.035
Mof_Co	Co	0.78193	0.68328	0.16223	1.108
Mof_N 	N 	0.82964	0.5528	0.18875	-0.256
Mof_N 	N 	0.88846	0.45772	0.24247	-0.112
Mof_N 	N 	0.85671	0.386	0.2085	-0.096
Mof_N 	N 	0.16548	0.7709	0.37003	-0.26
Mof_N 	N 	0.12368	0.9033	0.39284	-0.114
Mof_N 	N 	0.1131	0.8197	0.42744	-0.096
Mof_N 	N 	0.22788	0.6983	0.63866	-0.261
Mof_N 	N 	0.16312	0.6038	0.64692	-0.089
Mof_N 	N 	0.17299	0.5882	0.58911	-0.115
Mof_N 	N 	0.05528	0.3176	0.41338	-0.154
Mof_O 	O 	0.7501	0.63271	0.24022	-0.385
Mof_O 	O 	0.80529	0.75593	0.25846	-0.37
Mof_C 	C 	0.32263	0.0519	0.67745	0.101
Mof_H 	H 	0.2955	0.0783	0.6495	-0.017
Mof_C 	C 	0.37136	0.9442	0.73033	0.109
Mof_H 	H 	0.3865	0.8824	0.7484	-0.008
Mof_C 	C 	0.65485	0.6273	0.85953	0.098
Mof_H 	H 	0.6674	0.5834	0.8327	-0.007
Mof_C 	C 	0.63924	0.7574	0.91148	0.087
Mof_H 	H 	0.6395	0.8262	0.9277	-0.014
Mof_C 	C 	0.69716	0.8303	0.1741	0.101
Mof_H 	H 	0.6998	0.805	0.2152	0.005
Mof_C 	C 	0.71212	0.8567	0.08618	0.104
Mof_H 	H 	0.7264	0.8571	0.0516	-0.036
Mof_C 	C 	0.43108	0.077	0.78584	0.095
Mof_C 	C 	0.46788	0.0065	0.80844	-0.076
Mof_H 	H 	0.4652	0.936	0.7948	0.062
Mof_C 	C 	0.50849	0.0399	0.85113	-0.077
Mof_H 	H 	0.5328	0.9914	0.8669	0.064
Mof_C 	C 	0.51354	0.1462	0.87111	0.093
Mof_C 	C 	0.47608	0.2159	0.84825	-0.082
Mof_H 	H 	0.4787	0.2867	0.8614	0.066
Mof_C 	C 	0.43478	0.1818	0.80607	-0.072
Mof_H 	H 	0.4097	0.2292	0.7915	0.068
Mof_C 	C 	0.6051	0.4922	0.89765	0.085
Mof_C 	C 	0.59297	0.4292	0.84431	-0.072
Mof_H 	H 	0.5958	0.4553	0.805	0.061
Mof_C 	C 	0.5765	0.3266	0.84956	-0.087
Mof_H 	H 	0.5684	0.2834	0.8137	0.071
Mof_C 	C 	0.57216	0.2884	0.90753	0.095
Mof_C 	C 	0.58467	0.352	0.96103	-0.087
Mof_H 	H 	0.5816	0.3261	0.0002	0.067
Mof_C 	C 	0.60166	0.4539	0.95632	-0.072
Mof_H 	H 	0.6107	0.4964	0.9924	0.06
Mof_C 	C 	0.58502	0.1128	0.95716	0.091
Mof_C 	C 	0.63299	0.104	0.9586	-0.08
Mof_H 	H 	0.646	0.1432	0.9301	0.066
Mof_C 	C 	0.6623	0.0374	0.00187	-0.081
Mof_H 	H 	0.6948	0.0321	0.0026	0.054
Mof_C 	C 	0.64298	0.9796	0.04352	0.097
Mof_C 	C 	0.59532	0.987	0.0426	-0.078
Mof_H 	H 	0.5825	0.9472	0.0711	0.073
Mof_C 	C 	0.56626	0.053	0.9998	-0.077
Mof_H 	H 	0.5338	0.0577	0.9993	0.061
Mof_C 	C 	0.27522	0.8013	0.77775	0.309
Mof_C 	C 	0.26776	0.7868	0.84368	-0.094
Mof_C 	C 	0.29647	0.7192	0.88572	0.025
Mof_H 	H 	0.3212	0.6833	0.8733	0.033
Mof_C 	C 	0.28926	0.7035	0.9464	-0.104
Mof_H 	H 	0.3089	0.6562	0.9737	0.061
Mof_C 	C 	0.25332	0.757	0.96704	0.035
Mof_C 	C 	0.22392	0.8227	0.92346	-0.105
Mof_H 	H 	0.1985	0.8574	0.9351	0.065
Mof_C 	C 	0.23132	0.8379	0.86322	0.031
Mof_H 	H 	0.2112	0.8836	0.8353	0.035
Mof_Co	Co	0.28193	0.81672	0.66223	1.108
Mof_N 	N 	0.32964	0.9472	0.68875	-0.256
Mof_N 	N 	0.38846	0.04228	0.74247	-0.112
Mof_N 	N 	0.35671	0.114	0.7085	-0.096
Mof_N 	N 	0.66548	0.7291	0.87003	-0.26
Mof_N 	N 	0.62368	0.5967	0.89284	-0.114
Mof_N 	N 	0.6131	0.6803	0.92744	-0.096
Mof_N 	N 	0.72788	0.8017	0.13866	-0.261
Mof_N 	N 	0.66312	0.8962	0.14692	-0.089
Mof_N 	N 	0.67299	0.9118	0.08911	-0.115
Mof_N 	N 	0.55528	0.1824	0.91338	-0.153
Mof_O 	O 	0.2501	0.86729	0.74022	-0.386
Mof_O 	O 	0.30529	0.74407	0.75846	-0.37
Mof_C 	C 	0.67737	0.0519	0.82255	0.101
Mof_H 	H 	0.7045	0.0783	0.8505	-0.017
Mof_C 	C 	0.62864	0.9442	0.76967	0.108
Mof_H 	H 	0.6135	0.8824	0.7516	-0.008
Mof_C 	C 	0.34515	0.6273	0.64047	0.098
Mof_H 	H 	0.3326	0.5834	0.6673	-0.007
Mof_C 	C 	0.36076	0.7574	0.58852	0.087
Mof_H 	H 	0.3605	0.8262	0.5723	-0.014
Mof_C 	C 	0.30284	0.8303	0.3259	0.101
Mof_H 	H 	0.3002	0.805	0.2848	0.005
Mof_C 	C 	0.28788	0.8567	0.41382	0.103
Mof_H 	H 	0.2736	0.8571	0.4484	-0.036
Mof_C 	C 	0.56892	0.077	0.71416	0.095
Mof_C 	C 	0.53212	0.0065	0.69156	-0.076
Mof_H 	H 	0.5348	0.936	0.7052	0.062
Mof_C 	C 	0.49151	0.0399	0.64887	-0.078
Mof_H 	H 	0.4672	0.9914	0.6331	0.065
Mof_C 	C 	0.48646	0.1462	0.62889	0.094
Mof_C 	C 	0.52392	0.2159	0.65175	-0.083
Mof_H 	H 	0.5213	0.2867	0.6386	0.066
Mof_C 	C 	0.56522	0.1818	0.69393	-0.072
Mof_H 	H 	0.5903	0.2292	0.7085	0.068
Mof_C 	C 	0.3949	0.4922	0.60235	0.084
Mof_C 	C 	0.40703	0.4292	0.65569	-0.072
Mof_H 	H 	0.4042	0.4553	0.695	0.061
Mof_C 	C 	0.4235	0.3266	0.65044	-0.087
Mof_H 	H 	0.4316	0.2834	0.6863	0.071
Mof_C 	C 	0.42784	0.2884	0.59247	0.096
Mof_C 	C 	0.41533	0.352	0.53897	-0.088
Mof_H 	H 	0.4184	0.3261	0.4998	0.067
Mof_C 	C 	0.39834	0.4539	0.54368	-0.071
Mof_H 	H 	0.3893	0.4964	0.5076	0.059
Mof_C 	C 	0.41498	0.1128	0.54284	0.093
Mof_C 	C 	0.36701	0.104	0.5414	-0.084
Mof_H 	H 	0.354	0.1432	0.5699	0.067
Mof_C 	C 	0.3377	0.0374	0.49813	-0.077
Mof_H 	H 	0.3052	0.0321	0.4974	0.053
Mof_C 	C 	0.35702	0.9796	0.45648	0.094
Mof_C 	C 	0.40468	0.987	0.4574	-0.076
Mof_H 	H 	0.4175	0.9472	0.4289	0.073
Mof_C 	C 	0.43374	0.053	0.5002	-0.079
Mof_H 	H 	0.4662	0.0577	0.5007	0.062
Mof_C 	C 	0.72478	0.8013	0.72225	0.31
Mof_C 	C 	0.73224	0.7868	0.65632	-0.095
Mof_C 	C 	0.70353	0.7192	0.61428	0.025
Mof_H 	H 	0.6788	0.6833	0.6267	0.033
Mof_C 	C 	0.71074	0.7035	0.5536	-0.105
Mof_H 	H 	0.6911	0.6562	0.5263	0.061
Mof_C 	C 	0.74668	0.757	0.53296	0.036
Mof_C 	C 	0.77608	0.8227	0.57654	-0.106
Mof_H 	H 	0.8015	0.8574	0.5649	0.065
Mof_C 	C 	0.76868	0.8379	0.63678	0.031
Mof_H 	H 	0.7888	0.8836	0.6647	0.034
Mof_Co	Co	0.71807	0.81672	0.83777	1.108
Mof_N 	N 	0.67036	0.9472	0.81125	-0.256
Mof_N 	N 	0.61154	0.04228	0.75753	-0.112
Mof_N 	N 	0.64329	0.114	0.7915	-0.096
Mof_N 	N 	0.33452	0.7291	0.62997	-0.26
Mof_N 	N 	0.37632	0.5967	0.60716	-0.114
Mof_N 	N 	0.3869	0.6803	0.57256	-0.096
Mof_N 	N 	0.27212	0.8017	0.36134	-0.261
Mof_N 	N 	0.33688	0.8962	0.35308	-0.089
Mof_N 	N 	0.32701	0.9118	0.41089	-0.115
Mof_N 	N 	0.44472	0.1824	0.58662	-0.154
Mof_O 	O 	0.7499	0.86729	0.75978	-0.386
Mof_O 	O 	0.69471	0.74407	0.74154	-0.37
Mof_C 	C 	0.67737	0.9481	0.32255	0.101
Mof_H 	H 	0.7045	0.9217	0.3505	-0.017
Mof_C 	C 	0.62864	0.0558	0.26967	0.109
Mof_H 	H 	0.6135	0.1176	0.2516	-0.008
Mof_C 	C 	0.34515	0.3727	0.14047	0.098
Mof_H 	H 	0.3326	0.4166	0.1673	-0.007
Mof_C 	C 	0.36076	0.2426	0.08852	0.087
Mof_H 	H 	0.3605	0.1738	0.0723	-0.014
Mof_C 	C 	0.30284	0.1697	0.8259	0.101
Mof_H 	H 	0.3002	0.195	0.7848	0.005
Mof_C 	C 	0.28788	0.1433	0.91382	0.104
Mof_H 	H 	0.2736	0.1429	0.9484	-0.036
Mof_C 	C 	0.56892	0.923	0.21416	0.095
Mof_C 	C 	0.53212	0.9935	0.19156	-0.076
Mof_H 	H 	0.5348	0.064	0.2052	0.062
Mof_C 	C 	0.49151	0.9601	0.14887	-0.077
Mof_H 	H 	0.4672	0.0086	0.1331	0.064
Mof_C 	C 	0.48646	0.8538	0.12889	0.093
Mof_C 	C 	0.52392	0.7841	0.15175	-0.082
Mof_H 	H 	0.5213	0.7133	0.1386	0.066
Mof_C 	C 	0.56522	0.8182	0.19393	-0.072
Mof_H 	H 	0.5903	0.7708	0.2085	0.068
Mof_C 	C 	0.3949	0.5078	0.10235	0.085
Mof_C 	C 	0.40703	0.5708	0.15569	-0.072
Mof_H 	H 	0.4042	0.5447	0.195	0.061
Mof_C 	C 	0.4235	0.6734	0.15044	-0.087
Mof_H 	H 	0.4316	0.7166	0.1863	0.071
Mof_C 	C 	0.42784	0.7116	0.09247	0.095
Mof_C 	C 	0.41533	0.648	0.03897	-0.087
Mof_H 	H 	0.4184	0.6739	0.9998	0.067
Mof_C 	C 	0.39834	0.5461	0.04368	-0.072
Mof_H 	H 	0.3893	0.5036	0.0076	0.06
Mof_C 	C 	0.41498	0.8872	0.04284	0.091
Mof_C 	C 	0.36701	0.896	0.0414	-0.08
Mof_H 	H 	0.354	0.8568	0.0699	0.066
Mof_C 	C 	0.3377	0.9626	0.99813	-0.081
Mof_H 	H 	0.3052	0.9679	0.9974	0.054
Mof_C 	C 	0.35702	0.0204	0.95648	0.097
Mof_C 	C 	0.40468	0.013	0.9574	-0.078
Mof_H 	H 	0.4175	0.0528	0.9289	0.073
Mof_C 	C 	0.43374	0.947	0.0002	-0.077
Mof_H 	H 	0.4662	0.9423	0.0007	0.061
Mof_C 	C 	0.72478	0.1987	0.22225	0.309
Mof_C 	C 	0.73224	0.2132	0.15632	-0.094
Mof_C 	C 	0.70353	0.2808	0.11428	0.025
Mof_H 	H 	0.6788	0.3167	0.1267	0.033
Mof_C 	C 	0.71074	0.2965	0.0536	-0.104
Mof_H 	H 	0.6911	0.3438	0.0263	0.061
Mof_C 	C 	0.74668	0.243	0.03296	0.035
Mof_C 	C 	0.77608	0.1773	0.07654	-0.105
Mof_H 	H 	0.8015	0.1426	0.0649	0.065
Mof_C 	C 	0.76868	0.1621	0.13678	0.031
Mof_H 	H 	0.7888	0.1164	0.1647	0.035
Mof_Co	Co	0.71807	0.18328	0.33777	1.108
Mof_N 	N 	0.67036	0.0528	0.31125	-0.256
Mof_N 	N 	0.61154	0.95772	0.25753	-0.112
Mof_N 	N 	0.64329	0.886	0.2915	-0.096
Mof_N 	N 	0.33452	0.2709	0.12997	-0.26
Mof_N 	N 	0.37632	0.4033	0.10716	-0.114
Mof_N 	N 	0.3869	0.3197	0.07256	-0.096
Mof_N 	N 	0.27212	0.1983	0.86134	-0.261
Mof_N 	N 	0.33688	0.1038	0.85308	-0.089
Mof_N 	N 	0.32701	0.0882	0.91089	-0.115
Mof_N 	N 	0.44472	0.8176	0.08662	-0.153
Mof_O 	O 	0.7499	0.13271	0.25978	-0.386
Mof_O 	O 	0.69471	0.25593	0.24154	-0.37
Mof_C 	C 	0.32263	0.9481	0.17745	0.101
Mof_H 	H 	0.2955	0.9217	0.1495	-0.017
Mof_C 	C 	0.37136	0.0558	0.23033	0.108
Mof_H 	H 	0.3865	0.1176	0.2484	-0.008
Mof_C 	C 	0.65485	0.3727	0.35953	0.098
Mof_H 	H 	0.6674	0.4166	0.3327	-0.007
Mof_C 	C 	0.63924	0.2426	0.41148	0.087
Mof_H 	H 	0.6395	0.1738	0.4277	-0.014
Mof_C 	C 	0.69716	0.1697	0.6741	0.101
Mof_H 	H 	0.6998	0.195	0.7152	0.005
Mof_C 	C 	0.71212	0.1433	0.58618	0.103
Mof_H 	H 	0.7264	0.1429	0.5516	-0.036
Mof_C 	C 	0.43108	0.923	0.28584	0.095
Mof_C 	C 	0.46788	0.9935	0.30844	-0.076
Mof_H 	H 	0.4652	0.064	0.2948	0.062
Mof_C 	C 	0.50849	0.9601	0.35113	-0.078
Mof_H 	H 	0.5328	0.0086	0.3669	0.065
Mof_C 	C 	0.51354	0.8538	0.37111	0.094
Mof_C 	C 	0.47608	0.7841	0.34825	-0.083
Mof_H 	H 	0.4787	0.7133	0.3614	0.066
Mof_C 	C 	0.43478	0.8182	0.30607	-0.072
Mof_H 	H 	0.4097	0.7708	0.2915	0.068
Mof_C 	C 	0.6051	0.5078	0.39765	0.084
Mof_C 	C 	0.59297	0.5708	0.34431	-0.072
Mof_H 	H 	0.5958	0.5447	0.305	0.061
Mof_C 	C 	0.5765	0.6734	0.34956	-0.087
Mof_H 	H 	0.5684	0.7166	0.3137	0.071
Mof_C 	C 	0.57216	0.7116	0.40753	0.096
Mof_C 	C 	0.58467	0.648	0.46103	-0.088
Mof_H 	H 	0.5816	0.6739	0.5002	0.067
Mof_C 	C 	0.60166	0.5461	0.45632	-0.071
Mof_H 	H 	0.6107	0.5036	0.4924	0.059
Mof_C 	C 	0.58502	0.8872	0.45716	0.093
Mof_C 	C 	0.63299	0.896	0.4586	-0.084
Mof_H 	H 	0.646	0.8568	0.4301	0.067
Mof_C 	C 	0.6623	0.9626	0.50187	-0.077
Mof_H 	H 	0.6948	0.9679	0.5026	0.053
Mof_C 	C 	0.64298	0.0204	0.54352	0.094
Mof_C 	C 	0.59532	0.013	0.5426	-0.076
Mof_H 	H 	0.5825	0.0528	0.5711	0.073
Mof_C 	C 	0.56626	0.947	0.4998	-0.079
Mof_H 	H 	0.5338	0.9423	0.4993	0.062
Mof_C 	C 	0.27522	0.1987	0.27775	0.31
Mof_C 	C 	0.26776	0.2132	0.34368	-0.095
Mof_C 	C 	0.29647	0.2808	0.38572	0.025
Mof_H 	H 	0.3212	0.3167	0.3733	0.033
Mof_C 	C 	0.28926	0.2965	0.4464	-0.105
Mof_H 	H 	0.3089	0.3438	0.4737	0.061
Mof_C 	C 	0.25332	0.243	0.46704	0.036
Mof_C 	C 	0.22392	0.1773	0.42346	-0.106
Mof_H 	H 	0.1985	0.1426	0.4351	0.065
Mof_C 	C 	0.23132	0.1621	0.36322	0.031
Mof_H 	H 	0.2112	0.1164	0.3353	0.034
Mof_Co	Co	0.28193	0.18328	0.16223	1.108
Mof_N 	N 	0.32964	0.0528	0.18875	-0.256
Mof_N 	N 	0.38846	0.95772	0.24247	-0.112
Mof_N 	N 	0.35671	0.886	0.2085	-0.096
Mof_N 	N 	0.66548	0.2709	0.37003	-0.26
Mof_N 	N 	0.62368	0.4033	0.39284	-0.114
Mof_N 	N 	0.6131	0.3197	0.42744	-0.096
Mof_N 	N 	0.72788	0.1983	0.63866	-0.261
Mof_N 	N 	0.66312	0.1038	0.64692	-0.089
Mof_N 	N 	0.67299	0.0882	0.58911	-0.115
Mof_N 	N 	0.55528	0.8176	0.41338	-0.154
Mof_O 	O 	0.2501	0.13271	0.24022	-0.386
Mof_O 	O 	0.30529	0.25593	0.25846	-0.37
Mof_C 	C 	0.82263	0.5519	0.67745	0.101
Mof_H 	H 	0.7955	0.5783	0.6495	-0.017
Mof_C 	C 	0.87136	0.4442	0.73033	0.109
Mof_H 	H 	0.8865	0.3824	0.7484	-0.008
Mof_C 	C 	0.15485	0.1273	0.85953	0.098
Mof_H 	H 	0.1674	0.0834	0.8327	-0.006
Mof_C 	C 	0.13924	0.2574	0.91148	0.087
Mof_H 	H 	0.1395	0.3262	0.9277	-0.014
Mof_C 	C 	0.19716	0.3303	0.1741	0.101
Mof_H 	H 	0.1998	0.305	0.2152	0.005
Mof_C 	C 	0.21212	0.3567	0.08618	0.103
Mof_H 	H 	0.2264	0.3571	0.0516	-0.036
Mof_C 	C 	0.93108	0.577	0.78584	0.095
Mof_C 	C 	0.96788	0.5065	0.80844	-0.077
Mof_H 	H 	0.9652	0.436	0.7948	0.062
Mof_C 	C 	0.00849	0.5399	0.85113	-0.078
Mof_H 	H 	0.0328	0.4914	0.8669	0.065
Mof_C 	C 	0.01354	0.6462	0.87111	0.094
Mof_C 	C 	0.97608	0.7159	0.84825	-0.083
Mof_H 	H 	0.9787	0.7867	0.8614	0.066
Mof_C 	C 	0.93478	0.6818	0.80607	-0.072
Mof_H 	H 	0.9097	0.7292	0.7915	0.068
Mof_C 	C 	0.1051	0.9922	0.89765	0.083
Mof_C 	C 	0.09297	0.9292	0.84431	-0.071
Mof_H 	H 	0.0958	0.9553	0.805	0.061
Mof_C 	C 	0.0765	0.8266	0.84956	-0.088
Mof_H 	H 	0.0684	0.7834	0.8137	0.071
Mof_C 	C 	0.07216	0.7884	0.90753	0.096
Mof_C 	C 	0.08467	0.852	0.96103	-0.09
Mof_H 	H 	0.0816	0.8261	0.0002	0.068
Mof_C 	C 	0.10166	0.9539	0.95632	-0.07
Mof_H 	H 	0.1107	0.9964	0.9924	0.059
Mof_C 	C 	0.08502	0.6128	0.95716	0.093
Mof_C 	C 	0.13299	0.604	0.9586	-0.084
Mof_H 	H 	0.146	0.6432	0.9301	0.067
Mof_C 	C 	0.1623	0.5374	0.00187	-0.077
Mof_H 	H 	0.1948	0.5321	0.0026	0.052
Mof_C 	C 	0.14298	0.4796	0.04352	0.094
Mof_C 	C 	0.09532	0.487	0.0426	-0.076
Mof_H 	H 	0.0825	0.4472	0.0711	0.073
Mof_C 	C 	0.06626	0.553	0.9998	-0.079
Mof_H 	H 	0.0338	0.5577	0.9993	0.062
Mof_C 	C 	0.77522	0.3013	0.77775	0.31
Mof_C 	C 	0.76776	0.2868	0.84368	-0.095
Mof_C 	C 	0.79647	0.2192	0.88572	0.026
Mof_H 	H 	0.8212	0.1833	0.8733	0.033
Mof_C 	C 	0.78926	0.2035	0.9464	-0.105
Mof_H 	H 	0.8089	0.1562	0.9737	0.062
Mof_C 	C 	0.75332	0.257	0.96704	0.037
Mof_C 	C 	0.72392	0.3227	0.92346	-0.106
Mof_H 	H 	0.6985	0.3574	0.9351	0.066
Mof_C 	C 	0.73132	0.3379	0.86322	0.032
Mof_H 	H 	0.7112	0.3836	0.8353	0.034
Mof_Co	Co	0.78193	0.31672	0.66223	1.108
Mof_N 	N 	0.82964	0.4472	0.68875	-0.256
Mof_N 	N 	0.88846	0.54228	0.74247	-0.112
Mof_N 	N 	0.85671	0.614	0.7085	-0.096
Mof_N 	N 	0.16548	0.2291	0.87003	-0.26
Mof_N 	N 	0.12368	0.0967	0.89284	-0.114
Mof_N 	N 	0.1131	0.1803	0.92744	-0.096
Mof_N 	N 	0.22788	0.3017	0.13866	-0.261
Mof_N 	N 	0.16312	0.3962	0.14692	-0.089
Mof_N 	N 	0.17299	0.4118	0.08911	-0.115
Mof_N 	N 	0.05528	0.6824	0.91338	-0.154
Mof_O 	O 	0.7501	0.36729	0.74022	-0.386
Mof_O 	O 	0.80529	0.24407	0.75846	-0.37
Mof_C 	C 	0.17737	0.5519	0.82255	0.101
Mof_H 	H 	0.2045	0.5783	0.8505	-0.017
Mof_C 	C 	0.12864	0.4442	0.76967	0.109
Mof_H 	H 	0.1135	0.3824	0.7516	-0.008
Mof_C 	C 	0.84515	0.1273	0.64047	0.098
Mof_H 	H 	0.8326	0.0834	0.6673	-0.007
Mof_C 	C 	0.86076	0.2574	0.58852	0.087
Mof_H 	H 	0.8605	0.3262	0.5723	-0.014
Mof_C 	C 	0.80284	0.3303	0.3259	0.101
Mof_H 	H 	0.8002	0.305	0.2848	0.005
Mof_C 	C 	0.78788	0.3567	0.41382	0.103
Mof_H 	H 	0.7736	0.3571	0.4484	-0.036
Mof_C 	C 	0.06892	0.577	0.71416	0.095
Mof_C 	C 	0.03212	0.5065	0.69156	-0.077
Mof_H 	H 	0.0348	0.436	0.7052	0.062
Mof_C 	C 	0.99151	0.5399	0.64887	-0.078
Mof_H 	H 	0.9672	0.4914	0.6331	0.065
Mof_C 	C 	0.98646	0.6462	0.62889	0.094
Mof_C 	C 	0.02392	0.7159	0.65175	-0.083
Mof_H 	H 	0.0213	0.7867	0.6386	0.066
Mof_C 	C 	0.06522	0.6818	0.69393	-0.072
Mof_H 	H 	0.0903	0.7292	0.7085	0.068
Mof_C 	C 	0.8949	0.9922	0.60235	0.084
Mof_C 	C 	0.90703	0.9292	0.65569	-0.072
Mof_H 	H 	0.9042	0.9553	0.695	0.061
Mof_C 	C 	0.9235	0.8266	0.65044	-0.087
Mof_H 	H 	0.9316	0.7834	0.6863	0.071
Mof_C 	C 	0.92784	0.7884	0.59247	0.096
Mof_C 	C 	0.91533	0.852	0.53897	-0.088
Mof_H 	H 	0.9184	0.8261	0.4998	0.067
Mof_C 	C 	0.89834	0.9539	0.54368	-0.071
Mof_H 	H 	0.8893	0.9964	0.5076	0.059
Mof_C 	C 	0.91498	0.6128	0.54284	0.093
Mof_C 	C 	0.86701	0.604	0.5414	-0.084
Mof_H 	H 	0.854	0.6432	0.5699	0.067
Mof_C 	C 	0.8377	0.5374	0.49813	-0.077
Mof_H 	H 	0.8052	0.5321	0.4974	0.053
Mof_C 	C 	0.85702	0.4796	0.45648	0.094
Mof_C 	C 	0.90468	0.487	0.4574	-0.076
Mof_H 	H 	0.9175	0.4472	0.4289	0.073
Mof_C 	C 	0.93374	0.553	0.5002	-0.079
Mof_H 	H 	0.9662	0.5577	0.5007	0.062
Mof_C 	C 	0.22478	0.3013	0.72225	0.309
Mof_C 	C 	0.23224	0.2868	0.65632	-0.095
Mof_C 	C 	0.20353	0.2192	0.61428	0.025
Mof_H 	H 	0.1788	0.1833	0.6267	0.033
Mof_C 	C 	0.21074	0.2035	0.5536	-0.105
Mof_H 	H 	0.1911	0.1562	0.5263	0.061
Mof_C 	C 	0.24668	0.257	0.53296	0.036
Mof_C 	C 	0.27608	0.3227	0.57654	-0.106
Mof_H 	H 	0.3015	0.3574	0.5649	0.065
Mof_C 	C 	0.26868	0.3379	0.63678	0.031
Mof_H 	H 	0.2888	0.3836	0.6647	0.035
Mof_Co	Co	0.21807	0.31672	0.83777	1.108
Mof_N 	N 	0.17036	0.4472	0.81125	-0.256
Mof_N 	N 	0.11154	0.54228	0.75753	-0.112
Mof_N 	N 	0.14329	0.614	0.7915	-0.096
Mof_N 	N 	0.83452	0.2291	0.62997	-0.26
Mof_N 	N 	0.87632	0.0967	0.60716	-0.114
Mof_N 	N 	0.8869	0.1803	0.57256	-0.096
Mof_N 	N 	0.77212	0.3017	0.36134	-0.261
Mof_N 	N 	0.83688	0.3962	0.35308	-0.089
Mof_N 	N 	0.82701	0.4118	0.41089	-0.115
Mof_N 	N 	0.94472	0.6824	0.58662	-0.154
Mof_O 	O 	0.2499	0.36729	0.75978	-0.385
Mof_O 	O 	0.19471	0.24407	0.74154	-0.37
_end
