# CIF file generated by openbabel 3.1.0, see https://openbabel.org
data_I
_chemical_name_common 'image0'
_cell_length_a 30.516
_cell_length_b 30.516
_cell_length_c 17.704
_cell_angle_alpha 90
_cell_angle_beta 90
_cell_angle_gamma 120
_space_group_name_H-M_alt 'P 1'
_space_group_name_Hall 'P 1'
loop_
    _symmetry_equiv_pos_as_xyz
    x,y,z
loop_
    _atom_site_label
    _atom_site_type_symbol
    _atom_site_fract_x
    _atom_site_fract_y
    _atom_site_fract_z
    _atom_site_occupancy
    Zn1      Zn       0.63184    0.85363    0.52340    1.000
    N1       N        0.63886    0.89247    0.42369    1.000
    N2       N        0.60453    0.79395    0.44729    1.000
    N3       N        0.58550    0.77118    0.32836    1.000
    H1       H        0.58290    0.77350    0.27920    1.000
    O1       O        0.47940    0.49953    0.24583    1.000
    O2       O        0.45028    0.52959    0.15604    1.000
    O3       O        0.58592    0.62749    0.74709    1.000
    O4       O        0.50335    0.59083    0.73154    1.000
    C1       C        0.65316    0.94156    0.41679    1.000
    H2       H        0.66320    0.96220    0.46070    1.000
    C2       C        0.65373    0.96320    0.34796    1.000
    H3       H        0.66350    0.99800    0.34470    1.000
    C3       C        0.63998    0.93350    0.28417    1.000
    H4       H        0.64060    0.94780    0.23620    1.000
    C4       C        0.62518    0.88272    0.29001    1.000
    H5       H        0.61580    0.86170    0.24650    1.000
    C5       C        0.62446    0.86342    0.36113    1.000
    C6       C        0.60596    0.80996    0.37723    1.000
    C7       C        0.58134    0.74194    0.44346    1.000
    C8       C        0.56930    0.72705    0.36867    1.000
    C9       C        0.54469    0.67782    0.33096    1.000
    C10      C        0.51704    0.67074    0.26424    1.000
    H6       H        0.51450    0.69810    0.24360    1.000
    C11      C        0.49346    0.62419    0.22837    1.000
    H7       H        0.47480    0.61990    0.18340    1.000
    C12      C        0.49687    0.58366    0.25752    1.000
    C13      C        0.52456    0.59066    0.32370    1.000
    H8       H        0.52710    0.56330    0.34420    1.000
    C14      C        0.54827    0.63708    0.35962    1.000
    H9       H        0.56720    0.64130    0.40430    1.000
    C15      C        0.47302    0.53395    0.21620    1.000
    C16      C        0.57191    0.71190    0.51286    1.000
    C17      C        0.60916    0.72848    0.56862    1.000
    H10      H        0.64020    0.75920    0.56180    1.000
    C18      C        0.60108    0.70036    0.63387    1.000
    H11      H        0.62670    0.71180    0.67140    1.000
    C19      C        0.55573    0.65562    0.64459    1.000
    C20      C        0.51779    0.64004    0.59047    1.000
    H12      H        0.48610    0.61030    0.59860    1.000
    C21      C        0.52605    0.66777    0.52452    1.000
    H13      H        0.50020    0.65650    0.48730    1.000
    C22      C        0.54862    0.62344    0.71247    1.000
    Zn2      Zn       0.29851    0.18696    0.85673    1.000
    N4       N        0.30553    0.22580    0.75702    1.000
    N5       N        0.27120    0.12728    0.78062    1.000
    N6       N        0.25217    0.10451    0.66169    1.000
    H14      H        0.24957    0.10683    0.61253    1.000
    O5       O        0.14607    0.83286    0.57916    1.000
    O6       O        0.11695    0.86292    0.48937    1.000
    O7       O        0.25259    0.96082    0.08042    1.000
    O8       O        0.17002    0.92416    0.06487    1.000
    C23      C        0.31983    0.27489    0.75012    1.000
    H15      H        0.32987    0.29553    0.79403    1.000
    C24      C        0.32040    0.29653    0.68129    1.000
    H16      H        0.33017    0.33133    0.67803    1.000
    C25      C        0.30665    0.26683    0.61750    1.000
    H17      H        0.30727    0.28113    0.56953    1.000
    C26      C        0.29185    0.21605    0.62334    1.000
    H18      H        0.28247    0.19503    0.57983    1.000
    C27      C        0.29113    0.19675    0.69446    1.000
    C28      C        0.27263    0.14329    0.71056    1.000
    C29      C        0.24801    0.07527    0.77679    1.000
    C30      C        0.23597    0.06038    0.70200    1.000
    C31      C        0.21136    0.01115    0.66429    1.000
    C32      C        0.18371    0.00407    0.59757    1.000
    H19      H        0.18117    0.03143    0.57693    1.000
    C33      C        0.16013    0.95752    0.56170    1.000
    H20      H        0.14147    0.95323    0.51673    1.000
    C34      C        0.16354    0.91699    0.59085    1.000
    C35      C        0.19123    0.92399    0.65703    1.000
    H21      H        0.19377    0.89663    0.67753    1.000
    C36      C        0.21494    0.97041    0.69295    1.000
    H22      H        0.23387    0.97463    0.73763    1.000
    C37      C        0.13969    0.86728    0.54953    1.000
    C38      C        0.23858    0.04523    0.84619    1.000
    C39      C        0.27583    0.06181    0.90195    1.000
    H23      H        0.30687    0.09253    0.89513    1.000
    C40      C        0.26775    0.03369    0.96720    1.000
    H24      H        0.29337    0.04513    0.00473    1.000
    C41      C        0.22240    0.98895    0.97792    1.000
    C42      C        0.18446    0.97337    0.92380    1.000
    H25      H        0.15277    0.94363    0.93193    1.000
    C43      C        0.19272    0.00110    0.85785    1.000
    H26      H        0.16687    0.98983    0.82063    1.000
    C44      C        0.21529    0.95677    0.04580    1.000
    Zn3      Zn       0.96517    0.52030    0.19007    1.000
    N7       N        0.97219    0.55914    0.09036    1.000
    N8       N        0.93786    0.46062    0.11396    1.000
    N9       N        0.91883    0.43785    0.99503    1.000
    H27      H        0.91623    0.44017    0.94587    1.000
    O9       O        0.81273    0.16620    0.91250    1.000
    O10      O        0.78361    0.19626    0.82271    1.000
    O11      O        0.91925    0.29416    0.41376    1.000
    O12      O        0.83668    0.25750    0.39821    1.000
    C45      C        0.98649    0.60823    0.08346    1.000
    H28      H        0.99653    0.62887    0.12737    1.000
    C46      C        0.98706    0.62987    0.01463    1.000
    H29      H        0.99683    0.66467    0.01137    1.000
    C47      C        0.97331    0.60017    0.95084    1.000
    H30      H        0.97393    0.61447    0.90287    1.000
    C48      C        0.95851    0.54939    0.95668    1.000
    H31      H        0.94913    0.52837    0.91317    1.000
    C49      C        0.95779    0.53009    0.02780    1.000
    C50      C        0.93929    0.47663    0.04390    1.000
    C51      C        0.91467    0.40861    0.11013    1.000
    C52      C        0.90263    0.39372    0.03534    1.000
    C53      C        0.87802    0.34449    0.99763    1.000
    C54      C        0.85037    0.33741    0.93091    1.000
    H32      H        0.84783    0.36477    0.91027    1.000
    C55      C        0.82679    0.29086    0.89504    1.000
    H33      H        0.80813    0.28657    0.85007    1.000
    C56      C        0.83020    0.25033    0.92419    1.000
    C57      C        0.85789    0.25733    0.99037    1.000
    H34      H        0.86043    0.22997    0.01087    1.000
    C58      C        0.88160    0.30375    0.02629    1.000
    H35      H        0.90053    0.30797    0.07097    1.000
    C59      C        0.80635    0.20062    0.88287    1.000
    C60      C        0.90524    0.37857    0.17953    1.000
    C61      C        0.94249    0.39515    0.23529    1.000
    H36      H        0.97353    0.42587    0.22847    1.000
    C62      C        0.93441    0.36703    0.30054    1.000
    H37      H        0.96003    0.37847    0.33807    1.000
    C63      C        0.88906    0.32229    0.31126    1.000
    C64      C        0.85112    0.30671    0.25714    1.000
    H38      H        0.81943    0.27697    0.26527    1.000
    C65      C        0.85938    0.33444    0.19119    1.000
    H39      H        0.83353    0.32317    0.15397    1.000
    C66      C        0.88195    0.29011    0.37914    1.000
    Zn4      Zn       0.14637    0.77821    0.52340    1.000
    N10      N        0.10753    0.74639    0.42369    1.000
    N11      N        0.20605    0.81058    0.44729    1.000
    N12      N        0.22882    0.81432    0.32836    1.000
    H40      H        0.22650    0.80940    0.27920    1.000
    O13      O        0.50047    0.97987    0.24583    1.000
    O14      O        0.47041    0.92069    0.15604    1.000
    O15      O        0.37251    0.95843    0.74709    1.000
    O16      O        0.40917    0.91252    0.73154    1.000
    C67      C        0.05844    0.71160    0.41679    1.000
    H41      H        0.03780    0.70100    0.46070    1.000
    C68      C        0.03680    0.69053    0.34796    1.000
    H42      H        0.00200    0.66550    0.34470    1.000
    C69      C        0.06650    0.70648    0.28417    1.000
    H43      H        0.05220    0.69280    0.23620    1.000
    C70      C        0.11728    0.74246    0.29001    1.000
    H44      H        0.13830    0.75410    0.24650    1.000
    C71      C        0.13658    0.76104    0.36113    1.000
    C72      C        0.19004    0.79600    0.37723    1.000
    C73      C        0.25806    0.83940    0.44346    1.000
    C74      C        0.27295    0.84225    0.36867    1.000
    C75      C        0.32218    0.86687    0.33096    1.000
    C76      C        0.32926    0.84630    0.26424    1.000
    H45      H        0.30190    0.81640    0.24360    1.000
    C77      C        0.37581    0.86927    0.22837    1.000
    H46      H        0.38010    0.85490    0.18340    1.000
    C78      C        0.41634    0.91321    0.25752    1.000
    C79      C        0.40934    0.93390    0.32370    1.000
    H47      H        0.43670    0.96380    0.34420    1.000
    C80      C        0.36292    0.91119    0.35962    1.000
    H48      H        0.35870    0.92590    0.40430    1.000
    C81      C        0.46605    0.93907    0.21620    1.000
    C82      C        0.28810    0.86001    0.51286    1.000
    C83      C        0.27152    0.88068    0.56862    1.000
    H49      H        0.24080    0.88100    0.56180    1.000
    C84      C        0.29964    0.90072    0.63387    1.000
    H50      H        0.28820    0.91490    0.67140    1.000
    C85      C        0.34438    0.90011    0.64459    1.000
    C86      C        0.35996    0.87775    0.59047    1.000
    H51      H        0.38970    0.87580    0.59860    1.000
    C87      C        0.33223    0.85828    0.52452    1.000
    H52      H        0.34350    0.84370    0.48730    1.000
    C88      C        0.37656    0.92518    0.71247    1.000
    Zn5      Zn       0.81304    0.11154    0.85673    1.000
    N13      N        0.77420    0.07972    0.75702    1.000
    N14      N        0.87272    0.14391    0.78062    1.000
    N15      N        0.89549    0.14765    0.66169    1.000
    H53      H        0.89317    0.14273    0.61253    1.000
    O17      O        0.16714    0.31320    0.57916    1.000
    O18      O        0.13708    0.25402    0.48937    1.000
    O19      O        0.03918    0.29176    0.08042    1.000
    O20      O        0.07584    0.24585    0.06487    1.000
    C89      C        0.72511    0.04493    0.75012    1.000
    H54      H        0.70447    0.03433    0.79403    1.000
    C90      C        0.70347    0.02386    0.68129    1.000
    H55      H        0.66867    0.99883    0.67803    1.000
    C91      C        0.73317    0.03981    0.61750    1.000
    H56      H        0.71887    0.02613    0.56953    1.000
    C92      C        0.78395    0.07579    0.62334    1.000
    H57      H        0.80497    0.08743    0.57983    1.000
    C93      C        0.80325    0.09437    0.69446    1.000
    C94      C        0.85671    0.12933    0.71056    1.000
    C95      C        0.92473    0.17273    0.77679    1.000
    C96      C        0.93962    0.17558    0.70200    1.000
    C97      C        0.98885    0.20020    0.66429    1.000
    C98      C        0.99593    0.17963    0.59757    1.000
    H58      H        0.96857    0.14973    0.57693    1.000
    C99      C        0.04248    0.20260    0.56170    1.000
    H59      H        0.04677    0.18823    0.51673    1.000
    C100     C        0.08301    0.24654    0.59085    1.000
    C101     C        0.07601    0.26723    0.65703    1.000
    H60      H        0.10337    0.29713    0.67753    1.000
    C102     C        0.02959    0.24452    0.69295    1.000
    H61      H        0.02537    0.25923    0.73763    1.000
    C103     C        0.13272    0.27240    0.54953    1.000
    C104     C        0.95477    0.19334    0.84619    1.000
    C105     C        0.93819    0.21401    0.90195    1.000
    H62      H        0.90747    0.21433    0.89513    1.000
    C106     C        0.96631    0.23405    0.96720    1.000
    H63      H        0.95487    0.24823    0.00473    1.000
    C107     C        0.01105    0.23344    0.97792    1.000
    C108     C        0.02663    0.21108    0.92380    1.000
    H64      H        0.05637    0.20913    0.93193    1.000
    C109     C        0.99890    0.19161    0.85785    1.000
    H65      H        0.01017    0.17703    0.82063    1.000
    C110     C        0.04323    0.25851    0.04580    1.000
    Zn6      Zn       0.47970    0.44488    0.19007    1.000
    N16      N        0.44086    0.41306    0.09036    1.000
    N17      N        0.53938    0.47725    0.11396    1.000
    N18      N        0.56215    0.48099    0.99503    1.000
    H66      H        0.55983    0.47607    0.94587    1.000
    O21      O        0.83380    0.64654    0.91250    1.000
    O22      O        0.80374    0.58736    0.82271    1.000
    O23      O        0.70584    0.62510    0.41376    1.000
    O24      O        0.74250    0.57919    0.39821    1.000
    C111     C        0.39177    0.37827    0.08346    1.000
    H67      H        0.37113    0.36767    0.12737    1.000
    C112     C        0.37013    0.35720    0.01463    1.000
    H68      H        0.33533    0.33217    0.01137    1.000
    C113     C        0.39983    0.37315    0.95084    1.000
    H69      H        0.38553    0.35947    0.90287    1.000
    C114     C        0.45061    0.40913    0.95668    1.000
    H70      H        0.47163    0.42077    0.91317    1.000
    C115     C        0.46991    0.42771    0.02780    1.000
    C116     C        0.52337    0.46267    0.04390    1.000
    C117     C        0.59139    0.50607    0.11013    1.000
    C118     C        0.60628    0.50892    0.03534    1.000
    C119     C        0.65551    0.53354    0.99763    1.000
    C120     C        0.66259    0.51297    0.93091    1.000
    H71      H        0.63523    0.48307    0.91027    1.000
    C121     C        0.70914    0.53594    0.89504    1.000
    H72      H        0.71343    0.52157    0.85007    1.000
    C122     C        0.74967    0.57988    0.92419    1.000
    C123     C        0.74267    0.60057    0.99037    1.000
    H73      H        0.77003    0.63047    0.01087    1.000
    C124     C        0.69625    0.57786    0.02629    1.000
    H74      H        0.69203    0.59257    0.07097    1.000
    C125     C        0.79938    0.60574    0.88287    1.000
    C126     C        0.62143    0.52668    0.17953    1.000
    C127     C        0.60485    0.54735    0.23529    1.000
    H75      H        0.57413    0.54767    0.22847    1.000
    C128     C        0.63297    0.56739    0.30054    1.000
    H76      H        0.62153    0.58157    0.33807    1.000
    C129     C        0.67771    0.56678    0.31126    1.000
    C130     C        0.69329    0.54442    0.25714    1.000
    H77      H        0.72303    0.54247    0.26527    1.000
    C131     C        0.66556    0.52495    0.19119    1.000
    H78      H        0.67683    0.51037    0.15397    1.000
    C132     C        0.70989    0.59185    0.37914    1.000
    Zn7      Zn       0.22179    0.36816    0.52340    1.000
    N19      N        0.25361    0.36114    0.42369    1.000
    N20      N        0.18942    0.39547    0.44729    1.000
    N21      N        0.18568    0.41450    0.32836    1.000
    H79      H        0.19060    0.41710    0.27920    1.000
    O25      O        0.02013    0.52060    0.24583    1.000
    O26      O        0.07931    0.54972    0.15604    1.000
    O27      O        0.04157    0.41408    0.74709    1.000
    O28      O        0.08748    0.49665    0.73154    1.000
    C133     C        0.28840    0.34684    0.41679    1.000
    H80      H        0.29900    0.33680    0.46070    1.000
    C134     C        0.30947    0.34627    0.34796    1.000
    H81      H        0.33450    0.33650    0.34470    1.000
    C135     C        0.29352    0.36002    0.28417    1.000
    H82      H        0.30720    0.35940    0.23620    1.000
    C136     C        0.25754    0.37482    0.29001    1.000
    H83      H        0.24590    0.38420    0.24650    1.000
    C137     C        0.23896    0.37554    0.36113    1.000
    C138     C        0.20400    0.39404    0.37723    1.000
    C139     C        0.16060    0.41866    0.44346    1.000
    C140     C        0.15775    0.43070    0.36867    1.000
    C141     C        0.13313    0.45531    0.33096    1.000
    C142     C        0.15370    0.48296    0.26424    1.000
    H84      H        0.18360    0.48550    0.24360    1.000
    C143     C        0.13073    0.50654    0.22837    1.000
    H85      H        0.14510    0.52520    0.18340    1.000
    C144     C        0.08679    0.50313    0.25752    1.000
    C145     C        0.06610    0.47544    0.32370    1.000
    H86      H        0.03620    0.47290    0.34420    1.000
    C146     C        0.08881    0.45173    0.35962    1.000
    H87      H        0.07410    0.43280    0.40430    1.000
    C147     C        0.06093    0.52698    0.21620    1.000
    C148     C        0.13999    0.42809    0.51286    1.000
    C149     C        0.11932    0.39084    0.56862    1.000
    H88      H        0.11900    0.35980    0.56180    1.000
    C150     C        0.09928    0.39892    0.63387    1.000
    H89      H        0.08510    0.37330    0.67140    1.000
    C151     C        0.09989    0.44427    0.64459    1.000
    C152     C        0.12225    0.48221    0.59047    1.000
    H90      H        0.12420    0.51390    0.59860    1.000
    C153     C        0.14172    0.47395    0.52452    1.000
    H91      H        0.15630    0.49980    0.48730    1.000
    C154     C        0.07482    0.45138    0.71247    1.000
    Zn8      Zn       0.88846    0.70149    0.85673    1.000
    N22      N        0.92028    0.69447    0.75702    1.000
    N23      N        0.85609    0.72880    0.78062    1.000
    N24      N        0.85235    0.74783    0.66169    1.000
    H92      H        0.85727    0.75043    0.61253    1.000
    O29      O        0.68680    0.85393    0.57916    1.000
    O30      O        0.74598    0.88305    0.48937    1.000
    O31      O        0.70824    0.74741    0.08042    1.000
    O32      O        0.75415    0.82998    0.06487    1.000
    C155     C        0.95507    0.68017    0.75012    1.000
    H93      H        0.96567    0.67013    0.79403    1.000
    C156     C        0.97614    0.67960    0.68129    1.000
    H94      H        0.00117    0.66983    0.67803    1.000
    C157     C        0.96019    0.69335    0.61750    1.000
    H95      H        0.97387    0.69273    0.56953    1.000
    C158     C        0.92421    0.70815    0.62334    1.000
    H96      H        0.91257    0.71753    0.57983    1.000
    C159     C        0.90563    0.70887    0.69446    1.000
    C160     C        0.87067    0.72737    0.71056    1.000
    C161     C        0.82727    0.75199    0.77679    1.000
    C162     C        0.82442    0.76403    0.70200    1.000
    C163     C        0.79980    0.78864    0.66429    1.000
    C164     C        0.82037    0.81629    0.59757    1.000
    H97      H        0.85027    0.81883    0.57693    1.000
    C165     C        0.79740    0.83987    0.56170    1.000
    H98      H        0.81177    0.85853    0.51673    1.000
    C166     C        0.75346    0.83646    0.59085    1.000
    C167     C        0.73277    0.80877    0.65703    1.000
    H99      H        0.70287    0.80623    0.67753    1.000
    C168     C        0.75548    0.78506    0.69295    1.000
    H100     H        0.74077    0.76613    0.73763    1.000
    C169     C        0.72760    0.86031    0.54953    1.000
    C170     C        0.80666    0.76142    0.84619    1.000
    C171     C        0.78599    0.72417    0.90195    1.000
    H101     H        0.78567    0.69313    0.89513    1.000
    C172     C        0.76595    0.73225    0.96720    1.000
    H102     H        0.75177    0.70663    0.00473    1.000
    C173     C        0.76656    0.77760    0.97792    1.000
    C174     C        0.78892    0.81554    0.92380    1.000
    H103     H        0.79087    0.84723    0.93193    1.000
    C175     C        0.80839    0.80728    0.85785    1.000
    H104     H        0.82297    0.83313    0.82063    1.000
    C176     C        0.74149    0.78471    0.04580    1.000
    Zn9      Zn       0.55512    0.03483    0.19007    1.000
    N25      N        0.58694    0.02781    0.09036    1.000
    N26      N        0.52275    0.06214    0.11396    1.000
    N27      N        0.51901    0.08117    0.99503    1.000
    H105     H        0.52393    0.08377    0.94587    1.000
    O33      O        0.35346    0.18727    0.91250    1.000
    O34      O        0.41264    0.21639    0.82271    1.000
    O35      O        0.37490    0.08075    0.41376    1.000
    O36      O        0.42081    0.16332    0.39821    1.000
    C177     C        0.62173    0.01351    0.08346    1.000
    H106     H        0.63233    0.00347    0.12737    1.000
    C178     C        0.64280    0.01294    0.01463    1.000
    H107     H        0.66783    0.00317    0.01137    1.000
    C179     C        0.62685    0.02669    0.95084    1.000
    H108     H        0.64053    0.02607    0.90287    1.000
    C180     C        0.59087    0.04149    0.95668    1.000
    H109     H        0.57923    0.05087    0.91317    1.000
    C181     C        0.57229    0.04221    0.02780    1.000
    C182     C        0.53733    0.06071    0.04390    1.000
    C183     C        0.49393    0.08533    0.11013    1.000
    C184     C        0.49108    0.09737    0.03534    1.000
    C185     C        0.46646    0.12198    0.99763    1.000
    C186     C        0.48703    0.14963    0.93091    1.000
    H110     H        0.51693    0.15217    0.91027    1.000
    C187     C        0.46406    0.17321    0.89504    1.000
    H111     H        0.47843    0.19187    0.85007    1.000
    C188     C        0.42012    0.16980    0.92419    1.000
    C189     C        0.39943    0.14211    0.99037    1.000
    H112     H        0.36953    0.13957    0.01087    1.000
    C190     C        0.42214    0.11840    0.02629    1.000
    H113     H        0.40743    0.09947    0.07097    1.000
    C191     C        0.39426    0.19365    0.88287    1.000
    C192     C        0.47332    0.09476    0.17953    1.000
    C193     C        0.45265    0.05751    0.23529    1.000
    H114     H        0.45233    0.02647    0.22847    1.000
    C194     C        0.43261    0.06559    0.30054    1.000
    H115     H        0.41843    0.03997    0.33807    1.000
    C195     C        0.43322    0.11094    0.31126    1.000
    C196     C        0.45558    0.14888    0.25714    1.000
    H116     H        0.45753    0.18057    0.26527    1.000
    C197     C        0.47505    0.14062    0.19119    1.000
    H117     H        0.48963    0.16647    0.15397    1.000
    C198     C        0.40815    0.11805    0.37914    1.000
    Zn10     Zn       0.36816    0.14637    0.47660    1.000
    N28      N        0.36114    0.10753    0.57631    1.000
    N29      N        0.39547    0.20605    0.55271    1.000
    N30      N        0.41450    0.22882    0.67164    1.000
    H118     H        0.41710    0.22650    0.72080    1.000
    O37      O        0.52060    0.50047    0.75417    1.000
    O38      O        0.54972    0.47041    0.84396    1.000
    O39      O        0.41408    0.37251    0.25291    1.000
    O40      O        0.49665    0.40917    0.26846    1.000
    C199     C        0.34684    0.05844    0.58321    1.000
    H119     H        0.33680    0.03780    0.53930    1.000
    C200     C        0.34627    0.03680    0.65204    1.000
    H120     H        0.33650    0.00200    0.65530    1.000
    C201     C        0.36002    0.06650    0.71583    1.000
    H121     H        0.35940    0.05220    0.76380    1.000
    C202     C        0.37482    0.11728    0.70999    1.000
    H122     H        0.38420    0.13830    0.75350    1.000
    C203     C        0.37554    0.13658    0.63887    1.000
    C204     C        0.39404    0.19004    0.62277    1.000
    C205     C        0.41866    0.25806    0.55654    1.000
    C206     C        0.43070    0.27295    0.63133    1.000
    C207     C        0.45531    0.32218    0.66904    1.000
    C208     C        0.48296    0.32926    0.73576    1.000
    H123     H        0.48550    0.30190    0.75640    1.000
    C209     C        0.50654    0.37581    0.77163    1.000
    H124     H        0.52520    0.38010    0.81660    1.000
    C210     C        0.50313    0.41634    0.74248    1.000
    C211     C        0.47544    0.40934    0.67630    1.000
    H125     H        0.47290    0.43670    0.65580    1.000
    C212     C        0.45173    0.36292    0.64038    1.000
    H126     H        0.43280    0.35870    0.59570    1.000
    C213     C        0.52698    0.46605    0.78380    1.000
    C214     C        0.42809    0.28810    0.48714    1.000
    C215     C        0.39084    0.27152    0.43138    1.000
    H127     H        0.35980    0.24080    0.43820    1.000
    C216     C        0.39892    0.29964    0.36613    1.000
    H128     H        0.37330    0.28820    0.32860    1.000
    C217     C        0.44427    0.34438    0.35541    1.000
    C218     C        0.48221    0.35996    0.40953    1.000
    H129     H        0.51390    0.38970    0.40140    1.000
    C219     C        0.47395    0.33223    0.47548    1.000
    H130     H        0.49980    0.34350    0.51270    1.000
    C220     C        0.45138    0.37656    0.28753    1.000
    Zn11     Zn       0.03483    0.47970    0.80993    1.000
    N31      N        0.02781    0.44086    0.90964    1.000
    N32      N        0.06214    0.53938    0.88604    1.000
    N33      N        0.08117    0.56215    0.00497    1.000
    H131     H        0.08377    0.55983    0.05413    1.000
    O41      O        0.18727    0.83380    0.08750    1.000
    O42      O        0.21639    0.80374    0.17729    1.000
    O43      O        0.08075    0.70584    0.58624    1.000
    O44      O        0.16332    0.74250    0.60179    1.000
    C221     C        0.01351    0.39177    0.91654    1.000
    H132     H        0.00347    0.37113    0.87263    1.000
    C222     C        0.01294    0.37013    0.98537    1.000
    H133     H        0.00317    0.33533    0.98863    1.000
    C223     C        0.02669    0.39983    0.04916    1.000
    H134     H        0.02607    0.38553    0.09713    1.000
    C224     C        0.04149    0.45061    0.04332    1.000
    H135     H        0.05087    0.47163    0.08683    1.000
    C225     C        0.04221    0.46991    0.97220    1.000
    C226     C        0.06071    0.52337    0.95610    1.000
    C227     C        0.08533    0.59139    0.88987    1.000
    C228     C        0.09737    0.60628    0.96466    1.000
    C229     C        0.12198    0.65551    0.00237    1.000
    C230     C        0.14963    0.66259    0.06909    1.000
    H136     H        0.15217    0.63523    0.08973    1.000
    C231     C        0.17321    0.70914    0.10496    1.000
    H137     H        0.19187    0.71343    0.14993    1.000
    C232     C        0.16980    0.74967    0.07581    1.000
    C233     C        0.14211    0.74267    0.00963    1.000
    H138     H        0.13957    0.77003    0.98913    1.000
    C234     C        0.11840    0.69625    0.97371    1.000
    H139     H        0.09947    0.69203    0.92903    1.000
    C235     C        0.19365    0.79938    0.11713    1.000
    C236     C        0.09476    0.62143    0.82047    1.000
    C237     C        0.05751    0.60485    0.76471    1.000
    H140     H        0.02647    0.57413    0.77153    1.000
    C238     C        0.06559    0.63297    0.69946    1.000
    H141     H        0.03997    0.62153    0.66193    1.000
    C239     C        0.11094    0.67771    0.68874    1.000
    C240     C        0.14888    0.69329    0.74286    1.000
    H142     H        0.18057    0.72303    0.73473    1.000
    C241     C        0.14062    0.66556    0.80881    1.000
    H143     H        0.16647    0.67683    0.84603    1.000
    C242     C        0.11805    0.70989    0.62086    1.000
    Zn12     Zn       0.70149    0.81304    0.14327    1.000
    N34      N        0.69447    0.77420    0.24298    1.000
    N35      N        0.72880    0.87272    0.21938    1.000
    N36      N        0.74783    0.89549    0.33831    1.000
    H144     H        0.75043    0.89317    0.38747    1.000
    O45      O        0.85393    0.16714    0.42084    1.000
    O46      O        0.88305    0.13708    0.51063    1.000
    O47      O        0.74741    0.03918    0.91958    1.000
    O48      O        0.82998    0.07584    0.93513    1.000
    C243     C        0.68017    0.72511    0.24988    1.000
    H145     H        0.67013    0.70447    0.20597    1.000
    C244     C        0.67960    0.70347    0.31871    1.000
    H146     H        0.66983    0.66867    0.32197    1.000
    C245     C        0.69335    0.73317    0.38250    1.000
    H147     H        0.69273    0.71887    0.43047    1.000
    C246     C        0.70815    0.78395    0.37666    1.000
    H148     H        0.71753    0.80497    0.42017    1.000
    C247     C        0.70887    0.80325    0.30554    1.000
    C248     C        0.72737    0.85671    0.28944    1.000
    C249     C        0.75199    0.92473    0.22321    1.000
    C250     C        0.76403    0.93962    0.29800    1.000
    C251     C        0.78864    0.98885    0.33571    1.000
    C252     C        0.81629    0.99593    0.40243    1.000
    H149     H        0.81883    0.96857    0.42307    1.000
    C253     C        0.83987    0.04248    0.43830    1.000
    H150     H        0.85853    0.04677    0.48327    1.000
    C254     C        0.83646    0.08301    0.40915    1.000
    C255     C        0.80877    0.07601    0.34297    1.000
    H151     H        0.80623    0.10337    0.32247    1.000
    C256     C        0.78506    0.02959    0.30705    1.000
    H152     H        0.76613    0.02537    0.26237    1.000
    C257     C        0.86031    0.13272    0.45047    1.000
    C258     C        0.76142    0.95477    0.15381    1.000
    C259     C        0.72417    0.93819    0.09805    1.000
    H153     H        0.69313    0.90747    0.10487    1.000
    C260     C        0.73225    0.96631    0.03280    1.000
    H154     H        0.70663    0.95487    0.99527    1.000
    C261     C        0.77760    0.01105    0.02208    1.000
    C262     C        0.81554    0.02663    0.07620    1.000
    H155     H        0.84723    0.05637    0.06807    1.000
    C263     C        0.80728    0.99890    0.14215    1.000
    H156     H        0.83313    0.01017    0.17937    1.000
    C264     C        0.78471    0.04323    0.95420    1.000
    Zn13     Zn       0.85363    0.22179    0.47660    1.000
    N37      N        0.89247    0.25361    0.57631    1.000
    N38      N        0.79395    0.18942    0.55271    1.000
    N39      N        0.77118    0.18568    0.67164    1.000
    H157     H        0.77350    0.19060    0.72080    1.000
    O49      O        0.49953    0.02013    0.75417    1.000
    O50      O        0.52959    0.07931    0.84396    1.000
    O51      O        0.62749    0.04157    0.25291    1.000
    O52      O        0.59083    0.08748    0.26846    1.000
    C265     C        0.94156    0.28840    0.58321    1.000
    H158     H        0.96220    0.29900    0.53930    1.000
    C266     C        0.96320    0.30947    0.65204    1.000
    H159     H        0.99800    0.33450    0.65530    1.000
    C267     C        0.93350    0.29352    0.71583    1.000
    H160     H        0.94780    0.30720    0.76380    1.000
    C268     C        0.88272    0.25754    0.70999    1.000
    H161     H        0.86170    0.24590    0.75350    1.000
    C269     C        0.86342    0.23896    0.63887    1.000
    C270     C        0.80996    0.20400    0.62277    1.000
    C271     C        0.74194    0.16060    0.55654    1.000
    C272     C        0.72705    0.15775    0.63133    1.000
    C273     C        0.67782    0.13313    0.66904    1.000
    C274     C        0.67074    0.15370    0.73576    1.000
    H162     H        0.69810    0.18360    0.75640    1.000
    C275     C        0.62419    0.13073    0.77163    1.000
    H163     H        0.61990    0.14510    0.81660    1.000
    C276     C        0.58366    0.08679    0.74248    1.000
    C277     C        0.59066    0.06610    0.67630    1.000
    H164     H        0.56330    0.03620    0.65580    1.000
    C278     C        0.63708    0.08881    0.64038    1.000
    H165     H        0.64130    0.07410    0.59570    1.000
    C279     C        0.53395    0.06093    0.78380    1.000
    C280     C        0.71190    0.13999    0.48714    1.000
    C281     C        0.72848    0.11932    0.43138    1.000
    H166     H        0.75920    0.11900    0.43820    1.000
    C282     C        0.70036    0.09928    0.36613    1.000
    H167     H        0.71180    0.08510    0.32860    1.000
    C283     C        0.65562    0.09989    0.35541    1.000
    C284     C        0.64004    0.12225    0.40953    1.000
    H168     H        0.61030    0.12420    0.40140    1.000
    C285     C        0.66777    0.14172    0.47548    1.000
    H169     H        0.65650    0.15630    0.51270    1.000
    C286     C        0.62344    0.07482    0.28753    1.000
    Zn14     Zn       0.52030    0.55512    0.80993    1.000
    N40      N        0.55914    0.58694    0.90964    1.000
    N41      N        0.46062    0.52275    0.88604    1.000
    N42      N        0.43785    0.51901    0.00497    1.000
    H170     H        0.44017    0.52393    0.05413    1.000
    O53      O        0.16620    0.35346    0.08750    1.000
    O54      O        0.19626    0.41264    0.17729    1.000
    O55      O        0.29416    0.37490    0.58624    1.000
    O56      O        0.25750    0.42081    0.60179    1.000
    C287     C        0.60823    0.62173    0.91654    1.000
    H171     H        0.62887    0.63233    0.87263    1.000
    C288     C        0.62987    0.64280    0.98537    1.000
    H172     H        0.66467    0.66783    0.98863    1.000
    C289     C        0.60017    0.62685    0.04916    1.000
    H173     H        0.61447    0.64053    0.09713    1.000
    C290     C        0.54939    0.59087    0.04332    1.000
    H174     H        0.52837    0.57923    0.08683    1.000
    C291     C        0.53009    0.57229    0.97220    1.000
    C292     C        0.47663    0.53733    0.95610    1.000
    C293     C        0.40861    0.49393    0.88987    1.000
    C294     C        0.39372    0.49108    0.96466    1.000
    C295     C        0.34449    0.46646    0.00237    1.000
    C296     C        0.33741    0.48703    0.06909    1.000
    H175     H        0.36477    0.51693    0.08973    1.000
    C297     C        0.29086    0.46406    0.10496    1.000
    H176     H        0.28657    0.47843    0.14993    1.000
    C298     C        0.25033    0.42012    0.07581    1.000
    C299     C        0.25733    0.39943    0.00963    1.000
    H177     H        0.22997    0.36953    0.98913    1.000
    C300     C        0.30375    0.42214    0.97371    1.000
    H178     H        0.30797    0.40743    0.92903    1.000
    C301     C        0.20062    0.39426    0.11713    1.000
    C302     C        0.37857    0.47332    0.82047    1.000
    C303     C        0.39515    0.45265    0.76471    1.000
    H179     H        0.42587    0.45233    0.77153    1.000
    C304     C        0.36703    0.43261    0.69946    1.000
    H180     H        0.37847    0.41843    0.66193    1.000
    C305     C        0.32229    0.43322    0.68874    1.000
    C306     C        0.30671    0.45558    0.74286    1.000
    H181     H        0.27697    0.45753    0.73473    1.000
    C307     C        0.33444    0.47505    0.80881    1.000
    H182     H        0.32317    0.48963    0.84603    1.000
    C308     C        0.29011    0.40815    0.62086    1.000
    Zn15     Zn       0.18696    0.88846    0.14327    1.000
    N43      N        0.22580    0.92028    0.24298    1.000
    N44      N        0.12728    0.85609    0.21938    1.000
    N45      N        0.10451    0.85235    0.33831    1.000
    H183     H        0.10683    0.85727    0.38747    1.000
    O57      O        0.83286    0.68680    0.42084    1.000
    O58      O        0.86292    0.74598    0.51063    1.000
    O59      O        0.96082    0.70824    0.91958    1.000
    O60      O        0.92416    0.75415    0.93513    1.000
    C309     C        0.27489    0.95507    0.24988    1.000
    H184     H        0.29553    0.96567    0.20597    1.000
    C310     C        0.29653    0.97614    0.31871    1.000
    H185     H        0.33133    0.00117    0.32197    1.000
    C311     C        0.26683    0.96019    0.38250    1.000
    H186     H        0.28113    0.97387    0.43047    1.000
    C312     C        0.21605    0.92421    0.37666    1.000
    H187     H        0.19503    0.91257    0.42017    1.000
    C313     C        0.19675    0.90563    0.30554    1.000
    C314     C        0.14329    0.87067    0.28944    1.000
    C315     C        0.07527    0.82727    0.22321    1.000
    C316     C        0.06038    0.82442    0.29800    1.000
    C317     C        0.01115    0.79980    0.33571    1.000
    C318     C        0.00407    0.82037    0.40243    1.000
    H188     H        0.03143    0.85027    0.42307    1.000
    C319     C        0.95752    0.79740    0.43830    1.000
    H189     H        0.95323    0.81177    0.48327    1.000
    C320     C        0.91699    0.75346    0.40915    1.000
    C321     C        0.92399    0.73277    0.34297    1.000
    H190     H        0.89663    0.70287    0.32247    1.000
    C322     C        0.97041    0.75548    0.30705    1.000
    H191     H        0.97463    0.74077    0.26237    1.000
    C323     C        0.86728    0.72760    0.45047    1.000
    C324     C        0.04523    0.80666    0.15381    1.000
    C325     C        0.06181    0.78599    0.09805    1.000
    H192     H        0.09253    0.78567    0.10487    1.000
    C326     C        0.03369    0.76595    0.03280    1.000
    H193     H        0.04513    0.75177    0.99527    1.000
    C327     C        0.98895    0.76656    0.02208    1.000
    C328     C        0.97337    0.78892    0.07620    1.000
    H194     H        0.94363    0.79087    0.06807    1.000
    C329     C        0.00110    0.80839    0.14215    1.000
    H195     H        0.98983    0.82297    0.17937    1.000
    C330     C        0.95677    0.74149    0.95420    1.000
    Zn16     Zn       0.77821    0.63184    0.47660    1.000
    N46      N        0.74639    0.63886    0.57631    1.000
    N47      N        0.81058    0.60453    0.55271    1.000
    N48      N        0.81432    0.58550    0.67164    1.000
    H196     H        0.80940    0.58290    0.72080    1.000
    O61      O        0.97987    0.47940    0.75417    1.000
    O62      O        0.92069    0.45028    0.84396    1.000
    O63      O        0.95843    0.58592    0.25291    1.000
    O64      O        0.91252    0.50335    0.26846    1.000
    C331     C        0.71160    0.65316    0.58321    1.000
    H197     H        0.70100    0.66320    0.53930    1.000
    C332     C        0.69053    0.65373    0.65204    1.000
    H198     H        0.66550    0.66350    0.65530    1.000
    C333     C        0.70648    0.63998    0.71583    1.000
    H199     H        0.69280    0.64060    0.76380    1.000
    C334     C        0.74246    0.62518    0.70999    1.000
    H200     H        0.75410    0.61580    0.75350    1.000
    C335     C        0.76104    0.62446    0.63887    1.000
    C336     C        0.79600    0.60596    0.62277    1.000
    C337     C        0.83940    0.58134    0.55654    1.000
    C338     C        0.84225    0.56930    0.63133    1.000
    C339     C        0.86687    0.54469    0.66904    1.000
    C340     C        0.84630    0.51704    0.73576    1.000
    H201     H        0.81640    0.51450    0.75640    1.000
    C341     C        0.86927    0.49346    0.77163    1.000
    H202     H        0.85490    0.47480    0.81660    1.000
    C342     C        0.91321    0.49687    0.74248    1.000
    C343     C        0.93390    0.52456    0.67630    1.000
    H203     H        0.96380    0.52710    0.65580    1.000
    C344     C        0.91119    0.54827    0.64038    1.000
    H204     H        0.92590    0.56720    0.59570    1.000
    C345     C        0.93907    0.47302    0.78380    1.000
    C346     C        0.86001    0.57191    0.48714    1.000
    C347     C        0.88068    0.60916    0.43138    1.000
    H205     H        0.88100    0.64020    0.43820    1.000
    C348     C        0.90072    0.60108    0.36613    1.000
    H206     H        0.91490    0.62670    0.32860    1.000
    C349     C        0.90011    0.55573    0.35541    1.000
    C350     C        0.87775    0.51779    0.40953    1.000
    H207     H        0.87580    0.48610    0.40140    1.000
    C351     C        0.85828    0.52605    0.47548    1.000
    H208     H        0.84370    0.50020    0.51270    1.000
    C352     C        0.92518    0.54862    0.28753    1.000
    Zn17     Zn       0.44488    0.96517    0.80993    1.000
    N49      N        0.41306    0.97219    0.90964    1.000
    N50      N        0.47725    0.93786    0.88604    1.000
    N51      N        0.48099    0.91883    0.00497    1.000
    H209     H        0.47607    0.91623    0.05413    1.000
    O65      O        0.64654    0.81273    0.08750    1.000
    O66      O        0.58736    0.78361    0.17729    1.000
    O67      O        0.62510    0.91925    0.58624    1.000
    O68      O        0.57919    0.83668    0.60179    1.000
    C353     C        0.37827    0.98649    0.91654    1.000
    H210     H        0.36767    0.99653    0.87263    1.000
    C354     C        0.35720    0.98706    0.98537    1.000
    H211     H        0.33217    0.99683    0.98863    1.000
    C355     C        0.37315    0.97331    0.04916    1.000
    H212     H        0.35947    0.97393    0.09713    1.000
    C356     C        0.40913    0.95851    0.04332    1.000
    H213     H        0.42077    0.94913    0.08683    1.000
    C357     C        0.42771    0.95779    0.97220    1.000
    C358     C        0.46267    0.93929    0.95610    1.000
    C359     C        0.50607    0.91467    0.88987    1.000
    C360     C        0.50892    0.90263    0.96466    1.000
    C361     C        0.53354    0.87802    0.00237    1.000
    C362     C        0.51297    0.85037    0.06909    1.000
    H214     H        0.48307    0.84783    0.08973    1.000
    C363     C        0.53594    0.82679    0.10496    1.000
    H215     H        0.52157    0.80813    0.14993    1.000
    C364     C        0.57988    0.83020    0.07581    1.000
    C365     C        0.60057    0.85789    0.00963    1.000
    H216     H        0.63047    0.86043    0.98913    1.000
    C366     C        0.57786    0.88160    0.97371    1.000
    H217     H        0.59257    0.90053    0.92903    1.000
    C367     C        0.60574    0.80635    0.11713    1.000
    C368     C        0.52668    0.90524    0.82047    1.000
    C369     C        0.54735    0.94249    0.76471    1.000
    H218     H        0.54767    0.97353    0.77153    1.000
    C370     C        0.56739    0.93441    0.69946    1.000
    H219     H        0.58157    0.96003    0.66193    1.000
    C371     C        0.56678    0.88906    0.68874    1.000
    C372     C        0.54442    0.85112    0.74286    1.000
    H220     H        0.54247    0.81943    0.73473    1.000
    C373     C        0.52495    0.85938    0.80881    1.000
    H221     H        0.51037    0.83353    0.84603    1.000
    C374     C        0.59185    0.88195    0.62086    1.000
    Zn18     Zn       0.11154    0.29851    0.14327    1.000
    N52      N        0.07972    0.30553    0.24298    1.000
    N53      N        0.14391    0.27120    0.21938    1.000
    N54      N        0.14765    0.25217    0.33831    1.000
    H222     H        0.14273    0.24957    0.38747    1.000
    O69      O        0.31320    0.14607    0.42084    1.000
    O70      O        0.25402    0.11695    0.51063    1.000
    O71      O        0.29176    0.25259    0.91958    1.000
    O72      O        0.24585    0.17002    0.93513    1.000
    C375     C        0.04493    0.31983    0.24988    1.000
    H223     H        0.03433    0.32987    0.20597    1.000
    C376     C        0.02386    0.32040    0.31871    1.000
    H224     H        0.99883    0.33017    0.32197    1.000
    C377     C        0.03981    0.30665    0.38250    1.000
    H225     H        0.02613    0.30727    0.43047    1.000
    C378     C        0.07579    0.29185    0.37666    1.000
    H226     H        0.08743    0.28247    0.42017    1.000
    C379     C        0.09437    0.29113    0.30554    1.000
    C380     C        0.12933    0.27263    0.28944    1.000
    C381     C        0.17273    0.24801    0.22321    1.000
    C382     C        0.17558    0.23597    0.29800    1.000
    C383     C        0.20020    0.21136    0.33571    1.000
    C384     C        0.17963    0.18371    0.40243    1.000
    H227     H        0.14973    0.18117    0.42307    1.000
    C385     C        0.20260    0.16013    0.43830    1.000
    H228     H        0.18823    0.14147    0.48327    1.000
    C386     C        0.24654    0.16354    0.40915    1.000
    C387     C        0.26723    0.19123    0.34297    1.000
    H229     H        0.29713    0.19377    0.32247    1.000
    C388     C        0.24452    0.21494    0.30705    1.000
    H230     H        0.25923    0.23387    0.26237    1.000
    C389     C        0.27240    0.13969    0.45047    1.000
    C390     C        0.19334    0.23858    0.15381    1.000
    C391     C        0.21401    0.27583    0.09805    1.000
    H231     H        0.21433    0.30687    0.10487    1.000
    C392     C        0.23405    0.26775    0.03280    1.000
    H232     H        0.24823    0.29337    0.99527    1.000
    C393     C        0.23344    0.22240    0.02208    1.000
    C394     C        0.21108    0.18446    0.07620    1.000
    H233     H        0.20913    0.15277    0.06807    1.000
    C395     C        0.19161    0.19272    0.14215    1.000
    H234     H        0.17703    0.16687    0.17937    1.000
    C396     C        0.25851    0.21529    0.95420    1.000
