data_functionalizedCrystal
_audit_creation_method	'EQeq! by Chris Wilmer'
_symmetry_space_group_name_H-M	'P1'
_symmetry_Int_Tables_number	1
_symmetry_cell_setting	triclinic
loop_
_symmetry_equiv_pos_as_xyz
  x,y,z
_cell_length_a	9.9603
_cell_length_b	11.3612
_cell_length_c	14.8001
_cell_angle_alpha	91.527
_cell_angle_beta	90
_cell_angle_gamma	90
loop_
_atom_site_label
_atom_site_type_symbol
_atom_site_fract_x
_atom_site_fract_y
_atom_site_fract_z
_atom_site_charge
Mof_Co	Co	0.92715	0.7438	0.86634	1.243
Mof_Co	Co	0.12129	0.75943	0.69485	1.189
Mof_Co	Co	0.42715	0.7562	0.63366	1.195
Mof_Co	Co	0.62129	0.74057	0.80515	1.205
Mof_Co	Co	0.07285	0.2562	0.13366	1.136
Mof_Co	Co	0.87871	0.24057	0.30515	1.218
Mof_Co	Co	0.57285	0.2438	0.36634	1.191
Mof_Co	Co	0.37871	0.25943	0.19485	1.2
Mof_Co	Co	-7.53899e-33	0.5	-0	1.111
Mof_Co	Co	0.5	0	0.5	1.186
Mof_Co	Co	-0	0	-0	1.08
Mof_Co	Co	0.5	0.5	0.5	1.21
Mof_H 	H 	0.7724	0.6493	0.6313	-0.103
Mof_H 	H 	0.2044	0.523	0.7787	-0.127
Mof_H 	H 	0.0563	0.02	0.7433	-0.25
Mof_H 	H 	0.6249	0.9426	0.9496	-0.054
Mof_H 	H 	0.2111	0.9968	0.5256	-0.094
Mof_H 	H 	0.1548	0.8027	0.0712	-0.061
Mof_H 	H 	0.2724	0.8507	0.8687	-0.077
Mof_H 	H 	0.7044	0.977	0.7213	-0.127
Mof_H 	H 	0.5563	0.48	0.7567	-0.104
Mof_H 	H 	0.1249	0.5574	0.5504	-0.139
Mof_H 	H 	0.7111	0.5032	0.9744	-0.055
Mof_H 	H 	0.6548	0.6973	0.4288	-0.094
Mof_H 	H 	0.2276	0.3507	0.3687	-0.127
Mof_H 	H 	0.7956	0.477	0.2213	-0.122
Mof_H 	H 	0.9437	0.98	0.2567	0.037
Mof_H 	H 	0.3751	0.0574	0.0504	-0.152
Mof_H 	H 	0.7889	0.0032	0.4744	-0.104
Mof_H 	H 	0.8452	0.1973	0.9288	-0.125
Mof_H 	H 	0.7276	0.1493	0.1313	-0.148
Mof_H 	H 	0.2956	0.023	0.2787	-0.129
Mof_H 	H 	0.4437	0.52	0.2433	-0.12
Mof_H 	H 	0.8751	0.4426	0.4496	-0.069
Mof_H 	H 	0.2889	0.4968	0.0256	-0.141
Mof_H 	H 	0.3452	0.3027	0.5712	-0.116
Mof_C 	C 	0.8406	0.6768	0.6693	0.487
Mof_C 	C 	0.1416	0.5497	0.821	0.512
Mof_C 	C 	0.0287	0.9807	0.7944	0.758
Mof_C 	C 	0.7159	0.9252	0.9448	0.468
Mof_C 	C 	0.2293	0.9341	0.5628	0.496
Mof_C 	C 	0.1004	0.758	0.0325	0.295
Mof_C 	C 	0.3406	0.8232	0.8307	0.487
Mof_C 	C 	0.6416	0.9503	0.679	0.619
Mof_C 	C 	0.5287	0.5193	0.7056	0.514
Mof_C 	C 	0.2159	0.5748	0.5552	0.506
Mof_C 	C 	0.7293	0.5659	0.9372	0.466
Mof_C 	C 	0.6004	0.742	0.4675	0.49
Mof_C 	C 	0.1594	0.3232	0.3307	0.504
Mof_C 	C 	0.8584	0.4503	0.179	0.512
Mof_C 	C 	0.9713	0.0193	0.2056	0.249
Mof_C 	C 	0.2841	0.0748	0.0552	0.513
Mof_C 	C 	0.7707	0.0659	0.4372	0.487
Mof_C 	C 	0.8996	0.242	0.9675	0.649
Mof_C 	C 	0.6594	0.1768	0.1693	0.502
Mof_C 	C 	0.3584	0.0497	0.321	0.412
Mof_C 	C 	0.4713	0.4807	0.2944	0.518
Mof_C 	C 	0.7841	0.4252	0.4448	0.488
Mof_C 	C 	0.2707	0.4341	0.0628	0.512
Mof_C 	C 	0.3996	0.258	0.5325	0.511
Mof_O 	O 	0.8104	0.6946	0.75209	-0.534
Mof_O 	O 	0.9519	0.6926	0.6343	-0.364
Mof_O 	O 	0.0894	0.6493	0.80759	-0.584
Mof_O 	O 	0.1181	0.4846	0.8842	-0.415
Mof_O 	O 	0.017	0.8697	0.78618	-0.656
Mof_O 	O 	0.0076	0.0414	0.8625	-0.552
Mof_O 	O 	0.7494	0.8446	0.88794	-0.512
Mof_O 	O 	0.7936	0.9829	0.9945	-0.305
Mof_O 	O 	0.1334	0.8931	0.60347	-0.446
Mof_O 	O 	0.3515	0.8998	0.56593	-0.539
Mof_O 	O 	0.0267	0.8145	0.97705	-0.441
Mof_O 	O 	0.1057	0.6509	0.039	-0.45
Mof_O 	O 	0.3104	0.8054	0.74791	-0.546
Mof_O 	O 	0.4519	0.8074	0.8657	-0.402
Mof_O 	O 	0.5894	0.8507	0.69241	-0.577
Mof_O 	O 	0.6181	0.0154	0.6158	-0.5
Mof_O 	O 	0.517	0.6303	0.71382	-0.56
Mof_O 	O 	0.5076	0.4586	0.6375	-0.435
Mof_O 	O 	0.2494	0.6554	0.61206	-0.567
Mof_O 	O 	0.2936	0.5171	0.5055	-0.444
Mof_O 	O 	0.6334	0.6069	0.89653	-0.404
Mof_O 	O 	0.8515	0.6002	0.93407	-0.471
Mof_O 	O 	0.5267	0.6855	0.52295	-0.545
Mof_O 	O 	0.6057	0.8491	0.461	-0.411
Mof_O 	O 	0.1896	0.3054	0.24791	-0.588
Mof_O 	O 	0.0481	0.3074	0.3657	-0.513
Mof_O 	O 	0.9106	0.3507	0.19241	-0.526
Mof_O 	O 	0.8819	0.5154	0.1158	-0.42
Mof_O 	O 	0.983	0.1303	0.21382	-0.453
Mof_O 	O 	0.9924	0.9586	0.1375	-0.266
Mof_O 	O 	0.2506	0.1554	0.11206	-0.59
Mof_O 	O 	0.2064	0.0171	0.0055	-0.53
Mof_O 	O 	0.8666	0.1069	0.39653	-0.421
Mof_O 	O 	0.6485	0.1002	0.43407	-0.559
Mof_O 	O 	0.9733	0.1855	0.02295	-0.586
Mof_O 	O 	0.8943	0.3491	0.961	-0.394
Mof_O 	O 	0.6896	0.1946	0.25209	-0.571
Mof_O 	O 	0.5481	0.1926	0.1343	-0.467
Mof_O 	O 	0.4106	0.1493	0.30759	-0.546
Mof_O 	O 	0.3819	0.9846	0.3842	-0.368
Mof_O 	O 	0.483	0.3697	0.28618	-0.568
Mof_O 	O 	0.4924	0.5414	0.3625	-0.442
Mof_O 	O 	0.7506	0.3446	0.38794	-0.539
Mof_O 	O 	0.7064	0.4829	0.4945	-0.419
Mof_O 	O 	0.3666	0.3931	0.10347	-0.462
Mof_O 	O 	0.1485	0.3998	0.06593	-0.613
Mof_O 	O 	0.4733	0.3145	0.47705	-0.553
Mof_O 	O 	0.3943	0.1509	0.539	-0.464
_end
