# CIF file generated by openbabel 3.1.0, see https://openbabel.org
data_I
_chemical_name_common 'image0'
_cell_length_a 28.282
_cell_length_b 10.337
_cell_length_c 16.285
_cell_angle_alpha 90
_cell_angle_beta 90
_cell_angle_gamma 90
_space_group_name_H-M_alt 'P 1'
_space_group_name_Hall 'P 1'
loop_
    _symmetry_equiv_pos_as_xyz
    x,y,z
loop_
    _atom_site_label
    _atom_site_type_symbol
    _atom_site_fract_x
    _atom_site_fract_y
    _atom_site_fract_z
    _atom_site_occupancy
    N1       N        0.35620    0.19430    0.65400    1.000
    N2       N        0.37340    0.13400    0.41110    1.000
    C1       C        0.28760    0.23330    0.55280    1.000
    C2       C        0.24520    0.27780    0.58380    1.000
    C3       C        0.29300    0.20530    0.46860    1.000
    C4       C        0.32630    0.21270    0.60850    1.000
    C5       C        0.33750    0.16310    0.43650    1.000
    N3       N        0.14380    0.30570    0.15400    1.000
    N4       N        0.12660    0.36600    0.91110    1.000
    C6       C        0.21240    0.26670    0.05280    1.000
    C7       C        0.25480    0.22220    0.08380    1.000
    C8       C        0.20700    0.29470    0.96860    1.000
    C9       C        0.17370    0.28730    0.10850    1.000
    C10      C        0.16250    0.33690    0.93650    1.000
    N5       N        0.64380    0.19430    0.84600    1.000
    N6       N        0.62660    0.13400    0.08890    1.000
    C11      C        0.71240    0.23330    0.94720    1.000
    C12      C        0.75480    0.27780    0.91620    1.000
    C13      C        0.70700    0.20530    0.03140    1.000
    C14      C        0.67370    0.21270    0.89150    1.000
    C15      C        0.66250    0.16310    0.06350    1.000
    N7       N        0.85620    0.30570    0.34600    1.000
    N8       N        0.87340    0.36600    0.58890    1.000
    C16      C        0.78760    0.26670    0.44720    1.000
    C17      C        0.74520    0.22220    0.41620    1.000
    C18      C        0.79300    0.29470    0.53140    1.000
    C19      C        0.82630    0.28730    0.39150    1.000
    C20      C        0.83750    0.33690    0.56350    1.000
    N9       N        0.14380    0.30570    0.34600    1.000
    N10      N        0.12660    0.36600    0.58890    1.000
    C21      C        0.21240    0.26670    0.44720    1.000
    C22      C        0.25480    0.22220    0.41620    1.000
    C23      C        0.20700    0.29470    0.53140    1.000
    C24      C        0.17370    0.28730    0.39150    1.000
    C25      C        0.16250    0.33690    0.56350    1.000
    N11      N        0.35620    0.19430    0.84600    1.000
    N12      N        0.37340    0.13400    0.08890    1.000
    C26      C        0.28760    0.23330    0.94720    1.000
    C27      C        0.24520    0.27780    0.91620    1.000
    C28      C        0.29300    0.20530    0.03140    1.000
    C29      C        0.32630    0.21270    0.89150    1.000
    C30      C        0.33750    0.16310    0.06350    1.000
    N13      N        0.85620    0.30570    0.15400    1.000
    N14      N        0.87340    0.36600    0.91110    1.000
    C31      C        0.78760    0.26670    0.05280    1.000
    C32      C        0.74520    0.22220    0.08380    1.000
    C33      C        0.79300    0.29470    0.96860    1.000
    C34      C        0.82630    0.28730    0.10850    1.000
    C35      C        0.83750    0.33690    0.93650    1.000
    N15      N        0.64380    0.19430    0.65400    1.000
    N16      N        0.62660    0.13400    0.41110    1.000
    C36      C        0.71240    0.23330    0.55280    1.000
    C37      C        0.75480    0.27780    0.58380    1.000
    C38      C        0.70700    0.20530    0.46860    1.000
    C39      C        0.67370    0.21270    0.60850    1.000
    C40      C        0.66250    0.16310    0.43650    1.000
    Cu1      Cu       0.39914    0.18229    0.75000    1.000
    N17      N        0.43570    0.34430    0.75000    1.000
    N18      N        0.43380    0.01990    0.75000    1.000
    C41      C        0.47480    0.79820    0.75000    1.000
    C42      C        0.44980    0.68300    0.75000    1.000
    C43      C        0.47520    0.56770    0.75000    1.000
    C44      C        0.45110    0.92090    0.75000    1.000
    C45      C        0.45130    0.44580    0.75000    1.000
    Cu2      Cu       0.10086    0.31771    0.25000    1.000
    N19      N        0.06430    0.15570    0.25000    1.000
    N20      N        0.06620    0.48010    0.25000    1.000
    C46      C        0.02520    0.70180    0.25000    1.000
    C47      C        0.05020    0.81700    0.25000    1.000
    C48      C        0.02480    0.93230    0.25000    1.000
    C49      C        0.04890    0.57910    0.25000    1.000
    C50      C        0.04870    0.05420    0.25000    1.000
    Cu3      Cu       0.60086    0.18229    0.75000    1.000
    N21      N        0.56430    0.34430    0.75000    1.000
    N22      N        0.56620    0.01990    0.75000    1.000
    C51      C        0.52520    0.79820    0.75000    1.000
    C52      C        0.55020    0.68300    0.75000    1.000
    C53      C        0.52480    0.56770    0.75000    1.000
    C54      C        0.54890    0.92090    0.75000    1.000
    C55      C        0.54870    0.44580    0.75000    1.000
    Cu4      Cu       0.89914    0.31771    0.25000    1.000
    N23      N        0.93570    0.15570    0.25000    1.000
    N24      N        0.93380    0.48010    0.25000    1.000
    C56      C        0.97480    0.70180    0.25000    1.000
    C57      C        0.94980    0.81700    0.25000    1.000
    C58      C        0.97520    0.93230    0.25000    1.000
    C59      C        0.95110    0.57910    0.25000    1.000
    C60      C        0.95130    0.05420    0.25000    1.000
    N25      N        0.85620    0.69430    0.65400    1.000
    N26      N        0.87340    0.63400    0.41110    1.000
    C61      C        0.78760    0.73330    0.55280    1.000
    C62      C        0.74520    0.77780    0.58380    1.000
    C63      C        0.79300    0.70530    0.46860    1.000
    C64      C        0.82630    0.71270    0.60850    1.000
    C65      C        0.83750    0.66310    0.43650    1.000
    N27      N        0.64380    0.80570    0.15400    1.000
    N28      N        0.62660    0.86600    0.91110    1.000
    C66      C        0.71240    0.76670    0.05280    1.000
    C67      C        0.75480    0.72220    0.08380    1.000
    C68      C        0.70700    0.79470    0.96860    1.000
    C69      C        0.67370    0.78730    0.10850    1.000
    C70      C        0.66250    0.83690    0.93650    1.000
    N29      N        0.14380    0.69430    0.84600    1.000
    N30      N        0.12660    0.63400    0.08890    1.000
    C71      C        0.21240    0.73330    0.94720    1.000
    C72      C        0.25480    0.77780    0.91620    1.000
    C73      C        0.20700    0.70530    0.03140    1.000
    C74      C        0.17370    0.71270    0.89150    1.000
    C75      C        0.16250    0.66310    0.06350    1.000
    N31      N        0.35620    0.80570    0.34600    1.000
    N32      N        0.37340    0.86600    0.58890    1.000
    C76      C        0.28760    0.76670    0.44720    1.000
    C77      C        0.24520    0.72220    0.41620    1.000
    C78      C        0.29300    0.79470    0.53140    1.000
    C79      C        0.32630    0.78730    0.39150    1.000
    C80      C        0.33750    0.83690    0.56350    1.000
    N33      N        0.64380    0.80570    0.34600    1.000
    N34      N        0.62660    0.86600    0.58890    1.000
    C81      C        0.71240    0.76670    0.44720    1.000
    C82      C        0.75480    0.72220    0.41620    1.000
    C83      C        0.70700    0.79470    0.53140    1.000
    C84      C        0.67370    0.78730    0.39150    1.000
    C85      C        0.66250    0.83690    0.56350    1.000
    N35      N        0.85620    0.69430    0.84600    1.000
    N36      N        0.87340    0.63400    0.08890    1.000
    C86      C        0.78760    0.73330    0.94720    1.000
    C87      C        0.74520    0.77780    0.91620    1.000
    C88      C        0.79300    0.70530    0.03140    1.000
    C89      C        0.82630    0.71270    0.89150    1.000
    C90      C        0.83750    0.66310    0.06350    1.000
    N37      N        0.35620    0.80570    0.15400    1.000
    N38      N        0.37340    0.86600    0.91110    1.000
    C91      C        0.28760    0.76670    0.05280    1.000
    C92      C        0.24520    0.72220    0.08380    1.000
    C93      C        0.29300    0.79470    0.96860    1.000
    C94      C        0.32630    0.78730    0.10850    1.000
    C95      C        0.33750    0.83690    0.93650    1.000
    N39      N        0.14380    0.69430    0.65400    1.000
    N40      N        0.12660    0.63400    0.41110    1.000
    C96      C        0.21240    0.73330    0.55280    1.000
    C97      C        0.25480    0.77780    0.58380    1.000
    C98      C        0.20700    0.70530    0.46860    1.000
    C99      C        0.17370    0.71270    0.60850    1.000
    C100     C        0.16250    0.66310    0.43650    1.000
    Cu5      Cu       0.89914    0.68229    0.75000    1.000
    N41      N        0.93570    0.84430    0.75000    1.000
    N42      N        0.93380    0.51990    0.75000    1.000
    C101     C        0.97480    0.29820    0.75000    1.000
    C102     C        0.94980    0.18300    0.75000    1.000
    C103     C        0.97520    0.06770    0.75000    1.000
    C104     C        0.95110    0.42090    0.75000    1.000
    C105     C        0.95130    0.94580    0.75000    1.000
    Cu6      Cu       0.60086    0.81771    0.25000    1.000
    N43      N        0.56430    0.65570    0.25000    1.000
    N44      N        0.56620    0.98010    0.25000    1.000
    C106     C        0.52520    0.20180    0.25000    1.000
    C107     C        0.55020    0.31700    0.25000    1.000
    C108     C        0.52480    0.43230    0.25000    1.000
    C109     C        0.54890    0.07910    0.25000    1.000
    C110     C        0.54870    0.55420    0.25000    1.000
    Cu7      Cu       0.10086    0.68229    0.75000    1.000
    N45      N        0.06430    0.84430    0.75000    1.000
    N46      N        0.06620    0.51990    0.75000    1.000
    C111     C        0.02520    0.29820    0.75000    1.000
    C112     C        0.05020    0.18300    0.75000    1.000
    C113     C        0.02480    0.06770    0.75000    1.000
    C114     C        0.04890    0.42090    0.75000    1.000
    C115     C        0.04870    0.94580    0.75000    1.000
    Cu8      Cu       0.39914    0.81771    0.25000    1.000
    N47      N        0.43570    0.65570    0.25000    1.000
    N48      N        0.43380    0.98010    0.25000    1.000
    C116     C        0.47480    0.20180    0.25000    1.000
    C117     C        0.44980    0.31700    0.25000    1.000
    C118     C        0.47520    0.43230    0.25000    1.000
    C119     C        0.45110    0.07910    0.25000    1.000
    C120     C        0.45130    0.55420    0.25000    1.000
