data_functionalizedCrystal
_audit_creation_method	'EQeq! by Chris Wilmer'
_symmetry_space_group_name_H-M	'P1'
_symmetry_Int_Tables_number	1
_symmetry_cell_setting	triclinic
loop_
_symmetry_equiv_pos_as_xyz
  x,y,z
_cell_length_a	9.7563
_cell_length_b	11.2413
_cell_length_c	21.5957
_cell_angle_alpha	90
_cell_angle_beta	90
_cell_angle_gamma	90
loop_
_atom_site_label
_atom_site_type_symbol
_atom_site_fract_x
_atom_site_fract_y
_atom_site_fract_z
_atom_site_charge
Mof_C 	C 	0.1057	0.9407	0.33258	0.117
Mof_C 	C 	0.0256	0.0199	0.367	-0.14
Mof_C 	C 	0.9524	0.104	0.33329	0.115
Mof_C 	C 	0.012	0.0093	0.43475	0.066
Mof_C 	C 	0.0841	0.9231	0.46788	-0.075
Mof_H 	H 	0.1411	0.8706	0.4467	0.05
Mof_C 	C 	0.9275	0.0861	0.46823	-0.076
Mof_H 	H 	0.8781	0.1444	0.4474	0.05
Mof_N 	N 	0.1693	0.8753	0.30336	-0.268
Mof_N 	N 	0.891	0.1724	0.30458	-0.266
Mof_C 	C 	0.3943	0.5593	0.33258	0.117
Mof_C 	C 	0.4744	0.4801	0.367	-0.142
Mof_C 	C 	0.5476	0.396	0.33329	0.115
Mof_C 	C 	0.488	0.4907	0.43475	0.064
Mof_C 	C 	0.4159	0.5769	0.46788	-0.074
Mof_H 	H 	0.3589	0.6294	0.4467	0.049
Mof_C 	C 	0.5725	0.4139	0.46823	-0.075
Mof_H 	H 	0.6219	0.3556	0.4474	0.05
Mof_N 	N 	0.3307	0.6247	0.30336	-0.268
Mof_N 	N 	0.609	0.3276	0.30458	-0.266
Mof_C 	C 	0.8943	0.4407	0.16742	0.117
Mof_C 	C 	0.9744	0.5199	0.133	-0.142
Mof_C 	C 	0.0476	0.604	0.16671	0.115
Mof_C 	C 	0.988	0.5093	0.06525	0.064
Mof_C 	C 	0.9159	0.4231	0.03212	-0.074
Mof_H 	H 	0.8589	0.3706	0.0533	0.049
Mof_C 	C 	0.0725	0.5861	0.03177	-0.075
Mof_H 	H 	0.1219	0.6444	0.0526	0.05
Mof_N 	N 	0.8307	0.3753	0.19664	-0.268
Mof_N 	N 	0.109	0.6724	0.19542	-0.266
Mof_C 	C 	0.6057	0.0593	0.16742	0.117
Mof_C 	C 	0.5256	0.9801	0.133	-0.142
Mof_C 	C 	0.4524	0.896	0.16671	0.115
Mof_C 	C 	0.512	0.9907	0.06525	0.064
Mof_C 	C 	0.5841	0.0769	0.03212	-0.075
Mof_H 	H 	0.6411	0.1294	0.0533	0.049
Mof_C 	C 	0.4275	0.9139	0.03177	-0.075
Mof_H 	H 	0.3781	0.8556	0.0526	0.05
Mof_N 	N 	0.6693	0.1247	0.19664	-0.268
Mof_N 	N 	0.391	0.8276	0.19542	-0.266
Mof_C 	C 	0.8943	0.0593	0.66742	0.116
Mof_C 	C 	0.9744	0.9801	0.633	-0.141
Mof_C 	C 	0.0476	0.896	0.66671	0.114
Mof_C 	C 	0.988	0.9907	0.56525	0.065
Mof_C 	C 	0.9159	0.0769	0.53212	-0.075
Mof_H 	H 	0.8589	0.1294	0.5533	0.05
Mof_C 	C 	0.0725	0.9139	0.53177	-0.076
Mof_H 	H 	0.1219	0.8556	0.5526	0.05
Mof_N 	N 	0.8307	0.1247	0.69664	-0.268
Mof_N 	N 	0.109	0.8276	0.69542	-0.266
Mof_C 	C 	0.6057	0.4407	0.66742	0.117
Mof_C 	C 	0.5256	0.5199	0.633	-0.142
Mof_C 	C 	0.4524	0.604	0.66671	0.115
Mof_C 	C 	0.512	0.5093	0.56525	0.064
Mof_C 	C 	0.5841	0.4231	0.53212	-0.074
Mof_H 	H 	0.6411	0.3706	0.5533	0.049
Mof_C 	C 	0.4275	0.5861	0.53177	-0.075
Mof_H 	H 	0.3781	0.6444	0.5526	0.05
Mof_N 	N 	0.6693	0.3753	0.69664	-0.268
Mof_N 	N 	0.391	0.6724	0.69542	-0.266
Mof_C 	C 	0.1057	0.5593	0.83258	0.117
Mof_C 	C 	0.0256	0.4801	0.867	-0.142
Mof_C 	C 	0.9524	0.396	0.83329	0.115
Mof_C 	C 	0.012	0.4907	0.93475	0.064
Mof_C 	C 	0.0841	0.5769	0.96788	-0.074
Mof_H 	H 	0.1411	0.6294	0.9467	0.049
Mof_C 	C 	0.9275	0.4139	0.96823	-0.075
Mof_H 	H 	0.8781	0.3556	0.9474	0.05
Mof_N 	N 	0.1693	0.6247	0.80336	-0.268
Mof_N 	N 	0.891	0.3276	0.80458	-0.266
Mof_C 	C 	0.3943	0.9407	0.83258	0.117
Mof_C 	C 	0.4744	0.0199	0.867	-0.142
Mof_C 	C 	0.5476	0.104	0.83329	0.115
Mof_C 	C 	0.488	0.0093	0.93475	0.064
Mof_C 	C 	0.4159	0.9231	0.96788	-0.075
Mof_H 	H 	0.3589	0.8706	0.9467	0.049
Mof_C 	C 	0.5725	0.0861	0.96823	-0.075
Mof_H 	H 	0.6219	0.1444	0.9474	0.05
Mof_N 	N 	0.3307	0.8753	0.80336	-0.268
Mof_N 	N 	0.609	0.1724	0.80458	-0.266
Mof_Cu	Cu	0.25	0.75	0.24919	0.86
Mof_Cu	Cu	0.75	0.25	0.25081	0.86
Mof_Cu	Cu	0.75	0.25	0.75081	0.86
Mof_Cu	Cu	0.25	0.75	0.74919	0.86
_end
