# CIF file generated by openbabel 3.1.0, see https://openbabel.org
data_I
_chemical_name_common 'image0'
_cell_length_a 10.4175
_cell_length_b 9.5922
_cell_length_c 15.2877
_cell_angle_alpha 90
_cell_angle_beta 97.479
_cell_angle_gamma 90
_space_group_name_H-M_alt 'P 1'
_space_group_name_Hall 'P 1'
loop_
    _symmetry_equiv_pos_as_xyz
    x,y,z
loop_
    _atom_site_label
    _atom_site_type_symbol
    _atom_site_fract_x
    _atom_site_fract_y
    _atom_site_fract_z
    _atom_site_occupancy
    O1       O        0.33254    0.92285    0.07269    1.000
    O2       O        0.17441    0.11756    0.98319    1.000
    O3       O        0.53378    0.84439    0.07241    1.000
    O4       O        0.96956    0.18233    0.94478    1.000
    N1       N        0.38107    0.56973    0.31779    1.000
    C1       C        0.42631    0.84473    0.09984    1.000
    N2       N        0.20682    0.62977    0.91973    1.000
    C2       C        0.08768    0.20573    0.95850    1.000
    C3       C        0.13106    0.35464    0.94530    1.000
    C4       C        0.04313    0.45330    0.90728    1.000
    H1       H        0.95530    0.42850    0.88950    1.000
    C5       C        0.25720    0.39708    0.97184    1.000
    H2       H        0.31990    0.33330    0.99890    1.000
    C6       C        0.40805    0.74445    0.17436    1.000
    C7       C        0.49284    0.58102    0.28552    1.000
    H3       H        0.56460    0.52860    0.31250    1.000
    C8       C        0.51019    0.66565    0.21418    1.000
    H4       H        0.59190    0.66920    0.19300    1.000
    C9       C        0.08533    0.58803    0.89575    1.000
    H5       H        0.02450    0.65430    0.86930    1.000
    Li1      Li       0.14899    0.96770    0.06624    1.000
    C10      C        0.28268    0.64510    0.27831    1.000
    H6       H        0.20160    0.63820    0.30020    1.000
    C11      C        0.29002    0.53523    0.95802    1.000
    H7       H        0.37650    0.56390    0.97690    1.000
    Li2      Li       0.33903    0.03320    0.96390    1.000
    C12      C        0.29123    0.73300    0.20738    1.000
    H8       H        0.21790    0.78450    0.18190    1.000
    O5       O        0.16746    0.42285    0.42731    1.000
    O6       O        0.32559    0.61756    0.51681    1.000
    O7       O        0.96622    0.34439    0.42759    1.000
    O8       O        0.53044    0.68233    0.55522    1.000
    N3       N        0.11893    0.06973    0.18221    1.000
    C13      C        0.07369    0.34473    0.40016    1.000
    N4       N        0.29318    0.12977    0.58027    1.000
    C14      C        0.41232    0.70573    0.54150    1.000
    C15      C        0.36894    0.85464    0.55470    1.000
    C16      C        0.45687    0.95330    0.59272    1.000
    H9       H        0.54470    0.92850    0.61050    1.000
    C17      C        0.24280    0.89708    0.52816    1.000
    H10      H        0.18010    0.83330    0.50110    1.000
    C18      C        0.09195    0.24445    0.32564    1.000
    C19      C        0.00716    0.08102    0.21448    1.000
    H11      H        0.93540    0.02860    0.18750    1.000
    C20      C        0.98981    0.16565    0.28582    1.000
    H12      H        0.90810    0.16920    0.30700    1.000
    C21      C        0.41467    0.08803    0.60425    1.000
    H13      H        0.47550    0.15430    0.63070    1.000
    Li3      Li       0.35101    0.46770    0.43376    1.000
    C22      C        0.21732    0.14510    0.22169    1.000
    H14      H        0.29840    0.13820    0.19980    1.000
    C23      C        0.20998    0.03523    0.54198    1.000
    H15      H        0.12350    0.06390    0.52310    1.000
    Li4      Li       0.16097    0.53320    0.53610    1.000
    C24      C        0.20877    0.23300    0.29262    1.000
    H16      H        0.28210    0.28450    0.31810    1.000
    O9       O        0.66746    0.07715    0.92731    1.000
    O10      O        0.82559    0.88244    0.01681    1.000
    O11      O        0.46622    0.15561    0.92759    1.000
    O12      O        0.03044    0.81767    0.05522    1.000
    N5       N        0.61893    0.43027    0.68221    1.000
    C25      C        0.57369    0.15527    0.90016    1.000
    N6       N        0.79318    0.37023    0.08027    1.000
    C26      C        0.91232    0.79427    0.04150    1.000
    C27      C        0.86894    0.64536    0.05470    1.000
    C28      C        0.95687    0.54670    0.09272    1.000
    H17      H        0.04470    0.57150    0.11050    1.000
    C29      C        0.74280    0.60292    0.02816    1.000
    H18      H        0.68010    0.66670    0.00110    1.000
    C30      C        0.59195    0.25555    0.82564    1.000
    C31      C        0.50716    0.41898    0.71448    1.000
    H19      H        0.43540    0.47140    0.68750    1.000
    C32      C        0.48981    0.33435    0.78582    1.000
    H20      H        0.40810    0.33080    0.80700    1.000
    C33      C        0.91467    0.41197    0.10425    1.000
    H21      H        0.97550    0.34570    0.13070    1.000
    Li5      Li       0.85101    0.03230    0.93376    1.000
    C34      C        0.71732    0.35490    0.72169    1.000
    H22      H        0.79840    0.36180    0.69980    1.000
    C35      C        0.70998    0.46477    0.04198    1.000
    H23      H        0.62350    0.43610    0.02310    1.000
    Li6      Li       0.66097    0.96680    0.03610    1.000
    C36      C        0.70877    0.26700    0.79262    1.000
    H24      H        0.78210    0.21550    0.81810    1.000
    O13      O        0.83254    0.57715    0.57269    1.000
    O14      O        0.67441    0.38244    0.48319    1.000
    O15      O        0.03378    0.65561    0.57241    1.000
    O16      O        0.46956    0.31767    0.44478    1.000
    N7       N        0.88107    0.93027    0.81779    1.000
    C37      C        0.92631    0.65527    0.59984    1.000
    N8       N        0.70682    0.87023    0.41973    1.000
    C38      C        0.58768    0.29427    0.45850    1.000
    C39      C        0.63106    0.14536    0.44530    1.000
    C40      C        0.54313    0.04670    0.40728    1.000
    H25      H        0.45530    0.07150    0.38950    1.000
    C41      C        0.75720    0.10292    0.47184    1.000
    H26      H        0.81990    0.16670    0.49890    1.000
    C42      C        0.90805    0.75555    0.67436    1.000
    C43      C        0.99284    0.91898    0.78552    1.000
    H27      H        0.06460    0.97140    0.81250    1.000
    C44      C        0.01019    0.83435    0.71418    1.000
    H28      H        0.09190    0.83080    0.69300    1.000
    C45      C        0.58533    0.91197    0.39575    1.000
    H29      H        0.52450    0.84570    0.36930    1.000
    Li7      Li       0.64899    0.53230    0.56624    1.000
    C46      C        0.78268    0.85490    0.77831    1.000
    H30      H        0.70160    0.86180    0.80020    1.000
    C47      C        0.79002    0.96477    0.45802    1.000
    H31      H        0.87650    0.93610    0.47690    1.000
    Li8      Li       0.83903    0.46680    0.46390    1.000
    C48      C        0.79123    0.76700    0.70738    1.000
    H32      H        0.71790    0.71550    0.68190    1.000
