data_functionalizedCrystal
_audit_creation_method	'EQeq! by Chris Wilmer'
_symmetry_space_group_name_H-M	'P1'
_symmetry_Int_Tables_number	1
_symmetry_cell_setting	triclinic
loop_
_symmetry_equiv_pos_as_xyz
  x,y,z
_cell_length_a	18.5877
_cell_length_b	18.5877
_cell_length_c	6.874
_cell_angle_alpha	90
_cell_angle_beta	90
_cell_angle_gamma	120
loop_
_atom_site_label
_atom_site_type_symbol
_atom_site_fract_x
_atom_site_fract_y
_atom_site_fract_z
_atom_site_charge
Mof_O 	O 	0.5886	0.5585	0.7514	-0.404
Mof_O 	O 	0.6286	0.5186	0.0177	-0.433
Mof_O 	O 	0.7962	0.7123	0.2433	-0.245
Mof_C 	C 	0.6411	0.5502	0.8498	0.344
Mof_C 	C 	0.7234	0.5767	0.7581	-0.13
Mof_C 	C 	0.7457	0.6199	0.5842	0.044
Mof_C 	C 	0.8122	0.759	0.076	-0.051
Mof_H 	H 	0.7079	0.6334	0.5232	0.059
Mof_H 	H 	0.4603	0.5962	0.5825	-1.294
Mof_H 	H 	0.7667	0.7678	0.044	0.042
Mof_H 	H 	0.861	0.8128	0.0902	0.046
Mof_H 	H 	0.821	0.7322	0.9665	0.059
Mof_O 	O 	0.4415	0.0301	0.7514	-0.403
Mof_O 	O 	0.4814	0.11	0.0177	-0.431
Mof_O 	O 	0.2877	0.0839	0.2433	-0.246
Mof_C 	C 	0.4498	0.0909	0.8498	0.343
Mof_C 	C 	0.4233	0.1467	0.7581	-0.129
Mof_C 	C 	0.3801	0.1258	0.5842	0.045
Mof_C 	C 	0.241	0.0532	0.076	-0.036
Mof_H 	H 	0.3666	0.0745	0.5232	0.059
Mof_H 	H 	0.4038	0.8641	0.5825	-1.294
Mof_H 	H 	0.2322	0.9989	0.044	0.036
Mof_H 	H 	0.1872	0.0482	0.0902	0.042
Mof_H 	H 	0.2678	0.0888	0.9665	0.054
Mof_O 	O 	0.9699	0.4114	0.7514	-0.403
Mof_O 	O 	0.89	0.3714	0.0177	-0.431
Mof_O 	O 	0.9161	0.2038	0.2433	-0.248
Mof_C 	C 	0.9091	0.3589	0.8498	0.343
Mof_C 	C 	0.8533	0.2766	0.7581	-0.129
Mof_C 	C 	0.8742	0.2543	0.5842	0.046
Mof_C 	C 	0.9468	0.1878	0.076	-0.031
Mof_H 	H 	0.9255	0.2921	0.5232	0.059
Mof_H 	H 	0.1359	0.5397	0.5825	-1.294
Mof_H 	H 	0.0011	0.2333	0.044	0.037
Mof_H 	H 	0.9518	0.139	0.0902	0.041
Mof_H 	H 	0.9112	0.179	0.9665	0.051
Mof_O 	O 	0.5585	0.5886	0.2486	-0.403
Mof_O 	O 	0.5186	0.6286	0.9823	-0.432
Mof_O 	O 	0.7123	0.7962	0.7567	-0.244
Mof_C 	C 	0.5502	0.6411	0.1502	0.345
Mof_C 	C 	0.5767	0.7234	0.2419	-0.129
Mof_C 	C 	0.6199	0.7457	0.4158	0.045
Mof_C 	C 	0.759	0.8122	0.924	-0.051
Mof_H 	H 	0.6334	0.7079	0.4768	0.059
Mof_H 	H 	0.5962	0.4603	0.4175	-1.294
Mof_H 	H 	0.7678	0.7667	0.956	0.042
Mof_H 	H 	0.8128	0.861	0.9098	0.046
Mof_H 	H 	0.7322	0.821	0.0335	0.059
Mof_O 	O 	0.0301	0.4415	0.2486	-0.403
Mof_O 	O 	0.11	0.4814	0.9823	-0.431
Mof_O 	O 	0.0839	0.2877	0.7567	-0.246
Mof_C 	C 	0.0909	0.4498	0.1502	0.343
Mof_C 	C 	0.1467	0.4233	0.2419	-0.129
Mof_C 	C 	0.1258	0.3801	0.4158	0.045
Mof_C 	C 	0.0532	0.241	0.924	-0.036
Mof_H 	H 	0.0745	0.3666	0.4768	0.059
Mof_H 	H 	0.8641	0.4038	0.4175	-1.294
Mof_H 	H 	0.9989	0.2322	0.956	0.036
Mof_H 	H 	0.0482	0.1872	0.9098	0.042
Mof_H 	H 	0.0888	0.2678	0.0335	0.054
Mof_O 	O 	0.4114	0.9699	0.2486	-0.403
Mof_O 	O 	0.3714	0.89	0.9823	-0.431
Mof_O 	O 	0.2038	0.9161	0.7567	-0.248
Mof_C 	C 	0.3589	0.9091	0.1502	0.343
Mof_C 	C 	0.2766	0.8533	0.2419	-0.129
Mof_C 	C 	0.2543	0.8742	0.4158	0.046
Mof_C 	C 	0.1878	0.9468	0.924	-0.031
Mof_H 	H 	0.2921	0.9255	0.4768	0.059
Mof_H 	H 	0.5397	0.1359	0.4175	-1.294
Mof_H 	H 	0.2333	0.0011	0.956	0.037
Mof_H 	H 	0.139	0.9518	0.9098	0.041
Mof_H 	H 	0.179	0.9112	0.0335	0.051
Mof_O 	O 	0.4114	0.4415	0.2486	-0.403
Mof_O 	O 	0.3714	0.4814	0.9823	-0.432
Mof_O 	O 	0.2038	0.2877	0.7567	-0.244
Mof_C 	C 	0.3589	0.4498	0.1502	0.345
Mof_C 	C 	0.2766	0.4233	0.2419	-0.129
Mof_C 	C 	0.2543	0.3801	0.4158	0.045
Mof_C 	C 	0.1878	0.241	0.924	-0.051
Mof_H 	H 	0.2921	0.3666	0.4768	0.059
Mof_H 	H 	0.5397	0.4038	0.4175	-1.294
Mof_H 	H 	0.2333	0.2322	0.956	0.042
Mof_H 	H 	0.139	0.1872	0.9098	0.046
Mof_H 	H 	0.179	0.2678	0.0335	0.059
Mof_O 	O 	0.5585	0.9699	0.2486	-0.403
Mof_O 	O 	0.5186	0.89	0.9823	-0.431
Mof_O 	O 	0.7123	0.9161	0.7567	-0.246
Mof_C 	C 	0.5502	0.9091	0.1502	0.343
Mof_C 	C 	0.5767	0.8533	0.2419	-0.129
Mof_C 	C 	0.6199	0.8742	0.4158	0.045
Mof_C 	C 	0.759	0.9468	0.924	-0.036
Mof_H 	H 	0.6334	0.9255	0.4768	0.059
Mof_H 	H 	0.5962	0.1359	0.4175	-1.294
Mof_H 	H 	0.7678	0.0011	0.956	0.036
Mof_H 	H 	0.8128	0.9518	0.9098	0.042
Mof_H 	H 	0.7322	0.9112	0.0335	0.054
Mof_O 	O 	0.0301	0.5886	0.2486	-0.403
Mof_O 	O 	0.11	0.6286	0.9823	-0.431
Mof_O 	O 	0.0839	0.7962	0.7567	-0.248
Mof_C 	C 	0.0909	0.6411	0.1502	0.343
Mof_C 	C 	0.1467	0.7234	0.2419	-0.129
Mof_C 	C 	0.1258	0.7457	0.4158	0.046
Mof_C 	C 	0.0532	0.8122	0.924	-0.031
Mof_H 	H 	0.0745	0.7079	0.4768	0.059
Mof_H 	H 	0.8641	0.4603	0.4175	-1.294
Mof_H 	H 	0.9989	0.7667	0.956	0.037
Mof_H 	H 	0.0482	0.861	0.9098	0.041
Mof_H 	H 	0.0888	0.821	0.0335	0.051
Mof_O 	O 	0.4415	0.4114	0.7514	-0.403
Mof_O 	O 	0.4814	0.3714	0.0177	-0.432
Mof_O 	O 	0.2877	0.2038	0.2433	-0.244
Mof_C 	C 	0.4498	0.3589	0.8498	0.345
Mof_C 	C 	0.4233	0.2766	0.7581	-0.129
Mof_C 	C 	0.3801	0.2543	0.5842	0.045
Mof_C 	C 	0.241	0.1878	0.076	-0.051
Mof_H 	H 	0.3666	0.2921	0.5232	0.059
Mof_H 	H 	0.4038	0.5397	0.5825	-1.294
Mof_H 	H 	0.2322	0.2333	0.044	0.042
Mof_H 	H 	0.1872	0.139	0.0902	0.046
Mof_H 	H 	0.2678	0.179	0.9665	0.059
Mof_O 	O 	0.9699	0.5585	0.7514	-0.403
Mof_O 	O 	0.89	0.5186	0.0177	-0.431
Mof_O 	O 	0.9161	0.7123	0.2433	-0.246
Mof_C 	C 	0.9091	0.5502	0.8498	0.343
Mof_C 	C 	0.8533	0.5767	0.7581	-0.129
Mof_C 	C 	0.8742	0.6199	0.5842	0.045
Mof_C 	C 	0.9468	0.759	0.076	-0.036
Mof_H 	H 	0.9255	0.6334	0.5232	0.059
Mof_H 	H 	0.1359	0.5962	0.5825	-1.294
Mof_H 	H 	0.0011	0.7678	0.044	0.036
Mof_H 	H 	0.9518	0.8128	0.0902	0.042
Mof_H 	H 	0.9112	0.7322	0.9665	0.054
Mof_O 	O 	0.5886	0.0301	0.7514	-0.403
Mof_O 	O 	0.6286	0.11	0.0177	-0.431
Mof_O 	O 	0.7962	0.0839	0.2433	-0.248
Mof_C 	C 	0.6411	0.0909	0.8498	0.343
Mof_C 	C 	0.7234	0.1467	0.7581	-0.129
Mof_C 	C 	0.7457	0.1258	0.5842	0.046
Mof_C 	C 	0.8122	0.0532	0.076	-0.031
Mof_H 	H 	0.7079	0.0745	0.5232	0.059
Mof_H 	H 	0.4603	0.8641	0.5825	-1.294
Mof_H 	H 	0.7667	0.9989	0.044	0.037
Mof_H 	H 	0.861	0.0482	0.0902	0.041
Mof_H 	H 	0.821	0.0888	0.9665	0.051
Mof_Cu	Cu	0.47648	0.52352	0.84513	0.901
Mof_O 	O 	0.4417	0.5583	0.5783	0.944
Mof_N 	N 	0.4341	0.5659	0.606	0.667
Mof_C 	C 	0.4052	0.5948	0.513	1.68
Mof_C 	C 	0.3637	0.6363	0.401	-5.978
Mof_H 	H 	0.368	0.632	0.269	1.944
Mof_Cu	Cu	0.47648	0.95296	0.84513	0.901
Mof_O 	O 	0.4417	0.8834	0.5783	0.944
Mof_N 	N 	0.4341	0.8682	0.606	0.667
Mof_C 	C 	0.4052	0.8104	0.513	1.68
Mof_C 	C 	0.3637	0.7274	0.401	-5.978
Mof_H 	H 	0.368	0.736	0.269	1.943
Mof_Cu	Cu	0.04704	0.52352	0.84513	0.901
Mof_O 	O 	0.1166	0.5583	0.5783	0.944
Mof_N 	N 	0.1318	0.5659	0.606	0.667
Mof_C 	C 	0.1896	0.5948	0.513	1.68
Mof_C 	C 	0.2726	0.6363	0.401	-5.978
Mof_H 	H 	0.264	0.632	0.269	1.943
Mof_Cu	Cu	0.52352	0.47648	0.15487	0.901
Mof_O 	O 	0.5583	0.4417	0.4217	0.944
Mof_N 	N 	0.5659	0.4341	0.394	0.667
Mof_C 	C 	0.5948	0.4052	0.487	1.68
Mof_C 	C 	0.6363	0.3637	0.599	-5.978
Mof_H 	H 	0.632	0.368	0.731	1.944
Mof_Cu	Cu	0.95296	0.47648	0.15487	0.901
Mof_O 	O 	0.8834	0.4417	0.4217	0.944
Mof_N 	N 	0.8682	0.4341	0.394	0.667
Mof_C 	C 	0.8104	0.4052	0.487	1.68
Mof_C 	C 	0.7274	0.3637	0.599	-5.978
Mof_H 	H 	0.736	0.368	0.731	1.943
Mof_Cu	Cu	0.52352	0.04704	0.15487	0.901
Mof_O 	O 	0.5583	0.1166	0.4217	0.944
Mof_N 	N 	0.5659	0.1318	0.394	0.667
Mof_C 	C 	0.5948	0.1896	0.487	1.68
Mof_C 	C 	0.6363	0.2726	0.599	-5.978
Mof_H 	H 	0.632	0.264	0.731	1.943
Mof_C 	C 	0.82135	0.6427	0.4987	-0.101
Mof_C 	C 	0.77865	0.5573	0.8482	-0.001
Mof_C 	C 	0.8465	0.693	0.3132	0.302
Mof_H 	H 	0.76565	0.5313	0.9701	0.012
Mof_C 	C 	0.3573	0.17865	0.4987	-0.101
Mof_C 	C 	0.4427	0.22135	0.8482	-0.001
Mof_C 	C 	0.307	0.1535	0.3132	0.302
Mof_H 	H 	0.4687	0.23435	0.9701	0.012
Mof_C 	C 	0.82135	0.17865	0.4987	-0.101
Mof_C 	C 	0.77865	0.22135	0.8482	-0.001
Mof_C 	C 	0.8465	0.1535	0.3132	0.305
Mof_H 	H 	0.76565	0.23435	0.9701	0.012
Mof_C 	C 	0.6427	0.82135	0.5013	-0.101
Mof_C 	C 	0.5573	0.77865	0.1518	-0.001
Mof_C 	C 	0.693	0.8465	0.6868	0.302
Mof_H 	H 	0.5313	0.76565	0.0299	0.012
Mof_C 	C 	0.17865	0.3573	0.5013	-0.101
Mof_C 	C 	0.22135	0.4427	0.1518	-0.001
Mof_C 	C 	0.1535	0.307	0.6868	0.302
Mof_H 	H 	0.23435	0.4687	0.0299	0.012
Mof_C 	C 	0.17865	0.82135	0.5013	-0.101
Mof_C 	C 	0.22135	0.77865	0.1518	-0.001
Mof_C 	C 	0.1535	0.8465	0.6868	0.305
Mof_H 	H 	0.23435	0.76565	0.0299	0.012
Mof_H 	H 	0.30455	0.6091	0.4435	3.548
Mof_H 	H 	0.3909	0.69545	0.4435	3.548
Mof_H 	H 	0.30455	0.69545	0.4435	3.548
Mof_H 	H 	0.6091	0.30455	0.5565	3.548
Mof_H 	H 	0.69545	0.3909	0.5565	3.548
Mof_H 	H 	0.69545	0.30455	0.5565	3.548
_end
