data_functionalizedCrystal
_audit_creation_method	'EQeq! by Chris Wilmer'
_symmetry_space_group_name_H-M	'P1'
_symmetry_Int_Tables_number	1
_symmetry_cell_setting	triclinic
loop_
_symmetry_equiv_pos_as_xyz
  x,y,z
_cell_length_a	16.143
_cell_length_b	7.7507
_cell_length_c	27.374
_cell_angle_alpha	90
_cell_angle_beta	93.077
_cell_angle_gamma	90
loop_
_atom_site_label
_atom_site_type_symbol
_atom_site_fract_x
_atom_site_fract_y
_atom_site_fract_z
_atom_site_charge
Mof_C 	C 	0.7897	0.4079	0.6623	0.46
Mof_C 	C 	0.8023	0.283	0.6204	-0.193
Mof_H 	H 	0.822	0.173	0.634	0.077
Mof_C 	C 	0.9834	0.2886	0.3867	-0.065
Mof_H 	H 	0.9841	0.2744	0.4219	0.056
Mof_H 	H 	0.9943	0.409	0.3797	0.051
Mof_C 	C 	0.0515	0.1756	0.3658	-0.035
Mof_H 	H 	0.1053	0.2127	0.3793	0.039
Mof_H 	H 	0.0434	0.0565	0.3753	0.041
Mof_C 	C 	0.0492	0.1882	0.3109	-0.17
Mof_H 	H 	0.062	0.308	0.302	0.063
Mof_C 	C 	0.9636	0.1458	0.2903	-0.034
Mof_H 	H 	0.9532	0.0241	0.2955	0.048
Mof_H 	H 	0.9613	0.1662	0.2553	0.017
Mof_C 	C 	0.8958	0.2495	0.3127	-0.065
Mof_H 	H 	0.8996	0.3689	0.3024	0.049
Mof_H 	H 	0.8422	0.2053	0.301	0.054
Mof_C 	C 	0.8384	0.2078	0.3928	0.166
Mof_C 	C 	0.7045	0.1205	0.3993	0.162
Mof_C 	C 	0.7846	0.1825	0.4676	0.171
Mof_C 	C 	0.4815	0.0456	0.3835	0.051
Mof_H 	H 	0.4746	0.17	0.3834	0.011
Mof_H 	H 	0.439	0.9963	0.403	-0.005
Mof_C 	C 	0.4706	0.9777	0.3309	-0.313
Mof_H 	H 	0.476	0.852	0.332	0.108
Mof_C 	C 	0.5423	0.052	0.3028	0.058
Mof_H 	H 	0.5389	0.0065	0.2697	-0.006
Mof_H 	H 	0.5363	0.1763	0.3007	0.008
Mof_C 	C 	0.6268	0.0099	0.3264	-0.119
Mof_H 	H 	0.6365	0.8866	0.3245	0.064
Mof_H 	H 	0.6694	0.0682	0.3089	0.071
Mof_C 	C 	0.5668	0.0002	0.4065	-0.109
Mof_H 	H 	0.5727	0.049	0.4392	0.066
Mof_H 	H 	0.5719	0.8759	0.4094	0.061
Mof_C 	C 	0.8652	0.3472	0.5854	-0.025
Mof_H 	H 	0.9191	0.3548	0.6027	0.03
Mof_H 	H 	0.8496	0.4623	0.5745	0.047
Mof_C 	C 	0.7207	0.2508	0.592	0.004
Mof_H 	H 	0.6975	0.3605	0.581	0.016
Mof_H 	H 	0.6822	0.1982	0.6135	-0.006
Mof_C 	C 	0.8716	0.232	0.5416	-0.072
Mof_H 	H 	0.9084	0.2848	0.5191	0.058
Mof_H 	H 	0.8957	0.1226	0.5521	0.053
Mof_C 	C 	0.7294	0.1369	0.5487	-0.086
Mof_H 	H 	0.7448	0.0218	0.5598	0.053
Mof_H 	H 	0.6763	0.1289	0.5304	0.058
Mof_C 	C 	0.1137	0.0729	0.2907	0.438
Mof_C 	C 	0.3885	0.0221	0.3062	0.644
Mof_Ce	Ce	0.22396	0.87143	0.23388	3.085
Mof_N 	N 	0.7082	0.1325	0.4486	-0.162
Mof_N 	N 	0.6313	0.065	0.3777	-0.102
Mof_N 	N 	0.8501	0.2155	0.4425	-0.164
Mof_N 	N 	0.7643	0.166	0.3695	-0.161
Mof_N 	N 	0.9025	0.241	0.3653	-0.117
Mof_N 	N 	0.7917	0.2007	0.5164	-0.114
Mof_O 	O 	0.7829	0.3475	0.7058	-0.861
Mof_O 	O 	0.7861	0.5658	0.6552	-0.592
Mof_O 	O 	0.3482	0.9057	0.2842	-0.72
Mof_O 	O 	0.098	0.9175	0.2806	-0.571
Mof_O 	O 	0.1877	0.1273	0.2842	-0.828
Mof_O 	O 	0.365	0.1769	0.307	-0.744
Mof_C 	C 	0.7103	0.9079	0.8377	0.459
Mof_C 	C 	0.6977	0.783	0.8796	-0.194
Mof_H 	H 	0.678	0.673	0.866	0.077
Mof_C 	C 	0.5166	0.7886	0.1133	-0.064
Mof_H 	H 	0.5159	0.7744	0.0781	0.056
Mof_H 	H 	0.5057	0.909	0.1203	0.051
Mof_C 	C 	0.4485	0.6756	0.1342	-0.035
Mof_H 	H 	0.3947	0.7127	0.1207	0.039
Mof_H 	H 	0.4566	0.5565	0.1247	0.041
Mof_C 	C 	0.4508	0.6882	0.1891	-0.17
Mof_H 	H 	0.438	0.808	0.198	0.063
Mof_C 	C 	0.5364	0.6458	0.2097	-0.033
Mof_H 	H 	0.5468	0.5241	0.2045	0.048
Mof_H 	H 	0.5387	0.6662	0.2447	0.017
Mof_C 	C 	0.6042	0.7495	0.1873	-0.065
Mof_H 	H 	0.6004	0.8689	0.1976	0.049
Mof_H 	H 	0.6578	0.7053	0.199	0.054
Mof_C 	C 	0.6616	0.7078	0.1072	0.166
Mof_C 	C 	0.7955	0.6205	0.1007	0.162
Mof_C 	C 	0.7154	0.6825	0.0324	0.171
Mof_C 	C 	0.0185	0.5456	0.1165	0.049
Mof_H 	H 	0.0254	0.67	0.1166	0.012
Mof_H 	H 	0.061	0.4963	0.097	-0.004
Mof_C 	C 	0.0294	0.4777	0.1691	-0.311
Mof_H 	H 	0.024	0.352	0.168	0.107
Mof_C 	C 	0.9577	0.552	0.1972	0.057
Mof_H 	H 	0.9611	0.5065	0.2303	-0.006
Mof_H 	H 	0.9637	0.6763	0.1993	0.008
Mof_C 	C 	0.8732	0.5099	0.1736	-0.119
Mof_H 	H 	0.8635	0.3866	0.1755	0.064
Mof_H 	H 	0.8306	0.5682	0.1911	0.071
Mof_C 	C 	0.9332	0.5002	0.0935	-0.108
Mof_H 	H 	0.9273	0.549	0.0608	0.066
Mof_H 	H 	0.9281	0.3759	0.0906	0.061
Mof_C 	C 	0.6348	0.8472	0.9146	-0.025
Mof_H 	H 	0.5809	0.8548	0.8973	0.03
Mof_H 	H 	0.6504	0.9623	0.9255	0.047
Mof_C 	C 	0.7793	0.7508	0.908	0.004
Mof_H 	H 	0.8025	0.8605	0.919	0.016
Mof_H 	H 	0.8178	0.6982	0.8865	-0.006
Mof_C 	C 	0.6284	0.732	0.9584	-0.072
Mof_H 	H 	0.5916	0.7848	0.9809	0.059
Mof_H 	H 	0.6043	0.6226	0.9479	0.053
Mof_C 	C 	0.7706	0.6369	0.9513	-0.086
Mof_H 	H 	0.7552	0.5218	0.9402	0.053
Mof_H 	H 	0.8237	0.6289	0.9696	0.058
Mof_C 	C 	0.3863	0.5729	0.2093	0.437
Mof_C 	C 	0.1115	0.5221	0.1938	0.643
Mof_Ce	Ce	0.27604	0.37143	0.26613	3.086
Mof_N 	N 	0.7918	0.6325	0.0514	-0.162
Mof_N 	N 	0.8687	0.565	0.1223	-0.102
Mof_N 	N 	0.6499	0.7155	0.0575	-0.164
Mof_N 	N 	0.7357	0.666	0.1305	-0.161
Mof_N 	N 	0.5975	0.741	0.1347	-0.117
Mof_N 	N 	0.7083	0.7007	0.9836	-0.114
Mof_O 	O 	0.7171	0.8475	0.7942	-0.861
Mof_O 	O 	0.7139	0.0658	0.8448	-0.592
Mof_O 	O 	0.1518	0.4057	0.2158	-0.72
Mof_O 	O 	0.402	0.4175	0.2194	-0.57
Mof_O 	O 	0.3123	0.6273	0.2158	-0.828
Mof_O 	O 	0.135	0.6769	0.193	-0.743
Mof_C 	C 	0.2103	0.5921	0.3377	0.459
Mof_C 	C 	0.1977	0.717	0.3796	-0.194
Mof_H 	H 	0.178	0.827	0.366	0.077
Mof_C 	C 	0.0166	0.7114	0.6133	-0.065
Mof_H 	H 	0.0159	0.7256	0.5781	0.056
Mof_H 	H 	0.0057	0.591	0.6203	0.051
Mof_C 	C 	0.9485	0.8244	0.6342	-0.035
Mof_H 	H 	0.8947	0.7873	0.6207	0.039
Mof_H 	H 	0.9566	0.9435	0.6247	0.041
Mof_C 	C 	0.9508	0.8118	0.6891	-0.17
Mof_H 	H 	0.938	0.692	0.698	0.063
Mof_C 	C 	0.0364	0.8542	0.7097	-0.034
Mof_H 	H 	0.0468	0.9759	0.7045	0.048
Mof_H 	H 	0.0387	0.8338	0.7447	0.017
Mof_C 	C 	0.1042	0.7505	0.6873	-0.065
Mof_H 	H 	0.1004	0.6311	0.6976	0.049
Mof_H 	H 	0.1578	0.7947	0.699	0.054
Mof_C 	C 	0.1616	0.7922	0.6072	0.166
Mof_C 	C 	0.2955	0.8795	0.6007	0.162
Mof_C 	C 	0.2154	0.8175	0.5324	0.171
Mof_C 	C 	0.5185	0.9544	0.6165	0.051
Mof_H 	H 	0.5254	0.83	0.6166	0.011
Mof_H 	H 	0.561	0.0037	0.597	-0.005
Mof_C 	C 	0.5294	0.0223	0.6691	-0.313
Mof_H 	H 	0.524	0.148	0.668	0.108
Mof_C 	C 	0.4577	0.948	0.6972	0.058
Mof_H 	H 	0.4611	0.9935	0.7303	-0.006
Mof_H 	H 	0.4637	0.8237	0.6993	0.008
Mof_C 	C 	0.3732	0.9901	0.6736	-0.119
Mof_H 	H 	0.3635	0.1134	0.6755	0.064
Mof_H 	H 	0.3306	0.9318	0.6911	0.071
Mof_C 	C 	0.4332	0.9998	0.5935	-0.109
Mof_H 	H 	0.4273	0.951	0.5608	0.066
Mof_H 	H 	0.4281	0.1241	0.5906	0.061
Mof_C 	C 	0.1348	0.6528	0.4146	-0.025
Mof_H 	H 	0.0809	0.6452	0.3973	0.03
Mof_H 	H 	0.1504	0.5377	0.4255	0.047
Mof_C 	C 	0.2793	0.7492	0.408	0.004
Mof_H 	H 	0.3025	0.6395	0.419	0.016
Mof_H 	H 	0.3178	0.8018	0.3865	-0.006
Mof_C 	C 	0.1284	0.768	0.4584	-0.072
Mof_H 	H 	0.0916	0.7152	0.4809	0.058
Mof_H 	H 	0.1043	0.8774	0.4479	0.053
Mof_C 	C 	0.2706	0.8631	0.4513	-0.086
Mof_H 	H 	0.2552	0.9782	0.4402	0.053
Mof_H 	H 	0.3237	0.8711	0.4696	0.058
Mof_C 	C 	0.8863	0.9271	0.7093	0.438
Mof_C 	C 	0.6115	0.9779	0.6938	0.644
Mof_Ce	Ce	0.77604	0.12857	0.76613	3.085
Mof_N 	N 	0.2918	0.8675	0.5514	-0.162
Mof_N 	N 	0.3687	0.935	0.6223	-0.102
Mof_N 	N 	0.1499	0.7845	0.5575	-0.164
Mof_N 	N 	0.2357	0.834	0.6305	-0.161
Mof_N 	N 	0.0975	0.759	0.6347	-0.117
Mof_N 	N 	0.2083	0.7993	0.4836	-0.114
Mof_O 	O 	0.2171	0.6525	0.2942	-0.861
Mof_O 	O 	0.2139	0.4342	0.3448	-0.592
Mof_O 	O 	0.6518	0.0943	0.7158	-0.72
Mof_O 	O 	0.902	0.0825	0.7194	-0.571
Mof_O 	O 	0.8123	0.8727	0.7158	-0.828
Mof_O 	O 	0.635	0.8231	0.693	-0.743
Mof_C 	C 	0.2897	0.0921	0.1623	0.459
Mof_C 	C 	0.3023	0.217	0.1204	-0.194
Mof_H 	H 	0.322	0.327	0.134	0.077
Mof_C 	C 	0.4834	0.2114	0.8867	-0.064
Mof_H 	H 	0.4841	0.2256	0.9219	0.056
Mof_H 	H 	0.4943	0.091	0.8797	0.051
Mof_C 	C 	0.5515	0.3244	0.8658	-0.035
Mof_H 	H 	0.6053	0.2873	0.8793	0.039
Mof_H 	H 	0.5434	0.4435	0.8753	0.041
Mof_C 	C 	0.5492	0.3118	0.8109	-0.17
Mof_H 	H 	0.562	0.192	0.802	0.063
Mof_C 	C 	0.4636	0.3542	0.7903	-0.033
Mof_H 	H 	0.4532	0.4759	0.7955	0.048
Mof_H 	H 	0.4613	0.3338	0.7553	0.017
Mof_C 	C 	0.3958	0.2505	0.8127	-0.065
Mof_H 	H 	0.3996	0.1311	0.8024	0.049
Mof_H 	H 	0.3422	0.2947	0.801	0.054
Mof_C 	C 	0.3384	0.2922	0.8928	0.166
Mof_C 	C 	0.2045	0.3795	0.8993	0.162
Mof_C 	C 	0.2846	0.3175	0.9676	0.171
Mof_C 	C 	0.9815	0.4544	0.8835	0.049
Mof_H 	H 	0.9746	0.33	0.8834	0.011
Mof_H 	H 	0.939	0.5037	0.903	-0.004
Mof_C 	C 	0.9706	0.5223	0.8309	-0.311
Mof_H 	H 	0.976	0.648	0.832	0.107
Mof_C 	C 	0.0423	0.448	0.8028	0.057
Mof_H 	H 	0.0389	0.4935	0.7697	-0.006
Mof_H 	H 	0.0363	0.3237	0.8007	0.008
Mof_C 	C 	0.1268	0.4901	0.8264	-0.119
Mof_H 	H 	0.1365	0.6134	0.8245	0.064
Mof_H 	H 	0.1694	0.4318	0.8089	0.071
Mof_C 	C 	0.0668	0.4998	0.9065	-0.108
Mof_H 	H 	0.0727	0.451	0.9392	0.066
Mof_H 	H 	0.0719	0.6241	0.9094	0.061
Mof_C 	C 	0.3652	0.1528	0.0854	-0.025
Mof_H 	H 	0.4191	0.1452	0.1027	0.03
Mof_H 	H 	0.3496	0.0377	0.0745	0.047
Mof_C 	C 	0.2207	0.2492	0.092	0.004
Mof_H 	H 	0.1975	0.1395	0.081	0.016
Mof_H 	H 	0.1822	0.3018	0.1135	-0.006
Mof_C 	C 	0.3716	0.268	0.0416	-0.072
Mof_H 	H 	0.4084	0.2152	0.0191	0.059
Mof_H 	H 	0.3957	0.3774	0.0521	0.053
Mof_C 	C 	0.2294	0.3631	0.0487	-0.086
Mof_H 	H 	0.2448	0.4782	0.0598	0.053
Mof_H 	H 	0.1763	0.3711	0.0304	0.058
Mof_C 	C 	0.6137	0.4271	0.7907	0.437
Mof_C 	C 	0.8885	0.4779	0.8062	0.643
Mof_Ce	Ce	0.72396	0.62857	0.73388	3.086
Mof_N 	N 	0.2082	0.3675	0.9486	-0.162
Mof_N 	N 	0.1313	0.435	0.8777	-0.102
Mof_N 	N 	0.3501	0.2845	0.9425	-0.164
Mof_N 	N 	0.2643	0.334	0.8695	-0.161
Mof_N 	N 	0.4025	0.259	0.8653	-0.117
Mof_N 	N 	0.2917	0.2993	0.0164	-0.114
Mof_O 	O 	0.2829	0.1525	0.2058	-0.861
Mof_O 	O 	0.2861	0.9342	0.1552	-0.592
Mof_O 	O 	0.8482	0.5943	0.7842	-0.72
Mof_O 	O 	0.598	0.5825	0.7806	-0.57
Mof_O 	O 	0.6877	0.3727	0.7842	-0.828
Mof_O 	O 	0.865	0.3231	0.807	-0.743
_end
