# CIF file generated by openbabel 3.1.0, see https://openbabel.org
data_I
_chemical_name_common 'MUFJAZ_clean'
_cell_length_a 7.9204
_cell_length_b 8.321
_cell_length_c 17.4809
_cell_angle_alpha 90
_cell_angle_beta 90
_cell_angle_gamma 109.069
_space_group_name_H-M_alt 'P 1'
_space_group_name_Hall 'P 1'
loop_
    _symmetry_equiv_pos_as_xyz
    x,y,z
loop_
    _atom_site_label
    _atom_site_type_symbol
    _atom_site_fract_x
    _atom_site_fract_y
    _atom_site_fract_z
    _atom_site_occupancy
    Eu1      Eu       0.74424    0.71999    0.52220    1.000
    Eu2      Eu       0.75576    0.28001    0.02220    1.000
    Eu3      Eu       0.25576    0.28001    0.47780    1.000
    Eu4      Eu       0.24424    0.71999    0.97780    1.000
    H1       H        0.83870    0.63210    0.28930    1.000
    H2       H        0.17460    0.07360    0.23870    1.000
    H3       H        0.66130    0.36790    0.78930    1.000
    H4       H        0.32540    0.92640    0.73870    1.000
    H5       H        0.16130    0.36790    0.71070    1.000
    H6       H        0.82540    0.92640    0.76130    1.000
    H7       H        0.33870    0.63210    0.21070    1.000
    H8       H        0.67460    0.07360    0.26130    1.000
    C1       C        0.02100    0.93900    0.37120    1.000
    C2       C        0.01300    0.87600    0.29090    1.000
    C3       C        0.91500    0.72200    0.26180    1.000
    C4       C        0.94800    0.72400    0.18500    1.000
    C5       C        0.90500    0.59200    0.12270    1.000
    C6       C        0.92800    0.43500    0.47510    1.000
    C7       C        0.47900    0.06100    0.87120    1.000
    C8       C        0.48700    0.12400    0.79090    1.000
    C9       C        0.58500    0.27800    0.76180    1.000
    C10      C        0.55200    0.27600    0.68500    1.000
    C11      C        0.59500    0.40800    0.62270    1.000
    C12      C        0.57200    0.56500    0.97510    1.000
    C13      C        0.97900    0.06100    0.62880    1.000
    C14      C        0.98700    0.12400    0.70910    1.000
    C15      C        0.08500    0.27800    0.73820    1.000
    C16      C        0.05200    0.27600    0.81500    1.000
    C17      C        0.09500    0.40800    0.87730    1.000
    C18      C        0.07200    0.56500    0.52490    1.000
    C19      C        0.52100    0.93900    0.12880    1.000
    C20      C        0.51300    0.87600    0.20910    1.000
    C21      C        0.41500    0.72200    0.23820    1.000
    C22      C        0.44800    0.72400    0.31500    1.000
    C23      C        0.40500    0.59200    0.37730    1.000
    C24      C        0.42800    0.43500    0.02490    1.000
    N1       N        0.10700    0.96900    0.23450    1.000
    N2       N        0.08300    0.87800    0.17030    1.000
    N3       N        0.39300    0.03100    0.73450    1.000
    N4       N        0.41700    0.12200    0.67030    1.000
    N5       N        0.89300    0.03100    0.76550    1.000
    N6       N        0.91700    0.12200    0.82970    1.000
    N7       N        0.60700    0.96900    0.26550    1.000
    N8       N        0.58300    0.87800    0.32970    1.000
    O1       O        0.92500    0.84750    0.41860    1.000
    O2       O        0.12560    0.08250    0.38260    1.000
    O3       O        0.76650    0.46960    0.12920    1.000
    O4       O        0.00000    0.61800    0.06390    1.000
    O5       O        0.79580    0.48000    0.45750    1.000
    O6       O        0.95130    0.29840    0.45670    1.000
    O7       O        0.57500    0.15250    0.91860    1.000
    O8       O        0.37440    0.91750    0.88260    1.000
    O9       O        0.73350    0.53040    0.62920    1.000
    O10      O        0.50000    0.38200    0.56390    1.000
    O11      O        0.70420    0.52000    0.95750    1.000
    O12      O        0.54870    0.70160    0.95670    1.000
    O13      O        0.07500    0.15250    0.58140    1.000
    O14      O        0.87440    0.91750    0.61740    1.000
    O15      O        0.23350    0.53040    0.87080    1.000
    O16      O        0.00000    0.38200    0.93610    1.000
    O17      O        0.20420    0.52000    0.54250    1.000
    O18      O        0.04870    0.70160    0.54330    1.000
    O19      O        0.42500    0.84750    0.08140    1.000
    O20      O        0.62560    0.08250    0.11740    1.000
    O21      O        0.26650    0.46960    0.37080    1.000
    O22      O        0.50000    0.61800    0.43610    1.000
    O23      O        0.29580    0.48000    0.04250    1.000
    O24      O        0.45130    0.29840    0.04330    1.000
