# CIF file generated by openbabel 3.1.0, see https://openbabel.org
data_I
_chemical_name_common 'image0'
_cell_length_a 10.468
_cell_length_b 11.356
_cell_length_c 13.089
_cell_angle_alpha 107.539
_cell_angle_beta 90.086
_cell_angle_gamma 92.356
_space_group_name_H-M_alt 'P 1'
_space_group_name_Hall 'P 1'
loop_
    _symmetry_equiv_pos_as_xyz
    x,y,z
loop_
    _atom_site_label
    _atom_site_type_symbol
    _atom_site_fract_x
    _atom_site_fract_y
    _atom_site_fract_z
    _atom_site_occupancy
    Tb1      Tb       0.48066    0.45339    0.33946    1.000
    C1       C        0.49890    0.23330    0.17040    1.000
    C2       C        0.50840    0.74560    0.50640    1.000
    C3       C        0.26710    0.49130    0.56060    1.000
    C4       C        0.50070    0.11540    0.08680    1.000
    C5       C        0.50620    0.88010    0.50670    1.000
    C6       C        0.12950    0.49620    0.52810    1.000
    C7       C        0.45200    0.00550    0.10170    1.000
    C8       C        0.39140    0.93980    0.52560    1.000
    C9       C        0.07680    0.40280    0.44120    1.000
    C10      C        0.40320    0.00070    0.20570    1.000
    H1       H        0.41040    0.07160    0.26430    1.000
    C11      C        0.27630    0.88450    0.55270    1.000
    H2       H        0.27840    0.80540    0.55960    1.000
    C12      C        0.14830    0.30310    0.38110    1.000
    H3       H        0.23340    0.29900    0.40000    1.000
    C13      C        0.34900    0.89800    0.21880    1.000
    H4       H        0.31450    0.90040    0.28480    1.000
    C14      C        0.16580    0.94190    0.56860    1.000
    H5       H        0.09180    0.90140    0.58240    1.000
    C15      C        0.09560    0.21300    0.29630    1.000
    H6       H        0.14420    0.14790    0.25810    1.000
    C16      C        0.34270    0.78460    0.13360    1.000
    H7       H        0.30630    0.71320    0.14430    1.000
    C17      C        0.16210    0.06340    0.56440    1.000
    H8       H        0.08550    0.10370    0.57720    1.000
    C18      C        0.96700    0.21840    0.26660    1.000
    H9       H        0.93180    0.15750    0.20760    1.000
    C19      C        0.39140    0.78220    0.03520    1.000
    H10      H        0.38750    0.70780    0.98010    1.000
    C20      C        0.26710    0.12310    0.54230    1.000
    H11      H        0.26200    0.20420    0.54080    1.000
    C21      C        0.89420    0.31110    0.32260    1.000
    H12      H        0.80890    0.31190    0.30280    1.000
    C22      C        0.44770    0.88990    0.01420    1.000
    C23      C        0.38580    0.06420    0.52110    1.000
    C24      C        0.94640    0.40790    0.41210    1.000
    O1       O        0.39110    0.28140    0.19520    1.000
    O2       O        0.49310    0.66700    0.41580    1.000
    O3       O        0.35700    0.50520    0.50180    1.000
    O4       O        0.59820    0.28280    0.21720    1.000
    O5       O        0.52740    0.72440    0.59250    1.000
    O6       O        0.28850    0.48310    0.65200    1.000
    Tb2      Tb       0.51934    0.54661    0.66054    1.000
    C25      C        0.50110    0.76670    0.82960    1.000
    C26      C        0.49160    0.25440    0.49360    1.000
    C27      C        0.73290    0.50870    0.43940    1.000
    C28      C        0.49930    0.88460    0.91320    1.000
    C29      C        0.49380    0.11990    0.49330    1.000
    C30      C        0.87050    0.50380    0.47190    1.000
    C31      C        0.54800    0.99450    0.89830    1.000
    C32      C        0.60860    0.06020    0.47440    1.000
    C33      C        0.92320    0.59720    0.55880    1.000
    C34      C        0.59680    0.99930    0.79430    1.000
    H13      H        0.58960    0.92840    0.73570    1.000
    C35      C        0.72370    0.11550    0.44730    1.000
    H14      H        0.72160    0.19460    0.44040    1.000
    C36      C        0.85170    0.69690    0.61890    1.000
    H15      H        0.76660    0.70100    0.60000    1.000
    C37      C        0.65100    0.10200    0.78120    1.000
    H16      H        0.68550    0.09960    0.71520    1.000
    C38      C        0.83420    0.05810    0.43140    1.000
    H17      H        0.90820    0.09860    0.41760    1.000
    C39      C        0.90440    0.78700    0.70370    1.000
    H18      H        0.85580    0.85210    0.74190    1.000
    C40      C        0.65730    0.21540    0.86640    1.000
    H19      H        0.69370    0.28680    0.85570    1.000
    C41      C        0.83790    0.93660    0.43560    1.000
    H20      H        0.91450    0.89630    0.42280    1.000
    C42      C        0.03300    0.78160    0.73340    1.000
    H21      H        0.06820    0.84250    0.79240    1.000
    C43      C        0.60860    0.21780    0.96480    1.000
    H22      H        0.61250    0.29220    0.01990    1.000
    C44      C        0.73290    0.87690    0.45770    1.000
    H23      H        0.73800    0.79580    0.45920    1.000
    C45      C        0.10580    0.68890    0.67740    1.000
    H24      H        0.19110    0.68810    0.69720    1.000
    C46      C        0.55230    0.11010    0.98580    1.000
    C47      C        0.61420    0.93580    0.47890    1.000
    C48      C        0.05360    0.59210    0.58790    1.000
    O7       O        0.60890    0.71860    0.80480    1.000
    O8       O        0.50690    0.33300    0.58420    1.000
    O9       O        0.64300    0.49480    0.49820    1.000
    O10      O        0.40180    0.71720    0.78280    1.000
    O11      O        0.47260    0.27560    0.40750    1.000
    O12      O        0.71150    0.51690    0.34800    1.000
