# CIF file generated by openbabel 3.1.0, see https://openbabel.org
data_I
_chemical_name_common 'image0'
_cell_length_a 8.2367
_cell_length_b 9.1664
_cell_length_c 17.55
_cell_angle_alpha 90
_cell_angle_beta 90
_cell_angle_gamma 90
_space_group_name_H-M_alt 'P 1'
_space_group_name_Hall 'P 1'
loop_
    _symmetry_equiv_pos_as_xyz
    x,y,z
loop_
    _atom_site_label
    _atom_site_type_symbol
    _atom_site_fract_x
    _atom_site_fract_y
    _atom_site_fract_z
    _atom_site_occupancy
    Al1      Al       0.86075    0.13091    0.93403    1.000
    Al2      Al       0.94224    0.08437    0.16659    1.000
    Al3      Al       0.93968    0.58575    0.03164    1.000
    P1       P        0.06417    0.41440    0.17325    1.000
    P2       P        0.06985    0.90793    0.02627    1.000
    P3       P        0.13346    0.36723    0.92880    1.000
    O1       O        0.00410    0.26360    0.89910    1.000
    O2       O        0.23890    0.42080    0.14760    1.000
    O3       O        0.96130    0.96620    0.96390    1.000
    O4       O        0.23840    0.29540    0.98930    1.000
    O5       O        0.00900    0.25810    0.18220    1.000
    O6       O        0.04620    0.48850    0.24900    1.000
    O7       O        0.06390    0.00490    0.09740    1.000
    O8       O        0.23560    0.41320    0.86020    1.000
    O9       O        0.05460    0.50510    0.96040    1.000
    O10      O        0.01530    0.75810    0.05060    1.000
    O11      O        0.24360    0.90070    0.99780    1.000
    O12      O        0.95220    0.48580    0.11530    1.000
    Al4      Al       0.63925    0.86909    0.43403    1.000
    Al5      Al       0.55776    0.91563    0.66659    1.000
    Al6      Al       0.56032    0.41425    0.53164    1.000
    P4       P        0.43583    0.58560    0.67325    1.000
    P5       P        0.43015    0.09207    0.52627    1.000
    P6       P        0.36654    0.63277    0.42880    1.000
    O13      O        0.49590    0.73640    0.39910    1.000
    O14      O        0.26110    0.57920    0.64760    1.000
    O15      O        0.53870    0.03380    0.46390    1.000
    O16      O        0.26160    0.70460    0.48930    1.000
    O17      O        0.49100    0.74190    0.68220    1.000
    O18      O        0.45380    0.51150    0.74900    1.000
    O19      O        0.43610    0.99510    0.59740    1.000
    O20      O        0.26440    0.58680    0.36020    1.000
    O21      O        0.44540    0.49490    0.46040    1.000
    O22      O        0.48470    0.24190    0.55060    1.000
    O23      O        0.25640    0.09930    0.49780    1.000
    O24      O        0.54780    0.51420    0.61530    1.000
    Al7      Al       0.13925    0.63091    0.56597    1.000
    Al8      Al       0.05776    0.58437    0.33341    1.000
    Al9      Al       0.06032    0.08575    0.46836    1.000
    P7       P        0.93583    0.91440    0.32675    1.000
    P8       P        0.93015    0.40793    0.47373    1.000
    P9       P        0.86654    0.86723    0.57120    1.000
    O25      O        0.99590    0.76360    0.60090    1.000
    O26      O        0.76110    0.92080    0.35240    1.000
    O27      O        0.03870    0.46620    0.53610    1.000
    O28      O        0.76160    0.79540    0.51070    1.000
    O29      O        0.99100    0.75810    0.31780    1.000
    O30      O        0.95380    0.98850    0.25100    1.000
    O31      O        0.93610    0.50490    0.40260    1.000
    O32      O        0.76440    0.91320    0.63980    1.000
    O33      O        0.94540    0.00510    0.53960    1.000
    O34      O        0.98470    0.25810    0.44940    1.000
    O35      O        0.75640    0.40070    0.50220    1.000
    O36      O        0.04780    0.98580    0.38470    1.000
    Al10     Al       0.36075    0.36909    0.06597    1.000
    Al11     Al       0.44224    0.41563    0.83341    1.000
    Al12     Al       0.43968    0.91425    0.96836    1.000
    P10      P        0.56417    0.08560    0.82675    1.000
    P11      P        0.56985    0.59207    0.97373    1.000
    P12      P        0.63346    0.13277    0.07120    1.000
    O37      O        0.50410    0.23640    0.10090    1.000
    O38      O        0.73890    0.07920    0.85240    1.000
    O39      O        0.46130    0.53380    0.03610    1.000
    O40      O        0.73840    0.20460    0.01070    1.000
    O41      O        0.50900    0.24190    0.81780    1.000
    O42      O        0.54620    0.01150    0.75100    1.000
    O43      O        0.56390    0.49510    0.90260    1.000
    O44      O        0.73560    0.08680    0.13980    1.000
    O45      O        0.55460    0.99490    0.03960    1.000
    O46      O        0.51530    0.74190    0.94940    1.000
    O47      O        0.74360    0.59930    0.00220    1.000
    O48      O        0.45220    0.01420    0.88470    1.000
