# CIF file generated by openbabel 3.1.0, see https://openbabel.org
data_I
_chemical_name_common 'LIDZUV_clean'
_cell_length_a 5.5761
_cell_length_b 11.8301
_cell_length_c 22.7922
_cell_angle_alpha 100.493
_cell_angle_beta 90
_cell_angle_gamma 90
_space_group_name_H-M_alt 'P 1'
_space_group_name_Hall 'P 1'
loop_
    _symmetry_equiv_pos_as_xyz
    x,y,z
loop_
    _atom_site_label
    _atom_site_type_symbol
    _atom_site_fract_x
    _atom_site_fract_y
    _atom_site_fract_z
    _atom_site_occupancy
    Ca1      Ca       0.25638    0.86341    0.77716    1.000
    Ca2      Ca       0.75638    0.63659    0.72284    1.000
    Ca3      Ca       0.74362    0.13659    0.22284    1.000
    Ca4      Ca       0.24362    0.36341    0.27716    1.000
    H1       H        0.62470    0.26760    0.09410    1.000
    H2       H        0.70630    0.22500    0.99250    1.000
    H3       H        0.05530    0.07910    0.96270    1.000
    H4       H        0.97140    0.12680    0.06400    1.000
    H5       H        0.97810    0.31610    0.78060    1.000
    H6       H        0.06370    0.16150    0.82710    1.000
    H7       H        0.69870    0.30650    0.88170    1.000
    H8       H        0.61870    0.45640    0.83100    1.000
    H9       H        0.12470    0.23240    0.40590    1.000
    H10      H        0.20630    0.27500    0.50750    1.000
    H11      H        0.55530    0.42090    0.53730    1.000
    H12      H        0.47140    0.37320    0.43600    1.000
    H13      H        0.47810    0.18390    0.71940    1.000
    H14      H        0.56370    0.33850    0.67290    1.000
    H15      H        0.19870    0.19350    0.61830    1.000
    H16      H        0.11870    0.04360    0.66900    1.000
    H17      H        0.37530    0.73240    0.90590    1.000
    H18      H        0.29370    0.77500    0.00750    1.000
    H19      H        0.94470    0.92090    0.03730    1.000
    H20      H        0.02860    0.87320    0.93600    1.000
    H21      H        0.02190    0.68390    0.21940    1.000
    H22      H        0.93630    0.83850    0.17290    1.000
    H23      H        0.30130    0.69350    0.11830    1.000
    H24      H        0.38130    0.54360    0.16900    1.000
    H25      H        0.87530    0.76760    0.59410    1.000
    H26      H        0.79370    0.72500    0.49250    1.000
    H27      H        0.44470    0.57910    0.46270    1.000
    H28      H        0.52860    0.62680    0.56400    1.000
    H29      H        0.52190    0.81610    0.28060    1.000
    H30      H        0.43630    0.66150    0.32710    1.000
    H31      H        0.80130    0.80650    0.38170    1.000
    H32      H        0.88130    0.95640    0.33100    1.000
    C1       C        0.23880    0.22297    0.15511    1.000
    C2       C        0.29260    0.19845    0.08926    1.000
    C3       C        0.51120    0.22940    0.06784    1.000
    C4       C        0.56090    0.20350    0.00712    1.000
    C5       C        0.39080    0.14520    0.96866    1.000
    C6       C        0.16930    0.11650    0.98913    1.000
    C7       C        0.12050    0.14440    0.04971    1.000
    C8       C        0.24130    0.49560    0.76542    1.000
    C9       C        0.29240    0.40045    0.80037    1.000
    C10      C        0.12420    0.31280    0.79992    1.000
    C11      C        0.17360    0.22090    0.82817    1.000
    C12      C        0.38960    0.21937    0.85797    1.000
    C13      C        0.55660    0.30770    0.86044    1.000
    C14      C        0.50720    0.39780    0.83062    1.000
    C15      C        0.73880    0.27703    0.34489    1.000
    C16      C        0.79260    0.30155    0.41074    1.000
    C17      C        0.01120    0.27060    0.43216    1.000
    C18      C        0.06090    0.29650    0.49288    1.000
    C19      C        0.89080    0.35480    0.53134    1.000
    C20      C        0.66930    0.38350    0.51087    1.000
    C21      C        0.62050    0.35560    0.45029    1.000
    C22      C        0.74130    0.00440    0.73458    1.000
    C23      C        0.79240    0.09955    0.69963    1.000
    C24      C        0.62420    0.18720    0.70008    1.000
    C25      C        0.67360    0.27910    0.67183    1.000
    C26      C        0.88960    0.28063    0.64203    1.000
    C27      C        0.05660    0.19230    0.63956    1.000
    C28      C        0.00720    0.10220    0.66938    1.000
    C29      C        0.76120    0.77703    0.84489    1.000
    C30      C        0.70740    0.80155    0.91074    1.000
    C31      C        0.48880    0.77060    0.93216    1.000
    C32      C        0.43910    0.79650    0.99288    1.000
    C33      C        0.60920    0.85480    0.03134    1.000
    C34      C        0.83070    0.88350    0.01087    1.000
    C35      C        0.87950    0.85560    0.95029    1.000
    C36      C        0.75870    0.50440    0.23458    1.000
    C37      C        0.70760    0.59955    0.19963    1.000
    C38      C        0.87580    0.68720    0.20008    1.000
    C39      C        0.82640    0.77910    0.17183    1.000
    C40      C        0.61040    0.78063    0.14203    1.000
    C41      C        0.44340    0.69230    0.13956    1.000
    C42      C        0.49280    0.60220    0.16938    1.000
    C43      C        0.26120    0.72297    0.65511    1.000
    C44      C        0.20740    0.69845    0.58926    1.000
    C45      C        0.98880    0.72940    0.56784    1.000
    C46      C        0.93910    0.70350    0.50712    1.000
    C47      C        0.10920    0.64520    0.46866    1.000
    C48      C        0.33070    0.61650    0.48913    1.000
    C49      C        0.37950    0.64440    0.54971    1.000
    C50      C        0.25870    0.99560    0.26542    1.000
    C51      C        0.20760    0.90045    0.30037    1.000
    C52      C        0.37580    0.81280    0.29992    1.000
    C53      C        0.32640    0.72090    0.32817    1.000
    C54      C        0.11040    0.71937    0.35797    1.000
    C55      C        0.94340    0.80770    0.36044    1.000
    C56      C        0.99280    0.89780    0.33062    1.000
    S1       S        0.46382    0.10211    0.89229    1.000
    S2       S        0.96382    0.39789    0.60771    1.000
    S3       S        0.53618    0.89789    0.10771    1.000
    S4       S        0.03618    0.60211    0.39229    1.000
    O1       O        0.41440    0.23728    0.19073    1.000
    O2       O        0.02490    0.23181    0.17169    1.000
    O3       O        0.02550    0.51599    0.75668    1.000
    O4       O        0.41920    0.54325    0.74735    1.000
    O5       O        0.30550    0.00697    0.86877    1.000
    O6       O        0.71890    0.08508    0.88821    1.000
    O7       O        0.91440    0.26272    0.30927    1.000
    O8       O        0.52490    0.26819    0.32831    1.000
    O9       O        0.52550    0.98401    0.74332    1.000
    O10      O        0.91920    0.95675    0.75265    1.000
    O11      O        0.80550    0.49303    0.63123    1.000
    O12      O        0.21890    0.41492    0.61179    1.000
    O13      O        0.58560    0.76272    0.80927    1.000
    O14      O        0.97510    0.76819    0.82831    1.000
    O15      O        0.97450    0.48401    0.24332    1.000
    O16      O        0.58080    0.45675    0.25265    1.000
    O17      O        0.69450    0.99303    0.13123    1.000
    O18      O        0.28110    0.91492    0.11179    1.000
    O19      O        0.08560    0.73728    0.69073    1.000
    O20      O        0.47510    0.73181    0.67169    1.000
    O21      O        0.47450    0.01599    0.25668    1.000
    O22      O        0.08080    0.04325    0.24735    1.000
    O23      O        0.19450    0.50697    0.36877    1.000
    O24      O        0.78110    0.58508    0.38821    1.000
