data_functionalizedCrystal
_audit_creation_method	'EQeq! by Chris Wilmer'
_symmetry_space_group_name_H-M	'P1'
_symmetry_Int_Tables_number	1
_symmetry_cell_setting	triclinic
loop_
_symmetry_equiv_pos_as_xyz
  x,y,z
_cell_length_a	10.498
_cell_length_b	22.995
_cell_length_c	24.423
_cell_angle_alpha	90
_cell_angle_beta	98.54
_cell_angle_gamma	90
loop_
_atom_site_label
_atom_site_type_symbol
_atom_site_fract_x
_atom_site_fract_y
_atom_site_fract_z
_atom_site_charge
Mof_Ba	Ba	0.44365	0.78824	0.49961	2.116
Mof_Ba	Ba	0.76636	0.74891	0.02942	2.089
Mof_Ba	Ba	0.05635	0.28824	0.50039	2.113
Mof_Ba	Ba	0.73364	0.24891	0.97058	2.087
Mof_Ba	Ba	0.55635	0.21176	0.50039	2.116
Mof_Ba	Ba	0.23364	0.25109	0.97058	2.089
Mof_Ba	Ba	0.94365	0.71176	0.49961	2.113
Mof_Ba	Ba	0.26636	0.75109	0.02942	2.087
Mof_Gd	Gd	0.83222	0.00329	0.24314	1.807
Mof_Gd	Gd	0.66778	0.50329	0.75686	1.803
Mof_Gd	Gd	0.16778	0.99671	0.75686	1.806
Mof_Gd	Gd	0.33222	0.49671	0.24314	1.802
Mof_H 	H 	0.7483	0.9396	0.3837	0.072
Mof_H 	H 	0.8567	0.8774	0.4506	0.04
Mof_H 	H 	0.1815	0.9741	0.4514	0.061
Mof_H 	H 	0.1395	0.0998	0.4429	0.065
Mof_H 	H 	0.2485	0.1687	0.3051	0.081
Mof_H 	H 	0.1615	0.0892	0.2541	0.062
Mof_H 	H 	0.1726	0.9135	0.2688	0.08
Mof_H 	H 	0.2655	0.846	0.333	0.054
Mof_H 	H 	0.9198	0.7669	0.3266	0.065
Mof_H 	H 	0.8101	0.7535	0.2164	0.061
Mof_H 	H 	0.4586	0.8236	0.1668	0.05
Mof_H 	H 	0.5171	0.9038	0.2235	0.075
Mof_H 	H 	0.4861	0.0155	0.1489	0.073
Mof_H 	H 	0.4015	0.0804	0.0797	0.06
Mof_H 	H 	0.7341	0.0671	0.014	0.068
Mof_H 	H 	0.7966	0.9487	0.0068	0.059
Mof_H 	H 	0.1539	0.9043	0.0833	0.048
Mof_H 	H 	0.1227	0.9649	0.1569	0.071
Mof_H 	H 	0.7517	0.4396	0.6163	0.072
Mof_H 	H 	0.6433	0.3774	0.5494	0.04
Mof_H 	H 	0.3185	0.4741	0.5486	0.061
Mof_H 	H 	0.3605	0.5998	0.5571	0.066
Mof_H 	H 	0.2515	0.6687	0.6949	0.081
Mof_H 	H 	0.3385	0.5892	0.7459	0.062
Mof_H 	H 	0.3274	0.4135	0.7312	0.08
Mof_H 	H 	0.2345	0.346	0.667	0.054
Mof_H 	H 	0.5802	0.2669	0.6734	0.065
Mof_H 	H 	0.6899	0.2535	0.7836	0.061
Mof_H 	H 	0.0414	0.3236	0.8332	0.049
Mof_H 	H 	0.9829	0.4038	0.7765	0.075
Mof_H 	H 	0.0139	0.5155	0.8511	0.075
Mof_H 	H 	0.0985	0.5804	0.9203	0.058
Mof_H 	H 	0.7659	0.5671	0.986	0.066
Mof_H 	H 	0.7034	0.4487	0.9932	0.06
Mof_H 	H 	0.3461	0.4043	0.9167	0.049
Mof_H 	H 	0.3773	0.4649	0.8431	0.071
Mof_H 	H 	0.2517	0.0604	0.6163	0.072
Mof_H 	H 	0.1433	0.1226	0.5494	0.04
Mof_H 	H 	0.8185	0.0259	0.5486	0.061
Mof_H 	H 	0.8605	0.9002	0.5571	0.065
Mof_H 	H 	0.7515	0.8313	0.6949	0.081
Mof_H 	H 	0.8385	0.9108	0.7459	0.062
Mof_H 	H 	0.8274	0.0865	0.7312	0.08
Mof_H 	H 	0.7345	0.154	0.667	0.054
Mof_H 	H 	0.0802	0.2331	0.6734	0.065
Mof_H 	H 	0.1899	0.2465	0.7836	0.061
Mof_H 	H 	0.5414	0.1764	0.8332	0.05
Mof_H 	H 	0.4829	0.0962	0.7765	0.075
Mof_H 	H 	0.5139	0.9845	0.8511	0.073
Mof_H 	H 	0.5985	0.9196	0.9203	0.06
Mof_H 	H 	0.2659	0.9329	0.986	0.068
Mof_H 	H 	0.2034	0.0513	0.9932	0.059
Mof_H 	H 	0.8461	0.0957	0.9167	0.048
Mof_H 	H 	0.8773	0.0351	0.8431	0.071
Mof_H 	H 	0.2483	0.5604	0.3837	0.072
Mof_H 	H 	0.3567	0.6226	0.4506	0.04
Mof_H 	H 	0.6815	0.5259	0.4514	0.061
Mof_H 	H 	0.6395	0.4002	0.4429	0.066
Mof_H 	H 	0.7485	0.3313	0.3051	0.081
Mof_H 	H 	0.6615	0.4108	0.2541	0.062
Mof_H 	H 	0.6726	0.5865	0.2688	0.08
Mof_H 	H 	0.7655	0.654	0.333	0.054
Mof_H 	H 	0.4198	0.7331	0.3266	0.065
Mof_H 	H 	0.3101	0.7465	0.2164	0.061
Mof_H 	H 	0.9586	0.6764	0.1668	0.049
Mof_H 	H 	0.0171	0.5962	0.2235	0.075
Mof_H 	H 	0.9861	0.4845	0.1489	0.075
Mof_H 	H 	0.9015	0.4196	0.0797	0.058
Mof_H 	H 	0.2341	0.4329	0.014	0.066
Mof_H 	H 	0.2966	0.5513	0.0068	0.06
Mof_H 	H 	0.6539	0.5957	0.0833	0.049
Mof_H 	H 	0.6227	0.5351	0.1569	0.071
Mof_C 	C 	0.8368	0.9459	0.3972	0.016
Mof_C 	C 	0.9005	0.9093	0.4371	-0.011
Mof_C 	C 	0.029	0.9196	0.4572	-0.077
Mof_C 	C 	0.0938	0.9665	0.4373	-0.035
Mof_C 	C 	0.0279	0.0013	0.3968	0.062
Mof_C 	C 	0.0904	0.0514	0.3732	0.073
Mof_C 	C 	0.1428	0.0981	0.4043	-0.047
Mof_C 	C 	0.1993	0.142	0.3786	-0.04
Mof_C 	C 	0.2074	0.1386	0.3226	-0.034
Mof_C 	C 	0.1561	0.0918	0.2925	0.047
Mof_C 	C 	0.1211	0.8837	0.2811	0.017
Mof_C 	C 	0.1765	0.8433	0.3186	-0.008
Mof_C 	C 	0.1036	0.799	0.3354	-0.084
Mof_C 	C 	0.9721	0.7968	0.3149	-0.033
Mof_C 	C 	0.918	0.8387	0.2774	0.061
Mof_C 	C 	0.7853	0.8332	0.2477	0.077
Mof_C 	C 	0.7509	0.7848	0.2166	-0.035
Mof_C 	C 	0.6295	0.7812	0.1854	-0.067
Mof_C 	C 	0.5423	0.8258	0.1878	-0.011
Mof_C 	C 	0.5772	0.8734	0.2208	0.028
Mof_C 	C 	0.536	0.0266	0.1212	0.026
Mof_C 	C 	0.4857	0.065	0.0804	-0.022
Mof_C 	C 	0.5615	0.0812	0.0394	-0.062
Mof_C 	C 	0.6825	0.0571	0.0414	-0.038
Mof_C 	C 	0.7286	0.0189	0.0827	0.072
Mof_C 	C 	0.85	0.9858	0.0819	0.074
Mof_C 	C 	0.8638	0.9515	0.0374	-0.026
Mof_C 	C 	0.9788	0.9204	0.0377	-0.086
Mof_C 	C 	0.0757	0.9252	0.0825	-0.005
Mof_C 	C 	0.0567	0.9612	0.126	0.032
Mof_C 	C 	0.6632	0.4459	0.6028	0.016
Mof_C 	C 	0.5995	0.4093	0.5629	-0.01
Mof_C 	C 	0.471	0.4196	0.5428	-0.079
Mof_C 	C 	0.4062	0.4665	0.5627	-0.034
Mof_C 	C 	0.4721	0.5013	0.6032	0.061
Mof_C 	C 	0.4096	0.5514	0.6268	0.074
Mof_C 	C 	0.3572	0.5981	0.5957	-0.048
Mof_C 	C 	0.3007	0.642	0.6214	-0.039
Mof_C 	C 	0.2926	0.6386	0.6774	-0.034
Mof_C 	C 	0.3439	0.5918	0.7075	0.048
Mof_C 	C 	0.3789	0.3837	0.7189	0.016
Mof_C 	C 	0.3235	0.3433	0.6814	-0.007
Mof_C 	C 	0.3964	0.299	0.6646	-0.086
Mof_C 	C 	0.5279	0.2968	0.6851	-0.031
Mof_C 	C 	0.582	0.3387	0.7226	0.061
Mof_C 	C 	0.7147	0.3332	0.7523	0.078
Mof_C 	C 	0.7491	0.2848	0.7834	-0.035
Mof_C 	C 	0.8705	0.2812	0.8146	-0.067
Mof_C 	C 	0.9577	0.3258	0.8122	-0.01
Mof_C 	C 	0.9228	0.3734	0.7792	0.028
Mof_C 	C 	0.964	0.5266	0.8788	0.02
Mof_C 	C 	0.0143	0.565	0.9196	-0.015
Mof_C 	C 	0.9385	0.5812	0.9606	-0.068
Mof_C 	C 	0.8175	0.5571	0.9586	-0.034
Mof_C 	C 	0.7714	0.5189	0.9173	0.068
Mof_C 	C 	0.65	0.4858	0.9181	0.078
Mof_C 	C 	0.6362	0.4515	0.9626	-0.027
Mof_C 	C 	0.5212	0.4204	0.9623	-0.086
Mof_C 	C 	0.4243	0.4252	0.9175	-0.004
Mof_C 	C 	0.4433	0.4612	0.874	0.033
Mof_C 	C 	0.1632	0.0541	0.6028	0.016
Mof_C 	C 	0.0995	0.0907	0.5629	-0.011
Mof_C 	C 	0.971	0.0804	0.5428	-0.077
Mof_C 	C 	0.9062	0.0335	0.5627	-0.035
Mof_C 	C 	0.9721	0.9987	0.6032	0.062
Mof_C 	C 	0.9096	0.9486	0.6268	0.073
Mof_C 	C 	0.8572	0.9019	0.5957	-0.047
Mof_C 	C 	0.8007	0.858	0.6214	-0.04
Mof_C 	C 	0.7926	0.8614	0.6774	-0.034
Mof_C 	C 	0.8439	0.9082	0.7075	0.047
Mof_C 	C 	0.8789	0.1163	0.7189	0.017
Mof_C 	C 	0.8235	0.1567	0.6814	-0.008
Mof_C 	C 	0.8964	0.201	0.6646	-0.084
Mof_C 	C 	0.0279	0.2032	0.6851	-0.033
Mof_C 	C 	0.082	0.1613	0.7226	0.061
Mof_C 	C 	0.2147	0.1668	0.7523	0.077
Mof_C 	C 	0.2491	0.2152	0.7834	-0.035
Mof_C 	C 	0.3705	0.2188	0.8146	-0.067
Mof_C 	C 	0.4577	0.1742	0.8122	-0.011
Mof_C 	C 	0.4228	0.1266	0.7792	0.028
Mof_C 	C 	0.464	0.9734	0.8788	0.026
Mof_C 	C 	0.5143	0.935	0.9196	-0.022
Mof_C 	C 	0.4385	0.9188	0.9606	-0.062
Mof_C 	C 	0.3175	0.9429	0.9586	-0.038
Mof_C 	C 	0.2714	0.9811	0.9173	0.072
Mof_C 	C 	0.15	0.0142	0.9181	0.074
Mof_C 	C 	0.1362	0.0485	0.9626	-0.026
Mof_C 	C 	0.0212	0.0796	0.9623	-0.086
Mof_C 	C 	0.9243	0.0748	0.9175	-0.005
Mof_C 	C 	0.9433	0.0388	0.874	0.032
Mof_C 	C 	0.3368	0.5541	0.3972	0.016
Mof_C 	C 	0.4005	0.5907	0.4371	-0.01
Mof_C 	C 	0.529	0.5804	0.4572	-0.079
Mof_C 	C 	0.5938	0.5335	0.4373	-0.034
Mof_C 	C 	0.5279	0.4987	0.3968	0.061
Mof_C 	C 	0.5904	0.4486	0.3732	0.074
Mof_C 	C 	0.6428	0.4019	0.4043	-0.048
Mof_C 	C 	0.6993	0.358	0.3786	-0.039
Mof_C 	C 	0.7074	0.3614	0.3226	-0.034
Mof_C 	C 	0.6561	0.4082	0.2925	0.048
Mof_C 	C 	0.6211	0.6163	0.2811	0.016
Mof_C 	C 	0.6765	0.6567	0.3186	-0.007
Mof_C 	C 	0.6036	0.701	0.3354	-0.086
Mof_C 	C 	0.4721	0.7032	0.3149	-0.031
Mof_C 	C 	0.418	0.6613	0.2774	0.061
Mof_C 	C 	0.2853	0.6668	0.2477	0.078
Mof_C 	C 	0.2509	0.7152	0.2166	-0.035
Mof_C 	C 	0.1295	0.7188	0.1854	-0.067
Mof_C 	C 	0.0423	0.6742	0.1878	-0.01
Mof_C 	C 	0.0772	0.6266	0.2208	0.028
Mof_C 	C 	0.036	0.4734	0.1212	0.02
Mof_C 	C 	0.9857	0.435	0.0804	-0.015
Mof_C 	C 	0.0615	0.4188	0.0394	-0.068
Mof_C 	C 	0.1825	0.4429	0.0414	-0.034
Mof_C 	C 	0.2286	0.4811	0.0827	0.068
Mof_C 	C 	0.35	0.5142	0.0819	0.078
Mof_C 	C 	0.3638	0.5485	0.0374	-0.027
Mof_C 	C 	0.4788	0.5796	0.0377	-0.086
Mof_C 	C 	0.5757	0.5748	0.0825	-0.004
Mof_C 	C 	0.5567	0.5388	0.126	0.033
Mof_S 	S 	0.11491	0.87248	0.50784	0.598
Mof_S 	S 	0.25772	0.20546	0.41627	0.513
Mof_S 	S 	0.16706	0.74274	0.38111	0.628
Mof_S 	S 	0.59534	0.72054	0.14001	0.526
Mof_S 	S 	0.98814	0.87325	0.98007	0.597
Mof_S 	S 	0.49844	0.12781	0.98424	0.561
Mof_S 	S 	0.38509	0.37248	0.49216	0.598
Mof_S 	S 	0.24228	0.70546	0.58373	0.513
Mof_S 	S 	0.33294	0.24274	0.61889	0.628
Mof_S 	S 	0.90466	0.22054	0.85999	0.527
Mof_S 	S 	0.51186	0.37325	0.01993	0.6
Mof_S 	S 	0.00156	0.62781	0.01576	0.564
Mof_S 	S 	0.88509	0.12752	0.49216	0.598
Mof_S 	S 	0.74228	0.79454	0.58373	0.513
Mof_S 	S 	0.83294	0.25726	0.61889	0.628
Mof_S 	S 	0.40466	0.27946	0.85999	0.526
Mof_S 	S 	0.01186	0.12675	0.01993	0.597
Mof_S 	S 	0.50156	0.87219	0.01576	0.561
Mof_S 	S 	0.61491	0.62752	0.50784	0.598
Mof_S 	S 	0.75772	0.29454	0.41627	0.513
Mof_S 	S 	0.66706	0.75726	0.38111	0.628
Mof_S 	S 	0.09534	0.77946	0.14001	0.527
Mof_S 	S 	0.48814	0.62675	0.98007	0.6
Mof_S 	S 	0.99844	0.37219	0.98424	0.564
Mof_N 	N 	0.8995	0.9904	0.3776	-0.053
Mof_N 	N 	0.0976	0.0494	0.3181	-0.056
Mof_N 	N 	0.9943	0.8815	0.2617	-0.049
Mof_N 	N 	0.6978	0.8767	0.2493	-0.05
Mof_N 	N 	0.9466	0.9906	0.1252	-0.048
Mof_N 	N 	0.6536	0.0049	0.1223	-0.056
Mof_N 	N 	0.6005	0.4904	0.6224	-0.052
Mof_N 	N 	0.4024	0.5494	0.6819	-0.056
Mof_N 	N 	0.5057	0.3815	0.7383	-0.049
Mof_N 	N 	0.8022	0.3767	0.7507	-0.05
Mof_N 	N 	0.5534	0.4906	0.8748	-0.047
Mof_N 	N 	0.8464	0.5049	0.8777	-0.055
Mof_N 	N 	0.1005	0.0096	0.6224	-0.053
Mof_N 	N 	0.9024	0.9506	0.6819	-0.056
Mof_N 	N 	0.0057	0.1185	0.7383	-0.049
Mof_N 	N 	0.3022	0.1233	0.7507	-0.05
Mof_N 	N 	0.0534	0.0094	0.8748	-0.048
Mof_N 	N 	0.3464	0.9951	0.8777	-0.056
Mof_N 	N 	0.3995	0.5096	0.3776	-0.052
Mof_N 	N 	0.5976	0.4506	0.3181	-0.056
Mof_N 	N 	0.4943	0.6185	0.2617	-0.049
Mof_N 	N 	0.1978	0.6233	0.2493	-0.05
Mof_N 	N 	0.4466	0.5094	0.1252	-0.047
Mof_N 	N 	0.1536	0.4951	0.1223	-0.055
Mof_O 	O 	0.8371	0.0255	0.33932	-0.243
Mof_O 	O 	0.0494	0.00446	0.2886	-0.263
Mof_O 	O 	0.9418	0.91874	0.2227	-0.258
Mof_O 	O 	0.7307	0.92397	0.27992	-0.27
Mof_O 	O 	0.7002	0.9673	0.16168	-0.253
Mof_O 	O 	0.9323	0.0279	0.16537	-0.257
Mof_O 	O 	0.2254	0.8528	0.4835	-0.448
Mof_O 	O 	0.0244	0.8268	0.5168	-0.427
Mof_O 	O 	0.1504	0.909	0.5563	-0.255
Mof_O 	O 	0.2838	0.1874	0.4734	-0.44
Mof_O 	O 	0.1562	0.2476	0.4062	-0.381
Mof_O 	O 	0.3726	0.2232	0.3942	-0.342
Mof_O 	O 	0.0887	0.7441	0.4248	-0.466
Mof_O 	O 	0.2994	0.7594	0.4	-0.439
Mof_O 	O 	0.1543	0.6898	0.349	-0.276
Mof_O 	O 	0.5218	0.6807	0.16924	-0.249
Mof_O 	O 	0.72	0.6983	0.1312	-0.393
Mof_O 	O 	0.5237	0.74393	0.0893	-0.476
Mof_O 	O 	0.8779	0.8353	0.9771	-0.445
Mof_O 	O 	0.1122	0.8441	0.9927	-0.435
Mof_O 	O 	0.9818	0.9115	0.932	-0.252
Mof_O 	O 	0.6078	0.144	0.9585	-0.423
Mof_O 	O 	0.4058	0.0922	0.9492	-0.266
Mof_O 	O 	0.4403	0.1762	0.0102	-0.439
Mof_O 	O 	0.6243	0.0475	0.2472	-0.243
Mof_O 	O 	0.8679	0.1067	0.2454	-0.258
Mof_O 	O 	0.7877	0.8383	0.1037	-0.263
Mof_O 	O 	0.4372	0.8885	0.5792	-0.21
Mof_O 	O 	0.7665	0.7254	0.9161	-0.254
Mof_O 	O 	0.508	0.8797	0.4255	-0.237
Mof_O 	O 	0.6629	0.5255	0.66068	-0.244
Mof_O 	O 	0.4506	0.50446	0.7114	-0.263
Mof_O 	O 	0.5582	0.41874	0.7773	-0.258
Mof_O 	O 	0.7693	0.42397	0.72008	-0.269
Mof_O 	O 	0.7998	0.4673	0.83832	-0.251
Mof_O 	O 	0.5677	0.5279	0.83463	-0.259
Mof_O 	O 	0.2746	0.3528	0.5165	-0.448
Mof_O 	O 	0.4756	0.3268	0.4832	-0.428
Mof_O 	O 	0.3496	0.409	0.4437	-0.256
Mof_O 	O 	0.2162	0.6874	0.5266	-0.44
Mof_O 	O 	0.3438	0.7476	0.5938	-0.381
Mof_O 	O 	0.1274	0.7232	0.6058	-0.341
Mof_O 	O 	0.4113	0.2441	0.5752	-0.467
Mof_O 	O 	0.2006	0.2594	0.6	-0.439
Mof_O 	O 	0.3457	0.1898	0.651	-0.277
Mof_O 	O 	0.9782	0.1807	0.83076	-0.249
Mof_O 	O 	0.78	0.1983	0.8688	-0.393
Mof_O 	O 	0.9763	0.24393	0.9107	-0.476
Mof_O 	O 	0.6221	0.3353	0.0229	-0.445
Mof_O 	O 	0.3878	0.3441	0.0073	-0.437
Mof_O 	O 	0.5182	0.4115	0.068	-0.252
Mof_O 	O 	0.8922	0.644	0.0415	-0.422
Mof_O 	O 	0.0942	0.5922	0.0508	-0.266
Mof_O 	O 	0.0597	0.6762	0.9898	-0.439
Mof_O 	O 	0.8757	0.5475	0.7528	-0.243
Mof_O 	O 	0.6321	0.6067	0.7546	-0.258
Mof_O 	O 	0.7123	0.3383	0.8963	-0.263
Mof_O 	O 	0.0628	0.3885	0.4208	-0.211
Mof_O 	O 	0.7335	0.2254	0.0839	-0.252
Mof_O 	O 	0.992	0.3797	0.5745	-0.236
Mof_O 	O 	0.1629	0.9745	0.66068	-0.243
Mof_O 	O 	0.9506	0.99554	0.7114	-0.263
Mof_O 	O 	0.0582	0.08126	0.7773	-0.258
Mof_O 	O 	0.2693	0.07603	0.72008	-0.27
Mof_O 	O 	0.2998	0.0327	0.83832	-0.253
Mof_O 	O 	0.0677	0.9721	0.83463	-0.257
Mof_O 	O 	0.7746	0.1472	0.5165	-0.448
Mof_O 	O 	0.9756	0.1732	0.4832	-0.427
Mof_O 	O 	0.8496	0.091	0.4437	-0.255
Mof_O 	O 	0.7162	0.8126	0.5266	-0.44
Mof_O 	O 	0.8438	0.7524	0.5938	-0.381
Mof_O 	O 	0.6274	0.7768	0.6058	-0.342
Mof_O 	O 	0.9113	0.2559	0.5752	-0.466
Mof_O 	O 	0.7006	0.2406	0.6	-0.439
Mof_O 	O 	0.8457	0.3102	0.651	-0.276
Mof_O 	O 	0.4782	0.3193	0.83076	-0.249
Mof_O 	O 	0.28	0.3017	0.8688	-0.393
Mof_O 	O 	0.4763	0.25607	0.9107	-0.476
Mof_O 	O 	0.1221	0.1647	0.0229	-0.445
Mof_O 	O 	0.8878	0.1559	0.0073	-0.435
Mof_O 	O 	0.0182	0.0885	0.068	-0.252
Mof_O 	O 	0.3922	0.856	0.0415	-0.423
Mof_O 	O 	0.5942	0.9078	0.0508	-0.266
Mof_O 	O 	0.5597	0.8238	0.9898	-0.439
Mof_O 	O 	0.3757	0.9525	0.7528	-0.243
Mof_O 	O 	0.1321	0.8933	0.7546	-0.258
Mof_O 	O 	0.2123	0.1617	0.8963	-0.263
Mof_O 	O 	0.5628	0.1115	0.4208	-0.21
Mof_O 	O 	0.2335	0.2746	0.0839	-0.254
Mof_O 	O 	0.492	0.1203	0.5745	-0.237
Mof_O 	O 	0.3371	0.4745	0.33932	-0.244
Mof_O 	O 	0.5494	0.49554	0.2886	-0.263
Mof_O 	O 	0.4418	0.58126	0.2227	-0.258
Mof_O 	O 	0.2307	0.57603	0.27992	-0.269
Mof_O 	O 	0.2002	0.5327	0.16168	-0.251
Mof_O 	O 	0.4323	0.4721	0.16537	-0.259
Mof_O 	O 	0.7254	0.6472	0.4835	-0.448
Mof_O 	O 	0.5244	0.6732	0.5168	-0.428
Mof_O 	O 	0.6504	0.591	0.5563	-0.256
Mof_O 	O 	0.7838	0.3126	0.4734	-0.44
Mof_O 	O 	0.6562	0.2524	0.4062	-0.381
Mof_O 	O 	0.8726	0.2768	0.3942	-0.341
Mof_O 	O 	0.5887	0.7559	0.4248	-0.467
Mof_O 	O 	0.7994	0.7406	0.4	-0.439
Mof_O 	O 	0.6543	0.8102	0.349	-0.277
Mof_O 	O 	0.0218	0.8193	0.16924	-0.249
Mof_O 	O 	0.22	0.8017	0.1312	-0.393
Mof_O 	O 	0.0237	0.75607	0.0893	-0.476
Mof_O 	O 	0.3779	0.6647	0.9771	-0.445
Mof_O 	O 	0.6122	0.6559	0.9927	-0.437
Mof_O 	O 	0.4818	0.5885	0.932	-0.252
Mof_O 	O 	0.1078	0.356	0.9585	-0.422
Mof_O 	O 	0.9058	0.4078	0.9492	-0.266
Mof_O 	O 	0.9403	0.3238	0.0102	-0.439
Mof_O 	O 	0.1243	0.4525	0.2472	-0.243
Mof_O 	O 	0.3679	0.3933	0.2454	-0.258
Mof_O 	O 	0.2877	0.6617	0.1037	-0.263
Mof_O 	O 	0.9372	0.6115	0.5792	-0.211
Mof_O 	O 	0.2665	0.7746	0.9161	-0.252
Mof_O 	O 	0.008	0.6203	0.4255	-0.236
Mof_Cl	Cl	0.35406	0.98782	0.23556	-0.272
Mof_Cl	Cl	0.14594	0.48782	0.76444	-0.271
Mof_Cl	Cl	0.64594	0.01218	0.76444	-0.272
Mof_Cl	Cl	0.85406	0.51218	0.23556	-0.271
_end
