data_functionalizedCrystal
_audit_creation_method	'EQeq! by Chris Wilmer'
_symmetry_space_group_name_H-M	'P1'
_symmetry_Int_Tables_number	1
_symmetry_cell_setting	triclinic
loop_
_symmetry_equiv_pos_as_xyz
  x,y,z
_cell_length_a	8.8641
_cell_length_b	20.698
_cell_length_c	34.229
_cell_angle_alpha	90
_cell_angle_beta	90
_cell_angle_gamma	90
loop_
_atom_site_label
_atom_site_type_symbol
_atom_site_fract_x
_atom_site_fract_y
_atom_site_fract_z
_atom_site_charge
Mof_O 	O 	0.241	0.3331	0.6791	-0.554
Mof_C 	C 	0.1025	0.3204	0.6822	0.553
Mof_O 	O 	0.0072	0.3361	0.6575	-0.598
Mof_C 	C 	0.0497	0.283	0.7172	-0.155
Mof_C 	C 	0.1493	0.2651	0.7458	0.008
Mof_C 	C 	0.1007	0.2312	0.7782	0.007
Mof_O 	O 	0.2446	0.4576	0.6345	-0.577
Mof_C 	C 	0.2585	0.5915	0.6256	0.009
Mof_H 	H 	0.253	0.2758	0.7432	0.041
Mof_H 	H 	0.1718	0.2168	0.797	0.031
Mof_H 	H 	0.3514	0.5688	0.6269	0.036
Mof_O 	O 	0.241	0.8331	0.1791	-0.553
Mof_C 	C 	0.1025	0.8204	0.1822	0.549
Mof_O 	O 	0.0072	0.8361	0.1575	-0.594
Mof_C 	C 	0.0497	0.783	0.2172	-0.145
Mof_C 	C 	0.1493	0.7651	0.2458	-0.001
Mof_C 	C 	0.1007	0.7312	0.2782	0.018
Mof_O 	O 	0.2446	0.9576	0.1345	-0.577
Mof_C 	C 	0.2585	0.0915	0.1256	0.011
Mof_H 	H 	0.253	0.7758	0.2432	0.044
Mof_H 	H 	0.1718	0.7168	0.297	0.027
Mof_H 	H 	0.3514	0.0688	0.1269	0.035
Mof_O 	O 	0.741	0.3331	0.1791	-0.553
Mof_C 	C 	0.6025	0.3204	0.1822	0.551
Mof_O 	O 	0.5072	0.3361	0.1575	-0.597
Mof_C 	C 	0.5497	0.283	0.2172	-0.151
Mof_C 	C 	0.6493	0.2651	0.2458	0.003
Mof_C 	C 	0.6007	0.2312	0.2782	0.014
Mof_O 	O 	0.7446	0.4576	0.1345	-0.577
Mof_C 	C 	0.7585	0.5915	0.1256	0.009
Mof_H 	H 	0.753	0.2758	0.2432	0.043
Mof_H 	H 	0.6718	0.2168	0.297	0.029
Mof_H 	H 	0.8514	0.5688	0.1269	0.036
Mof_O 	O 	0.741	0.8331	0.6791	-0.553
Mof_C 	C 	0.6025	0.8204	0.6822	0.551
Mof_O 	O 	0.5072	0.8361	0.6575	-0.597
Mof_C 	C 	0.5497	0.783	0.7172	-0.151
Mof_C 	C 	0.6493	0.7651	0.7458	0.003
Mof_C 	C 	0.6007	0.7312	0.7782	0.013
Mof_O 	O 	0.7446	0.9576	0.6345	-0.577
Mof_C 	C 	0.7585	0.0915	0.6256	0.008
Mof_H 	H 	0.753	0.7758	0.7432	0.042
Mof_H 	H 	0.6718	0.7168	0.797	0.029
Mof_H 	H 	0.8514	0.0688	0.6269	0.036
Mof_O 	O 	0.509	0.4169	0.6791	-0.553
Mof_C 	C 	0.6475	0.4296	0.6822	0.551
Mof_O 	O 	0.7428	0.4139	0.6575	-0.597
Mof_C 	C 	0.7003	0.467	0.7172	-0.151
Mof_C 	C 	0.6007	0.4849	0.7458	0.003
Mof_C 	C 	0.6493	0.5188	0.7782	0.014
Mof_O 	O 	0.5054	0.2924	0.6345	-0.577
Mof_C 	C 	0.4915	0.1585	0.6256	0.009
Mof_H 	H 	0.497	0.4742	0.7432	0.043
Mof_H 	H 	0.5782	0.5332	0.797	0.029
Mof_H 	H 	0.3986	0.1812	0.6269	0.036
Mof_O 	O 	0.509	0.9169	0.1791	-0.553
Mof_C 	C 	0.6475	0.9296	0.1822	0.549
Mof_O 	O 	0.7428	0.9139	0.1575	-0.596
Mof_C 	C 	0.7003	0.967	0.2172	-0.146
Mof_C 	C 	0.6007	0.9849	0.2458	-0.003
Mof_C 	C 	0.6493	0.0188	0.2782	0.02
Mof_O 	O 	0.5054	0.7924	0.1345	-0.577
Mof_C 	C 	0.4915	0.6585	0.1256	0.009
Mof_H 	H 	0.497	0.9742	0.2432	0.045
Mof_H 	H 	0.5782	0.0332	0.297	0.027
Mof_H 	H 	0.3986	0.6812	0.1269	0.036
Mof_O 	O 	0.009	0.4169	0.1791	-0.553
Mof_C 	C 	0.1475	0.4296	0.1822	0.551
Mof_O 	O 	0.2428	0.4139	0.1575	-0.597
Mof_C 	C 	0.2003	0.467	0.2172	-0.151
Mof_C 	C 	0.1007	0.4849	0.2458	0.004
Mof_C 	C 	0.1493	0.5188	0.2782	0.013
Mof_O 	O 	0.0054	0.2924	0.1345	-0.577
Mof_C 	C 	0.9915	0.1585	0.1256	0.007
Mof_H 	H 	0.997	0.4742	0.2432	0.042
Mof_H 	H 	0.0782	0.5332	0.297	0.029
Mof_H 	H 	0.8986	0.1812	0.1269	0.036
Mof_O 	O 	0.009	0.9169	0.6791	-0.552
Mof_C 	C 	0.1475	0.9296	0.6822	0.553
Mof_O 	O 	0.2428	0.9139	0.6575	-0.597
Mof_C 	C 	0.2003	0.967	0.7172	-0.157
Mof_C 	C 	0.1007	0.9849	0.7458	0.015
Mof_C 	C 	0.1493	0.0188	0.7782	0.004
Mof_O 	O 	0.0054	0.7924	0.6345	-0.575
Mof_C 	C 	0.9915	0.6585	0.6256	0.006
Mof_H 	H 	0.997	0.9742	0.7432	0.037
Mof_H 	H 	0.0782	0.0332	0.797	0.031
Mof_H 	H 	0.8986	0.6812	0.6269	0.036
Mof_O 	O 	0.509	0.3331	0.0709	-0.553
Mof_C 	C 	0.6475	0.3204	0.0678	0.55
Mof_O 	O 	0.7428	0.3361	0.0925	-0.597
Mof_C 	C 	0.7003	0.283	0.0328	-0.148
Mof_C 	C 	0.6007	0.2651	0.0042	0
Mof_C 	C 	0.6493	0.2312	0.9718	0.017
Mof_O 	O 	0.5054	0.4576	0.1155	-0.577
Mof_C 	C 	0.4915	0.5915	0.1244	0.009
Mof_H 	H 	0.497	0.2758	0.0068	0.044
Mof_H 	H 	0.5782	0.2168	0.953	0.028
Mof_H 	H 	0.3986	0.5688	0.1231	0.036
Mof_O 	O 	0.509	0.8331	0.5709	-0.553
Mof_C 	C 	0.6475	0.8204	0.5678	0.551
Mof_O 	O 	0.7428	0.8361	0.5925	-0.597
Mof_C 	C 	0.7003	0.783	0.5328	-0.152
Mof_C 	C 	0.6007	0.7651	0.5042	0.004
Mof_C 	C 	0.6493	0.7312	0.4718	0.012
Mof_O 	O 	0.5054	0.9576	0.6155	-0.577
Mof_C 	C 	0.4915	0.0915	0.6244	0.008
Mof_H 	H 	0.497	0.7758	0.5068	0.042
Mof_H 	H 	0.5782	0.7168	0.453	0.029
Mof_H 	H 	0.3986	0.0688	0.6231	0.036
Mof_O 	O 	0.009	0.3331	0.5709	-0.554
Mof_C 	C 	0.1475	0.3204	0.5678	0.551
Mof_O 	O 	0.2428	0.3361	0.5925	-0.597
Mof_C 	C 	0.2003	0.283	0.5328	-0.15
Mof_C 	C 	0.1007	0.2651	0.5042	0
Mof_C 	C 	0.1493	0.2312	0.4718	0.015
Mof_O 	O 	0.0054	0.4576	0.6155	-0.577
Mof_C 	C 	0.9915	0.5915	0.6244	0.008
Mof_H 	H 	0.997	0.2758	0.5068	0.044
Mof_H 	H 	0.0782	0.2168	0.453	0.028
Mof_H 	H 	0.8986	0.5688	0.6231	0.036
Mof_O 	O 	0.009	0.8331	0.0709	-0.551
Mof_C 	C 	0.1475	0.8204	0.0678	0.552
Mof_O 	O 	0.2428	0.8361	0.0925	-0.597
Mof_C 	C 	0.2003	0.783	0.0328	-0.154
Mof_C 	C 	0.1007	0.7651	0.0042	0.011
Mof_C 	C 	0.1493	0.7312	0.9718	0.009
Mof_O 	O 	0.0054	0.9576	0.1155	-0.575
Mof_C 	C 	0.9915	0.0915	0.1244	0.012
Mof_H 	H 	0.997	0.7758	0.0068	0.039
Mof_H 	H 	0.0782	0.7168	0.953	0.031
Mof_H 	H 	0.8986	0.0688	0.1231	0.035
Mof_O 	O 	0.241	0.4169	0.0709	-0.553
Mof_C 	C 	0.1025	0.4296	0.0678	0.551
Mof_O 	O 	0.0072	0.4139	0.0925	-0.596
Mof_C 	C 	0.0497	0.467	0.0328	-0.15
Mof_C 	C 	0.1493	0.4849	0.0042	0.004
Mof_C 	C 	0.1007	0.5188	0.9718	0.012
Mof_O 	O 	0.2446	0.2924	0.1155	-0.577
Mof_C 	C 	0.2585	0.1585	0.1244	0.007
Mof_H 	H 	0.253	0.4742	0.0068	0.042
Mof_H 	H 	0.1718	0.5332	0.953	0.029
Mof_H 	H 	0.3514	0.1812	0.1231	0.036
Mof_O 	O 	0.241	0.9169	0.5709	-0.553
Mof_C 	C 	0.1025	0.9296	0.5678	0.55
Mof_O 	O 	0.0072	0.9139	0.5925	-0.595
Mof_C 	C 	0.0497	0.967	0.5328	-0.148
Mof_C 	C 	0.1493	0.9849	0.5042	0.006
Mof_C 	C 	0.1007	0.0188	0.4718	0.007
Mof_O 	O 	0.2446	0.7924	0.6155	-0.577
Mof_C 	C 	0.2585	0.6585	0.6244	0.008
Mof_H 	H 	0.253	0.9742	0.5068	0.042
Mof_H 	H 	0.1718	0.0332	0.453	0.03
Mof_H 	H 	0.3514	0.6812	0.6231	0.036
Mof_O 	O 	0.741	0.4169	0.5709	-0.554
Mof_C 	C 	0.6025	0.4296	0.5678	0.551
Mof_O 	O 	0.5072	0.4139	0.5925	-0.597
Mof_C 	C 	0.5497	0.467	0.5328	-0.151
Mof_C 	C 	0.6493	0.4849	0.5042	0.003
Mof_C 	C 	0.6007	0.5188	0.4718	0.014
Mof_O 	O 	0.7446	0.2924	0.6155	-0.577
Mof_C 	C 	0.7585	0.1585	0.6244	0.009
Mof_H 	H 	0.753	0.4742	0.5068	0.043
Mof_H 	H 	0.6718	0.5332	0.453	0.029
Mof_H 	H 	0.8514	0.1812	0.6231	0.036
Mof_O 	O 	0.741	0.9169	0.0709	-0.553
Mof_C 	C 	0.6025	0.9296	0.0678	0.551
Mof_O 	O 	0.5072	0.9139	0.0925	-0.597
Mof_C 	C 	0.5497	0.967	0.0328	-0.151
Mof_C 	C 	0.6493	0.9849	0.0042	0.002
Mof_C 	C 	0.6007	0.0188	0.9718	0.015
Mof_O 	O 	0.7446	0.7924	0.1155	-0.577
Mof_C 	C 	0.7585	0.6585	0.1244	0.009
Mof_H 	H 	0.753	0.9742	0.0068	0.042
Mof_H 	H 	0.6718	0.0332	0.953	0.029
Mof_H 	H 	0.8514	0.6812	0.1231	0.035
Mof_O 	O 	0.759	0.6669	0.3209	-0.554
Mof_C 	C 	0.8975	0.6796	0.3178	0.553
Mof_O 	O 	0.9928	0.6639	0.3425	-0.598
Mof_C 	C 	0.9503	0.717	0.2828	-0.155
Mof_C 	C 	0.8507	0.7349	0.2542	0.008
Mof_C 	C 	0.8993	0.7688	0.2218	0.007
Mof_O 	O 	0.7554	0.5424	0.3655	-0.577
Mof_C 	C 	0.7415	0.4085	0.3744	0.009
Mof_H 	H 	0.747	0.7242	0.2568	0.041
Mof_H 	H 	0.8282	0.7832	0.203	0.031
Mof_H 	H 	0.6486	0.4312	0.3731	0.036
Mof_O 	O 	0.759	0.1669	0.8209	-0.553
Mof_C 	C 	0.8975	0.1796	0.8178	0.549
Mof_O 	O 	0.9928	0.1639	0.8425	-0.594
Mof_C 	C 	0.9503	0.217	0.7828	-0.145
Mof_C 	C 	0.8507	0.2349	0.7542	-0.001
Mof_C 	C 	0.8993	0.2688	0.7218	0.018
Mof_O 	O 	0.7554	0.0424	0.8655	-0.577
Mof_C 	C 	0.7415	0.9085	0.8744	0.011
Mof_H 	H 	0.747	0.2242	0.7568	0.044
Mof_H 	H 	0.8282	0.2832	0.703	0.027
Mof_H 	H 	0.6486	0.9312	0.8731	0.035
Mof_O 	O 	0.259	0.6669	0.8209	-0.553
Mof_C 	C 	0.3975	0.6796	0.8178	0.551
Mof_O 	O 	0.4928	0.6639	0.8425	-0.597
Mof_C 	C 	0.4503	0.717	0.7828	-0.151
Mof_C 	C 	0.3507	0.7349	0.7542	0.003
Mof_C 	C 	0.3993	0.7688	0.7218	0.014
Mof_O 	O 	0.2554	0.5424	0.8655	-0.577
Mof_C 	C 	0.2415	0.4085	0.8744	0.009
Mof_H 	H 	0.247	0.7242	0.7568	0.043
Mof_H 	H 	0.3282	0.7832	0.703	0.029
Mof_H 	H 	0.1486	0.4312	0.8731	0.036
Mof_O 	O 	0.259	0.1669	0.3209	-0.553
Mof_C 	C 	0.3975	0.1796	0.3178	0.551
Mof_O 	O 	0.4928	0.1639	0.3425	-0.597
Mof_C 	C 	0.4503	0.217	0.2828	-0.151
Mof_C 	C 	0.3507	0.2349	0.2542	0.003
Mof_C 	C 	0.3993	0.2688	0.2218	0.013
Mof_O 	O 	0.2554	0.0424	0.3655	-0.577
Mof_C 	C 	0.2415	0.9085	0.3744	0.008
Mof_H 	H 	0.247	0.2242	0.2568	0.042
Mof_H 	H 	0.3282	0.2832	0.203	0.029
Mof_H 	H 	0.1486	0.9312	0.3731	0.036
Mof_O 	O 	0.491	0.5831	0.3209	-0.553
Mof_C 	C 	0.3525	0.5704	0.3178	0.551
Mof_O 	O 	0.2572	0.5861	0.3425	-0.597
Mof_C 	C 	0.2997	0.533	0.2828	-0.151
Mof_C 	C 	0.3993	0.5151	0.2542	0.003
Mof_C 	C 	0.3507	0.4812	0.2218	0.014
Mof_O 	O 	0.4946	0.7076	0.3655	-0.577
Mof_C 	C 	0.5085	0.8415	0.3744	0.009
Mof_H 	H 	0.503	0.5258	0.2568	0.043
Mof_H 	H 	0.4218	0.4668	0.203	0.029
Mof_H 	H 	0.6014	0.8188	0.3731	0.036
Mof_O 	O 	0.491	0.0831	0.8209	-0.553
Mof_C 	C 	0.3525	0.0704	0.8178	0.549
Mof_O 	O 	0.2572	0.0861	0.8425	-0.596
Mof_C 	C 	0.2997	0.033	0.7828	-0.146
Mof_C 	C 	0.3993	0.0151	0.7542	-0.003
Mof_C 	C 	0.3507	0.9812	0.7218	0.02
Mof_O 	O 	0.4946	0.2076	0.8655	-0.577
Mof_C 	C 	0.5085	0.3415	0.8744	0.009
Mof_H 	H 	0.503	0.0258	0.7568	0.045
Mof_H 	H 	0.4218	0.9668	0.703	0.027
Mof_H 	H 	0.6014	0.3188	0.8731	0.036
Mof_O 	O 	0.991	0.5831	0.8209	-0.553
Mof_C 	C 	0.8525	0.5704	0.8178	0.551
Mof_O 	O 	0.7572	0.5861	0.8425	-0.597
Mof_C 	C 	0.7997	0.533	0.7828	-0.151
Mof_C 	C 	0.8993	0.5151	0.7542	0.004
Mof_C 	C 	0.8507	0.4812	0.7218	0.013
Mof_O 	O 	0.9946	0.7076	0.8655	-0.577
Mof_C 	C 	0.0085	0.8415	0.8744	0.007
Mof_H 	H 	0.003	0.5258	0.7568	0.042
Mof_H 	H 	0.9218	0.4668	0.703	0.029
Mof_H 	H 	0.1014	0.8188	0.8731	0.036
Mof_O 	O 	0.991	0.0831	0.3209	-0.552
Mof_C 	C 	0.8525	0.0704	0.3178	0.553
Mof_O 	O 	0.7572	0.0861	0.3425	-0.597
Mof_C 	C 	0.7997	0.033	0.2828	-0.157
Mof_C 	C 	0.8993	0.0151	0.2542	0.015
Mof_C 	C 	0.8507	0.9812	0.2218	0.004
Mof_O 	O 	0.9946	0.2076	0.3655	-0.575
Mof_C 	C 	0.0085	0.3415	0.3744	0.006
Mof_H 	H 	0.003	0.0258	0.2568	0.037
Mof_H 	H 	0.9218	0.9668	0.203	0.031
Mof_H 	H 	0.1014	0.3188	0.3731	0.036
Mof_O 	O 	0.491	0.6669	0.9291	-0.553
Mof_C 	C 	0.3525	0.6796	0.9322	0.55
Mof_O 	O 	0.2572	0.6639	0.9075	-0.597
Mof_C 	C 	0.2997	0.717	0.9672	-0.148
Mof_C 	C 	0.3993	0.7349	0.9958	0
Mof_C 	C 	0.3507	0.7688	0.0282	0.017
Mof_O 	O 	0.4946	0.5424	0.8845	-0.577
Mof_C 	C 	0.5085	0.4085	0.8756	0.009
Mof_H 	H 	0.503	0.7242	0.9932	0.044
Mof_H 	H 	0.4218	0.7832	0.047	0.028
Mof_H 	H 	0.6014	0.4312	0.8769	0.036
Mof_O 	O 	0.491	0.1669	0.4291	-0.553
Mof_C 	C 	0.3525	0.1796	0.4322	0.551
Mof_O 	O 	0.2572	0.1639	0.4075	-0.597
Mof_C 	C 	0.2997	0.217	0.4672	-0.152
Mof_C 	C 	0.3993	0.2349	0.4958	0.004
Mof_C 	C 	0.3507	0.2688	0.5282	0.012
Mof_O 	O 	0.4946	0.0424	0.3845	-0.577
Mof_C 	C 	0.5085	0.9085	0.3756	0.008
Mof_H 	H 	0.503	0.2242	0.4932	0.042
Mof_H 	H 	0.4218	0.2832	0.547	0.029
Mof_H 	H 	0.6014	0.9312	0.3769	0.036
Mof_O 	O 	0.991	0.6669	0.4291	-0.554
Mof_C 	C 	0.8525	0.6796	0.4322	0.551
Mof_O 	O 	0.7572	0.6639	0.4075	-0.597
Mof_C 	C 	0.7997	0.717	0.4672	-0.15
Mof_C 	C 	0.8993	0.7349	0.4958	0
Mof_C 	C 	0.8507	0.7688	0.5282	0.015
Mof_O 	O 	0.9946	0.5424	0.3845	-0.577
Mof_C 	C 	0.0085	0.4085	0.3756	0.008
Mof_H 	H 	0.003	0.7242	0.4932	0.044
Mof_H 	H 	0.9218	0.7832	0.547	0.028
Mof_H 	H 	0.1014	0.4312	0.3769	0.036
Mof_O 	O 	0.991	0.1669	0.9291	-0.551
Mof_C 	C 	0.8525	0.1796	0.9322	0.552
Mof_O 	O 	0.7572	0.1639	0.9075	-0.597
Mof_C 	C 	0.7997	0.217	0.9672	-0.154
Mof_C 	C 	0.8993	0.2349	0.9958	0.011
Mof_C 	C 	0.8507	0.2688	0.0282	0.009
Mof_O 	O 	0.9946	0.0424	0.8845	-0.575
Mof_C 	C 	0.0085	0.9085	0.8756	0.012
Mof_H 	H 	0.003	0.2242	0.9932	0.039
Mof_H 	H 	0.9218	0.2832	0.047	0.031
Mof_H 	H 	0.1014	0.9312	0.8769	0.035
Mof_O 	O 	0.759	0.5831	0.9291	-0.553
Mof_C 	C 	0.8975	0.5704	0.9322	0.551
Mof_O 	O 	0.9928	0.5861	0.9075	-0.596
Mof_C 	C 	0.9503	0.533	0.9672	-0.15
Mof_C 	C 	0.8507	0.5151	0.9958	0.004
Mof_C 	C 	0.8993	0.4812	0.0282	0.012
Mof_O 	O 	0.7554	0.7076	0.8845	-0.577
Mof_C 	C 	0.7415	0.8415	0.8756	0.007
Mof_H 	H 	0.747	0.5258	0.9932	0.042
Mof_H 	H 	0.8282	0.4668	0.047	0.029
Mof_H 	H 	0.6486	0.8188	0.8769	0.036
Mof_O 	O 	0.759	0.0831	0.4291	-0.553
Mof_C 	C 	0.8975	0.0704	0.4322	0.55
Mof_O 	O 	0.9928	0.0861	0.4075	-0.595
Mof_C 	C 	0.9503	0.033	0.4672	-0.148
Mof_C 	C 	0.8507	0.0151	0.4958	0.006
Mof_C 	C 	0.8993	0.9812	0.5282	0.007
Mof_O 	O 	0.7554	0.2076	0.3845	-0.577
Mof_C 	C 	0.7415	0.3415	0.3756	0.008
Mof_H 	H 	0.747	0.0258	0.4932	0.042
Mof_H 	H 	0.8282	0.9668	0.547	0.03
Mof_H 	H 	0.6486	0.3188	0.3769	0.036
Mof_O 	O 	0.259	0.5831	0.4291	-0.554
Mof_C 	C 	0.3975	0.5704	0.4322	0.551
Mof_O 	O 	0.4928	0.5861	0.4075	-0.597
Mof_C 	C 	0.4503	0.533	0.4672	-0.151
Mof_C 	C 	0.3507	0.5151	0.4958	0.003
Mof_C 	C 	0.3993	0.4812	0.5282	0.014
Mof_O 	O 	0.2554	0.7076	0.3845	-0.577
Mof_C 	C 	0.2415	0.8415	0.3756	0.009
Mof_H 	H 	0.247	0.5258	0.4932	0.043
Mof_H 	H 	0.3282	0.4668	0.547	0.029
Mof_H 	H 	0.1486	0.8188	0.3769	0.036
Mof_O 	O 	0.259	0.0831	0.9291	-0.553
Mof_C 	C 	0.3975	0.0704	0.9322	0.551
Mof_O 	O 	0.4928	0.0861	0.9075	-0.597
Mof_C 	C 	0.4503	0.033	0.9672	-0.151
Mof_C 	C 	0.3507	0.0151	0.9958	0.002
Mof_C 	C 	0.3993	0.9812	0.0282	0.015
Mof_O 	O 	0.2554	0.2076	0.8845	-0.577
Mof_C 	C 	0.2415	0.3415	0.8756	0.009
Mof_H 	H 	0.247	0.0258	0.9932	0.042
Mof_H 	H 	0.3282	0.9668	0.047	0.029
Mof_H 	H 	0.1486	0.3188	0.8769	0.035
Mof_Sc	Sc	0.375	0.375	0.63544	1.988
Mof_Sc	Sc	0.375	0.875	0.13544	1.988
Mof_Sc	Sc	0.875	0.375	0.13544	1.987
Mof_Sc	Sc	0.875	0.875	0.63544	1.983
Mof_Sc	Sc	0.375	0.375	0.11456	1.988
Mof_Sc	Sc	0.375	0.875	0.61456	1.988
Mof_Sc	Sc	0.875	0.375	0.61456	1.988
Mof_Sc	Sc	0.875	0.875	0.11456	1.981
Mof_Sc	Sc	0.625	0.625	0.36456	1.988
Mof_Sc	Sc	0.625	0.125	0.86456	1.988
Mof_Sc	Sc	0.125	0.625	0.86456	1.987
Mof_Sc	Sc	0.125	0.125	0.36456	1.983
Mof_Sc	Sc	0.625	0.625	0.88544	1.988
Mof_Sc	Sc	0.625	0.125	0.38544	1.988
Mof_Sc	Sc	0.125	0.625	0.38544	1.988
Mof_Sc	Sc	0.125	0.125	0.88544	1.981
Mof_C 	C 	0.125	0.4858	0.625	0.553
Mof_C 	C 	0.125	0.558	0.625	-0.151
Mof_C 	C 	0.125	0.9858	0.125	0.555
Mof_C 	C 	0.125	0.058	0.125	-0.155
Mof_C 	C 	0.625	0.9858	0.625	0.552
Mof_C 	C 	0.625	0.058	0.625	-0.15
Mof_C 	C 	0.625	0.2642	0.625	0.553
Mof_C 	C 	0.625	0.192	0.625	-0.152
Mof_C 	C 	0.625	0.7642	0.125	0.552
Mof_C 	C 	0.625	0.692	0.125	-0.152
Mof_C 	C 	0.625	0.4858	0.125	0.553
Mof_C 	C 	0.625	0.558	0.125	-0.152
Mof_C 	C 	0.125	0.2642	0.125	0.552
Mof_C 	C 	0.125	0.192	0.125	-0.151
Mof_C 	C 	0.125	0.7642	0.625	0.552
Mof_C 	C 	0.125	0.692	0.625	-0.149
Mof_C 	C 	0.875	0.5142	0.375	0.553
Mof_C 	C 	0.875	0.442	0.375	-0.151
Mof_C 	C 	0.875	0.0142	0.875	0.555
Mof_C 	C 	0.875	0.942	0.875	-0.155
Mof_C 	C 	0.375	0.7358	0.375	0.553
Mof_C 	C 	0.375	0.808	0.375	-0.152
Mof_C 	C 	0.375	0.2358	0.875	0.552
Mof_C 	C 	0.375	0.308	0.875	-0.152
Mof_C 	C 	0.375	0.5142	0.875	0.553
Mof_C 	C 	0.375	0.442	0.875	-0.152
Mof_C 	C 	0.375	0.0142	0.375	0.552
Mof_C 	C 	0.375	0.942	0.375	-0.15
Mof_C 	C 	0.875	0.7358	0.875	0.552
Mof_C 	C 	0.875	0.808	0.875	-0.151
Mof_C 	C 	0.875	0.2358	0.375	0.552
Mof_C 	C 	0.875	0.308	0.375	-0.149
_end
