# CIF file generated by openbabel 3.1.0, see https://openbabel.org
data_I
_chemical_name_common 'JOCPIB_clean'
_cell_length_a 10.001
_cell_length_b 15.5508
_cell_length_c 15.5508
_cell_angle_alpha 84.065
_cell_angle_beta 71.2428
_cell_angle_gamma 71.2427
_space_group_name_H-M_alt 'P 1'
_space_group_name_Hall 'P 1'
loop_
    _symmetry_equiv_pos_as_xyz
    x,y,z
loop_
    _atom_site_label
    _atom_site_type_symbol
    _atom_site_fract_x
    _atom_site_fract_y
    _atom_site_fract_z
    _atom_site_occupancy
    Cu1      Cu       0.12874    0.26113    0.99859    1.000
    Cu2      Cu       0.38846    0.73887    0.00141    1.000
    Cu3      Cu       0.37733    0.50141    0.76113    1.000
    Cu4      Cu       0.63987    0.49859    0.23887    1.000
    Cu5      Cu       0.38846    0.00141    0.73887    1.000
    Cu6      Cu       0.12874    0.99859    0.26113    1.000
    Cu7      Cu       0.63987    0.23887    0.49859    1.000
    Cu8      Cu       0.37733    0.76113    0.50141    1.000
    H1       H        0.85010    0.20550    0.01550    1.000
    H2       H        0.94710    0.33130    0.85950    1.000
    H3       H        0.89780    0.48160    0.30760    1.000
    H4       H        0.24860    0.31340    0.14100    1.000
    H5       H        0.07110    0.79450    0.98450    1.000
    H6       H        0.13790    0.66870    0.14050    1.000
    H7       H        0.68700    0.51840    0.69240    1.000
    H8       H        0.70300    0.68660    0.85900    1.000
    H9       H        0.11560    0.48450    0.70550    1.000
    H10      H        0.05660    0.64050    0.83130    1.000
    H11      H        0.45540    0.19240    0.98160    1.000
    H12      H        0.63960    0.35900    0.81340    1.000
    H13      H        0.30560    0.51550    0.29450    1.000
    H14      H        0.52840    0.35950    0.16870    1.000
    H15      H        0.62940    0.80760    0.01840    1.000
    H16      H        0.81200    0.64100    0.18660    1.000
    H17      H        0.07110    0.98450    0.79450    1.000
    H18      H        0.13790    0.14050    0.66870    1.000
    H19      H        0.68700    0.69240    0.51840    1.000
    H20      H        0.70300    0.85900    0.68660    1.000
    H21      H        0.85010    0.01550    0.20550    1.000
    H22      H        0.94710    0.85950    0.33130    1.000
    H23      H        0.89780    0.30760    0.48160    1.000
    H24      H        0.24860    0.14100    0.31340    1.000
    H25      H        0.30560    0.29450    0.51550    1.000
    H26      H        0.52840    0.16870    0.35950    1.000
    H27      H        0.62940    0.01840    0.80760    1.000
    H28      H        0.81200    0.18660    0.64100    1.000
    H29      H        0.11560    0.70550    0.48450    1.000
    H30      H        0.05660    0.83130    0.64050    1.000
    H31      H        0.45540    0.98160    0.19240    1.000
    H32      H        0.63960    0.81340    0.35900    1.000
    C1       C        0.89432    0.16893    0.05623    1.000
    C2       C        0.01804    0.27664    0.83668    1.000
    C3       C        0.91949    0.38922    0.12820    1.000
    C4       C        0.94086    0.44668    0.25500    1.000
    C5       C        0.08770    0.40220    0.22880    1.000
    C6       C        0.14850    0.34670    0.15630    1.000
    C7       C        0.11948    0.83107    0.94377    1.000
    C8       C        0.13136    0.72336    0.16332    1.000
    C9       C        0.43691    0.61078    0.87180    1.000
    C10      C        0.64254    0.55332    0.74500    1.000
    C11      C        0.71870    0.59780    0.77120    1.000
    C12      C        0.65150    0.65330    0.84370    1.000
    C13      C        0.20055    0.44377    0.66893    1.000
    C14      C        0.10472    0.66332    0.77664    1.000
    C15      C        0.29769    0.37180    0.88922    1.000
    C16      C        0.44586    0.24500    0.94668    1.000
    C17      C        0.56650    0.27120    0.90220    1.000
    C18      C        0.55480    0.34370    0.84670    1.000
    C19      C        0.31325    0.55623    0.33107    1.000
    C20      C        0.54468    0.33668    0.22336    1.000
    C21      C        0.55871    0.62820    0.11078    1.000
    C22      C        0.63754    0.75500    0.05332    1.000
    C23      C        0.73990    0.72880    0.09780    1.000
    C24      C        0.74520    0.65630    0.15330    1.000
    C25      C        0.11948    0.94377    0.83107    1.000
    C26      C        0.13136    0.16332    0.72336    1.000
    C27      C        0.43691    0.87180    0.61078    1.000
    C28      C        0.64254    0.74500    0.55332    1.000
    C29      C        0.71870    0.77120    0.59780    1.000
    C30      C        0.65150    0.84370    0.65330    1.000
    C31      C        0.89432    0.05623    0.16893    1.000
    C32      C        0.01804    0.83668    0.27664    1.000
    C33      C        0.91949    0.12820    0.38922    1.000
    C34      C        0.94086    0.25500    0.44668    1.000
    C35      C        0.08770    0.22880    0.40220    1.000
    C36      C        0.14850    0.15630    0.34670    1.000
    C37      C        0.31325    0.33107    0.55623    1.000
    C38      C        0.54468    0.22336    0.33668    1.000
    C39      C        0.55871    0.11078    0.62820    1.000
    C40      C        0.63754    0.05332    0.75500    1.000
    C41      C        0.73990    0.09780    0.72880    1.000
    C42      C        0.74520    0.15330    0.65630    1.000
    C43      C        0.20055    0.66893    0.44377    1.000
    C44      C        0.10472    0.77664    0.66332    1.000
    C45      C        0.29769    0.88922    0.37180    1.000
    C46      C        0.44586    0.94668    0.24500    1.000
    C47      C        0.56650    0.90220    0.27120    1.000
    C48      C        0.55480    0.84670    0.34370    1.000
    C49      C        0.08340    0.12400    0.12400    1.000
    C50      C        0.83360    0.10570    0.10570    1.000
    C51      C        0.33140    0.87600    0.87600    1.000
    C52      C        0.04500    0.89430    0.89430    1.000
    C53      C        0.45740    0.37600    0.62400    1.000
    C54      C        0.18930    0.39430    0.60570    1.000
    C55      C        0.45740    0.62400    0.37600    1.000
    C56      C        0.18930    0.60570    0.39430    1.000
    C57      C        0.21650    0.15230    0.84770    1.000
    C58      C        0.02250    0.24250    0.75750    1.000
    C59      C        0.21650    0.84770    0.15230    1.000
    C60      C        0.02250    0.75750    0.24250    1.000
    C61      C        0.31420    0.65230    0.65230    1.000
    C62      C        0.03000    0.74250    0.74250    1.000
    C63      C        0.61880    0.34770    0.34770    1.000
    C64      C        0.51500    0.25750    0.25750    1.000
    N1       N        0.01626    0.17905    0.06543    1.000
    N2       N        0.11253    0.23317    0.88077    1.000
    N3       N        0.06758    0.33850    0.10614    1.000
    N4       N        0.85673    0.44044    0.20490    1.000
    N5       N        0.26074    0.82095    0.93457    1.000
    N6       N        0.22647    0.76683    0.11923    1.000
    N7       N        0.51222    0.66150    0.89386    1.000
    N8       N        0.50207    0.55956    0.79510    1.000
    N9       N        0.33169    0.43457    0.67905    1.000
    N10      N        0.24330    0.61923    0.73317    1.000
    N11      N        0.42372    0.39386    0.83850    1.000
    N12      N        0.31163    0.29510    0.94044    1.000
    N13      N        0.44531    0.56543    0.32095    1.000
    N14      N        0.59570    0.38077    0.26683    1.000
    N15      N        0.65608    0.60614    0.16150    1.000
    N16      N        0.54717    0.70490    0.05956    1.000
    N17      N        0.26074    0.93457    0.82095    1.000
    N18      N        0.22647    0.11923    0.76683    1.000
    N19      N        0.51222    0.89386    0.66150    1.000
    N20      N        0.50207    0.79510    0.55956    1.000
    N21      N        0.01626    0.06543    0.17905    1.000
    N22      N        0.11253    0.88077    0.23317    1.000
    N23      N        0.06758    0.10614    0.33850    1.000
    N24      N        0.85673    0.20490    0.44044    1.000
    N25      N        0.44531    0.32095    0.56543    1.000
    N26      N        0.59570    0.26683    0.38077    1.000
    N27      N        0.65608    0.16150    0.60614    1.000
    N28      N        0.54717    0.05956    0.70490    1.000
    N29      N        0.33169    0.67905    0.43457    1.000
    N30      N        0.24330    0.73317    0.61923    1.000
    N31      N        0.42372    0.83850    0.39386    1.000
    N32      N        0.31163    0.94044    0.29510    1.000
    O1       O        0.84646    0.38470    0.07898    1.000
    O2       O        0.31014    0.61530    0.92102    1.000
    O3       O        0.17544    0.42102    0.88470    1.000
    O4       O        0.48116    0.57898    0.11530    1.000
    O5       O        0.31014    0.92102    0.61530    1.000
    O6       O        0.84646    0.07898    0.38470    1.000
    O7       O        0.48116    0.11530    0.57898    1.000
    O8       O        0.17544    0.88470    0.42102    1.000
    O9       O        0.20249    0.12891    0.12891    1.000
    O10      O        0.46031    0.87109    0.87109    1.000
    O11      O        0.58140    0.37109    0.62891    1.000
    O12      O        0.58140    0.62891    0.37109    1.000
    O13      O        0.30090    0.10890    0.89110    1.000
    O14      O        0.30090    0.89110    0.10890    1.000
    O15      O        0.44200    0.60890    0.60890    1.000
    O16      O        0.65980    0.39110    0.39110    1.000
    F1       F        0.17200    0.41166    0.27754    1.000
    F2       F        0.86120    0.58834    0.72246    1.000
    F3       F        0.69954    0.22246    0.91166    1.000
    F4       F        0.83366    0.77754    0.08834    1.000
    F5       F        0.86120    0.72246    0.58834    1.000
    F6       F        0.17200    0.27754    0.41166    1.000
    F7       F        0.83366    0.08834    0.77754    1.000
    F8       F        0.69954    0.91166    0.22246    1.000
    F9       F        0.71140    0.09520    0.09520    1.000
    F10      F        0.90180    0.90480    0.90480    1.000
    F11      F        0.05660    0.40480    0.59520    1.000
    F12      F        0.05660    0.59520    0.40480    1.000
    F13      F        0.92350    0.28602    0.71398    1.000
    F14      F        0.92350    0.71398    0.28602    1.000
    F15      F        0.88748    0.78602    0.78602    1.000
    F16      F        0.45952    0.21398    0.21398    1.000
