# CIF file generated by openbabel 3.1.0, see https://openbabel.org
data_I
_chemical_name_common 'image0'
_cell_length_a 8.8105
_cell_length_b 12.0084
_cell_length_c 12.3493
_cell_angle_alpha 63.518
_cell_angle_beta 89.233
_cell_angle_gamma 89.59
_space_group_name_H-M_alt 'P 1'
_space_group_name_Hall 'P 1'
loop_
    _symmetry_equiv_pos_as_xyz
    x,y,z
loop_
    _atom_site_label
    _atom_site_type_symbol
    _atom_site_fract_x
    _atom_site_fract_y
    _atom_site_fract_z
    _atom_site_occupancy
    U1       U        0.97951    0.55022    0.72784    1.000
    P1       P        0.82400    0.86529    0.57694    1.000
    O1       O        0.80450    0.72840    0.65450    1.000
    O2       O        0.90960    0.89970    0.45970    1.000
    O3       O        0.90310    0.92260    0.65310    1.000
    H1       H        0.96040    0.97850    0.60930    1.000
    C1       C        0.64060    0.93940    0.53660    1.000
    C2       C        0.63240    0.06920    0.47580    1.000
    H2       H        0.72070    0.11630    0.45940    1.000
    C3       C        0.50510    0.87270    0.55960    1.000
    H3       H        0.50840    0.78630    0.60020    1.000
    P2       P        0.82640    0.62712    0.41964    1.000
    O4       O        0.92310    0.59840    0.52790    1.000
    O5       O        0.79620    0.77230    0.35510    1.000
    H4       H        0.83560    0.80450    0.39400    1.000
    O6       O        0.88840    0.59220    0.32530    1.000
    C4       C        0.64240    0.55820    0.46370    1.000
    C5       C        0.57130    0.50760    0.39560    1.000
    H5       H        0.61880    0.51100    0.32650    1.000
    C6       C        0.57090    0.54810    0.56910    1.000
    H6       H        0.61880    0.57910    0.61660    1.000
    P3       P        0.82630    0.62700    0.97023    1.000
    O7       O        0.92820    0.59430    0.89100    1.000
    O8       O        0.88490    0.59830    0.09450    1.000
    O9       O        0.79670    0.77120    0.90040    1.000
    H7       H        0.83440    0.79840    0.83240    1.000
    C7       C        0.64260    0.55610    0.98840    1.000
    C8       C        0.54790    0.58760    0.88710    1.000
    H8       H        0.58030    0.64630    0.81110    1.000
    C9       C        0.59080    0.46760    0.09980    1.000
    H9       H        0.65180    0.44520    0.16720    1.000
    U2       U        0.02049    0.44978    0.27216    1.000
    P4       P        0.17600    0.13471    0.42306    1.000
    O10      O        0.19550    0.27160    0.34550    1.000
    O11      O        0.09040    0.10030    0.54030    1.000
    O12      O        0.09690    0.07740    0.34690    1.000
    H10      H        0.03960    0.02150    0.39070    1.000
    C10      C        0.35940    0.06060    0.46340    1.000
    C11      C        0.36760    0.93080    0.52420    1.000
    H11      H        0.27930    0.88370    0.54060    1.000
    C12      C        0.49490    0.12730    0.44040    1.000
    H12      H        0.49160    0.21370    0.39980    1.000
    P5       P        0.17360    0.37288    0.58036    1.000
    O13      O        0.07690    0.40160    0.47210    1.000
    O14      O        0.20380    0.22770    0.64490    1.000
    H13      H        0.16440    0.19550    0.60600    1.000
    O15      O        0.11160    0.40780    0.67470    1.000
    C13      C        0.35760    0.44180    0.53630    1.000
    C14      C        0.42870    0.49240    0.60440    1.000
    H14      H        0.38120    0.48900    0.67350    1.000
    C15      C        0.42910    0.45190    0.43090    1.000
    H15      H        0.38120    0.42090    0.38340    1.000
    P6       P        0.17370    0.37300    0.02977    1.000
    O16      O        0.07180    0.40570    0.10900    1.000
    O17      O        0.11510    0.40170    0.90550    1.000
    O18      O        0.20330    0.22880    0.09960    1.000
    H16      H        0.16560    0.20160    0.16760    1.000
    C16      C        0.35740    0.44390    0.01160    1.000
    C17      C        0.45210    0.41240    0.11290    1.000
    H17      H        0.41970    0.35370    0.18890    1.000
    C18      C        0.40920    0.53240    0.90020    1.000
    H18      H        0.34820    0.55480    0.83280    1.000
