# CIF file generated by openbabel 3.1.0, see https://openbabel.org
data_I
_chemical_name_common 'image0'
_cell_length_a 14.208
_cell_length_b 14.095
_cell_length_c 15.117
_cell_angle_alpha 90
_cell_angle_beta 105.31
_cell_angle_gamma 90
_space_group_name_H-M_alt 'P 1'
_space_group_name_Hall 'P 1'
loop_
    _symmetry_equiv_pos_as_xyz
    x,y,z
loop_
    _atom_site_label
    _atom_site_type_symbol
    _atom_site_fract_x
    _atom_site_fract_y
    _atom_site_fract_z
    _atom_site_occupancy
    Mn1      Mn       0.66975    0.85496    0.15956    1.000
    Mn2      Mn       0.75203    0.02415    0.01657    1.000
    O1       O        0.64110    0.92720    0.02710    1.000
    H1       H        0.64400    0.89400    0.98100    1.000
    O2       O        0.84090    0.00220    0.92290    1.000
    O3       O        0.72560    0.89760    0.86030    1.000
    O4       O        0.16270    0.63530    0.41200    1.000
    O5       O        0.01280    0.63390    0.43560    1.000
    O6       O        0.44920    0.57840    0.37540    1.000
    O7       O        0.33240    0.49170    0.27850    1.000
    C1       C        0.44020    0.76980    0.16320    1.000
    C2       C        0.34650    0.79070    0.10890    1.000
    C3       C        0.26560    0.73460    0.11060    1.000
    H2       H        0.20220    0.74820    0.07280    1.000
    C4       C        0.28240    0.65920    0.16950    1.000
    H3       H        0.23010    0.61750    0.17030    1.000
    C5       C        0.37640    0.64140    0.22980    1.000
    C6       C        0.45660    0.69560    0.22710    1.000
    H4       H        0.51950    0.68330    0.26640    1.000
    C7       C        0.38670    0.56360    0.30000    1.000
    C8       C        0.92260    0.82850    0.21860    1.000
    C9       C        0.99460    0.86430    0.17870    1.000
    C10      C        0.09240    0.83670    0.20970    1.000
    H5       H        0.14080    0.86120    0.18300    1.000
    C11      C        0.11530    0.77250    0.28060    1.000
    H6       H        0.18080    0.75140    0.30250    1.000
    C12      C        0.04370    0.73670    0.32210    1.000
    C13      C        0.94670    0.76390    0.29220    1.000
    H7       H        0.89880    0.74010    0.31990    1.000
    C14      C        0.07530    0.66300    0.39600    1.000
    C15      C        0.80200    0.93940    0.86270    1.000
    H8       H        0.83450    0.92430    0.81710    1.000
    N1       N        0.35370    0.86950    0.05810    1.000
    N2       N        0.44810    0.89180    0.07970    1.000
    N3       N        0.50340    0.83450    0.14150    1.000
    N4       N        0.83510    0.86740    0.17160    1.000
    N5       N        0.85480    0.92420    0.10870    1.000
    N6       N        0.94940    0.92390    0.11020    1.000
    Mn3      Mn       0.33025    0.35496    0.34044    1.000
    Mn4      Mn       0.24797    0.52415    0.48343    1.000
    O8       O        0.35890    0.42720    0.47290    1.000
    H9       H        0.35600    0.39400    0.51900    1.000
    O9       O        0.15910    0.50220    0.57710    1.000
    O10      O        0.27440    0.39760    0.63970    1.000
    O11      O        0.83730    0.13530    0.08800    1.000
    O12      O        0.98720    0.13390    0.06440    1.000
    O13      O        0.55080    0.07840    0.12460    1.000
    O14      O        0.66760    0.99170    0.22150    1.000
    C16      C        0.55980    0.26980    0.33680    1.000
    C17      C        0.65350    0.29070    0.39110    1.000
    C18      C        0.73440    0.23460    0.38940    1.000
    H10      H        0.79780    0.24820    0.42720    1.000
    C19      C        0.71760    0.15920    0.33050    1.000
    H11      H        0.76990    0.11750    0.32970    1.000
    C20      C        0.62360    0.14140    0.27020    1.000
    C21      C        0.54340    0.19560    0.27290    1.000
    H12      H        0.48050    0.18330    0.23360    1.000
    C22      C        0.61330    0.06360    0.20000    1.000
    C23      C        0.07740    0.32850    0.28140    1.000
    C24      C        0.00540    0.36430    0.32130    1.000
    C25      C        0.90760    0.33670    0.29030    1.000
    H13      H        0.85920    0.36120    0.31700    1.000
    C26      C        0.88470    0.27250    0.21940    1.000
    H14      H        0.81920    0.25140    0.19750    1.000
    C27      C        0.95630    0.23670    0.17790    1.000
    C28      C        0.05330    0.26390    0.20780    1.000
    H15      H        0.10120    0.24010    0.18010    1.000
    C29      C        0.92470    0.16300    0.10400    1.000
    C30      C        0.19800    0.43940    0.63730    1.000
    H16      H        0.16550    0.42430    0.68290    1.000
    N7       N        0.64630    0.36950    0.44190    1.000
    N8       N        0.55190    0.39180    0.42030    1.000
    N9       N        0.49660    0.33450    0.35850    1.000
    N10      N        0.16490    0.36740    0.32840    1.000
    N11      N        0.14520    0.42420    0.39130    1.000
    N12      N        0.05060    0.42390    0.38980    1.000
    Mn5      Mn       0.33025    0.14504    0.84044    1.000
    Mn6      Mn       0.24797    0.97585    0.98343    1.000
    O15      O        0.35890    0.07280    0.97290    1.000
    H17      H        0.35600    0.10600    0.01900    1.000
    O16      O        0.15910    0.99780    0.07710    1.000
    O17      O        0.27440    0.10240    0.13970    1.000
    O18      O        0.83730    0.36470    0.58800    1.000
    O19      O        0.98720    0.36610    0.56440    1.000
    O20      O        0.55080    0.42160    0.62460    1.000
    O21      O        0.66760    0.50830    0.72150    1.000
    C31      C        0.55980    0.23020    0.83680    1.000
    C32      C        0.65350    0.20930    0.89110    1.000
    C33      C        0.73440    0.26540    0.88940    1.000
    H18      H        0.79780    0.25180    0.92720    1.000
    C34      C        0.71760    0.34080    0.83050    1.000
    H19      H        0.76990    0.38250    0.82970    1.000
    C35      C        0.62360    0.35860    0.77020    1.000
    C36      C        0.54340    0.30440    0.77290    1.000
    H20      H        0.48050    0.31670    0.73360    1.000
    C37      C        0.61330    0.43640    0.70000    1.000
    C38      C        0.07740    0.17150    0.78140    1.000
    C39      C        0.00540    0.13570    0.82130    1.000
    C40      C        0.90760    0.16330    0.79030    1.000
    H21      H        0.85920    0.13880    0.81700    1.000
    C41      C        0.88470    0.22750    0.71940    1.000
    H22      H        0.81920    0.24860    0.69750    1.000
    C42      C        0.95630    0.26330    0.67790    1.000
    C43      C        0.05330    0.23610    0.70780    1.000
    H23      H        0.10120    0.25990    0.68010    1.000
    C44      C        0.92470    0.33700    0.60400    1.000
    C45      C        0.19800    0.06060    0.13730    1.000
    H24      H        0.16550    0.07570    0.18290    1.000
    N13      N        0.64630    0.13050    0.94190    1.000
    N14      N        0.55190    0.10820    0.92030    1.000
    N15      N        0.49660    0.16550    0.85850    1.000
    N16      N        0.16490    0.13260    0.82840    1.000
    N17      N        0.14520    0.07580    0.89130    1.000
    N18      N        0.05060    0.07610    0.88980    1.000
    Mn7      Mn       0.66975    0.64504    0.65956    1.000
    Mn8      Mn       0.75203    0.47585    0.51657    1.000
    O22      O        0.64110    0.57280    0.52710    1.000
    H25      H        0.64400    0.60600    0.48100    1.000
    O23      O        0.84090    0.49780    0.42290    1.000
    O24      O        0.72560    0.60240    0.36030    1.000
    O25      O        0.16270    0.86470    0.91200    1.000
    O26      O        0.01280    0.86610    0.93560    1.000
    O27      O        0.44920    0.92160    0.87540    1.000
    O28      O        0.33240    0.00830    0.77850    1.000
    C46      C        0.44020    0.73020    0.66320    1.000
    C47      C        0.34650    0.70930    0.60890    1.000
    C48      C        0.26560    0.76540    0.61060    1.000
    H26      H        0.20220    0.75180    0.57280    1.000
    C49      C        0.28240    0.84080    0.66950    1.000
    H27      H        0.23010    0.88250    0.67030    1.000
    C50      C        0.37640    0.85860    0.72980    1.000
    C51      C        0.45660    0.80440    0.72710    1.000
    H28      H        0.51950    0.81670    0.76640    1.000
    C52      C        0.38670    0.93640    0.80000    1.000
    C53      C        0.92260    0.67150    0.71860    1.000
    C54      C        0.99460    0.63570    0.67870    1.000
    C55      C        0.09240    0.66330    0.70970    1.000
    H29      H        0.14080    0.63880    0.68300    1.000
    C56      C        0.11530    0.72750    0.78060    1.000
    H30      H        0.18080    0.74860    0.80250    1.000
    C57      C        0.04370    0.76330    0.82210    1.000
    C58      C        0.94670    0.73610    0.79220    1.000
    H31      H        0.89880    0.75990    0.81990    1.000
    C59      C        0.07530    0.83700    0.89600    1.000
    C60      C        0.80200    0.56060    0.36270    1.000
    H32      H        0.83450    0.57570    0.31710    1.000
    N19      N        0.35370    0.63050    0.55810    1.000
    N20      N        0.44810    0.60820    0.57970    1.000
    N21      N        0.50340    0.66550    0.64150    1.000
    N22      N        0.83510    0.63260    0.67160    1.000
    N23      N        0.85480    0.57580    0.60870    1.000
    N24      N        0.94940    0.57610    0.61020    1.000
    Mn9      Mn       0.50000    0.00000    0.00000    1.000
    Mn10     Mn       0.50000    0.50000    0.50000    1.000
    Mn11     Mn       0.00000    0.00000    0.00000    1.000
    Mn12     Mn       0.00000    0.50000    0.50000    1.000
