# CIF file generated by openbabel 3.1.0, see https://openbabel.org
data_I
_chemical_name_common 'image0'
_cell_length_a 9.574
_cell_length_b 14
_cell_length_c 17.435
_cell_angle_alpha 90
_cell_angle_beta 90
_cell_angle_gamma 90
_space_group_name_H-M_alt 'P 1'
_space_group_name_Hall 'P 1'
loop_
    _symmetry_equiv_pos_as_xyz
    x,y,z
loop_
    _atom_site_label
    _atom_site_type_symbol
    _atom_site_fract_x
    _atom_site_fract_y
    _atom_site_fract_z
    _atom_site_occupancy
    Ga1      Ga       0.22463    0.29395    0.69846    1.000
    Ga2      Ga       0.45118    0.50175    0.45624    1.000
    Ga3      Ga       0.24554    0.20719    0.47185    1.000
    Ga4      Ga       0.46107    0.51150    0.92710    1.000
    P1       P        0.25470    0.34939    0.87405    1.000
    P2       P        0.22190    0.42018    0.55107    1.000
    P3       P        0.48320    0.21287    0.61963    1.000
    P4       P        0.76340    0.52288    0.51133    1.000
    P5       P        0.00220    0.18191    0.60985    1.000
    O1       O        0.19030    0.33900    0.79420    1.000
    O2       O        0.40120    0.24630    0.69270    1.000
    O3       O        0.08960    0.20400    0.68300    1.000
    O4       O        0.19610    0.39700    0.63590    1.000
    O5       O        0.36700    0.46730    0.54660    1.000
    O6       O        0.13740    0.38730    0.92600    1.000
    O7       O        0.61840    0.55300    0.48300    1.000
    O8       O        0.93370    0.08190    0.62430    1.000
    O9       O        0.20890    0.33850    0.49760    1.000
    O10      O        0.60290    0.28250    0.60940    1.000
    O11      O        0.38600    0.20270    0.55270    1.000
    O12      O        0.76900    0.42970    0.55410    1.000
    O13      O        0.89250    0.25940    0.60210    1.000
    O14      O        0.09500    0.16550    0.54100    1.000
    O15      O        0.37490    0.42100    0.86790    1.000
    O16      O        0.11130    0.49310    0.52440    1.000
    O17      O        0.54110    0.11220    0.63880    1.000
    O18      O        0.85700    0.52450    0.43990    1.000
    O19      O        0.30780    0.25640    0.90480    1.000
    O20      O        0.81210    0.59970    0.56850    1.000
    Ga5      Ga       0.27537    0.70605    0.19846    1.000
    Ga6      Ga       0.04882    0.49825    0.95624    1.000
    Ga7      Ga       0.25446    0.79281    0.97185    1.000
    Ga8      Ga       0.03893    0.48850    0.42710    1.000
    P6       P        0.24530    0.65061    0.37405    1.000
    P7       P        0.27810    0.57982    0.05107    1.000
    P8       P        0.01680    0.78713    0.11963    1.000
    P9       P        0.73660    0.47712    0.01133    1.000
    P10      P        0.49780    0.81809    0.10985    1.000
    O21      O        0.30970    0.66100    0.29420    1.000
    O22      O        0.09880    0.75370    0.19270    1.000
    O23      O        0.41040    0.79600    0.18300    1.000
    O24      O        0.30390    0.60300    0.13590    1.000
    O25      O        0.13300    0.53270    0.04660    1.000
    O26      O        0.36260    0.61270    0.42600    1.000
    O27      O        0.88160    0.44700    0.98300    1.000
    O28      O        0.56630    0.91810    0.12430    1.000
    O29      O        0.29110    0.66150    0.99760    1.000
    O30      O        0.89710    0.71750    0.10940    1.000
    O31      O        0.11400    0.79730    0.05270    1.000
    O32      O        0.73100    0.57030    0.05410    1.000
    O33      O        0.60750    0.74060    0.10210    1.000
    O34      O        0.40500    0.83450    0.04100    1.000
    O35      O        0.12510    0.57900    0.36790    1.000
    O36      O        0.38870    0.50690    0.02440    1.000
    O37      O        0.95890    0.88780    0.13880    1.000
    O38      O        0.64300    0.47550    0.93990    1.000
    O39      O        0.19220    0.74360    0.40480    1.000
    O40      O        0.68790    0.40030    0.06850    1.000
    Ga9      Ga       0.77537    0.79395    0.80154    1.000
    Ga10     Ga       0.54882    0.00175    0.04376    1.000
    Ga11     Ga       0.75446    0.70719    0.02815    1.000
    Ga12     Ga       0.53893    0.01150    0.57290    1.000
    P11      P        0.74530    0.84939    0.62595    1.000
    P12      P        0.77810    0.92018    0.94893    1.000
    P13      P        0.51680    0.71287    0.88037    1.000
    P14      P        0.23660    0.02288    0.98867    1.000
    P15      P        0.99780    0.68191    0.89015    1.000
    O41      O        0.80970    0.83900    0.70580    1.000
    O42      O        0.59880    0.74630    0.80730    1.000
    O43      O        0.91040    0.70400    0.81700    1.000
    O44      O        0.80390    0.89700    0.86410    1.000
    O45      O        0.63300    0.96730    0.95340    1.000
    O46      O        0.86260    0.88730    0.57400    1.000
    O47      O        0.38160    0.05300    0.01700    1.000
    O48      O        0.06630    0.58190    0.87570    1.000
    O49      O        0.79110    0.83850    0.00240    1.000
    O50      O        0.39710    0.78250    0.89060    1.000
    O51      O        0.61400    0.70270    0.94730    1.000
    O52      O        0.23100    0.92970    0.94590    1.000
    O53      O        0.10750    0.75940    0.89790    1.000
    O54      O        0.90500    0.66550    0.95900    1.000
    O55      O        0.62510    0.92100    0.63210    1.000
    O56      O        0.88870    0.99310    0.97560    1.000
    O57      O        0.45890    0.61220    0.86120    1.000
    O58      O        0.14300    0.02450    0.06010    1.000
    O59      O        0.69220    0.75640    0.59520    1.000
    O60      O        0.18790    0.09970    0.93150    1.000
    Ga13     Ga       0.72463    0.20605    0.30154    1.000
    Ga14     Ga       0.95118    0.99825    0.54376    1.000
    Ga15     Ga       0.74554    0.29281    0.52815    1.000
    Ga16     Ga       0.96107    0.98850    0.07290    1.000
    P16      P        0.75470    0.15061    0.12595    1.000
    P17      P        0.72190    0.07982    0.44893    1.000
    P18      P        0.98320    0.28713    0.38037    1.000
    P19      P        0.26340    0.97712    0.48867    1.000
    P20      P        0.50220    0.31809    0.39015    1.000
    O61      O        0.69030    0.16100    0.20580    1.000
    O62      O        0.90120    0.25370    0.30730    1.000
    O63      O        0.58960    0.29600    0.31700    1.000
    O64      O        0.69610    0.10300    0.36410    1.000
    O65      O        0.86700    0.03270    0.45340    1.000
    O66      O        0.63740    0.11270    0.07400    1.000
    O67      O        0.11840    0.94700    0.51700    1.000
    O68      O        0.43370    0.41810    0.37570    1.000
    O69      O        0.70890    0.16150    0.50240    1.000
    O70      O        0.10290    0.21750    0.39060    1.000
    O71      O        0.88600    0.29730    0.44730    1.000
    O72      O        0.26900    0.07030    0.44590    1.000
    O73      O        0.39250    0.24060    0.39790    1.000
    O74      O        0.59500    0.33450    0.45900    1.000
    O75      O        0.87490    0.07900    0.13210    1.000
    O76      O        0.61130    0.00690    0.47560    1.000
    O77      O        0.04110    0.38780    0.36120    1.000
    O78      O        0.35700    0.97550    0.56010    1.000
    O79      O        0.80780    0.24360    0.09520    1.000
    O80      O        0.31210    0.90030    0.43150    1.000
