data_functionalizedCrystal
_audit_creation_method	'EQeq! by Chris Wilmer'
_symmetry_space_group_name_H-M	'P1'
_symmetry_Int_Tables_number	1
_symmetry_cell_setting	triclinic
loop_
_symmetry_equiv_pos_as_xyz
  x,y,z
_cell_length_a	11.801
_cell_length_b	12.973
_cell_length_c	15.856
_cell_angle_alpha	98.15
_cell_angle_beta	108.39
_cell_angle_gamma	100.91
loop_
_atom_site_label
_atom_site_type_symbol
_atom_site_fract_x
_atom_site_fract_y
_atom_site_fract_z
_atom_site_charge
Mof_Bi	Bi	0.36085	0.45993	0.30491	0.859
Mof_Bi	Bi	0.94316	0.68732	0.93084	0.888
Mof_K 	K 	0.7264	0.3557	0.916	2.889
Mof_K 	K 	0.0586	0.8511	0.1852	2.282
Mof_K 	K 	0.8104	0.8372	0.671	2.496
Mof_K 	K 	0.4226	0.7008	0.5498	2.399
Mof_K 	K 	0.4334	0.3731	0.0357	2.47
Mof_C 	C 	0.2895	0.4363	0.4633	0.48
Mof_C 	C 	0.2567	0.404	0.5417	-0.523
Mof_C 	C 	0.3729	0.4178	0.6243	0.261
Mof_C 	C 	0.3366	0.4001	0.7068	-0.494
Mof_C 	C 	0.4416	0.4161	0.7963	0.516
Mof_C 	C 	0.4387	0.3315	0.6038	0.237
Mof_O 	O 	0.3522	0.3863	0.4314	-0.743
Mof_O 	O 	0.2519	0.5112	0.4313	-0.632
Mof_O 	O 	0.4458	0.5236	0.6409	-0.575
Mof_O 	O 	0.5502	0.4453	0.7991	-0.807
Mof_O 	O 	0.4155	0.3995	0.8631	-0.941
Mof_O 	O 	0.3836	0.2363	0.5843	-0.574
Mof_O 	O 	0.5525	0.3622	0.6136	-0.656
Mof_C 	C 	0.8758	0.5869	0.0719	0.47
Mof_C 	C 	0.8816	0.5459	0.1588	-0.464
Mof_C 	C 	0.9642	0.4662	0.1751	0.257
Mof_C 	C 	0.9574	0.4199	0.2558	-0.446
Mof_C 	C 	0.0301	0.3369	0.2793	0.466
Mof_C 	C 	0.0989	0.5286	0.1955	0.271
Mof_O 	O 	0.9796	0.6329	0.0677	-0.706
Mof_O 	O 	0.7765	0.5728	0.0104	-0.941
Mof_O 	O 	0.9207	0.3839	0.0958	-0.531
Mof_O 	O 	0.1044	0.3202	0.2393	-0.608
Mof_O 	O 	0.0214	0.292	0.3425	-0.628
Mof_O 	O 	0.1473	0.6079	0.2575	-0.565
Mof_O 	O 	0.1545	0.4909	0.1456	-0.682
Mof_C 	C 	0.3579	0.2464	0.2011	0.466
Mof_C 	C 	0.3724	0.1385	0.1625	-0.492
Mof_C 	C 	0.2524	0.0664	0.0896	0.241
Mof_C 	C 	0.2787	0.9571	0.0589	-0.47
Mof_C 	C 	0.1628	0.8724	0.0029	0.458
Mof_C 	C 	0.2113	0.1195	0.0044	0.277
Mof_O 	O 	0.3882	0.2747	0.2857	-0.88
Mof_O 	O 	0.3174	0.3062	0.1476	-0.682
Mof_O 	O 	0.1596	0.054	0.1276	-0.54
Mof_O 	O 	0.1004	0.8762	0.9252	-0.365
Mof_O 	O 	0.1315	0.7959	0.0396	-0.871
Mof_O 	O 	0.289	0.1429	0.9679	-0.531
Mof_O 	O 	0.1044	0.1304	0.9806	-0.513
Mof_O 	O 	0.0405	0.9714	0.7748	-0.704
Mof_O 	O 	0.413	0.757	0.993	-0.594
Mof_O 	O 	0.279	0.969	0.341	-0.89
Mof_O 	O 	0.33	0.712	0.929	-0.365
Mof_H 	H 	0.2068	0.4474	0.5573	0.092
Mof_H 	H 	0.2123	0.3306	0.524	0.05
Mof_H 	H 	0.2872	0.4478	0.7151	0.082
Mof_H 	H 	0.2879	0.3285	0.6932	0.075
Mof_H 	H 	0.8007	0.5092	0.1526	0.035
Mof_H 	H 	0.9117	0.6054	0.2092	0.015
Mof_H 	H 	0.8733	0.3871	0.2441	0.1
Mof_H 	H 	0.9854	0.4776	0.3075	0.107
Mof_H 	H 	0.4336	0.1505	0.1354	0.059
Mof_H 	H 	0.399	0.1023	0.2104	0.001
Mof_H 	H 	0.3299	0.9666	0.0234	0.118
Mof_H 	H 	0.3202	0.9333	0.1114	0.001
Mof_Bi	Bi	0.63915	0.54007	0.69509	0.858
Mof_Bi	Bi	0.05684	0.31268	0.06916	0.887
Mof_K 	K 	0.2736	0.6443	0.084	2.888
Mof_K 	K 	0.9414	0.1489	0.8148	2.281
Mof_K 	K 	0.1896	0.1628	0.329	2.495
Mof_K 	K 	0.5774	0.2992	0.4502	2.398
Mof_K 	K 	0.5666	0.6269	0.9643	2.469
Mof_C 	C 	0.7105	0.5637	0.5367	0.479
Mof_C 	C 	0.7433	0.596	0.4583	-0.524
Mof_C 	C 	0.6271	0.5822	0.3757	0.26
Mof_C 	C 	0.6634	0.5999	0.2932	-0.494
Mof_C 	C 	0.5584	0.5839	0.2037	0.516
Mof_C 	C 	0.5613	0.6685	0.3962	0.237
Mof_O 	O 	0.6478	0.6137	0.5686	-0.743
Mof_O 	O 	0.7481	0.4888	0.5687	-0.632
Mof_O 	O 	0.5542	0.4764	0.3591	-0.575
Mof_O 	O 	0.4498	0.5547	0.2009	-0.807
Mof_O 	O 	0.5845	0.6005	0.1369	-0.941
Mof_O 	O 	0.6164	0.7637	0.4157	-0.574
Mof_O 	O 	0.4475	0.6378	0.3864	-0.656
Mof_C 	C 	0.1242	0.4131	0.9281	0.47
Mof_C 	C 	0.1184	0.4541	0.8412	-0.464
Mof_C 	C 	0.0358	0.5338	0.8249	0.257
Mof_C 	C 	0.0426	0.5801	0.7442	-0.446
Mof_C 	C 	0.9699	0.6631	0.7207	0.466
Mof_C 	C 	0.9011	0.4714	0.8045	0.271
Mof_O 	O 	0.0204	0.3671	0.9323	-0.706
Mof_O 	O 	0.2235	0.4272	0.9896	-0.941
Mof_O 	O 	0.0793	0.6161	0.9042	-0.531
Mof_O 	O 	0.8956	0.6798	0.7607	-0.608
Mof_O 	O 	0.9786	0.708	0.6575	-0.628
Mof_O 	O 	0.8527	0.3921	0.7425	-0.565
Mof_O 	O 	0.8455	0.5091	0.8544	-0.682
Mof_C 	C 	0.6421	0.7536	0.7989	0.466
Mof_C 	C 	0.6276	0.8615	0.8375	-0.492
Mof_C 	C 	0.7476	0.9336	0.9104	0.241
Mof_C 	C 	0.7213	0.0429	0.9411	-0.47
Mof_C 	C 	0.8372	0.1276	0.9971	0.458
Mof_C 	C 	0.7887	0.8805	0.9956	0.277
Mof_O 	O 	0.6118	0.7253	0.7143	-0.88
Mof_O 	O 	0.6826	0.6938	0.8524	-0.682
Mof_O 	O 	0.8404	0.946	0.8724	-0.54
Mof_O 	O 	0.8996	0.1238	0.0748	-0.365
Mof_O 	O 	0.8685	0.2041	0.9604	-0.871
Mof_O 	O 	0.711	0.8571	0.0321	-0.531
Mof_O 	O 	0.8956	0.8696	0.0194	-0.513
Mof_O 	O 	0.9595	0.0286	0.2252	-0.704
Mof_O 	O 	0.587	0.243	0.007	-0.594
Mof_O 	O 	0.721	0.031	0.659	-0.89
Mof_O 	O 	0.67	0.288	0.071	-0.365
Mof_H 	H 	0.7932	0.5526	0.4427	0.092
Mof_H 	H 	0.7877	0.6694	0.476	0.05
Mof_H 	H 	0.7128	0.5522	0.2849	0.082
Mof_H 	H 	0.7121	0.6715	0.3068	0.075
Mof_H 	H 	0.1993	0.4908	0.8474	0.035
Mof_H 	H 	0.0883	0.3946	0.7908	0.015
Mof_H 	H 	0.1267	0.6129	0.7559	0.1
Mof_H 	H 	0.0146	0.5224	0.6925	0.107
Mof_H 	H 	0.5664	0.8495	0.8646	0.059
Mof_H 	H 	0.601	0.8977	0.7896	0.001
Mof_H 	H 	0.6701	0.0334	0.9766	0.118
Mof_H 	H 	0.6798	0.0667	0.8886	0.001
_end
