# CIF file generated by openbabel 3.1.0, see https://openbabel.org
data_I
_chemical_name_common 'image0'
_cell_length_a 5.7782
_cell_length_b 20.4081
_cell_length_c 16.1009
_cell_angle_alpha 90
_cell_angle_beta 94.674
_cell_angle_gamma 90
_space_group_name_H-M_alt 'P 1'
_space_group_name_Hall 'P 1'
loop_
    _symmetry_equiv_pos_as_xyz
    x,y,z
loop_
    _atom_site_label
    _atom_site_type_symbol
    _atom_site_fract_x
    _atom_site_fract_y
    _atom_site_fract_z
    _atom_site_occupancy
    Ag1      Ag       0.28821    0.53080    0.54090    1.000
    Ag2      Ag       0.80857    0.57300    0.60284    1.000
    N1       N        0.43890    0.47851    0.64293    1.000
    N2       N        0.65520    0.49979    0.67474    1.000
    N3       N        0.50200    0.28798    0.96570    1.000
    N4       N        0.91680    0.62532    0.49828    1.000
    N5       N        0.12420    0.60577    0.46946    1.000
    N6       N        0.91100    0.84535    0.21202    1.000
    C1       C        0.71180    0.46573    0.74470    1.000
    H1       H        0.85320    0.47050    0.77860    1.000
    C2       C        0.53350    0.42220    0.76080    1.000
    C3       C        0.36560    0.43290    0.69450    1.000
    H2       H        0.22030    0.41100    0.68720    1.000
    C4       C        0.69140    0.32490    0.95610    1.000
    H3       H        0.82070    0.32060    0.99610    1.000
    C5       C        0.70820    0.36870    0.89120    1.000
    H4       H        0.84580    0.39370    0.88810    1.000
    C6       C        0.52400    0.37611    0.83040    1.000
    C7       C        0.32790    0.33790    0.83970    1.000
    H5       H        0.19640    0.34120    0.80040    1.000
    C8       C        0.32580    0.29520    0.90630    1.000
    H6       H        0.19090    0.26920    0.91050    1.000
    C9       C        0.17240    0.64750    0.40940    1.000
    H7       H        0.30700    0.64550    0.37930    1.000
    C10      C        0.99860    0.69427    0.39700    1.000
    C11      C        0.83930    0.67786    0.45550    1.000
    H8       H        0.69920    0.70060    0.46320    1.000
    C12      C        0.09660    0.80530    0.21640    1.000
    H9       H        0.20750    0.81080    0.17650    1.000
    C13      C        0.13470    0.75700    0.27530    1.000
    H10      H        0.26900    0.73010    0.27540    1.000
    C14      C        0.97440    0.74725    0.33570    1.000
    C15      C        0.78470    0.79020    0.33150    1.000
    H11      H        0.67190    0.78670    0.37110    1.000
    C16      C        0.76080    0.83740    0.27050    1.000
    H12      H        0.63070    0.86590    0.26970    1.000
    Ag3      Ag       0.71179    0.03080    0.95910    1.000
    Ag4      Ag       0.19143    0.07300    0.89716    1.000
    N7       N        0.56110    0.97851    0.85707    1.000
    N8       N        0.34480    0.99979    0.82526    1.000
    N9       N        0.49800    0.78798    0.53430    1.000
    N10      N        0.08320    0.12532    0.00172    1.000
    N11      N        0.87580    0.10577    0.03054    1.000
    N12      N        0.08900    0.34535    0.28798    1.000
    C17      C        0.28820    0.96573    0.75530    1.000
    H13      H        0.14680    0.97050    0.72140    1.000
    C18      C        0.46650    0.92220    0.73920    1.000
    C19      C        0.63440    0.93290    0.80550    1.000
    H14      H        0.77970    0.91100    0.81280    1.000
    C20      C        0.30860    0.82490    0.54390    1.000
    H15      H        0.17930    0.82060    0.50390    1.000
    C21      C        0.29180    0.86870    0.60880    1.000
    H16      H        0.15420    0.89370    0.61190    1.000
    C22      C        0.47600    0.87611    0.66960    1.000
    C23      C        0.67210    0.83790    0.66030    1.000
    H17      H        0.80360    0.84120    0.69960    1.000
    C24      C        0.67420    0.79520    0.59370    1.000
    H18      H        0.80910    0.76920    0.58950    1.000
    C25      C        0.82760    0.14750    0.09060    1.000
    H19      H        0.69300    0.14550    0.12070    1.000
    C26      C        0.00140    0.19427    0.10300    1.000
    C27      C        0.16070    0.17786    0.04450    1.000
    H20      H        0.30080    0.20060    0.03680    1.000
    C28      C        0.90340    0.30530    0.28360    1.000
    H21      H        0.79250    0.31080    0.32350    1.000
    C29      C        0.86530    0.25700    0.22470    1.000
    H22      H        0.73100    0.23010    0.22460    1.000
    C30      C        0.02560    0.24725    0.16430    1.000
    C31      C        0.21530    0.29020    0.16850    1.000
    H23      H        0.32810    0.28670    0.12890    1.000
    C32      C        0.23920    0.33740    0.22950    1.000
    H24      H        0.36930    0.36590    0.23030    1.000
    Ag5      Ag       0.71179    0.46920    0.45910    1.000
    Ag6      Ag       0.19143    0.42700    0.39716    1.000
    N13      N        0.56110    0.52149    0.35707    1.000
    N14      N        0.34480    0.50021    0.32526    1.000
    N15      N        0.49800    0.71202    0.03430    1.000
    N16      N        0.08320    0.37468    0.50172    1.000
    N17      N        0.87580    0.39423    0.53054    1.000
    N18      N        0.08900    0.15465    0.78798    1.000
    C33      C        0.28820    0.53427    0.25530    1.000
    H25      H        0.14680    0.52950    0.22140    1.000
    C34      C        0.46650    0.57780    0.23920    1.000
    C35      C        0.63440    0.56710    0.30550    1.000
    H26      H        0.77970    0.58900    0.31280    1.000
    C36      C        0.30860    0.67510    0.04390    1.000
    H27      H        0.17930    0.67940    0.00390    1.000
    C37      C        0.29180    0.63130    0.10880    1.000
    H28      H        0.15420    0.60630    0.11190    1.000
    C38      C        0.47600    0.62389    0.16960    1.000
    C39      C        0.67210    0.66210    0.16030    1.000
    H29      H        0.80360    0.65880    0.19960    1.000
    C40      C        0.67420    0.70480    0.09370    1.000
    H30      H        0.80910    0.73080    0.08950    1.000
    C41      C        0.82760    0.35250    0.59060    1.000
    H31      H        0.69300    0.35450    0.62070    1.000
    C42      C        0.00140    0.30573    0.60300    1.000
    C43      C        0.16070    0.32214    0.54450    1.000
    H32      H        0.30080    0.29940    0.53680    1.000
    C44      C        0.90340    0.19470    0.78360    1.000
    H33      H        0.79250    0.18920    0.82350    1.000
    C45      C        0.86530    0.24300    0.72470    1.000
    H34      H        0.73100    0.26990    0.72460    1.000
    C46      C        0.02560    0.25275    0.66430    1.000
    C47      C        0.21530    0.20980    0.66850    1.000
    H35      H        0.32810    0.21330    0.62890    1.000
    C48      C        0.23920    0.16260    0.72950    1.000
    H36      H        0.36930    0.13410    0.73030    1.000
    Ag7      Ag       0.28821    0.96920    0.04090    1.000
    Ag8      Ag       0.80857    0.92700    0.10284    1.000
    N19      N        0.43890    0.02149    0.14293    1.000
    N20      N        0.65520    0.00021    0.17474    1.000
    N21      N        0.50200    0.21202    0.46570    1.000
    N22      N        0.91680    0.87468    0.99828    1.000
    N23      N        0.12420    0.89423    0.96946    1.000
    N24      N        0.91100    0.65465    0.71202    1.000
    C49      C        0.71180    0.03427    0.24470    1.000
    H37      H        0.85320    0.02950    0.27860    1.000
    C50      C        0.53350    0.07780    0.26080    1.000
    C51      C        0.36560    0.06710    0.19450    1.000
    H38      H        0.22030    0.08900    0.18720    1.000
    C52      C        0.69140    0.17510    0.45610    1.000
    H39      H        0.82070    0.17940    0.49610    1.000
    C53      C        0.70820    0.13130    0.39120    1.000
    H40      H        0.84580    0.10630    0.38810    1.000
    C54      C        0.52400    0.12389    0.33040    1.000
    C55      C        0.32790    0.16210    0.33970    1.000
    H41      H        0.19640    0.15880    0.30040    1.000
    C56      C        0.32580    0.20480    0.40630    1.000
    H42      H        0.19090    0.23080    0.41050    1.000
    C57      C        0.17240    0.85250    0.90940    1.000
    H43      H        0.30700    0.85450    0.87930    1.000
    C58      C        0.99860    0.80573    0.89700    1.000
    C59      C        0.83930    0.82214    0.95550    1.000
    H44      H        0.69920    0.79940    0.96320    1.000
    C60      C        0.09660    0.69470    0.71640    1.000
    H45      H        0.20750    0.68920    0.67650    1.000
    C61      C        0.13470    0.74300    0.77530    1.000
    H46      H        0.26900    0.76990    0.77540    1.000
    C62      C        0.97440    0.75275    0.83570    1.000
    C63      C        0.78470    0.70980    0.83150    1.000
    H47      H        0.67190    0.71330    0.87110    1.000
    C64      C        0.76080    0.66260    0.77050    1.000
    H48      H        0.63070    0.63410    0.76970    1.000
