# CIF file generated by openbabel 3.1.0, see https://openbabel.org
data_I
_chemical_name_common 'image0'
_cell_length_a 13.512
_cell_length_b 16.194
_cell_length_c 4.677
_cell_angle_alpha 90
_cell_angle_beta 90
_cell_angle_gamma 90
_space_group_name_H-M_alt 'P 1'
_space_group_name_Hall 'P 1'
loop_
    _symmetry_equiv_pos_as_xyz
    x,y,z
loop_
    _atom_site_label
    _atom_site_type_symbol
    _atom_site_fract_x
    _atom_site_fract_y
    _atom_site_fract_z
    _atom_site_occupancy
    V1       V        0.51110    0.48510    0.97840    1.000
    P1       P        0.63620    0.58030    0.49300    1.000
    O1       O        0.55350    0.57900    0.71600    1.000
    O2       O        0.61750    0.51930    0.25180    1.000
    O3       O        0.64680    0.66920    0.38530    1.000
    O4       O        0.42980    0.59220    0.17510    1.000
    V2       V        0.98890    0.01490    0.97840    1.000
    P2       P        0.86380    0.91970    0.49300    1.000
    O5       O        0.94650    0.92100    0.71600    1.000
    O6       O        0.88250    0.98070    0.25180    1.000
    O7       O        0.85320    0.83080    0.38530    1.000
    O8       O        0.07020    0.90780    0.17510    1.000
    V3       V        0.48890    0.98510    0.02160    1.000
    P3       P        0.36380    0.08030    0.50700    1.000
    O9       O        0.44650    0.07900    0.28400    1.000
    O10      O        0.38250    0.01930    0.74820    1.000
    O11      O        0.35320    0.16920    0.61470    1.000
    O12      O        0.57020    0.09220    0.82490    1.000
    V4       V        0.01110    0.51490    0.02160    1.000
    P4       P        0.13620    0.41970    0.50700    1.000
    O13      O        0.05350    0.42100    0.28400    1.000
    O14      O        0.11750    0.48070    0.74820    1.000
    O15      O        0.14680    0.33080    0.61470    1.000
    O16      O        0.92980    0.40780    0.82490    1.000
    V5       V        0.48890    0.51490    0.02160    1.000
    P5       P        0.36380    0.41970    0.50700    1.000
    O17      O        0.44650    0.42100    0.28400    1.000
    O18      O        0.38250    0.48070    0.74820    1.000
    O19      O        0.35320    0.33080    0.61470    1.000
    O20      O        0.57020    0.40780    0.82490    1.000
    V6       V        0.01110    0.98510    0.02160    1.000
    P6       P        0.13620    0.08030    0.50700    1.000
    O21      O        0.05350    0.07900    0.28400    1.000
    O22      O        0.11750    0.01930    0.74820    1.000
    O23      O        0.14680    0.16920    0.61470    1.000
    O24      O        0.92980    0.09220    0.82490    1.000
    V7       V        0.51110    0.01490    0.97840    1.000
    P7       P        0.63620    0.91970    0.49300    1.000
    O25      O        0.55350    0.92100    0.71600    1.000
    O26      O        0.61750    0.98070    0.25180    1.000
    O27      O        0.64680    0.83080    0.38530    1.000
    O28      O        0.42980    0.90780    0.17510    1.000
    V8       V        0.98890    0.48510    0.97840    1.000
    P8       P        0.86380    0.58030    0.49300    1.000
    O29      O        0.94650    0.57900    0.71600    1.000
    O30      O        0.88250    0.51930    0.25180    1.000
    O31      O        0.85320    0.66920    0.38530    1.000
    O32      O        0.07020    0.59220    0.17510    1.000
    V9       V        0.75000    0.75000    0.28530    1.000
    V10      V        0.25000    0.25000    0.71470    1.000
    C1       C        0.75000    0.55200    0.66740    1.000
    H1       H        0.75000    0.49260    0.69300    1.000
    H2       H        0.75000    0.57670    0.85630    1.000
    C2       C        0.75000    0.94800    0.66740    1.000
    H3       H        0.75000    0.00740    0.69300    1.000
    H4       H        0.75000    0.92330    0.85630    1.000
    C3       C        0.25000    0.05200    0.33260    1.000
    H5       H        0.25000    0.99260    0.30700    1.000
    H6       H        0.25000    0.07670    0.14370    1.000
    C4       C        0.25000    0.44800    0.33260    1.000
    H7       H        0.25000    0.50740    0.30700    1.000
    H8       H        0.25000    0.42330    0.14370    1.000
