data_functionalizedCrystal
_audit_creation_method	'EQeq! by Chris Wilmer'
_symmetry_space_group_name_H-M	'P1'
_symmetry_Int_Tables_number	1
_symmetry_cell_setting	triclinic
loop_
_symmetry_equiv_pos_as_xyz
  x,y,z
_cell_length_a	11.4659
_cell_length_b	13.2732
_cell_length_c	26.1201
_cell_angle_alpha	90
_cell_angle_beta	90
_cell_angle_gamma	90
loop_
_atom_site_label
_atom_site_type_symbol
_atom_site_fract_x
_atom_site_fract_y
_atom_site_fract_z
_atom_site_charge
Mof_Co	Co	0.84879	0.05571	0.92167	1.175
Mof_Co	Co	0.10516	0.95032	0.85991	1.174
Mof_Co	Co	0.65121	0.94429	0.42167	1.175
Mof_Co	Co	0.39484	0.04968	0.35991	1.176
Mof_Co	Co	0.15121	0.55571	0.57833	1.175
Mof_Co	Co	0.89484	0.45032	0.64009	1.176
Mof_Co	Co	0.34879	0.44429	0.07833	1.176
Mof_Co	Co	0.60516	0.54968	0.14009	1.177
Mof_H 	H 	0.9211	0.87	0.9086	0.23
Mof_H 	H 	0.8758	0.9106	0.8545	0.217
Mof_H 	H 	0.6058	0.985	0.9554	0.017
Mof_H 	H 	0.2383	0.2308	0.9262	0.06
Mof_H 	H 	0.0258	0.2538	0.6645	0.023
Mof_H 	H 	0.8374	0.4253	0.7551	0.012
Mof_H 	H 	0.3276	0.3584	0.9714	0.017
Mof_H 	H 	0.3136	0.8144	0.8306	0.017
Mof_H 	H 	0.5127	0.8608	0.003	0.068
Mof_H 	H 	0.061	0.1413	0.7307	0.062
Mof_H 	H 	0.8249	0.781	0.0607	0.066
Mof_H 	H 	0.8592	0.3132	0.8224	0.062
Mof_H 	H 	0.1794	0.2646	0.0988	0.017
Mof_H 	H 	0.0815	0.1412	0.0559	0.063
Mof_H 	H 	0.5149	0.8152	0.8297	0.066
Mof_H 	H 	0.9089	0.9048	0.0103	0.026
Mof_H 	H 	0.3034	0.11	0.849	0.019
Mof_H 	H 	0.5053	0.1145	0.8541	0.064
Mof_H 	H 	0.5789	0.13	0.4086	0.23
Mof_H 	H 	0.6242	0.0894	0.3545	0.216
Mof_H 	H 	0.8942	0.015	0.4554	0.016
Mof_H 	H 	0.2617	0.7692	0.4262	0.06
Mof_H 	H 	0.4742	0.7462	0.1645	0.02
Mof_H 	H 	0.6626	0.5747	0.2551	0.011
Mof_H 	H 	0.1724	0.6416	0.4714	0.017
Mof_H 	H 	0.1864	0.1856	0.3306	0.019
Mof_H 	H 	0.9873	0.1392	0.503	0.068
Mof_H 	H 	0.439	0.8587	0.2307	0.063
Mof_H 	H 	0.6751	0.219	0.5607	0.066
Mof_H 	H 	0.6408	0.6868	0.3224	0.063
Mof_H 	H 	0.3206	0.7354	0.5988	0.017
Mof_H 	H 	0.4185	0.8588	0.5559	0.063
Mof_H 	H 	0.9851	0.1848	0.3297	0.061
Mof_H 	H 	0.5911	0.0952	0.5103	0.025
Mof_H 	H 	0.1966	0.89	0.349	0.02
Mof_H 	H 	0.9947	0.8855	0.3541	0.065
Mof_H 	H 	0.0789	0.37	0.5914	0.23
Mof_H 	H 	0.1242	0.4106	0.6455	0.217
Mof_H 	H 	0.3942	0.485	0.5446	0.016
Mof_H 	H 	0.7617	0.7308	0.5738	0.061
Mof_H 	H 	0.9742	0.7538	0.8355	0.024
Mof_H 	H 	0.1626	0.9253	0.7449	0.011
Mof_H 	H 	0.6724	0.8584	0.5286	0.018
Mof_H 	H 	0.6864	0.3144	0.6694	0.017
Mof_H 	H 	0.4873	0.3608	0.497	0.068
Mof_H 	H 	0.939	0.6413	0.7693	0.06
Mof_H 	H 	0.1751	0.281	0.4393	0.067
Mof_H 	H 	0.1408	0.8132	0.6776	0.061
Mof_H 	H 	0.8206	0.7646	0.4012	0.017
Mof_H 	H 	0.9185	0.6412	0.4441	0.063
Mof_H 	H 	0.4851	0.3152	0.6703	0.066
Mof_H 	H 	0.0911	0.4048	0.4897	0.025
Mof_H 	H 	0.6966	0.61	0.651	0.019
Mof_H 	H 	0.4947	0.6145	0.6459	0.064
Mof_H 	H 	0.4211	0.63	0.0914	0.23
Mof_H 	H 	0.3758	0.5894	0.1455	0.217
Mof_H 	H 	0.1058	0.515	0.0446	0.016
Mof_H 	H 	0.7383	0.2692	0.0738	0.06
Mof_H 	H 	0.5258	0.2462	0.3355	0.02
Mof_H 	H 	0.3374	0.0747	0.2449	0.011
Mof_H 	H 	0.8276	0.1416	0.0286	0.017
Mof_H 	H 	0.8136	0.6856	0.1694	0.018
Mof_H 	H 	0.0127	0.6392	0.997	0.068
Mof_H 	H 	0.561	0.3587	0.2693	0.063
Mof_H 	H 	0.3249	0.719	0.9393	0.066
Mof_H 	H 	0.3592	0.1868	0.1776	0.063
Mof_H 	H 	0.6794	0.2354	0.9012	0.017
Mof_H 	H 	0.5815	0.3588	0.9441	0.062
Mof_H 	H 	0.0149	0.6848	0.1703	0.064
Mof_H 	H 	0.4089	0.5952	0.9897	0.025
Mof_H 	H 	0.8034	0.39	0.151	0.019
Mof_H 	H 	0.0053	0.3855	0.1459	0.064
Mof_C 	C 	0.6512	0.9418	0.9764	0.037
Mof_C 	C 	0.2248	0.237	0.9619	-0.054
Mof_C 	C 	0.9803	0.1388	0.8264	0.364
Mof_C 	C 	0.9927	0.2665	0.6972	0.028
Mof_C 	C 	0.8818	0.3658	0.7498	0.042
Mof_C 	C 	0.2791	0.3119	0.9891	0.036
Mof_C 	C 	0.3534	0.8766	0.8349	0.042
Mof_C 	C 	0.595	0.8681	0.0052	-0.054
Mof_C 	C 	0.533	0.9649	0.8439	-0.032
Mof_C 	C 	0.0132	0.1987	0.7364	-0.04
Mof_C 	C 	0.6577	0.8064	0.0367	-0.039
Mof_C 	C 	0.9644	0.2147	0.7836	-0.05
Mof_C 	C 	0.7776	0.8211	0.0388	-0.054
Mof_C 	C 	0.597	0.7259	0.0669	0.34
Mof_C 	C 	0.8957	0.3002	0.7904	-0.052
Mof_C 	C 	0.1918	0.2578	0.063	0.048
Mof_C 	C 	0.1339	0.184	0.0379	-0.061
Mof_C 	C 	0.4734	0.8762	0.8353	-0.061
Mof_C 	C 	0.1514	0.1714	0.9861	-0.037
Mof_C 	C 	0.8269	0.8955	0.0085	0.05
Mof_C 	C 	0.0906	0.0884	0.9552	0.35
Mof_C 	C 	0.3465	0.049	0.8464	0.047
Mof_C 	C 	0.467	0.0519	0.8489	-0.06
Mof_C 	C 	0.6643	0.9675	0.8516	0.321
Mof_C 	C 	0.8488	0.0582	0.4764	0.037
Mof_C 	C 	0.2752	0.763	0.4619	-0.055
Mof_C 	C 	0.5197	0.8612	0.3264	0.365
Mof_C 	C 	0.5073	0.7335	0.1972	0.035
Mof_C 	C 	0.6182	0.6342	0.2498	0.044
Mof_C 	C 	0.2209	0.6881	0.4891	0.036
Mof_C 	C 	0.1466	0.1234	0.3349	0.037
Mof_C 	C 	0.905	0.1319	0.5052	-0.055
Mof_C 	C 	0.967	0.0351	0.3439	-0.039
Mof_C 	C 	0.4868	0.8013	0.2364	-0.047
Mof_C 	C 	0.8423	0.1936	0.5367	-0.038
Mof_C 	C 	0.5356	0.7853	0.2836	-0.047
Mof_C 	C 	0.7224	0.1789	0.5388	-0.055
Mof_C 	C 	0.903	0.2741	0.5669	0.338
Mof_C 	C 	0.6043	0.6998	0.2904	-0.054
Mof_C 	C 	0.3082	0.7422	0.563	0.049
Mof_C 	C 	0.3661	0.816	0.5379	-0.062
Mof_C 	C 	0.0266	0.1238	0.3353	-0.049
Mof_C 	C 	0.3486	0.8286	0.4861	-0.036
Mof_C 	C 	0.6731	0.1045	0.5085	0.05
Mof_C 	C 	0.4094	0.9116	0.4552	0.348
Mof_C 	C 	0.1535	0.951	0.3464	0.043
Mof_C 	C 	0.033	0.9481	0.3489	-0.059
Mof_C 	C 	0.8357	0.0325	0.3516	0.32
Mof_C 	C 	0.3488	0.4418	0.5236	0.038
Mof_C 	C 	0.7752	0.737	0.5381	-0.055
Mof_C 	C 	0.0197	0.6388	0.6736	0.366
Mof_C 	C 	0.0073	0.7665	0.8028	0.025
Mof_C 	C 	0.1182	0.8658	0.7502	0.041
Mof_C 	C 	0.7209	0.8119	0.5109	0.037
Mof_C 	C 	0.6466	0.3766	0.6651	0.042
Mof_C 	C 	0.405	0.3681	0.4948	-0.054
Mof_C 	C 	0.467	0.4649	0.6561	-0.032
Mof_C 	C 	0.9868	0.6987	0.7636	-0.037
Mof_C 	C 	0.3423	0.3064	0.4633	-0.039
Mof_C 	C 	0.0356	0.7147	0.7164	-0.052
Mof_C 	C 	0.2224	0.3211	0.4612	-0.055
Mof_C 	C 	0.403	0.2259	0.4331	0.34
Mof_C 	C 	0.1043	0.8002	0.7096	-0.051
Mof_C 	C 	0.8082	0.7578	0.437	0.049
Mof_C 	C 	0.8661	0.684	0.4621	-0.062
Mof_C 	C 	0.5266	0.3762	0.6647	-0.061
Mof_C 	C 	0.8486	0.6714	0.5139	-0.036
Mof_C 	C 	0.1731	0.3955	0.4915	0.05
Mof_C 	C 	0.9094	0.5884	0.5448	0.348
Mof_C 	C 	0.6535	0.549	0.6536	0.045
Mof_C 	C 	0.533	0.5519	0.6511	-0.06
Mof_C 	C 	0.3357	0.4675	0.6484	0.32
Mof_C 	C 	0.1512	0.5582	0.0236	0.039
Mof_C 	C 	0.7248	0.263	0.0381	-0.054
Mof_C 	C 	0.4803	0.3612	0.1736	0.365
Mof_C 	C 	0.4927	0.2335	0.3028	0.034
Mof_C 	C 	0.3818	0.1342	0.2502	0.043
Mof_C 	C 	0.7791	0.1881	0.0109	0.035
Mof_C 	C 	0.8534	0.6234	0.1651	0.041
Mof_C 	C 	0.095	0.6319	0.9948	-0.056
Mof_C 	C 	0.033	0.5351	0.1561	-0.033
Mof_C 	C 	0.5132	0.3013	0.2636	-0.047
Mof_C 	C 	0.1577	0.6936	0.9633	-0.038
Mof_C 	C 	0.4644	0.2853	0.2164	-0.047
Mof_C 	C 	0.2776	0.6789	0.9612	-0.056
Mof_C 	C 	0.097	0.7741	0.9331	0.336
Mof_C 	C 	0.3957	0.1998	0.2096	-0.054
Mof_C 	C 	0.6918	0.2422	0.937	0.048
Mof_C 	C 	0.6339	0.316	0.9621	-0.061
Mof_C 	C 	0.9734	0.6238	0.1647	-0.058
Mof_C 	C 	0.6514	0.3286	0.0139	-0.037
Mof_C 	C 	0.3269	0.6045	0.9915	0.05
Mof_C 	C 	0.5906	0.4116	0.0448	0.349
Mof_C 	C 	0.8465	0.451	0.1536	0.045
Mof_C 	C 	0.967	0.4481	0.1511	-0.06
Mof_C 	C 	0.1643	0.5325	0.1484	0.321
Mof_N 	N 	0.2655	0.3215	0.0402	-0.212
Mof_N 	N 	0.9274	0.3498	0.7037	-0.211
Mof_N 	N 	0.7677	0.9539	0.9774	-0.209
Mof_N 	N 	0.2894	0.9613	0.8405	-0.205
Mof_N 	N 	0.2345	0.6785	0.5402	-0.212
Mof_N 	N 	0.5726	0.6502	0.2037	-0.212
Mof_N 	N 	0.7323	0.0461	0.4774	-0.21
Mof_N 	N 	0.2106	0.0387	0.3405	-0.202
Mof_N 	N 	0.7345	0.8215	0.4598	-0.212
Mof_N 	N 	0.0726	0.8498	0.7963	-0.211
Mof_N 	N 	0.2323	0.4539	0.5226	-0.209
Mof_N 	N 	0.7106	0.4613	0.6595	-0.204
Mof_N 	N 	0.7655	0.1785	0.9598	-0.212
Mof_N 	N 	0.4274	0.1502	0.2963	-0.212
Mof_N 	N 	0.2677	0.5461	0.0226	-0.209
Mof_N 	N 	0.7894	0.5387	0.1595	-0.203
Mof_O 	O 	0.9238	0.928	0.88479	-0.646
Mof_O 	O 	0.7221	0.8914	0.8382	-0.285
Mof_O 	O 	0.4902	0.7205	0.0613	-0.313
Mof_O 	O 	0.7043	0.0438	0.8729	-0.402
Mof_O 	O 	0.0522	0.0685	0.8164	-0.426
Mof_O 	O 	0.924	0.1513	0.8664	-0.418
Mof_O 	O 	0.9885	0.0658	0.9706	-0.421
Mof_O 	O 	0.6584	0.6711	0.095	-0.404
Mof_O 	O 	0.1445	0.0523	0.91832	-0.411
Mof_O 	O 	0.5762	0.072	0.38479	-0.647
Mof_O 	O 	0.7779	0.1086	0.3382	-0.285
Mof_O 	O 	0.0098	0.2795	0.5613	-0.311
Mof_O 	O 	0.7957	0.9562	0.3729	-0.399
Mof_O 	O 	0.4478	0.9315	0.3164	-0.428
Mof_O 	O 	0.576	0.8487	0.3664	-0.418
Mof_O 	O 	0.5115	0.9342	0.4706	-0.419
Mof_O 	O 	0.8416	0.3289	0.595	-0.403
Mof_O 	O 	0.3555	0.9477	0.41832	-0.412
Mof_O 	O 	0.0762	0.428	0.61521	-0.647
Mof_O 	O 	0.2779	0.3914	0.6618	-0.284
Mof_O 	O 	0.5098	0.2205	0.4387	-0.313
Mof_O 	O 	0.2957	0.5438	0.6271	-0.401
Mof_O 	O 	0.9478	0.5685	0.6836	-0.428
Mof_O 	O 	0.076	0.6513	0.6336	-0.418
Mof_O 	O 	0.0115	0.5658	0.5294	-0.419
Mof_O 	O 	0.3416	0.1711	0.405	-0.404
Mof_O 	O 	0.8555	0.5523	0.58168	-0.411
Mof_O 	O 	0.4238	0.572	0.11521	-0.647
Mof_O 	O 	0.2221	0.6086	0.1618	-0.285
Mof_O 	O 	0.9902	0.7795	0.9387	-0.31
Mof_O 	O 	0.2043	0.4562	0.1271	-0.401
Mof_O 	O 	0.5522	0.4315	0.1836	-0.428
Mof_O 	O 	0.424	0.3487	0.1336	-0.418
Mof_O 	O 	0.4885	0.4342	0.0294	-0.42
Mof_O 	O 	0.1584	0.8289	0.905	-0.404
Mof_O 	O 	0.6445	0.4477	0.08168	-0.412
_end
