# CIF file generated by openbabel 3.1.0, see https://openbabel.org
data_I
_chemical_name_common 'SEHZUB_clean'
_cell_length_a 8.32
_cell_length_b 11.375
_cell_length_c 12.9347
_cell_angle_alpha 104.395
_cell_angle_beta 108.761
_cell_angle_gamma 90
_space_group_name_H-M_alt 'P 1'
_space_group_name_Hall 'P 1'
loop_
    _symmetry_equiv_pos_as_xyz
    x,y,z
loop_
    _atom_site_label
    _atom_site_type_symbol
    _atom_site_fract_x
    _atom_site_fract_y
    _atom_site_fract_z
    _atom_site_occupancy
    Co1      Co       0.32291    0.06344    0.62960    1.000
    Co2      Co       0.69331    0.93656    0.37040    1.000
    H1       H        0.13980    0.18630    0.04040    1.000
    H2       H        0.09770    0.28190    0.21160    1.000
    H3       H        0.19180    0.20510    0.36360    1.000
    H4       H        0.14660    0.80220    0.47160    1.000
    H5       H        0.14580    0.60680    0.47780    1.000
    H6       H        0.48720    0.69890    0.78620    1.000
    H7       H        0.49330    0.90120    0.77760    1.000
    H8       H        0.06620    0.47460    0.57480    1.000
    H9       H        0.04410    0.27390    0.58280    1.000
    H10      H        0.55410    0.27420    0.68100    1.000
    H11      H        0.57600    0.47490    0.67320    1.000
    H12      H        0.09940    0.81370    0.95960    1.000
    H13      H        0.88610    0.71810    0.78840    1.000
    H14      H        0.82820    0.79490    0.63640    1.000
    H15      H        0.67500    0.19780    0.52840    1.000
    H16      H        0.66800    0.39320    0.52220    1.000
    H17      H        0.70100    0.30110    0.21380    1.000
    H18      H        0.71570    0.09880    0.22240    1.000
    H19      H        0.49140    0.52540    0.42520    1.000
    H20      H        0.46130    0.72610    0.41720    1.000
    H21      H        0.87310    0.72580    0.31900    1.000
    H22      H        0.90280    0.52510    0.32680    1.000
    C1       C        0.34050    0.00570    0.39020    1.000
    C2       C        0.28000    0.05230    0.28760    1.000
    C3       C        0.31600    0.00130    0.19240    1.000
    C4       C        0.25480    0.04920    0.09640    1.000
    C5       C        0.17640    0.15330    0.10220    1.000
    C6       C        0.15190    0.21030    0.20560    1.000
    C7       C        0.20490    0.16360    0.29560    1.000
    C8       C        0.21830    0.78250    0.53560    1.000
    C9       C        0.21760    0.66550    0.53920    1.000
    C10      C        0.32060    0.62930    0.63180    1.000
    C11      C        0.41990    0.71890    0.72120    1.000
    C12      C        0.42210    0.84150    0.71660    1.000
    C13      C        0.32330    0.49470    0.62320    1.000
    C14      C        0.16400    0.43450    0.59620    1.000
    C15      C        0.15070    0.31420    0.60080    1.000
    C16      C        0.45630    0.31440    0.65980    1.000
    C17      C        0.46930    0.43460    0.65500    1.000
    C18      C        0.39420    0.88270    0.17100    1.000
    C19      C        0.95030    0.99430    0.60980    1.000
    C20      C        0.99240    0.94770    0.71240    1.000
    C21      C        0.12360    0.99870    0.80760    1.000
    C22      C        0.15840    0.95080    0.90360    1.000
    C23      C        0.07420    0.84670    0.89780    1.000
    C24      C        0.94630    0.78970    0.79440    1.000
    C25      C        0.90930    0.83640    0.70440    1.000
    C26      C        0.68270    0.21750    0.46440    1.000
    C27      C        0.67840    0.33450    0.46080    1.000
    C28      C        0.68880    0.37070    0.36820    1.000
    C29      C        0.69870    0.28110    0.27880    1.000
    C30      C        0.70550    0.15850    0.28340    1.000
    C31      C        0.70010    0.50530    0.37680    1.000
    C32      C        0.56780    0.56550    0.40380    1.000
    C33      C        0.54990    0.68580    0.39920    1.000
    C34      C        0.79650    0.68560    0.34020    1.000
    C35      C        0.81430    0.56540    0.34500    1.000
    C36      C        0.22320    0.11730    0.82900    1.000
    N1       N        0.29670    0.25420    0.63260    1.000
    N2       N        0.31870    0.87170    0.62100    1.000
    N3       N        0.66410    0.74580    0.36740    1.000
    N4       N        0.69770    0.12830    0.37900    1.000
    O1       O        0.26728    0.03480    0.45676    1.000
    O2       O        0.46459    0.94950    0.40438    1.000
    O3       O        0.29453    0.79000    0.13646    1.000
    O4       O        0.55693    0.88880    0.19746    1.000
    O5       O        0.81052    0.96520    0.54324    1.000
    O6       O        0.06021    0.05050    0.59562    1.000
    O7       O        0.15807    0.21000    0.86354    1.000
    O8       O        0.35947    0.11120    0.80254    1.000
    O9       O        0.29820    0.00000    0.00000    1.000
