data_functionalizedCrystal
_audit_creation_method	'EQeq! by Chris Wilmer'
_symmetry_space_group_name_H-M	'P1'
_symmetry_Int_Tables_number	1
_symmetry_cell_setting	triclinic
loop_
_symmetry_equiv_pos_as_xyz
  x,y,z
_cell_length_a	18.459
_cell_length_b	18.459
_cell_length_c	6.7489
_cell_angle_alpha	90
_cell_angle_beta	90
_cell_angle_gamma	120
loop_
_atom_site_label
_atom_site_type_symbol
_atom_site_fract_x
_atom_site_fract_y
_atom_site_fract_z
_atom_site_charge
Mof_O 	O 	0.2869	0.2029	0.2728	-0.183
Mof_O 	O 	0.48	0.3717	0.4844	-0.413
Mof_O 	O 	0.4409	0.4114	0.7546	-0.408
Mof_C 	C 	0.3784	0.255	0.9244	0.039
Mof_C 	C 	0.4223	0.2764	0.748	-0.118
Mof_C 	C 	0.4493	0.3594	0.654	0.385
Mof_C 	C 	0.232	0.1858	0.438	-0.338
Mof_H 	H 	0.3632	0.292	0.9843	0.052
Mof_H 	H 	0.2543	0.1722	0.5536	0.132
Mof_H 	H 	0.1763	0.1371	0.4054	0.121
Mof_O 	O 	0.7971	0.084	0.2728	-0.206
Mof_O 	O 	0.6283	0.1083	0.4844	-0.417
Mof_O 	O 	0.5886	0.0295	0.7546	-0.417
Mof_C 	C 	0.745	0.1234	0.9244	0.043
Mof_C 	C 	0.7236	0.1459	0.748	-0.122
Mof_C 	C 	0.6406	0.0899	0.654	0.386
Mof_C 	C 	0.8142	0.0462	0.438	-0.246
Mof_H 	H 	0.708	0.0712	0.9843	0.047
Mof_H 	H 	0.8278	0.0821	0.5536	0.106
Mof_H 	H 	0.8629	0.0392	0.4054	0.093
Mof_O 	O 	0.916	0.7131	0.2728	-0.199
Mof_O 	O 	0.8917	0.52	0.4844	-0.411
Mof_O 	O 	0.9705	0.5591	0.7546	-0.399
Mof_C 	C 	0.8766	0.6216	0.9244	0.035
Mof_C 	C 	0.8541	0.5777	0.748	-0.114
Mof_C 	C 	0.9101	0.5507	0.654	0.383
Mof_C 	C 	0.9538	0.768	0.438	-0.219
Mof_H 	H 	0.9288	0.6368	0.9843	0.058
Mof_H 	H 	0.9179	0.7457	0.5536	0.101
Mof_H 	H 	0.9608	0.8237	0.4054	0.094
Mof_O 	O 	0.2029	0.2869	0.7272	-0.184
Mof_O 	O 	0.3717	0.48	0.5156	-0.414
Mof_O 	O 	0.4114	0.4409	0.2454	-0.409
Mof_C 	C 	0.255	0.3784	0.0756	0.038
Mof_C 	C 	0.2764	0.4223	0.252	-0.119
Mof_C 	C 	0.3594	0.4493	0.346	0.384
Mof_C 	C 	0.1858	0.232	0.562	-0.339
Mof_H 	H 	0.292	0.3632	0.0157	0.051
Mof_H 	H 	0.1722	0.2543	0.4464	0.131
Mof_H 	H 	0.1371	0.1763	0.5946	0.12
Mof_O 	O 	0.084	0.7971	0.7272	-0.207
Mof_O 	O 	0.1083	0.6283	0.5156	-0.417
Mof_O 	O 	0.0295	0.5886	0.2454	-0.417
Mof_C 	C 	0.1234	0.745	0.0756	0.043
Mof_C 	C 	0.1459	0.7236	0.252	-0.122
Mof_C 	C 	0.0899	0.6406	0.346	0.386
Mof_C 	C 	0.0462	0.8142	0.562	-0.246
Mof_H 	H 	0.0712	0.708	0.0157	0.047
Mof_H 	H 	0.0821	0.8278	0.4464	0.106
Mof_H 	H 	0.0392	0.8629	0.5946	0.093
Mof_O 	O 	0.7131	0.916	0.7272	-0.199
Mof_O 	O 	0.52	0.8917	0.5156	-0.411
Mof_O 	O 	0.5591	0.9705	0.2454	-0.399
Mof_C 	C 	0.6216	0.8766	0.0756	0.035
Mof_C 	C 	0.5777	0.8541	0.252	-0.114
Mof_C 	C 	0.5507	0.9101	0.346	0.383
Mof_C 	C 	0.768	0.9538	0.562	-0.219
Mof_H 	H 	0.6368	0.9288	0.0157	0.058
Mof_H 	H 	0.7457	0.9179	0.4464	0.101
Mof_H 	H 	0.8237	0.9608	0.5946	0.094
Mof_O 	O 	0.7131	0.7971	0.7272	-0.176
Mof_O 	O 	0.52	0.6283	0.5156	-0.414
Mof_O 	O 	0.5591	0.5886	0.2454	-0.409
Mof_C 	C 	0.6216	0.745	0.0756	0.035
Mof_C 	C 	0.5777	0.7236	0.252	-0.116
Mof_C 	C 	0.5507	0.6406	0.346	0.383
Mof_C 	C 	0.768	0.8142	0.562	-0.369
Mof_H 	H 	0.6368	0.708	0.0157	0.052
Mof_H 	H 	0.7457	0.8278	0.4464	0.141
Mof_H 	H 	0.8237	0.8629	0.5946	0.135
Mof_O 	O 	0.2029	0.916	0.7272	-0.208
Mof_O 	O 	0.3717	0.8917	0.5156	-0.411
Mof_O 	O 	0.4114	0.9705	0.2454	-0.4
Mof_C 	C 	0.255	0.8766	0.0756	0.042
Mof_C 	C 	0.2764	0.8541	0.252	-0.118
Mof_C 	C 	0.3594	0.9101	0.346	0.384
Mof_C 	C 	0.1858	0.9538	0.562	-0.203
Mof_H 	H 	0.292	0.9288	0.0157	0.055
Mof_H 	H 	0.1722	0.9179	0.4464	0.098
Mof_H 	H 	0.1371	0.9608	0.5946	0.087
Mof_O 	O 	0.084	0.2869	0.7272	-0.206
Mof_O 	O 	0.1083	0.48	0.5156	-0.417
Mof_O 	O 	0.0295	0.4409	0.2454	-0.417
Mof_C 	C 	0.1234	0.3784	0.0756	0.04
Mof_C 	C 	0.1459	0.4223	0.252	-0.121
Mof_C 	C 	0.0899	0.4493	0.346	0.386
Mof_C 	C 	0.0462	0.232	0.562	-0.23
Mof_H 	H 	0.0712	0.3632	0.0157	0.048
Mof_H 	H 	0.0821	0.2543	0.4464	0.099
Mof_H 	H 	0.0392	0.1763	0.5946	0.084
Mof_O 	O 	0.7971	0.7131	0.2728	-0.176
Mof_O 	O 	0.6283	0.52	0.4844	-0.414
Mof_O 	O 	0.5886	0.5591	0.7546	-0.409
Mof_C 	C 	0.745	0.6216	0.9244	0.035
Mof_C 	C 	0.7236	0.5777	0.748	-0.116
Mof_C 	C 	0.6406	0.5507	0.654	0.383
Mof_C 	C 	0.8142	0.768	0.438	-0.369
Mof_H 	H 	0.708	0.6368	0.9843	0.052
Mof_H 	H 	0.8278	0.7457	0.5536	0.141
Mof_H 	H 	0.8629	0.8237	0.4054	0.135
Mof_O 	O 	0.916	0.2029	0.2728	-0.208
Mof_O 	O 	0.8917	0.3717	0.4844	-0.411
Mof_O 	O 	0.9705	0.4114	0.7546	-0.4
Mof_C 	C 	0.8766	0.255	0.9244	0.042
Mof_C 	C 	0.8541	0.2764	0.748	-0.118
Mof_C 	C 	0.9101	0.3594	0.654	0.384
Mof_C 	C 	0.9538	0.1858	0.438	-0.203
Mof_H 	H 	0.9288	0.292	0.9843	0.055
Mof_H 	H 	0.9179	0.1722	0.5536	0.098
Mof_H 	H 	0.9608	0.1371	0.4054	0.087
Mof_O 	O 	0.2869	0.084	0.2728	-0.206
Mof_O 	O 	0.48	0.1083	0.4844	-0.417
Mof_O 	O 	0.4409	0.0295	0.7546	-0.417
Mof_C 	C 	0.3784	0.1234	0.9244	0.04
Mof_C 	C 	0.4223	0.1459	0.748	-0.121
Mof_C 	C 	0.4493	0.0899	0.654	0.386
Mof_C 	C 	0.232	0.0462	0.438	-0.23
Mof_H 	H 	0.3632	0.0712	0.9843	0.048
Mof_H 	H 	0.2543	0.0821	0.5536	0.099
Mof_H 	H 	0.1763	0.0392	0.4054	0.084
Mof_Cu	Cu	0.52401	0.47599	0.3425	0.914
Mof_Cu	Cu	0.52401	0.04802	0.3425	0.907
Mof_Cu	Cu	0.95198	0.47599	0.3425	0.92
Mof_Cu	Cu	0.47599	0.52401	0.6575	0.914
Mof_Cu	Cu	0.04802	0.52401	0.6575	0.907
Mof_Cu	Cu	0.47599	0.95198	0.6575	0.92
Mof_C 	C 	0.3068	0.1534	0.2	0.262
Mof_C 	C 	0.3553	0.17765	0.0129	-0.086
Mof_C 	C 	0.4401	0.22005	0.656	0.06
Mof_H 	H 	0.4651	0.23255	0.5284	0.046
Mof_C 	C 	0.8466	0.1534	0.2	0.275
Mof_C 	C 	0.82235	0.17765	0.0129	-0.09
Mof_C 	C 	0.77995	0.22005	0.656	0.061
Mof_H 	H 	0.76745	0.23255	0.5284	0.046
Mof_C 	C 	0.8466	0.6932	0.2	0.259
Mof_C 	C 	0.82235	0.6447	0.0129	-0.079
Mof_C 	C 	0.77995	0.5599	0.656	0.056
Mof_H 	H 	0.76745	0.5349	0.5284	0.048
Mof_C 	C 	0.1534	0.3068	0.8	0.262
Mof_C 	C 	0.17765	0.3553	0.9871	-0.086
Mof_C 	C 	0.22005	0.4401	0.344	0.06
Mof_H 	H 	0.23255	0.4651	0.4716	0.046
Mof_C 	C 	0.1534	0.8466	0.8	0.275
Mof_C 	C 	0.17765	0.82235	0.9871	-0.09
Mof_C 	C 	0.22005	0.77995	0.344	0.061
Mof_H 	H 	0.23255	0.76745	0.4716	0.046
Mof_C 	C 	0.6932	0.8466	0.8	0.259
Mof_C 	C 	0.6447	0.82235	0.9871	-0.079
Mof_C 	C 	0.5599	0.77995	0.344	0.056
Mof_H 	H 	0.5349	0.76745	0.4716	0.048
Mof_H 	H 	0.2297	0.2297	0.5	0.284
Mof_H 	H 	0.7703	0	0.5	0.202
Mof_H 	H 	3.46986e-17	0.7703	0.5	0.202
Mof_H 	H 	0.7703	0.7703	0.5	0.305
Mof_H 	H 	0.2297	0	0.5	0.191
Mof_H 	H 	-8.11598e-18	0.2297	0.5	0.191
_end
