# CIF file generated by openbabel 3.1.0, see https://openbabel.org
data_I
_chemical_name_common 'image0'
_cell_length_a 14.8281
_cell_length_b 6.4872
_cell_length_c 11.3503
_cell_angle_alpha 90
_cell_angle_beta 90
_cell_angle_gamma 90
_space_group_name_H-M_alt 'P 1'
_space_group_name_Hall 'P 1'
loop_
    _symmetry_equiv_pos_as_xyz
    x,y,z
loop_
    _atom_site_label
    _atom_site_type_symbol
    _atom_site_fract_x
    _atom_site_fract_y
    _atom_site_fract_z
    _atom_site_occupancy
    C1       C        0.66500    0.58640    0.66570    1.000
    N1       N        0.59880    0.64120    0.59600    1.000
    C2       C        0.16500    0.08640    0.16570    1.000
    N2       N        0.09880    0.14120    0.09600    1.000
    C3       C        0.33500    0.91360    0.66570    1.000
    N3       N        0.40120    0.85880    0.59600    1.000
    C4       C        0.83500    0.41360    0.16570    1.000
    N4       N        0.90120    0.35880    0.09600    1.000
    C5       C        0.33500    0.08640    0.33430    1.000
    N5       N        0.40120    0.14120    0.40400    1.000
    C6       C        0.83500    0.58640    0.83430    1.000
    N6       N        0.90120    0.64120    0.90400    1.000
    C7       C        0.66500    0.41360    0.33430    1.000
    N7       N        0.59880    0.35880    0.40400    1.000
    C8       C        0.16500    0.91360    0.83430    1.000
    N8       N        0.09880    0.85880    0.90400    1.000
    C9       C        0.33500    0.41360    0.33430    1.000
    N9       N        0.40120    0.35880    0.40400    1.000
    C10      C        0.83500    0.91360    0.83430    1.000
    N10      N        0.90120    0.85880    0.90400    1.000
    C11      C        0.66500    0.08640    0.33430    1.000
    N11      N        0.59880    0.14120    0.40400    1.000
    C12      C        0.16500    0.58640    0.83430    1.000
    N12      N        0.09880    0.64120    0.90400    1.000
    C13      C        0.66500    0.91360    0.66570    1.000
    N13      N        0.59880    0.85880    0.59600    1.000
    C14      C        0.16500    0.41360    0.16570    1.000
    N14      N        0.09880    0.35880    0.09600    1.000
    C15      C        0.33500    0.58640    0.66570    1.000
    N15      N        0.40120    0.64120    0.59600    1.000
    C16      C        0.83500    0.08640    0.16570    1.000
    N16      N        0.90120    0.14120    0.09600    1.000
    Ga1      Ga       0.50000    0.50000    0.50000    1.000
    Ga2      Ga       0.00000    0.00000    0.00000    1.000
    Ga3      Ga       0.50000    0.00000    0.50000    1.000
    Ga4      Ga       0.00000    0.50000    0.00000    1.000
    C17      C        0.71171    0.75000    0.71120    1.000
    C18      C        0.21171    0.25000    0.21120    1.000
    C19      C        0.28829    0.75000    0.71120    1.000
    C20      C        0.78829    0.25000    0.21120    1.000
    C21      C        0.28829    0.25000    0.28880    1.000
    C22      C        0.78829    0.75000    0.78880    1.000
    C23      C        0.71171    0.25000    0.28880    1.000
    C24      C        0.21171    0.75000    0.78880    1.000
    O1       O        0.50000    0.25000    0.58720    1.000
    O2       O        0.00000    0.75000    0.08720    1.000
    O3       O        0.50000    0.75000    0.41280    1.000
    O4       O        0.00000    0.25000    0.91280    1.000
