# CIF file generated by openbabel 3.1.0, see https://openbabel.org
data_I
_chemical_name_common 'image0'
_cell_length_a 27.384
_cell_length_b 27.384
_cell_length_c 9.114
_cell_angle_alpha 90
_cell_angle_beta 90
_cell_angle_gamma 120
_space_group_name_H-M_alt 'P 1'
_space_group_name_Hall 'P 1'
loop_
    _symmetry_equiv_pos_as_xyz
    x,y,z
loop_
    _atom_site_label
    _atom_site_type_symbol
    _atom_site_fract_x
    _atom_site_fract_y
    _atom_site_fract_z
    _atom_site_occupancy
    Mg1      Mg       0.11046    0.12253    0.08540    1.000
    O1       O        0.19447    0.14681    0.07900    1.000
    O2       O        0.19285    0.06620    0.02810    1.000
    C1       C        0.21726    0.11679    0.07100    1.000
    C2       C        0.27708    0.14222    0.11780    1.000
    C3       C        0.30527    0.19646    0.17440    1.000
    C4       C        0.30559    0.11150    0.11040    1.000
    N1       N        0.28300    0.05650    0.05160    1.000
    C5       C        0.07726    0.00506    0.21660    1.000
    H1       H        0.06560    0.98550    0.30490    1.000
    O3       O        0.09599    0.05642    0.22200    1.000
    O4       O        0.07236    0.97666    0.10390    1.000
    N2       N        0.28200    0.22720    0.19700    1.000
    Mg2      Mg       0.77713    0.45586    0.41873    1.000
    O5       O        0.86114    0.48014    0.41233    1.000
    O6       O        0.85952    0.39953    0.36143    1.000
    C6       C        0.88393    0.45012    0.40433    1.000
    C7       C        0.94375    0.47555    0.45113    1.000
    C8       C        0.97194    0.52979    0.50773    1.000
    C9       C        0.97226    0.44483    0.44373    1.000
    N3       N        0.94967    0.38983    0.38493    1.000
    C10      C        0.74393    0.33839    0.54993    1.000
    H2       H        0.73227    0.31883    0.63823    1.000
    O7       O        0.76266    0.38975    0.55533    1.000
    O8       O        0.73903    0.30999    0.43723    1.000
    N4       N        0.94867    0.56053    0.53033    1.000
    Mg3      Mg       0.44379    0.78920    0.75207    1.000
    O9       O        0.52780    0.81348    0.74567    1.000
    O10      O        0.52618    0.73287    0.69477    1.000
    C11      C        0.55059    0.78346    0.73767    1.000
    C12      C        0.61041    0.80889    0.78447    1.000
    C13      C        0.63860    0.86313    0.84107    1.000
    C14      C        0.63892    0.77817    0.77707    1.000
    N5       N        0.61633    0.72317    0.71827    1.000
    C15      C        0.41059    0.67173    0.88327    1.000
    H3       H        0.39893    0.65217    0.97157    1.000
    O11      O        0.42932    0.72309    0.88867    1.000
    O12      O        0.40569    0.64333    0.77057    1.000
    N6       N        0.61533    0.89387    0.86367    1.000
    Mg4      Mg       0.87747    0.98793    0.08540    1.000
    O13      O        0.85319    0.04766    0.07900    1.000
    O14      O        0.93380    0.12665    0.02810    1.000
    C16      C        0.88321    0.10047    0.07100    1.000
    C17      C        0.85778    0.13486    0.11780    1.000
    C18      C        0.80354    0.10881    0.17440    1.000
    C19      C        0.88850    0.19409    0.11040    1.000
    N7       N        0.94350    0.22650    0.05160    1.000
    C20      C        0.99494    0.07220    0.21660    1.000
    H4       H        0.01450    0.08010    0.30490    1.000
    O15      O        0.94358    0.03957    0.22200    1.000
    O16      O        0.02334    0.09570    0.10390    1.000
    N8       N        0.77280    0.05480    0.19700    1.000
    Mg5      Mg       0.54414    0.32126    0.41873    1.000
    O17      O        0.51986    0.38099    0.41233    1.000
    O18      O        0.60047    0.45998    0.36143    1.000
    C21      C        0.54988    0.43380    0.40433    1.000
    C22      C        0.52445    0.46819    0.45113    1.000
    C23      C        0.47021    0.44214    0.50773    1.000
    C24      C        0.55517    0.52742    0.44373    1.000
    N9       N        0.61017    0.55983    0.38493    1.000
    C25      C        0.66161    0.40553    0.54993    1.000
    H5       H        0.68117    0.41343    0.63823    1.000
    O19      O        0.61025    0.37290    0.55533    1.000
    O20      O        0.69001    0.42903    0.43723    1.000
    N10      N        0.43947    0.38813    0.53033    1.000
    Mg6      Mg       0.21080    0.65460    0.75207    1.000
    O21      O        0.18652    0.71433    0.74567    1.000
    O22      O        0.26713    0.79332    0.69477    1.000
    C26      C        0.21654    0.76714    0.73767    1.000
    C27      C        0.19111    0.80153    0.78447    1.000
    C28      C        0.13687    0.77548    0.84107    1.000
    C29      C        0.22183    0.86076    0.77707    1.000
    N11      N        0.27683    0.89317    0.71827    1.000
    C30      C        0.32827    0.73887    0.88327    1.000
    H6       H        0.34783    0.74677    0.97157    1.000
    O23      O        0.27691    0.70624    0.88867    1.000
    O24      O        0.35667    0.76237    0.77057    1.000
    N12      N        0.10613    0.72147    0.86367    1.000
    Mg7      Mg       0.01207    0.88954    0.08540    1.000
    O25      O        0.95234    0.80553    0.07900    1.000
    O26      O        0.87335    0.80715    0.02810    1.000
    C31      C        0.89953    0.78274    0.07100    1.000
    C32      C        0.86514    0.72292    0.11780    1.000
    C33      C        0.89119    0.69473    0.17440    1.000
    C34      C        0.80591    0.69441    0.11040    1.000
    N13      N        0.77350    0.71700    0.05160    1.000
    C35      C        0.92780    0.92274    0.21660    1.000
    H7       H        0.91990    0.93440    0.30490    1.000
    O27      O        0.96043    0.90401    0.22200    1.000
    O28      O        0.90430    0.92764    0.10390    1.000
    N14      N        0.94520    0.71800    0.19700    1.000
    Mg8      Mg       0.67874    0.22287    0.41873    1.000
    O29      O        0.61901    0.13886    0.41233    1.000
    O30      O        0.54002    0.14048    0.36143    1.000
    C36      C        0.56620    0.11607    0.40433    1.000
    C37      C        0.53181    0.05625    0.45113    1.000
    C38      C        0.55786    0.02806    0.50773    1.000
    C39      C        0.47258    0.02774    0.44373    1.000
    N15      N        0.44017    0.05033    0.38493    1.000
    C40      C        0.59447    0.25607    0.54993    1.000
    H8       H        0.58657    0.26773    0.63823    1.000
    O31      O        0.62710    0.23734    0.55533    1.000
    O32      O        0.57097    0.26097    0.43723    1.000
    N16      N        0.61187    0.05133    0.53033    1.000
    Mg9      Mg       0.34540    0.55621    0.75207    1.000
    O33      O        0.28567    0.47220    0.74567    1.000
    O34      O        0.20668    0.47382    0.69477    1.000
    C41      C        0.23286    0.44941    0.73767    1.000
    C42      C        0.19847    0.38959    0.78447    1.000
    C43      C        0.22452    0.36140    0.84107    1.000
    C44      C        0.13924    0.36108    0.77707    1.000
    N17      N        0.10683    0.38367    0.71827    1.000
    C45      C        0.26113    0.58941    0.88327    1.000
    H9       H        0.25323    0.60107    0.97157    1.000
    O35      O        0.29376    0.57068    0.88867    1.000
    O36      O        0.23763    0.59431    0.77057    1.000
    N18      N        0.27853    0.38467    0.86367    1.000
    Mg10     Mg       0.88954    0.87747    0.91460    1.000
    O37      O        0.80553    0.85319    0.92100    1.000
    O38      O        0.80715    0.93380    0.97190    1.000
    C46      C        0.78274    0.88321    0.92900    1.000
    C47      C        0.72292    0.85778    0.88220    1.000
    C48      C        0.69473    0.80354    0.82560    1.000
    C49      C        0.69441    0.88850    0.88960    1.000
    N19      N        0.71700    0.94350    0.94840    1.000
    C50      C        0.92274    0.99494    0.78340    1.000
    H10      H        0.93440    0.01450    0.69510    1.000
    O39      O        0.90401    0.94358    0.77800    1.000
    O40      O        0.92764    0.02334    0.89610    1.000
    N20      N        0.71800    0.77280    0.80300    1.000
    Mg11     Mg       0.55621    0.21080    0.24793    1.000
    O41      O        0.47220    0.18652    0.25433    1.000
    O42      O        0.47382    0.26713    0.30523    1.000
    C51      C        0.44941    0.21654    0.26233    1.000
    C52      C        0.38959    0.19111    0.21553    1.000
    C53      C        0.36140    0.13687    0.15893    1.000
    C54      C        0.36108    0.22183    0.22293    1.000
    N21      N        0.38367    0.27683    0.28173    1.000
    C55      C        0.58941    0.32827    0.11673    1.000
    H11      H        0.60107    0.34783    0.02843    1.000
    O43      O        0.57068    0.27691    0.11133    1.000
    O44      O        0.59431    0.35667    0.22943    1.000
    N22      N        0.38467    0.10613    0.13633    1.000
    Mg12     Mg       0.22287    0.54414    0.58127    1.000
    O45      O        0.13886    0.51986    0.58767    1.000
    O46      O        0.14048    0.60047    0.63857    1.000
    C56      C        0.11607    0.54988    0.59567    1.000
    C57      C        0.05625    0.52445    0.54887    1.000
    C58      C        0.02806    0.47021    0.49227    1.000
    C59      C        0.02774    0.55517    0.55627    1.000
    N23      N        0.05033    0.61017    0.61507    1.000
    C60      C        0.25607    0.66161    0.45007    1.000
    H12      H        0.26773    0.68117    0.36177    1.000
    O47      O        0.23734    0.61025    0.44467    1.000
    O48      O        0.26097    0.69001    0.56277    1.000
    N24      N        0.05133    0.43947    0.46967    1.000
    Mg13     Mg       0.12253    0.01207    0.91460    1.000
    O49      O        0.14681    0.95234    0.92100    1.000
    O50      O        0.06620    0.87335    0.97190    1.000
    C61      C        0.11679    0.89953    0.92900    1.000
    C62      C        0.14222    0.86514    0.88220    1.000
    C63      C        0.19646    0.89119    0.82560    1.000
    C64      C        0.11150    0.80591    0.88960    1.000
    N25      N        0.05650    0.77350    0.94840    1.000
    C65      C        0.00506    0.92780    0.78340    1.000
    H13      H        0.98550    0.91990    0.69510    1.000
    O51      O        0.05642    0.96043    0.77800    1.000
    O52      O        0.97666    0.90430    0.89610    1.000
    N26      N        0.22720    0.94520    0.80300    1.000
    Mg14     Mg       0.78920    0.34540    0.24793    1.000
    O53      O        0.81348    0.28567    0.25433    1.000
    O54      O        0.73287    0.20668    0.30523    1.000
    C66      C        0.78346    0.23286    0.26233    1.000
    C67      C        0.80889    0.19847    0.21553    1.000
    C68      C        0.86313    0.22452    0.15893    1.000
    C69      C        0.77817    0.13924    0.22293    1.000
    N27      N        0.72317    0.10683    0.28173    1.000
    C70      C        0.67173    0.26113    0.11673    1.000
    H14      H        0.65217    0.25323    0.02843    1.000
    O55      O        0.72309    0.29376    0.11133    1.000
    O56      O        0.64333    0.23763    0.22943    1.000
    N28      N        0.89387    0.27853    0.13633    1.000
    Mg15     Mg       0.45586    0.67874    0.58127    1.000
    O57      O        0.48014    0.61901    0.58767    1.000
    O58      O        0.39953    0.54002    0.63857    1.000
    C71      C        0.45012    0.56620    0.59567    1.000
    C72      C        0.47555    0.53181    0.54887    1.000
    C73      C        0.52979    0.55786    0.49227    1.000
    C74      C        0.44483    0.47258    0.55627    1.000
    N29      N        0.38983    0.44017    0.61507    1.000
    C75      C        0.33839    0.59447    0.45007    1.000
    H15      H        0.31883    0.58657    0.36177    1.000
    O59      O        0.38975    0.62710    0.44467    1.000
    O60      O        0.30999    0.57097    0.56277    1.000
    N30      N        0.56053    0.61187    0.46967    1.000
    Mg16     Mg       0.98793    0.11046    0.91460    1.000
    O61      O        0.04766    0.19447    0.92100    1.000
    O62      O        0.12665    0.19285    0.97190    1.000
    C76      C        0.10047    0.21726    0.92900    1.000
    C77      C        0.13486    0.27708    0.88220    1.000
    C78      C        0.10881    0.30527    0.82560    1.000
    C79      C        0.19409    0.30559    0.88960    1.000
    N31      N        0.22650    0.28300    0.94840    1.000
    C80      C        0.07220    0.07726    0.78340    1.000
    H16      H        0.08010    0.06560    0.69510    1.000
    O63      O        0.03957    0.09599    0.77800    1.000
    O64      O        0.09570    0.07236    0.89610    1.000
    N32      N        0.05480    0.28200    0.80300    1.000
    Mg17     Mg       0.65460    0.44379    0.24793    1.000
    O65      O        0.71433    0.52780    0.25433    1.000
    O66      O        0.79332    0.52618    0.30523    1.000
    C81      C        0.76714    0.55059    0.26233    1.000
    C82      C        0.80153    0.61041    0.21553    1.000
    C83      C        0.77548    0.63860    0.15893    1.000
    C84      C        0.86076    0.63892    0.22293    1.000
    N33      N        0.89317    0.61633    0.28173    1.000
    C85      C        0.73887    0.41059    0.11673    1.000
    H17      H        0.74677    0.39893    0.02843    1.000
    O67      O        0.70624    0.42932    0.11133    1.000
    O68      O        0.76237    0.40569    0.22943    1.000
    N34      N        0.72147    0.61533    0.13633    1.000
    Mg18     Mg       0.32126    0.77713    0.58127    1.000
    O69      O        0.38099    0.86114    0.58767    1.000
    O70      O        0.45998    0.85952    0.63857    1.000
    C86      C        0.43380    0.88393    0.59567    1.000
    C87      C        0.46819    0.94375    0.54887    1.000
    C88      C        0.44214    0.97194    0.49227    1.000
    C89      C        0.52742    0.97226    0.55627    1.000
    N35      N        0.55983    0.94967    0.61507    1.000
    C90      C        0.40553    0.74393    0.45007    1.000
    H18      H        0.41343    0.73227    0.36177    1.000
    O71      O        0.37290    0.76266    0.44467    1.000
    O72      O        0.42903    0.73903    0.56277    1.000
    N36      N        0.38813    0.94867    0.46967    1.000
