data_functionalizedCrystal
_audit_creation_method	'EQeq! by Chris Wilmer'
_symmetry_space_group_name_H-M	'P1'
_symmetry_Int_Tables_number	1
_symmetry_cell_setting	triclinic
loop_
_symmetry_equiv_pos_as_xyz
  x,y,z
_cell_length_a	9.9729
_cell_length_b	10.2775
_cell_length_c	23.695
_cell_angle_alpha	90
_cell_angle_beta	90
_cell_angle_gamma	90
loop_
_atom_site_label
_atom_site_type_symbol
_atom_site_fract_x
_atom_site_fract_y
_atom_site_fract_z
_atom_site_charge
Mof_Co	Co	0.98757	0.70892	0.21377	1.193
Mof_Co	Co	0.51243	0.20892	0.71377	1.195
Mof_Co	Co	0.01243	0.29108	0.78623	1.193
Mof_Co	Co	0.48757	0.79108	0.28623	1.195
Mof_Co	Co	0.51243	0.70892	0.78623	1.195
Mof_Co	Co	0.01243	0.79108	0.71377	1.195
Mof_Co	Co	0.98757	0.20892	0.28623	1.194
Mof_Co	Co	0.48757	0.29108	0.21377	1.194
Mof_H 	H 	0.0293	0.3297	0.998	0.07
Mof_H 	H 	0.7265	0.6003	0.162	0.022
Mof_H 	H 	0.3869	0.7559	0.134	0.128
Mof_H 	H 	0.8869	0.7441	0.366	0.128
Mof_H 	H 	0.5387	0.8913	0.133	0.13
Mof_H 	H 	0.3767	0.92	0.5764	0.075
Mof_H 	H 	0.5749	0.8821	0.6569	0.137
Mof_H 	H 	0.4707	0.3297	0.002	0.074
Mof_H 	H 	0.335	0.6135	0.6723	0.135
Mof_H 	H 	0.3869	0.2559	0.366	0.127
Mof_H 	H 	0.9707	0.6703	0.002	0.07
Mof_H 	H 	0.4357	0.6906	0.9108	0.01
Mof_H 	H 	0.2265	0.8997	0.338	0.022
Mof_H 	H 	0.0643	0.1906	0.4108	0.009
Mof_H 	H 	0.165	0.1135	0.1723	0.134
Mof_H 	H 	0.1233	0.42	0.0764	0.077
Mof_H 	H 	0.3767	0.42	0.9236	0.074
Mof_H 	H 	0.5387	0.3913	0.367	0.13
Mof_H 	H 	0.5643	0.3094	0.0892	0.01
Mof_H 	H 	0.9357	0.8094	0.5892	0.009
Mof_H 	H 	0.0387	0.6087	0.367	0.132
Mof_H 	H 	0.5643	0.8094	0.4108	0.01
Mof_H 	H 	0.2735	0.8997	0.662	0.022
Mof_H 	H 	0.6131	0.2441	0.866	0.128
Mof_H 	H 	0.2265	0.3997	0.162	0.022
Mof_H 	H 	0.0643	0.6906	0.0892	0.017
Mof_H 	H 	0.665	0.8865	0.1723	0.134
Mof_H 	H 	0.335	0.1135	0.8277	0.134
Mof_H 	H 	0.4251	0.1179	0.3431	0.137
Mof_H 	H 	0.5293	0.1703	0.502	0.073
Mof_H 	H 	0.0293	0.8297	0.502	0.074
Mof_H 	H 	0.0749	0.6179	0.8431	0.138
Mof_H 	H 	0.0387	0.1087	0.133	0.13
Mof_H 	H 	0.2735	0.3997	0.838	0.022
Mof_H 	H 	0.4357	0.1906	0.5892	0.01
Mof_H 	H 	0.7735	0.1003	0.662	0.022
Mof_H 	H 	0.835	0.3865	0.6723	0.136
Mof_H 	H 	0.4251	0.6179	0.1569	0.137
Mof_H 	H 	0.1131	0.7559	0.866	0.128
Mof_H 	H 	0.5749	0.3821	0.8431	0.137
Mof_H 	H 	0.7735	0.6003	0.838	0.022
Mof_H 	H 	0.5293	0.6703	0.998	0.074
Mof_H 	H 	0.8869	0.2441	0.134	0.128
Mof_H 	H 	0.6233	0.08	0.4236	0.075
Mof_H 	H 	0.4707	0.8297	0.498	0.073
Mof_H 	H 	0.4613	0.6087	0.633	0.13
Mof_H 	H 	0.6131	0.7441	0.634	0.127
Mof_H 	H 	0.6233	0.58	0.0764	0.074
Mof_H 	H 	0.665	0.3865	0.3277	0.135
Mof_H 	H 	0.1233	0.92	0.4236	0.076
Mof_H 	H 	0.9251	0.3821	0.1569	0.138
Mof_H 	H 	0.165	0.6135	0.3277	0.136
Mof_H 	H 	0.1131	0.2559	0.634	0.128
Mof_H 	H 	0.7265	0.1003	0.338	0.022
Mof_H 	H 	0.9613	0.3913	0.633	0.132
Mof_H 	H 	0.4613	0.1087	0.867	0.13
Mof_H 	H 	0.8767	0.58	0.9236	0.077
Mof_H 	H 	0.835	0.8865	0.8277	0.134
Mof_H 	H 	0.8767	0.08	0.5764	0.076
Mof_H 	H 	0.9707	0.1703	0.498	0.074
Mof_H 	H 	0.9613	0.8913	0.867	0.13
Mof_H 	H 	0.9357	0.3094	0.9108	0.017
Mof_H 	H 	0.9251	0.8821	0.3431	0.137
Mof_H 	H 	0.0749	0.1179	0.6569	0.137
Mof_C 	C 	0.9866	0.9983	0.79445	0.408
Mof_C 	C 	0.9181	0.1574	0.46604	-0.13
Mof_C 	C 	0.5262	0.1696	0.58648	0.069
Mof_C 	C 	0.4866	0.0017	0.79445	0.412
Mof_C 	C 	0.4738	0.3304	0.08648	0.07
Mof_C 	C 	0.2144	0.2089	0.70587	0.426
Mof_C 	C 	0.0819	0.8426	0.53396	-0.13
Mof_C 	C 	0.5134	0.9983	0.20555	0.412
Mof_C 	C 	0.2756	0.3831	0.12946	0.071
Mof_C 	C 	0.5134	0.4983	0.29445	0.413
Mof_C 	C 	0.5819	0.1574	0.53396	-0.129
Mof_C 	C 	0.9738	0.1696	0.41352	0.072
Mof_C 	C 	0.0931	0.707	0.83205	-0.293
Mof_C 	C 	0.7868	0.1038	0.57788	-0.124
Mof_C 	C 	0.2868	0.3962	0.92212	-0.121
Mof_C 	C 	0.9181	0.6574	0.03396	-0.122
Mof_C 	C 	0.7868	0.6038	0.92212	-0.127
Mof_C 	C 	0.4069	0.707	0.16795	-0.291
Mof_C 	C 	0.4322	0.1166	0.82809	-0.29
Mof_C 	C 	0.0134	0.0017	0.20555	0.408
Mof_C 	C 	0.4738	0.8304	0.41352	0.069
Mof_C 	C 	0.9322	0.8834	0.82809	-0.289
Mof_C 	C 	0.2171	0.3742	0.97196	0.045
Mof_C 	C 	0.2171	0.8742	0.52804	0.051
Mof_C 	C 	0.2756	0.8831	0.37054	0.07
Mof_C 	C 	0.7144	0.7911	0.70587	0.425
Mof_C 	C 	0.7856	0.2911	0.20587	0.425
Mof_C 	C 	0.7132	0.1038	0.42212	-0.125
Mof_C 	C 	0.5678	0.3834	0.32809	-0.291
Mof_C 	C 	0.5931	0.293	0.83205	-0.291
Mof_C 	C 	0.2132	0.8962	0.42212	-0.124
Mof_C 	C 	0.7856	0.7911	0.29413	0.426
Mof_C 	C 	0.0931	0.207	0.66795	-0.297
Mof_C 	C 	0.2132	0.3962	0.07788	-0.127
Mof_C 	C 	0.4181	0.3426	0.03396	-0.131
Mof_C 	C 	0.2868	0.8962	0.57788	-0.125
Mof_C 	C 	0.2856	0.2089	0.29413	0.425
Mof_C 	C 	0.4069	0.207	0.33205	-0.291
Mof_C 	C 	0.2244	0.3831	0.87054	0.067
Mof_C 	C 	0.2856	0.7089	0.20587	0.424
Mof_C 	C 	0.0678	0.6166	0.32809	-0.295
Mof_C 	C 	0.5262	0.6696	0.91352	0.07
Mof_C 	C 	0.7756	0.6169	0.12946	0.067
Mof_C 	C 	0.4181	0.8426	0.46604	-0.129
Mof_C 	C 	0.0262	0.3304	0.91352	0.058
Mof_C 	C 	0.0678	0.1166	0.17191	-0.289
Mof_C 	C 	0.2244	0.8831	0.62946	0.07
Mof_C 	C 	0.7171	0.1258	0.52804	0.049
Mof_C 	C 	0.9322	0.3834	0.67191	-0.295
Mof_C 	C 	0.0819	0.3426	0.96604	-0.122
Mof_C 	C 	0.7829	0.1258	0.47196	0.051
Mof_C 	C 	0.7244	0.1169	0.62946	0.07
Mof_C 	C 	0.7132	0.6038	0.07788	-0.121
Mof_C 	C 	0.9738	0.6696	0.08648	0.058
Mof_C 	C 	0.5819	0.6574	0.96604	-0.131
Mof_C 	C 	0.0262	0.8304	0.58648	0.072
Mof_C 	C 	0.7756	0.1169	0.37054	0.07
Mof_C 	C 	0.4866	0.5017	0.70555	0.413
Mof_C 	C 	0.5931	0.793	0.66795	-0.291
Mof_C 	C 	0.4322	0.6166	0.67191	-0.291
Mof_C 	C 	0.2829	0.8742	0.47196	0.049
Mof_C 	C 	0.7244	0.6169	0.87054	0.071
Mof_C 	C 	0.9069	0.293	0.16795	-0.293
Mof_C 	C 	0.9866	0.4983	0.70555	0.419
Mof_C 	C 	0.2144	0.7089	0.79413	0.425
Mof_C 	C 	0.7171	0.6258	0.97196	0.053
Mof_C 	C 	0.7144	0.2911	0.79413	0.424
Mof_C 	C 	0.9069	0.793	0.33205	-0.297
Mof_C 	C 	0.2829	0.3742	0.02804	0.053
Mof_C 	C 	0.5678	0.8834	0.17191	-0.29
Mof_C 	C 	0.0134	0.5017	0.29445	0.419
Mof_C 	C 	0.7829	0.6258	0.02804	0.045
Mof_N 	N 	0.4036	0.8476	0.36554	-0.217
Mof_N 	N 	0.9036	0.1524	0.36554	-0.217
Mof_N 	N 	0.0964	0.3476	0.86554	-0.215
Mof_N 	N 	0.5964	0.6524	0.86554	-0.217
Mof_N 	N 	0.0964	0.8476	0.63446	-0.217
Mof_N 	N 	0.9036	0.6524	0.13446	-0.215
Mof_N 	N 	0.4036	0.3476	0.13446	-0.217
Mof_N 	N 	0.5964	0.1524	0.63446	-0.217
Mof_O 	O 	0.1999	0.7464	0.74398	-0.436
Mof_O 	O 	0.9724	0.0223	0.25455	-0.429
Mof_O 	O 	0.3202	0.1704	0.68389	-0.427
Mof_O 	O 	0.0249	0.7396	0.30644	-0.159
Mof_O 	O 	0.9817	0.1064	0.81883	-0.417
Mof_O 	O 	0.9751	0.2604	0.69356	-0.159
Mof_O 	O 	0.4751	0.7396	0.69356	-0.164
Mof_O 	O 	0.5276	0.0223	0.74545	-0.431
Mof_O 	O 	0.9751	0.7604	0.80644	-0.163
Mof_O 	O 	0.6999	0.2536	0.74398	-0.435
Mof_O 	O 	0.5249	0.7604	0.19356	-0.164
Mof_O 	O 	0.4724	0.4777	0.24545	-0.431
Mof_O 	O 	0.0276	0.9777	0.74545	-0.429
Mof_O 	O 	0.4817	0.3936	0.68117	-0.423
Mof_O 	O 	0.5183	0.6064	0.31883	-0.423
Mof_O 	O 	0.6798	0.8296	0.31611	-0.427
Mof_O 	O 	0.0249	0.2396	0.19356	-0.163
Mof_O 	O 	0.4817	0.8936	0.81883	-0.423
Mof_O 	O 	0.5183	0.1064	0.18117	-0.423
Mof_O 	O 	0.3202	0.6704	0.81611	-0.426
Mof_O 	O 	0.6999	0.7536	0.75602	-0.435
Mof_O 	O 	0.0183	0.3936	0.31883	-0.424
Mof_O 	O 	0.0276	0.4777	0.75455	-0.435
Mof_O 	O 	0.8202	0.8296	0.68389	-0.426
Mof_O 	O 	0.6798	0.3296	0.18389	-0.426
Mof_O 	O 	0.8001	0.7536	0.24398	-0.437
Mof_O 	O 	0.1999	0.2464	0.75602	-0.437
Mof_O 	O 	0.3001	0.7464	0.25602	-0.435
Mof_O 	O 	0.9817	0.6064	0.68117	-0.424
Mof_O 	O 	0.3001	0.2464	0.24398	-0.435
Mof_O 	O 	0.1798	0.6704	0.18389	-0.425
Mof_O 	O 	0.5249	0.2604	0.30644	-0.164
Mof_O 	O 	0.9724	0.5223	0.24545	-0.435
Mof_O 	O 	0.8001	0.2536	0.25602	-0.436
Mof_O 	O 	0.1798	0.1704	0.31611	-0.426
Mof_O 	O 	0.0183	0.8936	0.18117	-0.417
Mof_O 	O 	0.4751	0.2396	0.80644	-0.164
Mof_O 	O 	0.5276	0.5223	0.75455	-0.431
Mof_O 	O 	0.4724	0.9777	0.25455	-0.431
Mof_O 	O 	0.8202	0.3296	0.81611	-0.425
_end
