# CIF file generated by openbabel 3.1.0, see https://openbabel.org
data_I
_chemical_name_common 'image0'
_cell_length_a 17.6356
_cell_length_b 48.0644
_cell_length_c 24.5539
_cell_angle_alpha 90
_cell_angle_beta 90
_cell_angle_gamma 90
_space_group_name_H-M_alt 'P 1'
_space_group_name_Hall 'P 1'
loop_
    _symmetry_equiv_pos_as_xyz
    x,y,z
loop_
    _atom_site_label
    _atom_site_type_symbol
    _atom_site_fract_x
    _atom_site_fract_y
    _atom_site_fract_z
    _atom_site_occupancy
    Zn1      Zn       0.43144    0.31068    0.19066    1.000
    Zn2      Zn       0.37310    0.41909    0.09006    1.000
    Zn3      Zn       0.43122    0.52716    0.19597    1.000
    Zn4      Zn       0.74393    0.52447    0.10564    1.000
    Zn5      Zn       0.68835    0.41684    0.99938    1.000
    Zn6      Zn       0.74858    0.31082    0.10569    1.000
    N1       N        0.37140    0.34120    0.15740    1.000
    N2       N        0.34620    0.38270    0.12350    1.000
    N3       N        0.34430    0.45340    0.12890    1.000
    N4       N        0.36760    0.49520    0.16840    1.000
    N5       N        0.53990    0.51490    0.18850    1.000
    N6       N        0.65590    0.51280    0.15570    1.000
    N7       N        0.77020    0.49390    0.05260    1.000
    N8       N        0.74170    0.45280    0.01590    1.000
    N9       N        0.73850    0.38070    0.01290    1.000
    N10      N        0.76670    0.33880    0.04960    1.000
    N11      N        0.65880    0.32200    0.15080    1.000
    N12      N        0.53890    0.32140    0.18280    1.000
    N13      N        0.48740    0.41910    0.08760    1.000
    N14      N        0.60150    0.41680    0.05490    1.000
    N15      N        0.41990    0.27340    0.15950    1.000
    N16      N        0.59230    0.44100    0.85540    1.000
    N17      N        0.64250    0.42010    0.92730    1.000
    N18      N        0.40480    0.53630    0.27450    1.000
    N19      N        0.33130    0.53420    0.34550    1.000
    N20      N        0.28620    0.44410    0.93930    1.000
    N21      N        0.33110    0.42230    0.01470    1.000
    N22      N        0.33570    0.30750    0.34600    1.000
    N23      N        0.72650    0.27350    0.07520    1.000
    N24      N        0.40550    0.30760    0.26860    1.000
    C1       C        0.40140    0.36450    0.13860    1.000
    C2       C        0.29400    0.34360    0.15210    1.000
    C3       C        0.23510    0.32460    0.15760    1.000
    C4       C        0.16220    0.33180    0.14120    1.000
    C5       C        0.14830    0.35800    0.11940    1.000
    C6       C        0.20720    0.37700    0.11390    1.000
    C7       C        0.28010    0.36980    0.13030    1.000
    C8       C        0.06760    0.36260    0.08940    1.000
    C9       C        0.39860    0.47060    0.14740    1.000
    C10      C        0.27840    0.46680    0.13620    1.000
    C11      C        0.20450    0.46080    0.12030    1.000
    C12      C        0.14720    0.48020    0.12880    1.000
    C13      C        0.16370    0.50550    0.15330    1.000
    C14      C        0.23760    0.51150    0.16920    1.000
    C15      C        0.29490    0.49220    0.16070    1.000
    C16      C        0.06230    0.47630    0.10440    1.000
    C17      C        0.58880    0.52880    0.15260    1.000
    C18      C        0.58700    0.49420    0.21010    1.000
    C19      C        0.55500    0.47480    0.24530    1.000
    C20      C        0.59500    0.45100    0.25960    1.000
    C21      C        0.66800    0.44660    0.23870    1.000
    C22      C        0.69960    0.46600    0.20360    1.000
    C23      C        0.65900    0.48980    0.18930    1.000
    C24      C        0.71600    0.41890    0.25100    1.000
    C25      C        0.72370    0.47220    0.05540    1.000
    C26      C        0.81300    0.46100    0.97600    1.000
    C27      C        0.82110    0.48610    0.00890    1.000
    C28      C        0.72250    0.36050    0.05020    1.000
    C29      C        0.79900    0.37060    0.98100    1.000
    C30      C        0.81480    0.34680    0.00280    1.000
    C31      C        0.58600    0.30820    0.14790    1.000
    C32      C        0.57370    0.34390    0.20790    1.000
    C33      C        0.54880    0.36510    0.24200    1.000
    C34      C        0.59800    0.38640    0.25670    1.000
    C35      C        0.67200    0.38650    0.23740    1.000
    C36      C        0.69690    0.36530    0.20330    1.000
    C37      C        0.64780    0.34400    0.18860    1.000
    C38      C        0.57600    0.41380    0.29210    1.000
    C39      C        0.52530    0.41800    0.04140    1.000
    C40      C        0.53620    0.41810    0.12990    1.000
    C41      C        0.52400    0.41830    0.18580    1.000
    C42      C        0.58500    0.41680    0.22140    1.000
    C43      C        0.65860    0.41530    0.20100    1.000
    C44      C        0.67080    0.41510    0.14510    1.000
    C45      C        0.60960    0.41650    0.10950    1.000
    C46      C        0.41200    0.26540    0.11080    1.000
    C47      C        0.39200    0.27860    0.05200    1.000
    C48      C        0.63430    0.44400    0.89950    1.000
    C49      C        0.60360    0.40120    0.89890    1.000
    C50      C        0.58800    0.37390    0.91350    1.000
    C51      C        0.53600    0.35840    0.88300    1.000
    C52      C        0.50000    0.37030    0.83900    1.000
    C53      C        0.51600    0.39760    0.82430    1.000
    C54      C        0.56700    0.41310    0.85430    1.000
    C55      C        0.43600    0.35900    0.79900    1.000
    C56      C        0.34430    0.52490    0.29380    1.000
    C57      C        0.45200    0.55350    0.31400    1.000
    C58      C        0.39300    0.55280    0.35410    1.000
    C59      C        0.30640    0.44680    0.99140    1.000
    C60      C        0.32570    0.40370    0.97490    1.000
    C61      C        0.35970    0.37760    0.97140    1.000
    C62      C        0.36600    0.36440    0.92100    1.000
    C63      C        0.33800    0.37710    0.87460    1.000
    C64      C        0.30400    0.40320    0.87800    1.000
    C65      C        0.29790    0.41640    0.92810    1.000
    C66      C        0.40700    0.33510    0.91600    1.000
    C67      C        0.35500    0.35800    0.82300    1.000
    C68      C        0.33820    0.31070    0.29300    1.000
    C69      C        0.40900    0.30060    0.36070    1.000
    C70      C        0.44930    0.29880    0.31090    1.000
    C71      C        0.67630    0.26430    0.03450    1.000
    C72      C        0.62100    0.27920    0.00200    1.000
    C73      C        0.56500    0.26230    0.97200    1.000
    C74      C        0.46000    0.27800    0.07200    1.000
    Zn7      Zn       0.06856    0.68932    0.69066    1.000
    Zn8      Zn       0.12690    0.58091    0.59006    1.000
    Zn9      Zn       0.06878    0.47284    0.69597    1.000
    Zn10     Zn       0.75607    0.47553    0.60564    1.000
    Zn11     Zn       0.81165    0.58316    0.49938    1.000
    Zn12     Zn       0.75142    0.68918    0.60569    1.000
    N25      N        0.12860    0.65880    0.65740    1.000
    N26      N        0.15380    0.61730    0.62350    1.000
    N27      N        0.15570    0.54660    0.62890    1.000
    N28      N        0.13240    0.50480    0.66840    1.000
    N29      N        0.96010    0.48510    0.68850    1.000
    N30      N        0.84410    0.48720    0.65570    1.000
    N31      N        0.72980    0.50610    0.55260    1.000
    N32      N        0.75830    0.54720    0.51590    1.000
    N33      N        0.76150    0.61930    0.51290    1.000
    N34      N        0.73330    0.66120    0.54960    1.000
    N35      N        0.84120    0.67800    0.65080    1.000
    N36      N        0.96110    0.67860    0.68280    1.000
    N37      N        0.01260    0.58090    0.58760    1.000
    N38      N        0.89850    0.58320    0.55490    1.000
    N39      N        0.08010    0.72660    0.65950    1.000
    N40      N        0.90770    0.55900    0.35540    1.000
    N41      N        0.85750    0.57990    0.42730    1.000
    N42      N        0.09520    0.46370    0.77450    1.000
    N43      N        0.16870    0.46580    0.84550    1.000
    N44      N        0.21380    0.55590    0.43930    1.000
    N45      N        0.16890    0.57770    0.51470    1.000
    N46      N        0.16430    0.69250    0.84600    1.000
    N47      N        0.77350    0.72650    0.57520    1.000
    N48      N        0.09450    0.69240    0.76860    1.000
    C75      C        0.09860    0.63550    0.63860    1.000
    C76      C        0.20600    0.65640    0.65210    1.000
    C77      C        0.26490    0.67540    0.65760    1.000
    C78      C        0.33780    0.66820    0.64120    1.000
    C79      C        0.35170    0.64200    0.61940    1.000
    C80      C        0.29280    0.62300    0.61390    1.000
    C81      C        0.21990    0.63020    0.63030    1.000
    C82      C        0.43240    0.63740    0.58940    1.000
    C83      C        0.10140    0.52940    0.64740    1.000
    C84      C        0.22160    0.53320    0.63620    1.000
    C85      C        0.29550    0.53920    0.62030    1.000
    C86      C        0.35280    0.51980    0.62880    1.000
    C87      C        0.33630    0.49450    0.65330    1.000
    C88      C        0.26240    0.48850    0.66920    1.000
    C89      C        0.20510    0.50780    0.66070    1.000
    C90      C        0.43770    0.52370    0.60440    1.000
    C91      C        0.91120    0.47120    0.65260    1.000
    C92      C        0.91300    0.50580    0.71010    1.000
    C93      C        0.94500    0.52520    0.74530    1.000
    C94      C        0.90500    0.54900    0.75960    1.000
    C95      C        0.83200    0.55340    0.73870    1.000
    C96      C        0.80040    0.53400    0.70360    1.000
    C97      C        0.84100    0.51020    0.68930    1.000
    C98      C        0.78400    0.58110    0.75100    1.000
    C99      C        0.77630    0.52780    0.55540    1.000
    C100     C        0.68700    0.53900    0.47600    1.000
    C101     C        0.67890    0.51390    0.50890    1.000
    C102     C        0.77750    0.63950    0.55020    1.000
    C103     C        0.70100    0.62940    0.48100    1.000
    C104     C        0.68520    0.65320    0.50280    1.000
    C105     C        0.91400    0.69180    0.64790    1.000
    C106     C        0.92630    0.65610    0.70790    1.000
    C107     C        0.95120    0.63490    0.74200    1.000
    C108     C        0.90200    0.61360    0.75670    1.000
    C109     C        0.82800    0.61350    0.73740    1.000
    C110     C        0.80310    0.63470    0.70330    1.000
    C111     C        0.85220    0.65600    0.68860    1.000
    C112     C        0.92400    0.58620    0.79210    1.000
    C113     C        0.97470    0.58200    0.54140    1.000
    C114     C        0.96380    0.58190    0.62990    1.000
    C115     C        0.97600    0.58170    0.68580    1.000
    C116     C        0.91500    0.58320    0.72140    1.000
    C117     C        0.84140    0.58470    0.70100    1.000
    C118     C        0.82920    0.58490    0.64510    1.000
    C119     C        0.89040    0.58350    0.60950    1.000
    C120     C        0.08800    0.73460    0.61080    1.000
    C121     C        0.10800    0.72140    0.55200    1.000
    C122     C        0.86570    0.55600    0.39950    1.000
    C123     C        0.89640    0.59880    0.39890    1.000
    C124     C        0.91200    0.62610    0.41350    1.000
    C125     C        0.96400    0.64160    0.38300    1.000
    C126     C        0.00000    0.62970    0.33900    1.000
    C127     C        0.98400    0.60240    0.32430    1.000
    C128     C        0.93300    0.58690    0.35430    1.000
    C129     C        0.06400    0.64100    0.29900    1.000
    C130     C        0.15570    0.47510    0.79380    1.000
    C131     C        0.04800    0.44650    0.81400    1.000
    C132     C        0.10700    0.44720    0.85410    1.000
    C133     C        0.19360    0.55320    0.49140    1.000
    C134     C        0.17430    0.59630    0.47490    1.000
    C135     C        0.14030    0.62240    0.47140    1.000
    C136     C        0.13400    0.63560    0.42100    1.000
    C137     C        0.16200    0.62290    0.37460    1.000
    C138     C        0.19600    0.59680    0.37800    1.000
    C139     C        0.20210    0.58360    0.42810    1.000
    C140     C        0.09300    0.66490    0.41600    1.000
    C141     C        0.14500    0.64200    0.32300    1.000
    C142     C        0.16180    0.68930    0.79300    1.000
    C143     C        0.09100    0.69940    0.86070    1.000
    C144     C        0.05070    0.70120    0.81090    1.000
    C145     C        0.82370    0.73570    0.53450    1.000
    C146     C        0.87900    0.72080    0.50200    1.000
    C147     C        0.93500    0.73770    0.47200    1.000
    C148     C        0.04000    0.72200    0.57200    1.000
    Zn13     Zn       0.56856    0.81068    0.80934    1.000
    Zn14     Zn       0.62690    0.91909    0.90994    1.000
    Zn15     Zn       0.56878    0.02716    0.80403    1.000
    Zn16     Zn       0.25607    0.02447    0.89436    1.000
    Zn17     Zn       0.31165    0.91684    0.00062    1.000
    Zn18     Zn       0.25142    0.81082    0.89431    1.000
    N49      N        0.62860    0.84120    0.84260    1.000
    N50      N        0.65380    0.88270    0.87650    1.000
    N51      N        0.65570    0.95340    0.87110    1.000
    N52      N        0.63240    0.99520    0.83160    1.000
    N53      N        0.46010    0.01490    0.81150    1.000
    N54      N        0.34410    0.01280    0.84430    1.000
    N55      N        0.22980    0.99390    0.94740    1.000
    N56      N        0.25830    0.95280    0.98410    1.000
    N57      N        0.26150    0.88070    0.98710    1.000
    N58      N        0.23330    0.83880    0.95040    1.000
    N59      N        0.34120    0.82200    0.84920    1.000
    N60      N        0.46110    0.82140    0.81720    1.000
    N61      N        0.51260    0.91910    0.91240    1.000
    N62      N        0.39850    0.91680    0.94510    1.000
    N63      N        0.58010    0.77340    0.84050    1.000
    N64      N        0.40770    0.94100    0.14460    1.000
    N65      N        0.35750    0.92010    0.07270    1.000
    N66      N        0.59520    0.03630    0.72550    1.000
    N67      N        0.66870    0.03420    0.65450    1.000
    N68      N        0.71380    0.94410    0.06070    1.000
    N69      N        0.66890    0.92230    0.98530    1.000
    N70      N        0.66430    0.80750    0.65400    1.000
    N71      N        0.27350    0.77350    0.92480    1.000
    N72      N        0.59450    0.80760    0.73140    1.000
    C149     C        0.59860    0.86450    0.86140    1.000
    C150     C        0.70600    0.84360    0.84790    1.000
    C151     C        0.76490    0.82460    0.84240    1.000
    C152     C        0.83780    0.83180    0.85880    1.000
    C153     C        0.85170    0.85800    0.88060    1.000
    C154     C        0.79280    0.87700    0.88610    1.000
    C155     C        0.71990    0.86980    0.86970    1.000
    C156     C        0.93240    0.86260    0.91060    1.000
    C157     C        0.60140    0.97060    0.85260    1.000
    C158     C        0.72160    0.96680    0.86380    1.000
    C159     C        0.79550    0.96080    0.87970    1.000
    C160     C        0.85280    0.98020    0.87120    1.000
    C161     C        0.83630    0.00550    0.84670    1.000
    C162     C        0.76240    0.01150    0.83080    1.000
    C163     C        0.70510    0.99220    0.83930    1.000
    C164     C        0.93770    0.97630    0.89560    1.000
    C165     C        0.41120    0.02880    0.84740    1.000
    C166     C        0.41300    0.99420    0.78990    1.000
    C167     C        0.44500    0.97480    0.75470    1.000
    C168     C        0.40500    0.95100    0.74040    1.000
    C169     C        0.33200    0.94660    0.76130    1.000
    C170     C        0.30040    0.96600    0.79640    1.000
    C171     C        0.34100    0.98980    0.81070    1.000
    C172     C        0.28400    0.91890    0.74900    1.000
    C173     C        0.27630    0.97220    0.94460    1.000
    C174     C        0.18700    0.96100    0.02400    1.000
    C175     C        0.17890    0.98610    0.99110    1.000
    C176     C        0.27750    0.86050    0.94980    1.000
    C177     C        0.20100    0.87060    0.01900    1.000
    C178     C        0.18520    0.84680    0.99720    1.000
    C179     C        0.41400    0.80820    0.85210    1.000
    C180     C        0.42630    0.84390    0.79210    1.000
    C181     C        0.45120    0.86510    0.75800    1.000
    C182     C        0.40200    0.88640    0.74330    1.000
    C183     C        0.32800    0.88650    0.76260    1.000
    C184     C        0.30310    0.86530    0.79670    1.000
    C185     C        0.35220    0.84400    0.81140    1.000
    C186     C        0.42400    0.91380    0.70790    1.000
    C187     C        0.47470    0.91800    0.95860    1.000
    C188     C        0.46380    0.91810    0.87010    1.000
    C189     C        0.47600    0.91830    0.81420    1.000
    C190     C        0.41500    0.91680    0.77860    1.000
    C191     C        0.34140    0.91530    0.79900    1.000
    C192     C        0.32920    0.91510    0.85490    1.000
    C193     C        0.39040    0.91650    0.89050    1.000
    C194     C        0.58800    0.76540    0.88920    1.000
    C195     C        0.60800    0.77860    0.94800    1.000
    C196     C        0.36570    0.94400    0.10050    1.000
    C197     C        0.39640    0.90120    0.10110    1.000
    C198     C        0.41200    0.87390    0.08650    1.000
    C199     C        0.46400    0.85840    0.11700    1.000
    C200     C        0.50000    0.87030    0.16100    1.000
    C201     C        0.48400    0.89760    0.17570    1.000
    C202     C        0.43300    0.91310    0.14570    1.000
    C203     C        0.56400    0.85900    0.20100    1.000
    C204     C        0.65570    0.02490    0.70620    1.000
    C205     C        0.54800    0.05350    0.68600    1.000
    C206     C        0.60700    0.05280    0.64590    1.000
    C207     C        0.69360    0.94680    0.00860    1.000
    C208     C        0.67430    0.90370    0.02510    1.000
    C209     C        0.64030    0.87760    0.02860    1.000
    C210     C        0.63400    0.86440    0.07900    1.000
    C211     C        0.66200    0.87710    0.12540    1.000
    C212     C        0.69600    0.90320    0.12200    1.000
    C213     C        0.70210    0.91640    0.07190    1.000
    C214     C        0.59300    0.83510    0.08400    1.000
    C215     C        0.64500    0.85800    0.17700    1.000
    C216     C        0.66180    0.81070    0.70700    1.000
    C217     C        0.59100    0.80060    0.63930    1.000
    C218     C        0.55070    0.79880    0.68910    1.000
    C219     C        0.32370    0.76430    0.96550    1.000
    C220     C        0.37900    0.77920    0.99800    1.000
    C221     C        0.43500    0.76230    0.02800    1.000
    C222     C        0.54000    0.77800    0.92800    1.000
    Zn19     Zn       0.93144    0.18932    0.30934    1.000
    Zn20     Zn       0.87310    0.08091    0.40994    1.000
    Zn21     Zn       0.93122    0.97284    0.30403    1.000
    Zn22     Zn       0.24393    0.97553    0.39436    1.000
    Zn23     Zn       0.18835    0.08316    0.50062    1.000
    Zn24     Zn       0.24858    0.18918    0.39431    1.000
    N73      N        0.87140    0.15880    0.34260    1.000
    N74      N        0.84620    0.11730    0.37650    1.000
    N75      N        0.84430    0.04660    0.37110    1.000
    N76      N        0.86760    0.00480    0.33160    1.000
    N77      N        0.03990    0.98510    0.31150    1.000
    N78      N        0.15590    0.98720    0.34430    1.000
    N79      N        0.27020    0.00610    0.44740    1.000
    N80      N        0.24170    0.04720    0.48410    1.000
    N81      N        0.23850    0.11930    0.48710    1.000
    N82      N        0.26670    0.16120    0.45040    1.000
    N83      N        0.15880    0.17800    0.34920    1.000
    N84      N        0.03890    0.17860    0.31720    1.000
    N85      N        0.98740    0.08090    0.41240    1.000
    N86      N        0.10150    0.08320    0.44510    1.000
    N87      N        0.91990    0.22660    0.34050    1.000
    N88      N        0.09230    0.05900    0.64460    1.000
    N89      N        0.14250    0.07990    0.57270    1.000
    N90      N        0.90480    0.96370    0.22550    1.000
    N91      N        0.83130    0.96580    0.15450    1.000
    N92      N        0.78620    0.05590    0.56070    1.000
    N93      N        0.83110    0.07770    0.48530    1.000
    N94      N        0.83570    0.19250    0.15400    1.000
    N95      N        0.22650    0.22650    0.42480    1.000
    N96      N        0.90550    0.19240    0.23140    1.000
    C223     C        0.90140    0.13550    0.36140    1.000
    C224     C        0.79400    0.15640    0.34790    1.000
    C225     C        0.73510    0.17540    0.34240    1.000
    C226     C        0.66220    0.16820    0.35880    1.000
    C227     C        0.64830    0.14200    0.38060    1.000
    C228     C        0.70720    0.12300    0.38610    1.000
    C229     C        0.78010    0.13020    0.36970    1.000
    C230     C        0.56760    0.13740    0.41060    1.000
    C231     C        0.89860    0.02940    0.35260    1.000
    C232     C        0.77840    0.03320    0.36380    1.000
    C233     C        0.70450    0.03920    0.37970    1.000
    C234     C        0.64720    0.01980    0.37120    1.000
    C235     C        0.66370    0.99450    0.34670    1.000
    C236     C        0.73760    0.98850    0.33080    1.000
    C237     C        0.79490    0.00780    0.33930    1.000
    C238     C        0.56230    0.02370    0.39560    1.000
    C239     C        0.08880    0.97120    0.34740    1.000
    C240     C        0.08700    0.00580    0.28990    1.000
    C241     C        0.05500    0.02520    0.25470    1.000
    C242     C        0.09500    0.04900    0.24040    1.000
    C243     C        0.16800    0.05340    0.26130    1.000
    C244     C        0.19960    0.03400    0.29640    1.000
    C245     C        0.15900    0.01020    0.31070    1.000
    C246     C        0.21600    0.08110    0.24900    1.000
    C247     C        0.22370    0.02780    0.44460    1.000
    C248     C        0.31300    0.03900    0.52400    1.000
    C249     C        0.32110    0.01390    0.49110    1.000
    C250     C        0.22250    0.13950    0.44980    1.000
    C251     C        0.29900    0.12940    0.51900    1.000
    C252     C        0.31480    0.15320    0.49720    1.000
    C253     C        0.08600    0.19180    0.35210    1.000
    C254     C        0.07370    0.15610    0.29210    1.000
    C255     C        0.04880    0.13490    0.25800    1.000
    C256     C        0.09800    0.11360    0.24330    1.000
    C257     C        0.17200    0.11350    0.26260    1.000
    C258     C        0.19690    0.13470    0.29670    1.000
    C259     C        0.14780    0.15600    0.31140    1.000
    C260     C        0.07600    0.08620    0.20790    1.000
    C261     C        0.02530    0.08200    0.45860    1.000
    C262     C        0.03620    0.08190    0.37010    1.000
    C263     C        0.02400    0.08170    0.31420    1.000
    C264     C        0.08500    0.08320    0.27860    1.000
    C265     C        0.15860    0.08470    0.29900    1.000
    C266     C        0.17080    0.08490    0.35490    1.000
    C267     C        0.10960    0.08350    0.39050    1.000
    C268     C        0.91200    0.23460    0.38920    1.000
    C269     C        0.89200    0.22140    0.44800    1.000
    C270     C        0.13430    0.05600    0.60050    1.000
    C271     C        0.10360    0.09880    0.60110    1.000
    C272     C        0.08800    0.12610    0.58650    1.000
    C273     C        0.03600    0.14160    0.61700    1.000
    C274     C        0.00000    0.12970    0.66100    1.000
    C275     C        0.01600    0.10240    0.67570    1.000
    C276     C        0.06700    0.08690    0.64570    1.000
    C277     C        0.93600    0.14100    0.70100    1.000
    C278     C        0.84430    0.97510    0.20620    1.000
    C279     C        0.95200    0.94650    0.18600    1.000
    C280     C        0.89300    0.94720    0.14590    1.000
    C281     C        0.80640    0.05320    0.50860    1.000
    C282     C        0.82570    0.09630    0.52510    1.000
    C283     C        0.85970    0.12240    0.52860    1.000
    C284     C        0.86600    0.13560    0.57900    1.000
    C285     C        0.83800    0.12290    0.62540    1.000
    C286     C        0.80400    0.09680    0.62200    1.000
    C287     C        0.79790    0.08360    0.57190    1.000
    C288     C        0.90700    0.16490    0.58400    1.000
    C289     C        0.85500    0.14200    0.67700    1.000
    C290     C        0.83820    0.18930    0.20700    1.000
    C291     C        0.90900    0.19940    0.13930    1.000
    C292     C        0.94930    0.20120    0.18910    1.000
    C293     C        0.17630    0.23570    0.46550    1.000
    C294     C        0.12100    0.22080    0.49800    1.000
    C295     C        0.06500    0.23770    0.52800    1.000
    C296     C        0.96000    0.22200    0.42800    1.000
    Zn25     Zn       0.56856    0.68932    0.80934    1.000
    Zn26     Zn       0.62690    0.58091    0.90994    1.000
    Zn27     Zn       0.56878    0.47284    0.80403    1.000
    Zn28     Zn       0.25607    0.47553    0.89436    1.000
    Zn29     Zn       0.31165    0.58316    0.00062    1.000
    Zn30     Zn       0.25142    0.68918    0.89431    1.000
    N97      N        0.62860    0.65880    0.84260    1.000
    N98      N        0.65380    0.61730    0.87650    1.000
    N99      N        0.65570    0.54660    0.87110    1.000
    N100     N        0.63240    0.50480    0.83160    1.000
    N101     N        0.46010    0.48510    0.81150    1.000
    N102     N        0.34410    0.48720    0.84430    1.000
    N103     N        0.22980    0.50610    0.94740    1.000
    N104     N        0.25830    0.54720    0.98410    1.000
    N105     N        0.26150    0.61930    0.98710    1.000
    N106     N        0.23330    0.66120    0.95040    1.000
    N107     N        0.34120    0.67800    0.84920    1.000
    N108     N        0.46110    0.67860    0.81720    1.000
    N109     N        0.51260    0.58090    0.91240    1.000
    N110     N        0.39850    0.58320    0.94510    1.000
    N111     N        0.58010    0.72660    0.84050    1.000
    N112     N        0.40770    0.55900    0.14460    1.000
    N113     N        0.35750    0.57990    0.07270    1.000
    N114     N        0.59520    0.46370    0.72550    1.000
    N115     N        0.66870    0.46580    0.65450    1.000
    N116     N        0.71380    0.55590    0.06070    1.000
    N117     N        0.66890    0.57770    0.98530    1.000
    N118     N        0.66430    0.69250    0.65400    1.000
    N119     N        0.27350    0.72650    0.92480    1.000
    N120     N        0.59450    0.69240    0.73140    1.000
    C297     C        0.59860    0.63550    0.86140    1.000
    C298     C        0.70600    0.65640    0.84790    1.000
    C299     C        0.76490    0.67540    0.84240    1.000
    C300     C        0.83780    0.66820    0.85880    1.000
    C301     C        0.85170    0.64200    0.88060    1.000
    C302     C        0.79280    0.62300    0.88610    1.000
    C303     C        0.71990    0.63020    0.86970    1.000
    C304     C        0.93240    0.63740    0.91060    1.000
    C305     C        0.60140    0.52940    0.85260    1.000
    C306     C        0.72160    0.53320    0.86380    1.000
    C307     C        0.79550    0.53920    0.87970    1.000
    C308     C        0.85280    0.51980    0.87120    1.000
    C309     C        0.83630    0.49450    0.84670    1.000
    C310     C        0.76240    0.48850    0.83080    1.000
    C311     C        0.70510    0.50780    0.83930    1.000
    C312     C        0.93770    0.52370    0.89560    1.000
    C313     C        0.41120    0.47120    0.84740    1.000
    C314     C        0.41300    0.50580    0.78990    1.000
    C315     C        0.44500    0.52520    0.75470    1.000
    C316     C        0.40500    0.54900    0.74040    1.000
    C317     C        0.33200    0.55340    0.76130    1.000
    C318     C        0.30040    0.53400    0.79640    1.000
    C319     C        0.34100    0.51020    0.81070    1.000
    C320     C        0.28400    0.58110    0.74900    1.000
    C321     C        0.27630    0.52780    0.94460    1.000
    C322     C        0.18700    0.53900    0.02400    1.000
    C323     C        0.17890    0.51390    0.99110    1.000
    C324     C        0.27750    0.63950    0.94980    1.000
    C325     C        0.20100    0.62940    0.01900    1.000
    C326     C        0.18520    0.65320    0.99720    1.000
    C327     C        0.41400    0.69180    0.85210    1.000
    C328     C        0.42630    0.65610    0.79210    1.000
    C329     C        0.45120    0.63490    0.75800    1.000
    C330     C        0.40200    0.61360    0.74330    1.000
    C331     C        0.32800    0.61350    0.76260    1.000
    C332     C        0.30310    0.63470    0.79670    1.000
    C333     C        0.35220    0.65600    0.81140    1.000
    C334     C        0.42400    0.58620    0.70790    1.000
    C335     C        0.47470    0.58200    0.95860    1.000
    C336     C        0.46380    0.58190    0.87010    1.000
    C337     C        0.47600    0.58170    0.81420    1.000
    C338     C        0.41500    0.58320    0.77860    1.000
    C339     C        0.34140    0.58470    0.79900    1.000
    C340     C        0.32920    0.58490    0.85490    1.000
    C341     C        0.39040    0.58350    0.89050    1.000
    C342     C        0.58800    0.73460    0.88920    1.000
    C343     C        0.60800    0.72140    0.94800    1.000
    C344     C        0.36570    0.55600    0.10050    1.000
    C345     C        0.39640    0.59880    0.10110    1.000
    C346     C        0.41200    0.62610    0.08650    1.000
    C347     C        0.46400    0.64160    0.11700    1.000
    C348     C        0.50000    0.62970    0.16100    1.000
    C349     C        0.48400    0.60240    0.17570    1.000
    C350     C        0.43300    0.58690    0.14570    1.000
    C351     C        0.56400    0.64100    0.20100    1.000
    C352     C        0.65570    0.47510    0.70620    1.000
    C353     C        0.54800    0.44650    0.68600    1.000
    C354     C        0.60700    0.44720    0.64590    1.000
    C355     C        0.69360    0.55320    0.00860    1.000
    C356     C        0.67430    0.59630    0.02510    1.000
    C357     C        0.64030    0.62240    0.02860    1.000
    C358     C        0.63400    0.63560    0.07900    1.000
    C359     C        0.66200    0.62290    0.12540    1.000
    C360     C        0.69600    0.59680    0.12200    1.000
    C361     C        0.70210    0.58360    0.07190    1.000
    C362     C        0.59300    0.66490    0.08400    1.000
    C363     C        0.64500    0.64200    0.17700    1.000
    C364     C        0.66180    0.68930    0.70700    1.000
    C365     C        0.59100    0.69940    0.63930    1.000
    C366     C        0.55070    0.70120    0.68910    1.000
    C367     C        0.32370    0.73570    0.96550    1.000
    C368     C        0.37900    0.72080    0.99800    1.000
    C369     C        0.43500    0.73770    0.02800    1.000
    C370     C        0.54000    0.72200    0.92800    1.000
    Zn31     Zn       0.93144    0.31068    0.30934    1.000
    Zn32     Zn       0.87310    0.41909    0.40994    1.000
    Zn33     Zn       0.93122    0.52716    0.30403    1.000
    Zn34     Zn       0.24393    0.52447    0.39436    1.000
    Zn35     Zn       0.18835    0.41684    0.50062    1.000
    Zn36     Zn       0.24858    0.31082    0.39431    1.000
    N121     N        0.87140    0.34120    0.34260    1.000
    N122     N        0.84620    0.38270    0.37650    1.000
    N123     N        0.84430    0.45340    0.37110    1.000
    N124     N        0.86760    0.49520    0.33160    1.000
    N125     N        0.03990    0.51490    0.31150    1.000
    N126     N        0.15590    0.51280    0.34430    1.000
    N127     N        0.27020    0.49390    0.44740    1.000
    N128     N        0.24170    0.45280    0.48410    1.000
    N129     N        0.23850    0.38070    0.48710    1.000
    N130     N        0.26670    0.33880    0.45040    1.000
    N131     N        0.15880    0.32200    0.34920    1.000
    N132     N        0.03890    0.32140    0.31720    1.000
    N133     N        0.98740    0.41910    0.41240    1.000
    N134     N        0.10150    0.41680    0.44510    1.000
    N135     N        0.91990    0.27340    0.34050    1.000
    N136     N        0.09230    0.44100    0.64460    1.000
    N137     N        0.14250    0.42010    0.57270    1.000
    N138     N        0.90480    0.53630    0.22550    1.000
    N139     N        0.83130    0.53420    0.15450    1.000
    N140     N        0.78620    0.44410    0.56070    1.000
    N141     N        0.83110    0.42230    0.48530    1.000
    N142     N        0.83570    0.30750    0.15400    1.000
    N143     N        0.22650    0.27350    0.42480    1.000
    N144     N        0.90550    0.30760    0.23140    1.000
    C371     C        0.90140    0.36450    0.36140    1.000
    C372     C        0.79400    0.34360    0.34790    1.000
    C373     C        0.73510    0.32460    0.34240    1.000
    C374     C        0.66220    0.33180    0.35880    1.000
    C375     C        0.64830    0.35800    0.38060    1.000
    C376     C        0.70720    0.37700    0.38610    1.000
    C377     C        0.78010    0.36980    0.36970    1.000
    C378     C        0.56760    0.36260    0.41060    1.000
    C379     C        0.89860    0.47060    0.35260    1.000
    C380     C        0.77840    0.46680    0.36380    1.000
    C381     C        0.70450    0.46080    0.37970    1.000
    C382     C        0.64720    0.48020    0.37120    1.000
    C383     C        0.66370    0.50550    0.34670    1.000
    C384     C        0.73760    0.51150    0.33080    1.000
    C385     C        0.79490    0.49220    0.33930    1.000
    C386     C        0.56230    0.47630    0.39560    1.000
    C387     C        0.08880    0.52880    0.34740    1.000
    C388     C        0.08700    0.49420    0.28990    1.000
    C389     C        0.05500    0.47480    0.25470    1.000
    C390     C        0.09500    0.45100    0.24040    1.000
    C391     C        0.16800    0.44660    0.26130    1.000
    C392     C        0.19960    0.46600    0.29640    1.000
    C393     C        0.15900    0.48980    0.31070    1.000
    C394     C        0.21600    0.41890    0.24900    1.000
    C395     C        0.22370    0.47220    0.44460    1.000
    C396     C        0.31300    0.46100    0.52400    1.000
    C397     C        0.32110    0.48610    0.49110    1.000
    C398     C        0.22250    0.36050    0.44980    1.000
    C399     C        0.29900    0.37060    0.51900    1.000
    C400     C        0.31480    0.34680    0.49720    1.000
    C401     C        0.08600    0.30820    0.35210    1.000
    C402     C        0.07370    0.34390    0.29210    1.000
    C403     C        0.04880    0.36510    0.25800    1.000
    C404     C        0.09800    0.38640    0.24330    1.000
    C405     C        0.17200    0.38650    0.26260    1.000
    C406     C        0.19690    0.36530    0.29670    1.000
    C407     C        0.14780    0.34400    0.31140    1.000
    C408     C        0.07600    0.41380    0.20790    1.000
    C409     C        0.02530    0.41800    0.45860    1.000
    C410     C        0.03620    0.41810    0.37010    1.000
    C411     C        0.02400    0.41830    0.31420    1.000
    C412     C        0.08500    0.41680    0.27860    1.000
    C413     C        0.15860    0.41530    0.29900    1.000
    C414     C        0.17080    0.41510    0.35490    1.000
    C415     C        0.10960    0.41650    0.39050    1.000
    C416     C        0.91200    0.26540    0.38920    1.000
    C417     C        0.89200    0.27860    0.44800    1.000
    C418     C        0.13430    0.44400    0.60050    1.000
    C419     C        0.10360    0.40120    0.60110    1.000
    C420     C        0.08800    0.37390    0.58650    1.000
    C421     C        0.03600    0.35840    0.61700    1.000
    C422     C        0.00000    0.37030    0.66100    1.000
    C423     C        0.01600    0.39760    0.67570    1.000
    C424     C        0.06700    0.41310    0.64570    1.000
    C425     C        0.93600    0.35900    0.70100    1.000
    C426     C        0.84430    0.52490    0.20620    1.000
    C427     C        0.95200    0.55350    0.18600    1.000
    C428     C        0.89300    0.55280    0.14590    1.000
    C429     C        0.80640    0.44680    0.50860    1.000
    C430     C        0.82570    0.40370    0.52510    1.000
    C431     C        0.85970    0.37760    0.52860    1.000
    C432     C        0.86600    0.36440    0.57900    1.000
    C433     C        0.83800    0.37710    0.62540    1.000
    C434     C        0.80400    0.40320    0.62200    1.000
    C435     C        0.79790    0.41640    0.57190    1.000
    C436     C        0.90700    0.33510    0.58400    1.000
    C437     C        0.85500    0.35800    0.67700    1.000
    C438     C        0.83820    0.31070    0.20700    1.000
    C439     C        0.90900    0.30060    0.13930    1.000
    C440     C        0.94930    0.29880    0.18910    1.000
    C441     C        0.17630    0.26430    0.46550    1.000
    C442     C        0.12100    0.27920    0.49800    1.000
    C443     C        0.06500    0.26230    0.52800    1.000
    C444     C        0.96000    0.27800    0.42800    1.000
    Zn37     Zn       0.43144    0.18932    0.19066    1.000
    Zn38     Zn       0.37310    0.08091    0.09006    1.000
    Zn39     Zn       0.43122    0.97284    0.19597    1.000
    Zn40     Zn       0.74393    0.97553    0.10564    1.000
    Zn41     Zn       0.68835    0.08316    0.99938    1.000
    Zn42     Zn       0.74858    0.18918    0.10569    1.000
    N145     N        0.37140    0.15880    0.15740    1.000
    N146     N        0.34620    0.11730    0.12350    1.000
    N147     N        0.34430    0.04660    0.12890    1.000
    N148     N        0.36760    0.00480    0.16840    1.000
    N149     N        0.53990    0.98510    0.18850    1.000
    N150     N        0.65590    0.98720    0.15570    1.000
    N151     N        0.77020    0.00610    0.05260    1.000
    N152     N        0.74170    0.04720    0.01590    1.000
    N153     N        0.73850    0.11930    0.01290    1.000
    N154     N        0.76670    0.16120    0.04960    1.000
    N155     N        0.65880    0.17800    0.15080    1.000
    N156     N        0.53890    0.17860    0.18280    1.000
    N157     N        0.48740    0.08090    0.08760    1.000
    N158     N        0.60150    0.08320    0.05490    1.000
    N159     N        0.41990    0.22660    0.15950    1.000
    N160     N        0.59230    0.05900    0.85540    1.000
    N161     N        0.64250    0.07990    0.92730    1.000
    N162     N        0.40480    0.96370    0.27450    1.000
    N163     N        0.33130    0.96580    0.34550    1.000
    N164     N        0.28620    0.05590    0.93930    1.000
    N165     N        0.33110    0.07770    0.01470    1.000
    N166     N        0.33570    0.19250    0.34600    1.000
    N167     N        0.72650    0.22650    0.07520    1.000
    N168     N        0.40550    0.19240    0.26860    1.000
    C445     C        0.40140    0.13550    0.13860    1.000
    C446     C        0.29400    0.15640    0.15210    1.000
    C447     C        0.23510    0.17540    0.15760    1.000
    C448     C        0.16220    0.16820    0.14120    1.000
    C449     C        0.14830    0.14200    0.11940    1.000
    C450     C        0.20720    0.12300    0.11390    1.000
    C451     C        0.28010    0.13020    0.13030    1.000
    C452     C        0.06760    0.13740    0.08940    1.000
    C453     C        0.39860    0.02940    0.14740    1.000
    C454     C        0.27840    0.03320    0.13620    1.000
    C455     C        0.20450    0.03920    0.12030    1.000
    C456     C        0.14720    0.01980    0.12880    1.000
    C457     C        0.16370    0.99450    0.15330    1.000
    C458     C        0.23760    0.98850    0.16920    1.000
    C459     C        0.29490    0.00780    0.16070    1.000
    C460     C        0.06230    0.02370    0.10440    1.000
    C461     C        0.58880    0.97120    0.15260    1.000
    C462     C        0.58700    0.00580    0.21010    1.000
    C463     C        0.55500    0.02520    0.24530    1.000
    C464     C        0.59500    0.04900    0.25960    1.000
    C465     C        0.66800    0.05340    0.23870    1.000
    C466     C        0.69960    0.03400    0.20360    1.000
    C467     C        0.65900    0.01020    0.18930    1.000
    C468     C        0.71600    0.08110    0.25100    1.000
    C469     C        0.72370    0.02780    0.05540    1.000
    C470     C        0.81300    0.03900    0.97600    1.000
    C471     C        0.82110    0.01390    0.00890    1.000
    C472     C        0.72250    0.13950    0.05020    1.000
    C473     C        0.79900    0.12940    0.98100    1.000
    C474     C        0.81480    0.15320    0.00280    1.000
    C475     C        0.58600    0.19180    0.14790    1.000
    C476     C        0.57370    0.15610    0.20790    1.000
    C477     C        0.54880    0.13490    0.24200    1.000
    C478     C        0.59800    0.11360    0.25670    1.000
    C479     C        0.67200    0.11350    0.23740    1.000
    C480     C        0.69690    0.13470    0.20330    1.000
    C481     C        0.64780    0.15600    0.18860    1.000
    C482     C        0.57600    0.08620    0.29210    1.000
    C483     C        0.52530    0.08200    0.04140    1.000
    C484     C        0.53620    0.08190    0.12990    1.000
    C485     C        0.52400    0.08170    0.18580    1.000
    C486     C        0.58500    0.08320    0.22140    1.000
    C487     C        0.65860    0.08470    0.20100    1.000
    C488     C        0.67080    0.08490    0.14510    1.000
    C489     C        0.60960    0.08350    0.10950    1.000
    C490     C        0.41200    0.23460    0.11080    1.000
    C491     C        0.39200    0.22140    0.05200    1.000
    C492     C        0.63430    0.05600    0.89950    1.000
    C493     C        0.60360    0.09880    0.89890    1.000
    C494     C        0.58800    0.12610    0.91350    1.000
    C495     C        0.53600    0.14160    0.88300    1.000
    C496     C        0.50000    0.12970    0.83900    1.000
    C497     C        0.51600    0.10240    0.82430    1.000
    C498     C        0.56700    0.08690    0.85430    1.000
    C499     C        0.43600    0.14100    0.79900    1.000
    C500     C        0.34430    0.97510    0.29380    1.000
    C501     C        0.45200    0.94650    0.31400    1.000
    C502     C        0.39300    0.94720    0.35410    1.000
    C503     C        0.30640    0.05320    0.99140    1.000
    C504     C        0.32570    0.09630    0.97490    1.000
    C505     C        0.35970    0.12240    0.97140    1.000
    C506     C        0.36600    0.13560    0.92100    1.000
    C507     C        0.33800    0.12290    0.87460    1.000
    C508     C        0.30400    0.09680    0.87800    1.000
    C509     C        0.29790    0.08360    0.92810    1.000
    C510     C        0.40700    0.16490    0.91600    1.000
    C511     C        0.35500    0.14200    0.82300    1.000
    C512     C        0.33820    0.18930    0.29300    1.000
    C513     C        0.40900    0.19940    0.36070    1.000
    C514     C        0.44930    0.20120    0.31090    1.000
    C515     C        0.67630    0.23570    0.03450    1.000
    C516     C        0.62100    0.22080    0.00200    1.000
    C517     C        0.56500    0.23770    0.97200    1.000
    C518     C        0.46000    0.22200    0.07200    1.000
    Zn43     Zn       0.06856    0.81068    0.69066    1.000
    Zn44     Zn       0.12690    0.91909    0.59006    1.000
    Zn45     Zn       0.06878    0.02716    0.69597    1.000
    Zn46     Zn       0.75607    0.02447    0.60564    1.000
    Zn47     Zn       0.81165    0.91684    0.49938    1.000
    Zn48     Zn       0.75142    0.81082    0.60569    1.000
    N169     N        0.12860    0.84120    0.65740    1.000
    N170     N        0.15380    0.88270    0.62350    1.000
    N171     N        0.15570    0.95340    0.62890    1.000
    N172     N        0.13240    0.99520    0.66840    1.000
    N173     N        0.96010    0.01490    0.68850    1.000
    N174     N        0.84410    0.01280    0.65570    1.000
    N175     N        0.72980    0.99390    0.55260    1.000
    N176     N        0.75830    0.95280    0.51590    1.000
    N177     N        0.76150    0.88070    0.51290    1.000
    N178     N        0.73330    0.83880    0.54960    1.000
    N179     N        0.84120    0.82200    0.65080    1.000
    N180     N        0.96110    0.82140    0.68280    1.000
    N181     N        0.01260    0.91910    0.58760    1.000
    N182     N        0.89850    0.91680    0.55490    1.000
    N183     N        0.08010    0.77340    0.65950    1.000
    N184     N        0.90770    0.94100    0.35540    1.000
    N185     N        0.85750    0.92010    0.42730    1.000
    N186     N        0.09520    0.03630    0.77450    1.000
    N187     N        0.16870    0.03420    0.84550    1.000
    N188     N        0.21380    0.94410    0.43930    1.000
    N189     N        0.16890    0.92230    0.51470    1.000
    N190     N        0.16430    0.80750    0.84600    1.000
    N191     N        0.77350    0.77350    0.57520    1.000
    N192     N        0.09450    0.80760    0.76860    1.000
    C519     C        0.09860    0.86450    0.63860    1.000
    C520     C        0.20600    0.84360    0.65210    1.000
    C521     C        0.26490    0.82460    0.65760    1.000
    C522     C        0.33780    0.83180    0.64120    1.000
    C523     C        0.35170    0.85800    0.61940    1.000
    C524     C        0.29280    0.87700    0.61390    1.000
    C525     C        0.21990    0.86980    0.63030    1.000
    C526     C        0.43240    0.86260    0.58940    1.000
    C527     C        0.10140    0.97060    0.64740    1.000
    C528     C        0.22160    0.96680    0.63620    1.000
    C529     C        0.29550    0.96080    0.62030    1.000
    C530     C        0.35280    0.98020    0.62880    1.000
    C531     C        0.33630    0.00550    0.65330    1.000
    C532     C        0.26240    0.01150    0.66920    1.000
    C533     C        0.20510    0.99220    0.66070    1.000
    C534     C        0.43770    0.97630    0.60440    1.000
    C535     C        0.91120    0.02880    0.65260    1.000
    C536     C        0.91300    0.99420    0.71010    1.000
    C537     C        0.94500    0.97480    0.74530    1.000
    C538     C        0.90500    0.95100    0.75960    1.000
    C539     C        0.83200    0.94660    0.73870    1.000
    C540     C        0.80040    0.96600    0.70360    1.000
    C541     C        0.84100    0.98980    0.68930    1.000
    C542     C        0.78400    0.91890    0.75100    1.000
    C543     C        0.77630    0.97220    0.55540    1.000
    C544     C        0.68700    0.96100    0.47600    1.000
    C545     C        0.67890    0.98610    0.50890    1.000
    C546     C        0.77750    0.86050    0.55020    1.000
    C547     C        0.70100    0.87060    0.48100    1.000
    C548     C        0.68520    0.84680    0.50280    1.000
    C549     C        0.91400    0.80820    0.64790    1.000
    C550     C        0.92630    0.84390    0.70790    1.000
    C551     C        0.95120    0.86510    0.74200    1.000
    C552     C        0.90200    0.88640    0.75670    1.000
    C553     C        0.82800    0.88650    0.73740    1.000
    C554     C        0.80310    0.86530    0.70330    1.000
    C555     C        0.85220    0.84400    0.68860    1.000
    C556     C        0.92400    0.91380    0.79210    1.000
    C557     C        0.97470    0.91800    0.54140    1.000
    C558     C        0.96380    0.91810    0.62990    1.000
    C559     C        0.97600    0.91830    0.68580    1.000
    C560     C        0.91500    0.91680    0.72140    1.000
    C561     C        0.84140    0.91530    0.70100    1.000
    C562     C        0.82920    0.91510    0.64510    1.000
    C563     C        0.89040    0.91650    0.60950    1.000
    C564     C        0.08800    0.76540    0.61080    1.000
    C565     C        0.10800    0.77860    0.55200    1.000
    C566     C        0.86570    0.94400    0.39950    1.000
    C567     C        0.89640    0.90120    0.39890    1.000
    C568     C        0.91200    0.87390    0.41350    1.000
    C569     C        0.96400    0.85840    0.38300    1.000
    C570     C        0.00000    0.87030    0.33900    1.000
    C571     C        0.98400    0.89760    0.32430    1.000
    C572     C        0.93300    0.91310    0.35430    1.000
    C573     C        0.06400    0.85900    0.29900    1.000
    C574     C        0.15570    0.02490    0.79380    1.000
    C575     C        0.04800    0.05350    0.81400    1.000
    C576     C        0.10700    0.05280    0.85410    1.000
    C577     C        0.19360    0.94680    0.49140    1.000
    C578     C        0.17430    0.90370    0.47490    1.000
    C579     C        0.14030    0.87760    0.47140    1.000
    C580     C        0.13400    0.86440    0.42100    1.000
    C581     C        0.16200    0.87710    0.37460    1.000
    C582     C        0.19600    0.90320    0.37800    1.000
    C583     C        0.20210    0.91640    0.42810    1.000
    C584     C        0.09300    0.83510    0.41600    1.000
    C585     C        0.14500    0.85800    0.32300    1.000
    C586     C        0.16180    0.81070    0.79300    1.000
    C587     C        0.09100    0.80060    0.86070    1.000
    C588     C        0.05070    0.79880    0.81090    1.000
    C589     C        0.82370    0.76430    0.53450    1.000
    C590     C        0.87900    0.77920    0.50200    1.000
    C591     C        0.93500    0.76230    0.47200    1.000
    C592     C        0.04000    0.77800    0.57200    1.000
    C593     C        0.42100    0.25000    0.19250    1.000
    C594     C        0.75350    0.25000    0.09730    1.000
    C595     C        0.07900    0.75000    0.69250    1.000
    C596     C        0.74650    0.75000    0.59730    1.000
    C597     C        0.57900    0.75000    0.80750    1.000
    C598     C        0.24650    0.75000    0.90270    1.000
    C599     C        0.92100    0.25000    0.30750    1.000
    C600     C        0.25350    0.25000    0.40270    1.000
