data_functionalizedCrystal
_audit_creation_method	'EQeq! by Chris Wilmer'
_symmetry_space_group_name_H-M	'P1'
_symmetry_Int_Tables_number	1
_symmetry_cell_setting	triclinic
loop_
_symmetry_equiv_pos_as_xyz
  x,y,z
_cell_length_a	14.4155
_cell_length_b	14.4155
_cell_length_c	16.9725
_cell_angle_alpha	90
_cell_angle_beta	90
_cell_angle_gamma	120
loop_
_atom_site_label
_atom_site_type_symbol
_atom_site_fract_x
_atom_site_fract_y
_atom_site_fract_z
_atom_site_charge
Mof_Yb	Yb	0.20254	0.50594	0.38372	1.679
Mof_O 	O 	0.1269	0.544	0.282	-0.531
Mof_O 	O 	0.8735	0.4167	0.9848	-0.436
Mof_O 	O 	0.827	0.5433	0.9736	-0.438
Mof_O 	O 	0.1731	0.7162	0.2948	-0.545
Mof_S 	S 	0.9999	0.5059	0.1336	0.022
Mof_C 	C 	0.8746	0.5018	0.0058	0.289
Mof_C 	C 	0.1254	0.6285	0.2611	0.469
Mof_C 	C 	0.94	0.5596	0.0762	-0.107
Mof_C 	C 	0.0599	0.6193	0.1909	-0.15
Mof_C 	C 	0.0359	0.6959	0.1668	0.017
Mof_C 	C 	0.9653	0.6596	0.1	-0.02
Mof_Yb	Yb	0.49406	0.6966	0.38372	1.68
Mof_O 	O 	0.456	0.5829	0.282	-0.53
Mof_O 	O 	0.5833	0.4568	0.9848	-0.437
Mof_O 	O 	0.4567	0.2837	0.9736	-0.438
Mof_O 	O 	0.2838	0.4569	0.2948	-0.545
Mof_S 	S 	0.4941	0.494	0.1336	0.022
Mof_C 	C 	0.4982	0.3728	0.0058	0.289
Mof_C 	C 	0.3715	0.4969	0.2611	0.469
Mof_C 	C 	0.4404	0.3804	0.0762	-0.107
Mof_C 	C 	0.3807	0.4406	0.1909	-0.15
Mof_C 	C 	0.3041	0.34	0.1668	0.016
Mof_C 	C 	0.3404	0.3057	0.1	-0.019
Mof_Yb	Yb	0.3034	0.79746	0.38372	1.68
Mof_O 	O 	0.4171	0.8731	0.282	-0.53
Mof_O 	O 	0.5432	0.1265	0.9848	-0.436
Mof_O 	O 	0.7163	0.173	0.9736	-0.438
Mof_O 	O 	0.5431	0.8269	0.2948	-0.545
Mof_S 	S 	0.506	0.0001	0.1336	0.022
Mof_C 	C 	0.6272	0.1254	0.0058	0.289
Mof_C 	C 	0.5031	0.8746	0.2611	0.469
Mof_C 	C 	0.6196	0.06	0.0762	-0.107
Mof_C 	C 	0.5594	0.9401	0.1909	-0.15
Mof_C 	C 	0.66	0.9641	0.1668	0.017
Mof_C 	C 	0.6943	0.0347	0.1	-0.019
Mof_Yb	Yb	0.50594	0.20254	0.88372	1.68
Mof_O 	O 	0.544	0.1269	0.782	-0.524
Mof_O 	O 	0.4167	0.8735	0.4848	-0.535
Mof_O 	O 	0.5433	0.827	0.4736	-0.537
Mof_O 	O 	0.7162	0.1731	0.7948	-0.538
Mof_S 	S 	0.5059	0.9999	0.6336	0.063
Mof_C 	C 	0.5018	0.8746	0.5058	0.473
Mof_C 	C 	0.6285	0.1254	0.7611	0.473
Mof_C 	C 	0.5596	0.94	0.5762	-0.151
Mof_C 	C 	0.6193	0.0599	0.6909	-0.151
Mof_C 	C 	0.6959	0.0359	0.6668	0.022
Mof_C 	C 	0.6596	0.9653	0.6	0.021
Mof_Yb	Yb	0.6966	0.49406	0.88372	1.679
Mof_O 	O 	0.5829	0.456	0.782	-0.524
Mof_O 	O 	0.4568	0.5833	0.4848	-0.535
Mof_O 	O 	0.2837	0.4567	0.4736	-0.537
Mof_O 	O 	0.4569	0.2838	0.7948	-0.538
Mof_S 	S 	0.494	0.4941	0.6336	0.065
Mof_C 	C 	0.3728	0.4982	0.5058	0.473
Mof_C 	C 	0.4969	0.3715	0.7611	0.473
Mof_C 	C 	0.3804	0.4404	0.5762	-0.151
Mof_C 	C 	0.4406	0.3807	0.6909	-0.152
Mof_C 	C 	0.34	0.3041	0.6668	0.022
Mof_C 	C 	0.3057	0.3404	0.6	0.022
Mof_Yb	Yb	0.79746	0.3034	0.88372	1.68
Mof_O 	O 	0.8731	0.4171	0.782	-0.524
Mof_O 	O 	0.1265	0.5432	0.4848	-0.535
Mof_O 	O 	0.173	0.7163	0.4736	-0.537
Mof_O 	O 	0.8269	0.5431	0.7948	-0.538
Mof_S 	S 	0.0001	0.506	0.6336	0.064
Mof_C 	C 	0.1254	0.6272	0.5058	0.473
Mof_C 	C 	0.8746	0.5031	0.7611	0.473
Mof_C 	C 	0.06	0.6196	0.5762	-0.151
Mof_C 	C 	0.9401	0.5594	0.6909	-0.151
Mof_C 	C 	0.9641	0.66	0.6668	0.022
Mof_C 	C 	0.0347	0.6943	0.6	0.021
Mof_O 	O 	0.33333	0.66667	0.3841	-0.823
Mof_O 	O 	0.66667	0.33333	0.8841	-0.818
_end
