data_functionalizedCrystal
_audit_creation_method	'EQeq! by Chris Wilmer'
_symmetry_space_group_name_H-M	'P1'
_symmetry_Int_Tables_number	1
_symmetry_cell_setting	triclinic
loop_
_symmetry_equiv_pos_as_xyz
  x,y,z
_cell_length_a	27.0584
_cell_length_b	27.2448
_cell_length_c	27.8802
_cell_angle_alpha	90
_cell_angle_beta	90
_cell_angle_gamma	90
loop_
_atom_site_label
_atom_site_type_symbol
_atom_site_fract_x
_atom_site_fract_y
_atom_site_fract_z
_atom_site_charge
Mof_O 	O 	0.6056	0.894	0.0746	-0.708
Mof_O 	O 	0.6836	0.8111	0.0916	-0.495
Mof_O 	O 	0.9041	0.7512	0.0644	-0.489
Mof_O 	O 	0.6864	0.8606	0.1548	-0.347
Mof_O 	O 	0.9034	0.8161	0.2335	-0.47
Mof_O 	O 	0.8321	0.7215	0.0388	-0.347
Mof_C 	C 	0.7055	0.8311	0.1276	0.343
Mof_C 	C 	0.8318	0.7742	0.1057	-0.16
Mof_C 	C 	0.8566	0.7466	0.0668	0.334
Mof_C 	C 	0.7826	0.8267	0.178	0.044
Mof_C 	C 	0.7577	0.8137	0.1347	-0.155
Mof_C 	C 	0.8563	0.7878	0.1472	0.057
Mof_H 	H 	0.8902	0.7797	0.1509	0.007
Mof_C 	C 	0.832	0.8132	0.1839	-0.142
Mof_C 	C 	0.7814	0.7868	0.1008	0.062
Mof_H 	H 	0.7637	0.7762	0.0732	0.005
Mof_C 	C 	0.8563	0.8284	0.2305	0.306
Mof_O 	O 	0.8345	0.8505	0.2615	-0.388
Mof_H 	H 	0.765	0.851	0.205	0.01
Mof_Mo	Mo	0.57909	0.9285	0.01875	1.116
Mof_Mo	Mo	0.57979	0.95035	0.10993	1.091
Mof_Mo	Mo	0.53328	0.73221	0.05283	1.413
Mof_Mo	Mo	0.53258	0.76798	0.17123	1.143
Mof_Mo	Mo	0.4228	0.74146	0.11191	1.166
Mof_Mo	Mo	0.4677	0.90361	0.96024	1.122
Mof_Mo	Mo	0.55608	0.81383	0.9737	1.391
Mof_Mo	Mo	0.35738	0.81056	0.0944	1.102
Mof_Mo	Mo	0.55284	0.85825	0.19835	1.112
Mof_Mo	Mo	0.38417	0.90553	0.00797	1.1
Mof_Mo	Mo	0.37466	0.93161	0.12743	1.427
Mof_Mo	Mo	0.47554	0.95614	0.17975	1.401
Mof_Zn	Zn	0.46676	0.99211	0.05993	1.211
Mof_Zn	Zn	0.43318	0.78174	0.99027	1.236
Mof_Zn	Zn	0.42121	0.83997	0.20226	1.233
Mof_Zn	Zn	0.61357	0.82307	0.08666	1.237
Mof_P 	P 	0.48491	0.85935	0.08328	0.533
Mof_O 	O 	0.4419	0.9489	0.0086	-0.751
Mof_O 	O 	0.4712	0.7312	0.1618	-0.581
Mof_O 	O 	0.4208	0.852	0.9775	-0.704
Mof_O 	O 	0.532	0.9407	0.9642	-0.717
Mof_O 	O 	0.5098	0.8714	0.0339	-0.46
Mof_O 	O 	0.4289	0.8717	0.0792	-0.455
Mof_O 	O 	0.6008	0.9106	0.1698	-0.479
Mof_O 	O 	0.5973	0.8665	0.9835	-0.649
Mof_O 	O 	0.3982	0.7955	0.1512	-0.712
Mof_O 	O 	0.4926	0.8193	0.2013	-0.71
Mof_O 	O 	0.3995	0.7713	0.0515	-0.709
Mof_O 	O 	0.5096	0.8461	0.9387	-0.656
Mof_O 	O 	0.5035	0.7676	0.9963	-0.764
Mof_O 	O 	0.3401	0.8487	0.0326	-0.484
Mof_O 	O 	0.4908	0.8049	0.0954	-0.462
Mof_O 	O 	0.4195	0.9079	0.179	-0.763
Mof_O 	O 	0.5362	0.9705	0.0576	-0.75
Mof_O 	O 	0.4375	0.9715	0.1203	-0.787
Mof_O 	O 	0.472	0.7094	0.0672	-0.662
Mof_O 	O 	0.5804	0.7867	0.0364	-0.767
Mof_O 	O 	0.5823	0.8154	0.1494	-0.708
Mof_O 	O 	0.3617	0.9455	0.0644	-0.68
Mof_O 	O 	0.5298	0.9847	0.1522	-0.673
Mof_O 	O 	0.5088	0.9141	0.2189	-0.655
Mof_O 	O 	0.5586	0.7309	0.113	-0.661
Mof_O 	O 	0.343	0.8737	0.1298	-0.649
Mof_O 	O 	0.511	0.8908	0.1226	-0.458
Mof_O 	O 	0.8944	0.106	0.5746	-0.707
Mof_O 	O 	0.8164	0.1889	0.5916	-0.494
Mof_O 	O 	0.5959	0.2488	0.5644	-0.488
Mof_O 	O 	0.8136	0.1394	0.6548	-0.346
Mof_O 	O 	0.5966	0.1839	0.7335	-0.468
Mof_O 	O 	0.6679	0.2785	0.5388	-0.346
Mof_C 	C 	0.7945	0.1689	0.6276	0.343
Mof_C 	C 	0.6682	0.2258	0.6057	-0.159
Mof_C 	C 	0.6434	0.2534	0.5668	0.334
Mof_C 	C 	0.7174	0.1733	0.678	0.044
Mof_C 	C 	0.7423	0.1863	0.6347	-0.155
Mof_C 	C 	0.6437	0.2122	0.6472	0.057
Mof_H 	H 	0.6098	0.2203	0.6509	0.008
Mof_C 	C 	0.668	0.1868	0.6839	-0.142
Mof_C 	C 	0.7186	0.2132	0.6008	0.062
Mof_H 	H 	0.7363	0.2238	0.5732	0.005
Mof_C 	C 	0.6437	0.1716	0.7305	0.305
Mof_O 	O 	0.6655	0.1495	0.7615	-0.388
Mof_H 	H 	0.735	0.149	0.705	0.01
Mof_Mo	Mo	0.92091	0.0715	0.51875	1.117
Mof_Mo	Mo	0.92021	0.04965	0.60993	1.092
Mof_Mo	Mo	0.96672	0.26779	0.55283	1.414
Mof_Mo	Mo	0.96742	0.23202	0.67123	1.145
Mof_Mo	Mo	0.0772	0.25854	0.61191	1.165
Mof_Mo	Mo	0.0323	0.09639	0.46024	1.119
Mof_Mo	Mo	0.94392	0.18617	0.4737	1.39
Mof_Mo	Mo	0.14262	0.18944	0.5944	1.102
Mof_Mo	Mo	0.94716	0.14175	0.69835	1.113
Mof_Mo	Mo	0.11583	0.09447	0.50797	1.099
Mof_Mo	Mo	0.12534	0.06839	0.62743	1.427
Mof_Mo	Mo	0.02446	0.04386	0.67975	1.396
Mof_Zn	Zn	0.03324	0.00789	0.55993	1.211
Mof_Zn	Zn	0.06682	0.21826	0.49027	1.236
Mof_Zn	Zn	0.07879	0.16003	0.70226	1.233
Mof_Zn	Zn	0.88643	0.17693	0.58666	1.237
Mof_P 	P 	0.01509	0.14065	0.58328	0.532
Mof_O 	O 	0.0581	0.0511	0.5086	-0.751
Mof_O 	O 	0.0288	0.2688	0.6618	-0.582
Mof_O 	O 	0.0792	0.148	0.4775	-0.704
Mof_O 	O 	0.968	0.0593	0.4642	-0.717
Mof_O 	O 	0.9902	0.1286	0.5339	-0.459
Mof_O 	O 	0.0711	0.1283	0.5792	-0.455
Mof_O 	O 	0.8992	0.0894	0.6698	-0.479
Mof_O 	O 	0.9027	0.1335	0.4835	-0.649
Mof_O 	O 	0.1018	0.2045	0.6512	-0.712
Mof_O 	O 	0.0074	0.1807	0.7013	-0.712
Mof_O 	O 	0.1005	0.2287	0.5515	-0.709
Mof_O 	O 	0.9904	0.1539	0.4387	-0.655
Mof_O 	O 	0.9965	0.2324	0.4963	-0.764
Mof_O 	O 	0.1599	0.1513	0.5326	-0.484
Mof_O 	O 	0.0092	0.1951	0.5954	-0.463
Mof_O 	O 	0.0805	0.0921	0.679	-0.763
Mof_O 	O 	0.9638	0.0295	0.5576	-0.749
Mof_O 	O 	0.0625	0.0285	0.6203	-0.787
Mof_O 	O 	0.028	0.2906	0.5672	-0.663
Mof_O 	O 	0.9196	0.2133	0.5364	-0.767
Mof_O 	O 	0.9177	0.1846	0.6494	-0.708
Mof_O 	O 	0.1383	0.0545	0.5644	-0.68
Mof_O 	O 	0.9702	0.0153	0.6522	-0.671
Mof_O 	O 	0.9912	0.0859	0.7189	-0.654
Mof_O 	O 	0.9414	0.2691	0.613	-0.662
Mof_O 	O 	0.157	0.1263	0.6298	-0.649
Mof_O 	O 	0.989	0.1092	0.6226	-0.457
Mof_O 	O 	0.3944	0.394	0.4254	-0.707
Mof_O 	O 	0.3164	0.3111	0.4084	-0.494
Mof_O 	O 	0.0959	0.2512	0.4356	-0.488
Mof_O 	O 	0.3136	0.3606	0.3452	-0.346
Mof_O 	O 	0.0966	0.3161	0.2665	-0.468
Mof_O 	O 	0.1679	0.2215	0.4612	-0.346
Mof_C 	C 	0.2945	0.3311	0.3724	0.343
Mof_C 	C 	0.1682	0.2742	0.3943	-0.159
Mof_C 	C 	0.1434	0.2466	0.4332	0.334
Mof_C 	C 	0.2174	0.3267	0.322	0.044
Mof_C 	C 	0.2423	0.3137	0.3653	-0.155
Mof_C 	C 	0.1437	0.2878	0.3528	0.057
Mof_H 	H 	0.1098	0.2797	0.3491	0.008
Mof_C 	C 	0.168	0.3132	0.3161	-0.142
Mof_C 	C 	0.2186	0.2868	0.3992	0.062
Mof_H 	H 	0.2363	0.2762	0.4268	0.005
Mof_C 	C 	0.1437	0.3284	0.2695	0.306
Mof_O 	O 	0.1655	0.3505	0.2385	-0.388
Mof_H 	H 	0.235	0.351	0.295	0.01
Mof_Mo	Mo	0.42091	0.4285	0.48125	1.117
Mof_Mo	Mo	0.42021	0.45035	0.39007	1.091
Mof_Mo	Mo	0.46672	0.23221	0.44717	1.413
Mof_Mo	Mo	0.46742	0.26798	0.32877	1.143
Mof_Mo	Mo	0.5772	0.24146	0.38809	1.166
Mof_Mo	Mo	0.5323	0.40361	0.53976	1.122
Mof_Mo	Mo	0.44392	0.31383	0.5263	1.39
Mof_Mo	Mo	0.64262	0.31056	0.4056	1.102
Mof_Mo	Mo	0.44716	0.35825	0.30165	1.112
Mof_Mo	Mo	0.61583	0.40553	0.49203	1.099
Mof_Mo	Mo	0.62534	0.43161	0.37257	1.427
Mof_Mo	Mo	0.52446	0.45614	0.32025	1.401
Mof_Zn	Zn	0.53324	0.49211	0.44007	1.211
Mof_Zn	Zn	0.56682	0.28174	0.50973	1.236
Mof_Zn	Zn	0.57879	0.33997	0.29774	1.233
Mof_Zn	Zn	0.38643	0.32307	0.41334	1.237
Mof_P 	P 	0.51509	0.35935	0.41672	0.533
Mof_O 	O 	0.5581	0.4489	0.4914	-0.751
Mof_O 	O 	0.5288	0.2312	0.3382	-0.581
Mof_O 	O 	0.5792	0.352	0.5225	-0.704
Mof_O 	O 	0.468	0.4407	0.5358	-0.718
Mof_O 	O 	0.4902	0.3714	0.4661	-0.459
Mof_O 	O 	0.5711	0.3717	0.4208	-0.455
Mof_O 	O 	0.3992	0.4106	0.3302	-0.479
Mof_O 	O 	0.4027	0.3665	0.5165	-0.65
Mof_O 	O 	0.6018	0.2955	0.3488	-0.712
Mof_O 	O 	0.5074	0.3193	0.2987	-0.71
Mof_O 	O 	0.6005	0.2713	0.4485	-0.709
Mof_O 	O 	0.4904	0.3461	0.5613	-0.656
Mof_O 	O 	0.4965	0.2676	0.5037	-0.764
Mof_O 	O 	0.6599	0.3487	0.4674	-0.484
Mof_O 	O 	0.5092	0.3049	0.4046	-0.462
Mof_O 	O 	0.5805	0.4079	0.321	-0.763
Mof_O 	O 	0.4638	0.4705	0.4424	-0.75
Mof_O 	O 	0.5625	0.4715	0.3797	-0.787
Mof_O 	O 	0.528	0.2094	0.4328	-0.662
Mof_O 	O 	0.4196	0.2867	0.4636	-0.767
Mof_O 	O 	0.4177	0.3154	0.3506	-0.708
Mof_O 	O 	0.6383	0.4455	0.4356	-0.68
Mof_O 	O 	0.4702	0.4847	0.3478	-0.673
Mof_O 	O 	0.4912	0.4141	0.2811	-0.655
Mof_O 	O 	0.4414	0.2309	0.387	-0.661
Mof_O 	O 	0.657	0.3737	0.3702	-0.649
Mof_O 	O 	0.489	0.3908	0.3774	-0.458
Mof_O 	O 	0.1056	0.606	0.9254	-0.707
Mof_O 	O 	0.1836	0.6889	0.9084	-0.494
Mof_O 	O 	0.4041	0.7488	0.9356	-0.488
Mof_O 	O 	0.1864	0.6394	0.8452	-0.346
Mof_O 	O 	0.4034	0.6839	0.7665	-0.468
Mof_O 	O 	0.3321	0.7785	0.9612	-0.346
Mof_C 	C 	0.2055	0.6689	0.8724	0.343
Mof_C 	C 	0.3318	0.7258	0.8943	-0.159
Mof_C 	C 	0.3566	0.7534	0.9332	0.334
Mof_C 	C 	0.2826	0.6733	0.822	0.044
Mof_C 	C 	0.2577	0.6863	0.8653	-0.155
Mof_C 	C 	0.3563	0.7122	0.8528	0.057
Mof_H 	H 	0.3902	0.7203	0.8491	0.008
Mof_C 	C 	0.332	0.6868	0.8161	-0.142
Mof_C 	C 	0.2814	0.7132	0.8992	0.062
Mof_H 	H 	0.2637	0.7238	0.9268	0.005
Mof_C 	C 	0.3563	0.6716	0.7695	0.306
Mof_O 	O 	0.3345	0.6495	0.7385	-0.388
Mof_H 	H 	0.265	0.649	0.795	0.01
Mof_Mo	Mo	0.07909	0.5715	0.98125	1.115
Mof_Mo	Mo	0.07979	0.54965	0.89007	1.092
Mof_Mo	Mo	0.03328	0.76779	0.94717	1.411
Mof_Mo	Mo	0.03258	0.73202	0.82877	1.143
Mof_Mo	Mo	0.9228	0.75854	0.88809	1.166
Mof_Mo	Mo	0.9677	0.59639	0.03976	1.118
Mof_Mo	Mo	0.05608	0.68617	0.0263	1.391
Mof_Mo	Mo	0.85738	0.68944	0.9056	1.102
Mof_Mo	Mo	0.05284	0.64175	0.80165	1.112
Mof_Mo	Mo	0.88417	0.59447	0.99203	1.102
Mof_Mo	Mo	0.87466	0.56839	0.87257	1.427
Mof_Mo	Mo	0.97554	0.54386	0.82025	1.402
Mof_Zn	Zn	0.96676	0.50789	0.94007	1.211
Mof_Zn	Zn	0.93318	0.71826	0.00973	1.235
Mof_Zn	Zn	0.92121	0.66003	0.79774	1.233
Mof_Zn	Zn	0.11357	0.67693	0.91334	1.237
Mof_P 	P 	0.98491	0.64065	0.91672	0.534
Mof_O 	O 	0.9419	0.5511	0.9914	-0.75
Mof_O 	O 	0.9712	0.7688	0.8382	-0.581
Mof_O 	O 	0.9208	0.648	0.0225	-0.705
Mof_O 	O 	0.032	0.5593	0.0358	-0.716
Mof_O 	O 	0.0098	0.6286	0.9661	-0.46
Mof_O 	O 	0.9289	0.6283	0.9208	-0.455
Mof_O 	O 	0.1008	0.5894	0.8302	-0.479
Mof_O 	O 	0.0973	0.6335	0.0165	-0.649
Mof_O 	O 	0.8982	0.7045	0.8488	-0.712
Mof_O 	O 	0.9926	0.6807	0.7987	-0.71
Mof_O 	O 	0.8995	0.7287	0.9485	-0.709
Mof_O 	O 	0.0096	0.6539	0.0613	-0.655
Mof_O 	O 	0.0035	0.7324	0.0037	-0.763
Mof_O 	O 	0.8401	0.6513	0.9674	-0.484
Mof_O 	O 	0.9908	0.6951	0.9046	-0.462
Mof_O 	O 	0.9195	0.5921	0.821	-0.763
Mof_O 	O 	0.0362	0.5295	0.9424	-0.75
Mof_O 	O 	0.9375	0.5285	0.8797	-0.787
Mof_O 	O 	0.972	0.7906	0.9328	-0.662
Mof_O 	O 	0.0804	0.7133	0.9636	-0.767
Mof_O 	O 	0.0823	0.6846	0.8506	-0.708
Mof_O 	O 	0.8617	0.5545	0.9356	-0.68
Mof_O 	O 	0.0298	0.5153	0.8478	-0.673
Mof_O 	O 	0.0088	0.5859	0.7811	-0.656
Mof_O 	O 	0.0586	0.7691	0.887	-0.661
Mof_O 	O 	0.843	0.6263	0.8702	-0.649
Mof_O 	O 	0.011	0.6092	0.8774	-0.459
Mof_O 	O 	0.3944	0.106	0.9254	-0.707
Mof_O 	O 	0.3164	0.1889	0.9084	-0.494
Mof_O 	O 	0.0959	0.2488	0.9356	-0.488
Mof_O 	O 	0.3136	0.1394	0.8452	-0.346
Mof_O 	O 	0.0966	0.1839	0.7665	-0.469
Mof_O 	O 	0.1679	0.2785	0.9612	-0.346
Mof_C 	C 	0.2945	0.1689	0.8724	0.343
Mof_C 	C 	0.1682	0.2258	0.8943	-0.16
Mof_C 	C 	0.1434	0.2534	0.9332	0.334
Mof_C 	C 	0.2174	0.1733	0.822	0.044
Mof_C 	C 	0.2423	0.1863	0.8653	-0.155
Mof_C 	C 	0.1437	0.2122	0.8528	0.057
Mof_H 	H 	0.1098	0.2203	0.8491	0.007
Mof_C 	C 	0.168	0.1868	0.8161	-0.142
Mof_C 	C 	0.2186	0.2132	0.8992	0.062
Mof_H 	H 	0.2363	0.2238	0.9268	0.005
Mof_C 	C 	0.1437	0.1716	0.7695	0.306
Mof_O 	O 	0.1655	0.1495	0.7385	-0.388
Mof_H 	H 	0.235	0.149	0.795	0.01
Mof_Mo	Mo	0.42091	0.0715	0.98125	1.116
Mof_Mo	Mo	0.42021	0.04965	0.89007	1.091
Mof_Mo	Mo	0.46672	0.26779	0.94717	1.413
Mof_Mo	Mo	0.46742	0.23202	0.82877	1.143
Mof_Mo	Mo	0.5772	0.25854	0.88809	1.166
Mof_Mo	Mo	0.5323	0.09639	0.03976	1.122
Mof_Mo	Mo	0.44392	0.18617	0.0263	1.391
Mof_Mo	Mo	0.64262	0.18944	0.9056	1.102
Mof_Mo	Mo	0.44716	0.14175	0.80165	1.112
Mof_Mo	Mo	0.61583	0.09447	0.99203	1.1
Mof_Mo	Mo	0.62534	0.06839	0.87257	1.427
Mof_Mo	Mo	0.52446	0.04386	0.82025	1.401
Mof_Zn	Zn	0.53324	0.00789	0.94007	1.211
Mof_Zn	Zn	0.56682	0.21826	0.00973	1.236
Mof_Zn	Zn	0.57879	0.16003	0.79774	1.233
Mof_Zn	Zn	0.38643	0.17693	0.91334	1.237
Mof_P 	P 	0.51509	0.14065	0.91672	0.533
Mof_O 	O 	0.5581	0.0511	0.9914	-0.751
Mof_O 	O 	0.5288	0.2688	0.8382	-0.581
Mof_O 	O 	0.5792	0.148	0.0225	-0.704
Mof_O 	O 	0.468	0.0593	0.0358	-0.717
Mof_O 	O 	0.4902	0.1286	0.9661	-0.46
Mof_O 	O 	0.5711	0.1283	0.9208	-0.455
Mof_O 	O 	0.3992	0.0894	0.8302	-0.479
Mof_O 	O 	0.4027	0.1335	0.0165	-0.649
Mof_O 	O 	0.6018	0.2045	0.8488	-0.712
Mof_O 	O 	0.5074	0.1807	0.7987	-0.71
Mof_O 	O 	0.6005	0.2287	0.9485	-0.709
Mof_O 	O 	0.4904	0.1539	0.0613	-0.656
Mof_O 	O 	0.4965	0.2324	0.0037	-0.764
Mof_O 	O 	0.6599	0.1513	0.9674	-0.484
Mof_O 	O 	0.5092	0.1951	0.9046	-0.462
Mof_O 	O 	0.5805	0.0921	0.821	-0.763
Mof_O 	O 	0.4638	0.0295	0.9424	-0.75
Mof_O 	O 	0.5625	0.0285	0.8797	-0.787
Mof_O 	O 	0.528	0.2906	0.9328	-0.662
Mof_O 	O 	0.4196	0.2133	0.9636	-0.767
Mof_O 	O 	0.4177	0.1846	0.8506	-0.708
Mof_O 	O 	0.6383	0.0545	0.9356	-0.68
Mof_O 	O 	0.4702	0.0153	0.8478	-0.673
Mof_O 	O 	0.4912	0.0859	0.7811	-0.655
Mof_O 	O 	0.4414	0.2691	0.887	-0.661
Mof_O 	O 	0.657	0.1263	0.8702	-0.649
Mof_O 	O 	0.489	0.1092	0.8774	-0.458
Mof_O 	O 	0.1056	0.894	0.4254	-0.707
Mof_O 	O 	0.1836	0.8111	0.4084	-0.494
Mof_O 	O 	0.4041	0.7512	0.4356	-0.488
Mof_O 	O 	0.1864	0.8606	0.3452	-0.346
Mof_O 	O 	0.4034	0.8161	0.2665	-0.468
Mof_O 	O 	0.3321	0.7215	0.4612	-0.346
Mof_C 	C 	0.2055	0.8311	0.3724	0.343
Mof_C 	C 	0.3318	0.7742	0.3943	-0.159
Mof_C 	C 	0.3566	0.7466	0.4332	0.334
Mof_C 	C 	0.2826	0.8267	0.322	0.044
Mof_C 	C 	0.2577	0.8137	0.3653	-0.155
Mof_C 	C 	0.3563	0.7878	0.3528	0.057
Mof_H 	H 	0.3902	0.7797	0.3491	0.008
Mof_C 	C 	0.332	0.8132	0.3161	-0.142
Mof_C 	C 	0.2814	0.7868	0.3992	0.062
Mof_H 	H 	0.2637	0.7762	0.4268	0.005
Mof_C 	C 	0.3563	0.8284	0.2695	0.305
Mof_O 	O 	0.3345	0.8505	0.2385	-0.388
Mof_H 	H 	0.265	0.851	0.295	0.01
Mof_Mo	Mo	0.07909	0.9285	0.48125	1.117
Mof_Mo	Mo	0.07979	0.95035	0.39007	1.092
Mof_Mo	Mo	0.03328	0.73221	0.44717	1.414
Mof_Mo	Mo	0.03258	0.76798	0.32877	1.145
Mof_Mo	Mo	0.9228	0.74146	0.38809	1.165
Mof_Mo	Mo	0.9677	0.90361	0.53976	1.119
Mof_Mo	Mo	0.05608	0.81383	0.5263	1.39
Mof_Mo	Mo	0.85738	0.81056	0.4056	1.102
Mof_Mo	Mo	0.05284	0.85825	0.30165	1.113
Mof_Mo	Mo	0.88417	0.90553	0.49203	1.099
Mof_Mo	Mo	0.87466	0.93161	0.37257	1.427
Mof_Mo	Mo	0.97554	0.95614	0.32025	1.396
Mof_Zn	Zn	0.96676	0.99211	0.44007	1.211
Mof_Zn	Zn	0.93318	0.78174	0.50973	1.236
Mof_Zn	Zn	0.92121	0.83997	0.29774	1.233
Mof_Zn	Zn	0.11357	0.82307	0.41334	1.237
Mof_P 	P 	0.98491	0.85935	0.41672	0.532
Mof_O 	O 	0.9419	0.9489	0.4914	-0.751
Mof_O 	O 	0.9712	0.7312	0.3382	-0.582
Mof_O 	O 	0.9208	0.852	0.5225	-0.704
Mof_O 	O 	0.032	0.9407	0.5358	-0.717
Mof_O 	O 	0.0098	0.8714	0.4661	-0.459
Mof_O 	O 	0.9289	0.8717	0.4208	-0.455
Mof_O 	O 	0.1008	0.9106	0.3302	-0.479
Mof_O 	O 	0.0973	0.8665	0.5165	-0.649
Mof_O 	O 	0.8982	0.7955	0.3488	-0.712
Mof_O 	O 	0.9926	0.8193	0.2987	-0.712
Mof_O 	O 	0.8995	0.7713	0.4485	-0.709
Mof_O 	O 	0.0096	0.8461	0.5613	-0.655
Mof_O 	O 	0.0035	0.7676	0.5037	-0.764
Mof_O 	O 	0.8401	0.8487	0.4674	-0.484
Mof_O 	O 	0.9908	0.8049	0.4046	-0.463
Mof_O 	O 	0.9195	0.9079	0.321	-0.763
Mof_O 	O 	0.0362	0.9705	0.4424	-0.749
Mof_O 	O 	0.9375	0.9715	0.3797	-0.787
Mof_O 	O 	0.972	0.7094	0.4328	-0.663
Mof_O 	O 	0.0804	0.7867	0.4636	-0.767
Mof_O 	O 	0.0823	0.8154	0.3506	-0.708
Mof_O 	O 	0.8617	0.9455	0.4356	-0.68
Mof_O 	O 	0.0298	0.9847	0.3478	-0.671
Mof_O 	O 	0.0088	0.9141	0.2811	-0.654
Mof_O 	O 	0.0586	0.7309	0.387	-0.662
Mof_O 	O 	0.843	0.8737	0.3702	-0.649
Mof_O 	O 	0.011	0.8908	0.3774	-0.457
Mof_O 	O 	0.6056	0.606	0.5746	-0.707
Mof_O 	O 	0.6836	0.6889	0.5916	-0.494
Mof_O 	O 	0.9041	0.7488	0.5644	-0.488
Mof_O 	O 	0.6864	0.6394	0.6548	-0.346
Mof_O 	O 	0.9034	0.6839	0.7335	-0.468
Mof_O 	O 	0.8321	0.7785	0.5388	-0.346
Mof_C 	C 	0.7055	0.6689	0.6276	0.343
Mof_C 	C 	0.8318	0.7258	0.6057	-0.159
Mof_C 	C 	0.8566	0.7534	0.5668	0.334
Mof_C 	C 	0.7826	0.6733	0.678	0.044
Mof_C 	C 	0.7577	0.6863	0.6347	-0.155
Mof_C 	C 	0.8563	0.7122	0.6472	0.057
Mof_H 	H 	0.8902	0.7203	0.6509	0.008
Mof_C 	C 	0.832	0.6868	0.6839	-0.142
Mof_C 	C 	0.7814	0.7132	0.6008	0.062
Mof_H 	H 	0.7637	0.7238	0.5732	0.005
Mof_C 	C 	0.8563	0.6716	0.7305	0.306
Mof_O 	O 	0.8345	0.6495	0.7615	-0.388
Mof_H 	H 	0.765	0.649	0.705	0.01
Mof_Mo	Mo	0.57909	0.5715	0.51875	1.117
Mof_Mo	Mo	0.57979	0.54965	0.60993	1.091
Mof_Mo	Mo	0.53328	0.76779	0.55283	1.413
Mof_Mo	Mo	0.53258	0.73202	0.67123	1.143
Mof_Mo	Mo	0.4228	0.75854	0.61191	1.166
Mof_Mo	Mo	0.4677	0.59639	0.46024	1.122
Mof_Mo	Mo	0.55608	0.68617	0.4737	1.39
Mof_Mo	Mo	0.35738	0.68944	0.5944	1.102
Mof_Mo	Mo	0.55284	0.64175	0.69835	1.112
Mof_Mo	Mo	0.38417	0.59447	0.50797	1.099
Mof_Mo	Mo	0.37466	0.56839	0.62743	1.427
Mof_Mo	Mo	0.47554	0.54386	0.67975	1.401
Mof_Zn	Zn	0.46676	0.50789	0.55993	1.211
Mof_Zn	Zn	0.43318	0.71826	0.49027	1.236
Mof_Zn	Zn	0.42121	0.66003	0.70226	1.233
Mof_Zn	Zn	0.61357	0.67693	0.58666	1.237
Mof_P 	P 	0.48491	0.64065	0.58328	0.533
Mof_O 	O 	0.4419	0.5511	0.5086	-0.751
Mof_O 	O 	0.4712	0.7688	0.6618	-0.581
Mof_O 	O 	0.4208	0.648	0.4775	-0.704
Mof_O 	O 	0.532	0.5593	0.4642	-0.718
Mof_O 	O 	0.5098	0.6286	0.5339	-0.459
Mof_O 	O 	0.4289	0.6283	0.5792	-0.455
Mof_O 	O 	0.6008	0.5894	0.6698	-0.479
Mof_O 	O 	0.5973	0.6335	0.4835	-0.65
Mof_O 	O 	0.3982	0.7045	0.6512	-0.712
Mof_O 	O 	0.4926	0.6807	0.7013	-0.71
Mof_O 	O 	0.3995	0.7287	0.5515	-0.709
Mof_O 	O 	0.5096	0.6539	0.4387	-0.656
Mof_O 	O 	0.5035	0.7324	0.4963	-0.764
Mof_O 	O 	0.3401	0.6513	0.5326	-0.484
Mof_O 	O 	0.4908	0.6951	0.5954	-0.462
Mof_O 	O 	0.4195	0.5921	0.679	-0.763
Mof_O 	O 	0.5362	0.5295	0.5576	-0.75
Mof_O 	O 	0.4375	0.5285	0.6203	-0.787
Mof_O 	O 	0.472	0.7906	0.5672	-0.662
Mof_O 	O 	0.5804	0.7133	0.5364	-0.767
Mof_O 	O 	0.5823	0.6846	0.6494	-0.708
Mof_O 	O 	0.3617	0.5545	0.5644	-0.68
Mof_O 	O 	0.5298	0.5153	0.6522	-0.673
Mof_O 	O 	0.5088	0.5859	0.7189	-0.655
Mof_O 	O 	0.5586	0.7691	0.613	-0.661
Mof_O 	O 	0.343	0.6263	0.6298	-0.649
Mof_O 	O 	0.511	0.6092	0.6226	-0.458
Mof_O 	O 	0.8944	0.394	0.0746	-0.707
Mof_O 	O 	0.8164	0.3111	0.0916	-0.494
Mof_O 	O 	0.5959	0.2512	0.0644	-0.488
Mof_O 	O 	0.8136	0.3606	0.1548	-0.346
Mof_O 	O 	0.5966	0.3161	0.2335	-0.468
Mof_O 	O 	0.6679	0.2215	0.0388	-0.346
Mof_C 	C 	0.7945	0.3311	0.1276	0.343
Mof_C 	C 	0.6682	0.2742	0.1057	-0.159
Mof_C 	C 	0.6434	0.2466	0.0668	0.334
Mof_C 	C 	0.7174	0.3267	0.178	0.044
Mof_C 	C 	0.7423	0.3137	0.1347	-0.155
Mof_C 	C 	0.6437	0.2878	0.1472	0.057
Mof_H 	H 	0.6098	0.2797	0.1509	0.008
Mof_C 	C 	0.668	0.3132	0.1839	-0.142
Mof_C 	C 	0.7186	0.2868	0.1008	0.062
Mof_H 	H 	0.7363	0.2762	0.0732	0.005
Mof_C 	C 	0.6437	0.3284	0.2305	0.306
Mof_O 	O 	0.6655	0.3505	0.2615	-0.388
Mof_H 	H 	0.735	0.351	0.205	0.01
Mof_Mo	Mo	0.92091	0.4285	0.01875	1.115
Mof_Mo	Mo	0.92021	0.45035	0.10993	1.092
Mof_Mo	Mo	0.96672	0.23221	0.05283	1.411
Mof_Mo	Mo	0.96742	0.26798	0.17123	1.143
Mof_Mo	Mo	0.0772	0.24146	0.11191	1.166
Mof_Mo	Mo	0.0323	0.40361	0.96024	1.118
Mof_Mo	Mo	0.94392	0.31383	0.9737	1.391
Mof_Mo	Mo	0.14262	0.31056	0.0944	1.102
Mof_Mo	Mo	0.94716	0.35825	0.19835	1.112
Mof_Mo	Mo	0.11583	0.40553	0.00797	1.102
Mof_Mo	Mo	0.12534	0.43161	0.12743	1.427
Mof_Mo	Mo	0.02446	0.45614	0.17975	1.402
Mof_Zn	Zn	0.03324	0.49211	0.05993	1.211
Mof_Zn	Zn	0.06682	0.28174	0.99027	1.235
Mof_Zn	Zn	0.07879	0.33997	0.20226	1.233
Mof_Zn	Zn	0.88643	0.32307	0.08666	1.237
Mof_P 	P 	0.01509	0.35935	0.08328	0.534
Mof_O 	O 	0.0581	0.4489	0.0086	-0.75
Mof_O 	O 	0.0288	0.2312	0.1618	-0.581
Mof_O 	O 	0.0792	0.352	0.9775	-0.705
Mof_O 	O 	0.968	0.4407	0.9642	-0.716
Mof_O 	O 	0.9902	0.3714	0.0339	-0.46
Mof_O 	O 	0.0711	0.3717	0.0792	-0.455
Mof_O 	O 	0.8992	0.4106	0.1698	-0.479
Mof_O 	O 	0.9027	0.3665	0.9835	-0.649
Mof_O 	O 	0.1018	0.2955	0.1512	-0.712
Mof_O 	O 	0.0074	0.3193	0.2013	-0.71
Mof_O 	O 	0.1005	0.2713	0.0515	-0.709
Mof_O 	O 	0.9904	0.3461	0.9387	-0.655
Mof_O 	O 	0.9965	0.2676	0.9963	-0.763
Mof_O 	O 	0.1599	0.3487	0.0326	-0.484
Mof_O 	O 	0.0092	0.3049	0.0954	-0.462
Mof_O 	O 	0.0805	0.4079	0.179	-0.763
Mof_O 	O 	0.9638	0.4705	0.0576	-0.75
Mof_O 	O 	0.0625	0.4715	0.1203	-0.787
Mof_O 	O 	0.028	0.2094	0.0672	-0.662
Mof_O 	O 	0.9196	0.2867	0.0364	-0.767
Mof_O 	O 	0.9177	0.3154	0.1494	-0.708
Mof_O 	O 	0.1383	0.4455	0.0644	-0.68
Mof_O 	O 	0.9702	0.4847	0.1522	-0.673
Mof_O 	O 	0.9912	0.4141	0.2189	-0.656
Mof_O 	O 	0.9414	0.2309	0.113	-0.661
Mof_O 	O 	0.157	0.3737	0.1298	-0.649
Mof_O 	O 	0.989	0.3908	0.1226	-0.459
_end
