# CIF file generated by openbabel 3.1.0, see https://openbabel.org
data_I
_chemical_name_common 'image0'
_cell_length_a 10.4425
_cell_length_b 11.4902
_cell_length_c 12.9208
_cell_angle_alpha 106.462
_cell_angle_beta 90.503
_cell_angle_gamma 93.335
_space_group_name_H-M_alt 'P 1'
_space_group_name_Hall 'P 1'
loop_
    _symmetry_equiv_pos_as_xyz
    x,y,z
loop_
    _atom_site_label
    _atom_site_type_symbol
    _atom_site_fract_x
    _atom_site_fract_y
    _atom_site_fract_z
    _atom_site_occupancy
    Pr1      Pr       0.52681    0.54603    0.66480    1.000
    O1       O        0.61501    0.72305    0.81615    1.000
    O2       O        0.40551    0.71511    0.78492    1.000
    O3       O        0.64775    0.49032    0.49085    1.000
    O4       O        0.71430    0.52830    0.34338    1.000
    O5       O        0.51270    0.32824    0.58583    1.000
    O6       O        0.46010    0.27423    0.41012    1.000
    C1       C        0.50680    0.76760    0.83350    1.000
    C2       C        0.50050    0.88860    0.91840    1.000
    C3       C        0.55400    0.99480    0.89850    1.000
    C4       C        0.60480    0.99500    0.79570    1.000
    H1       H        0.60400    0.92090    0.73940    1.000
    C5       C        0.65430    0.09970    0.77750    1.000
    H2       H        0.68670    0.09800    0.70860    1.000
    C6       C        0.65750    0.21160    0.86140    1.000
    H3       H        0.69350    0.28390    0.84830    1.000
    C7       C        0.60970    0.21580    0.95970    1.000
    H4       H        0.61250    0.29120    0.01460    1.000
    C8       C        0.55480    0.10810    0.98210    1.000
    C9       C        0.73490    0.51140    0.43410    1.000
    C10      C        0.87200    0.50610    0.46810    1.000
    C11      C        0.92590    0.59580    0.55710    1.000
    C12      C        0.85540    0.69570    0.61640    1.000
    H5       H        0.76990    0.70240    0.59410    1.000
    C13      C        0.90830    0.78070    0.70380    1.000
    H6       H        0.85870    0.84460    0.74310    1.000
    C14      C        0.03780    0.77530    0.73720    1.000
    H7       H        0.07460    0.83630    0.79770    1.000
    C15      C        0.10900    0.68280    0.68240    1.000
    H8       H        0.19500    0.67980    0.70560    1.000
    C16      C        0.05640    0.59010    0.59080    1.000
    C17      C        0.48820    0.25200    0.49580    1.000
    C18      C        0.49370    0.12050    0.49540    1.000
    C19      C        0.38670    0.06170    0.52800    1.000
    C20      C        0.27090    0.12140    0.55460    1.000
    H9       H        0.26700    0.20350    0.55360    1.000
    C21      C        0.16550    0.06170    0.58160    1.000
    H10      H        0.08760    0.10130    0.59640    1.000
    C22      C        0.17130    0.94120    0.58780    1.000
    H11      H        0.09840    0.90190    0.61000    1.000
    C23      C        0.27960    0.88120    0.56240    1.000
    H12      H        0.28020    0.79940    0.56490    1.000
    C24      C        0.39490    0.93850    0.53150    1.000
    C25      C        0.38000    0.05400    0.50490    1.000
    C26      C        0.25340    0.09930    0.51300    1.000
    H13      H        0.24310    0.18000    0.51030    1.000
    C27      C        0.14990    0.02960    0.52440    1.000
    H14      H        0.06800    0.06240    0.53000    1.000
    C28      C        0.15950    0.90730    0.52820    1.000
    H15      H        0.08430    0.86030    0.53610    1.000
    C29      C        0.27480    0.85790    0.52060    1.000
    H16      H        0.28130    0.77600    0.52140    1.000
    C30      C        0.38300    0.93000    0.51160    1.000
    Pr2      Pr       0.47319    0.45397    0.33520    1.000
    O7       O        0.38499    0.27695    0.18385    1.000
    O8       O        0.59449    0.28489    0.21508    1.000
    O9       O        0.35225    0.50968    0.50915    1.000
    O10      O        0.28570    0.47170    0.65662    1.000
    O11      O        0.48730    0.67176    0.41417    1.000
    O12      O        0.53990    0.72577    0.58988    1.000
    C31      C        0.49320    0.23240    0.16650    1.000
    C32      C        0.49950    0.11140    0.08160    1.000
    C33      C        0.44600    0.00520    0.10150    1.000
    C34      C        0.39520    0.00500    0.20430    1.000
    H17      H        0.39600    0.07910    0.26060    1.000
    C35      C        0.34570    0.90030    0.22250    1.000
    H18      H        0.31330    0.90200    0.29140    1.000
    C36      C        0.34250    0.78840    0.13860    1.000
    H19      H        0.30650    0.71610    0.15170    1.000
    C37      C        0.39030    0.78420    0.04030    1.000
    H20      H        0.38750    0.70880    0.98540    1.000
    C38      C        0.44520    0.89190    0.01790    1.000
    C39      C        0.26510    0.48860    0.56590    1.000
    C40      C        0.12800    0.49390    0.53190    1.000
    C41      C        0.07410    0.40420    0.44290    1.000
    C42      C        0.14460    0.30430    0.38360    1.000
    H21      H        0.23010    0.29760    0.40590    1.000
    C43      C        0.09170    0.21930    0.29620    1.000
    H22      H        0.14130    0.15540    0.25690    1.000
    C44      C        0.96220    0.22470    0.26280    1.000
    H23      H        0.92540    0.16370    0.20230    1.000
    C45      C        0.89100    0.31720    0.31760    1.000
    H24      H        0.80500    0.32020    0.29440    1.000
    C46      C        0.94360    0.40990    0.40920    1.000
    C47      C        0.51180    0.74800    0.50420    1.000
    C48      C        0.50630    0.87950    0.50460    1.000
    C49      C        0.61330    0.93830    0.47200    1.000
    C50      C        0.72910    0.87860    0.44540    1.000
    H25      H        0.73300    0.79650    0.44640    1.000
    C51      C        0.83450    0.93830    0.41840    1.000
    H26      H        0.91240    0.89870    0.40360    1.000
    C52      C        0.82870    0.05880    0.41220    1.000
    H27      H        0.90160    0.09810    0.39000    1.000
    C53      C        0.72040    0.11880    0.43760    1.000
    H28      H        0.71980    0.20060    0.43510    1.000
    C54      C        0.60510    0.06150    0.46850    1.000
    C55      C        0.62000    0.94600    0.49510    1.000
    C56      C        0.74660    0.90070    0.48700    1.000
    H29      H        0.75690    0.82000    0.48970    1.000
    C57      C        0.85010    0.97040    0.47560    1.000
    H30      H        0.93200    0.93760    0.47000    1.000
    C58      C        0.84050    0.09270    0.47180    1.000
    H31      H        0.91570    0.13970    0.46390    1.000
    C59      C        0.72520    0.14210    0.47940    1.000
    H32      H        0.71870    0.22400    0.47860    1.000
    C60      C        0.61700    0.07000    0.48840    1.000
