# CIF file generated by openbabel 3.1.0, see https://openbabel.org
data_I
_chemical_name_common 'image0'
_cell_length_a 14.4821
_cell_length_b 16.7137
_cell_length_c 19.213
_cell_angle_alpha 90
_cell_angle_beta 108.039
_cell_angle_gamma 90
_space_group_name_H-M_alt 'P 1'
_space_group_name_Hall 'P 1'
loop_
    _symmetry_equiv_pos_as_xyz
    x,y,z
loop_
    _atom_site_label
    _atom_site_type_symbol
    _atom_site_fract_x
    _atom_site_fract_y
    _atom_site_fract_z
    _atom_site_occupancy
    Dy1      Dy       0.67641    0.34370    0.66881    1.000
    Dy2      Dy       0.07739    0.36380    0.77104    1.000
    C1       C        0.86540    0.32580    0.88620    1.000
    C2       C        0.94720    0.29820    0.94260    1.000
    H1       H        0.00870    0.30550    0.93800    1.000
    C3       C        0.93880    0.26030    0.00470    1.000
    C4       C        0.84640    0.24800    0.01000    1.000
    H2       H        0.83920    0.22100    0.05030    1.000
    C5       C        0.76480    0.27530    0.95610    1.000
    C6       C        0.77280    0.31360    0.89380    1.000
    H3       H        0.71750    0.33090    0.85750    1.000
    C7       C        0.87290    0.37250    0.82380    1.000
    C8       C        0.02190    0.22430    0.05990    1.000
    C9       C        0.66840    0.26140    0.96330    1.000
    C10      C        0.59140    0.25220    0.96940    1.000
    C11      C        0.49570    0.25070    0.97720    1.000
    C12      C        0.48390    0.21760    0.04180    1.000
    H4       H        0.53670    0.19450    0.07670    1.000
    C13      C        0.39430    0.21940    0.05320    1.000
    C14      C        0.31370    0.25390    0.00580    1.000
    H5       H        0.25450    0.25490    0.01520    1.000
    C15      C        0.32510    0.28840    0.94080    1.000
    C16      C        0.41530    0.28540    0.92950    1.000
    H6       H        0.42140    0.30830    0.88700    1.000
    C17      C        0.38210    0.18710    0.12130    1.000
    C18      C        0.24410    0.32300    0.88560    1.000
    C19      C        0.54380    0.49290    0.78880    1.000
    C20      C        0.53690    0.47300    0.85820    1.000
    H7       H        0.55710    0.42270    0.87760    1.000
    C21      C        0.50080    0.52650    0.89830    1.000
    C22      C        0.46790    0.60060    0.86810    1.000
    H8       H        0.44150    0.63610    0.89400    1.000
    C23      C        0.47360    0.62270    0.79910    1.000
    C24      C        0.51040    0.56890    0.76070    1.000
    H9       H        0.51330    0.58320    0.71470    1.000
    C25      C        0.58230    0.43780    0.74280    1.000
    C26      C        0.44710    0.70260    0.76630    1.000
    C27      C        0.50000    0.50850    0.97070    1.000
    C28      C        0.12790    0.55390    0.88170    1.000
    H10      H        0.08860    0.53750    0.91130    1.000
    H11      H        0.10670    0.60540    0.86060    1.000
    H12      H        0.19460    0.55710    0.91150    1.000
    O1       O        0.79940    0.38550    0.77307    1.000
    O2       O        0.95650    0.38880    0.82080    1.000
    O3       O        0.10620    0.24230    0.06140    1.000
    O4       O        0.00640    0.18090    0.10610    1.000
    O5       O        0.44950    0.13900    0.16250    1.000
    O6       O        0.30750    0.20550    0.14080    1.000
    O7       O        0.16700    0.32560    0.89770    1.000
    O8       O        0.24520    0.34830    0.82700    1.000
    O9       O        0.59150    0.36480    0.76145    1.000
    O10      O        0.61540    0.46660    0.69580    1.000
    O11      O        0.47670    0.72950    0.72070    1.000
    O12      O        0.38460    0.74520    0.78990    1.000
    O13      O        0.11800    0.49250    0.82020    1.000
    H13      H        0.13490    0.50390    0.78270    1.000
    Dy3      Dy       0.82359    0.84370    0.83119    1.000
    Dy4      Dy       0.42261    0.86380    0.72896    1.000
    C29      C        0.63460    0.82580    0.61380    1.000
    C30      C        0.55280    0.79820    0.55740    1.000
    H14      H        0.49130    0.80550    0.56200    1.000
    C31      C        0.56120    0.76030    0.49530    1.000
    C32      C        0.65360    0.74800    0.49000    1.000
    H15      H        0.66080    0.72100    0.44970    1.000
    C33      C        0.73520    0.77530    0.54390    1.000
    C34      C        0.72720    0.81360    0.60620    1.000
    H16      H        0.78250    0.83090    0.64250    1.000
    C35      C        0.62710    0.87250    0.67620    1.000
    C36      C        0.47810    0.72430    0.44010    1.000
    C37      C        0.83160    0.76140    0.53670    1.000
    C38      C        0.90860    0.75220    0.53060    1.000
    C39      C        0.00430    0.75070    0.52280    1.000
    C40      C        0.01610    0.71760    0.45820    1.000
    H17      H        0.96330    0.69450    0.42330    1.000
    C41      C        0.10570    0.71940    0.44680    1.000
    C42      C        0.18630    0.75390    0.49420    1.000
    H18      H        0.24550    0.75490    0.48480    1.000
    C43      C        0.17490    0.78840    0.55920    1.000
    C44      C        0.08470    0.78540    0.57050    1.000
    H19      H        0.07860    0.80830    0.61300    1.000
    C45      C        0.11790    0.68710    0.37870    1.000
    C46      C        0.25590    0.82300    0.61440    1.000
    C47      C        0.95620    0.99290    0.71120    1.000
    C48      C        0.96310    0.97300    0.64180    1.000
    H20      H        0.94290    0.92270    0.62240    1.000
    C49      C        0.99920    0.02650    0.60170    1.000
    C50      C        0.03210    0.10060    0.63190    1.000
    H21      H        0.05850    0.13610    0.60600    1.000
    C51      C        0.02640    0.12270    0.70090    1.000
    C52      C        0.98960    0.06890    0.73930    1.000
    H22      H        0.98670    0.08320    0.78530    1.000
    C53      C        0.91770    0.93780    0.75720    1.000
    C54      C        0.05290    0.20260    0.73370    1.000
    C55      C        0.00000    0.00850    0.52930    1.000
    C56      C        0.37210    0.05390    0.61830    1.000
    H23      H        0.41140    0.03750    0.58870    1.000
    H24      H        0.39330    0.10540    0.63940    1.000
    H25      H        0.30540    0.05710    0.58850    1.000
    O14      O        0.70060    0.88550    0.72693    1.000
    O15      O        0.54350    0.88880    0.67920    1.000
    O16      O        0.39380    0.74230    0.43860    1.000
    O17      O        0.49360    0.68090    0.39390    1.000
    O18      O        0.05050    0.63900    0.33750    1.000
    O19      O        0.19250    0.70550    0.35920    1.000
    O20      O        0.33300    0.82560    0.60230    1.000
    O21      O        0.25480    0.84830    0.67300    1.000
    O22      O        0.90850    0.86480    0.73855    1.000
    O23      O        0.88460    0.96660    0.80420    1.000
    O24      O        0.02330    0.22950    0.77930    1.000
    O25      O        0.11540    0.24520    0.71010    1.000
    O26      O        0.38200    0.99250    0.67980    1.000
    H26      H        0.36510    0.00390    0.71730    1.000
    Dy5      Dy       0.32359    0.65630    0.33119    1.000
    Dy6      Dy       0.92261    0.63620    0.22896    1.000
    C57      C        0.13460    0.67420    0.11380    1.000
    C58      C        0.05280    0.70180    0.05740    1.000
    H27      H        0.99130    0.69450    0.06200    1.000
    C59      C        0.06120    0.73970    0.99530    1.000
    C60      C        0.15360    0.75200    0.99000    1.000
    H28      H        0.16080    0.77900    0.94970    1.000
    C61      C        0.23520    0.72470    0.04390    1.000
    C62      C        0.22720    0.68640    0.10620    1.000
    H29      H        0.28250    0.66910    0.14250    1.000
    C63      C        0.12710    0.62750    0.17620    1.000
    C64      C        0.97810    0.77570    0.94010    1.000
    C65      C        0.33160    0.73860    0.03670    1.000
    C66      C        0.40860    0.74780    0.03060    1.000
    C67      C        0.50430    0.74930    0.02280    1.000
    C68      C        0.51610    0.78240    0.95820    1.000
    H30      H        0.46330    0.80550    0.92330    1.000
    C69      C        0.60570    0.78060    0.94680    1.000
    C70      C        0.68630    0.74610    0.99420    1.000
    H31      H        0.74550    0.74510    0.98480    1.000
    C71      C        0.67490    0.71160    0.05920    1.000
    C72      C        0.58470    0.71460    0.07050    1.000
    H32      H        0.57860    0.69170    0.11300    1.000
    C73      C        0.61790    0.81290    0.87870    1.000
    C74      C        0.75590    0.67700    0.11440    1.000
    C75      C        0.45620    0.50710    0.21120    1.000
    C76      C        0.46310    0.52700    0.14180    1.000
    H33      H        0.44290    0.57730    0.12240    1.000
    C77      C        0.49920    0.47350    0.10170    1.000
    C78      C        0.53210    0.39940    0.13190    1.000
    H34      H        0.55850    0.36390    0.10600    1.000
    C79      C        0.52640    0.37730    0.20090    1.000
    C80      C        0.48960    0.43110    0.23930    1.000
    H35      H        0.48670    0.41680    0.28530    1.000
    C81      C        0.41770    0.56220    0.25720    1.000
    C82      C        0.55290    0.29740    0.23370    1.000
    C83      C        0.50000    0.49150    0.02930    1.000
    C84      C        0.87210    0.44610    0.11830    1.000
    H36      H        0.91140    0.46250    0.08870    1.000
    H37      H        0.89330    0.39460    0.13940    1.000
    H38      H        0.80540    0.44290    0.08850    1.000
    O27      O        0.20060    0.61450    0.22693    1.000
    O28      O        0.04350    0.61120    0.17920    1.000
    O29      O        0.89380    0.75770    0.93860    1.000
    O30      O        0.99360    0.81910    0.89390    1.000
    O31      O        0.55050    0.86100    0.83750    1.000
    O32      O        0.69250    0.79450    0.85920    1.000
    O33      O        0.83300    0.67440    0.10230    1.000
    O34      O        0.75480    0.65170    0.17300    1.000
    O35      O        0.40850    0.63520    0.23855    1.000
    O36      O        0.38460    0.53340    0.30420    1.000
    O37      O        0.52330    0.27050    0.27930    1.000
    O38      O        0.61540    0.25480    0.21010    1.000
    O39      O        0.88200    0.50750    0.17980    1.000
    H39      H        0.86510    0.49610    0.21730    1.000
    Dy7      Dy       0.17641    0.15630    0.16881    1.000
    Dy8      Dy       0.57739    0.13620    0.27104    1.000
    C85      C        0.36540    0.17420    0.38620    1.000
    C86      C        0.44720    0.20180    0.44260    1.000
    H40      H        0.50870    0.19450    0.43800    1.000
    C87      C        0.43880    0.23970    0.50470    1.000
    C88      C        0.34640    0.25200    0.51000    1.000
    H41      H        0.33920    0.27900    0.55030    1.000
    C89      C        0.26480    0.22470    0.45610    1.000
    C90      C        0.27280    0.18640    0.39380    1.000
    H42      H        0.21750    0.16910    0.35750    1.000
    C91      C        0.37290    0.12750    0.32380    1.000
    C92      C        0.52190    0.27570    0.55990    1.000
    C93      C        0.16840    0.23860    0.46330    1.000
    C94      C        0.09140    0.24780    0.46940    1.000
    C95      C        0.99570    0.24930    0.47720    1.000
    C96      C        0.98390    0.28240    0.54180    1.000
    H43      H        0.03670    0.30550    0.57670    1.000
    C97      C        0.89430    0.28060    0.55320    1.000
    C98      C        0.81370    0.24610    0.50580    1.000
    H44      H        0.75450    0.24510    0.51520    1.000
    C99      C        0.82510    0.21160    0.44080    1.000
    C100     C        0.91530    0.21460    0.42950    1.000
    H45      H        0.92140    0.19170    0.38700    1.000
    C101     C        0.88210    0.31290    0.62130    1.000
    C102     C        0.74410    0.17700    0.38560    1.000
    C103     C        0.04380    0.00710    0.28880    1.000
    C104     C        0.03690    0.02700    0.35820    1.000
    H46      H        0.05710    0.07730    0.37760    1.000
    C105     C        0.00080    0.97350    0.39830    1.000
    C106     C        0.96790    0.89940    0.36810    1.000
    H47      H        0.94150    0.86390    0.39400    1.000
    C107     C        0.97360    0.87730    0.29910    1.000
    C108     C        0.01040    0.93110    0.26070    1.000
    H48      H        0.01330    0.91680    0.21470    1.000
    C109     C        0.08230    0.06220    0.24280    1.000
    C110     C        0.94710    0.79740    0.26630    1.000
    C111     C        0.00000    0.99150    0.47070    1.000
    C112     C        0.62790    0.94610    0.38170    1.000
    H49      H        0.58860    0.96250    0.41130    1.000
    H50      H        0.60670    0.89460    0.36060    1.000
    H51      H        0.69460    0.94290    0.41150    1.000
    O40      O        0.29940    0.11450    0.27307    1.000
    O41      O        0.45650    0.11120    0.32080    1.000
    O42      O        0.60620    0.25770    0.56140    1.000
    O43      O        0.50640    0.31910    0.60610    1.000
    O44      O        0.94950    0.36100    0.66250    1.000
    O45      O        0.80750    0.29450    0.64080    1.000
    O46      O        0.66700    0.17440    0.39770    1.000
    O47      O        0.74520    0.15170    0.32700    1.000
    O48      O        0.09150    0.13520    0.26145    1.000
    O49      O        0.11540    0.03340    0.19580    1.000
    O50      O        0.97670    0.77050    0.22070    1.000
    O51      O        0.88460    0.75480    0.28990    1.000
    O52      O        0.61800    0.00750    0.32020    1.000
    H52      H        0.63490    0.99610    0.28270    1.000
