data_functionalizedCrystal
_audit_creation_method	'EQeq! by Chris Wilmer'
_symmetry_space_group_name_H-M	'P1'
_symmetry_Int_Tables_number	1
_symmetry_cell_setting	triclinic
loop_
_symmetry_equiv_pos_as_xyz
  x,y,z
_cell_length_a	9.1768
_cell_length_b	12.7229
_cell_length_c	16.483
_cell_angle_alpha	68.53
_cell_angle_beta	83.285
_cell_angle_gamma	73.259
loop_
_atom_site_label
_atom_site_type_symbol
_atom_site_fract_x
_atom_site_fract_y
_atom_site_fract_z
_atom_site_charge
Mof_Fe	Fe	0.94514	0.55459	0.12999	0.922
Mof_Fe	Fe	0.9713	0.06611	0.12269	1.021
Mof_Fe	Fe	0.31144	0.19092	0.24756	1.083
Mof_Fe	Fe	0.31093	0.68775	0.25197	1.069
Mof_Fe	Fe	0.96282	0.44117	0.38236	1.048
Mof_Fe	Fe	0.96301	0.94138	0.38258	1.045
Mof_P 	P 	0.0934	0.3087	0.0795	0.602
Mof_P 	P 	0.6593	0.5223	0.2629	0.57
Mof_P 	P 	0.1257	0.8776	0.0797	0.533
Mof_P 	P 	0.2275	0.9391	0.2801	0.564
Mof_P 	P 	0.2194	0.4377	0.27545	0.551
Mof_P 	P 	0.0527	0.6591	0.4009	0.608
Mof_P 	P 	0.0471	0.1637	0.4029	0.615
Mof_P 	P 	0.6708	0.044	0.2528	0.333
Mof_P 	P 	0.6977	0.1083	0.2542	0.325
Mof_O 	O 	0.0037	0.2176	0.1064	-0.36
Mof_O 	O 	0.2419	0.2617	0.1305	-0.371
Mof_O 	O 	0.9946	0.4189	0.095	-0.358
Mof_O 	O 	0.1409	0.3379	0.9824	-0.341
Mof_O 	O 	0.7456	0.5293	0.1765	-0.325
Mof_O 	O 	0.5247	0.6287	0.2516	-0.354
Mof_O 	O 	0.7569	0.5083	0.3354	-0.343
Mof_O 	O 	0.5969	0.4108	0.2895	-0.163
Mof_O 	O 	0.1695	0.9909	0.069	-0.306
Mof_O 	O 	0.1257	0.8575	0.9939	-0.322
Mof_O 	O 	0.9677	0.8969	0.1231	-0.309
Mof_O 	O 	0.2402	0.7675	0.1355	-0.355
Mof_O 	O 	0.314	0.0328	0.2495	-0.33
Mof_O 	O 	0.327	0.8373	0.2552	-0.332
Mof_O 	O 	0.1925	0.9019	0.3794	-0.323
Mof_O 	O 	0.0642	0.9855	0.243	-0.417
Mof_O 	O 	0.0534	0.4661	0.2436	-0.422
Mof_O 	O 	0.3288	0.3425	0.2468	-0.326
Mof_O 	O 	0.2744	0.5485	0.235	-0.339
Mof_O 	O 	0.1948	0.4	0.3751	-0.319
Mof_O 	O 	0.2132	0.6571	0.3618	-0.383
Mof_O 	O 	0.966	0.607	0.3574	-0.345
Mof_O 	O 	0.9601	0.7851	0.3866	-0.35
Mof_O 	O 	0.0743	0.5871	0.4975	-0.365
Mof_O 	O 	0.1944	0.1723	0.3501	-0.393
Mof_O 	O 	0.9445	0.2861	0.3942	-0.346
Mof_O 	O 	0.9554	0.1053	0.3699	-0.34
Mof_O 	O 	0.0941	0.0933	0.4972	-0.358
Mof_O 	O 	0.7662	0.0872	0.1721	-0.354
Mof_O 	O 	0.5282	0.1396	0.2539	-0.355
Mof_O 	O 	0.7564	0.9982	0.3369	-0.339
Mof_O 	O 	0.615	0.9432	0.244	-0.138
Mof_O 	O 	0.643	0.872	0.247	0.021
Mof_O 	O 	0.734	0.211	0.264	-0.145
Mof_O 	O 	0.784	0.262	0.239	0.016
Mof_Fe	Fe	0.05486	0.44541	0.87001	0.922
Mof_Fe	Fe	0.0287	0.93389	0.87731	1.021
Mof_Fe	Fe	0.68856	0.80908	0.75244	1.083
Mof_Fe	Fe	0.68907	0.31225	0.74803	1.069
Mof_Fe	Fe	0.03718	0.55883	0.61764	1.048
Mof_Fe	Fe	0.03699	0.05862	0.61742	1.045
Mof_P 	P 	0.9066	0.6913	0.9205	0.602
Mof_P 	P 	0.3407	0.4777	0.7371	0.57
Mof_P 	P 	0.8743	0.1224	0.9203	0.533
Mof_P 	P 	0.7725	0.0609	0.7199	0.564
Mof_P 	P 	0.7806	0.5623	0.72455	0.551
Mof_P 	P 	0.9473	0.3409	0.5991	0.608
Mof_P 	P 	0.9529	0.8363	0.5971	0.615
Mof_P 	P 	0.3292	0.956	0.7472	0.333
Mof_P 	P 	0.3023	0.8917	0.7458	0.325
Mof_O 	O 	0.9963	0.7824	0.8936	-0.36
Mof_O 	O 	0.7581	0.7383	0.8695	-0.371
Mof_O 	O 	0.0054	0.5811	0.905	-0.358
Mof_O 	O 	0.8591	0.6621	0.0176	-0.341
Mof_O 	O 	0.2544	0.4707	0.8235	-0.325
Mof_O 	O 	0.4753	0.3713	0.7484	-0.354
Mof_O 	O 	0.2431	0.4917	0.6646	-0.343
Mof_O 	O 	0.4031	0.5892	0.7105	-0.163
Mof_O 	O 	0.8305	0.0091	0.931	-0.306
Mof_O 	O 	0.8743	0.1425	0.0061	-0.322
Mof_O 	O 	0.0323	0.1031	0.8769	-0.309
Mof_O 	O 	0.7598	0.2325	0.8645	-0.355
Mof_O 	O 	0.686	0.9672	0.7505	-0.33
Mof_O 	O 	0.673	0.1627	0.7448	-0.332
Mof_O 	O 	0.8075	0.0981	0.6206	-0.323
Mof_O 	O 	0.9358	0.0145	0.757	-0.417
Mof_O 	O 	0.9466	0.5339	0.7564	-0.422
Mof_O 	O 	0.6712	0.6575	0.7532	-0.326
Mof_O 	O 	0.7256	0.4515	0.765	-0.339
Mof_O 	O 	0.8052	0.6	0.6249	-0.319
Mof_O 	O 	0.7868	0.3429	0.6382	-0.383
Mof_O 	O 	0.034	0.393	0.6426	-0.345
Mof_O 	O 	0.0399	0.2149	0.6134	-0.35
Mof_O 	O 	0.9257	0.4129	0.5025	-0.365
Mof_O 	O 	0.8056	0.8277	0.6499	-0.393
Mof_O 	O 	0.0555	0.7139	0.6058	-0.346
Mof_O 	O 	0.0446	0.8947	0.6301	-0.34
Mof_O 	O 	0.9059	0.9067	0.5028	-0.358
Mof_O 	O 	0.2338	0.9128	0.8279	-0.354
Mof_O 	O 	0.4718	0.8604	0.7461	-0.355
Mof_O 	O 	0.2436	0.0018	0.6631	-0.339
Mof_O 	O 	0.385	0.0568	0.756	-0.138
Mof_O 	O 	0.357	0.128	0.753	0.021
Mof_O 	O 	0.266	0.789	0.736	-0.145
Mof_O 	O 	0.216	0.738	0.761	0.016
_end
