# CIF file generated by openbabel 3.1.0, see https://openbabel.org
data_I
_chemical_name_common 'image0'
_cell_length_a 9.812
_cell_length_b 14.283
_cell_length_c 19.572
_cell_angle_alpha 90
_cell_angle_beta 96.941
_cell_angle_gamma 90
_space_group_name_H-M_alt 'P 1'
_space_group_name_Hall 'P 1'
loop_
    _symmetry_equiv_pos_as_xyz
    x,y,z
loop_
    _atom_site_label
    _atom_site_type_symbol
    _atom_site_fract_x
    _atom_site_fract_y
    _atom_site_fract_z
    _atom_site_occupancy
    Cd1      Cd       0.73402    0.24952    0.34863    1.000
    C1       C        0.26060    0.98670    0.27660    1.000
    H1       H        0.22850    0.00310    0.23160    1.000
    C2       C        0.18030    0.99890    0.32920    1.000
    C3       C        0.22420    0.97420    0.39640    1.000
    H2       H        0.16780    0.98280    0.43080    1.000
    C4       C        0.35420    0.93630    0.41130    1.000
    C5       C        0.43880    0.92440    0.36000    1.000
    H3       H        0.52680    0.90010    0.37020    1.000
    C6       C        0.38940    0.94950    0.29310    1.000
    C7       C        0.99440    0.11180    0.34550    1.000
    H4       H        0.04400    0.14630    0.38040    1.000
    C8       C        0.83330    0.06320    0.27100    1.000
    H5       H        0.74800    0.05760    0.24490    1.000
    C9       C        0.94260    0.00710    0.26580    1.000
    H6       H        0.94740    0.95770    0.23520    1.000
    C10      C        0.32320    0.90170    0.53240    1.000
    H7       H        0.23400    0.92450    0.53020    1.000
    C11      C        0.51620    0.83910    0.56890    1.000
    H8       H        0.58630    0.81010    0.59750    1.000
    C12      C        0.52520    0.86560    0.50330    1.000
    H9       H        0.60000    0.85790    0.47880    1.000
    C13      C        0.56660    0.86410    0.23800    1.000
    H10      H        0.58390    0.81840    0.27180    1.000
    C14      C        0.57240    0.94350    0.14590    1.000
    H11      H        0.59630    0.96340    0.10370    1.000
    C15      C        0.47730    0.98450    0.18020    1.000
    H12      H        0.42400    0.03650    0.16630    1.000
    C16      C        0.53390    0.25160    0.23330    1.000
    C17      C        0.31620    0.20690    0.98950    1.000
    C18      C        0.30720    0.20570    0.06560    1.000
    C19      C        0.42130    0.22790    0.11210    1.000
    H13      H        0.50570    0.23890    0.09650    1.000
    C20      C        0.40860    0.23370    0.18200    1.000
    C21      C        0.28360    0.21890    0.20470    1.000
    H14      H        0.27540    0.22380    0.25140    1.000
    C22      C        0.16880    0.19660    0.15850    1.000
    C23      C        0.18140    0.18810    0.08910    1.000
    H15      H        0.10610    0.17080    0.05830    1.000
    N1       N        0.86740    0.12930    0.32050    1.000
    N2       N        0.04430    0.03740    0.31424    1.000
    N3       N        0.38990    0.86100    0.58730    1.000
    N4       N        0.40110    0.90620    0.47990    1.000
    N5       N        0.62840    0.86870    0.18230    1.000
    N6       N        0.47510    0.93360    0.23996    1.000
    O1       O        0.65070    0.24120    0.21520    1.000
    O2       O        0.51720    0.27470    0.29322    1.000
    O3       O        0.41360    0.24900    0.96690    1.000
    O4       O        0.21960    0.16990    0.95025    1.000
    O5       O        0.04830    0.18340    0.18494    1.000
    H16      H        0.98980    0.16490    0.15450    1.000
    Cd2      Cd       0.76598    0.74952    0.15137    1.000
    C24      C        0.23940    0.48670    0.22340    1.000
    H17      H        0.27150    0.50310    0.26840    1.000
    C25      C        0.31970    0.49890    0.17080    1.000
    C26      C        0.27580    0.47420    0.10360    1.000
    H18      H        0.33220    0.48280    0.06920    1.000
    C27      C        0.14580    0.43630    0.08870    1.000
    C28      C        0.06120    0.42440    0.14000    1.000
    H19      H        0.97320    0.40010    0.12980    1.000
    C29      C        0.11060    0.44950    0.20690    1.000
    C30      C        0.50560    0.61180    0.15450    1.000
    H20      H        0.45600    0.64630    0.11960    1.000
    C31      C        0.66670    0.56320    0.22900    1.000
    H21      H        0.75200    0.55760    0.25510    1.000
    C32      C        0.55740    0.50710    0.23420    1.000
    H22      H        0.55260    0.45770    0.26480    1.000
    C33      C        0.17680    0.40170    0.96760    1.000
    H23      H        0.26600    0.42450    0.96980    1.000
    C34      C        0.98380    0.33910    0.93110    1.000
    H24      H        0.91370    0.31010    0.90250    1.000
    C35      C        0.97480    0.36560    0.99670    1.000
    H25      H        0.90000    0.35790    0.02120    1.000
    C36      C        0.93340    0.36410    0.26200    1.000
    H26      H        0.91610    0.31840    0.22820    1.000
    C37      C        0.92760    0.44350    0.35410    1.000
    H27      H        0.90370    0.46340    0.39630    1.000
    C38      C        0.02270    0.48450    0.31980    1.000
    H28      H        0.07600    0.53650    0.33370    1.000
    C39      C        0.96610    0.75160    0.26670    1.000
    C40      C        0.18380    0.70690    0.51050    1.000
    C41      C        0.19280    0.70570    0.43440    1.000
    C42      C        0.07870    0.72790    0.38790    1.000
    H29      H        0.99430    0.73890    0.40350    1.000
    C43      C        0.09140    0.73370    0.31800    1.000
    C44      C        0.21640    0.71890    0.29530    1.000
    H30      H        0.22460    0.72380    0.24860    1.000
    C45      C        0.33120    0.69660    0.34150    1.000
    C46      C        0.31860    0.68810    0.41090    1.000
    H31      H        0.39390    0.67080    0.44170    1.000
    N7       N        0.63260    0.62930    0.17950    1.000
    N8       N        0.45570    0.53740    0.18576    1.000
    N9       N        0.11010    0.36100    0.91270    1.000
    N10      N        0.09890    0.40620    0.02010    1.000
    N11      N        0.87160    0.36870    0.31770    1.000
    N12      N        0.02490    0.43360    0.26004    1.000
    O6       O        0.84930    0.74120    0.28480    1.000
    O7       O        0.98280    0.77470    0.20678    1.000
    O8       O        0.08640    0.74900    0.53310    1.000
    O9       O        0.28040    0.66990    0.54975    1.000
    O10      O        0.45170    0.68340    0.31506    1.000
    H32      H        0.51020    0.66490    0.34550    1.000
    Cd3      Cd       0.26598    0.75048    0.65137    1.000
    C47      C        0.73940    0.01330    0.72340    1.000
    H33      H        0.77150    0.99690    0.76840    1.000
    C48      C        0.81970    0.00110    0.67080    1.000
    C49      C        0.77580    0.02580    0.60360    1.000
    H34      H        0.83220    0.01720    0.56920    1.000
    C50      C        0.64580    0.06370    0.58870    1.000
    C51      C        0.56120    0.07560    0.64000    1.000
    H35      H        0.47320    0.09990    0.62980    1.000
    C52      C        0.61060    0.05050    0.70690    1.000
    C53      C        0.00560    0.88820    0.65450    1.000
    H36      H        0.95600    0.85370    0.61960    1.000
    C54      C        0.16670    0.93680    0.72900    1.000
    H37      H        0.25200    0.94240    0.75510    1.000
    C55      C        0.05740    0.99290    0.73420    1.000
    H38      H        0.05260    0.04230    0.76480    1.000
    C56      C        0.67680    0.09830    0.46760    1.000
    H39      H        0.76600    0.07550    0.46980    1.000
    C57      C        0.48380    0.16090    0.43110    1.000
    H40      H        0.41370    0.18990    0.40250    1.000
    C58      C        0.47480    0.13440    0.49670    1.000
    H41      H        0.40000    0.14210    0.52120    1.000
    C59      C        0.43340    0.13590    0.76200    1.000
    H42      H        0.41610    0.18160    0.72820    1.000
    C60      C        0.42760    0.05650    0.85410    1.000
    H43      H        0.40370    0.03660    0.89630    1.000
    C61      C        0.52270    0.01550    0.81980    1.000
    H44      H        0.57600    0.96350    0.83370    1.000
    C62      C        0.46610    0.74840    0.76670    1.000
    C63      C        0.68380    0.79310    0.01050    1.000
    C64      C        0.69280    0.79430    0.93440    1.000
    C65      C        0.57870    0.77210    0.88790    1.000
    H45      H        0.49430    0.76110    0.90350    1.000
    C66      C        0.59140    0.76630    0.81800    1.000
    C67      C        0.71640    0.78110    0.79530    1.000
    H46      H        0.72460    0.77620    0.74860    1.000
    C68      C        0.83120    0.80340    0.84150    1.000
    C69      C        0.81860    0.81190    0.91090    1.000
    H47      H        0.89390    0.82920    0.94170    1.000
    N13      N        0.13260    0.87070    0.67950    1.000
    N14      N        0.95570    0.96260    0.68576    1.000
    N15      N        0.61010    0.13900    0.41270    1.000
    N16      N        0.59890    0.09380    0.52010    1.000
    N17      N        0.37160    0.13130    0.81770    1.000
    N18      N        0.52490    0.06640    0.76004    1.000
    O11      O        0.34930    0.75880    0.78480    1.000
    O12      O        0.48280    0.72530    0.70678    1.000
    O13      O        0.58640    0.75100    0.03310    1.000
    O14      O        0.78040    0.83010    0.04975    1.000
    O15      O        0.95170    0.81660    0.81506    1.000
    H48      H        0.01020    0.83510    0.84550    1.000
    Cd4      Cd       0.23402    0.25048    0.84863    1.000
    C70      C        0.76060    0.51330    0.77660    1.000
    H49      H        0.72850    0.49690    0.73160    1.000
    C71      C        0.68030    0.50110    0.82920    1.000
    C72      C        0.72420    0.52580    0.89640    1.000
    H50      H        0.66780    0.51720    0.93080    1.000
    C73      C        0.85420    0.56370    0.91130    1.000
    C74      C        0.93880    0.57560    0.86000    1.000
    H51      H        0.02680    0.59990    0.87020    1.000
    C75      C        0.88940    0.55050    0.79310    1.000
    C76      C        0.49440    0.38820    0.84550    1.000
    H52      H        0.54400    0.35370    0.88040    1.000
    C77      C        0.33330    0.43680    0.77100    1.000
    H53      H        0.24800    0.44240    0.74490    1.000
    C78      C        0.44260    0.49290    0.76580    1.000
    H54      H        0.44740    0.54230    0.73520    1.000
    C79      C        0.82320    0.59830    0.03240    1.000
    H55      H        0.73400    0.57550    0.03020    1.000
    C80      C        0.01620    0.66090    0.06890    1.000
    H56      H        0.08630    0.68990    0.09750    1.000
    C81      C        0.02520    0.63440    0.00330    1.000
    H57      H        0.10000    0.64210    0.97880    1.000
    C82      C        0.06660    0.63590    0.73800    1.000
    H58      H        0.08390    0.68160    0.77180    1.000
    C83      C        0.07240    0.55650    0.64590    1.000
    H59      H        0.09630    0.53660    0.60370    1.000
    C84      C        0.97730    0.51550    0.68020    1.000
    H60      H        0.92400    0.46350    0.66630    1.000
    C85      C        0.03390    0.24840    0.73330    1.000
    C86      C        0.81620    0.29310    0.48950    1.000
    C87      C        0.80720    0.29430    0.56560    1.000
    C88      C        0.92130    0.27210    0.61210    1.000
    H61      H        0.00570    0.26110    0.59650    1.000
    C89      C        0.90860    0.26630    0.68200    1.000
    C90      C        0.78360    0.28110    0.70470    1.000
    H62      H        0.77540    0.27620    0.75140    1.000
    C91      C        0.66880    0.30340    0.65850    1.000
    C92      C        0.68140    0.31190    0.58910    1.000
    H63      H        0.60610    0.32920    0.55830    1.000
    N19      N        0.36740    0.37070    0.82050    1.000
    N20      N        0.54430    0.46260    0.81424    1.000
    N21      N        0.88990    0.63900    0.08730    1.000
    N22      N        0.90110    0.59380    0.97990    1.000
    N23      N        0.12840    0.63130    0.68230    1.000
    N24      N        0.97510    0.56640    0.73996    1.000
    O16      O        0.15070    0.25880    0.71520    1.000
    O17      O        0.01720    0.22530    0.79322    1.000
    O18      O        0.91360    0.25100    0.46690    1.000
    O19      O        0.71960    0.33010    0.45025    1.000
    O20      O        0.54830    0.31660    0.68494    1.000
    H64      H        0.48980    0.33510    0.65450    1.000
