data_functionalizedCrystal
_audit_creation_method	'EQeq! by Chris Wilmer'
_symmetry_space_group_name_H-M	'P1'
_symmetry_Int_Tables_number	1
_symmetry_cell_setting	triclinic
loop_
_symmetry_equiv_pos_as_xyz
  x,y,z
_cell_length_a	19.4752
_cell_length_b	25.5432
_cell_length_c	20.9692
_cell_angle_alpha	90
_cell_angle_beta	114.295
_cell_angle_gamma	90
loop_
_atom_site_label
_atom_site_type_symbol
_atom_site_fract_x
_atom_site_fract_y
_atom_site_fract_z
_atom_site_charge
Mof_Ag	Ag	0.70551	0.02783	0.64324	0.565
Mof_Ag	Ag	0.29121	0.06981	0.87248	0.457
Mof_S 	S 	0.22292	0.99712	0.79019	-0.156
Mof_C 	C 	0.1388	0.0254	0.7249	0.004
Mof_C 	C 	0.0856	0.9935	0.6732	-0.014
Mof_C 	C 	0.024	0.0181	0.6214	0
Mof_C 	C 	0.0155	0.0715	0.619	-0.011
Mof_H 	H 	0.9724	0.087	0.5833	0.022
Mof_C 	C 	0.0702	0.1037	0.6693	-0.161
Mof_C 	C 	0.1291	0.0793	0.7228	0.001
Mof_H 	H 	0.1641	0.1	0.7593	-0.012
Mof_S 	S 	0.09901	0.92463	0.67376	0.015
Mof_C 	C 	0.1513	0.9213	0.6191	-0.225
Mof_H 	H 	0.1214	0.9358	0.572	0.09
Mof_H 	H 	0.1995	0.9406	0.6407	0.089
Mof_C 	C 	0.1649	0.8628	0.6154	0.135
Mof_C 	C 	0.2331	0.842	0.66	-0.164
Mof_H 	H 	0.2732	0.8641	0.6885	0.071
Mof_C 	C 	0.2418	0.7884	0.6624	0.034
Mof_H 	H 	0.2858	0.773	0.6969	-0.007
Mof_C 	C 	0.187	0.7572	0.6149	-0.084
Mof_C 	C 	0.1201	0.7783	0.5675	0.029
Mof_H 	H 	0.0816	0.7569	0.5352	-0.007
Mof_C 	C 	0.1115	0.8316	0.569	-0.168
Mof_H 	H 	0.0664	0.8472	0.5363	0.065
Mof_C 	C 	0.1958	0.7003	0.6188	0.081
Mof_N 	N 	0.2019	0.6563	0.6228	-0.212
Mof_C 	C 	0.0614	0.1633	0.6638	0.519
Mof_C 	C 	0.9779	0.1786	0.6423	-0.797
Mof_H 	H 	0.9513	0.178	0.5912	0.254
Mof_H 	H 	0.9753	0.2139	0.6595	0.242
Mof_H 	H 	0.9542	0.1537	0.6626	0.251
Mof_C 	C 	0.0805	0.1787	0.6003	-0.785
Mof_H 	H 	0.1341	0.1874	0.6174	0.236
Mof_H 	H 	0.0502	0.2091	0.5762	0.235
Mof_H 	H 	0.069	0.1492	0.5677	0.247
Mof_C 	C 	0.1056	0.1876	0.7355	-0.823
Mof_H 	H 	0.0779	0.1826	0.7649	0.249
Mof_H 	H 	0.1123	0.2251	0.7301	0.248
Mof_H 	H 	0.155	0.1707	0.7576	0.255
Mof_S 	S 	0.95442	0.98171	0.55164	-0.041
Mof_C 	C 	0.9086	0.9453	0.5958	-0
Mof_C 	C 	0.8663	0.9688	0.6294	-0.018
Mof_C 	C 	0.84	0.9354	0.6668	0.007
Mof_C 	C 	0.8476	0.8811	0.6656	-0.021
Mof_H 	H 	0.828	0.8597	0.6912	0.028
Mof_C 	C 	0.883	0.8578	0.6279	-0.134
Mof_C 	C 	0.9148	0.8915	0.5936	-0.017
Mof_H 	H 	0.941	0.8768	0.5684	0.023
Mof_S 	S 	0.84691	0.03717	0.62469	-0.048
Mof_C 	C 	0.7955	0.0484	0.531	-0.205
Mof_H 	H 	0.8009	0.0857	0.5211	0.088
Mof_H 	H 	0.8191	0.0272	0.5059	0.086
Mof_C 	C 	0.7128	0.0351	0.5023	0.09
Mof_C 	C 	0.6594	0.0745	0.4735	-0.148
Mof_H 	H 	0.6749	0.1099	0.4746	0.076
Mof_C 	C 	0.5831	0.0619	0.443	0.02
Mof_H 	H 	0.5469	0.0888	0.4227	0.01
Mof_C 	C 	0.5593	0.0109	0.4419	-0.085
Mof_C 	C 	0.6144	0.9707	0.4738	0.022
Mof_H 	H 	0.5986	0.9357	0.4757	0.007
Mof_C 	C 	0.6887	0.9824	0.501	-0.163
Mof_H 	H 	0.725	0.9554	0.5194	0.071
Mof_C 	C 	0.4814	0.9983	0.4128	0.1
Mof_N 	N 	0.4208	0.9889	0.3929	-0.208
Mof_C 	C 	0.8937	0.7988	0.63	0.451
Mof_C 	C 	0.9172	0.7798	0.5721	-0.479
Mof_H 	H 	0.9234	0.7416	0.575	0.136
Mof_H 	H 	0.9649	0.7963	0.5782	0.147
Mof_H 	H 	0.8781	0.7893	0.5262	0.041
Mof_C 	C 	0.8205	0.7702	0.6199	-0.425
Mof_H 	H 	0.8123	0.741	0.5871	0.168
Mof_H 	H 	0.778	0.7946	0.601	0.123
Mof_H 	H 	0.8245	0.7566	0.665	0.063
Mof_C 	C 	0.9592	0.7904	0.7011	-0.366
Mof_H 	H 	0.9402	0.7756	0.7339	0.139
Mof_H 	H 	0.9838	0.8239	0.7192	0.128
Mof_H 	H 	0.9956	0.7661	0.696	0.055
Mof_S 	S 	0.79443	0.95841	0.72094	-0.148
Mof_C 	C 	0.8675	0.9945	0.7891	-0.002
Mof_C 	C 	0.9306	0.968	0.8379	-0.007
Mof_C 	C 	0.9833	0.9993	0.8906	-0.009
Mof_C 	C 	0.9722	0.0528	0.8964	0.022
Mof_H 	H 	0.0097	0.0725	0.9323	0.009
Mof_C 	C 	0.9076	0.0774	0.8507	-0.19
Mof_S 	S 	0.94019	0.8994	0.837	0.008
Mof_C 	C 	0.8566	0.0472	0.7946	0.01
Mof_H 	H 	0.8137	0.0637	0.76	-0.015
Mof_C 	C 	0.8827	0.8804	0.8825	-0.207
Mof_H 	H 	0.9099	0.8879	0.9331	0.081
Mof_H 	H 	0.8353	0.9009	0.8644	0.087
Mof_C 	C 	0.8651	0.8225	0.8715	0.111
Mof_C 	C 	0.9189	0.7865	0.9125	-0.136
Mof_H 	H 	0.9659	0.7987	0.9462	0.057
Mof_C 	C 	0.9048	0.7331	0.9049	0.006
Mof_H 	H 	0.9416	0.7085	0.9325	0.013
Mof_C 	C 	0.8336	0.7165	0.8543	-0.064
Mof_C 	C 	0.7812	0.7524	0.812	0.01
Mof_H 	H 	0.7344	0.7405	0.7776	0.002
Mof_C 	C 	0.7968	0.8059	0.8197	-0.14
Mof_H 	H 	0.7615	0.8305	0.7901	0.065
Mof_C 	C 	0.8179	0.6609	0.8482	0.074
Mof_N 	N 	0.8044	0.6172	0.8429	-0.202
Mof_C 	C 	0.8914	0.1354	0.8558	0.576
Mof_C 	C 	0.8991	0.1643	0.7959	-0.873
Mof_H 	H 	0.949	0.1575	0.7968	0.263
Mof_H 	H 	0.893	0.2019	0.8007	0.262
Mof_H 	H 	0.8603	0.152	0.7514	0.271
Mof_C 	C 	0.9451	0.159	0.9258	-0.847
Mof_H 	H 	0.9967	0.1473	0.9365	0.262
Mof_H 	H 	0.9303	0.1474	0.9629	0.261
Mof_H 	H 	0.9428	0.1973	0.9226	0.254
Mof_C 	C 	0.8104	0.1432	0.8514	-0.828
Mof_H 	H 	0.8019	0.1804	0.8569	0.248
Mof_H 	H 	0.8046	0.1232	0.8887	0.252
Mof_H 	H 	0.7737	0.1309	0.8059	0.254
Mof_S 	S 	0.06512	0.9714	0.95974	-0.044
Mof_C 	C 	0.1204	0.9494	0.9148	0.017
Mof_C 	C 	0.1508	0.9833	0.8816	-0.034
Mof_C 	C 	0.1881	0.9597	0.843	0.027
Mof_C 	C 	0.1997	0.907	0.8452	-0.076
Mof_H 	H 	0.2264	0.8927	0.8201	0.046
Mof_C 	C 	0.1741	0.8734	0.8828	-0.041
Mof_C 	C 	0.1327	0.8951	0.9162	-0.065
Mof_H 	H 	0.1123	0.873	0.9405	0.032
Mof_S 	S 	0.14733	0.05267	0.88685	-0.043
Mof_C 	C 	0.1961	0.0638	0.9816	-0.2
Mof_H 	H 	0.1628	0.0535	0.0047	0.082
Mof_H 	H 	0.2421	0.042	0.0011	0.061
Mof_C 	C 	0.2167	0.1203	0.9956	0.095
Mof_C 	C 	0.1636	0.1603	0.9614	-0.124
Mof_H 	H 	0.1147	0.1512	0.9279	0.051
Mof_C 	C 	0.1828	0.212	0.9765	0.005
Mof_H 	H 	0.1474	0.2387	0.9531	0.018
Mof_C 	C 	0.2509	0.2247	0.024	-0.043
Mof_C 	C 	0.3037	0.188	0.0575	0.001
Mof_H 	H 	0.3525	0.1979	0.0903	0.012
Mof_C 	C 	0.2844	0.1341	0.0424	-0.135
Mof_H 	H 	0.3205	0.1079	0.0662	0.051
Mof_C 	C 	0.2719	0.2793	0.0423	0.064
Mof_N 	N 	0.2871	0.3228	0.0576	-0.143
Mof_C 	C 	0.1894	0.8142	0.8879	0.212
Mof_C 	C 	0.2758	0.8058	0.9288	-0.387
Mof_H 	H 	0.3008	0.8399	0.9418	0.114
Mof_H 	H 	0.2954	0.787	0.8991	0.111
Mof_H 	H 	0.2855	0.7853	0.9711	0.159
Mof_C 	C 	0.1465	0.7836	0.9198	-0.178
Mof_H 	H 	0.1798	0.7746	0.9681	0.055
Mof_H 	H 	0.1274	0.7514	0.8928	0.041
Mof_H 	H 	0.1042	0.8045	0.9193	0.048
Mof_C 	C 	0.1691	0.7956	0.8098	-0.088
Mof_H 	H 	0.1868	0.7596	0.8102	0.07
Mof_H 	H 	0.1936	0.8187	0.7882	0.034
Mof_H 	H 	0.1143	0.7969	0.7828	0.03
Mof_C 	C 	0.873	0.7744	0.688	-0.364
Mof_H 	H 	0.8851	0.7994	0.7269	0.107
Mof_H 	H 	0.9018	0.7422	0.7058	0.099
Mof_H 	H 	0.819	0.7665	0.6688	0.158
Mof_C 	C 	0.843	0.7726	0.5594	-0.15
Mof_H 	H 	0.8359	0.7356	0.5674	-0.026
Mof_H 	H 	0.8676	0.7753	0.527	0.132
Mof_H 	H 	0.7942	0.7902	0.5394	0.046
Mof_C 	C 	0.9779	0.7858	0.649	-0.243
Mof_H 	H 	0.9819	0.7659	0.6105	0.093
Mof_H 	H 	0.9982	0.7649	0.6918	0.096
Mof_H 	H 	0.0066	0.8184	0.6559	0.082
Mof_C 	C 	0.256	0.806	0.9596	-0.076
Mof_H 	H 	0.2368	0.7961	0.9943	-0.006
Mof_H 	H 	0.2849	0.8386	0.9742	0.029
Mof_H 	H 	0.2887	0.7782	0.9557	-0.006
Mof_C 	C 	0.1198	0.7857	0.8845	-0.177
Mof_H 	H 	0.0994	0.8037	0.9142	0.047
Mof_H 	H 	0.1331	0.7497	0.901	0.061
Mof_H 	H 	0.0818	0.7853	0.836	0.058
Mof_C 	C 	0.2116	0.7965	0.8287	-0.206
Mof_H 	H 	0.1838	0.7646	0.807	0.01
Mof_H 	H 	0.2658	0.7893	0.8481	0.049
Mof_H 	H 	0.1994	0.8242	0.7935	0.059
Mof_Ag	Ag	0.79449	0.52783	0.85676	0.566
Mof_Ag	Ag	0.20879	0.56981	0.62752	0.459
Mof_S 	S 	0.27708	0.49712	0.70981	-0.156
Mof_C 	C 	0.3612	0.5254	0.7751	0.006
Mof_C 	C 	0.4144	0.4935	0.8268	-0.014
Mof_C 	C 	0.476	0.5181	0.8786	0.002
Mof_C 	C 	0.4845	0.5715	0.881	-0.01
Mof_H 	H 	0.5276	0.587	0.9167	0.024
Mof_C 	C 	0.4298	0.6037	0.8307	-0.16
Mof_C 	C 	0.3709	0.5793	0.7772	0.002
Mof_H 	H 	0.3359	0.6	0.7407	-0.01
Mof_S 	S 	0.40099	0.42463	0.82624	0.016
Mof_C 	C 	0.3487	0.4213	0.8809	-0.224
Mof_H 	H 	0.3786	0.4358	0.928	0.091
Mof_H 	H 	0.3005	0.4406	0.8593	0.091
Mof_C 	C 	0.3351	0.3628	0.8846	0.136
Mof_C 	C 	0.2669	0.342	0.84	-0.163
Mof_H 	H 	0.2268	0.3641	0.8115	0.072
Mof_C 	C 	0.2582	0.2884	0.8376	0.035
Mof_H 	H 	0.2142	0.273	0.8031	-0.006
Mof_C 	C 	0.313	0.2572	0.8851	-0.083
Mof_C 	C 	0.3799	0.2783	0.9325	0.03
Mof_H 	H 	0.4184	0.2569	0.9648	-0.007
Mof_C 	C 	0.3885	0.3316	0.931	-0.168
Mof_H 	H 	0.4336	0.3472	0.9637	0.065
Mof_C 	C 	0.3042	0.2003	0.8812	0.081
Mof_N 	N 	0.2981	0.1563	0.8772	-0.212
Mof_C 	C 	0.4386	0.6633	0.8362	0.519
Mof_C 	C 	0.5221	0.6786	0.8577	-0.797
Mof_H 	H 	0.5487	0.678	0.9088	0.254
Mof_H 	H 	0.5247	0.7139	0.8405	0.242
Mof_H 	H 	0.5458	0.6537	0.8374	0.251
Mof_C 	C 	0.4195	0.6787	0.8997	-0.785
Mof_H 	H 	0.3659	0.6874	0.8826	0.236
Mof_H 	H 	0.4498	0.7091	0.9238	0.235
Mof_H 	H 	0.431	0.6492	0.9323	0.247
Mof_C 	C 	0.3944	0.6876	0.7645	-0.823
Mof_H 	H 	0.4221	0.6826	0.7351	0.249
Mof_H 	H 	0.3877	0.7251	0.7699	0.248
Mof_H 	H 	0.345	0.6707	0.7424	0.255
Mof_S 	S 	0.54558	0.48171	0.94836	-0.041
Mof_C 	C 	0.5914	0.4453	0.9042	-0
Mof_C 	C 	0.6337	0.4688	0.8706	-0.018
Mof_C 	C 	0.66	0.4354	0.8332	0.007
Mof_C 	C 	0.6524	0.3811	0.8344	-0.021
Mof_H 	H 	0.672	0.3597	0.8088	0.028
Mof_C 	C 	0.617	0.3578	0.8721	-0.134
Mof_C 	C 	0.5852	0.3915	0.9064	-0.017
Mof_H 	H 	0.559	0.3768	0.9316	0.023
Mof_S 	S 	0.65309	0.53717	0.87531	-0.048
Mof_C 	C 	0.7045	0.5484	0.969	-0.205
Mof_H 	H 	0.6991	0.5857	0.9789	0.088
Mof_H 	H 	0.6809	0.5272	0.9941	0.086
Mof_C 	C 	0.7872	0.5351	0.9977	0.09
Mof_C 	C 	0.8406	0.5745	0.0265	-0.148
Mof_H 	H 	0.8251	0.6099	0.0254	0.076
Mof_C 	C 	0.9169	0.5619	0.057	0.019
Mof_H 	H 	0.9531	0.5888	0.0773	0.01
Mof_C 	C 	0.9407	0.5109	0.0581	-0.084
Mof_C 	C 	0.8856	0.4707	0.0262	0.023
Mof_H 	H 	0.9014	0.4357	0.0243	0.007
Mof_C 	C 	0.8113	0.4824	0.999	-0.164
Mof_H 	H 	0.775	0.4554	0.9806	0.071
Mof_C 	C 	0.0186	0.4983	0.0872	0.1
Mof_N 	N 	0.0792	0.4889	0.1071	-0.208
Mof_C 	C 	0.6063	0.2988	0.87	0.451
Mof_C 	C 	0.5828	0.2798	0.9279	-0.479
Mof_H 	H 	0.5766	0.2416	0.925	0.136
Mof_H 	H 	0.5351	0.2963	0.9218	0.147
Mof_H 	H 	0.6219	0.2893	0.9738	0.04
Mof_C 	C 	0.6795	0.2702	0.8801	-0.425
Mof_H 	H 	0.6877	0.241	0.9129	0.168
Mof_H 	H 	0.722	0.2946	0.899	0.122
Mof_H 	H 	0.6755	0.2566	0.835	0.063
Mof_C 	C 	0.5408	0.2904	0.7989	-0.367
Mof_H 	H 	0.5598	0.2756	0.7661	0.139
Mof_H 	H 	0.5162	0.3239	0.7808	0.128
Mof_H 	H 	0.5044	0.2661	0.804	0.055
Mof_S 	S 	0.70557	0.45841	0.77906	-0.148
Mof_C 	C 	0.6325	0.4945	0.7109	-0.003
Mof_C 	C 	0.5694	0.468	0.6621	-0.007
Mof_C 	C 	0.5167	0.4993	0.6094	-0.009
Mof_C 	C 	0.5278	0.5528	0.6036	0.024
Mof_H 	H 	0.4903	0.5725	0.5677	0.008
Mof_C 	C 	0.5924	0.5774	0.6493	-0.191
Mof_S 	S 	0.55981	0.3994	0.663	0.008
Mof_C 	C 	0.6434	0.5472	0.7054	0.011
Mof_H 	H 	0.6863	0.5637	0.74	-0.015
Mof_C 	C 	0.6173	0.3804	0.6175	-0.207
Mof_H 	H 	0.5901	0.3879	0.5669	0.081
Mof_H 	H 	0.6647	0.4009	0.6356	0.087
Mof_C 	C 	0.6349	0.3225	0.6285	0.111
Mof_C 	C 	0.5811	0.2865	0.5875	-0.136
Mof_H 	H 	0.5341	0.2987	0.5538	0.057
Mof_C 	C 	0.5952	0.2331	0.5951	0.006
Mof_H 	H 	0.5584	0.2085	0.5675	0.013
Mof_C 	C 	0.6664	0.2165	0.6457	-0.064
Mof_C 	C 	0.7188	0.2524	0.688	0.01
Mof_H 	H 	0.7656	0.2405	0.7224	0.002
Mof_C 	C 	0.7032	0.3059	0.6803	-0.14
Mof_H 	H 	0.7385	0.3305	0.7099	0.065
Mof_C 	C 	0.6821	0.1609	0.6518	0.074
Mof_N 	N 	0.6956	0.1172	0.6571	-0.202
Mof_C 	C 	0.6086	0.6354	0.6442	0.577
Mof_C 	C 	0.6009	0.6643	0.7041	-0.874
Mof_H 	H 	0.551	0.6575	0.7032	0.263
Mof_H 	H 	0.607	0.7019	0.6993	0.262
Mof_H 	H 	0.6397	0.652	0.7486	0.271
Mof_C 	C 	0.5549	0.659	0.5742	-0.849
Mof_H 	H 	0.5033	0.6473	0.5635	0.263
Mof_H 	H 	0.5697	0.6474	0.5371	0.262
Mof_H 	H 	0.5572	0.6973	0.5774	0.254
Mof_C 	C 	0.6896	0.6432	0.6486	-0.829
Mof_H 	H 	0.6981	0.6804	0.6431	0.248
Mof_H 	H 	0.6954	0.6232	0.6113	0.252
Mof_H 	H 	0.7263	0.6309	0.6941	0.254
Mof_S 	S 	0.43488	0.4714	0.54026	-0.045
Mof_C 	C 	0.3796	0.4494	0.5852	0.017
Mof_C 	C 	0.3492	0.4833	0.6184	-0.034
Mof_C 	C 	0.3119	0.4597	0.657	0.027
Mof_C 	C 	0.3003	0.407	0.6548	-0.076
Mof_H 	H 	0.2736	0.3927	0.6799	0.046
Mof_C 	C 	0.3259	0.3734	0.6172	-0.04
Mof_C 	C 	0.3673	0.3951	0.5838	-0.065
Mof_H 	H 	0.3877	0.373	0.5595	0.032
Mof_S 	S 	0.35267	0.55267	0.61315	-0.043
Mof_C 	C 	0.3039	0.5638	0.5184	-0.2
Mof_H 	H 	0.3372	0.5535	0.4953	0.082
Mof_H 	H 	0.2579	0.542	0.4989	0.061
Mof_C 	C 	0.2833	0.6203	0.5044	0.095
Mof_C 	C 	0.3364	0.6603	0.5386	-0.124
Mof_H 	H 	0.3853	0.6512	0.5721	0.051
Mof_C 	C 	0.3172	0.712	0.5235	0.004
Mof_H 	H 	0.3526	0.7387	0.5469	0.018
Mof_C 	C 	0.2491	0.7247	0.476	-0.043
Mof_C 	C 	0.1963	0.688	0.4425	0.001
Mof_H 	H 	0.1475	0.6979	0.4097	0.012
Mof_C 	C 	0.2156	0.6341	0.4576	-0.135
Mof_H 	H 	0.1795	0.6079	0.4338	0.051
Mof_C 	C 	0.2281	0.7793	0.4577	0.064
Mof_N 	N 	0.2129	0.8228	0.4424	-0.143
Mof_C 	C 	0.3106	0.3142	0.6121	0.211
Mof_C 	C 	0.2242	0.3058	0.5712	-0.387
Mof_H 	H 	0.1992	0.3399	0.5582	0.114
Mof_H 	H 	0.2046	0.287	0.6009	0.111
Mof_H 	H 	0.2145	0.2853	0.5289	0.159
Mof_C 	C 	0.3535	0.2836	0.5802	-0.178
Mof_H 	H 	0.3202	0.2746	0.5319	0.055
Mof_H 	H 	0.3726	0.2514	0.6072	0.041
Mof_H 	H 	0.3958	0.3045	0.5807	0.048
Mof_C 	C 	0.3309	0.2956	0.6902	-0.088
Mof_H 	H 	0.3132	0.2596	0.6898	0.07
Mof_H 	H 	0.3064	0.3187	0.7118	0.034
Mof_H 	H 	0.3857	0.2969	0.7172	0.03
Mof_C 	C 	0.627	0.2744	0.812	-0.364
Mof_H 	H 	0.6149	0.2994	0.7731	0.106
Mof_H 	H 	0.5982	0.2422	0.7942	0.098
Mof_H 	H 	0.681	0.2665	0.8312	0.157
Mof_C 	C 	0.657	0.2726	0.9406	-0.15
Mof_H 	H 	0.6641	0.2356	0.9326	-0.026
Mof_H 	H 	0.6324	0.2753	0.973	0.132
Mof_H 	H 	0.7058	0.2902	0.9606	0.046
Mof_C 	C 	0.5221	0.2858	0.851	-0.242
Mof_H 	H 	0.5181	0.2659	0.8895	0.093
Mof_H 	H 	0.5018	0.2649	0.8082	0.096
Mof_H 	H 	0.4934	0.3184	0.8441	0.082
Mof_C 	C 	0.244	0.306	0.5404	-0.076
Mof_H 	H 	0.2632	0.2961	0.5057	-0.006
Mof_H 	H 	0.2151	0.3386	0.5258	0.029
Mof_H 	H 	0.2113	0.2782	0.5443	-0.006
Mof_C 	C 	0.3802	0.2857	0.6155	-0.177
Mof_H 	H 	0.4006	0.3037	0.5858	0.047
Mof_H 	H 	0.3669	0.2497	0.599	0.061
Mof_H 	H 	0.4182	0.2853	0.664	0.058
Mof_C 	C 	0.2884	0.2965	0.6713	-0.206
Mof_H 	H 	0.3162	0.2646	0.693	0.009
Mof_H 	H 	0.2342	0.2893	0.6519	0.049
Mof_H 	H 	0.3006	0.3242	0.7065	0.059
Mof_Ag	Ag	0.29449	0.97217	0.35676	0.566
Mof_Ag	Ag	0.70879	0.93019	0.12752	0.458
Mof_S 	S 	0.77708	0.00288	0.20981	-0.155
Mof_C 	C 	0.8612	0.9746	0.2751	0.005
Mof_C 	C 	0.9144	0.0065	0.3268	-0.013
Mof_C 	C 	0.976	0.9819	0.3786	0.001
Mof_C 	C 	0.9845	0.9285	0.381	-0.01
Mof_H 	H 	0.0276	0.913	0.4167	0.023
Mof_C 	C 	0.9298	0.8963	0.3307	-0.16
Mof_C 	C 	0.8709	0.9207	0.2772	0.002
Mof_H 	H 	0.8359	0.9	0.2407	-0.011
Mof_S 	S 	0.90099	0.07537	0.32624	0.016
Mof_C 	C 	0.8487	0.0787	0.3809	-0.224
Mof_H 	H 	0.8786	0.0642	0.428	0.091
Mof_H 	H 	0.8005	0.0594	0.3593	0.09
Mof_C 	C 	0.8351	0.1372	0.3846	0.136
Mof_C 	C 	0.7669	0.158	0.34	-0.163
Mof_H 	H 	0.7268	0.1359	0.3115	0.072
Mof_C 	C 	0.7582	0.2116	0.3376	0.035
Mof_H 	H 	0.7142	0.227	0.3031	-0.006
Mof_C 	C 	0.813	0.2428	0.3851	-0.083
Mof_C 	C 	0.8799	0.2217	0.4325	0.03
Mof_H 	H 	0.9184	0.2431	0.4648	-0.007
Mof_C 	C 	0.8885	0.1684	0.431	-0.168
Mof_H 	H 	0.9336	0.1528	0.4637	0.065
Mof_C 	C 	0.8042	0.2997	0.3812	0.081
Mof_N 	N 	0.7981	0.3437	0.3772	-0.212
Mof_C 	C 	0.9386	0.8367	0.3362	0.519
Mof_C 	C 	0.0221	0.8214	0.3577	-0.797
Mof_H 	H 	0.0487	0.822	0.4088	0.254
Mof_H 	H 	0.0247	0.7861	0.3405	0.242
Mof_H 	H 	0.0458	0.8463	0.3374	0.251
Mof_C 	C 	0.9195	0.8213	0.3997	-0.785
Mof_H 	H 	0.8659	0.8126	0.3826	0.236
Mof_H 	H 	0.9498	0.7909	0.4238	0.235
Mof_H 	H 	0.931	0.8508	0.4323	0.247
Mof_C 	C 	0.8944	0.8124	0.2645	-0.823
Mof_H 	H 	0.9221	0.8174	0.2351	0.249
Mof_H 	H 	0.8877	0.7749	0.2699	0.248
Mof_H 	H 	0.845	0.8293	0.2424	0.255
Mof_S 	S 	0.04558	0.01829	0.44836	-0.041
Mof_C 	C 	0.0914	0.0547	0.4042	-0
Mof_C 	C 	0.1337	0.0312	0.3706	-0.018
Mof_C 	C 	0.16	0.0646	0.3332	0.007
Mof_C 	C 	0.1524	0.1189	0.3344	-0.021
Mof_H 	H 	0.172	0.1403	0.3088	0.028
Mof_C 	C 	0.117	0.1422	0.3721	-0.134
Mof_C 	C 	0.0852	0.1085	0.4064	-0.017
Mof_H 	H 	0.059	0.1232	0.4316	0.023
Mof_S 	S 	0.15309	0.96283	0.37531	-0.048
Mof_C 	C 	0.2045	0.9516	0.469	-0.205
Mof_H 	H 	0.1991	0.9143	0.4789	0.088
Mof_H 	H 	0.1809	0.9728	0.4941	0.086
Mof_C 	C 	0.2872	0.9649	0.4977	0.09
Mof_C 	C 	0.3406	0.9255	0.5265	-0.148
Mof_H 	H 	0.3251	0.8901	0.5254	0.076
Mof_C 	C 	0.4169	0.9381	0.557	0.02
Mof_H 	H 	0.4531	0.9112	0.5773	0.01
Mof_C 	C 	0.4407	0.9891	0.5581	-0.085
Mof_C 	C 	0.3856	0.0293	0.5262	0.022
Mof_H 	H 	0.4014	0.0643	0.5243	0.007
Mof_C 	C 	0.3113	0.0176	0.499	-0.163
Mof_H 	H 	0.275	0.0446	0.4806	0.071
Mof_C 	C 	0.5186	0.0017	0.5872	0.1
Mof_N 	N 	0.5792	0.0111	0.6071	-0.208
Mof_C 	C 	0.1063	0.2012	0.37	0.451
Mof_C 	C 	0.0828	0.2202	0.4279	-0.479
Mof_H 	H 	0.0766	0.2584	0.425	0.136
Mof_H 	H 	0.0351	0.2037	0.4218	0.147
Mof_H 	H 	0.1219	0.2107	0.4738	0.041
Mof_C 	C 	0.1795	0.2298	0.3801	-0.425
Mof_H 	H 	0.1877	0.259	0.4129	0.168
Mof_H 	H 	0.222	0.2054	0.399	0.123
Mof_H 	H 	0.1755	0.2434	0.335	0.063
Mof_C 	C 	0.0408	0.2096	0.2989	-0.366
Mof_H 	H 	0.0598	0.2244	0.2661	0.139
Mof_H 	H 	0.0162	0.1761	0.2808	0.128
Mof_H 	H 	0.0044	0.2339	0.304	0.055
Mof_S 	S 	0.20557	0.04159	0.27906	-0.148
Mof_C 	C 	0.1325	0.0055	0.2109	-0.002
Mof_C 	C 	0.0694	0.032	0.1621	-0.007
Mof_C 	C 	0.0167	0.0007	0.1094	-0.009
Mof_C 	C 	0.0278	0.9472	0.1036	0.022
Mof_H 	H 	0.9903	0.9275	0.0677	0.009
Mof_C 	C 	0.0924	0.9226	0.1493	-0.19
Mof_S 	S 	0.05981	0.1006	0.163	0.008
Mof_C 	C 	0.1434	0.9528	0.2054	0.01
Mof_H 	H 	0.1863	0.9363	0.24	-0.015
Mof_C 	C 	0.1173	0.1196	0.1175	-0.207
Mof_H 	H 	0.0901	0.1121	0.0669	0.081
Mof_H 	H 	0.1647	0.0991	0.1356	0.087
Mof_C 	C 	0.1349	0.1775	0.1285	0.111
Mof_C 	C 	0.0811	0.2135	0.0875	-0.136
Mof_H 	H 	0.0341	0.2013	0.0538	0.057
Mof_C 	C 	0.0952	0.2669	0.0951	0.006
Mof_H 	H 	0.0584	0.2915	0.0675	0.013
Mof_C 	C 	0.1664	0.2835	0.1457	-0.064
Mof_C 	C 	0.2188	0.2476	0.188	0.01
Mof_H 	H 	0.2656	0.2595	0.2224	0.002
Mof_C 	C 	0.2032	0.1941	0.1803	-0.14
Mof_H 	H 	0.2385	0.1695	0.2099	0.065
Mof_C 	C 	0.1821	0.3391	0.1518	0.074
Mof_N 	N 	0.1956	0.3828	0.1571	-0.202
Mof_C 	C 	0.1086	0.8646	0.1442	0.576
Mof_C 	C 	0.1009	0.8357	0.2041	-0.873
Mof_H 	H 	0.051	0.8425	0.2032	0.263
Mof_H 	H 	0.107	0.7981	0.1993	0.262
Mof_H 	H 	0.1397	0.848	0.2486	0.271
Mof_C 	C 	0.0549	0.841	0.0742	-0.847
Mof_H 	H 	0.0033	0.8527	0.0635	0.262
Mof_H 	H 	0.0697	0.8526	0.0371	0.261
Mof_H 	H 	0.0572	0.8027	0.0774	0.254
Mof_C 	C 	0.1896	0.8568	0.1486	-0.828
Mof_H 	H 	0.1981	0.8196	0.1431	0.248
Mof_H 	H 	0.1954	0.8768	0.1113	0.252
Mof_H 	H 	0.2263	0.8691	0.1941	0.254
Mof_S 	S 	0.93488	0.0286	0.04026	-0.044
Mof_C 	C 	0.8796	0.0506	0.0852	0.017
Mof_C 	C 	0.8492	0.0167	0.1184	-0.034
Mof_C 	C 	0.8119	0.0403	0.157	0.027
Mof_C 	C 	0.8003	0.093	0.1548	-0.076
Mof_H 	H 	0.7736	0.1073	0.1799	0.046
Mof_C 	C 	0.8259	0.1266	0.1172	-0.041
Mof_C 	C 	0.8673	0.1049	0.0838	-0.065
Mof_H 	H 	0.8877	0.127	0.0595	0.032
Mof_S 	S 	0.85267	0.94733	0.11315	-0.043
Mof_C 	C 	0.8039	0.9362	0.0184	-0.2
Mof_H 	H 	0.8372	0.9465	0.9953	0.082
Mof_H 	H 	0.7579	0.958	0.9989	0.061
Mof_C 	C 	0.7833	0.8797	0.0044	0.095
Mof_C 	C 	0.8364	0.8397	0.0386	-0.124
Mof_H 	H 	0.8853	0.8488	0.0721	0.051
Mof_C 	C 	0.8172	0.788	0.0235	0.005
Mof_H 	H 	0.8526	0.7613	0.0469	0.018
Mof_C 	C 	0.7491	0.7753	0.976	-0.043
Mof_C 	C 	0.6963	0.812	0.9425	0.001
Mof_H 	H 	0.6475	0.8021	0.9097	0.012
Mof_C 	C 	0.7156	0.8659	0.9576	-0.135
Mof_H 	H 	0.6795	0.8921	0.9338	0.051
Mof_C 	C 	0.7281	0.7207	0.9577	0.064
Mof_N 	N 	0.7129	0.6772	0.9424	-0.143
Mof_C 	C 	0.8106	0.1858	0.1121	0.212
Mof_C 	C 	0.7242	0.1942	0.0712	-0.387
Mof_H 	H 	0.6992	0.1601	0.0582	0.114
Mof_H 	H 	0.7046	0.213	0.1009	0.111
Mof_H 	H 	0.7145	0.2147	0.0289	0.159
Mof_C 	C 	0.8535	0.2164	0.0802	-0.178
Mof_H 	H 	0.8202	0.2254	0.0319	0.055
Mof_H 	H 	0.8726	0.2486	0.1072	0.041
Mof_H 	H 	0.8958	0.1955	0.0807	0.048
Mof_C 	C 	0.8309	0.2044	0.1902	-0.088
Mof_H 	H 	0.8132	0.2404	0.1898	0.07
Mof_H 	H 	0.8064	0.1813	0.2118	0.034
Mof_H 	H 	0.8857	0.2031	0.2172	0.03
Mof_C 	C 	0.127	0.2256	0.312	-0.364
Mof_H 	H 	0.1149	0.2006	0.2731	0.107
Mof_H 	H 	0.0982	0.2578	0.2942	0.099
Mof_H 	H 	0.181	0.2335	0.3312	0.158
Mof_C 	C 	0.157	0.2274	0.4406	-0.15
Mof_H 	H 	0.1641	0.2644	0.4326	-0.026
Mof_H 	H 	0.1324	0.2247	0.473	0.132
Mof_H 	H 	0.2058	0.2098	0.4606	0.046
Mof_C 	C 	0.0221	0.2142	0.351	-0.243
Mof_H 	H 	0.0181	0.2341	0.3895	0.093
Mof_H 	H 	0.0018	0.2351	0.3082	0.096
Mof_H 	H 	0.9934	0.1816	0.3441	0.082
Mof_C 	C 	0.744	0.194	0.0404	-0.076
Mof_H 	H 	0.7632	0.2039	0.0057	-0.006
Mof_H 	H 	0.7151	0.1614	0.0258	0.029
Mof_H 	H 	0.7113	0.2218	0.0443	-0.006
Mof_C 	C 	0.8802	0.2143	0.1155	-0.177
Mof_H 	H 	0.9006	0.1963	0.0858	0.047
Mof_H 	H 	0.8669	0.2503	0.099	0.061
Mof_H 	H 	0.9182	0.2147	0.164	0.058
Mof_C 	C 	0.7884	0.2035	0.1713	-0.206
Mof_H 	H 	0.8162	0.2354	0.193	0.01
Mof_H 	H 	0.7342	0.2107	0.1519	0.049
Mof_H 	H 	0.8006	0.1758	0.2065	0.059
Mof_Ag	Ag	0.20551	0.47217	0.14324	0.566
Mof_Ag	Ag	0.79121	0.43019	0.37248	0.459
Mof_S 	S 	0.72292	0.50288	0.29019	-0.156
Mof_C 	C 	0.6388	0.4746	0.2249	0.006
Mof_C 	C 	0.5856	0.5065	0.1732	-0.014
Mof_C 	C 	0.524	0.4819	0.1214	0.002
Mof_C 	C 	0.5155	0.4285	0.119	-0.01
Mof_H 	H 	0.4724	0.413	0.0833	0.024
Mof_C 	C 	0.5702	0.3963	0.1693	-0.16
Mof_C 	C 	0.6291	0.4207	0.2228	0.002
Mof_H 	H 	0.6641	0.4	0.2593	-0.01
Mof_S 	S 	0.59901	0.57537	0.17376	0.016
Mof_C 	C 	0.6513	0.5787	0.1191	-0.224
Mof_H 	H 	0.6214	0.5642	0.072	0.091
Mof_H 	H 	0.6995	0.5594	0.1407	0.091
Mof_C 	C 	0.6649	0.6372	0.1154	0.136
Mof_C 	C 	0.7331	0.658	0.16	-0.163
Mof_H 	H 	0.7732	0.6359	0.1885	0.072
Mof_C 	C 	0.7418	0.7116	0.1624	0.035
Mof_H 	H 	0.7858	0.727	0.1969	-0.006
Mof_C 	C 	0.687	0.7428	0.1149	-0.083
Mof_C 	C 	0.6201	0.7217	0.0675	0.03
Mof_H 	H 	0.5816	0.7431	0.0352	-0.007
Mof_C 	C 	0.6115	0.6684	0.069	-0.168
Mof_H 	H 	0.5664	0.6528	0.0363	0.065
Mof_C 	C 	0.6958	0.7997	0.1188	0.081
Mof_N 	N 	0.7019	0.8437	0.1228	-0.212
Mof_C 	C 	0.5614	0.3367	0.1638	0.519
Mof_C 	C 	0.4779	0.3214	0.1423	-0.797
Mof_H 	H 	0.4513	0.322	0.0912	0.254
Mof_H 	H 	0.4753	0.2861	0.1595	0.242
Mof_H 	H 	0.4542	0.3463	0.1626	0.251
Mof_C 	C 	0.5805	0.3213	0.1003	-0.785
Mof_H 	H 	0.6341	0.3126	0.1174	0.236
Mof_H 	H 	0.5502	0.2909	0.0762	0.235
Mof_H 	H 	0.569	0.3508	0.0677	0.247
Mof_C 	C 	0.6056	0.3124	0.2355	-0.823
Mof_H 	H 	0.5779	0.3174	0.2649	0.249
Mof_H 	H 	0.6123	0.2749	0.2301	0.248
Mof_H 	H 	0.655	0.3293	0.2576	0.255
Mof_S 	S 	0.45442	0.51829	0.05164	-0.041
Mof_C 	C 	0.4086	0.5547	0.0958	-0
Mof_C 	C 	0.3663	0.5312	0.1294	-0.018
Mof_C 	C 	0.34	0.5646	0.1668	0.007
Mof_C 	C 	0.3476	0.6189	0.1656	-0.021
Mof_H 	H 	0.328	0.6403	0.1912	0.028
Mof_C 	C 	0.383	0.6422	0.1279	-0.134
Mof_C 	C 	0.4148	0.6085	0.0936	-0.017
Mof_H 	H 	0.441	0.6232	0.0684	0.023
Mof_S 	S 	0.34691	0.46283	0.12469	-0.048
Mof_C 	C 	0.2955	0.4516	0.031	-0.205
Mof_H 	H 	0.3009	0.4143	0.0211	0.088
Mof_H 	H 	0.3191	0.4728	0.0059	0.086
Mof_C 	C 	0.2128	0.4649	0.0023	0.09
Mof_C 	C 	0.1594	0.4255	0.9735	-0.148
Mof_H 	H 	0.1749	0.3901	0.9746	0.076
Mof_C 	C 	0.0831	0.4381	0.943	0.019
Mof_H 	H 	0.0469	0.4112	0.9227	0.01
Mof_C 	C 	0.0593	0.4891	0.9419	-0.084
Mof_C 	C 	0.1144	0.5293	0.9738	0.023
Mof_H 	H 	0.0986	0.5643	0.9757	0.007
Mof_C 	C 	0.1887	0.5176	0.001	-0.164
Mof_H 	H 	0.225	0.5446	0.0194	0.071
Mof_C 	C 	0.9814	0.5017	0.9128	0.1
Mof_N 	N 	0.9208	0.5111	0.8929	-0.208
Mof_C 	C 	0.3937	0.7012	0.13	0.451
Mof_C 	C 	0.4172	0.7202	0.0721	-0.479
Mof_H 	H 	0.4234	0.7584	0.075	0.136
Mof_H 	H 	0.4649	0.7037	0.0782	0.147
Mof_H 	H 	0.3781	0.7107	0.0262	0.04
Mof_C 	C 	0.3205	0.7298	0.1199	-0.425
Mof_H 	H 	0.3123	0.759	0.0871	0.168
Mof_H 	H 	0.278	0.7054	0.101	0.122
Mof_H 	H 	0.3245	0.7434	0.165	0.063
Mof_C 	C 	0.4592	0.7096	0.2011	-0.367
Mof_H 	H 	0.4402	0.7244	0.2339	0.139
Mof_H 	H 	0.4838	0.6761	0.2192	0.128
Mof_H 	H 	0.4956	0.7339	0.196	0.055
Mof_S 	S 	0.29443	0.54159	0.22094	-0.148
Mof_C 	C 	0.3675	0.5055	0.2891	-0.003
Mof_C 	C 	0.4306	0.532	0.3379	-0.007
Mof_C 	C 	0.4833	0.5007	0.3906	-0.009
Mof_C 	C 	0.4722	0.4472	0.3964	0.024
Mof_H 	H 	0.5097	0.4275	0.4323	0.008
Mof_C 	C 	0.4076	0.4226	0.3507	-0.191
Mof_S 	S 	0.44019	0.6006	0.337	0.008
Mof_C 	C 	0.3566	0.4528	0.2946	0.011
Mof_H 	H 	0.3137	0.4363	0.26	-0.015
Mof_C 	C 	0.3827	0.6196	0.3825	-0.207
Mof_H 	H 	0.4099	0.6121	0.4331	0.081
Mof_H 	H 	0.3353	0.5991	0.3644	0.087
Mof_C 	C 	0.3651	0.6775	0.3715	0.111
Mof_C 	C 	0.4189	0.7135	0.4125	-0.136
Mof_H 	H 	0.4659	0.7013	0.4462	0.057
Mof_C 	C 	0.4048	0.7669	0.4049	0.006
Mof_H 	H 	0.4416	0.7915	0.4325	0.013
Mof_C 	C 	0.3336	0.7835	0.3543	-0.064
Mof_C 	C 	0.2812	0.7476	0.312	0.01
Mof_H 	H 	0.2344	0.7595	0.2776	0.002
Mof_C 	C 	0.2968	0.6941	0.3197	-0.14
Mof_H 	H 	0.2615	0.6695	0.2901	0.065
Mof_C 	C 	0.3179	0.8391	0.3482	0.074
Mof_N 	N 	0.3044	0.8828	0.3429	-0.202
Mof_C 	C 	0.3914	0.3646	0.3558	0.577
Mof_C 	C 	0.3991	0.3357	0.2959	-0.874
Mof_H 	H 	0.449	0.3425	0.2968	0.263
Mof_H 	H 	0.393	0.2981	0.3007	0.262
Mof_H 	H 	0.3603	0.348	0.2514	0.271
Mof_C 	C 	0.4451	0.341	0.4258	-0.849
Mof_H 	H 	0.4967	0.3527	0.4365	0.263
Mof_H 	H 	0.4303	0.3526	0.4629	0.262
Mof_H 	H 	0.4428	0.3027	0.4226	0.254
Mof_C 	C 	0.3104	0.3568	0.3514	-0.829
Mof_H 	H 	0.3019	0.3196	0.3569	0.248
Mof_H 	H 	0.3046	0.3768	0.3887	0.252
Mof_H 	H 	0.2737	0.3691	0.3059	0.254
Mof_S 	S 	0.56512	0.5286	0.45974	-0.045
Mof_C 	C 	0.6204	0.5506	0.4148	0.017
Mof_C 	C 	0.6508	0.5167	0.3816	-0.034
Mof_C 	C 	0.6881	0.5403	0.343	0.027
Mof_C 	C 	0.6997	0.593	0.3452	-0.076
Mof_H 	H 	0.7264	0.6073	0.3201	0.046
Mof_C 	C 	0.6741	0.6266	0.3828	-0.04
Mof_C 	C 	0.6327	0.6049	0.4162	-0.065
Mof_H 	H 	0.6123	0.627	0.4405	0.032
Mof_S 	S 	0.64733	0.44733	0.38685	-0.043
Mof_C 	C 	0.6961	0.4362	0.4816	-0.2
Mof_H 	H 	0.6628	0.4465	0.5047	0.082
Mof_H 	H 	0.7421	0.458	0.5011	0.061
Mof_C 	C 	0.7167	0.3797	0.4956	0.095
Mof_C 	C 	0.6636	0.3397	0.4614	-0.124
Mof_H 	H 	0.6147	0.3488	0.4279	0.051
Mof_C 	C 	0.6828	0.288	0.4765	0.004
Mof_H 	H 	0.6474	0.2613	0.4531	0.018
Mof_C 	C 	0.7509	0.2753	0.524	-0.043
Mof_C 	C 	0.8037	0.312	0.5575	0.001
Mof_H 	H 	0.8525	0.3021	0.5903	0.012
Mof_C 	C 	0.7844	0.3659	0.5424	-0.135
Mof_H 	H 	0.8205	0.3921	0.5662	0.051
Mof_C 	C 	0.7719	0.2207	0.5423	0.064
Mof_N 	N 	0.7871	0.1772	0.5576	-0.143
Mof_C 	C 	0.6894	0.6858	0.3879	0.211
Mof_C 	C 	0.7758	0.6942	0.4288	-0.387
Mof_H 	H 	0.8008	0.6601	0.4418	0.114
Mof_H 	H 	0.7954	0.713	0.3991	0.111
Mof_H 	H 	0.7855	0.7147	0.4711	0.159
Mof_C 	C 	0.6465	0.7164	0.4198	-0.178
Mof_H 	H 	0.6798	0.7254	0.4681	0.055
Mof_H 	H 	0.6274	0.7486	0.3928	0.041
Mof_H 	H 	0.6042	0.6955	0.4193	0.048
Mof_C 	C 	0.6691	0.7044	0.3098	-0.088
Mof_H 	H 	0.6868	0.7404	0.3102	0.07
Mof_H 	H 	0.6936	0.6813	0.2882	0.034
Mof_H 	H 	0.6143	0.7031	0.2828	0.03
Mof_C 	C 	0.373	0.7256	0.188	-0.364
Mof_H 	H 	0.3851	0.7006	0.2269	0.106
Mof_H 	H 	0.4018	0.7578	0.2058	0.098
Mof_H 	H 	0.319	0.7335	0.1688	0.157
Mof_C 	C 	0.343	0.7274	0.0594	-0.15
Mof_H 	H 	0.3359	0.7644	0.0674	-0.026
Mof_H 	H 	0.3676	0.7247	0.027	0.132
Mof_H 	H 	0.2942	0.7098	0.0394	0.046
Mof_C 	C 	0.4779	0.7142	0.149	-0.242
Mof_H 	H 	0.4819	0.7341	0.1105	0.093
Mof_H 	H 	0.4982	0.7351	0.1918	0.096
Mof_H 	H 	0.5066	0.6816	0.1559	0.082
Mof_C 	C 	0.756	0.694	0.4596	-0.076
Mof_H 	H 	0.7368	0.7039	0.4943	-0.006
Mof_H 	H 	0.7849	0.6614	0.4742	0.029
Mof_H 	H 	0.7887	0.7218	0.4557	-0.006
Mof_C 	C 	0.6198	0.7143	0.3845	-0.177
Mof_H 	H 	0.5994	0.6963	0.4142	0.047
Mof_H 	H 	0.6331	0.7503	0.401	0.061
Mof_H 	H 	0.5818	0.7147	0.336	0.058
Mof_C 	C 	0.7116	0.7035	0.3287	-0.206
Mof_H 	H 	0.6838	0.7354	0.307	0.009
Mof_H 	H 	0.7658	0.7107	0.3481	0.049
Mof_H 	H 	0.6994	0.6758	0.2935	0.059
_end
