data_functionalizedCrystal
_audit_creation_method	'EQeq! by Chris Wilmer'
_symmetry_space_group_name_H-M	'P1'
_symmetry_Int_Tables_number	1
_symmetry_cell_setting	triclinic
loop_
_symmetry_equiv_pos_as_xyz
  x,y,z
_cell_length_a	8.3028
_cell_length_b	9.463
_cell_length_c	20.6398
_cell_angle_alpha	90
_cell_angle_beta	90
_cell_angle_gamma	109.867
loop_
_atom_site_label
_atom_site_type_symbol
_atom_site_fract_x
_atom_site_fract_y
_atom_site_fract_z
_atom_site_charge
Mof_La	La	0.37685	0.39893	0.64839	2.021
Mof_La	La	0.62315	0.10107	0.14839	2.003
Mof_La	La	0.62315	0.60107	0.35161	2.02
Mof_La	La	0.37685	0.89893	0.85161	2.002
Mof_Cu	Cu	0.03685	0.94895	0.70321	0.905
Mof_Cu	Cu	0.96315	0.55105	0.20321	0.911
Mof_Cu	Cu	0.96315	0.05105	0.29679	0.905
Mof_Cu	Cu	0.03685	0.44895	0.79679	0.911
Mof_P 	P 	0.20913	0.69441	0.69982	0.462
Mof_P 	P 	0.79087	0.80559	0.19982	0.462
Mof_P 	P 	0.79087	0.30559	0.30018	0.462
Mof_P 	P 	0.20913	0.19441	0.80018	0.462
Mof_H 	H 	0.7793	0.7392	0.593	0.111
Mof_H 	H 	0.8672	0.6142	0.6035	0.132
Mof_H 	H 	0.1062	0.9011	0.5302	0.126
Mof_H 	H 	0.9451	0.9443	0.5542	0.118
Mof_H 	H 	0.143	0.6804	0.5904	0.099
Mof_H 	H 	0.2771	0.8425	0.6074	0.094
Mof_H 	H 	0.2207	0.7608	0.093	0.112
Mof_H 	H 	0.1328	0.8858	0.1035	0.133
Mof_H 	H 	0.8938	0.5989	0.0302	0.122
Mof_H 	H 	0.0549	0.5557	0.0542	0.111
Mof_H 	H 	0.857	0.8196	0.0904	0.101
Mof_H 	H 	0.7229	0.6575	0.1074	0.095
Mof_H 	H 	0.2207	0.2608	0.407	0.111
Mof_H 	H 	0.1328	0.3858	0.3965	0.132
Mof_H 	H 	0.8938	0.0989	0.4698	0.126
Mof_H 	H 	0.0549	0.0557	0.4458	0.118
Mof_H 	H 	0.857	0.3196	0.4096	0.099
Mof_H 	H 	0.7229	0.1575	0.3926	0.094
Mof_H 	H 	0.7793	0.2392	0.907	0.112
Mof_H 	H 	0.8672	0.1142	0.8965	0.133
Mof_H 	H 	0.1062	0.4011	0.9698	0.122
Mof_H 	H 	0.9451	0.4443	0.9458	0.111
Mof_H 	H 	0.143	0.1804	0.9096	0.101
Mof_H 	H 	0.2771	0.3425	0.8926	0.095
Mof_C 	C 	0.7808	0.6775	0.68952	0.431
Mof_C 	C 	0.857	0.7078	0.62146	-0.326
Mof_C 	C 	0.056	0.9363	0.56777	-0.331
Mof_C 	C 	0.1765	0.0893	0.59003	0.372
Mof_C 	C 	0.1706	0.7637	0.62177	-0.241
Mof_C 	C 	0.5692	0.4619	0.50243	0.262
Mof_C 	C 	0.2192	0.8225	0.18952	0.431
Mof_C 	C 	0.143	0.7922	0.12146	-0.331
Mof_C 	C 	0.944	0.5637	0.06777	-0.313
Mof_C 	C 	0.8235	0.4107	0.09003	0.361
Mof_C 	C 	0.8294	0.7363	0.12177	-0.24
Mof_C 	C 	0.4308	0.0381	0.00243	0.256
Mof_C 	C 	0.2192	0.3225	0.31048	0.431
Mof_C 	C 	0.143	0.2922	0.37854	-0.326
Mof_C 	C 	0.944	0.0637	0.43223	-0.331
Mof_C 	C 	0.8235	0.9107	0.40997	0.372
Mof_C 	C 	0.8294	0.2363	0.37823	-0.241
Mof_C 	C 	0.4308	0.5381	0.49757	0.262
Mof_C 	C 	0.7808	0.1775	0.81048	0.431
Mof_C 	C 	0.857	0.2078	0.87854	-0.331
Mof_C 	C 	0.056	0.4363	0.93223	-0.313
Mof_C 	C 	0.1765	0.5893	0.90997	0.361
Mof_C 	C 	0.1706	0.2637	0.87823	-0.24
Mof_C 	C 	0.5692	0.9619	0.99757	0.256
Mof_N 	N 	0.0287	0.8273	0.62213	-0.094
Mof_N 	N 	0.9713	0.6727	0.12213	-0.093
Mof_N 	N 	0.9713	0.1727	0.37787	-0.094
Mof_N 	N 	0.0287	0.3273	0.87787	-0.093
Mof_O 	O 	0.8425	0.7783	0.73291	-0.427
Mof_O 	O 	0.6584	0.5589	0.69929	-0.476
Mof_O 	O 	0.1993	0.1088	0.65176	-0.559
Mof_O 	O 	0.2448	0.1908	0.5511	-0.422
Mof_O 	O 	0.3567	0.6363	0.69051	-0.471
Mof_O 	O 	0.0435	0.5649	0.71906	-0.414
Mof_O 	O 	0.2484	0.8303	0.7442	-0.52
Mof_O 	O 	0.5913	0.4123	0.55738	-0.422
Mof_O 	O 	0.6499	0.4567	0.45198	-0.434
Mof_O 	O 	0.1575	0.7217	0.23291	-0.428
Mof_O 	O 	0.3416	0.9411	0.19929	-0.472
Mof_O 	O 	0.8007	0.3912	0.15176	-0.559
Mof_O 	O 	0.7552	0.3092	0.0511	-0.42
Mof_O 	O 	0.6433	0.8637	0.19051	-0.466
Mof_O 	O 	0.9565	0.9351	0.21906	-0.407
Mof_O 	O 	0.7516	0.6697	0.2442	-0.519
Mof_O 	O 	0.4087	0.0877	0.05738	-0.42
Mof_O 	O 	0.3501	0.0433	0.95198	-0.425
Mof_O 	O 	0.1575	0.2217	0.26709	-0.427
Mof_O 	O 	0.3416	0.4411	0.30071	-0.476
Mof_O 	O 	0.8007	0.8912	0.34824	-0.559
Mof_O 	O 	0.7552	0.8092	0.4489	-0.422
Mof_O 	O 	0.6433	0.3637	0.30949	-0.471
Mof_O 	O 	0.9565	0.4351	0.28094	-0.414
Mof_O 	O 	0.7516	0.1697	0.2558	-0.52
Mof_O 	O 	0.4087	0.5877	0.44262	-0.422
Mof_O 	O 	0.3501	0.5433	0.54802	-0.434
Mof_O 	O 	0.8425	0.2783	0.76709	-0.428
Mof_O 	O 	0.6584	0.0589	0.80071	-0.472
Mof_O 	O 	0.1993	0.6088	0.84824	-0.559
Mof_O 	O 	0.2448	0.6908	0.9489	-0.42
Mof_O 	O 	0.3567	0.1363	0.80949	-0.466
Mof_O 	O 	0.0435	0.0649	0.78094	-0.407
Mof_O 	O 	0.2484	0.3303	0.7558	-0.519
Mof_O 	O 	0.5913	0.9123	0.94262	-0.42
Mof_O 	O 	0.6499	0.9567	0.04802	-0.425
_end
