data_functionalizedCrystal
_audit_creation_method	'EQeq! by Chris Wilmer'
_symmetry_space_group_name_H-M	'P1'
_symmetry_Int_Tables_number	1
_symmetry_cell_setting	triclinic
loop_
_symmetry_equiv_pos_as_xyz
  x,y,z
_cell_length_a	10.364
_cell_length_b	26.746
_cell_length_c	27.804
_cell_angle_alpha	90
_cell_angle_beta	93.91
_cell_angle_gamma	90
loop_
_atom_site_label
_atom_site_type_symbol
_atom_site_fract_x
_atom_site_fract_y
_atom_site_fract_z
_atom_site_charge
Mof_C 	C 	0.9636	0.371	0.0715	0.394
Mof_C 	C 	0.9703	0.4169	0.0379	-0.077
Mof_C 	C 	0.9556	0.4083	0.9876	0.009
Mof_H 	H 	0.9373	0.3758	0.976	0.046
Mof_C 	C 	0.9916	0.462	0.056	-0.032
Mof_H 	H 	0.9967	0.4669	0.0895	0.059
Mof_C 	C 	0.0071	0.504	0.0238	0.024
Mof_C 	C 	0.0322	0.5527	0.0448	-0.082
Mof_H 	H 	0.0399	0.5577	0.0783	0.062
Mof_C 	C 	0.2451	0.3358	0.2064	0.38
Mof_C 	C 	0.3673	0.3633	0.2152	-0.11
Mof_C 	C 	0.4856	0.3403	0.2066	0.044
Mof_H 	H 	0.4869	0.3067	0.1968	0.046
Mof_C 	C 	0.5985	0.3665	0.2125	-0.1
Mof_C 	C 	0.5994	0.4153	0.228	0.009
Mof_H 	H 	0.6782	0.4328	0.2319	0.044
Mof_C 	C 	0.4846	0.4392	0.238	-0.042
Mof_C 	C 	0.3692	0.4125	0.2307	0.014
Mof_H 	H 	0.2908	0.4283	0.2366	0.042
Mof_C 	C 	0.7215	0.3412	0.1979	0.37
Mof_C 	C 	0.4868	0.4918	0.2552	0.089
Mof_C 	C 	0.5908	0.5129	0.2804	-0.141
Mof_H 	H 	0.6646	0.4931	0.2874	0.084
Mof_C 	C 	0.5923	0.5613	0.296	0.069
Mof_H 	H 	0.6659	0.5739	0.3136	0.026
Mof_C 	C 	0.4845	0.5927	0.2858	-0.137
Mof_C 	C 	0.3784	0.573	0.2592	0.065
Mof_H 	H 	0.3063	0.5934	0.2511	0.028
Mof_C 	C 	0.3779	0.5231	0.2443	-0.131
Mof_H 	H 	0.3045	0.51	0.2269	0.08
Mof_C 	C 	0.4874	0.6456	0.3008	0.392
Mof_C 	C 	0.6918	0.2223	0.0819	0.39
Mof_C 	C 	0.5648	0.2193	0.0537	-0.112
Mof_C 	C 	0.4523	0.2186	0.0785	0.048
Mof_H 	H 	0.4568	0.2163	0.1123	0.045
Mof_C 	C 	0.3322	0.2215	0.0521	-0.11
Mof_C 	C 	0.3249	0.2248	0.0023	0.017
Mof_H 	H 	0.2436	0.2269	0.9853	0.041
Mof_C 	C 	0.4365	0.2248	0.977	-0.051
Mof_C 	C 	0.5589	0.2244	0.0038	0.016
Mof_H 	H 	0.6354	0.2275	0.9878	0.041
Mof_C 	C 	0.2126	0.225	0.0788	0.373
Mof_C 	C 	0.4309	0.2294	0.9243	0.111
Mof_C 	C 	0.3326	0.255	0.8989	-0.16
Mof_H 	H 	0.2658	0.2692	0.9156	0.089
Mof_C 	C 	0.3306	0.2601	0.8497	0.089
Mof_H 	H 	0.2599	0.276	0.8331	0.019
Mof_C 	C 	0.4293	0.2424	0.8245	-0.155
Mof_C 	C 	0.5257	0.2174	0.8501	0.088
Mof_H 	H 	0.5936	0.2043	0.8332	0.02
Mof_C 	C 	0.5296	0.21	0.8996	-0.16
Mof_H 	H 	0.5979	0.1923	0.9157	0.091
Mof_C 	C 	0.4291	0.2497	0.7706	0.402
Mof_O 	O 	0.9705	0.26971	0.15053	-0.934
Mof_O 	O 	0.9476	0.3297	0.05093	-0.491
Mof_O 	O 	0.969	0.3801	0.1151	-0.482
Mof_O 	O 	0.2562	0.28814	0.20118	-0.467
Mof_O 	O 	0.1419	0.36016	0.20333	-0.474
Mof_O 	O 	0.7114	0.2998	0.17835	-0.461
Mof_O 	O 	0.8277	0.36491	0.20625	-0.464
Mof_O 	O 	0.5874	0.6614	0.32335	-0.467
Mof_O 	O 	0.3852	0.67106	0.29198	-0.476
Mof_O 	O 	0.6955	0.2122	0.12588	-0.459
Mof_O 	O 	0.7906	0.23381	0.05919	-0.485
Mof_O 	O 	0.2217	0.21736	0.12337	-0.454
Mof_O 	O 	0.1068	0.23408	0.05397	-0.471
Mof_O 	O 	0.33	0.2674	0.74823	-0.474
Mof_O 	O 	0.523	0.2327	0.7511	-0.471
Mof_Zn	Zn	0.12219	0.23806	0.18285	1.22
Mof_Zn	Zn	0.82782	0.23343	0.17772	1.221
Mof_Zn	Zn	0.95543	0.26408	0.08185	1.219
Mof_Zn	Zn	0.97311	0.33657	0.17495	1.218
Mof_C 	C 	0.5364	0.871	0.4285	0.393
Mof_C 	C 	0.5297	0.9169	0.4621	-0.078
Mof_C 	C 	0.5444	0.9083	0.5124	0.008
Mof_H 	H 	0.5627	0.8758	0.524	0.045
Mof_C 	C 	0.5084	0.962	0.444	-0.032
Mof_H 	H 	0.5033	0.9669	0.4105	0.059
Mof_C 	C 	0.4929	0.004	0.4762	0.023
Mof_C 	C 	0.4678	0.0527	0.4552	-0.081
Mof_H 	H 	0.4601	0.0577	0.4217	0.062
Mof_C 	C 	0.2549	0.8358	0.2936	0.38
Mof_C 	C 	0.1327	0.8633	0.2848	-0.11
Mof_C 	C 	0.0144	0.8403	0.2934	0.043
Mof_H 	H 	0.0131	0.8067	0.3032	0.046
Mof_C 	C 	0.9015	0.8665	0.2875	-0.099
Mof_C 	C 	0.9006	0.9153	0.272	0.008
Mof_H 	H 	0.8218	0.9328	0.2681	0.045
Mof_C 	C 	0.0154	0.9392	0.262	-0.042
Mof_C 	C 	0.1308	0.9125	0.2693	0.013
Mof_H 	H 	0.2092	0.9283	0.2634	0.042
Mof_C 	C 	0.7785	0.8412	0.3021	0.37
Mof_C 	C 	0.0132	0.9918	0.2448	0.089
Mof_C 	C 	0.9092	0.0129	0.2196	-0.14
Mof_H 	H 	0.8354	0.9931	0.2126	0.084
Mof_C 	C 	0.9077	0.0613	0.204	0.067
Mof_H 	H 	0.8341	0.0739	0.1864	0.026
Mof_C 	C 	0.0155	0.0927	0.2142	-0.135
Mof_C 	C 	0.1216	0.073	0.2408	0.064
Mof_H 	H 	0.1937	0.0934	0.2489	0.028
Mof_C 	C 	0.1221	0.0231	0.2557	-0.13
Mof_H 	H 	0.1955	0.01	0.2731	0.08
Mof_C 	C 	0.0126	0.1456	0.1992	0.394
Mof_C 	C 	0.8082	0.7223	0.4181	0.39
Mof_C 	C 	0.9352	0.7193	0.4463	-0.111
Mof_C 	C 	0.0477	0.7186	0.4215	0.046
Mof_H 	H 	0.0432	0.7163	0.3877	0.045
Mof_C 	C 	0.1678	0.7215	0.4479	-0.109
Mof_C 	C 	0.1751	0.7248	0.4977	0.016
Mof_H 	H 	0.2564	0.7269	0.5147	0.042
Mof_C 	C 	0.0635	0.7248	0.523	-0.051
Mof_C 	C 	0.9411	0.7244	0.4962	0.016
Mof_H 	H 	0.8646	0.7275	0.5122	0.041
Mof_C 	C 	0.2874	0.725	0.4212	0.372
Mof_C 	C 	0.0691	0.7294	0.5757	0.109
Mof_C 	C 	0.1674	0.755	0.6011	-0.16
Mof_H 	H 	0.2342	0.7692	0.5844	0.089
Mof_C 	C 	0.1694	0.7601	0.6503	0.089
Mof_H 	H 	0.2401	0.776	0.6669	0.019
Mof_C 	C 	0.0707	0.7424	0.6755	-0.156
Mof_C 	C 	0.9743	0.7174	0.6499	0.09
Mof_H 	H 	0.9064	0.7043	0.6668	0.019
Mof_C 	C 	0.9704	0.71	0.6004	-0.159
Mof_H 	H 	0.9021	0.6923	0.5843	0.091
Mof_C 	C 	0.0709	0.7497	0.7294	0.4
Mof_O 	O 	0.5295	0.76971	0.34947	-0.933
Mof_O 	O 	0.5524	0.8297	0.44907	-0.491
Mof_O 	O 	0.531	0.8801	0.3849	-0.482
Mof_O 	O 	0.2438	0.78814	0.29882	-0.467
Mof_O 	O 	0.3581	0.86016	0.29667	-0.475
Mof_O 	O 	0.7886	0.7998	0.32165	-0.46
Mof_O 	O 	0.6723	0.86491	0.29375	-0.464
Mof_O 	O 	0.9126	0.1614	0.17665	-0.468
Mof_O 	O 	0.1148	0.17106	0.20802	-0.476
Mof_O 	O 	0.8045	0.7122	0.37412	-0.459
Mof_O 	O 	0.7094	0.73381	0.44081	-0.485
Mof_O 	O 	0.2783	0.71736	0.37663	-0.454
Mof_O 	O 	0.3932	0.73408	0.44603	-0.471
Mof_O 	O 	0.17	0.7674	0.75177	-0.474
Mof_O 	O 	0.977	0.7327	0.7489	-0.47
Mof_Zn	Zn	0.37781	0.73806	0.31715	1.219
Mof_Zn	Zn	0.67218	0.73343	0.32228	1.221
Mof_Zn	Zn	0.54457	0.76408	0.41815	1.219
Mof_Zn	Zn	0.52689	0.83657	0.32505	1.218
Mof_C 	C 	0.0364	0.629	0.9285	0.393
Mof_C 	C 	0.0297	0.5831	0.9621	-0.078
Mof_C 	C 	0.0444	0.5917	0.0124	0.008
Mof_H 	H 	0.0627	0.6242	0.024	0.045
Mof_C 	C 	0.0084	0.538	0.944	-0.032
Mof_H 	H 	0.0033	0.5331	0.9105	0.059
Mof_C 	C 	0.9929	0.496	0.9762	0.024
Mof_C 	C 	0.9678	0.4473	0.9552	-0.082
Mof_H 	H 	0.9601	0.4423	0.9217	0.062
Mof_C 	C 	0.7549	0.6642	0.7936	0.38
Mof_C 	C 	0.6327	0.6367	0.7848	-0.11
Mof_C 	C 	0.5144	0.6597	0.7934	0.044
Mof_H 	H 	0.5131	0.6933	0.8032	0.046
Mof_C 	C 	0.4015	0.6335	0.7875	-0.1
Mof_C 	C 	0.4006	0.5847	0.772	0.009
Mof_H 	H 	0.3218	0.5672	0.7681	0.044
Mof_C 	C 	0.5154	0.5608	0.762	-0.042
Mof_C 	C 	0.6308	0.5875	0.7693	0.014
Mof_H 	H 	0.7092	0.5717	0.7634	0.042
Mof_C 	C 	0.2785	0.6588	0.8021	0.37
Mof_C 	C 	0.5132	0.5082	0.7448	0.089
Mof_C 	C 	0.4092	0.4871	0.7196	-0.141
Mof_H 	H 	0.3354	0.5069	0.7126	0.084
Mof_C 	C 	0.4077	0.4387	0.704	0.069
Mof_H 	H 	0.3341	0.4261	0.6864	0.026
Mof_C 	C 	0.5155	0.4073	0.7142	-0.137
Mof_C 	C 	0.6216	0.427	0.7408	0.065
Mof_H 	H 	0.6937	0.4066	0.7489	0.028
Mof_C 	C 	0.6221	0.4769	0.7557	-0.131
Mof_H 	H 	0.6955	0.49	0.7731	0.08
Mof_C 	C 	0.5126	0.3544	0.6992	0.392
Mof_C 	C 	0.3082	0.7777	0.9181	0.39
Mof_C 	C 	0.4352	0.7807	0.9463	-0.112
Mof_C 	C 	0.5477	0.7814	0.9215	0.048
Mof_H 	H 	0.5432	0.7837	0.8877	0.045
Mof_C 	C 	0.6678	0.7785	0.9479	-0.11
Mof_C 	C 	0.6751	0.7752	0.9977	0.017
Mof_H 	H 	0.7564	0.7731	0.0147	0.041
Mof_C 	C 	0.5635	0.7752	0.023	-0.051
Mof_C 	C 	0.4411	0.7756	0.9962	0.016
Mof_H 	H 	0.3646	0.7725	0.0122	0.041
Mof_C 	C 	0.7874	0.775	0.9212	0.373
Mof_C 	C 	0.5691	0.7706	0.0757	0.111
Mof_C 	C 	0.6674	0.745	0.1011	-0.16
Mof_H 	H 	0.7342	0.7308	0.0844	0.089
Mof_C 	C 	0.6694	0.7399	0.1503	0.089
Mof_H 	H 	0.7401	0.724	0.1669	0.019
Mof_C 	C 	0.5707	0.7576	0.1755	-0.155
Mof_C 	C 	0.4743	0.7826	0.1499	0.088
Mof_H 	H 	0.4064	0.7957	0.1668	0.02
Mof_C 	C 	0.4704	0.79	0.1004	-0.16
Mof_H 	H 	0.4021	0.8077	0.0843	0.091
Mof_C 	C 	0.5709	0.7503	0.2294	0.402
Mof_O 	O 	0.0295	0.73029	0.84947	-0.934
Mof_O 	O 	0.0524	0.6703	0.94907	-0.491
Mof_O 	O 	0.031	0.6199	0.8849	-0.482
Mof_O 	O 	0.7438	0.71186	0.79882	-0.467
Mof_O 	O 	0.8581	0.63984	0.79667	-0.474
Mof_O 	O 	0.2886	0.7002	0.82165	-0.461
Mof_O 	O 	0.1723	0.63509	0.79375	-0.464
Mof_O 	O 	0.4126	0.3386	0.67665	-0.467
Mof_O 	O 	0.6148	0.32894	0.70802	-0.476
Mof_O 	O 	0.3045	0.7878	0.87412	-0.459
Mof_O 	O 	0.2094	0.76619	0.94081	-0.485
Mof_O 	O 	0.7783	0.78264	0.87663	-0.454
Mof_O 	O 	0.8932	0.76592	0.94603	-0.471
Mof_O 	O 	0.67	0.7326	0.25177	-0.474
Mof_O 	O 	0.477	0.7673	0.2489	-0.471
Mof_Zn	Zn	0.87781	0.76194	0.81715	1.22
Mof_Zn	Zn	0.17218	0.76657	0.82228	1.221
Mof_Zn	Zn	0.04457	0.73592	0.91815	1.219
Mof_Zn	Zn	0.02689	0.66343	0.82505	1.218
Mof_C 	C 	0.4636	0.129	0.5715	0.393
Mof_C 	C 	0.4703	0.0831	0.5379	-0.078
Mof_C 	C 	0.4556	0.0917	0.4876	0.008
Mof_H 	H 	0.4373	0.1242	0.476	0.045
Mof_C 	C 	0.4916	0.038	0.556	-0.032
Mof_H 	H 	0.4967	0.0331	0.5895	0.059
Mof_C 	C 	0.5071	0.996	0.5238	0.023
Mof_C 	C 	0.5322	0.9473	0.5448	-0.081
Mof_H 	H 	0.5399	0.9423	0.5783	0.062
Mof_C 	C 	0.7451	0.1642	0.7064	0.38
Mof_C 	C 	0.8673	0.1367	0.7152	-0.11
Mof_C 	C 	0.9856	0.1597	0.7066	0.043
Mof_H 	H 	0.9869	0.1933	0.6968	0.046
Mof_C 	C 	0.0985	0.1335	0.7125	-0.099
Mof_C 	C 	0.0994	0.0847	0.728	0.008
Mof_H 	H 	0.1782	0.0672	0.7319	0.045
Mof_C 	C 	0.9846	0.0608	0.738	-0.042
Mof_C 	C 	0.8692	0.0875	0.7307	0.013
Mof_H 	H 	0.7908	0.0717	0.7366	0.042
Mof_C 	C 	0.2215	0.1588	0.6979	0.37
Mof_C 	C 	0.9868	0.0082	0.7552	0.089
Mof_C 	C 	0.0908	0.9871	0.7804	-0.14
Mof_H 	H 	0.1646	0.0069	0.7874	0.084
Mof_C 	C 	0.0923	0.9387	0.796	0.067
Mof_H 	H 	0.1659	0.9261	0.8136	0.026
Mof_C 	C 	0.9845	0.9073	0.7858	-0.135
Mof_C 	C 	0.8784	0.927	0.7592	0.064
Mof_H 	H 	0.8063	0.9066	0.7511	0.028
Mof_C 	C 	0.8779	0.9769	0.7443	-0.13
Mof_H 	H 	0.8045	0.99	0.7269	0.08
Mof_C 	C 	0.9874	0.8544	0.8008	0.394
Mof_C 	C 	0.1918	0.2777	0.5819	0.39
Mof_C 	C 	0.0648	0.2807	0.5537	-0.111
Mof_C 	C 	0.9523	0.2814	0.5785	0.046
Mof_H 	H 	0.9568	0.2837	0.6123	0.045
Mof_C 	C 	0.8322	0.2785	0.5521	-0.109
Mof_C 	C 	0.8249	0.2752	0.5023	0.016
Mof_H 	H 	0.7436	0.2731	0.4853	0.042
Mof_C 	C 	0.9365	0.2752	0.477	-0.051
Mof_C 	C 	0.0589	0.2756	0.5038	0.016
Mof_H 	H 	0.1354	0.2725	0.4878	0.041
Mof_C 	C 	0.7126	0.275	0.5788	0.372
Mof_C 	C 	0.9309	0.2706	0.4243	0.109
Mof_C 	C 	0.8326	0.245	0.3989	-0.16
Mof_H 	H 	0.7658	0.2308	0.4156	0.089
Mof_C 	C 	0.8306	0.2399	0.3497	0.089
Mof_H 	H 	0.7599	0.224	0.3331	0.019
Mof_C 	C 	0.9293	0.2576	0.3245	-0.156
Mof_C 	C 	0.0257	0.2826	0.3501	0.09
Mof_H 	H 	0.0936	0.2957	0.3332	0.019
Mof_C 	C 	0.0296	0.29	0.3996	-0.159
Mof_H 	H 	0.0979	0.3077	0.4157	0.091
Mof_C 	C 	0.9291	0.2503	0.2706	0.4
Mof_O 	O 	0.4705	0.23029	0.65053	-0.933
Mof_O 	O 	0.4476	0.1703	0.55093	-0.491
Mof_O 	O 	0.469	0.1199	0.6151	-0.482
Mof_O 	O 	0.7562	0.21186	0.70118	-0.467
Mof_O 	O 	0.6419	0.13984	0.70333	-0.475
Mof_O 	O 	0.2114	0.2002	0.67835	-0.46
Mof_O 	O 	0.3277	0.13509	0.70625	-0.464
Mof_O 	O 	0.0874	0.8386	0.82335	-0.468
Mof_O 	O 	0.8852	0.82894	0.79198	-0.476
Mof_O 	O 	0.1955	0.2878	0.62588	-0.459
Mof_O 	O 	0.2906	0.26619	0.55919	-0.485
Mof_O 	O 	0.7217	0.28264	0.62337	-0.454
Mof_O 	O 	0.6068	0.26592	0.55397	-0.471
Mof_O 	O 	0.83	0.2326	0.24823	-0.474
Mof_O 	O 	0.023	0.2673	0.2511	-0.47
Mof_Zn	Zn	0.62219	0.26194	0.68285	1.219
Mof_Zn	Zn	0.32782	0.26657	0.67772	1.221
Mof_Zn	Zn	0.45543	0.23592	0.58185	1.219
Mof_Zn	Zn	0.47311	0.16343	0.67495	1.218
_end
