# CIF file generated by openbabel 3.1.0, see https://openbabel.org
data_I
_chemical_name_common 'image0'
_cell_length_a 23.157
_cell_length_b 27.317
_cell_length_c 22.592
_cell_angle_alpha 90
_cell_angle_beta 90
_cell_angle_gamma 90
_space_group_name_H-M_alt 'P 1'
_space_group_name_Hall 'P 1'
loop_
    _symmetry_equiv_pos_as_xyz
    x,y,z
loop_
    _atom_site_label
    _atom_site_type_symbol
    _atom_site_fract_x
    _atom_site_fract_y
    _atom_site_fract_z
    _atom_site_occupancy
    Zn1      Zn       0.76532    0.98970    0.63038    1.000
    Zn2      Zn       0.45807    0.66477    0.62781    1.000
    Zn3      Zn       0.50325    0.82887    0.87269    1.000
    N1       N        0.76152    0.96148    0.54829    1.000
    O1       O        0.77281    0.94375    0.69611    1.000
    O2       O        0.62496    0.83749    0.93984    1.000
    O3       O        0.66869    0.57147    0.93751    1.000
    C1       C        0.78200    0.87375    0.85989    1.000
    O4       O        0.83711    0.84307    0.93947    1.000
    O5       O        0.54172    0.17046    0.80341    1.000
    O6       O        0.56027    0.26569    0.62863    1.000
    O7       O        0.66430    0.52893    0.85528    1.000
    C2       C        0.63850    0.15237    0.60992    1.000
    H1       H        0.65360    0.15650    0.57210    1.000
    O8       O        0.58269    0.73980    0.94279    1.000
    O9       O        0.50306    0.66268    0.69738    1.000
    O10      O        0.88386    0.86693    0.85896    1.000
    O11      O        0.52309    0.75968    0.87087    1.000
    O12      O        0.57626    0.86185    0.86004    1.000
    N2       N        0.99305    0.84809    0.95092    1.000
    C3       C        0.67720    0.89102    0.80426    1.000
    H2       H        0.64220    0.89680    0.78530    1.000
    O13      O        0.62069    0.24581    0.55792    1.000
    C4       C        0.67740    0.87081    0.86039    1.000
    C5       C        0.60152    0.64683    0.89148    1.000
    H3       H        0.61700    0.65140    0.92900    1.000
    C6       C        0.73044    0.86277    0.88885    1.000
    H4       H        0.73120    0.85010    0.92710    1.000
    C7       C        0.61230    0.60329    0.86038    1.000
    C8       C        0.83910    0.86025    0.88890    1.000
    C9       C        0.54270    0.67595    0.80970    1.000
    H5       H        0.51950    0.70000    0.79290    1.000
    C10      C        0.78070    0.89460    0.80408    1.000
    H6       H        0.81510    0.90320    0.78550    1.000
    C11      C        0.62200    0.85575    0.88990    1.000
    C12      C        0.60480    0.18909    0.63453    1.000
    C13      C        0.58180    0.18242    0.69050    1.000
    H7       H        0.55990    0.20710    0.70780    1.000
    C14      C        0.62530    0.10289    0.69640    1.000
    H8       H        0.63170    0.07400    0.71720    1.000
    C15      C        0.55280    0.63265    0.77923    1.000
    C16      C        0.58820    0.59709    0.80393    1.000
    H9       H        0.59610    0.56870    0.78270    1.000
    N3       N        0.46846    0.84053    0.95110    1.000
    C17      C        0.56410    0.13180    0.78130    1.000
    C18      C        0.72600    0.92621    0.71470    1.000
    C19      C        0.72881    0.90280    0.77566    1.000
    O14      O        0.53330    0.58592    0.69261    1.000
    O15      O        0.68029    0.92733    0.68804    1.000
    C20      C        0.59110    0.13921    0.72085    1.000
    C21      C        0.65130    0.56514    0.88732    1.000
    C22      C        0.52790    0.62480    0.71860    1.000
    C23      C        0.56710    0.68349    0.86557    1.000
    C24      C        0.65020    0.10940    0.64081    1.000
    O16      O        0.56570    0.09260    0.80665    1.000
    C25      C        0.55670    0.73170    0.89620    1.000
    C26      C        0.59370    0.23752    0.60440    1.000
    C27      C        0.04370    0.86780    0.96850    1.000
    C28      C        0.75680    0.91311    0.53044    1.000
    C29      C        0.09190    0.88510    0.93400    1.000
    H10      H        0.09250    0.88460    0.89280    1.000
    O17      O        0.70112    0.07314    0.56195    1.000
    O18      O        0.70445    0.03710    0.64889    1.000
    C30      C        0.68730    0.07030    0.61490    1.000
    C31      C        0.75300    0.86980    0.56400    1.000
    H11      H        0.75130    0.87000    0.60510    1.000
    C32      C        0.75190    0.82730    0.53200    1.000
    H12      H        0.75120    0.79760    0.55200    1.000
    C33      C        0.13800    0.90310    0.96880    1.000
    H13      H        0.17020    0.91560    0.94940    1.000
    C34      C        0.42240    0.86820    0.96910    1.000
    C35      C        0.37780    0.88970    0.93630    1.000
    H14      H        0.37830    0.88950    0.89510    1.000
    C36      C        0.33110    0.91190    0.96870    1.000
    H15      H        0.30070    0.92640    0.94820    1.000
    C37      C        0.58930    0.16060    0.02910    1.000
    C38      C        0.63940    0.14490    0.06410    1.000
    C39      C        0.68480    0.12760    0.03060    1.000
    H16      H        0.64040    0.14640    0.10520    1.000
    H17      H        0.71710    0.11530    0.05010    1.000
    Zn4      Zn       0.23468    0.01030    0.63038    1.000
    Zn5      Zn       0.54193    0.33523    0.62781    1.000
    Zn6      Zn       0.49675    0.17113    0.87269    1.000
    N4       N        0.23848    0.03852    0.54829    1.000
    O19      O        0.22719    0.05625    0.69611    1.000
    O20      O        0.37504    0.16251    0.93984    1.000
    O21      O        0.33131    0.42853    0.93751    1.000
    C40      C        0.21800    0.12625    0.85989    1.000
    O22      O        0.16289    0.15693    0.93947    1.000
    O23      O        0.45828    0.82954    0.80341    1.000
    O24      O        0.43973    0.73431    0.62863    1.000
    O25      O        0.33570    0.47107    0.85528    1.000
    C41      C        0.36150    0.84763    0.60992    1.000
    H18      H        0.34640    0.84350    0.57210    1.000
    O26      O        0.41731    0.26020    0.94279    1.000
    O27      O        0.49694    0.33732    0.69738    1.000
    O28      O        0.11614    0.13307    0.85896    1.000
    O29      O        0.47691    0.24032    0.87087    1.000
    O30      O        0.42374    0.13815    0.86004    1.000
    N5       N        0.00695    0.15191    0.95092    1.000
    C42      C        0.32280    0.10898    0.80426    1.000
    H19      H        0.35780    0.10320    0.78530    1.000
    O31      O        0.37931    0.75419    0.55792    1.000
    C43      C        0.32260    0.12919    0.86039    1.000
    C44      C        0.39848    0.35317    0.89148    1.000
    H20      H        0.38300    0.34860    0.92900    1.000
    C45      C        0.26956    0.13723    0.88885    1.000
    H21      H        0.26880    0.14990    0.92710    1.000
    C46      C        0.38770    0.39671    0.86038    1.000
    C47      C        0.16090    0.13975    0.88890    1.000
    C48      C        0.45730    0.32405    0.80970    1.000
    H22      H        0.48050    0.30000    0.79290    1.000
    C49      C        0.21930    0.10540    0.80408    1.000
    H23      H        0.18490    0.09680    0.78550    1.000
    C50      C        0.37800    0.14425    0.88990    1.000
    C51      C        0.39520    0.81091    0.63453    1.000
    C52      C        0.41820    0.81758    0.69050    1.000
    H24      H        0.44010    0.79290    0.70780    1.000
    C53      C        0.37470    0.89711    0.69640    1.000
    H25      H        0.36830    0.92600    0.71720    1.000
    C54      C        0.44720    0.36735    0.77923    1.000
    C55      C        0.41180    0.40291    0.80393    1.000
    H26      H        0.40390    0.43130    0.78270    1.000
    N6       N        0.53154    0.15947    0.95110    1.000
    C56      C        0.43590    0.86820    0.78130    1.000
    C57      C        0.27400    0.07379    0.71470    1.000
    C58      C        0.27119    0.09720    0.77566    1.000
    O32      O        0.46670    0.41408    0.69261    1.000
    O33      O        0.31971    0.07267    0.68804    1.000
    C59      C        0.40890    0.86079    0.72085    1.000
    C60      C        0.34870    0.43486    0.88732    1.000
    C61      C        0.47210    0.37520    0.71860    1.000
    C62      C        0.43290    0.31651    0.86557    1.000
    C63      C        0.34980    0.89060    0.64081    1.000
    O34      O        0.43430    0.90740    0.80665    1.000
    C64      C        0.44330    0.26830    0.89620    1.000
    C65      C        0.40630    0.76248    0.60440    1.000
    C66      C        0.95630    0.13220    0.96850    1.000
    C67      C        0.24320    0.08689    0.53044    1.000
    C68      C        0.90810    0.11490    0.93400    1.000
    H27      H        0.90750    0.11540    0.89280    1.000
    O35      O        0.29888    0.92686    0.56195    1.000
    O36      O        0.29555    0.96290    0.64889    1.000
    C69      C        0.31270    0.92970    0.61490    1.000
    C70      C        0.24700    0.13020    0.56400    1.000
    H28      H        0.24870    0.13000    0.60510    1.000
    C71      C        0.24810    0.17270    0.53200    1.000
    H29      H        0.24880    0.20240    0.55200    1.000
    C72      C        0.86200    0.09690    0.96880    1.000
    H30      H        0.82980    0.08440    0.94940    1.000
    C73      C        0.57760    0.13180    0.96910    1.000
    C74      C        0.62220    0.11030    0.93630    1.000
    H31      H        0.62170    0.11050    0.89510    1.000
    C75      C        0.66890    0.08810    0.96870    1.000
    H32      H        0.69930    0.07360    0.94820    1.000
    C76      C        0.41070    0.83940    0.02910    1.000
    C77      C        0.36060    0.85510    0.06410    1.000
    C78      C        0.31520    0.87240    0.03060    1.000
    H33      H        0.35960    0.85360    0.10520    1.000
    H34      H        0.28290    0.88470    0.05010    1.000
    Zn7      Zn       0.73468    0.48970    0.86962    1.000
    Zn8      Zn       0.04193    0.16477    0.87219    1.000
    Zn9      Zn       0.99675    0.32887    0.62731    1.000
    N7       N        0.73848    0.46148    0.95171    1.000
    O37      O        0.72719    0.44375    0.80389    1.000
    O38      O        0.87504    0.33749    0.56016    1.000
    O39      O        0.83131    0.07147    0.56249    1.000
    C79      C        0.71800    0.37375    0.64011    1.000
    O40      O        0.66289    0.34307    0.56053    1.000
    O41      O        0.95828    0.67046    0.69659    1.000
    O42      O        0.93973    0.76569    0.87137    1.000
    O43      O        0.83570    0.02893    0.64472    1.000
    C80      C        0.86150    0.65237    0.89008    1.000
    H35      H        0.84640    0.65650    0.92790    1.000
    O44      O        0.91731    0.23980    0.55721    1.000
    O45      O        0.99694    0.16268    0.80262    1.000
    O46      O        0.61614    0.36693    0.64104    1.000
    O47      O        0.97691    0.25968    0.62913    1.000
    O48      O        0.92374    0.36185    0.63996    1.000
    N8       N        0.50695    0.34809    0.54908    1.000
    C81      C        0.82280    0.39102    0.69574    1.000
    H36      H        0.85780    0.39680    0.71470    1.000
    O49      O        0.87931    0.74581    0.94208    1.000
    C82      C        0.82260    0.37081    0.63961    1.000
    C83      C        0.89848    0.14683    0.60852    1.000
    H37      H        0.88300    0.15140    0.57100    1.000
    C84      C        0.76956    0.36277    0.61115    1.000
    H38      H        0.76880    0.35010    0.57290    1.000
    C85      C        0.88770    0.10329    0.63962    1.000
    C86      C        0.66090    0.36025    0.61110    1.000
    C87      C        0.95730    0.17595    0.69030    1.000
    H39      H        0.98050    0.20000    0.70710    1.000
    C88      C        0.71930    0.39460    0.69592    1.000
    H40      H        0.68490    0.40320    0.71450    1.000
    C89      C        0.87800    0.35575    0.61010    1.000
    C90      C        0.89520    0.68909    0.86547    1.000
    C91      C        0.91820    0.68242    0.80950    1.000
    H41      H        0.94010    0.70710    0.79220    1.000
    C92      C        0.87470    0.60289    0.80360    1.000
    H42      H        0.86830    0.57400    0.78280    1.000
    C93      C        0.94720    0.13265    0.72077    1.000
    C94      C        0.91180    0.09709    0.69607    1.000
    H43      H        0.90390    0.06870    0.71730    1.000
    N9       N        0.03154    0.34053    0.54890    1.000
    C95      C        0.93590    0.63180    0.71870    1.000
    C96      C        0.77400    0.42621    0.78530    1.000
    C97      C        0.77119    0.40280    0.72434    1.000
    O50      O        0.96670    0.08592    0.80739    1.000
    O51      O        0.81971    0.42733    0.81196    1.000
    C98      C        0.90890    0.63921    0.77915    1.000
    C99      C        0.84870    0.06514    0.61268    1.000
    C100     C        0.97210    0.12480    0.78140    1.000
    C101     C        0.93290    0.18349    0.63443    1.000
    C102     C        0.84980    0.60940    0.85919    1.000
    O52      O        0.93430    0.59260    0.69335    1.000
    C103     C        0.94330    0.23170    0.60380    1.000
    C104     C        0.90630    0.73752    0.89560    1.000
    C105     C        0.45630    0.36780    0.53150    1.000
    C106     C        0.74320    0.41311    0.96956    1.000
    C107     C        0.40810    0.38510    0.56600    1.000
    H44      H        0.40750    0.38460    0.60720    1.000
    O53      O        0.79888    0.57314    0.93805    1.000
    O54      O        0.79555    0.53710    0.85111    1.000
    C108     C        0.81270    0.57030    0.88510    1.000
    C109     C        0.74700    0.36980    0.93600    1.000
    H45      H        0.74870    0.37000    0.89490    1.000
    C110     C        0.74810    0.32730    0.96800    1.000
    H46      H        0.74880    0.29760    0.94800    1.000
    C111     C        0.36200    0.40310    0.53120    1.000
    H47      H        0.32980    0.41560    0.55060    1.000
    C112     C        0.07760    0.36820    0.53090    1.000
    C113     C        0.12220    0.38970    0.56370    1.000
    H48      H        0.12170    0.38950    0.60490    1.000
    C114     C        0.16890    0.41190    0.53130    1.000
    H49      H        0.19930    0.42640    0.55180    1.000
    C115     C        0.91070    0.66060    0.47090    1.000
    C116     C        0.86060    0.64490    0.43590    1.000
    C117     C        0.81520    0.62760    0.46940    1.000
    H50      H        0.85960    0.64640    0.39480    1.000
    H51      H        0.78290    0.61530    0.44990    1.000
    Zn10     Zn       0.26532    0.51030    0.86962    1.000
    Zn11     Zn       0.95807    0.83523    0.87219    1.000
    Zn12     Zn       0.00325    0.67113    0.62731    1.000
    N10      N        0.26152    0.53852    0.95171    1.000
    O55      O        0.27281    0.55625    0.80389    1.000
    O56      O        0.12496    0.66251    0.56016    1.000
    O57      O        0.16869    0.92853    0.56249    1.000
    C118     C        0.28200    0.62625    0.64011    1.000
    O58      O        0.33711    0.65693    0.56053    1.000
    O59      O        0.04172    0.32954    0.69659    1.000
    O60      O        0.06027    0.23431    0.87137    1.000
    O61      O        0.16430    0.97107    0.64472    1.000
    C119     C        0.13850    0.34763    0.89008    1.000
    H52      H        0.15360    0.34350    0.92790    1.000
    O62      O        0.08269    0.76020    0.55721    1.000
    O63      O        0.00306    0.83732    0.80262    1.000
    O64      O        0.38386    0.63307    0.64104    1.000
    O65      O        0.02309    0.74032    0.62913    1.000
    O66      O        0.07626    0.63815    0.63996    1.000
    N11      N        0.49305    0.65191    0.54908    1.000
    C120     C        0.17720    0.60898    0.69574    1.000
    H53      H        0.14220    0.60320    0.71470    1.000
    O67      O        0.12069    0.25419    0.94208    1.000
    C121     C        0.17740    0.62919    0.63961    1.000
    C122     C        0.10152    0.85317    0.60852    1.000
    H54      H        0.11700    0.84860    0.57100    1.000
    C123     C        0.23044    0.63723    0.61115    1.000
    H55      H        0.23120    0.64990    0.57290    1.000
    C124     C        0.11230    0.89671    0.63962    1.000
    C125     C        0.33910    0.63975    0.61110    1.000
    C126     C        0.04270    0.82405    0.69030    1.000
    H56      H        0.01950    0.80000    0.70710    1.000
    C127     C        0.28070    0.60540    0.69592    1.000
    H57      H        0.31510    0.59680    0.71450    1.000
    C128     C        0.12200    0.64425    0.61010    1.000
    C129     C        0.10480    0.31091    0.86547    1.000
    C130     C        0.08180    0.31758    0.80950    1.000
    H58      H        0.05990    0.29290    0.79220    1.000
    C131     C        0.12530    0.39711    0.80360    1.000
    H59      H        0.13170    0.42600    0.78280    1.000
    C132     C        0.05280    0.86735    0.72077    1.000
    C133     C        0.08820    0.90291    0.69607    1.000
    H60      H        0.09610    0.93130    0.71730    1.000
    N12      N        0.96846    0.65947    0.54890    1.000
    C134     C        0.06410    0.36820    0.71870    1.000
    C135     C        0.22600    0.57379    0.78530    1.000
    C136     C        0.22881    0.59720    0.72434    1.000
    O68      O        0.03330    0.91408    0.80739    1.000
    O69      O        0.18029    0.57267    0.81196    1.000
    C137     C        0.09110    0.36079    0.77915    1.000
    C138     C        0.15130    0.93486    0.61268    1.000
    C139     C        0.02790    0.87520    0.78140    1.000
    C140     C        0.06710    0.81651    0.63443    1.000
    C141     C        0.15020    0.39060    0.85919    1.000
    O70      O        0.06570    0.40740    0.69335    1.000
    C142     C        0.05670    0.76830    0.60380    1.000
    C143     C        0.09370    0.26248    0.89560    1.000
    C144     C        0.54370    0.63220    0.53150    1.000
    C145     C        0.25680    0.58689    0.96956    1.000
    C146     C        0.59190    0.61490    0.56600    1.000
    H61      H        0.59250    0.61540    0.60720    1.000
    O71      O        0.20112    0.42686    0.93805    1.000
    O72      O        0.20445    0.46290    0.85111    1.000
    C147     C        0.18730    0.42970    0.88510    1.000
    C148     C        0.25300    0.63020    0.93600    1.000
    H62      H        0.25130    0.63000    0.89490    1.000
    C149     C        0.25190    0.67270    0.96800    1.000
    H63      H        0.25120    0.70240    0.94800    1.000
    C150     C        0.63800    0.59690    0.53120    1.000
    H64      H        0.67020    0.58440    0.55060    1.000
    C151     C        0.92240    0.63180    0.53090    1.000
    C152     C        0.87780    0.61030    0.56370    1.000
    H65      H        0.87830    0.61050    0.60490    1.000
    C153     C        0.83110    0.58810    0.53130    1.000
    H66      H        0.80070    0.57360    0.55180    1.000
    C154     C        0.08930    0.33940    0.47090    1.000
    C155     C        0.13940    0.35510    0.43590    1.000
    C156     C        0.18480    0.37240    0.46940    1.000
    H67      H        0.14040    0.35360    0.39480    1.000
    H68      H        0.21710    0.38470    0.44990    1.000
    Zn13     Zn       0.23468    0.01030    0.36962    1.000
    Zn14     Zn       0.54193    0.33523    0.37219    1.000
    Zn15     Zn       0.49675    0.17113    0.12731    1.000
    N13      N        0.23848    0.03852    0.45171    1.000
    O73      O        0.22719    0.05625    0.30389    1.000
    O74      O        0.37504    0.16251    0.06016    1.000
    O75      O        0.33131    0.42853    0.06249    1.000
    C157     C        0.21800    0.12625    0.14011    1.000
    O76      O        0.16289    0.15693    0.06053    1.000
    O77      O        0.45828    0.82954    0.19659    1.000
    O78      O        0.43973    0.73431    0.37137    1.000
    O79      O        0.33570    0.47107    0.14472    1.000
    C158     C        0.36150    0.84763    0.39008    1.000
    H69      H        0.34640    0.84350    0.42790    1.000
    O80      O        0.41731    0.26020    0.05721    1.000
    O81      O        0.49694    0.33732    0.30262    1.000
    O82      O        0.11614    0.13307    0.14104    1.000
    O83      O        0.47691    0.24032    0.12913    1.000
    O84      O        0.42374    0.13815    0.13996    1.000
    N14      N        0.00695    0.15191    0.04908    1.000
    C159     C        0.32280    0.10898    0.19574    1.000
    H70      H        0.35780    0.10320    0.21470    1.000
    O85      O        0.37931    0.75419    0.44208    1.000
    C160     C        0.32260    0.12919    0.13961    1.000
    C161     C        0.39848    0.35317    0.10852    1.000
    H71      H        0.38300    0.34860    0.07100    1.000
    C162     C        0.26956    0.13723    0.11115    1.000
    H72      H        0.26880    0.14990    0.07290    1.000
    C163     C        0.38770    0.39671    0.13962    1.000
    C164     C        0.16090    0.13975    0.11110    1.000
    C165     C        0.45730    0.32405    0.19030    1.000
    H73      H        0.48050    0.30000    0.20710    1.000
    C166     C        0.21930    0.10540    0.19592    1.000
    H74      H        0.18490    0.09680    0.21450    1.000
    C167     C        0.37800    0.14425    0.11010    1.000
    C168     C        0.39520    0.81091    0.36547    1.000
    C169     C        0.41820    0.81758    0.30950    1.000
    H75      H        0.44010    0.79290    0.29220    1.000
    C170     C        0.37470    0.89711    0.30360    1.000
    H76      H        0.36830    0.92600    0.28280    1.000
    C171     C        0.44720    0.36735    0.22077    1.000
    C172     C        0.41180    0.40291    0.19607    1.000
    H77      H        0.40390    0.43130    0.21730    1.000
    N15      N        0.53154    0.15947    0.04890    1.000
    C173     C        0.43590    0.86820    0.21870    1.000
    C174     C        0.27400    0.07379    0.28530    1.000
    C175     C        0.27119    0.09720    0.22434    1.000
    O86      O        0.46670    0.41408    0.30739    1.000
    O87      O        0.31971    0.07267    0.31196    1.000
    C176     C        0.40890    0.86079    0.27915    1.000
    C177     C        0.34870    0.43486    0.11268    1.000
    C178     C        0.47210    0.37520    0.28140    1.000
    C179     C        0.43290    0.31651    0.13443    1.000
    C180     C        0.34980    0.89060    0.35919    1.000
    O88      O        0.43430    0.90740    0.19335    1.000
    C181     C        0.44330    0.26830    0.10380    1.000
    C182     C        0.40630    0.76248    0.39560    1.000
    C183     C        0.95630    0.13220    0.03150    1.000
    C184     C        0.24320    0.08689    0.46956    1.000
    C185     C        0.90810    0.11490    0.06600    1.000
    H78      H        0.90750    0.11540    0.10720    1.000
    O89      O        0.29888    0.92686    0.43805    1.000
    O90      O        0.29555    0.96290    0.35111    1.000
    C186     C        0.31270    0.92970    0.38510    1.000
    C187     C        0.24700    0.13020    0.43600    1.000
    H79      H        0.24870    0.13000    0.39490    1.000
    C188     C        0.24810    0.17270    0.46800    1.000
    H80      H        0.24880    0.20240    0.44800    1.000
    C189     C        0.86200    0.09690    0.03120    1.000
    H81      H        0.82980    0.08440    0.05060    1.000
    C190     C        0.57760    0.13180    0.03090    1.000
    C191     C        0.62220    0.11030    0.06370    1.000
    H82      H        0.62170    0.11050    0.10490    1.000
    C192     C        0.66890    0.08810    0.03130    1.000
    H83      H        0.69930    0.07360    0.05180    1.000
    C193     C        0.41070    0.83940    0.97090    1.000
    C194     C        0.36060    0.85510    0.93590    1.000
    C195     C        0.31520    0.87240    0.96940    1.000
    H84      H        0.35960    0.85360    0.89480    1.000
    H85      H        0.28290    0.88470    0.94990    1.000
    Zn16     Zn       0.76532    0.98970    0.36962    1.000
    Zn17     Zn       0.45807    0.66477    0.37219    1.000
    Zn18     Zn       0.50325    0.82887    0.12731    1.000
    N16      N        0.76152    0.96148    0.45171    1.000
    O91      O        0.77281    0.94375    0.30389    1.000
    O92      O        0.62496    0.83749    0.06016    1.000
    O93      O        0.66869    0.57147    0.06249    1.000
    C196     C        0.78200    0.87375    0.14011    1.000
    O94      O        0.83711    0.84307    0.06053    1.000
    O95      O        0.54172    0.17046    0.19659    1.000
    O96      O        0.56027    0.26569    0.37137    1.000
    O97      O        0.66430    0.52893    0.14472    1.000
    C197     C        0.63850    0.15237    0.39008    1.000
    H86      H        0.65360    0.15650    0.42790    1.000
    O98      O        0.58269    0.73980    0.05721    1.000
    O99      O        0.50306    0.66268    0.30262    1.000
    O100     O        0.88386    0.86693    0.14104    1.000
    O101     O        0.52309    0.75968    0.12913    1.000
    O102     O        0.57626    0.86185    0.13996    1.000
    N17      N        0.99305    0.84809    0.04908    1.000
    C198     C        0.67720    0.89102    0.19574    1.000
    H87      H        0.64220    0.89680    0.21470    1.000
    O103     O        0.62069    0.24581    0.44208    1.000
    C199     C        0.67740    0.87081    0.13961    1.000
    C200     C        0.60152    0.64683    0.10852    1.000
    H88      H        0.61700    0.65140    0.07100    1.000
    C201     C        0.73044    0.86277    0.11115    1.000
    H89      H        0.73120    0.85010    0.07290    1.000
    C202     C        0.61230    0.60329    0.13962    1.000
    C203     C        0.83910    0.86025    0.11110    1.000
    C204     C        0.54270    0.67595    0.19030    1.000
    H90      H        0.51950    0.70000    0.20710    1.000
    C205     C        0.78070    0.89460    0.19592    1.000
    H91      H        0.81510    0.90320    0.21450    1.000
    C206     C        0.62200    0.85575    0.11010    1.000
    C207     C        0.60480    0.18909    0.36547    1.000
    C208     C        0.58180    0.18242    0.30950    1.000
    H92      H        0.55990    0.20710    0.29220    1.000
    C209     C        0.62530    0.10289    0.30360    1.000
    H93      H        0.63170    0.07400    0.28280    1.000
    C210     C        0.55280    0.63265    0.22077    1.000
    C211     C        0.58820    0.59709    0.19607    1.000
    H94      H        0.59610    0.56870    0.21730    1.000
    N18      N        0.46846    0.84053    0.04890    1.000
    C212     C        0.56410    0.13180    0.21870    1.000
    C213     C        0.72600    0.92621    0.28530    1.000
    C214     C        0.72881    0.90280    0.22434    1.000
    O104     O        0.53330    0.58592    0.30739    1.000
    O105     O        0.68029    0.92733    0.31196    1.000
    C215     C        0.59110    0.13921    0.27915    1.000
    C216     C        0.65130    0.56514    0.11268    1.000
    C217     C        0.52790    0.62480    0.28140    1.000
    C218     C        0.56710    0.68349    0.13443    1.000
    C219     C        0.65020    0.10940    0.35919    1.000
    O106     O        0.56570    0.09260    0.19335    1.000
    C220     C        0.55670    0.73170    0.10380    1.000
    C221     C        0.59370    0.23752    0.39560    1.000
    C222     C        0.04370    0.86780    0.03150    1.000
    C223     C        0.75680    0.91311    0.46956    1.000
    C224     C        0.09190    0.88510    0.06600    1.000
    H95      H        0.09250    0.88460    0.10720    1.000
    O107     O        0.70112    0.07314    0.43805    1.000
    O108     O        0.70445    0.03710    0.35111    1.000
    C225     C        0.68730    0.07030    0.38510    1.000
    C226     C        0.75300    0.86980    0.43600    1.000
    H96      H        0.75130    0.87000    0.39490    1.000
    C227     C        0.75190    0.82730    0.46800    1.000
    H97      H        0.75120    0.79760    0.44800    1.000
    C228     C        0.13800    0.90310    0.03120    1.000
    H98      H        0.17020    0.91560    0.05060    1.000
    C229     C        0.42240    0.86820    0.03090    1.000
    C230     C        0.37780    0.88970    0.06370    1.000
    H99      H        0.37830    0.88950    0.10490    1.000
    C231     C        0.33110    0.91190    0.03130    1.000
    H100     H        0.30070    0.92640    0.05180    1.000
    C232     C        0.58930    0.16060    0.97090    1.000
    C233     C        0.63940    0.14490    0.93590    1.000
    C234     C        0.68480    0.12760    0.96940    1.000
    H101     H        0.64040    0.14640    0.89480    1.000
    H102     H        0.71710    0.11530    0.94990    1.000
    Zn19     Zn       0.26532    0.51030    0.13038    1.000
    Zn20     Zn       0.95807    0.83523    0.12781    1.000
    Zn21     Zn       0.00325    0.67113    0.37269    1.000
    N19      N        0.26152    0.53852    0.04829    1.000
    O109     O        0.27281    0.55625    0.19611    1.000
    O110     O        0.12496    0.66251    0.43984    1.000
    O111     O        0.16869    0.92853    0.43751    1.000
    C235     C        0.28200    0.62625    0.35989    1.000
    O112     O        0.33711    0.65693    0.43947    1.000
    O113     O        0.04172    0.32954    0.30341    1.000
    O114     O        0.06027    0.23431    0.12863    1.000
    O115     O        0.16430    0.97107    0.35528    1.000
    C236     C        0.13850    0.34763    0.10992    1.000
    H103     H        0.15360    0.34350    0.07210    1.000
    O116     O        0.08269    0.76020    0.44279    1.000
    O117     O        0.00306    0.83732    0.19738    1.000
    O118     O        0.38386    0.63307    0.35896    1.000
    O119     O        0.02309    0.74032    0.37087    1.000
    O120     O        0.07626    0.63815    0.36004    1.000
    N20      N        0.49305    0.65191    0.45092    1.000
    C237     C        0.17720    0.60898    0.30426    1.000
    H104     H        0.14220    0.60320    0.28530    1.000
    O121     O        0.12069    0.25419    0.05792    1.000
    C238     C        0.17740    0.62919    0.36039    1.000
    C239     C        0.10152    0.85317    0.39148    1.000
    H105     H        0.11700    0.84860    0.42900    1.000
    C240     C        0.23044    0.63723    0.38885    1.000
    H106     H        0.23120    0.64990    0.42710    1.000
    C241     C        0.11230    0.89671    0.36038    1.000
    C242     C        0.33910    0.63975    0.38890    1.000
    C243     C        0.04270    0.82405    0.30970    1.000
    H107     H        0.01950    0.80000    0.29290    1.000
    C244     C        0.28070    0.60540    0.30408    1.000
    H108     H        0.31510    0.59680    0.28550    1.000
    C245     C        0.12200    0.64425    0.38990    1.000
    C246     C        0.10480    0.31091    0.13453    1.000
    C247     C        0.08180    0.31758    0.19050    1.000
    H109     H        0.05990    0.29290    0.20780    1.000
    C248     C        0.12530    0.39711    0.19640    1.000
    H110     H        0.13170    0.42600    0.21720    1.000
    C249     C        0.05280    0.86735    0.27923    1.000
    C250     C        0.08820    0.90291    0.30393    1.000
    H111     H        0.09610    0.93130    0.28270    1.000
    N21      N        0.96846    0.65947    0.45110    1.000
    C251     C        0.06410    0.36820    0.28130    1.000
    C252     C        0.22600    0.57379    0.21470    1.000
    C253     C        0.22881    0.59720    0.27566    1.000
    O122     O        0.03330    0.91408    0.19261    1.000
    O123     O        0.18029    0.57267    0.18804    1.000
    C254     C        0.09110    0.36079    0.22085    1.000
    C255     C        0.15130    0.93486    0.38732    1.000
    C256     C        0.02790    0.87520    0.21860    1.000
    C257     C        0.06710    0.81651    0.36557    1.000
    C258     C        0.15020    0.39060    0.14081    1.000
    O124     O        0.06570    0.40740    0.30665    1.000
    C259     C        0.05670    0.76830    0.39620    1.000
    C260     C        0.09370    0.26248    0.10440    1.000
    C261     C        0.54370    0.63220    0.46850    1.000
    C262     C        0.25680    0.58689    0.03044    1.000
    C263     C        0.59190    0.61490    0.43400    1.000
    H112     H        0.59250    0.61540    0.39280    1.000
    O125     O        0.20112    0.42686    0.06195    1.000
    O126     O        0.20445    0.46290    0.14889    1.000
    C264     C        0.18730    0.42970    0.11490    1.000
    C265     C        0.25300    0.63020    0.06400    1.000
    H113     H        0.25130    0.63000    0.10510    1.000
    C266     C        0.25190    0.67270    0.03200    1.000
    H114     H        0.25120    0.70240    0.05200    1.000
    C267     C        0.63800    0.59690    0.46880    1.000
    H115     H        0.67020    0.58440    0.44940    1.000
    C268     C        0.92240    0.63180    0.46910    1.000
    C269     C        0.87780    0.61030    0.43630    1.000
    H116     H        0.87830    0.61050    0.39510    1.000
    C270     C        0.83110    0.58810    0.46870    1.000
    H117     H        0.80070    0.57360    0.44820    1.000
    C271     C        0.08930    0.33940    0.52910    1.000
    C272     C        0.13940    0.35510    0.56410    1.000
    C273     C        0.18480    0.37240    0.53060    1.000
    H118     H        0.14040    0.35360    0.60520    1.000
    H119     H        0.21710    0.38470    0.55010    1.000
    Zn22     Zn       0.73468    0.48970    0.13038    1.000
    Zn23     Zn       0.04193    0.16477    0.12781    1.000
    Zn24     Zn       0.99675    0.32887    0.37269    1.000
    N22      N        0.73848    0.46148    0.04829    1.000
    O127     O        0.72719    0.44375    0.19611    1.000
    O128     O        0.87504    0.33749    0.43984    1.000
    O129     O        0.83131    0.07147    0.43751    1.000
    C274     C        0.71800    0.37375    0.35989    1.000
    O130     O        0.66289    0.34307    0.43947    1.000
    O131     O        0.95828    0.67046    0.30341    1.000
    O132     O        0.93973    0.76569    0.12863    1.000
    O133     O        0.83570    0.02893    0.35528    1.000
    C275     C        0.86150    0.65237    0.10992    1.000
    H120     H        0.84640    0.65650    0.07210    1.000
    O134     O        0.91731    0.23980    0.44279    1.000
    O135     O        0.99694    0.16268    0.19738    1.000
    O136     O        0.61614    0.36693    0.35896    1.000
    O137     O        0.97691    0.25968    0.37087    1.000
    O138     O        0.92374    0.36185    0.36004    1.000
    N23      N        0.50695    0.34809    0.45092    1.000
    C276     C        0.82280    0.39102    0.30426    1.000
    H121     H        0.85780    0.39680    0.28530    1.000
    O139     O        0.87931    0.74581    0.05792    1.000
    C277     C        0.82260    0.37081    0.36039    1.000
    C278     C        0.89848    0.14683    0.39148    1.000
    H122     H        0.88300    0.15140    0.42900    1.000
    C279     C        0.76956    0.36277    0.38885    1.000
    H123     H        0.76880    0.35010    0.42710    1.000
    C280     C        0.88770    0.10329    0.36038    1.000
    C281     C        0.66090    0.36025    0.38890    1.000
    C282     C        0.95730    0.17595    0.30970    1.000
    H124     H        0.98050    0.20000    0.29290    1.000
    C283     C        0.71930    0.39460    0.30408    1.000
    H125     H        0.68490    0.40320    0.28550    1.000
    C284     C        0.87800    0.35575    0.38990    1.000
    C285     C        0.89520    0.68909    0.13453    1.000
    C286     C        0.91820    0.68242    0.19050    1.000
    H126     H        0.94010    0.70710    0.20780    1.000
    C287     C        0.87470    0.60289    0.19640    1.000
    H127     H        0.86830    0.57400    0.21720    1.000
    C288     C        0.94720    0.13265    0.27923    1.000
    C289     C        0.91180    0.09709    0.30393    1.000
    H128     H        0.90390    0.06870    0.28270    1.000
    N24      N        0.03154    0.34053    0.45110    1.000
    C290     C        0.93590    0.63180    0.28130    1.000
    C291     C        0.77400    0.42621    0.21470    1.000
    C292     C        0.77119    0.40280    0.27566    1.000
    O140     O        0.96670    0.08592    0.19261    1.000
    O141     O        0.81971    0.42733    0.18804    1.000
    C293     C        0.90890    0.63921    0.22085    1.000
    C294     C        0.84870    0.06514    0.38732    1.000
    C295     C        0.97210    0.12480    0.21860    1.000
    C296     C        0.93290    0.18349    0.36557    1.000
    C297     C        0.84980    0.60940    0.14081    1.000
    O142     O        0.93430    0.59260    0.30665    1.000
    C298     C        0.94330    0.23170    0.39620    1.000
    C299     C        0.90630    0.73752    0.10440    1.000
    C300     C        0.45630    0.36780    0.46850    1.000
    C301     C        0.74320    0.41311    0.03044    1.000
    C302     C        0.40810    0.38510    0.43400    1.000
    H129     H        0.40750    0.38460    0.39280    1.000
    O143     O        0.79888    0.57314    0.06195    1.000
    O144     O        0.79555    0.53710    0.14889    1.000
    C303     C        0.81270    0.57030    0.11490    1.000
    C304     C        0.74700    0.36980    0.06400    1.000
    H130     H        0.74870    0.37000    0.10510    1.000
    C305     C        0.74810    0.32730    0.03200    1.000
    H131     H        0.74880    0.29760    0.05200    1.000
    C306     C        0.36200    0.40310    0.46880    1.000
    H132     H        0.32980    0.41560    0.44940    1.000
    C307     C        0.07760    0.36820    0.46910    1.000
    C308     C        0.12220    0.38970    0.43630    1.000
    H133     H        0.12170    0.38950    0.39510    1.000
    C309     C        0.16890    0.41190    0.46870    1.000
    H134     H        0.19930    0.42640    0.44820    1.000
    C310     C        0.91070    0.66060    0.52910    1.000
    C311     C        0.86060    0.64490    0.56410    1.000
    C312     C        0.81520    0.62760    0.53060    1.000
    H135     H        0.85960    0.64640    0.60520    1.000
    H136     H        0.78290    0.61530    0.55010    1.000
    Zn25     Zn       0.58050    0.79654    0.00000    1.000
    Zn26     Zn       0.88157    0.80241    0.00000    1.000
    Zn27     Zn       0.73322    0.56886    0.00000    1.000
    N25      N        0.49930    0.82972    0.00000    1.000
    N26      N        0.96330    0.83662    0.00000    1.000
    Zn28     Zn       0.41950    0.20346    0.00000    1.000
    Zn29     Zn       0.11843    0.19759    0.00000    1.000
    Zn30     Zn       0.26678    0.43114    0.00000    1.000
    N27      N        0.50070    0.17028    0.00000    1.000
    N28      N        0.03670    0.16338    0.00000    1.000
    Zn31     Zn       0.91950    0.29654    0.50000    1.000
    Zn32     Zn       0.61843    0.30241    0.50000    1.000
    Zn33     Zn       0.76678    0.06886    0.50000    1.000
    N29      N        0.00070    0.32972    0.50000    1.000
    N30      N        0.53670    0.33662    0.50000    1.000
    Zn34     Zn       0.08050    0.70346    0.50000    1.000
    Zn35     Zn       0.38157    0.69759    0.50000    1.000
    Zn36     Zn       0.23322    0.93114    0.50000    1.000
    N31      N        0.99930    0.67028    0.50000    1.000
    N32      N        0.46330    0.66338    0.50000    1.000
    N33      N        0.76348    0.98939    0.50000    1.000
    N34      N        0.23652    0.01061    0.50000    1.000
    N35      N        0.73652    0.48939    0.00000    1.000
    N36      N        0.26348    0.51061    0.00000    1.000
