# CIF file generated by openbabel 3.1.0, see https://openbabel.org
data_I
_chemical_name_common 'image0'
_cell_length_a 19.6786
_cell_length_b 22.7703
_cell_length_c 14.8344
_cell_angle_alpha 90
_cell_angle_beta 104.147
_cell_angle_gamma 90
_space_group_name_H-M_alt 'P 1'
_space_group_name_Hall 'P 1'
loop_
    _symmetry_equiv_pos_as_xyz
    x,y,z
loop_
    _atom_site_label
    _atom_site_type_symbol
    _atom_site_fract_x
    _atom_site_fract_y
    _atom_site_fract_z
    _atom_site_occupancy
    Mn1      Mn       0.03055    0.56962    0.53378    1.000
    Mn2      Mn       0.05714    0.56069    0.78814    1.000
    O1       O        0.03715    0.47835    0.58640    1.000
    O2       O        0.09472    0.48328    0.73610    1.000
    O3       O        0.17863    0.39166    0.72260    1.000
    O4       O        0.87964    0.45045    0.51640    1.000
    O5       O        0.89170    0.39300    0.64130    1.000
    O6       O        0.78568    0.45090    0.69070    1.000
    O7       O        0.93947    0.90900    0.08170    1.000
    O8       O        0.95240    0.93560    0.22730    1.000
    O9       O        0.09510    0.89191    0.15970    1.000
    O10      O        0.15790    0.89330    0.30320    1.000
    O11      O        0.19978    0.83328    0.10580    1.000
    O12      O        0.80262    0.89089    0.06370    1.000
    C1       C        0.08220    0.45970    0.65820    1.000
    C2       C        0.12230    0.40540    0.64290    1.000
    H1       H        0.09030    0.37230    0.62970    1.000
    H2       H        0.14150    0.41140    0.58930    1.000
    C3       C        0.23670    0.42610    0.73740    1.000
    C4       C        0.29080    0.41050    0.81330    1.000
    H3       H        0.28500    0.37880    0.85030    1.000
    C5       C        0.35320    0.44180    0.83440    1.000
    C6       C        0.36110    0.48931    0.77770    1.000
    C7       C        0.30710    0.50420    0.70220    1.000
    C8       C        0.24460    0.47340    0.68150    1.000
    H4       H        0.20840    0.48410    0.63110    1.000
    C9       C        0.31560    0.55360    0.63720    1.000
    H5       H        0.27020    0.56650    0.60270    1.000
    H6       H        0.34190    0.53980    0.59480    1.000
    H7       H        0.33990    0.58580    0.67280    1.000
    C10      C        0.41160    0.42270    0.91420    1.000
    H8       H        0.43310    0.45650    0.94800    1.000
    H9       H        0.44590    0.40140    0.89100    1.000
    H10      H        0.39320    0.39770    0.95480    1.000
    C11      C        0.42620    0.52635    0.79960    1.000
    C12      C        0.48570    0.50820    0.77460    1.000
    H11      H        0.48510    0.47200    0.74550    1.000
    C13      C        0.54670    0.54120    0.79040    1.000
    C14      C        0.54830    0.59670    0.83320    1.000
    C15      C        0.48810    0.61630    0.86120    1.000
    C16      C        0.42660    0.58052    0.84420    1.000
    C17      C        0.36690    0.60160    0.87440    1.000
    H12      H        0.32650    0.57870    0.86350    1.000
    C18      C        0.36790    0.65410    0.91860    1.000
    H13      H        0.32840    0.66630    0.93740    1.000
    C19      C        0.42880    0.69103    0.93670    1.000
    C20      C        0.48870    0.67160    0.90810    1.000
    C21      C        0.55060    0.70690    0.92570    1.000
    C22      C        0.60970    0.68600    0.89520    1.000
    H14      H        0.65020    0.70870    0.90610    1.000
    C23      C        0.60830    0.63390    0.85070    1.000
    H15      H        0.64750    0.62210    0.83100    1.000
    C24      C        0.55150    0.76040    0.97430    1.000
    C25      C        0.49200    0.77800    0.00090    1.000
    H16      H        0.49310    0.81360    0.03180    1.000
    C26      C        0.43060    0.74490    0.98400    1.000
    C27      C        0.31170    0.80520    0.85630    1.000
    H17      H        0.26530    0.81630    0.82310    1.000
    H18      H        0.32510    0.76980    0.83020    1.000
    H19      H        0.34400    0.83610    0.85150    1.000
    C28      C        0.36940    0.76710    0.01760    1.000
    C29      C        0.36950    0.76110    0.10990    1.000
    C30      C        0.42980    0.73190    0.17700    1.000
    H20      H        0.42330    0.73490    0.23900    1.000
    H21      H        0.47280    0.75080    0.17420    1.000
    H22      H        0.43170    0.69120    0.16070    1.000
    C31      C        0.31340    0.78330    0.14200    1.000
    H23      H        0.31390    0.78080    0.20470    1.000
    C32      C        0.25700    0.80920    0.08010    1.000
    C33      C        0.25750    0.81530    0.98960    1.000
    H24      H        0.21980    0.83330    0.94880    1.000
    C34      C        0.31310    0.79520    0.95700    1.000
    C35      C        0.20500    0.83750    0.20150    1.000
    H25      H        0.25070    0.85280    0.23250    1.000
    H26      H        0.20020    0.79880    0.22650    1.000
    C36      C        0.14820    0.87790    0.22020    1.000
    C37      C        0.61650    0.79600    0.00010    1.000
    C38      C        0.63490    0.83430    0.93590    1.000
    C39      C        0.69710    0.86550    0.96100    1.000
    H27      H        0.70950    0.89060    0.91820    1.000
    C40      C        0.74130    0.85980    0.04950    1.000
    C41      C        0.72270    0.82350    0.11390    1.000
    H28      H        0.75180    0.82040    0.17340    1.000
    C42      C        0.66050    0.79120    0.09020    1.000
    C43      C        0.64180    0.75220    0.16240    1.000
    H29      H        0.68300    0.74470    0.21100    1.000
    H30      H        0.62330    0.71580    0.13430    1.000
    H31      H        0.60730    0.77140    0.18790    1.000
    C44      C        0.58710    0.84280    0.84150    1.000
    H32      H        0.60490    0.87370    0.80970    1.000
    H33      H        0.54110    0.85310    0.84770    1.000
    H34      H        0.58460    0.80710    0.80650    1.000
    C45      C        0.84600    0.89260    0.15450    1.000
    H35      H        0.84890    0.85370    0.18190    1.000
    H36      H        0.82590    0.91890    0.19250    1.000
    C46      C        0.91970    0.91400    0.15270    1.000
    C47      C        0.60940    0.51820    0.76180    1.000
    C48      C        0.61940    0.53070    0.67380    1.000
    C49      C        0.67830    0.50820    0.64800    1.000
    H37      H        0.68520    0.51660    0.58960    1.000
    C50      C        0.72600    0.47360    0.70890    1.000
    C51      C        0.71540    0.46120    0.79470    1.000
    H38      H        0.74740    0.43740    0.83500    1.000
    C52      C        0.65810    0.48310    0.82300    1.000
    C53      C        0.64850    0.46850    0.91760    1.000
    H39      H        0.68810    0.44640    0.95140    1.000
    H40      H        0.60660    0.44570    0.91140    1.000
    H41      H        0.64460    0.50420    0.95050    1.000
    C54      C        0.56760    0.56710    0.60710    1.000
    H42      H        0.58200    0.57090    0.55010    1.000
    H43      H        0.56490    0.60540    0.63330    1.000
    H44      H        0.52240    0.54870    0.59500    1.000
    C55      C        0.79590    0.46180    0.60100    1.000
    H45      H        0.79830    0.50380    0.59180    1.000
    H46      H        0.75600    0.44670    0.55470    1.000
    C56      C        0.86280    0.43310    0.58730    1.000
    Mn3      Mn       0.96945    0.06962    0.96622    1.000
    Mn4      Mn       0.94286    0.06069    0.71186    1.000
    O13      O        0.96285    0.97835    0.91360    1.000
    O14      O        0.90528    0.98328    0.76390    1.000
    O15      O        0.82137    0.89166    0.77740    1.000
    O16      O        0.12036    0.95045    0.98360    1.000
    O17      O        0.10830    0.89300    0.85870    1.000
    O18      O        0.21432    0.95090    0.80930    1.000
    O19      O        0.06053    0.40900    0.41830    1.000
    O20      O        0.04760    0.43560    0.27270    1.000
    O21      O        0.90490    0.39191    0.34030    1.000
    O22      O        0.84210    0.39330    0.19680    1.000
    O23      O        0.80022    0.33328    0.39420    1.000
    O24      O        0.19738    0.39089    0.43630    1.000
    C57      C        0.91780    0.95970    0.84180    1.000
    C58      C        0.87770    0.90540    0.85710    1.000
    H47      H        0.90970    0.87230    0.87030    1.000
    H48      H        0.85850    0.91140    0.91070    1.000
    C59      C        0.76330    0.92610    0.76260    1.000
    C60      C        0.70920    0.91050    0.68670    1.000
    H49      H        0.71500    0.87880    0.64970    1.000
    C61      C        0.64680    0.94180    0.66560    1.000
    C62      C        0.63890    0.98931    0.72230    1.000
    C63      C        0.69290    0.00420    0.79780    1.000
    C64      C        0.75540    0.97340    0.81850    1.000
    H50      H        0.79160    0.98410    0.86890    1.000
    C65      C        0.68440    0.05360    0.86280    1.000
    H51      H        0.72980    0.06650    0.89730    1.000
    H52      H        0.65810    0.03980    0.90520    1.000
    H53      H        0.66010    0.08580    0.82720    1.000
    C66      C        0.58840    0.92270    0.58580    1.000
    H54      H        0.56690    0.95650    0.55200    1.000
    H55      H        0.55410    0.90140    0.60900    1.000
    H56      H        0.60680    0.89770    0.54520    1.000
    C67      C        0.57380    0.02635    0.70040    1.000
    C68      C        0.51430    0.00820    0.72540    1.000
    H57      H        0.51490    0.97200    0.75450    1.000
    C69      C        0.45330    0.04120    0.70960    1.000
    C70      C        0.45170    0.09670    0.66680    1.000
    C71      C        0.51190    0.11630    0.63880    1.000
    C72      C        0.57340    0.08052    0.65580    1.000
    C73      C        0.63310    0.10160    0.62560    1.000
    H58      H        0.67350    0.07870    0.63650    1.000
    C74      C        0.63210    0.15410    0.58140    1.000
    H59      H        0.67160    0.16630    0.56260    1.000
    C75      C        0.57120    0.19103    0.56330    1.000
    C76      C        0.51130    0.17160    0.59190    1.000
    C77      C        0.44940    0.20690    0.57430    1.000
    C78      C        0.39030    0.18600    0.60480    1.000
    H60      H        0.34980    0.20870    0.59390    1.000
    C79      C        0.39170    0.13390    0.64930    1.000
    H61      H        0.35250    0.12210    0.66900    1.000
    C80      C        0.44850    0.26040    0.52570    1.000
    C81      C        0.50800    0.27800    0.49910    1.000
    H62      H        0.50690    0.31360    0.46820    1.000
    C82      C        0.56940    0.24490    0.51600    1.000
    C83      C        0.68830    0.30520    0.64370    1.000
    H63      H        0.73470    0.31630    0.67690    1.000
    H64      H        0.67490    0.26980    0.66980    1.000
    H65      H        0.65600    0.33610    0.64850    1.000
    C84      C        0.63060    0.26710    0.48240    1.000
    C85      C        0.63050    0.26110    0.39010    1.000
    C86      C        0.57020    0.23190    0.32300    1.000
    H66      H        0.57670    0.23490    0.26100    1.000
    H67      H        0.52720    0.25080    0.32580    1.000
    H68      H        0.56830    0.19120    0.33930    1.000
    C87      C        0.68660    0.28330    0.35800    1.000
    H69      H        0.68610    0.28080    0.29530    1.000
    C88      C        0.74300    0.30920    0.41990    1.000
    C89      C        0.74250    0.31530    0.51040    1.000
    H70      H        0.78020    0.33330    0.55120    1.000
    C90      C        0.68690    0.29520    0.54300    1.000
    C91      C        0.79500    0.33750    0.29850    1.000
    H71      H        0.74930    0.35280    0.26750    1.000
    H72      H        0.79980    0.29880    0.27350    1.000
    C92      C        0.85180    0.37790    0.27980    1.000
    C93      C        0.38350    0.29600    0.49990    1.000
    C94      C        0.36510    0.33430    0.56410    1.000
    C95      C        0.30290    0.36550    0.53900    1.000
    H73      H        0.29050    0.39060    0.58180    1.000
    C96      C        0.25870    0.35980    0.45050    1.000
    C97      C        0.27730    0.32350    0.38610    1.000
    H74      H        0.24820    0.32040    0.32660    1.000
    C98      C        0.33950    0.29120    0.40980    1.000
    C99      C        0.35820    0.25220    0.33760    1.000
    H75      H        0.31700    0.24470    0.28900    1.000
    H76      H        0.37670    0.21580    0.36570    1.000
    H77      H        0.39270    0.27140    0.31210    1.000
    C100     C        0.41290    0.34280    0.65850    1.000
    H78      H        0.39510    0.37370    0.69030    1.000
    H79      H        0.45890    0.35310    0.65230    1.000
    H80      H        0.41540    0.30710    0.69350    1.000
    C101     C        0.15400    0.39260    0.34550    1.000
    H81      H        0.15110    0.35370    0.31810    1.000
    H82      H        0.17410    0.41890    0.30750    1.000
    C102     C        0.08030    0.41400    0.34730    1.000
    C103     C        0.39060    0.01820    0.73820    1.000
    C104     C        0.38060    0.03070    0.82620    1.000
    C105     C        0.32170    0.00820    0.85200    1.000
    H83      H        0.31480    0.01660    0.91040    1.000
    C106     C        0.27400    0.97360    0.79110    1.000
    C107     C        0.28460    0.96120    0.70530    1.000
    H84      H        0.25260    0.93740    0.66500    1.000
    C108     C        0.34190    0.98310    0.67700    1.000
    C109     C        0.35150    0.96850    0.58240    1.000
    H85      H        0.31190    0.94640    0.54860    1.000
    H86      H        0.39340    0.94570    0.58860    1.000
    H87      H        0.35540    0.00420    0.54950    1.000
    C110     C        0.43240    0.06710    0.89290    1.000
    H88      H        0.41800    0.07090    0.94990    1.000
    H89      H        0.43510    0.10540    0.86670    1.000
    H90      H        0.47760    0.04870    0.90500    1.000
    C111     C        0.20410    0.96180    0.89900    1.000
    H91      H        0.20170    0.00380    0.90820    1.000
    H92      H        0.24400    0.94670    0.94530    1.000
    C112     C        0.13720    0.93310    0.91270    1.000
    Mn5      Mn       0.96945    0.43038    0.46622    1.000
    Mn6      Mn       0.94286    0.43931    0.21186    1.000
    O25      O        0.96285    0.52165    0.41360    1.000
    O26      O        0.90528    0.51672    0.26390    1.000
    O27      O        0.82137    0.60834    0.27740    1.000
    O28      O        0.12036    0.54955    0.48360    1.000
    O29      O        0.10830    0.60700    0.35870    1.000
    O30      O        0.21432    0.54910    0.30930    1.000
    O31      O        0.06053    0.09100    0.91830    1.000
    O32      O        0.04760    0.06440    0.77270    1.000
    O33      O        0.90490    0.10809    0.84030    1.000
    O34      O        0.84210    0.10670    0.69680    1.000
    O35      O        0.80022    0.16672    0.89420    1.000
    O36      O        0.19738    0.10911    0.93630    1.000
    C113     C        0.91780    0.54030    0.34180    1.000
    C114     C        0.87770    0.59460    0.35710    1.000
    H93      H        0.90970    0.62770    0.37030    1.000
    H94      H        0.85850    0.58860    0.41070    1.000
    C115     C        0.76330    0.57390    0.26260    1.000
    C116     C        0.70920    0.58950    0.18670    1.000
    H95      H        0.71500    0.62120    0.14970    1.000
    C117     C        0.64680    0.55820    0.16560    1.000
    C118     C        0.63890    0.51069    0.22230    1.000
    C119     C        0.69290    0.49580    0.29780    1.000
    C120     C        0.75540    0.52660    0.31850    1.000
    H96      H        0.79160    0.51590    0.36890    1.000
    C121     C        0.68440    0.44640    0.36280    1.000
    H97      H        0.72980    0.43350    0.39730    1.000
    H98      H        0.65810    0.46020    0.40520    1.000
    H99      H        0.66010    0.41420    0.32720    1.000
    C122     C        0.58840    0.57730    0.08580    1.000
    H100     H        0.56690    0.54350    0.05200    1.000
    H101     H        0.55410    0.59860    0.10900    1.000
    H102     H        0.60680    0.60230    0.04520    1.000
    C123     C        0.57380    0.47365    0.20040    1.000
    C124     C        0.51430    0.49180    0.22540    1.000
    H103     H        0.51490    0.52800    0.25450    1.000
    C125     C        0.45330    0.45880    0.20960    1.000
    C126     C        0.45170    0.40330    0.16680    1.000
    C127     C        0.51190    0.38370    0.13880    1.000
    C128     C        0.57340    0.41948    0.15580    1.000
    C129     C        0.63310    0.39840    0.12560    1.000
    H104     H        0.67350    0.42130    0.13650    1.000
    C130     C        0.63210    0.34590    0.08140    1.000
    H105     H        0.67160    0.33370    0.06260    1.000
    C131     C        0.57120    0.30897    0.06330    1.000
    C132     C        0.51130    0.32840    0.09190    1.000
    C133     C        0.44940    0.29310    0.07430    1.000
    C134     C        0.39030    0.31400    0.10480    1.000
    H106     H        0.34980    0.29130    0.09390    1.000
    C135     C        0.39170    0.36610    0.14930    1.000
    H107     H        0.35250    0.37790    0.16900    1.000
    C136     C        0.44850    0.23960    0.02570    1.000
    C137     C        0.50800    0.22200    0.99910    1.000
    H108     H        0.50690    0.18640    0.96820    1.000
    C138     C        0.56940    0.25510    0.01600    1.000
    C139     C        0.68830    0.19480    0.14370    1.000
    H109     H        0.73470    0.18370    0.17690    1.000
    H110     H        0.67490    0.23020    0.16980    1.000
    H111     H        0.65600    0.16390    0.14850    1.000
    C140     C        0.63060    0.23290    0.98240    1.000
    C141     C        0.63050    0.23890    0.89010    1.000
    C142     C        0.57020    0.26810    0.82300    1.000
    H112     H        0.57670    0.26510    0.76100    1.000
    H113     H        0.52720    0.24920    0.82580    1.000
    H114     H        0.56830    0.30880    0.83930    1.000
    C143     C        0.68660    0.21670    0.85800    1.000
    H115     H        0.68610    0.21920    0.79530    1.000
    C144     C        0.74300    0.19080    0.91990    1.000
    C145     C        0.74250    0.18470    0.01040    1.000
    H116     H        0.78020    0.16670    0.05120    1.000
    C146     C        0.68690    0.20480    0.04300    1.000
    C147     C        0.79500    0.16250    0.79850    1.000
    H117     H        0.74930    0.14720    0.76750    1.000
    H118     H        0.79980    0.20120    0.77350    1.000
    C148     C        0.85180    0.12210    0.77980    1.000
    C149     C        0.38350    0.20400    0.99990    1.000
    C150     C        0.36510    0.16570    0.06410    1.000
    C151     C        0.30290    0.13450    0.03900    1.000
    H119     H        0.29050    0.10940    0.08180    1.000
    C152     C        0.25870    0.14020    0.95050    1.000
    C153     C        0.27730    0.17650    0.88610    1.000
    H120     H        0.24820    0.17960    0.82660    1.000
    C154     C        0.33950    0.20880    0.90980    1.000
    C155     C        0.35820    0.24780    0.83760    1.000
    H121     H        0.31700    0.25530    0.78900    1.000
    H122     H        0.37670    0.28420    0.86570    1.000
    H123     H        0.39270    0.22860    0.81210    1.000
    C156     C        0.41290    0.15720    0.15850    1.000
    H124     H        0.39510    0.12630    0.19030    1.000
    H125     H        0.45890    0.14690    0.15230    1.000
    H126     H        0.41540    0.19290    0.19350    1.000
    C157     C        0.15400    0.10740    0.84550    1.000
    H127     H        0.15110    0.14630    0.81810    1.000
    H128     H        0.17410    0.08110    0.80750    1.000
    C158     C        0.08030    0.08600    0.84730    1.000
    C159     C        0.39060    0.48180    0.23820    1.000
    C160     C        0.38060    0.46930    0.32620    1.000
    C161     C        0.32170    0.49180    0.35200    1.000
    H129     H        0.31480    0.48340    0.41040    1.000
    C162     C        0.27400    0.52640    0.29110    1.000
    C163     C        0.28460    0.53880    0.20530    1.000
    H130     H        0.25260    0.56260    0.16500    1.000
    C164     C        0.34190    0.51690    0.17700    1.000
    C165     C        0.35150    0.53150    0.08240    1.000
    H131     H        0.31190    0.55360    0.04860    1.000
    H132     H        0.39340    0.55430    0.08860    1.000
    H133     H        0.35540    0.49580    0.04950    1.000
    C166     C        0.43240    0.43290    0.39290    1.000
    H134     H        0.41800    0.42910    0.44990    1.000
    H135     H        0.43510    0.39460    0.36670    1.000
    H136     H        0.47760    0.45130    0.40500    1.000
    C167     C        0.20410    0.53820    0.39900    1.000
    H137     H        0.20170    0.49620    0.40820    1.000
    H138     H        0.24400    0.55330    0.44530    1.000
    C168     C        0.13720    0.56690    0.41270    1.000
    Mn7      Mn       0.03055    0.93038    0.03378    1.000
    Mn8      Mn       0.05714    0.93931    0.28814    1.000
    O37      O        0.03715    0.02165    0.08640    1.000
    O38      O        0.09472    0.01672    0.23610    1.000
    O39      O        0.17863    0.10834    0.22260    1.000
    O40      O        0.87964    0.04955    0.01640    1.000
    O41      O        0.89170    0.10700    0.14130    1.000
    O42      O        0.78568    0.04910    0.19070    1.000
    O43      O        0.93947    0.59100    0.58170    1.000
    O44      O        0.95240    0.56440    0.72730    1.000
    O45      O        0.09510    0.60809    0.65970    1.000
    O46      O        0.15790    0.60670    0.80320    1.000
    O47      O        0.19978    0.66672    0.60580    1.000
    O48      O        0.80262    0.60911    0.56370    1.000
    C169     C        0.08220    0.04030    0.15820    1.000
    C170     C        0.12230    0.09460    0.14290    1.000
    H139     H        0.09030    0.12770    0.12970    1.000
    H140     H        0.14150    0.08860    0.08930    1.000
    C171     C        0.23670    0.07390    0.23740    1.000
    C172     C        0.29080    0.08950    0.31330    1.000
    H141     H        0.28500    0.12120    0.35030    1.000
    C173     C        0.35320    0.05820    0.33440    1.000
    C174     C        0.36110    0.01069    0.27770    1.000
    C175     C        0.30710    0.99580    0.20220    1.000
    C176     C        0.24460    0.02660    0.18150    1.000
    H142     H        0.20840    0.01590    0.13110    1.000
    C177     C        0.31560    0.94640    0.13720    1.000
    H143     H        0.27020    0.93350    0.10270    1.000
    H144     H        0.34190    0.96020    0.09480    1.000
    H145     H        0.33990    0.91420    0.17280    1.000
    C178     C        0.41160    0.07730    0.41420    1.000
    H146     H        0.43310    0.04350    0.44800    1.000
    H147     H        0.44590    0.09860    0.39100    1.000
    H148     H        0.39320    0.10230    0.45480    1.000
    C179     C        0.42620    0.97365    0.29960    1.000
    C180     C        0.48570    0.99180    0.27460    1.000
    H149     H        0.48510    0.02800    0.24550    1.000
    C181     C        0.54670    0.95880    0.29040    1.000
    C182     C        0.54830    0.90330    0.33320    1.000
    C183     C        0.48810    0.88370    0.36120    1.000
    C184     C        0.42660    0.91948    0.34420    1.000
    C185     C        0.36690    0.89840    0.37440    1.000
    H150     H        0.32650    0.92130    0.36350    1.000
    C186     C        0.36790    0.84590    0.41860    1.000
    H151     H        0.32840    0.83370    0.43740    1.000
    C187     C        0.42880    0.80897    0.43670    1.000
    C188     C        0.48870    0.82840    0.40810    1.000
    C189     C        0.55060    0.79310    0.42570    1.000
    C190     C        0.60970    0.81400    0.39520    1.000
    H152     H        0.65020    0.79130    0.40610    1.000
    C191     C        0.60830    0.86610    0.35070    1.000
    H153     H        0.64750    0.87790    0.33100    1.000
    C192     C        0.55150    0.73960    0.47430    1.000
    C193     C        0.49200    0.72200    0.50090    1.000
    H154     H        0.49310    0.68640    0.53180    1.000
    C194     C        0.43060    0.75510    0.48400    1.000
    C195     C        0.31170    0.69480    0.35630    1.000
    H155     H        0.26530    0.68370    0.32310    1.000
    H156     H        0.32510    0.73020    0.33020    1.000
    H157     H        0.34400    0.66390    0.35150    1.000
    C196     C        0.36940    0.73290    0.51760    1.000
    C197     C        0.36950    0.73890    0.60990    1.000
    C198     C        0.42980    0.76810    0.67700    1.000
    H158     H        0.42330    0.76510    0.73900    1.000
    H159     H        0.47280    0.74920    0.67420    1.000
    H160     H        0.43170    0.80880    0.66070    1.000
    C199     C        0.31340    0.71670    0.64200    1.000
    H161     H        0.31390    0.71920    0.70470    1.000
    C200     C        0.25700    0.69080    0.58010    1.000
    C201     C        0.25750    0.68470    0.48960    1.000
    H162     H        0.21980    0.66670    0.44880    1.000
    C202     C        0.31310    0.70480    0.45700    1.000
    C203     C        0.20500    0.66250    0.70150    1.000
    H163     H        0.25070    0.64720    0.73250    1.000
    H164     H        0.20020    0.70120    0.72650    1.000
    C204     C        0.14820    0.62210    0.72020    1.000
    C205     C        0.61650    0.70400    0.50010    1.000
    C206     C        0.63490    0.66570    0.43590    1.000
    C207     C        0.69710    0.63450    0.46100    1.000
    H165     H        0.70950    0.60940    0.41820    1.000
    C208     C        0.74130    0.64020    0.54950    1.000
    C209     C        0.72270    0.67650    0.61390    1.000
    H166     H        0.75180    0.67960    0.67340    1.000
    C210     C        0.66050    0.70880    0.59020    1.000
    C211     C        0.64180    0.74780    0.66240    1.000
    H167     H        0.68300    0.75530    0.71100    1.000
    H168     H        0.62330    0.78420    0.63430    1.000
    H169     H        0.60730    0.72860    0.68790    1.000
    C212     C        0.58710    0.65720    0.34150    1.000
    H170     H        0.60490    0.62630    0.30970    1.000
    H171     H        0.54110    0.64690    0.34770    1.000
    H172     H        0.58460    0.69290    0.30650    1.000
    C213     C        0.84600    0.60740    0.65450    1.000
    H173     H        0.84890    0.64630    0.68190    1.000
    H174     H        0.82590    0.58110    0.69250    1.000
    C214     C        0.91970    0.58600    0.65270    1.000
    C215     C        0.60940    0.98180    0.26180    1.000
    C216     C        0.61940    0.96930    0.17380    1.000
    C217     C        0.67830    0.99180    0.14800    1.000
    H175     H        0.68520    0.98340    0.08960    1.000
    C218     C        0.72600    0.02640    0.20890    1.000
    C219     C        0.71540    0.03880    0.29470    1.000
    H176     H        0.74740    0.06260    0.33500    1.000
    C220     C        0.65810    0.01690    0.32300    1.000
    C221     C        0.64850    0.03150    0.41760    1.000
    H177     H        0.68810    0.05360    0.45140    1.000
    H178     H        0.60660    0.05430    0.41140    1.000
    H179     H        0.64460    0.99580    0.45050    1.000
    C222     C        0.56760    0.93290    0.10710    1.000
    H180     H        0.58200    0.92910    0.05010    1.000
    H181     H        0.56490    0.89460    0.13330    1.000
    H182     H        0.52240    0.95130    0.09500    1.000
    C223     C        0.79590    0.03820    0.10100    1.000
    H183     H        0.79830    0.99620    0.09180    1.000
    H184     H        0.75600    0.05330    0.05470    1.000
    C224     C        0.86280    0.06690    0.08730    1.000
