data_functionalizedCrystal
_audit_creation_method	'EQeq! by Chris Wilmer'
_symmetry_space_group_name_H-M	'P1'
_symmetry_Int_Tables_number	1
_symmetry_cell_setting	triclinic
loop_
_symmetry_equiv_pos_as_xyz
  x,y,z
_cell_length_a	19.0913
_cell_length_b	19.0913
_cell_length_c	11.7929
_cell_angle_alpha	90
_cell_angle_beta	90
_cell_angle_gamma	120
loop_
_atom_site_label
_atom_site_type_symbol
_atom_site_fract_x
_atom_site_fract_y
_atom_site_fract_z
_atom_site_charge
Mof_C 	C 	0.3696	0.7847	0.3056	0.262
Mof_C 	C 	0.3814	0.7364	0.216	-0.155
Mof_H 	H 	0.3704	0.7517	0.1425	0.101
Mof_H 	H 	0.3428	0.6795	0.2276	0.101
Mof_C 	C 	0.4657	0.7483	0.2152	-0.304
Mof_H 	H 	0.4744	0.7307	0.2884	0.146
Mof_H 	H 	0.4666	0.7117	0.159	0.151
Mof_C 	C 	0.5356	0.8288	0.193	0.395
Mof_C 	C 	0.4423	0.5627	0.0504	0.448
Mof_C 	C 	0.4121	0.5204	0.1544	-0.358
Mof_H 	H 	0.3785	0.4636	0.1355	0.16
Mof_H 	H 	0.3764	0.5379	0.1859	0.156
Mof_C 	C 	0.4709	0.5257	0.2536	-0.165
Mof_H 	H 	0.4918	0.5777	0.2906	0.11
Mof_H 	H 	0.4392	0.4844	0.3092	0.121
Mof_C 	C 	0.5416	0.5159	0.2202	0.285
Mof_C 	C 	0.755	0.2863	0.3059	0.324
Mof_C 	C 	0.7141	0.2722	0.1948	-0.236
Mof_H 	H 	0.7461	0.2626	0.1396	0.137
Mof_H 	H 	0.7155	0.3218	0.1728	0.124
Mof_C 	C 	0.6261	0.2028	0.1844	-0.222
Mof_H 	H 	0.5933	0.2008	0.2484	0.126
Mof_H 	H 	0.601	0.2055	0.1142	0.132
Mof_C 	C 	0.6434	0.133	0.1852	0.34
Mof_C 	C 	0.796	0.5465	0.3449	0.412
Mof_C 	C 	0.8647	0.5684	0.4215	-0.303
Mof_H 	H 	0.9154	0.6071	0.3861	0.148
Mof_H 	H 	0.8676	0.521	0.4438	0.151
Mof_C 	C 	0.846	0.605	0.5211	-0.203
Mof_H 	H 	0.8867	0.6183	0.5792	0.12
Mof_H 	H 	0.794	0.5657	0.5526	0.124
Mof_C 	C 	0.8437	0.6842	0.4873	0.407
Mof_C 	C 	0.8946	0.9054	0.2686	0.332
Mof_C 	C 	0.9123	0.9489	0.1532	-0.2
Mof_H 	H 	0.8739	0.9106	0.0993	0.126
Mof_H 	H 	0.9655	0.9599	0.1296	0.124
Mof_C 	C 	0.9105	0.0314	0.1389	-0.264
Mof_H 	H 	0.946	0.0709	0.1941	0.14
Mof_H 	H 	0.9288	0.0535	0.0636	0.142
Mof_C 	C 	0.8285	0.0136	0.156	0.333
Mof_C 	C 	0.781	0.8793	0.6452	0.355
Mof_C 	C 	0.7579	0.9151	0.737	-0.249
Mof_H 	H 	0.7119	0.9186	0.7097	0.144
Mof_H 	H 	0.802	0.9702	0.7453	0.139
Mof_C 	C 	0.7364	0.88	0.8556	-0.207
Mof_H 	H 	0.7742	0.8635	0.8814	0.125
Mof_H 	H 	0.7375	0.9195	0.9083	0.111
Mof_C 	C 	0.6529	0.8085	0.8469	0.353
Mof_O 	O 	0.4101	0.8143	0.3904	-0.183
Mof_O 	O 	0.3066	0.7986	0.3198	-0.143
Mof_O 	O 	0.6083	0.8453	0.2026	-0.197
Mof_O 	O 	0.5172	0.8807	0.1559	-0.352
Mof_H 	H 	0.4808	0.8867	0.2071	0.207
Mof_O 	O 	0.4116	0.5553	0.961	-0.252
Mof_O 	O 	0.5121	0.6291	0.0418	-0.348
Mof_H 	H 	0.5571	0.6203	0.0569	0.221
Mof_O 	O 	0.5509	0.4943	0.1159	-0.19
Mof_O 	O 	0.5901	0.5334	0.299	-0.187
Mof_O 	O 	0.8184	0.3519	0.3121	-0.215
Mof_O 	O 	0.7189	0.239	0.3961	-0.181
Mof_O 	O 	0.7078	0.135	0.1723	-0.203
Mof_O 	O 	0.5848	0.0617	0.166	-0.192
Mof_O 	O 	0.7354	0.5466	0.3699	-0.257
Mof_O 	O 	0.8081	0.519	0.2501	-0.341
Mof_O 	O 	0.8151	0.7027	0.569	-0.212
Mof_O 	O 	0.8677	0.7236	0.4031	-0.385
Mof_H 	H 	0.8366	0.6941	0.3371	0.226
Mof_O 	O 	0.8739	0.8358	0.2709	-0.207
Mof_O 	O 	0.8816	0.943	0.3531	-0.185
Mof_O 	O 	0.7656	0.9462	0.1819	-0.169
Mof_O 	O 	0.8161	0.073	0.1549	-0.18
Mof_O 	O 	0.7899	0.9161	0.558	-0.208
Mof_O 	O 	0.7939	0.8202	0.6723	-0.191
Mof_O 	O 	0.6164	0.7897	0.7627	-0.223
Mof_O 	O 	0.6449	0.7634	0.9357	-0.194
Mof_U 	U 	0.5118	0.66758	0.85105	0.013
Mof_U 	U 	0.67882	0.50607	0.18216	0.001
Mof_U 	U 	0.83508	0.82871	0.46676	0.007
Mof_U 	U 	0.66754	0.98966	0.17476	0.015
Mof_H 	H 	0.8085	0.4684	0.2532	0.206
Mof_C 	C 	0.2153	0.5849	0.97227	0.242
Mof_C 	C 	0.2636	0.645	0.88267	-0.144
Mof_H 	H 	0.2483	0.6187	0.80917	0.093
Mof_H 	H 	0.3205	0.6633	0.89427	0.094
Mof_C 	C 	0.2517	0.7174	0.88187	-0.312
Mof_H 	H 	0.2693	0.7437	0.95507	0.144
Mof_H 	H 	0.2883	0.7549	0.82567	0.151
Mof_C 	C 	0.1712	0.7068	0.85967	0.396
Mof_C 	C 	0.4373	0.8796	0.71707	0.428
Mof_C 	C 	0.4796	0.8917	0.82107	-0.343
Mof_H 	H 	0.5364	0.9149	0.80217	0.154
Mof_H 	H 	0.4621	0.8385	0.85257	0.149
Mof_C 	C 	0.4743	0.9452	0.92027	-0.17
Mof_H 	H 	0.4223	0.9141	0.95727	0.109
Mof_H 	H 	0.5156	0.9548	0.97587	0.119
Mof_C 	C 	0.4841	0.0257	0.88687	0.288
Mof_C 	C 	0.7137	0.4687	0.97257	0.311
Mof_C 	C 	0.7278	0.4419	0.86147	-0.229
Mof_H 	H 	0.7374	0.4835	0.80627	0.132
Mof_H 	H 	0.6782	0.3937	0.83947	0.12
Mof_C 	C 	0.7972	0.4233	0.85107	-0.225
Mof_H 	H 	0.7992	0.3925	0.91507	0.125
Mof_H 	H 	0.7945	0.3955	0.78087	0.13
Mof_C 	C 	0.867	0.5104	0.85187	0.339
Mof_C 	C 	0.4535	0.2495	0.01157	0.427
Mof_C 	C 	0.4316	0.2963	0.08817	-0.314
Mof_H 	H 	0.3929	0.3083	0.05277	0.153
Mof_H 	H 	0.479	0.3466	0.11047	0.155
Mof_C 	C 	0.395	0.241	0.18777	-0.197
Mof_H 	H 	0.3817	0.2684	0.24587	0.118
Mof_H 	H 	0.4343	0.2283	0.21927	0.122
Mof_C 	C 	0.3158	0.1595	0.15397	0.406
Mof_C 	C 	0.0946	0.9892	0.93527	0.315
Mof_C 	C 	0.0511	0.9634	0.81987	-0.194
Mof_H 	H 	0.0894	0.9633	0.76597	0.121
Mof_H 	H 	0.0401	0.0056	0.79627	0.12
Mof_C 	C 	0.9686	0.8791	0.80557	-0.267
Mof_H 	H 	0.9291	0.8751	0.86077	0.139
Mof_H 	H 	0.9465	0.8753	0.73027	0.141
Mof_C 	C 	0.9864	0.8149	0.82267	0.335
Mof_C 	C 	0.1207	0.9017	0.31187	0.354
Mof_C 	C 	0.0849	0.8428	0.40367	-0.247
Mof_H 	H 	0.0814	0.7933	0.37637	0.144
Mof_H 	H 	0.0298	0.8318	0.41197	0.139
Mof_C 	C 	0.12	0.8564	0.52227	-0.209
Mof_H 	H 	0.1365	0.9107	0.54807	0.128
Mof_H 	H 	0.0805	0.818	0.57497	0.115
Mof_C 	C 	0.1915	0.8444	0.51357	0.354
Mof_O 	O 	0.1857	0.5958	0.05707	-0.168
Mof_O 	O 	0.2014	0.508	0.98647	-0.147
Mof_O 	O 	0.1547	0.763	0.86927	-0.201
Mof_O 	O 	0.1193	0.6365	0.82257	-0.356
Mof_H 	H 	0.1133	0.5941	0.87377	0.205
Mof_O 	O 	0.4447	0.8563	0.62767	-0.236
Mof_O 	O 	0.3709	0.883	0.70847	-0.347
Mof_H 	H 	0.3797	0.9368	0.72357	0.218
Mof_O 	O 	0.5057	0.0566	0.78257	-0.194
Mof_O 	O 	0.4666	0.0567	0.96567	-0.192
Mof_O 	O 	0.6481	0.4665	0.97877	-0.218
Mof_O 	O 	0.761	0.4799	0.06277	-0.17
Mof_O 	O 	0.865	0.5728	0.83897	-0.205
Mof_O 	O 	0.9383	0.5231	0.83267	-0.195
Mof_O 	O 	0.4534	0.1888	0.03657	-0.258
Mof_O 	O 	0.481	0.2891	0.91677	-0.353
Mof_O 	O 	0.2973	0.1124	0.23567	-0.211
Mof_O 	O 	0.2764	0.1441	0.06977	-0.383
Mof_H 	H 	0.3059	0.1425	0.00377	0.228
Mof_O 	O 	0.1642	0.0381	0.93757	-0.209
Mof_O 	O 	0.057	0.9386	0.01977	-0.171
Mof_O 	O 	0.0538	0.8194	0.84857	-0.175
Mof_O 	O 	0.927	0.7431	0.82157	-0.183
Mof_O 	O 	0.0839	0.8738	0.22467	-0.205
Mof_O 	O 	0.1798	0.9737	0.33897	-0.189
Mof_O 	O 	0.2103	0.8267	0.42937	-0.222
Mof_O 	O 	0.2366	0.8815	0.60237	-0.189
Mof_U 	U 	0.33242	0.84422	0.51772	0.015
Mof_U 	U 	0.49393	0.17275	0.84883	-0.004
Mof_U 	U 	0.17129	0.00637	0.13343	0.009
Mof_U 	U 	0.01034	0.67788	0.84143	0.01
Mof_H 	H 	0.5316	0.3401	0.91987	0.206
Mof_C 	C 	0.4151	0.6304	0.63893	0.259
Mof_C 	C 	0.355	0.6186	0.54933	-0.153
Mof_H 	H 	0.3813	0.6296	0.47583	0.096
Mof_H 	H 	0.3367	0.6572	0.56093	0.098
Mof_C 	C 	0.2826	0.5343	0.54853	-0.307
Mof_H 	H 	0.2563	0.5256	0.62173	0.146
Mof_H 	H 	0.2451	0.5334	0.49233	0.15
Mof_C 	C 	0.2932	0.4644	0.52633	0.395
Mof_C 	C 	0.1204	0.5577	0.38373	0.428
Mof_C 	C 	0.1083	0.5879	0.48773	-0.343
Mof_H 	H 	0.0851	0.6215	0.46883	0.155
Mof_H 	H 	0.1615	0.6236	0.51923	0.151
Mof_C 	C 	0.0548	0.5291	0.58693	-0.172
Mof_H 	H 	0.0859	0.5082	0.62393	0.112
Mof_H 	H 	0.0452	0.5608	0.64253	0.123
Mof_C 	C 	0.9743	0.4584	0.55353	0.288
Mof_C 	C 	0.5313	0.245	0.63923	0.323
Mof_C 	C 	0.5581	0.2859	0.52813	-0.234
Mof_H 	H 	0.5165	0.2539	0.47293	0.134
Mof_H 	H 	0.6063	0.2845	0.50613	0.122
Mof_C 	C 	0.5767	0.3739	0.51773	-0.222
Mof_H 	H 	0.6075	0.4067	0.58173	0.126
Mof_H 	H 	0.6045	0.399	0.44753	0.129
Mof_C 	C 	0.4896	0.3566	0.51853	0.339
Mof_C 	C 	0.7505	0.204	0.67823	0.412
Mof_C 	C 	0.7037	0.1353	0.75483	-0.304
Mof_H 	H 	0.6917	0.0846	0.71943	0.148
Mof_H 	H 	0.6534	0.1324	0.77713	0.15
Mof_C 	C 	0.759	0.154	0.85443	-0.201
Mof_H 	H 	0.7316	0.1133	0.91253	0.117
Mof_H 	H 	0.7717	0.206	0.88593	0.121
Mof_C 	C 	0.8405	0.1563	0.82063	0.407
Mof_C 	C 	0.0108	0.1054	0.60193	0.332
Mof_C 	C 	0.0366	0.0877	0.48653	-0.2
Mof_H 	H 	0.0367	0.1261	0.43263	0.123
Mof_H 	H 	0.9944	0.0345	0.46293	0.122
Mof_C 	C 	0.1209	0.0895	0.47223	-0.263
Mof_H 	H 	0.1249	0.054	0.52743	0.14
Mof_H 	H 	0.1247	0.0712	0.39693	0.14
Mof_C 	C 	0.1851	0.1715	0.48933	0.334
Mof_C 	C 	0.0983	0.219	0.97853	0.323
Mof_C 	C 	0.1572	0.2421	0.07033	-0.217
Mof_H 	H 	0.2067	0.2881	0.04303	0.137
Mof_H 	H 	0.1682	0.198	0.07863	0.132
Mof_C 	C 	0.1436	0.2636	0.18893	-0.226
Mof_H 	H 	0.0893	0.2258	0.21473	0.133
Mof_H 	H 	0.182	0.2625	0.24163	0.12
Mof_C 	C 	0.1556	0.3471	0.18023	0.358
Mof_O 	O 	0.4042	0.5899	0.72373	-0.183
Mof_O 	O 	0.492	0.6934	0.65313	-0.144
Mof_O 	O 	0.237	0.3917	0.53593	-0.199
Mof_O 	O 	0.3635	0.4828	0.48923	-0.356
Mof_H 	H 	0.4059	0.5192	0.54043	0.207
Mof_O 	O 	0.1437	0.5884	0.29433	-0.235
Mof_O 	O 	0.117	0.4879	0.37513	-0.347
Mof_H 	H 	0.0632	0.4429	0.39023	0.218
Mof_O 	O 	0.9434	0.4491	0.44923	-0.193
Mof_O 	O 	0.9433	0.4099	0.63233	-0.188
Mof_O 	O 	0.5335	0.1816	0.64543	-0.216
Mof_O 	O 	0.5201	0.2811	0.72943	-0.181
Mof_O 	O 	0.4272	0.2922	0.50563	-0.204
Mof_O 	O 	0.4769	0.4152	0.49933	-0.194
Mof_O 	O 	0.8112	0.2646	0.70323	-0.258
Mof_O 	O 	0.7109	0.1919	0.58343	-0.342
Mof_O 	O 	0.8876	0.1849	0.90233	-0.216
Mof_O 	O 	0.8559	0.1323	0.73643	-0.386
Mof_H 	H 	0.8575	0.1634	0.67043	0.226
Mof_O 	O 	0.9619	0.1261	0.60423	-0.209
Mof_O 	O 	0.0614	0.1184	0.68643	-0.187
Mof_O 	O 	0.1806	0.2344	0.51523	-0.173
Mof_O 	O 	0.2569	0.1839	0.48823	-0.182
Mof_O 	O 	0.1262	0.2101	0.89133	-0.203
Mof_O 	O 	0.0263	0.2061	0.00563	-0.174
Mof_O 	O 	0.1733	0.3836	0.09603	-0.22
Mof_O 	O 	0.1185	0.3551	0.26903	-0.19
Mof_U 	U 	0.15578	0.4882	0.18438	0.017
Mof_U 	U 	0.82725	0.32118	0.51549	-0.001
Mof_U 	U 	0.99363	0.16492	0.80009	0.006
Mof_U 	U 	0.32212	0.33246	0.50809	0.011
Mof_H 	H 	0.6599	0.1915	0.58653	0.206
_end
