# CIF file generated by openbabel 3.1.0, see https://openbabel.org
data_I
_chemical_name_common 'image0'
_cell_length_a 27.329
_cell_length_b 17.377
_cell_length_c 10.2124
_cell_angle_alpha 90
_cell_angle_beta 90
_cell_angle_gamma 90
_space_group_name_H-M_alt 'P 1'
_space_group_name_Hall 'P 1'
loop_
    _symmetry_equiv_pos_as_xyz
    x,y,z
loop_
    _atom_site_label
    _atom_site_type_symbol
    _atom_site_fract_x
    _atom_site_fract_y
    _atom_site_fract_z
    _atom_site_occupancy
    Ga1      Ga       0.65650    0.67770    0.11040    1.000
    Ga2      Ga       0.77980    0.73970    0.08860    1.000
    Ga3      Ga       0.75740    0.91330    0.92510    1.000
    Ga4      Ga       0.55310    0.42270    0.90050    1.000
    P1       P        0.85790    0.82240    0.90470    1.000
    P2       P        0.55920    0.57340    0.09630    1.000
    P3       P        0.75390    0.06500    0.11160    1.000
    P4       P        0.69610    0.77120    0.88520    1.000
    F1       F        0.76660    0.85370    0.09070    1.000
    F2       F        0.71640    0.73060    0.17870    1.000
    O1       O        0.83860    0.75660    0.98690    1.000
    O2       O        0.87260    0.79510    0.76720    1.000
    O3       O        0.90570    0.85290    0.97020    1.000
    O4       O        0.82230    0.89070    0.88870    1.000
    O5       O        0.59740    0.62810    0.04780    1.000
    O6       O        0.55740    0.50340    0.00910    1.000
    O7       O        0.50900    0.61330    0.09500    1.000
    O8       O        0.57060    0.54450    0.23700    1.000
    O9       O        0.71670    0.12830    0.09120    1.000
    O10      O        0.74050    0.00070    0.01530    1.000
    O11      O        0.75260    0.03290    0.25220    1.000
    O12      O        0.80680    0.09050    0.07890    1.000
    O13      O        0.74370    0.73150    0.92680    1.000
    O14      O        0.70140    0.85910    0.89320    1.000
    O15      O        0.68320    0.74600    0.74530    1.000
    O16      O        0.65230    0.74580    0.97230    1.000
    Ga5      Ga       0.84350    0.82230    0.61040    1.000
    Ga6      Ga       0.72020    0.76030    0.58860    1.000
    Ga7      Ga       0.74260    0.58670    0.42510    1.000
    Ga8      Ga       0.94690    0.07730    0.40050    1.000
    P5       P        0.64210    0.67760    0.40470    1.000
    P6       P        0.94080    0.92660    0.59630    1.000
    P7       P        0.74610    0.43500    0.61160    1.000
    P8       P        0.80390    0.72880    0.38520    1.000
    F3       F        0.73340    0.64630    0.59070    1.000
    F4       F        0.78360    0.76940    0.67870    1.000
    O17      O        0.66140    0.74340    0.48690    1.000
    O18      O        0.62740    0.70490    0.26720    1.000
    O19      O        0.59430    0.64710    0.47020    1.000
    O20      O        0.67770    0.60930    0.38870    1.000
    O21      O        0.90260    0.87190    0.54780    1.000
    O22      O        0.94260    0.99660    0.50910    1.000
    O23      O        0.99100    0.88670    0.59500    1.000
    O24      O        0.92940    0.95550    0.73700    1.000
    O25      O        0.78330    0.37170    0.59120    1.000
    O26      O        0.75950    0.49930    0.51530    1.000
    O27      O        0.74740    0.46710    0.75220    1.000
    O28      O        0.69320    0.40950    0.57890    1.000
    O29      O        0.75630    0.76850    0.42680    1.000
    O30      O        0.79860    0.64090    0.39320    1.000
    O31      O        0.81680    0.75400    0.24530    1.000
    O32      O        0.84770    0.75420    0.47230    1.000
    Ga9      Ga       0.34350    0.67770    0.38960    1.000
    Ga10     Ga       0.22020    0.73970    0.41140    1.000
    Ga11     Ga       0.24260    0.91330    0.57490    1.000
    Ga12     Ga       0.44690    0.42270    0.59950    1.000
    P9       P        0.14210    0.82240    0.59530    1.000
    P10      P        0.44080    0.57340    0.40370    1.000
    P11      P        0.24610    0.06500    0.38840    1.000
    P12      P        0.30390    0.77120    0.61480    1.000
    F5       F        0.23340    0.85370    0.40930    1.000
    F6       F        0.28360    0.73060    0.32130    1.000
    O33      O        0.16140    0.75660    0.51310    1.000
    O34      O        0.12740    0.79510    0.73280    1.000
    O35      O        0.09430    0.85290    0.52980    1.000
    O36      O        0.17770    0.89070    0.61130    1.000
    O37      O        0.40260    0.62810    0.45220    1.000
    O38      O        0.44260    0.50340    0.49090    1.000
    O39      O        0.49100    0.61330    0.40500    1.000
    O40      O        0.42940    0.54450    0.26300    1.000
    O41      O        0.28330    0.12830    0.40880    1.000
    O42      O        0.25950    0.00070    0.48470    1.000
    O43      O        0.24740    0.03290    0.24780    1.000
    O44      O        0.19320    0.09050    0.42110    1.000
    O45      O        0.25630    0.73150    0.57320    1.000
    O46      O        0.29860    0.85910    0.60680    1.000
    O47      O        0.31680    0.74600    0.75470    1.000
    O48      O        0.34770    0.74580    0.52770    1.000
    Ga13     Ga       0.15650    0.82230    0.88960    1.000
    Ga14     Ga       0.27980    0.76030    0.91140    1.000
    Ga15     Ga       0.25740    0.58670    0.07490    1.000
    Ga16     Ga       0.05310    0.07730    0.09950    1.000
    P13      P        0.35790    0.67760    0.09530    1.000
    P14      P        0.05920    0.92660    0.90370    1.000
    P15      P        0.25390    0.43500    0.88840    1.000
    P16      P        0.19610    0.72880    0.11480    1.000
    F7       F        0.26660    0.64630    0.90930    1.000
    F8       F        0.21640    0.76940    0.82130    1.000
    O49      O        0.33860    0.74340    0.01310    1.000
    O50      O        0.37260    0.70490    0.23280    1.000
    O51      O        0.40570    0.64710    0.02980    1.000
    O52      O        0.32230    0.60930    0.11130    1.000
    O53      O        0.09740    0.87190    0.95220    1.000
    O54      O        0.05740    0.99660    0.99090    1.000
    O55      O        0.00900    0.88670    0.90500    1.000
    O56      O        0.07060    0.95550    0.76300    1.000
    O57      O        0.21670    0.37170    0.90880    1.000
    O58      O        0.24050    0.49930    0.98470    1.000
    O59      O        0.25260    0.46710    0.74780    1.000
    O60      O        0.30680    0.40950    0.92110    1.000
    O61      O        0.24370    0.76850    0.07320    1.000
    O62      O        0.20140    0.64090    0.10680    1.000
    O63      O        0.18320    0.75400    0.25470    1.000
    O64      O        0.15230    0.75420    0.02770    1.000
    Ga17     Ga       0.34350    0.32230    0.88960    1.000
    Ga18     Ga       0.22020    0.26030    0.91140    1.000
    Ga19     Ga       0.24260    0.08670    0.07490    1.000
    Ga20     Ga       0.44690    0.57730    0.09950    1.000
    P17      P        0.14210    0.17760    0.09530    1.000
    P18      P        0.44080    0.42660    0.90370    1.000
    P19      P        0.24610    0.93500    0.88840    1.000
    P20      P        0.30390    0.22880    0.11480    1.000
    F9       F        0.23340    0.14630    0.90930    1.000
    F10      F        0.28360    0.26940    0.82130    1.000
    O65      O        0.16140    0.24340    0.01310    1.000
    O66      O        0.12740    0.20490    0.23280    1.000
    O67      O        0.09430    0.14710    0.02980    1.000
    O68      O        0.17770    0.10930    0.11130    1.000
    O69      O        0.40260    0.37190    0.95220    1.000
    O70      O        0.44260    0.49660    0.99090    1.000
    O71      O        0.49100    0.38670    0.90500    1.000
    O72      O        0.42940    0.45550    0.76300    1.000
    O73      O        0.28330    0.87170    0.90880    1.000
    O74      O        0.25950    0.99930    0.98470    1.000
    O75      O        0.24740    0.96710    0.74780    1.000
    O76      O        0.19320    0.90950    0.92110    1.000
    O77      O        0.25630    0.26850    0.07320    1.000
    O78      O        0.29860    0.14090    0.10680    1.000
    O79      O        0.31680    0.25400    0.25470    1.000
    O80      O        0.34770    0.25420    0.02770    1.000
    Ga21     Ga       0.15650    0.17770    0.38960    1.000
    Ga22     Ga       0.27980    0.23970    0.41140    1.000
    Ga23     Ga       0.25740    0.41330    0.57490    1.000
    Ga24     Ga       0.05310    0.92270    0.59950    1.000
    P21      P        0.35790    0.32240    0.59530    1.000
    P22      P        0.05920    0.07340    0.40370    1.000
    P23      P        0.25390    0.56500    0.38840    1.000
    P24      P        0.19610    0.27120    0.61480    1.000
    F11      F        0.26660    0.35370    0.40930    1.000
    F12      F        0.21640    0.23060    0.32130    1.000
    O81      O        0.33860    0.25660    0.51310    1.000
    O82      O        0.37260    0.29510    0.73280    1.000
    O83      O        0.40570    0.35290    0.52980    1.000
    O84      O        0.32230    0.39070    0.61130    1.000
    O85      O        0.09740    0.12810    0.45220    1.000
    O86      O        0.05740    0.00340    0.49090    1.000
    O87      O        0.00900    0.11330    0.40500    1.000
    O88      O        0.07060    0.04450    0.26300    1.000
    O89      O        0.21670    0.62830    0.40880    1.000
    O90      O        0.24050    0.50070    0.48470    1.000
    O91      O        0.25260    0.53290    0.24780    1.000
    O92      O        0.30680    0.59050    0.42110    1.000
    O93      O        0.24370    0.23150    0.57320    1.000
    O94      O        0.20140    0.35910    0.60680    1.000
    O95      O        0.18320    0.24600    0.75470    1.000
    O96      O        0.15230    0.24580    0.52770    1.000
    Ga25     Ga       0.65650    0.32230    0.61040    1.000
    Ga26     Ga       0.77980    0.26030    0.58860    1.000
    Ga27     Ga       0.75740    0.08670    0.42510    1.000
    Ga28     Ga       0.55310    0.57730    0.40050    1.000
    P25      P        0.85790    0.17760    0.40470    1.000
    P26      P        0.55920    0.42660    0.59630    1.000
    P27      P        0.75390    0.93500    0.61160    1.000
    P28      P        0.69610    0.22880    0.38520    1.000
    F13      F        0.76660    0.14630    0.59070    1.000
    F14      F        0.71640    0.26940    0.67870    1.000
    O97      O        0.83860    0.24340    0.48690    1.000
    O98      O        0.87260    0.20490    0.26720    1.000
    O99      O        0.90570    0.14710    0.47020    1.000
    O100     O        0.82230    0.10930    0.38870    1.000
    O101     O        0.59740    0.37190    0.54780    1.000
    O102     O        0.55740    0.49660    0.50910    1.000
    O103     O        0.50900    0.38670    0.59500    1.000
    O104     O        0.57060    0.45550    0.73700    1.000
    O105     O        0.71670    0.87170    0.59120    1.000
    O106     O        0.74050    0.99930    0.51530    1.000
    O107     O        0.75260    0.96710    0.75220    1.000
    O108     O        0.80680    0.90950    0.57890    1.000
    O109     O        0.74370    0.26850    0.42680    1.000
    O110     O        0.70140    0.14090    0.39320    1.000
    O111     O        0.68320    0.25400    0.24530    1.000
    O112     O        0.65230    0.25420    0.47230    1.000
    Ga29     Ga       0.84350    0.17770    0.11040    1.000
    Ga30     Ga       0.72020    0.23970    0.08860    1.000
    Ga31     Ga       0.74260    0.41330    0.92510    1.000
    Ga32     Ga       0.94690    0.92270    0.90050    1.000
    P29      P        0.64210    0.32240    0.90470    1.000
    P30      P        0.94080    0.07340    0.09630    1.000
    P31      P        0.74610    0.56500    0.11160    1.000
    P32      P        0.80390    0.27120    0.88520    1.000
    F15      F        0.73340    0.35370    0.09070    1.000
    F16      F        0.78360    0.23060    0.17870    1.000
    O113     O        0.66140    0.25660    0.98690    1.000
    O114     O        0.62740    0.29510    0.76720    1.000
    O115     O        0.59430    0.35290    0.97020    1.000
    O116     O        0.67770    0.39070    0.88870    1.000
    O117     O        0.90260    0.12810    0.04780    1.000
    O118     O        0.94260    0.00340    0.00910    1.000
    O119     O        0.99100    0.11330    0.09500    1.000
    O120     O        0.92940    0.04450    0.23700    1.000
    O121     O        0.78330    0.62830    0.09120    1.000
    O122     O        0.75950    0.50070    0.01530    1.000
    O123     O        0.74740    0.53290    0.25220    1.000
    O124     O        0.69320    0.59050    0.07890    1.000
    O125     O        0.75630    0.23150    0.92680    1.000
    O126     O        0.79860    0.35910    0.89320    1.000
    O127     O        0.81680    0.24600    0.74530    1.000
    O128     O        0.84770    0.24580    0.97230    1.000
