data_functionalizedCrystal
_audit_creation_method	'EQeq! by Chris Wilmer'
_symmetry_space_group_name_H-M	'P1'
_symmetry_Int_Tables_number	1
_symmetry_cell_setting	triclinic
loop_
_symmetry_equiv_pos_as_xyz
  x,y,z
_cell_length_a	31.855
_cell_length_b	17.268
_cell_length_c	30.293
_cell_angle_alpha	90
_cell_angle_beta	116.25
_cell_angle_gamma	90
loop_
_atom_site_label
_atom_site_type_symbol
_atom_site_fract_x
_atom_site_fract_y
_atom_site_fract_z
_atom_site_charge
Mof_Zn	Zn	0.89642	0.49896	0.01722	1.219
Mof_Zn	Zn	0.86615	0.34363	0.06906	1.237
Mof_O 	O 	0.4239	0.1098	0.5462	-0.565
Mof_O 	O 	0.43468	0.1898	0.60282	-0.415
Mof_O 	O 	0.6128	0.1015	0.53	-0.358
Mof_O 	O 	0.5596	0.0138	0.5191	-0.381
Mof_O 	O 	0.6352	0.2213	0.83953	-0.257
Mof_O 	O 	0.6734	0.2315	0.9216	-0.42
Mof_O 	O 	0.8223	0.3583	0.99982	-0.454
Mof_O 	O 	0.8471	0.4425	0.95872	-0.427
Mof_O 	O 	0.8602	0.5596	0.60051	-0.507
Mof_O 	O 	0.8504	0.4725	0.5431	-0.496
Mof_N 	N 	0.662	0.29	0.6467	-0.183
Mof_N 	N 	0.6716	0.3229	0.72682	-0.186
Mof_N 	N 	0.7287	0.3616	0.70206	-0.173
Mof_N 	N 	0.6069	0.2599	0.67399	-0.25
Mof_H 	H 	0.5975	0.2703	0.6959	0.149
Mof_N 	N 	0.7403	0.3802	0.78107	-0.237
Mof_H 	H 	0.7612	0.4134	0.783	0.141
Mof_N 	N 	0.7145	0.3292	0.6209	-0.263
Mof_H 	H 	0.6978	0.3008	0.5959	0.148
Mof_C 	C 	0.6471	0.2895	0.6818	0.217
Mof_C 	C 	0.7015	0.3249	0.6581	0.208
Mof_C 	C 	0.7103	0.3525	0.7349	0.211
Mof_C 	C 	0.576	0.2123	0.6342	0.148
Mof_C 	C 	0.5315	0.2026	0.6275	-0.11
Mof_H 	H 	0.5212	0.229	0.6477	0.089
Mof_C 	C 	0.5004	0.1531	0.5905	-0.052
Mof_C 	C 	0.5175	0.1152	0.561	-0.042
Mof_H 	H 	0.4978	0.0828	0.5358	0.067
Mof_C 	C 	0.5609	0.1249	0.5684	0.001
Mof_C 	C 	0.5932	0.1749	0.605	-0.125
Mof_H 	H 	0.6237	0.1819	0.609	0.103
Mof_C 	C 	0.5792	0.0752	0.5376	0.272
Mof_C 	C 	0.4502	0.1394	0.5806	0.389
Mof_C 	C 	0.7388	0.3575	0.8254	0.141
Mof_C 	C 	0.7037	0.3161	0.8295	-0.118
Mof_H 	H 	0.6779	0.3007	0.801	0.101
Mof_C 	C 	0.7057	0.2967	0.875	-0.015
Mof_C 	C 	0.6697	0.2471	0.8782	0.285
Mof_C 	C 	0.7428	0.3219	0.9175	-0.036
Mof_H 	H 	0.7444	0.3099	0.9481	0.078
Mof_C 	C 	0.7781	0.3661	0.9138	-0.025
Mof_C 	C 	0.8206	0.3915	0.9607	0.358
Mof_C 	C 	0.7772	0.3829	0.8689	-0.109
Mof_H 	H 	0.8015	0.4107	0.8673	0.087
Mof_C 	C 	0.7485	0.3694	0.6155	0.232
Mof_C 	C 	0.7742	0.4328	0.644	-0.245
Mof_H 	H 	0.7697	0.4492	0.6709	0.131
Mof_C 	C 	0.8052	0.4698	0.6323	0.15
Mof_H 	H 	0.8225	0.5105	0.6521	-0
Mof_C 	C 	0.8122	0.4487	0.5912	-0.203
Mof_C 	C 	0.7901	0.3849	0.5659	0.173
Mof_H 	H 	0.7963	0.3677	0.5403	-0.012
Mof_C 	C 	0.7595	0.3454	0.5766	-0.258
Mof_H 	H 	0.745	0.3016	0.5584	0.123
Mof_C 	C 	0.8434	0.5023	0.5767	0.454
Mof_Zn	Zn	0.39642	0.99896	0.01722	1.22
Mof_Zn	Zn	0.36615	0.84363	0.06906	1.238
Mof_O 	O 	0.9239	0.6098	0.5462	-0.564
Mof_O 	O 	0.93468	0.6898	0.60282	-0.414
Mof_O 	O 	0.1128	0.6015	0.53	-0.357
Mof_O 	O 	0.0596	0.5138	0.5191	-0.38
Mof_O 	O 	0.1352	0.7213	0.83953	-0.255
Mof_O 	O 	0.1734	0.7315	0.9216	-0.419
Mof_O 	O 	0.3223	0.8583	0.99982	-0.453
Mof_O 	O 	0.3471	0.9425	0.95872	-0.425
Mof_O 	O 	0.3602	0.0596	0.60051	-0.507
Mof_O 	O 	0.3504	0.9725	0.5431	-0.496
Mof_N 	N 	0.162	0.79	0.6467	-0.183
Mof_N 	N 	0.1716	0.8229	0.72682	-0.186
Mof_N 	N 	0.2287	0.8616	0.70206	-0.172
Mof_N 	N 	0.1069	0.7599	0.67399	-0.25
Mof_H 	H 	0.0975	0.7703	0.6959	0.149
Mof_N 	N 	0.2403	0.8802	0.78107	-0.238
Mof_H 	H 	0.2612	0.9134	0.783	0.141
Mof_N 	N 	0.2145	0.8292	0.6209	-0.263
Mof_H 	H 	0.1978	0.8008	0.5959	0.149
Mof_C 	C 	0.1471	0.7895	0.6818	0.217
Mof_C 	C 	0.2015	0.8249	0.6581	0.209
Mof_C 	C 	0.2103	0.8525	0.7349	0.211
Mof_C 	C 	0.076	0.7123	0.6342	0.149
Mof_C 	C 	0.0315	0.7026	0.6275	-0.11
Mof_H 	H 	0.0212	0.729	0.6477	0.089
Mof_C 	C 	0.0004	0.6531	0.5905	-0.052
Mof_C 	C 	0.0175	0.6152	0.561	-0.042
Mof_H 	H 	0.9978	0.5828	0.5358	0.067
Mof_C 	C 	0.0609	0.6249	0.5684	0.001
Mof_C 	C 	0.0932	0.6749	0.605	-0.125
Mof_H 	H 	0.1237	0.6819	0.609	0.103
Mof_C 	C 	0.0792	0.5752	0.5376	0.272
Mof_C 	C 	0.9502	0.6394	0.5806	0.389
Mof_C 	C 	0.2388	0.8575	0.8254	0.141
Mof_C 	C 	0.2037	0.8161	0.8295	-0.118
Mof_H 	H 	0.1779	0.8007	0.801	0.101
Mof_C 	C 	0.2057	0.7967	0.875	-0.015
Mof_C 	C 	0.1697	0.7471	0.8782	0.285
Mof_C 	C 	0.2428	0.8219	0.9175	-0.036
Mof_H 	H 	0.2444	0.8099	0.9481	0.078
Mof_C 	C 	0.2781	0.8661	0.9138	-0.025
Mof_C 	C 	0.3206	0.8915	0.9607	0.358
Mof_C 	C 	0.2772	0.8829	0.8689	-0.109
Mof_H 	H 	0.3015	0.9107	0.8673	0.087
Mof_C 	C 	0.2485	0.8694	0.6155	0.232
Mof_C 	C 	0.2742	0.9328	0.644	-0.246
Mof_H 	H 	0.2697	0.9492	0.6709	0.132
Mof_C 	C 	0.3052	0.9698	0.6323	0.151
Mof_H 	H 	0.3225	0.0105	0.6521	-0.001
Mof_C 	C 	0.3122	0.9487	0.5912	-0.203
Mof_C 	C 	0.2901	0.8849	0.5659	0.173
Mof_H 	H 	0.2963	0.8677	0.5403	-0.012
Mof_C 	C 	0.2595	0.8454	0.5766	-0.258
Mof_H 	H 	0.245	0.8016	0.5584	0.123
Mof_C 	C 	0.3434	0.0023	0.5767	0.453
Mof_Zn	Zn	0.10358	0.49896	0.48278	1.22
Mof_Zn	Zn	0.13385	0.34363	0.43094	1.238
Mof_O 	O 	0.5761	0.1098	0.9538	-0.564
Mof_O 	O 	0.56532	0.1898	0.89718	-0.414
Mof_O 	O 	0.3872	0.1015	0.97	-0.358
Mof_O 	O 	0.4404	0.0138	0.9809	-0.38
Mof_O 	O 	0.3648	0.2213	0.66047	-0.256
Mof_O 	O 	0.3266	0.2315	0.5784	-0.419
Mof_O 	O 	0.1777	0.3583	0.50018	-0.453
Mof_O 	O 	0.1529	0.4425	0.54128	-0.426
Mof_O 	O 	0.1398	0.5596	0.89949	-0.507
Mof_O 	O 	0.1496	0.4725	0.9569	-0.497
Mof_N 	N 	0.338	0.29	0.8533	-0.183
Mof_N 	N 	0.3284	0.3229	0.77318	-0.186
Mof_N 	N 	0.2713	0.3616	0.79794	-0.173
Mof_N 	N 	0.3931	0.2599	0.82601	-0.25
Mof_H 	H 	0.4025	0.2703	0.8041	0.149
Mof_N 	N 	0.2597	0.3802	0.71893	-0.237
Mof_H 	H 	0.2388	0.4134	0.717	0.141
Mof_N 	N 	0.2855	0.3292	0.8791	-0.263
Mof_H 	H 	0.3022	0.3008	0.9041	0.148
Mof_C 	C 	0.3529	0.2895	0.8182	0.217
Mof_C 	C 	0.2985	0.3249	0.8419	0.208
Mof_C 	C 	0.2897	0.3525	0.7651	0.211
Mof_C 	C 	0.424	0.2123	0.8658	0.148
Mof_C 	C 	0.4685	0.2026	0.8725	-0.11
Mof_H 	H 	0.4788	0.229	0.8523	0.089
Mof_C 	C 	0.4996	0.1531	0.9095	-0.052
Mof_C 	C 	0.4825	0.1152	0.939	-0.042
Mof_H 	H 	0.5022	0.0828	0.9642	0.067
Mof_C 	C 	0.4391	0.1249	0.9316	0
Mof_C 	C 	0.4068	0.1749	0.895	-0.125
Mof_H 	H 	0.3763	0.1819	0.891	0.103
Mof_C 	C 	0.4208	0.0752	0.9624	0.272
Mof_C 	C 	0.5498	0.1394	0.9194	0.389
Mof_C 	C 	0.2612	0.3575	0.6746	0.141
Mof_C 	C 	0.2963	0.3161	0.6705	-0.118
Mof_H 	H 	0.3221	0.3007	0.699	0.101
Mof_C 	C 	0.2943	0.2967	0.625	-0.015
Mof_C 	C 	0.3303	0.2471	0.6218	0.285
Mof_C 	C 	0.2572	0.3219	0.5825	-0.036
Mof_H 	H 	0.2556	0.3099	0.5519	0.078
Mof_C 	C 	0.2219	0.3661	0.5862	-0.025
Mof_C 	C 	0.1794	0.3915	0.5393	0.358
Mof_C 	C 	0.2228	0.3829	0.6311	-0.109
Mof_H 	H 	0.1985	0.4107	0.6327	0.087
Mof_C 	C 	0.2515	0.3694	0.8845	0.232
Mof_C 	C 	0.2258	0.4328	0.856	-0.245
Mof_H 	H 	0.2303	0.4492	0.8291	0.131
Mof_C 	C 	0.1948	0.4698	0.8677	0.15
Mof_H 	H 	0.1775	0.5105	0.8479	-0.001
Mof_C 	C 	0.1878	0.4487	0.9088	-0.203
Mof_C 	C 	0.2099	0.3849	0.9341	0.173
Mof_H 	H 	0.2037	0.3677	0.9597	-0.012
Mof_C 	C 	0.2405	0.3454	0.9234	-0.258
Mof_H 	H 	0.255	0.3016	0.9416	0.122
Mof_C 	C 	0.1566	0.5023	0.9233	0.454
Mof_Zn	Zn	0.60358	0.99896	0.48278	1.22
Mof_Zn	Zn	0.63385	0.84363	0.43094	1.238
Mof_O 	O 	0.0761	0.6098	0.9538	-0.564
Mof_O 	O 	0.06532	0.6898	0.89718	-0.414
Mof_O 	O 	0.8872	0.6015	0.97	-0.357
Mof_O 	O 	0.9404	0.5138	0.9809	-0.379
Mof_O 	O 	0.8648	0.7213	0.66047	-0.255
Mof_O 	O 	0.8266	0.7315	0.5784	-0.419
Mof_O 	O 	0.6777	0.8583	0.50018	-0.453
Mof_O 	O 	0.6529	0.9425	0.54128	-0.426
Mof_O 	O 	0.6398	0.0596	0.89949	-0.507
Mof_O 	O 	0.6496	0.9725	0.9569	-0.494
Mof_N 	N 	0.838	0.79	0.8533	-0.183
Mof_N 	N 	0.8284	0.8229	0.77318	-0.186
Mof_N 	N 	0.7713	0.8616	0.79794	-0.172
Mof_N 	N 	0.8931	0.7599	0.82601	-0.25
Mof_H 	H 	0.9025	0.7703	0.8041	0.149
Mof_N 	N 	0.7597	0.8802	0.71893	-0.238
Mof_H 	H 	0.7388	0.9134	0.717	0.141
Mof_N 	N 	0.7855	0.8292	0.8791	-0.263
Mof_H 	H 	0.8022	0.8008	0.9041	0.149
Mof_C 	C 	0.8529	0.7895	0.8182	0.217
Mof_C 	C 	0.7985	0.8249	0.8419	0.209
Mof_C 	C 	0.7897	0.8525	0.7651	0.211
Mof_C 	C 	0.924	0.7123	0.8658	0.148
Mof_C 	C 	0.9685	0.7026	0.8725	-0.109
Mof_H 	H 	0.9788	0.729	0.8523	0.089
Mof_C 	C 	0.9996	0.6531	0.9095	-0.052
Mof_C 	C 	0.9825	0.6152	0.939	-0.04
Mof_H 	H 	0.0022	0.5828	0.9642	0.066
Mof_C 	C 	0.9391	0.6249	0.9316	-0
Mof_C 	C 	0.9068	0.6749	0.895	-0.124
Mof_H 	H 	0.8763	0.6819	0.891	0.103
Mof_C 	C 	0.9208	0.5752	0.9624	0.273
Mof_C 	C 	0.0498	0.6394	0.9194	0.388
Mof_C 	C 	0.7612	0.8575	0.6746	0.141
Mof_C 	C 	0.7963	0.8161	0.6705	-0.118
Mof_H 	H 	0.8221	0.8007	0.699	0.101
Mof_C 	C 	0.7943	0.7967	0.625	-0.015
Mof_C 	C 	0.8303	0.7471	0.6218	0.285
Mof_C 	C 	0.7572	0.8219	0.5825	-0.036
Mof_H 	H 	0.7556	0.8099	0.5519	0.078
Mof_C 	C 	0.7219	0.8661	0.5862	-0.025
Mof_C 	C 	0.6794	0.8915	0.5393	0.358
Mof_C 	C 	0.7228	0.8829	0.6311	-0.109
Mof_H 	H 	0.6985	0.9107	0.6327	0.087
Mof_C 	C 	0.7515	0.8694	0.8845	0.232
Mof_C 	C 	0.7258	0.9328	0.856	-0.246
Mof_H 	H 	0.7303	0.9492	0.8291	0.132
Mof_C 	C 	0.6948	0.9698	0.8677	0.152
Mof_H 	H 	0.6775	0.0105	0.8479	-0.002
Mof_C 	C 	0.6878	0.9487	0.9088	-0.202
Mof_C 	C 	0.7099	0.8849	0.9341	0.172
Mof_H 	H 	0.7037	0.8677	0.9597	-0.012
Mof_C 	C 	0.7405	0.8454	0.9234	-0.257
Mof_H 	H 	0.755	0.8016	0.9416	0.123
Mof_C 	C 	0.6566	0.0023	0.9233	0.451
Mof_Zn	Zn	0.10358	0.50104	0.98278	1.22
Mof_Zn	Zn	0.13385	0.65637	0.93094	1.238
Mof_O 	O 	0.5761	0.8902	0.4538	-0.564
Mof_O 	O 	0.56532	0.8102	0.39718	-0.414
Mof_O 	O 	0.3872	0.8985	0.47	-0.357
Mof_O 	O 	0.4404	0.9862	0.4809	-0.38
Mof_O 	O 	0.3648	0.7787	0.16047	-0.256
Mof_O 	O 	0.3266	0.7685	0.0784	-0.419
Mof_O 	O 	0.1777	0.6417	0.00018	-0.453
Mof_O 	O 	0.1529	0.5575	0.04128	-0.426
Mof_O 	O 	0.1398	0.4404	0.39949	-0.507
Mof_O 	O 	0.1496	0.5275	0.4569	-0.496
Mof_N 	N 	0.338	0.71	0.3533	-0.183
Mof_N 	N 	0.3284	0.6771	0.27318	-0.186
Mof_N 	N 	0.2713	0.6384	0.29794	-0.173
Mof_N 	N 	0.3931	0.7401	0.32601	-0.25
Mof_H 	H 	0.4025	0.7297	0.3041	0.149
Mof_N 	N 	0.2597	0.6198	0.21893	-0.237
Mof_H 	H 	0.2388	0.5866	0.217	0.141
Mof_N 	N 	0.2855	0.6708	0.3791	-0.263
Mof_H 	H 	0.3022	0.6992	0.4041	0.148
Mof_C 	C 	0.3529	0.7105	0.3182	0.217
Mof_C 	C 	0.2985	0.6751	0.3419	0.208
Mof_C 	C 	0.2897	0.6475	0.2651	0.211
Mof_C 	C 	0.424	0.7877	0.3658	0.148
Mof_C 	C 	0.4685	0.7974	0.3725	-0.11
Mof_H 	H 	0.4788	0.771	0.3523	0.089
Mof_C 	C 	0.4996	0.8469	0.4095	-0.052
Mof_C 	C 	0.4825	0.8848	0.439	-0.042
Mof_H 	H 	0.5022	0.9172	0.4642	0.067
Mof_C 	C 	0.4391	0.8751	0.4316	0.001
Mof_C 	C 	0.4068	0.8251	0.395	-0.125
Mof_H 	H 	0.3763	0.8181	0.391	0.103
Mof_C 	C 	0.4208	0.9248	0.4624	0.272
Mof_C 	C 	0.5498	0.8606	0.4194	0.389
Mof_C 	C 	0.2612	0.6425	0.1746	0.141
Mof_C 	C 	0.2963	0.6839	0.1705	-0.118
Mof_H 	H 	0.3221	0.6993	0.199	0.101
Mof_C 	C 	0.2943	0.7033	0.125	-0.015
Mof_C 	C 	0.3303	0.7529	0.1218	0.285
Mof_C 	C 	0.2572	0.6781	0.0825	-0.036
Mof_H 	H 	0.2556	0.6901	0.0519	0.078
Mof_C 	C 	0.2219	0.6339	0.0862	-0.025
Mof_C 	C 	0.1794	0.6085	0.0393	0.358
Mof_C 	C 	0.2228	0.6171	0.1311	-0.109
Mof_H 	H 	0.1985	0.5893	0.1327	0.087
Mof_C 	C 	0.2515	0.6306	0.3845	0.232
Mof_C 	C 	0.2258	0.5672	0.356	-0.245
Mof_H 	H 	0.2303	0.5508	0.3291	0.131
Mof_C 	C 	0.1948	0.5302	0.3677	0.15
Mof_H 	H 	0.1775	0.4895	0.3479	-0
Mof_C 	C 	0.1878	0.5513	0.4088	-0.203
Mof_C 	C 	0.2099	0.6151	0.4341	0.173
Mof_H 	H 	0.2037	0.6323	0.4597	-0.012
Mof_C 	C 	0.2405	0.6546	0.4234	-0.258
Mof_H 	H 	0.255	0.6984	0.4416	0.123
Mof_C 	C 	0.1566	0.4977	0.4233	0.454
Mof_Zn	Zn	0.60358	0.00104	0.98278	1.22
Mof_Zn	Zn	0.63385	0.15637	0.93094	1.238
Mof_O 	O 	0.0761	0.3902	0.4538	-0.564
Mof_O 	O 	0.06532	0.3102	0.39718	-0.414
Mof_O 	O 	0.8872	0.3985	0.47	-0.357
Mof_O 	O 	0.9404	0.4862	0.4809	-0.38
Mof_O 	O 	0.8648	0.2787	0.16047	-0.255
Mof_O 	O 	0.8266	0.2685	0.0784	-0.419
Mof_O 	O 	0.6777	0.1417	0.00018	-0.453
Mof_O 	O 	0.6529	0.0575	0.04128	-0.425
Mof_O 	O 	0.6398	0.9404	0.39949	-0.507
Mof_O 	O 	0.6496	0.0275	0.4569	-0.496
Mof_N 	N 	0.838	0.21	0.3533	-0.183
Mof_N 	N 	0.8284	0.1771	0.27318	-0.186
Mof_N 	N 	0.7713	0.1384	0.29794	-0.172
Mof_N 	N 	0.8931	0.2401	0.32601	-0.25
Mof_H 	H 	0.9025	0.2297	0.3041	0.149
Mof_N 	N 	0.7597	0.1198	0.21893	-0.238
Mof_H 	H 	0.7388	0.0866	0.217	0.141
Mof_N 	N 	0.7855	0.1708	0.3791	-0.263
Mof_H 	H 	0.8022	0.1992	0.4041	0.149
Mof_C 	C 	0.8529	0.2105	0.3182	0.217
Mof_C 	C 	0.7985	0.1751	0.3419	0.209
Mof_C 	C 	0.7897	0.1475	0.2651	0.211
Mof_C 	C 	0.924	0.2877	0.3658	0.149
Mof_C 	C 	0.9685	0.2974	0.3725	-0.11
Mof_H 	H 	0.9788	0.271	0.3523	0.089
Mof_C 	C 	0.9996	0.3469	0.4095	-0.052
Mof_C 	C 	0.9825	0.3848	0.439	-0.042
Mof_H 	H 	0.0022	0.4172	0.4642	0.067
Mof_C 	C 	0.9391	0.3751	0.4316	0.001
Mof_C 	C 	0.9068	0.3251	0.395	-0.125
Mof_H 	H 	0.8763	0.3181	0.391	0.103
Mof_C 	C 	0.9208	0.4248	0.4624	0.272
Mof_C 	C 	0.0498	0.3606	0.4194	0.389
Mof_C 	C 	0.7612	0.1425	0.1746	0.141
Mof_C 	C 	0.7963	0.1839	0.1705	-0.118
Mof_H 	H 	0.8221	0.1993	0.199	0.101
Mof_C 	C 	0.7943	0.2033	0.125	-0.015
Mof_C 	C 	0.8303	0.2529	0.1218	0.285
Mof_C 	C 	0.7572	0.1781	0.0825	-0.036
Mof_H 	H 	0.7556	0.1901	0.0519	0.078
Mof_C 	C 	0.7219	0.1339	0.0862	-0.025
Mof_C 	C 	0.6794	0.1085	0.0393	0.358
Mof_C 	C 	0.7228	0.1171	0.1311	-0.109
Mof_H 	H 	0.6985	0.0893	0.1327	0.087
Mof_C 	C 	0.7515	0.1306	0.3845	0.232
Mof_C 	C 	0.7258	0.0672	0.356	-0.246
Mof_H 	H 	0.7303	0.0508	0.3291	0.132
Mof_C 	C 	0.6948	0.0302	0.3677	0.151
Mof_H 	H 	0.6775	0.9895	0.3479	-0.001
Mof_C 	C 	0.6878	0.0513	0.4088	-0.203
Mof_C 	C 	0.7099	0.1151	0.4341	0.173
Mof_H 	H 	0.7037	0.1323	0.4597	-0.012
Mof_C 	C 	0.7405	0.1546	0.4234	-0.258
Mof_H 	H 	0.755	0.1984	0.4416	0.123
Mof_C 	C 	0.6566	0.9977	0.4233	0.453
Mof_Zn	Zn	0.89642	0.50104	0.51722	1.22
Mof_Zn	Zn	0.86615	0.65637	0.56906	1.238
Mof_O 	O 	0.4239	0.8902	0.0462	-0.564
Mof_O 	O 	0.43468	0.8102	0.10282	-0.414
Mof_O 	O 	0.6128	0.8985	0.03	-0.358
Mof_O 	O 	0.5596	0.9862	0.0191	-0.38
Mof_O 	O 	0.6352	0.7787	0.33953	-0.256
Mof_O 	O 	0.6734	0.7685	0.4216	-0.419
Mof_O 	O 	0.8223	0.6417	0.49982	-0.453
Mof_O 	O 	0.8471	0.5575	0.45872	-0.426
Mof_O 	O 	0.8602	0.4404	0.10051	-0.507
Mof_O 	O 	0.8504	0.5275	0.0431	-0.497
Mof_N 	N 	0.662	0.71	0.1467	-0.183
Mof_N 	N 	0.6716	0.6771	0.22682	-0.186
Mof_N 	N 	0.7287	0.6384	0.20206	-0.173
Mof_N 	N 	0.6069	0.7401	0.17399	-0.25
Mof_H 	H 	0.5975	0.7297	0.1959	0.149
Mof_N 	N 	0.7403	0.6198	0.28107	-0.237
Mof_H 	H 	0.7612	0.5866	0.283	0.141
Mof_N 	N 	0.7145	0.6708	0.1209	-0.263
Mof_H 	H 	0.6978	0.6992	0.0959	0.148
Mof_C 	C 	0.6471	0.7105	0.1818	0.217
Mof_C 	C 	0.7015	0.6751	0.1581	0.208
Mof_C 	C 	0.7103	0.6475	0.2349	0.211
Mof_C 	C 	0.576	0.7877	0.1342	0.148
Mof_C 	C 	0.5315	0.7974	0.1275	-0.11
Mof_H 	H 	0.5212	0.771	0.1477	0.089
Mof_C 	C 	0.5004	0.8469	0.0905	-0.052
Mof_C 	C 	0.5175	0.8848	0.061	-0.042
Mof_H 	H 	0.4978	0.9172	0.0358	0.067
Mof_C 	C 	0.5609	0.8751	0.0684	0
Mof_C 	C 	0.5932	0.8251	0.105	-0.125
Mof_H 	H 	0.6237	0.8181	0.109	0.103
Mof_C 	C 	0.5792	0.9248	0.0376	0.272
Mof_C 	C 	0.4502	0.8606	0.0806	0.389
Mof_C 	C 	0.7388	0.6425	0.3254	0.141
Mof_C 	C 	0.7037	0.6839	0.3295	-0.118
Mof_H 	H 	0.6779	0.6993	0.301	0.101
Mof_C 	C 	0.7057	0.7033	0.375	-0.015
Mof_C 	C 	0.6697	0.7529	0.3782	0.285
Mof_C 	C 	0.7428	0.6781	0.4175	-0.036
Mof_H 	H 	0.7444	0.6901	0.4481	0.078
Mof_C 	C 	0.7781	0.6339	0.4138	-0.025
Mof_C 	C 	0.8206	0.6085	0.4607	0.358
Mof_C 	C 	0.7772	0.6171	0.3689	-0.109
Mof_H 	H 	0.8015	0.5893	0.3673	0.087
Mof_C 	C 	0.7485	0.6306	0.1155	0.232
Mof_C 	C 	0.7742	0.5672	0.144	-0.245
Mof_H 	H 	0.7697	0.5508	0.1709	0.131
Mof_C 	C 	0.8052	0.5302	0.1323	0.15
Mof_H 	H 	0.8225	0.4895	0.1521	-0.001
Mof_C 	C 	0.8122	0.5513	0.0912	-0.203
Mof_C 	C 	0.7901	0.6151	0.0659	0.173
Mof_H 	H 	0.7963	0.6323	0.0403	-0.012
Mof_C 	C 	0.7595	0.6546	0.0766	-0.258
Mof_H 	H 	0.745	0.6984	0.0584	0.122
Mof_C 	C 	0.8434	0.4977	0.0767	0.454
Mof_Zn	Zn	0.39642	0.00104	0.51722	1.22
Mof_Zn	Zn	0.36615	0.15637	0.56906	1.238
Mof_O 	O 	0.9239	0.3902	0.0462	-0.564
Mof_O 	O 	0.93468	0.3102	0.10282	-0.414
Mof_O 	O 	0.1128	0.3985	0.03	-0.357
Mof_O 	O 	0.0596	0.4862	0.0191	-0.379
Mof_O 	O 	0.1352	0.2787	0.33953	-0.255
Mof_O 	O 	0.1734	0.2685	0.4216	-0.419
Mof_O 	O 	0.3223	0.1417	0.49982	-0.453
Mof_O 	O 	0.3471	0.0575	0.45872	-0.426
Mof_O 	O 	0.3602	0.9404	0.10051	-0.507
Mof_O 	O 	0.3504	0.0275	0.0431	-0.494
Mof_N 	N 	0.162	0.21	0.1467	-0.183
Mof_N 	N 	0.1716	0.1771	0.22682	-0.186
Mof_N 	N 	0.2287	0.1384	0.20206	-0.172
Mof_N 	N 	0.1069	0.2401	0.17399	-0.25
Mof_H 	H 	0.0975	0.2297	0.1959	0.149
Mof_N 	N 	0.2403	0.1198	0.28107	-0.238
Mof_H 	H 	0.2612	0.0866	0.283	0.141
Mof_N 	N 	0.2145	0.1708	0.1209	-0.263
Mof_H 	H 	0.1978	0.1992	0.0959	0.149
Mof_C 	C 	0.1471	0.2105	0.1818	0.217
Mof_C 	C 	0.2015	0.1751	0.1581	0.209
Mof_C 	C 	0.2103	0.1475	0.2349	0.211
Mof_C 	C 	0.076	0.2877	0.1342	0.148
Mof_C 	C 	0.0315	0.2974	0.1275	-0.109
Mof_H 	H 	0.0212	0.271	0.1477	0.089
Mof_C 	C 	0.0004	0.3469	0.0905	-0.052
Mof_C 	C 	0.0175	0.3848	0.061	-0.04
Mof_H 	H 	0.9978	0.4172	0.0358	0.066
Mof_C 	C 	0.0609	0.3751	0.0684	-0
Mof_C 	C 	0.0932	0.3251	0.105	-0.124
Mof_H 	H 	0.1237	0.3181	0.109	0.103
Mof_C 	C 	0.0792	0.4248	0.0376	0.273
Mof_C 	C 	0.9502	0.3606	0.0806	0.388
Mof_C 	C 	0.2388	0.1425	0.3254	0.141
Mof_C 	C 	0.2037	0.1839	0.3295	-0.118
Mof_H 	H 	0.1779	0.1993	0.301	0.101
Mof_C 	C 	0.2057	0.2033	0.375	-0.015
Mof_C 	C 	0.1697	0.2529	0.3782	0.285
Mof_C 	C 	0.2428	0.1781	0.4175	-0.036
Mof_H 	H 	0.2444	0.1901	0.4481	0.078
Mof_C 	C 	0.2781	0.1339	0.4138	-0.025
Mof_C 	C 	0.3206	0.1085	0.4607	0.358
Mof_C 	C 	0.2772	0.1171	0.3689	-0.109
Mof_H 	H 	0.3015	0.0893	0.3673	0.087
Mof_C 	C 	0.2485	0.1306	0.1155	0.232
Mof_C 	C 	0.2742	0.0672	0.144	-0.246
Mof_H 	H 	0.2697	0.0508	0.1709	0.132
Mof_C 	C 	0.3052	0.0302	0.1323	0.152
Mof_H 	H 	0.3225	0.9895	0.1521	-0.002
Mof_C 	C 	0.3122	0.0513	0.0912	-0.202
Mof_C 	C 	0.2901	0.1151	0.0659	0.172
Mof_H 	H 	0.2963	0.1323	0.0403	-0.012
Mof_C 	C 	0.2595	0.1546	0.0766	-0.257
Mof_H 	H 	0.245	0.1984	0.0584	0.123
Mof_C 	C 	0.3434	0.9977	0.0767	0.451
_end
