# CIF file generated by openbabel 3.1.0, see https://openbabel.org
data_I
_chemical_name_common 'NEJSEC_clean'
_cell_length_a 10.8044
_cell_length_b 14.053
_cell_length_c 21.678
_cell_angle_alpha 89.878
_cell_angle_beta 83.363
_cell_angle_gamma 88.981
_space_group_name_H-M_alt 'P 1'
_space_group_name_Hall 'P 1'
loop_
    _symmetry_equiv_pos_as_xyz
    x,y,z
loop_
    _atom_site_label
    _atom_site_type_symbol
    _atom_site_fract_x
    _atom_site_fract_y
    _atom_site_fract_z
    _atom_site_occupancy
    Cu1      Cu       0.71846    0.29889    0.67165    1.000
    Cu2      Cu       0.72322    0.10993    0.67164    1.000
    Cu3      Cu       0.73297    0.29646    0.17047    1.000
    Cu4      Cu       0.73731    0.10729    0.17126    1.000
    H1       H        0.77230    0.34390    0.86380    1.000
    H2       H        0.78640    0.34300    0.96990    1.000
    H3       H        0.68070    0.07180    0.97930    1.000
    H4       H        0.66870    0.07150    0.87410    1.000
    H5       H        0.32690    0.05950    0.68650    1.000
    H6       H        0.11320    0.06010    0.68550    1.000
    H7       H        0.11450    0.34380    0.65590    1.000
    H8       H        0.32800    0.34390    0.65860    1.000
    H9       H        0.79780    0.07640    0.47150    1.000
    H10      H        0.78870    0.07310    0.36620    1.000
    H11      H        0.68490    0.34760    0.36970    1.000
    H12      H        0.68450    0.34770    0.47700    1.000
    H13      H        0.34110    0.05630    0.18890    1.000
    H14      H        0.12960    0.05480    0.18290    1.000
    H15      H        0.12900    0.33760    0.15140    1.000
    H16      H        0.34120    0.33950    0.15570    1.000
    H17      H        0.90580    0.93710    0.66280    1.000
    H18      H        0.91180    0.77360    0.66280    1.000
    H19      H        0.53790    0.77900    0.66930    1.000
    H20      H        0.54420    0.94200    0.67150    1.000
    H21      H        0.89300    0.45940    0.11940    1.000
    H22      H        0.90250    0.62240    0.11610    1.000
    H23      H        0.56950    0.63250    0.22140    1.000
    H24      H        0.57430    0.46860    0.22240    1.000
    H25      H        0.55750    0.93970    0.17480    1.000
    H26      H        0.55140    0.77660    0.17400    1.000
    H27      H        0.92570    0.77070    0.15890    1.000
    H28      H        0.91960    0.93450    0.16100    1.000
    H29      H        0.57480    0.46860    0.62470    1.000
    H30      H        0.57420    0.63140    0.61900    1.000
    H31      H        0.86900    0.62820    0.71760    1.000
    H32      H        0.85690    0.46520    0.72090    1.000
    C1       C        0.71280    0.20650    0.78883    1.000
    C2       C        0.48690    0.20160    0.67432    1.000
    C3       C        0.73420    0.21040    0.55425    1.000
    C4       C        0.95430    0.20190    0.66857    1.000
    C5       C        0.72930    0.20580    0.28786    1.000
    C6       C        0.50050    0.20040    0.17544    1.000
    C7       C        0.74070    0.20710    0.05361    1.000
    C8       C        0.96940    0.19600    0.16573    1.000
    C9       C        0.71970    0.20720    0.85755    1.000
    C10      C        0.75420    0.28820    0.88696    1.000
    C11      C        0.76200    0.28760    0.95062    1.000
    C12      C        0.73510    0.20860    0.98548    1.000
    C13      C        0.69980    0.12720    0.95601    1.000
    C14      C        0.69260    0.12720    0.89322    1.000
    C15      C        0.34900    0.20120    0.67234    1.000
    C16      C        0.28400    0.11690    0.68043    1.000
    C17      C        0.15700    0.11720    0.67952    1.000
    C18      C        0.09260    0.20210    0.66981    1.000
    C19      C        0.15750    0.28650    0.66209    1.000
    C20      C        0.28450    0.28650    0.66354    1.000
    C21      C        0.73610    0.21130    0.48521    1.000
    C22      C        0.77100    0.13100    0.45138    1.000
    C23      C        0.76710    0.12960    0.38827    1.000
    C24      C        0.73260    0.20870    0.35674    1.000
    C25      C        0.70460    0.29130    0.39024    1.000
    C26      C        0.70540    0.29140    0.45447    1.000
    C27      C        0.36340    0.19850    0.17292    1.000
    C28      C        0.29840    0.11310    0.18111    1.000
    C29      C        0.17260    0.11230    0.17780    1.000
    C30      C        0.10790    0.19630    0.16695    1.000
    C31      C        0.17210    0.28080    0.15884    1.000
    C32      C        0.29840    0.28190    0.16157    1.000
    C33      C        0.83030    0.90440    0.66466    1.000
    C34      C        0.83480    0.80620    0.66435    1.000
    C35      C        0.72470    0.75580    0.66636    1.000
    C36      C        0.61490    0.80930    0.66847    1.000
    C37      C        0.61970    0.90720    0.66940    1.000
    C38      C        0.82730    0.49520    0.14079    1.000
    C39      C        0.83350    0.59290    0.13818    1.000
    C40      C        0.73690    0.64760    0.16844    1.000
    C41      C        0.63760    0.59890    0.20038    1.000
    C42      C        0.64120    0.50080    0.20057    1.000
    C43      C        0.63310    0.90490    0.17162    1.000
    C44      C        0.62870    0.80680    0.17130    1.000
    C45      C        0.73710    0.75320    0.16701    1.000
    C46      C        0.84860    0.80360    0.16250    1.000
    C47      C        0.84410    0.90170    0.16346    1.000
    C48      C        0.63510    0.50190    0.64350    1.000
    C49      C        0.63400    0.59930    0.63990    1.000
    C50      C        0.72330    0.65080    0.66775    1.000
    C51      C        0.80730    0.59760    0.69810    1.000
    C52      C        0.80000    0.49980    0.69950    1.000
    N1       N        0.72460    0.95524    0.66749    1.000
    N2       N        0.73510    0.44931    0.17132    1.000
    N3       N        0.73830    0.95232    0.16771    1.000
    N4       N        0.71700    0.45228    0.67214    1.000
    O1       O        0.72030    0.28564    0.76179    1.000
    O2       O        0.70021    0.12729    0.76380    1.000
    O3       O        0.53635    0.28073    0.68051    1.000
    O4       O        0.54342    0.12198    0.67016    1.000
    O5       O        0.71886    0.28962    0.58157    1.000
    O6       O        0.74690    0.13116    0.58017    1.000
    O7       O        0.90066    0.28110    0.66225    1.000
    O8       O        0.90141    0.12246    0.67383    1.000
    O9       O        0.71561    0.28464    0.26114    1.000
    O10      O        0.73970    0.12626    0.26207    1.000
    O11      O        0.55240    0.27963    0.17153    1.000
    O12      O        0.55595    0.12097    0.18122    1.000
    O13      O        0.74970    0.28660    0.07971    1.000
    O14      O        0.73500    0.12780    0.08057    1.000
    O15      O        0.91385    0.27580    0.16937    1.000
    O16      O        0.91793    0.11654    0.16210    1.000
    Cu5      Cu       0.28154    0.70111    0.32835    1.000
    Cu6      Cu       0.27678    0.89007    0.32836    1.000
    Cu7      Cu       0.26703    0.70354    0.82953    1.000
    Cu8      Cu       0.26269    0.89271    0.82874    1.000
    H33      H        0.22770    0.65610    0.13620    1.000
    H34      H        0.21360    0.65700    0.03010    1.000
    H35      H        0.31930    0.92820    0.02070    1.000
    H36      H        0.33130    0.92850    0.12590    1.000
    H37      H        0.67310    0.94050    0.31350    1.000
    H38      H        0.88680    0.93990    0.31450    1.000
    H39      H        0.88550    0.65620    0.34410    1.000
    H40      H        0.67200    0.65610    0.34140    1.000
    H41      H        0.20220    0.92360    0.52850    1.000
    H42      H        0.21130    0.92690    0.63380    1.000
    H43      H        0.31510    0.65240    0.63030    1.000
    H44      H        0.31550    0.65230    0.52300    1.000
    H45      H        0.65890    0.94370    0.81110    1.000
    H46      H        0.87040    0.94520    0.81710    1.000
    H47      H        0.87100    0.66240    0.84860    1.000
    H48      H        0.65880    0.66050    0.84430    1.000
    H49      H        0.09420    0.06290    0.33720    1.000
    H50      H        0.08820    0.22640    0.33720    1.000
    H51      H        0.46210    0.22100    0.33070    1.000
    H52      H        0.45580    0.05800    0.32850    1.000
    H53      H        0.10700    0.54060    0.88060    1.000
    H54      H        0.09750    0.37760    0.88390    1.000
    H55      H        0.43050    0.36750    0.77860    1.000
    H56      H        0.42570    0.53140    0.77760    1.000
    H57      H        0.44250    0.06030    0.82520    1.000
    H58      H        0.44860    0.22340    0.82600    1.000
    H59      H        0.07430    0.22930    0.84110    1.000
    H60      H        0.08040    0.06550    0.83900    1.000
    H61      H        0.42520    0.53140    0.37530    1.000
    H62      H        0.42580    0.36860    0.38100    1.000
    H63      H        0.13100    0.37180    0.28240    1.000
    H64      H        0.14310    0.53480    0.27910    1.000
    C53      C        0.28720    0.79350    0.21117    1.000
    C54      C        0.51310    0.79840    0.32568    1.000
    C55      C        0.26580    0.78960    0.44575    1.000
    C56      C        0.04570    0.79810    0.33143    1.000
    C57      C        0.27070    0.79420    0.71214    1.000
    C58      C        0.49950    0.79960    0.82456    1.000
    C59      C        0.25930    0.79290    0.94639    1.000
    C60      C        0.03060    0.80400    0.83427    1.000
    C61      C        0.28030    0.79280    0.14245    1.000
    C62      C        0.24580    0.71180    0.11304    1.000
    C63      C        0.23800    0.71240    0.04938    1.000
    C64      C        0.26490    0.79140    0.01452    1.000
    C65      C        0.30020    0.87280    0.04399    1.000
    C66      C        0.30740    0.87280    0.10678    1.000
    C67      C        0.65100    0.79880    0.32766    1.000
    C68      C        0.71600    0.88310    0.31957    1.000
    C69      C        0.84300    0.88280    0.32048    1.000
    C70      C        0.90740    0.79790    0.33019    1.000
    C71      C        0.84250    0.71350    0.33791    1.000
    C72      C        0.71550    0.71350    0.33646    1.000
    C73      C        0.26390    0.78870    0.51479    1.000
    C74      C        0.22900    0.86900    0.54862    1.000
    C75      C        0.23290    0.87040    0.61173    1.000
    C76      C        0.26740    0.79130    0.64326    1.000
    C77      C        0.29540    0.70870    0.60976    1.000
    C78      C        0.29460    0.70860    0.54553    1.000
    C79      C        0.63660    0.80150    0.82708    1.000
    C80      C        0.70160    0.88690    0.81889    1.000
    C81      C        0.82740    0.88770    0.82220    1.000
    C82      C        0.89210    0.80370    0.83305    1.000
    C83      C        0.82790    0.71920    0.84116    1.000
    C84      C        0.70160    0.71810    0.83843    1.000
    C85      C        0.16970    0.09560    0.33534    1.000
    C86      C        0.16520    0.19380    0.33565    1.000
    C87      C        0.27530    0.24420    0.33364    1.000
    C88      C        0.38510    0.19070    0.33153    1.000
    C89      C        0.38030    0.09280    0.33060    1.000
    C90      C        0.17270    0.50480    0.85921    1.000
    C91      C        0.16650    0.40710    0.86182    1.000
    C92      C        0.26310    0.35240    0.83156    1.000
    C93      C        0.36240    0.40110    0.79962    1.000
    C94      C        0.35880    0.49920    0.79943    1.000
    C95      C        0.36690    0.09510    0.82838    1.000
    C96      C        0.37130    0.19320    0.82870    1.000
    C97      C        0.26290    0.24680    0.83299    1.000
    C98      C        0.15140    0.19640    0.83750    1.000
    C99      C        0.15590    0.09830    0.83654    1.000
    C100     C        0.36490    0.49810    0.35650    1.000
    C101     C        0.36600    0.40070    0.36010    1.000
    C102     C        0.27670    0.34920    0.33225    1.000
    C103     C        0.19270    0.40240    0.30190    1.000
    C104     C        0.20000    0.50020    0.30050    1.000
    N5       N        0.27540    0.04476    0.33251    1.000
    N6       N        0.26490    0.55069    0.82868    1.000
    N7       N        0.26170    0.04768    0.83229    1.000
    N8       N        0.28300    0.54772    0.32786    1.000
    O17      O        0.27970    0.71436    0.23821    1.000
    O18      O        0.29979    0.87271    0.23620    1.000
    O19      O        0.46365    0.71927    0.31949    1.000
    O20      O        0.45658    0.87802    0.32984    1.000
    O21      O        0.28114    0.71038    0.41843    1.000
    O22      O        0.25310    0.86884    0.41983    1.000
    O23      O        0.09934    0.71890    0.33775    1.000
    O24      O        0.09859    0.87754    0.32617    1.000
    O25      O        0.28439    0.71536    0.73886    1.000
    O26      O        0.26030    0.87374    0.73793    1.000
    O27      O        0.44760    0.72037    0.82847    1.000
    O28      O        0.44405    0.87903    0.81878    1.000
    O29      O        0.25030    0.71340    0.92029    1.000
    O30      O        0.26500    0.87220    0.91943    1.000
    O31      O        0.08615    0.72420    0.83063    1.000
    O32      O        0.08207    0.88346    0.83790    1.000
