data_functionalizedCrystal
_audit_creation_method	'EQeq! by Chris Wilmer'
_symmetry_space_group_name_H-M	'P1'
_symmetry_Int_Tables_number	1
_symmetry_cell_setting	triclinic
loop_
_symmetry_equiv_pos_as_xyz
  x,y,z
_cell_length_a	13.741
_cell_length_b	13.972
_cell_length_c	8.8045
_cell_angle_alpha	90
_cell_angle_beta	113.76
_cell_angle_gamma	90
loop_
_atom_site_label
_atom_site_type_symbol
_atom_site_fract_x
_atom_site_fract_y
_atom_site_fract_z
_atom_site_charge
Mof_O 	O 	0.09191	0.57699	0.11564	-0.628
Mof_O 	O 	0.10206	0.52614	0.88489	-0.607
Mof_O 	O 	0.18938	0.62701	0.73276	-0.475
Mof_H 	H 	0.1472	0.5869	0.7379	0.264
Mof_C 	C 	0.12089	0.58576	0.001	0.53
Mof_C 	C 	0.18695	0.67077	0.9985	-0.256
Mof_C 	C 	0.22013	0.73456	0.1304	-0.046
Mof_H 	H 	0.2002	0.7244	0.2182	0.024
Mof_C 	C 	0.21766	0.68704	0.8664	0.254
Mof_O 	O 	0.59191	0.07699	0.11564	-0.553
Mof_O 	O 	0.60206	0.02614	0.88489	-0.532
Mof_O 	O 	0.68938	0.12701	0.73276	-0.441
Mof_H 	H 	0.6472	0.0869	0.7379	0.282
Mof_C 	C 	0.62089	0.08576	0.001	0.523
Mof_C 	C 	0.68695	0.17077	0.9985	-0.211
Mof_C 	C 	0.72013	0.23456	0.1304	-0.047
Mof_H 	H 	0.7002	0.2244	0.2182	0.056
Mof_C 	C 	0.71766	0.18704	0.8664	0.271
Mof_O 	O 	0.90809	0.57699	0.38436	-0.475
Mof_O 	O 	0.89794	0.52614	0.61511	-0.462
Mof_O 	O 	0.81062	0.62701	0.76724	-0.439
Mof_H 	H 	0.8528	0.5869	0.7621	0.3
Mof_C 	C 	0.87911	0.58576	0.499	0.5
Mof_C 	C 	0.81305	0.67077	0.5015	-0.165
Mof_C 	C 	0.77987	0.73456	0.3696	-0.081
Mof_H 	H 	0.7998	0.7244	0.2818	0.08
Mof_C 	C 	0.78234	0.68704	0.6336	0.25
Mof_O 	O 	0.40809	0.07699	0.38436	-0.561
Mof_O 	O 	0.39794	0.02614	0.61511	-0.54
Mof_O 	O 	0.31062	0.12701	0.76724	-0.469
Mof_H 	H 	0.3528	0.0869	0.7621	0.282
Mof_C 	C 	0.37911	0.08576	0.499	0.5
Mof_C 	C 	0.31305	0.17077	0.5015	-0.201
Mof_C 	C 	0.27987	0.23456	0.3696	-0.09
Mof_H 	H 	0.2998	0.2244	0.2818	0.049
Mof_C 	C 	0.28234	0.18704	0.6336	0.229
Mof_O 	O 	0.90809	0.42301	0.88436	-0.472
Mof_O 	O 	0.89794	0.47386	0.11511	-0.448
Mof_O 	O 	0.81062	0.37299	0.26724	-0.43
Mof_H 	H 	0.8528	0.4131	0.2621	0.298
Mof_C 	C 	0.87911	0.41424	0.999	0.472
Mof_C 	C 	0.81305	0.32923	0.0015	-0.135
Mof_C 	C 	0.77987	0.26544	0.8696	-0.109
Mof_H 	H 	0.7998	0.2756	0.7818	0.087
Mof_C 	C 	0.78234	0.31296	0.1336	0.235
Mof_O 	O 	0.40809	0.92301	0.88436	-0.555
Mof_O 	O 	0.39794	0.97386	0.11511	-0.524
Mof_O 	O 	0.31062	0.87299	0.26724	-0.46
Mof_H 	H 	0.3528	0.9131	0.2621	0.278
Mof_C 	C 	0.37911	0.91424	0.999	0.465
Mof_C 	C 	0.31305	0.82923	0.0015	-0.158
Mof_C 	C 	0.27987	0.76544	0.8696	-0.131
Mof_H 	H 	0.2998	0.7756	0.7818	0.061
Mof_C 	C 	0.28234	0.81296	0.1336	0.204
Mof_O 	O 	0.09191	0.42301	0.61564	-0.624
Mof_O 	O 	0.10206	0.47386	0.38489	-0.595
Mof_O 	O 	0.18938	0.37299	0.23276	-0.465
Mof_H 	H 	0.1472	0.4131	0.2379	0.262
Mof_C 	C 	0.12089	0.41424	0.501	0.502
Mof_C 	C 	0.18695	0.32923	0.4985	-0.219
Mof_C 	C 	0.22013	0.26544	0.6304	-0.083
Mof_H 	H 	0.2002	0.2756	0.7182	0.036
Mof_C 	C 	0.21766	0.31296	0.3664	0.23
Mof_O 	O 	0.59191	0.92301	0.61564	-0.552
Mof_O 	O 	0.60206	0.97386	0.38489	-0.526
Mof_O 	O 	0.68938	0.87299	0.23276	-0.433
Mof_H 	H 	0.6472	0.9131	0.2379	0.281
Mof_C 	C 	0.62089	0.91424	0.501	0.509
Mof_C 	C 	0.68695	0.82923	0.4985	-0.188
Mof_C 	C 	0.72013	0.76544	0.6304	-0.07
Mof_H 	H 	0.7002	0.7756	0.7182	0.062
Mof_C 	C 	0.71766	0.81296	0.3664	0.256
Mof_Mg	Mg	-9.1855e-18	0.5778	0.25	1.446
Mof_Mg	Mg	0.5	0.0778	0.25	1.466
Mof_Mg	Mg	2.52777e-33	0.4222	0.75	1.446
Mof_Mg	Mg	0.5	0.9222	0.75	1.466
_end
