data_functionalizedCrystal
_audit_creation_method	'EQeq! by Chris Wilmer'
_symmetry_space_group_name_H-M	'P1'
_symmetry_Int_Tables_number	1
_symmetry_cell_setting	triclinic
loop_
_symmetry_equiv_pos_as_xyz
  x,y,z
_cell_length_a	10.6211
_cell_length_b	12.6597
_cell_length_c	25.6894
_cell_angle_alpha	84.7076
_cell_angle_beta	78.0696
_cell_angle_gamma	65.1979
loop_
_atom_site_label
_atom_site_type_symbol
_atom_site_fract_x
_atom_site_fract_y
_atom_site_fract_z
_atom_site_charge
Mof_Zn	Zn	0.24778	0.46292	0.11632	1.2
Mof_Zn	Zn	0.71104	0.75512	0.04302	1.178
Mof_Zn	Zn	0.82702	0.03708	0.38368	1.196
Mof_Zn	Zn	0.50918	0.74488	0.45698	1.183
Mof_Zn	Zn	0.75222	0.53708	0.88368	1.201
Mof_Zn	Zn	0.28896	0.24488	0.95698	1.186
Mof_Zn	Zn	0.17298	0.96292	0.61632	1.205
Mof_Zn	Zn	0.49082	0.25512	0.54302	1.18
Mof_Zn	Zn	0.06303	0.25	0.75	1.237
Mof_Zn	Zn	0.93697	0.75	0.25	1.237
Mof_Zn	Zn	0.5	0	-0	1.227
Mof_Zn	Zn	0.5	0.5	0.5	1.242
Mof_H 	H 	0.5434	0.9249	0.7779	0.079
Mof_H 	H 	0.0561	0.9923	0.0781	0.057
Mof_H 	H 	0.0789	0.8029	0.0935	0.045
Mof_H 	H 	0.8024	0.9407	0.8579	0.117
Mof_H 	H 	0.6632	0.7988	0.8392	-0.013
Mof_H 	H 	0.5897	0.2769	0.8225	0.073
Mof_H 	H 	0.1836	0.0227	0.8865	0.051
Mof_H 	H 	0.2462	0.5751	0.7221	0.074
Mof_H 	H 	0.1265	0.5077	0.4219	0.043
Mof_H 	H 	0.9753	0.6971	0.4065	0.055
Mof_H 	H 	0.601	0.5593	0.6421	0.066
Mof_H 	H 	0.3012	0.7012	0.6608	-0.014
Mof_H 	H 	0.6891	0.2231	0.6775	0.055
Mof_H 	H 	0.0928	0.4773	0.6135	0.075
Mof_H 	H 	0.4566	0.0751	0.2221	0.069
Mof_H 	H 	0.9439	0.0077	0.9219	0.037
Mof_H 	H 	0.9211	0.1971	0.9065	0.053
Mof_H 	H 	0.1976	0.0593	0.1421	0.015
Mof_H 	H 	0.3368	0.2012	0.1608	-0.018
Mof_H 	H 	0.4103	0.7231	0.1775	0.048
Mof_H 	H 	0.8164	0.9773	0.1135	0.108
Mof_H 	H 	0.7538	0.4249	0.2779	0.074
Mof_H 	H 	0.8735	0.4923	0.5781	0.048
Mof_H 	H 	0.0247	0.3029	0.5935	0.047
Mof_H 	H 	0.399	0.4407	0.3579	0.067
Mof_H 	H 	0.6988	0.2988	0.3392	-0.016
Mof_H 	H 	0.3109	0.7769	0.3225	0.066
Mof_H 	H 	0.9072	0.5227	0.3865	0.077
Mof_C 	C 	0.8939	0.99427	0.79073	0.136
Mof_C 	C 	0.99762	0.07511	0.71065	0.371
Mof_C 	C 	0.49746	0.83774	0.90054	-0.198
Mof_C 	C 	0.49596	0.92011	0.81217	-0.093
Mof_C 	C 	0.67744	0.11095	0.84757	-0.009
Mof_C 	C 	0.56445	0.11988	0.89482	0.364
Mof_C 	C 	0.18492	0.08411	0.00345	0.287
Mof_C 	C 	0.2238	0.61619	0.03081	0.279
Mof_C 	C 	0.58632	0.771	0.94036	0.44
Mof_C 	C 	0.11368	0.93536	0.05288	-0.024
Mof_C 	C 	0.35035	0.90239	0.91491	0.077
Mof_C 	C 	0.12494	0.82273	0.06179	-0.014
Mof_C 	C 	0.26988	0.88155	0.96749	0.006
Mof_C 	C 	0.76677	0.19862	0.76904	0.059
Mof_C 	C 	0.20575	0.7397	0.023	-0.104
Mof_C 	C 	0.35246	0.98875	0.82673	-0.005
Mof_C 	C 	0.79336	0.00452	0.83556	-0.177
Mof_C 	C 	0.56727	0.84513	0.84893	0.068
Mof_C 	C 	0.66656	0.20607	0.81421	-0.088
Mof_C 	C 	0.28025	0.97811	0.87759	-0.063
Mof_C 	C 	0.2757	0.07453	0.78747	0.276
Mof_C 	C 	0.27611	0.76862	0.97516	0.051
Mof_C 	C 	0.88196	0.09169	0.75759	-0.203
Mof_C 	C 	0.18706	0.96486	0.00682	-0.077
Mof_C 	C 	0.6789	0.50573	0.70927	0.058
Mof_C 	C 	0.78338	0.42489	0.78935	0.379
Mof_C 	C 	0.23574	0.66226	0.59946	-0.206
Mof_C 	C 	0.22824	0.57989	0.68783	-0.096
Mof_C 	C 	0.63596	0.38905	0.65243	-0.06
Mof_C 	C 	0.57915	0.38012	0.60518	0.384
Mof_C 	C 	0.27248	0.41589	0.49655	0.339
Mof_C 	C 	0.8708	0.88381	0.46919	0.303
Mof_C 	C 	0.29768	0.729	0.55964	0.445
Mof_C 	C 	0.10192	0.56464	0.44712	-0.002
Mof_C 	C 	0.16765	0.59761	0.58509	0.087
Mof_C 	C 	0.00946	0.67727	0.43821	-0.036
Mof_C 	C 	0.11892	0.61845	0.53251	-0.009
Mof_C 	C 	0.73443	0.30138	0.73096	0.018
Mof_C 	C 	0.96845	0.7603	0.477	-0.07
Mof_C 	C 	0.16794	0.51125	0.67327	-0.013
Mof_C 	C 	0.63344	0.49548	0.66444	-0.066
Mof_C 	C 	0.26133	0.65487	0.65107	0.07
Mof_C 	C 	0.68684	0.29393	0.68579	-0.043
Mof_C 	C 	0.13595	0.52189	0.62241	-0.102
Mof_C 	C 	0.1377	0.42547	0.71253	0.291
Mof_C 	C 	0.01989	0.73138	0.52484	0.025
Mof_C 	C 	0.73124	0.40831	0.74241	-0.154
Mof_C 	C 	0.15874	0.53514	0.49318	-0.088
Mof_C 	C 	0.1061	0.00573	0.20927	-0.016
Mof_C 	C 	0.00238	0.92489	0.28935	0.39
Mof_C 	C 	0.50254	0.16226	0.09946	-0.219
Mof_C 	C 	0.50404	0.07989	0.18783	-0.102
Mof_C 	C 	0.32256	0.88905	0.15243	-0.101
Mof_C 	C 	0.43555	0.88012	0.10518	0.4
Mof_C 	C 	0.81508	0.91589	0.99655	0.382
Mof_C 	C 	0.7762	0.38381	0.96919	0.335
Mof_C 	C 	0.41368	0.229	0.05964	0.451
Mof_C 	C 	0.88632	0.06464	0.94712	-0
Mof_C 	C 	0.64965	0.09761	0.08509	0.105
Mof_C 	C 	0.87506	0.17727	0.93821	-0.031
Mof_C 	C 	0.73012	0.11845	0.03251	-0.036
Mof_C 	C 	0.23323	0.80138	0.23096	0.002
Mof_C 	C 	0.79425	0.2603	0.977	-0.056
Mof_C 	C 	0.64754	0.01125	0.17327	-0.018
Mof_C 	C 	0.20664	0.99548	0.16444	0.041
Mof_C 	C 	0.43273	0.15487	0.15107	0.076
Mof_C 	C 	0.33344	0.79393	0.18579	-0.013
Mof_C 	C 	0.71975	0.02189	0.12241	-0.154
Mof_C 	C 	0.7243	0.92547	0.21253	0.307
Mof_C 	C 	0.72389	0.23138	0.02484	0.006
Mof_C 	C 	0.11804	0.90831	0.24241	-0.114
Mof_C 	C 	0.81294	0.03514	0.99318	-0.082
Mof_C 	C 	0.3211	0.49427	0.29073	0.061
Mof_C 	C 	0.21662	0.57511	0.21065	0.383
Mof_C 	C 	0.76426	0.33774	0.40054	-0.21
Mof_C 	C 	0.77176	0.42011	0.31217	-0.098
Mof_C 	C 	0.36404	0.61095	0.34757	-0.051
Mof_C 	C 	0.42085	0.61988	0.39482	0.381
Mof_C 	C 	0.72752	0.58411	0.50345	0.337
Mof_C 	C 	0.1292	0.11619	0.53081	0.308
Mof_C 	C 	0.70232	0.271	0.44036	0.446
Mof_C 	C 	0.89808	0.43536	0.55288	-0.012
Mof_C 	C 	0.83235	0.40239	0.41491	0.089
Mof_C 	C 	0.99054	0.32273	0.56179	-0.02
Mof_C 	C 	0.88108	0.38155	0.46749	-0.013
Mof_C 	C 	0.26557	0.69862	0.26904	0.042
Mof_C 	C 	0.03155	0.2397	0.523	-0.084
Mof_C 	C 	0.83206	0.48875	0.32673	-0.011
Mof_C 	C 	0.36656	0.50452	0.33556	-0.072
Mof_C 	C 	0.73867	0.34513	0.34893	0.073
Mof_C 	C 	0.31316	0.70607	0.31421	-0.059
Mof_C 	C 	0.86405	0.47811	0.37759	-0.104
Mof_C 	C 	0.8623	0.57453	0.28747	0.29
Mof_C 	C 	0.98011	0.26862	0.47516	0.027
Mof_C 	C 	0.26876	0.59169	0.25759	-0.164
Mof_C 	C 	0.84126	0.46486	0.50682	-0.082
Mof_O 	O 	0.1454	0.59448	0.07212	-0.468
Mof_O 	O 	0.56131	0.81829	0.98477	-0.52
Mof_O 	O 	0.0447	0.98114	0.68566	-0.472
Mof_O 	O 	0.15908	0.15783	0.80681	-0.434
Mof_O 	O 	0.04452	0.15247	0.69849	-0.493
Mof_O 	O 	0.45168	0.21159	0.89845	-0.483
Mof_O 	O 	0.58972	0.03454	0.92662	-0.449
Mof_O 	O 	0.08526	0.16895	0.02533	-0.329
Mof_O 	O 	0.32438	0.06332	0.73912	-0.323
Mof_O 	O 	0.3129	0.54112	0.99888	-0.281
Mof_O 	O 	0.68793	0.67524	0.9285	-0.535
Mof_O 	O 	0.30031	0.08857	0.97589	-0.549
Mof_O 	O 	0.812	0.90552	0.42788	-0.46
Mof_O 	O 	0.36437	0.68171	0.51523	-0.538
Mof_O 	O 	0.7115	0.51886	0.81434	-0.485
Mof_O 	O 	0.12372	0.34217	0.69319	-0.435
Mof_O 	O 	0.89548	0.34753	0.80151	-0.491
Mof_O 	O 	0.56172	0.28841	0.60155	-0.493
Mof_O 	O 	0.55088	0.46546	0.57338	-0.451
Mof_O 	O 	0.27954	0.33105	0.47467	-0.332
Mof_O 	O 	0.12682	0.43668	0.76088	-0.319
Mof_O 	O 	0.8529	0.95888	0.50112	-0.299
Mof_O 	O 	0.29167	0.82476	0.5715	-0.537
Mof_O 	O 	0.36477	0.41143	0.52411	-0.576
Mof_O 	O 	0.8546	0.40552	0.92788	-0.472
Mof_O 	O 	0.43869	0.18171	0.01523	-0.557
Mof_O 	O 	0.9553	0.01886	0.31434	-0.503
Mof_O 	O 	0.84092	0.84217	0.19319	-0.435
Mof_O 	O 	0.95548	0.84753	0.30151	-0.489
Mof_O 	O 	0.54832	0.78841	0.10155	-0.495
Mof_O 	O 	0.41028	0.96546	0.07338	-0.445
Mof_O 	O 	0.91474	0.83105	0.97467	-0.327
Mof_O 	O 	0.67562	0.93668	0.26088	-0.313
Mof_O 	O 	0.6871	0.45888	0.00112	-0.342
Mof_O 	O 	0.31207	0.32476	0.0715	-0.55
Mof_O 	O 	0.69969	0.91143	0.02411	-0.593
Mof_O 	O 	0.188	0.09448	0.57212	-0.478
Mof_O 	O 	0.63563	0.31829	0.48477	-0.542
Mof_O 	O 	0.2885	0.48114	0.18566	-0.488
Mof_O 	O 	0.87628	0.65783	0.30681	-0.433
Mof_O 	O 	0.10452	0.65247	0.19849	-0.493
Mof_O 	O 	0.43828	0.71159	0.39845	-0.486
Mof_O 	O 	0.44912	0.53454	0.42662	-0.45
Mof_O 	O 	0.72046	0.66895	0.52533	-0.327
Mof_O 	O 	0.87318	0.56332	0.23912	-0.318
Mof_O 	O 	0.1471	0.04112	0.49888	-0.322
Mof_O 	O 	0.70833	0.17524	0.4285	-0.548
Mof_O 	O 	0.63523	0.58857	0.47589	-0.575
_end
