# CIF file generated by openbabel 3.1.0, see https://openbabel.org
data_I
_chemical_name_common 'MOCJIY_clean'
_cell_length_a 6.4075
_cell_length_b 6.805
_cell_length_c 7.6647
_cell_angle_alpha 111.753
_cell_angle_beta 95.858
_cell_angle_gamma 91.204
_space_group_name_H-M_alt 'P 1'
_space_group_name_Hall 'P 1'
loop_
    _symmetry_equiv_pos_as_xyz
    x,y,z
loop_
    _atom_site_label
    _atom_site_type_symbol
    _atom_site_fract_x
    _atom_site_fract_y
    _atom_site_fract_z
    _atom_site_occupancy
    Yb1      Yb       0.87751    0.78147    0.06862    1.000
    Yb2      Yb       0.12249    0.21853    0.93138    1.000
    P1       P        0.33110    0.74740    0.97930    1.000
    P2       P        0.66890    0.25260    0.02070    1.000
    H1       H        0.36220    0.72040    0.79780    1.000
    H2       H        0.63780    0.27960    0.20220    1.000
    C1       C        0.05710    0.90180    0.50050    1.000
    C2       C        0.94290    0.09820    0.49950    1.000
    O1       O        0.19690    0.94210    0.03530    1.000
    O2       O        0.53600    0.78000    0.10680    1.000
    O3       O        0.18160    0.56780    0.97570    1.000
    O4       O        0.04940    0.75430    0.34510    1.000
    O5       O        0.85450    0.08840    0.34470    1.000
    O6       O        0.80310    0.05790    0.96470    1.000
    O7       O        0.46400    0.22000    0.89320    1.000
    O8       O        0.81840    0.43220    0.02430    1.000
    O9       O        0.95060    0.24570    0.65490    1.000
    O10      O        0.14550    0.91160    0.65530    1.000
