data_functionalizedCrystal
_audit_creation_method	'EQeq! by Chris Wilmer'
_symmetry_space_group_name_H-M	'P1'
_symmetry_Int_Tables_number	1
_symmetry_cell_setting	triclinic
loop_
_symmetry_equiv_pos_as_xyz
  x,y,z
_cell_length_a	21.04
_cell_length_b	21.04
_cell_length_c	24.999
_cell_angle_alpha	65.1137
_cell_angle_beta	65.1137
_cell_angle_gamma	89.9999
loop_
_atom_site_label
_atom_site_type_symbol
_atom_site_fract_x
_atom_site_fract_y
_atom_site_fract_z
_atom_site_charge
Mof_Hf	Hf	0.56122	0.56122	0.87756	1.39
Mof_Hf	Hf	0.43878	0.43878	0.12244	1.39
Mof_Hf	Hf	0.617	0.49954	-0	1.045
Mof_Hf	Hf	0.383	0.50046	-0	1.043
Mof_Hf	Hf	0.49954	0.383	-0	1.043
Mof_Hf	Hf	0.50046	0.617	-0	1.045
Mof_H 	H 	0.1406	0.6651	0.511	0.067
Mof_H 	H 	0.0183	0.629	0.5866	0.029
Mof_H 	H 	0.0497	0.7393	0.676	0.034
Mof_H 	H 	0.172	0.7754	0.6004	0.07
Mof_H 	H 	0.9042	0.6871	0.6286	0.084
Mof_H 	H 	0.7821	0.6463	0.7102	0.026
Mof_H 	H 	0.8445	0.5717	0.8532	0.031
Mof_H 	H 	0.965	0.6134	0.77	0.09
Mof_H 	H 	0.3484	0.8239	0.511	0.066
Mof_H 	H 	0.3951	0.7844	0.5866	0.036
Mof_H 	H 	0.2743	0.5847	0.676	0.039
Mof_H 	H 	0.2276	0.6242	0.6004	0.067
Mof_H 	H 	0.4672	0.6843	0.6286	0.077
Mof_H 	H 	0.5077	0.6435	0.7102	0.028
Mof_H 	H 	0.3023	0.5751	0.8532	0.032
Mof_H 	H 	0.265	0.6166	0.77	0.082
Mof_H 	H 	0.6651	0.3484	0.511	0.065
Mof_H 	H 	0.629	0.3951	0.5866	0.035
Mof_H 	H 	0.7393	0.2743	0.676	0.04
Mof_H 	H 	0.7754	0.2276	0.6004	0.067
Mof_H 	H 	0.6871	0.4672	0.6286	0.077
Mof_H 	H 	0.6463	0.5077	0.7102	0.028
Mof_H 	H 	0.5717	0.3023	0.8532	0.032
Mof_H 	H 	0.6134	0.265	0.77	0.082
Mof_H 	H 	0.8239	0.1406	0.511	0.068
Mof_H 	H 	0.7844	0.0183	0.5866	0.029
Mof_H 	H 	0.5847	0.0497	0.676	0.033
Mof_H 	H 	0.6242	0.172	0.6004	0.069
Mof_H 	H 	0.6843	0.9042	0.6286	0.084
Mof_H 	H 	0.6435	0.7821	0.7102	0.026
Mof_H 	H 	0.5751	0.8445	0.8532	0.031
Mof_H 	H 	0.6166	0.965	0.77	0.09
Mof_H 	H 	0.8594	0.3349	0.489	0.065
Mof_H 	H 	0.9817	0.371	0.4134	0.038
Mof_H 	H 	0.9503	0.2607	0.324	0.034
Mof_H 	H 	0.828	0.2246	0.3996	0.061
Mof_H 	H 	0.0958	0.3129	0.3714	0.074
Mof_H 	H 	0.2179	0.3537	0.2898	0.026
Mof_H 	H 	0.1555	0.4283	0.1468	0.003
Mof_H 	H 	0.035	0.3866	0.23	0.064
Mof_H 	H 	0.6516	0.1761	0.489	0.066
Mof_H 	H 	0.6049	0.2156	0.4134	0.031
Mof_H 	H 	0.7257	0.4153	0.324	0.029
Mof_H 	H 	0.7724	0.3758	0.3996	0.064
Mof_H 	H 	0.5328	0.3157	0.3714	0.081
Mof_H 	H 	0.4923	0.3565	0.2898	0.023
Mof_H 	H 	0.6977	0.4249	0.1468	0.002
Mof_H 	H 	0.735	0.3834	0.23	0.071
Mof_H 	H 	0.3349	0.6516	0.489	0.066
Mof_H 	H 	0.371	0.6049	0.4134	0.032
Mof_H 	H 	0.2607	0.7257	0.324	0.028
Mof_H 	H 	0.2246	0.7724	0.3996	0.064
Mof_H 	H 	0.3129	0.5328	0.3714	0.081
Mof_H 	H 	0.3537	0.4923	0.2898	0.023
Mof_H 	H 	0.4283	0.6977	0.1468	0.002
Mof_H 	H 	0.3866	0.735	0.23	0.071
Mof_H 	H 	0.1761	0.8594	0.489	0.064
Mof_H 	H 	0.2156	0.9817	0.4134	0.038
Mof_H 	H 	0.4153	0.9503	0.324	0.034
Mof_H 	H 	0.3758	0.828	0.3996	0.062
Mof_H 	H 	0.3157	0.0958	0.3714	0.074
Mof_H 	H 	0.3565	0.2179	0.2898	0.026
Mof_H 	H 	0.4249	0.1555	0.1468	0.003
Mof_H 	H 	0.3834	0.035	0.23	0.063
Mof_C 	C 	0.16788	0.7237	0.54852	0.068
Mof_C 	C 	0.0224	0.6808	0.6384	-0.05
Mof_C 	C 	0.12218	0.68028	0.54444	-0.105
Mof_C 	C 	0.04952	0.65872	0.58936	-0.003
Mof_C 	C 	0.06815	0.72425	0.6425	-0.005
Mof_C 	C 	0.14082	0.74572	0.59756	-0.103
Mof_C 	C 	0.944	0.65393	0.692	0.11
Mof_C 	C 	0.8922	0.6636	0.6744	-0.149
Mof_C 	C 	0.819	0.6392	0.7232	0.071
Mof_C 	C 	0.8026	0.6055	0.7886	-0.132
Mof_C 	C 	0.8559	0.5952	0.8074	0.07
Mof_C 	C 	0.9275	0.6201	0.7578	-0.143
Mof_C 	C 	0.7246	0.5773	0.8424	0.397
Mof_C 	C 	0.2836	0.72778	0.54852	0.064
Mof_C 	C 	0.3392	0.6808	0.6384	-0.031
Mof_C 	C 	0.33338	0.77528	0.54444	-0.097
Mof_C 	C 	0.36112	0.75192	0.58936	-0.013
Mof_C 	C 	0.28935	0.63325	0.6425	-0.015
Mof_C 	C 	0.26162	0.65672	0.59756	-0.096
Mof_C 	C 	0.364	0.65407	0.692	0.089
Mof_C 	C 	0.4334	0.662	0.6744	-0.137
Mof_C 	C 	0.4578	0.6376	0.7232	0.061
Mof_C 	C 	0.4088	0.6059	0.7886	-0.127
Mof_C 	C 	0.3367	0.5974	0.8074	0.06
Mof_C 	C 	0.3147	0.6221	0.7578	-0.132
Mof_C 	C 	0.433	0.5803	0.8424	0.394
Mof_C 	C 	0.7237	0.2836	0.54852	0.064
Mof_C 	C 	0.6808	0.3392	0.6384	-0.031
Mof_C 	C 	0.68028	0.33338	0.54444	-0.098
Mof_C 	C 	0.65872	0.36112	0.58936	-0.014
Mof_C 	C 	0.72425	0.28935	0.6425	-0.015
Mof_C 	C 	0.74572	0.26162	0.59756	-0.095
Mof_C 	C 	0.65393	0.364	0.692	0.089
Mof_C 	C 	0.6636	0.4334	0.6744	-0.137
Mof_C 	C 	0.6392	0.4578	0.7232	0.061
Mof_C 	C 	0.6055	0.4088	0.7886	-0.127
Mof_C 	C 	0.5952	0.3367	0.8074	0.06
Mof_C 	C 	0.6201	0.3147	0.7578	-0.132
Mof_C 	C 	0.5773	0.433	0.8424	0.394
Mof_C 	C 	0.72778	0.16788	0.54852	0.068
Mof_C 	C 	0.6808	0.0224	0.6384	-0.05
Mof_C 	C 	0.77528	0.12218	0.54444	-0.105
Mof_C 	C 	0.75192	0.04952	0.58936	-0.003
Mof_C 	C 	0.63325	0.06815	0.6425	-0.005
Mof_C 	C 	0.65672	0.14082	0.59756	-0.103
Mof_C 	C 	0.65407	0.944	0.692	0.11
Mof_C 	C 	0.662	0.8922	0.6744	-0.149
Mof_C 	C 	0.6376	0.819	0.7232	0.071
Mof_C 	C 	0.6059	0.8026	0.7886	-0.132
Mof_C 	C 	0.5974	0.8559	0.8074	0.07
Mof_C 	C 	0.6221	0.9275	0.7578	-0.143
Mof_C 	C 	0.5803	0.7246	0.8424	0.397
Mof_C 	C 	0.83212	0.2763	0.45148	0.061
Mof_C 	C 	0.9776	0.3192	0.3616	-0.022
Mof_C 	C 	0.87782	0.31972	0.45556	-0.094
Mof_C 	C 	0.95048	0.34128	0.41064	-0.02
Mof_C 	C 	0.93185	0.27575	0.3575	-0.022
Mof_C 	C 	0.85918	0.25428	0.40244	-0.094
Mof_C 	C 	0.056	0.34607	0.308	0.074
Mof_C 	C 	0.1078	0.3364	0.3256	-0.137
Mof_C 	C 	0.181	0.3608	0.2768	0.061
Mof_C 	C 	0.1974	0.3945	0.2114	-0.143
Mof_C 	C 	0.1441	0.4048	0.1926	0.057
Mof_C 	C 	0.0725	0.3799	0.2422	-0.138
Mof_C 	C 	0.2754	0.4227	0.1576	0.401
Mof_C 	C 	0.7164	0.27222	0.45148	0.065
Mof_C 	C 	0.6608	0.3192	0.3616	-0.04
Mof_C 	C 	0.66662	0.22472	0.45556	-0.102
Mof_C 	C 	0.63888	0.24808	0.41064	-0.011
Mof_C 	C 	0.71065	0.36675	0.3575	-0.012
Mof_C 	C 	0.73838	0.34328	0.40244	-0.101
Mof_C 	C 	0.636	0.34593	0.308	0.094
Mof_C 	C 	0.5666	0.338	0.3256	-0.149
Mof_C 	C 	0.5422	0.3624	0.2768	0.07
Mof_C 	C 	0.5912	0.3941	0.2114	-0.148
Mof_C 	C 	0.6633	0.4026	0.1926	0.066
Mof_C 	C 	0.6853	0.3779	0.2422	-0.149
Mof_C 	C 	0.567	0.4197	0.1576	0.403
Mof_C 	C 	0.2763	0.7164	0.45148	0.065
Mof_C 	C 	0.3192	0.6608	0.3616	-0.04
Mof_C 	C 	0.31972	0.66662	0.45556	-0.101
Mof_C 	C 	0.34128	0.63888	0.41064	-0.011
Mof_C 	C 	0.27575	0.71065	0.3575	-0.012
Mof_C 	C 	0.25428	0.73838	0.40244	-0.101
Mof_C 	C 	0.34607	0.636	0.308	0.094
Mof_C 	C 	0.3364	0.5666	0.3256	-0.149
Mof_C 	C 	0.3608	0.5422	0.2768	0.07
Mof_C 	C 	0.3945	0.5912	0.2114	-0.148
Mof_C 	C 	0.4048	0.6633	0.1926	0.066
Mof_C 	C 	0.3799	0.6853	0.2422	-0.149
Mof_C 	C 	0.4227	0.567	0.1576	0.403
Mof_C 	C 	0.27222	0.83212	0.45148	0.061
Mof_C 	C 	0.3192	0.9776	0.3616	-0.022
Mof_C 	C 	0.22472	0.87782	0.45556	-0.094
Mof_C 	C 	0.24808	0.95048	0.41064	-0.02
Mof_C 	C 	0.36675	0.93185	0.3575	-0.021
Mof_C 	C 	0.34328	0.85918	0.40244	-0.094
Mof_C 	C 	0.34593	0.056	0.308	0.074
Mof_C 	C 	0.338	0.1078	0.3256	-0.137
Mof_C 	C 	0.3624	0.181	0.2768	0.061
Mof_C 	C 	0.3941	0.1974	0.2114	-0.143
Mof_C 	C 	0.4026	0.1441	0.1926	0.057
Mof_C 	C 	0.3779	0.0725	0.2422	-0.138
Mof_C 	C 	0.4197	0.2754	0.1576	0.401
Mof_C 	C 	0.25	0.75	0.5	-0.086
Mof_C 	C 	0.75	0.25	0.5	-0.086
Mof_O 	O 	0.67727	0.58847	0.82226	-0.378
Mof_O 	O 	0.7148	0.5482	0.9014	-0.36
Mof_O 	O 	0.58869	0.47039	0.94162	-0.445
Mof_O 	O 	0.50047	0.58927	0.82226	-0.378
Mof_O 	O 	0.3838	0.5504	0.9014	-0.361
Mof_O 	O 	0.46969	0.58799	0.94162	-0.445
Mof_O 	O 	0.58847	0.50047	0.82226	-0.378
Mof_O 	O 	0.5482	0.3838	0.9014	-0.361
Mof_O 	O 	0.47039	0.46969	0.94162	-0.445
Mof_O 	O 	0.58927	0.67727	0.82226	-0.378
Mof_O 	O 	0.5504	0.7148	0.9014	-0.36
Mof_O 	O 	0.58799	0.58869	0.94162	-0.445
Mof_O 	O 	0.32273	0.41153	0.17774	-0.383
Mof_O 	O 	0.2852	0.4518	0.0986	-0.413
Mof_O 	O 	0.41131	0.52961	0.05838	-0.519
Mof_O 	O 	0.49953	0.41073	0.17774	-0.383
Mof_O 	O 	0.6162	0.4496	0.0986	-0.413
Mof_O 	O 	0.53031	0.41201	0.05838	-0.519
Mof_O 	O 	0.41153	0.49953	0.17774	-0.383
Mof_O 	O 	0.4518	0.6162	0.0986	-0.413
Mof_O 	O 	0.52961	0.53031	0.05838	-0.519
Mof_O 	O 	0.41073	0.32273	0.17774	-0.383
Mof_O 	O 	0.4496	0.2852	0.0986	-0.413
Mof_O 	O 	0.41201	0.41131	0.05838	-0.519
_end
