# CIF file generated by openbabel 3.1.0, see https://openbabel.org
data_I
_chemical_name_common 'FOQSUA_charged'
_cell_length_a 7.2158
_cell_length_b 9.8974
_cell_length_c 10.8116
_cell_angle_alpha 112.95
_cell_angle_beta 103.929
_cell_angle_gamma 101.721
_space_group_name_H-M_alt 'P 1'
_space_group_name_Hall 'P 1'
loop_
    _symmetry_equiv_pos_as_xyz
    x,y,z
loop_
    _atom_site_label
    _atom_site_type_symbol
    _atom_site_fract_x
    _atom_site_fract_y
    _atom_site_fract_z
    _atom_site_occupancy
    Cu1      Cu       0.22831    0.97831    0.95662    1.000
    Cu2      Cu       0.77169    0.02169    0.04338    1.000
    H1       H        0.96870    0.66470    0.66540    1.000
    H2       H        0.51000    0.67260    0.79980    1.000
    H3       H        0.47270    0.40640    0.57020    1.000
    H4       H        0.64590    0.42320    0.50500    1.000
    H5       H        0.19670    0.00070    0.66540    1.000
    H6       H        0.78980    0.12720    0.79980    1.000
    H7       H        0.59750    0.16380    0.57020    1.000
    H8       H        0.35910    0.08180    0.50500    1.000
    H9       H        0.03130    0.33530    0.33460    1.000
    H10      H        0.49000    0.32740    0.20020    1.000
    H11      H        0.52730    0.59360    0.42980    1.000
    H12      H        0.35410    0.57680    0.49500    1.000
    H13      H        0.80330    0.99930    0.33460    1.000
    H14      H        0.21020    0.87280    0.20020    1.000
    H15      H        0.40250    0.83620    0.42980    1.000
    H16      H        0.64090    0.91820    0.49500    1.000
    C1       C        0.88902    0.69472    0.72144    1.000
    C2       C        0.63964    0.69944    0.79488    1.000
    C3       C        0.56231    0.47741    0.55022    1.000
    C4       C        0.33242    0.02672    0.72144    1.000
    C5       C        0.65524    0.09544    0.79488    1.000
    C6       C        0.48791    0.07281    0.55022    1.000
    C7       C        0.11098    0.30528    0.27856    1.000
    C8       C        0.36036    0.30056    0.20512    1.000
    C9       C        0.43769    0.52259    0.44978    1.000
    C10      C        0.66758    0.97328    0.27856    1.000
    C11      C        0.34476    0.90456    0.20512    1.000
    C12      C        0.51209    0.92719    0.44978    1.000
    N1       N        0.95296    0.81856    0.84540    1.000
    N2       N        0.79153    0.82173    0.89274    1.000
    N3       N        0.69292    0.61612    0.68524    1.000
    N4       N        0.39244    0.02684    0.84540    1.000
    N5       N        0.60121    0.07101    0.89274    1.000
    N6       N        0.49232    0.06912    0.68524    1.000
    N7       N        0.04704    0.18144    0.15460    1.000
    N8       N        0.20847    0.17827    0.10726    1.000
    N9       N        0.30708    0.38388    0.31476    1.000
    N10      N        0.60756    0.97316    0.15460    1.000
    N11      N        0.39879    0.92899    0.10726    1.000
    N12      N        0.50768    0.93088    0.31476    1.000
    Cl1      Cl       0.06968    0.31968    0.63936    1.000
    O1       O        0.89110    0.31860    0.53100    1.000
    O2       O        0.00690    0.27690    0.72140    1.000
    O3       O        0.13990    0.21240    0.53100    1.000
    O4       O        0.21450    0.44450    0.72140    1.000
    Cl2      Cl       0.93032    0.68032    0.36064    1.000
    O5       O        0.10890    0.68140    0.46900    1.000
    O6       O        0.99310    0.72310    0.27860    1.000
    O7       O        0.86010    0.78760    0.46900    1.000
    O8       O        0.78550    0.55550    0.27860    1.000
