# CIF file generated by openbabel 3.1.0, see https://openbabel.org
data_I
_chemical_name_common 'image0'
_cell_length_a 7.7782
_cell_length_b 9.9174
_cell_length_c 12.7946
_cell_angle_alpha 99.559
_cell_angle_beta 94.03
_cell_angle_gamma 94.803
_space_group_name_H-M_alt 'P 1'
_space_group_name_Hall 'P 1'
loop_
    _symmetry_equiv_pos_as_xyz
    x,y,z
loop_
    _atom_site_label
    _atom_site_type_symbol
    _atom_site_fract_x
    _atom_site_fract_y
    _atom_site_fract_z
    _atom_site_occupancy
    Zn1      Zn       0.06072    0.61808    0.13647    1.000
    Zn2      Zn       0.45431    0.14424    0.12316    1.000
    Zn3      Zn       0.77007    0.56377    0.50060    1.000
    P1       P        0.07832    0.66381    0.39125    1.000
    H1       H        0.22200    0.74800    0.43700    1.000
    P2       P        0.23942    0.36886    0.04032    1.000
    H2       H        0.38800    0.45200    0.05500    1.000
    P3       P        0.51433    0.35205    0.34672    1.000
    H3       H        0.43200    0.43800    0.29600    1.000
    P4       P        0.25925    0.85431    0.04232    1.000
    H4       H        0.10100    0.90300    0.03100    1.000
    O1       O        0.04750    0.70200    0.28313    1.000
    O2       O        0.93010    0.70400    0.45815    1.000
    O3       O        0.11420    0.51620    0.38796    1.000
    O4       O        0.16610    0.37070    0.92879    1.000
    O5       O        0.27220    0.22570    0.05690    1.000
    O6       O        0.12570    0.43220    0.12434    1.000
    O7       O        0.69720    0.42050    0.38008    1.000
    O8       O        0.41430    0.33620    0.44164    1.000
    O9       O        0.52070    0.21770    0.27292    1.000
    O10      O        0.23970    0.71660    0.07480    1.000
    O11      O        0.37120    0.95720    0.12413    1.000
    O12      O        0.31940    0.84690    0.93162    1.000
    Zn4      Zn       0.93928    0.38192    0.86353    1.000
    Zn5      Zn       0.54569    0.85576    0.87684    1.000
    Zn6      Zn       0.22993    0.43623    0.49940    1.000
    P5       P        0.92168    0.33619    0.60875    1.000
    H5       H        0.77800    0.25200    0.56300    1.000
    P6       P        0.76058    0.63114    0.95968    1.000
    H6       H        0.61200    0.54800    0.94500    1.000
    P7       P        0.48567    0.64795    0.65328    1.000
    H7       H        0.56800    0.56200    0.70400    1.000
    P8       P        0.74075    0.14569    0.95768    1.000
    H8       H        0.89900    0.09700    0.96900    1.000
    O13      O        0.95250    0.29800    0.71687    1.000
    O14      O        0.06990    0.29600    0.54185    1.000
    O15      O        0.88580    0.48380    0.61204    1.000
    O16      O        0.83390    0.62930    0.07121    1.000
    O17      O        0.72780    0.77430    0.94310    1.000
    O18      O        0.87430    0.56780    0.87566    1.000
    O19      O        0.30280    0.57950    0.61992    1.000
    O20      O        0.58570    0.66380    0.55836    1.000
    O21      O        0.47930    0.78230    0.72708    1.000
    O22      O        0.76030    0.28340    0.92520    1.000
    O23      O        0.62880    0.04280    0.87587    1.000
    O24      O        0.68060    0.15310    0.06838    1.000
