data_functionalizedCrystal
_audit_creation_method	'EQeq! by Chris Wilmer'
_symmetry_space_group_name_H-M	'P1'
_symmetry_Int_Tables_number	1
_symmetry_cell_setting	triclinic
loop_
_symmetry_equiv_pos_as_xyz
  x,y,z
_cell_length_a	10.2268
_cell_length_b	23.7126
_cell_length_c	17.4281
_cell_angle_alpha	90
_cell_angle_beta	105.803
_cell_angle_gamma	90
loop_
_atom_site_label
_atom_site_type_symbol
_atom_site_fract_x
_atom_site_fract_y
_atom_site_fract_z
_atom_site_charge
Mof_Cd	Cd	0.11373	0.87778	0.17278	0.462
Mof_C 	C 	0.1136	0.1145	0.2589	-0.091
Mof_C 	C 	0.9966	0.0531	0.1087	0.059
Mof_C 	C 	0.9922	0.9972	0.0968	0.066
Mof_C 	C 	0.1204	0.0103	0.2192	0.114
Mof_C 	C 	0.0098	0.1488	0.2297	-0.301
Mof_C 	C 	0.9304	0.1851	0.1943	0.247
Mof_C 	C 	0.8086	0.2709	0.1908	0.151
Mof_C 	C 	0.6715	0.1955	0.1727	0.013
Mof_C 	C 	0.5931	0.242	0.1691	0.049
Mof_C 	C 	0.5099	0.96099	0.8785	0.301
Mof_C 	C 	0.5282	0.93119	0.9563	-0.08
Mof_C 	C 	0.4219	0.92628	0.9923	0.027
Mof_H 	H 	0.3347	0.9376	0.9647	0.05
Mof_C 	C 	0.4457	0.90474	0.0686	-0.085
Mof_C 	C 	0.3318	0.90016	0.1071	0.304
Mof_C 	C 	0.5749	0.88707	0.11	0.025
Mof_H 	H 	0.591	0.8735	0.1618	0.045
Mof_C 	C 	0.6808	0.88962	0.0737	-0.075
Mof_C 	C 	0.6564	0.91197	0.9977	0.022
Mof_H 	H 	0.7272	0.9141	0.9738	0.058
Mof_C 	C 	0.8238	0.873	0.1187	0.301
Mof_N 	N 	0.0769	0.0639	0.2044	-0.103
Mof_N 	N 	0.0771	0.9733	0.1779	0.018
Mof_N 	N 	0.6695	0.2909	0.1863	-0.047
Mof_N 	N 	0.8061	0.2156	0.1948	-0.118
Mof_O 	O 	0.6119	0.96631	0.85206	-0.263
Mof_O 	O 	0.3966	0.98077	0.84226	-0.265
Mof_O 	O 	0.2153	0.88998	0.06463	-0.256
Mof_O 	O 	0.359	0.90439	0.18291	-0.291
Mof_O 	O 	0.9077	0.86452	0.0792	-0.261
Mof_O 	O 	0.847	0.8607	0.1923	-0.254
Mof_C 	C 	0.3751	0.3888	0.7858	0.175
Mof_C 	C 	0.5388	0.3122	0.846	-0.078
Mof_C 	C 	0.796	0.2989	0.892	0.062
Mof_C 	C 	0.8777	0.257	0.8852	0.017
Mof_N 	N 	0.4192	0.4403	0.8312	-0.076
Mof_N 	N 	0.4352	0.532	0.8459	-0.157
Mof_N 	N 	0.8075	0.2151	0.8382	-0.109
Mof_N 	N 	0.6671	0.2816	0.8493	-0.09
Mof_O 	O 	0.136	0.1192	0.8076	-0.027
Mof_Cd	Cd	0.61373	0.37778	0.17278	0.462
Mof_C 	C 	0.6136	0.6145	0.2589	-0.078
Mof_C 	C 	0.4966	0.5531	0.1087	0.061
Mof_C 	C 	0.4922	0.4972	0.0968	0.068
Mof_C 	C 	0.6204	0.5103	0.2192	0.114
Mof_C 	C 	0.5098	0.6488	0.2297	-0.043
Mof_C 	C 	0.4304	0.6851	0.1943	0.175
Mof_C 	C 	0.3086	0.7709	0.1908	0.149
Mof_C 	C 	0.1715	0.6955	0.1727	0.013
Mof_C 	C 	0.0931	0.742	0.1691	0.049
Mof_C 	C 	0.0099	0.46099	0.8785	0.302
Mof_C 	C 	0.0282	0.43119	0.9563	-0.079
Mof_C 	C 	0.9219	0.42628	0.9923	0.026
Mof_H 	H 	0.8347	0.4376	0.9647	0.051
Mof_C 	C 	0.9457	0.40474	0.0686	-0.086
Mof_C 	C 	0.8318	0.40016	0.1071	0.304
Mof_C 	C 	0.0749	0.38707	0.11	0.026
Mof_H 	H 	0.091	0.3735	0.1618	0.045
Mof_C 	C 	0.1808	0.38962	0.0737	-0.074
Mof_C 	C 	0.1564	0.41197	0.9977	0.021
Mof_H 	H 	0.2272	0.4141	0.9738	0.058
Mof_C 	C 	0.3238	0.373	0.1187	0.301
Mof_N 	N 	0.5769	0.5639	0.2044	-0.086
Mof_N 	N 	0.5771	0.4733	0.1779	0.013
Mof_N 	N 	0.1695	0.7909	0.1863	-0.046
Mof_N 	N 	0.3061	0.7156	0.1948	-0.109
Mof_O 	O 	0.1119	0.46631	0.85206	-0.265
Mof_O 	O 	0.8966	0.48077	0.84226	-0.265
Mof_O 	O 	0.7153	0.38998	0.06463	-0.256
Mof_O 	O 	0.859	0.40439	0.18291	-0.291
Mof_O 	O 	0.4077	0.36452	0.0792	-0.26
Mof_O 	O 	0.347	0.3607	0.1923	-0.254
Mof_C 	C 	0.8751	0.8888	0.7858	0.111
Mof_C 	C 	0.0388	0.8122	0.846	-0.076
Mof_C 	C 	0.296	0.7989	0.892	0.059
Mof_C 	C 	0.3777	0.757	0.8852	0.018
Mof_N 	N 	0.9192	0.9403	0.8312	-0.081
Mof_N 	N 	0.9352	0.032	0.8459	-0.155
Mof_N 	N 	0.3075	0.7151	0.8382	-0.109
Mof_N 	N 	0.1671	0.7816	0.8493	-0.08
Mof_O 	O 	0.636	0.6192	0.8076	-0.028
Mof_Cd	Cd	0.88627	0.87778	0.32722	0.461
Mof_C 	C 	0.8864	0.1145	0.2411	-0.066
Mof_C 	C 	0.0034	0.0531	0.3913	0.063
Mof_C 	C 	0.0078	0.9972	0.4032	0.069
Mof_C 	C 	0.8796	0.0103	0.2808	0.113
Mof_C 	C 	0.9902	0.1488	0.2703	0.217
Mof_C 	C 	0.0696	0.1851	0.3057	0.103
Mof_C 	C 	0.1914	0.2709	0.3092	0.147
Mof_C 	C 	0.3285	0.1955	0.3273	0.013
Mof_C 	C 	0.4069	0.242	0.3309	0.047
Mof_C 	C 	0.4901	0.96099	0.6215	0.301
Mof_C 	C 	0.4718	0.93119	0.5437	-0.079
Mof_C 	C 	0.5781	0.92628	0.5077	0.026
Mof_H 	H 	0.6653	0.9376	0.5353	0.051
Mof_C 	C 	0.5543	0.90474	0.4314	-0.084
Mof_C 	C 	0.6682	0.90016	0.3929	0.304
Mof_C 	C 	0.4251	0.88707	0.39	0.024
Mof_H 	H 	0.409	0.8735	0.3382	0.046
Mof_C 	C 	0.3192	0.88962	0.4263	-0.074
Mof_C 	C 	0.3436	0.91197	0.5023	0.021
Mof_H 	H 	0.2728	0.9141	0.5262	0.058
Mof_C 	C 	0.1762	0.873	0.3813	0.3
Mof_N 	N 	0.9231	0.0639	0.2956	-0.068
Mof_N 	N 	0.9229	0.9733	0.3221	0.01
Mof_N 	N 	0.3305	0.2909	0.3137	-0.046
Mof_N 	N 	0.1939	0.2156	0.3052	-0.1
Mof_O 	O 	0.3881	0.96631	0.64794	-0.265
Mof_O 	O 	0.6034	0.98077	0.65774	-0.264
Mof_O 	O 	0.7847	0.88998	0.43537	-0.256
Mof_O 	O 	0.641	0.90439	0.31709	-0.29
Mof_O 	O 	0.0923	0.86452	0.4208	-0.259
Mof_O 	O 	0.153	0.8607	0.3077	-0.252
Mof_C 	C 	0.6249	0.3888	0.7142	0.175
Mof_C 	C 	0.4612	0.3122	0.654	-0.078
Mof_C 	C 	0.204	0.2989	0.608	0.062
Mof_C 	C 	0.1223	0.257	0.6148	0.017
Mof_N 	N 	0.5808	0.4403	0.6688	-0.076
Mof_N 	N 	0.5648	0.532	0.6541	-0.157
Mof_N 	N 	0.1925	0.2151	0.6618	-0.109
Mof_N 	N 	0.3329	0.2816	0.6507	-0.09
Mof_O 	O 	0.864	0.1192	0.6924	-0.027
Mof_Cd	Cd	0.38627	0.37778	0.32722	0.462
Mof_C 	C 	0.3864	0.6145	0.2411	-0.078
Mof_C 	C 	0.5034	0.5531	0.3913	0.061
Mof_C 	C 	0.5078	0.4972	0.4032	0.068
Mof_C 	C 	0.3796	0.5103	0.2808	0.114
Mof_C 	C 	0.4902	0.6488	0.2703	-0.042
Mof_C 	C 	0.5696	0.6851	0.3057	0.175
Mof_C 	C 	0.6914	0.7709	0.3092	0.149
Mof_C 	C 	0.8285	0.6955	0.3273	0.013
Mof_C 	C 	0.9069	0.742	0.3309	0.047
Mof_C 	C 	0.9901	0.46099	0.6215	0.301
Mof_C 	C 	0.9718	0.43119	0.5437	-0.08
Mof_C 	C 	0.0781	0.42628	0.5077	0.027
Mof_H 	H 	0.1653	0.4376	0.5353	0.05
Mof_C 	C 	0.0543	0.40474	0.4314	-0.083
Mof_C 	C 	0.1682	0.40016	0.3929	0.304
Mof_C 	C 	0.9251	0.38707	0.39	0.023
Mof_H 	H 	0.909	0.3735	0.3382	0.046
Mof_C 	C 	0.8192	0.38962	0.4263	-0.074
Mof_C 	C 	0.8436	0.41197	0.5023	0.021
Mof_H 	H 	0.7728	0.4141	0.5262	0.058
Mof_C 	C 	0.6762	0.373	0.3813	0.3
Mof_N 	N 	0.4231	0.5639	0.2956	-0.086
Mof_N 	N 	0.4229	0.4733	0.3221	0.013
Mof_N 	N 	0.8305	0.7909	0.3137	-0.047
Mof_N 	N 	0.6939	0.7156	0.3052	-0.109
Mof_O 	O 	0.8881	0.46631	0.64794	-0.265
Mof_O 	O 	0.1034	0.48077	0.65774	-0.264
Mof_O 	O 	0.2847	0.38998	0.43537	-0.256
Mof_O 	O 	0.141	0.40439	0.31709	-0.29
Mof_O 	O 	0.5923	0.36452	0.4208	-0.26
Mof_O 	O 	0.653	0.3607	0.3077	-0.252
Mof_C 	C 	0.1249	0.8888	0.7142	0.239
Mof_C 	C 	0.9612	0.8122	0.654	-0.079
Mof_C 	C 	0.704	0.7989	0.608	0.065
Mof_C 	C 	0.6223	0.757	0.6148	0.016
Mof_N 	N 	0.0808	0.9403	0.6688	-0.07
Mof_N 	N 	0.0648	0.032	0.6541	-0.161
Mof_N 	N 	0.6925	0.7151	0.6618	-0.109
Mof_N 	N 	0.8329	0.7816	0.6507	-0.1
Mof_O 	O 	0.364	0.6192	0.6924	-0.026
Mof_Cd	Cd	0.88627	0.12222	0.82722	0.461
Mof_C 	C 	0.8864	0.8855	0.7411	-0.068
Mof_C 	C 	0.0034	0.9469	0.8913	0.063
Mof_C 	C 	0.0078	0.0028	0.9032	0.068
Mof_C 	C 	0.8796	0.9897	0.7808	0.113
Mof_C 	C 	0.9902	0.8512	0.7703	0.188
Mof_C 	C 	0.0696	0.8149	0.8057	0.111
Mof_C 	C 	0.1914	0.7291	0.8092	0.148
Mof_C 	C 	0.3285	0.8045	0.8273	0.013
Mof_C 	C 	0.4069	0.758	0.8309	0.047
Mof_C 	C 	0.4901	0.03901	0.1215	0.302
Mof_C 	C 	0.4718	0.06881	0.0437	-0.08
Mof_C 	C 	0.5781	0.07372	0.0077	0.027
Mof_H 	H 	0.6653	0.0624	0.0353	0.051
Mof_C 	C 	0.5543	0.09526	0.9314	-0.085
Mof_C 	C 	0.6682	0.09984	0.8929	0.304
Mof_C 	C 	0.4251	0.11293	0.89	0.025
Mof_H 	H 	0.409	0.1265	0.8382	0.045
Mof_C 	C 	0.3192	0.11038	0.9263	-0.075
Mof_C 	C 	0.3436	0.08803	0.0023	0.022
Mof_H 	H 	0.2728	0.0859	0.0262	0.057
Mof_C 	C 	0.1762	0.127	0.8813	0.301
Mof_N 	N 	0.9231	0.9361	0.7956	-0.07
Mof_N 	N 	0.9229	0.0267	0.8221	0.01
Mof_N 	N 	0.3305	0.7091	0.8137	-0.046
Mof_N 	N 	0.1939	0.7844	0.8052	-0.101
Mof_O 	O 	0.3881	0.03369	0.14794	-0.266
Mof_O 	O 	0.6034	0.01923	0.15774	-0.264
Mof_O 	O 	0.7847	0.11002	0.93537	-0.256
Mof_O 	O 	0.641	0.09561	0.81709	-0.29
Mof_O 	O 	0.0923	0.13548	0.9208	-0.259
Mof_O 	O 	0.153	0.1393	0.8077	-0.253
Mof_C 	C 	0.6249	0.6112	0.2142	0.175
Mof_C 	C 	0.4612	0.6878	0.154	-0.078
Mof_C 	C 	0.204	0.7011	0.108	0.062
Mof_C 	C 	0.1223	0.743	0.1148	0.017
Mof_N 	N 	0.5808	0.5597	0.1688	-0.076
Mof_N 	N 	0.5648	0.468	0.1541	-0.157
Mof_N 	N 	0.1925	0.7849	0.1618	-0.109
Mof_N 	N 	0.3329	0.7184	0.1507	-0.09
Mof_O 	O 	0.864	0.8808	0.1924	-0.027
Mof_Cd	Cd	0.38627	0.62222	0.82722	0.462
Mof_C 	C 	0.3864	0.3855	0.7411	-0.078
Mof_C 	C 	0.5034	0.4469	0.8913	0.061
Mof_C 	C 	0.5078	0.5028	0.9032	0.068
Mof_C 	C 	0.3796	0.4897	0.7808	0.114
Mof_C 	C 	0.4902	0.3512	0.7703	-0.042
Mof_C 	C 	0.5696	0.3149	0.8057	0.175
Mof_C 	C 	0.6914	0.2291	0.8092	0.149
Mof_C 	C 	0.8285	0.3045	0.8273	0.013
Mof_C 	C 	0.9069	0.258	0.8309	0.047
Mof_C 	C 	0.9901	0.53901	0.1215	0.301
Mof_C 	C 	0.9718	0.56881	0.0437	-0.08
Mof_C 	C 	0.0781	0.57372	0.0077	0.028
Mof_H 	H 	0.1653	0.5624	0.0353	0.05
Mof_C 	C 	0.0543	0.59526	0.9314	-0.084
Mof_C 	C 	0.1682	0.59984	0.8929	0.304
Mof_C 	C 	0.9251	0.61293	0.89	0.023
Mof_H 	H 	0.909	0.6265	0.8382	0.046
Mof_C 	C 	0.8192	0.61038	0.9263	-0.074
Mof_C 	C 	0.8436	0.58803	0.0023	0.021
Mof_H 	H 	0.7728	0.5859	0.0262	0.058
Mof_C 	C 	0.6762	0.627	0.8813	0.3
Mof_N 	N 	0.4231	0.4361	0.7956	-0.086
Mof_N 	N 	0.4229	0.5267	0.8221	0.013
Mof_N 	N 	0.8305	0.2091	0.8137	-0.047
Mof_N 	N 	0.6939	0.2844	0.8052	-0.109
Mof_O 	O 	0.8881	0.53369	0.14794	-0.265
Mof_O 	O 	0.1034	0.51923	0.15774	-0.264
Mof_O 	O 	0.2847	0.61002	0.93537	-0.256
Mof_O 	O 	0.141	0.59561	0.81709	-0.29
Mof_O 	O 	0.5923	0.63548	0.9208	-0.26
Mof_O 	O 	0.653	0.6393	0.8077	-0.252
Mof_C 	C 	0.1249	0.1112	0.2142	0.247
Mof_C 	C 	0.9612	0.1878	0.154	-0.079
Mof_C 	C 	0.704	0.2011	0.108	0.065
Mof_C 	C 	0.6223	0.243	0.1148	0.016
Mof_N 	N 	0.0808	0.0597	0.1688	-0.07
Mof_N 	N 	0.0648	0.968	0.1541	-0.161
Mof_N 	N 	0.6925	0.2849	0.1618	-0.109
Mof_N 	N 	0.8329	0.2184	0.1507	-0.102
Mof_O 	O 	0.364	0.3808	0.1924	-0.026
Mof_Cd	Cd	0.11373	0.12222	0.67278	0.463
Mof_C 	C 	0.1136	0.8855	0.7589	-0.089
Mof_C 	C 	0.9966	0.9469	0.6087	0.06
Mof_C 	C 	0.9922	0.0028	0.5968	0.068
Mof_C 	C 	0.1204	0.9897	0.7192	0.115
Mof_C 	C 	0.0098	0.8512	0.7297	-0.272
Mof_C 	C 	0.9304	0.8149	0.6943	0.239
Mof_C 	C 	0.8086	0.7291	0.6908	0.15
Mof_C 	C 	0.6715	0.8045	0.6727	0.013
Mof_C 	C 	0.5931	0.758	0.6691	0.048
Mof_C 	C 	0.5099	0.03901	0.3785	0.301
Mof_C 	C 	0.5282	0.06881	0.4563	-0.079
Mof_C 	C 	0.4219	0.07372	0.4923	0.027
Mof_H 	H 	0.3347	0.0624	0.4647	0.05
Mof_C 	C 	0.4457	0.09526	0.5686	-0.085
Mof_C 	C 	0.3318	0.09984	0.6071	0.304
Mof_C 	C 	0.5749	0.11293	0.61	0.024
Mof_H 	H 	0.591	0.1265	0.6618	0.046
Mof_C 	C 	0.6808	0.11038	0.5737	-0.074
Mof_C 	C 	0.6564	0.08803	0.4977	0.021
Mof_H 	H 	0.7272	0.0859	0.4738	0.058
Mof_C 	C 	0.8238	0.127	0.6187	0.301
Mof_N 	N 	0.0769	0.9361	0.7044	-0.102
Mof_N 	N 	0.0771	0.0267	0.6779	0.017
Mof_N 	N 	0.6695	0.7091	0.6863	-0.047
Mof_N 	N 	0.8061	0.7844	0.6948	-0.117
Mof_O 	O 	0.6119	0.03369	0.35206	-0.263
Mof_O 	O 	0.3966	0.01923	0.34226	-0.266
Mof_O 	O 	0.2153	0.11002	0.56463	-0.256
Mof_O 	O 	0.359	0.09561	0.68291	-0.291
Mof_O 	O 	0.9077	0.13548	0.5792	-0.261
Mof_O 	O 	0.847	0.1393	0.6923	-0.254
Mof_C 	C 	0.3751	0.6112	0.2858	0.175
Mof_C 	C 	0.5388	0.6878	0.346	-0.078
Mof_C 	C 	0.796	0.7011	0.392	0.062
Mof_C 	C 	0.8777	0.743	0.3852	0.017
Mof_N 	N 	0.4192	0.5597	0.3312	-0.076
Mof_N 	N 	0.4352	0.468	0.3459	-0.157
Mof_N 	N 	0.8075	0.7849	0.3382	-0.109
Mof_N 	N 	0.6671	0.7184	0.3493	-0.09
Mof_O 	O 	0.136	0.8808	0.3076	-0.027
Mof_Cd	Cd	0.61373	0.62222	0.67278	0.462
Mof_C 	C 	0.6136	0.3855	0.7589	-0.078
Mof_C 	C 	0.4966	0.4469	0.6087	0.061
Mof_C 	C 	0.4922	0.5028	0.5968	0.068
Mof_C 	C 	0.6204	0.4897	0.7192	0.114
Mof_C 	C 	0.5098	0.3512	0.7297	-0.043
Mof_C 	C 	0.4304	0.3149	0.6943	0.175
Mof_C 	C 	0.3086	0.2291	0.6908	0.149
Mof_C 	C 	0.1715	0.3045	0.6727	0.013
Mof_C 	C 	0.0931	0.258	0.6691	0.048
Mof_C 	C 	0.0099	0.53901	0.3785	0.302
Mof_C 	C 	0.0282	0.56881	0.4563	-0.079
Mof_C 	C 	0.9219	0.57372	0.4923	0.026
Mof_H 	H 	0.8347	0.5624	0.4647	0.051
Mof_C 	C 	0.9457	0.59526	0.5686	-0.085
Mof_C 	C 	0.8318	0.59984	0.6071	0.304
Mof_C 	C 	0.0749	0.61293	0.61	0.026
Mof_H 	H 	0.091	0.6265	0.6618	0.046
Mof_C 	C 	0.1808	0.61038	0.5737	-0.074
Mof_C 	C 	0.1564	0.58803	0.4977	0.021
Mof_H 	H 	0.2272	0.5859	0.4738	0.058
Mof_C 	C 	0.3238	0.627	0.6187	0.301
Mof_N 	N 	0.5769	0.4361	0.7044	-0.086
Mof_N 	N 	0.5771	0.5267	0.6779	0.013
Mof_N 	N 	0.1695	0.2091	0.6863	-0.046
Mof_N 	N 	0.3061	0.2844	0.6948	-0.109
Mof_O 	O 	0.1119	0.53369	0.35206	-0.265
Mof_O 	O 	0.8966	0.51923	0.34226	-0.266
Mof_O 	O 	0.7153	0.61002	0.56463	-0.256
Mof_O 	O 	0.859	0.59561	0.68291	-0.291
Mof_O 	O 	0.4077	0.63548	0.5792	-0.26
Mof_O 	O 	0.347	0.6393	0.6923	-0.254
Mof_C 	C 	0.8751	0.1112	0.2858	0.103
Mof_C 	C 	0.0388	0.1878	0.346	-0.076
Mof_C 	C 	0.296	0.2011	0.392	0.059
Mof_C 	C 	0.3777	0.243	0.3852	0.018
Mof_N 	N 	0.9192	0.0597	0.3312	-0.082
Mof_N 	N 	0.9352	0.968	0.3459	-0.155
Mof_N 	N 	0.3075	0.2849	0.3382	-0.109
Mof_N 	N 	0.1671	0.2184	0.3493	-0.079
Mof_O 	O 	0.636	0.3808	0.3076	-0.029
Mof_Cd	Cd	0.5	0.02465	0.75	0.474
Mof_Cd	Cd	6.09724e-33	0.52465	0.75	0.475
Mof_Cd	Cd	0.5	0.97535	0.25	0.474
Mof_Cd	Cd	-1.3978e-17	0.47535	0.25	0.475
_end
