# CIF file generated by openbabel 3.1.0, see https://openbabel.org
data_I
_chemical_name_common 'image0'
_cell_length_a 21.7899
_cell_length_b 16.6337
_cell_length_c 13.5149
_cell_angle_alpha 90
_cell_angle_beta 93.816
_cell_angle_gamma 90
_space_group_name_H-M_alt 'P 1'
_space_group_name_Hall 'P 1'
loop_
    _symmetry_equiv_pos_as_xyz
    x,y,z
loop_
    _atom_site_label
    _atom_site_type_symbol
    _atom_site_fract_x
    _atom_site_fract_y
    _atom_site_fract_z
    _atom_site_occupancy
    Cd1      Cd       0.64332    0.24955    0.26697    1.000
    C1       C        0.58457    0.11110    0.41470    1.000
    C2       C        0.63600    0.90460    0.67990    1.000
    C3       C        0.76770    0.14960    0.65490    1.000
    C4       C        0.62431    0.08250    0.50470    1.000
    C5       C        0.61005    0.01060    0.55200    1.000
    H1       H        0.57570    0.98080    0.52980    1.000
    C6       C        0.64778    0.98430    0.63260    1.000
    C7       C        0.69830    0.02960    0.66460    1.000
    H2       H        0.72370    0.01140    0.71790    1.000
    C8       C        0.71218    0.10150    0.61950    1.000
    C9       C        0.67440    0.12780    0.53900    1.000
    H3       H        0.68290    0.17620    0.50820    1.000
    C10      C        0.53140    0.39180    0.25090    1.000
    C11      C        0.56590    0.46410    0.25090    1.000
    H4       H        0.60860    0.46410    0.25140    1.000
    C12      C        0.53290    0.53330    0.25000    1.000
    H5       H        0.55360    0.58220    0.24940    1.000
    N1       N        0.55048    0.31430    0.25110    1.000
    O1       O        0.58995    0.18290    0.38940    1.000
    O2       O        0.54867    0.06210    0.37270    1.000
    O3       O        0.58608    0.86880    0.65930    1.000
    O4       O        0.67820    0.87540    0.73590    1.000
    O5       O        0.80588    0.11680    0.71540    1.000
    O6       O        0.77364    0.21840    0.62580    1.000
    Cd2      Cd       0.14332    0.74955    0.26697    1.000
    C13      C        0.08457    0.61110    0.41470    1.000
    C14      C        0.13600    0.40460    0.67990    1.000
    C15      C        0.26770    0.64960    0.65490    1.000
    C16      C        0.12431    0.58250    0.50470    1.000
    C17      C        0.11005    0.51060    0.55200    1.000
    H6       H        0.07570    0.48080    0.52980    1.000
    C18      C        0.14778    0.48430    0.63260    1.000
    C19      C        0.19830    0.52960    0.66460    1.000
    H7       H        0.22370    0.51140    0.71790    1.000
    C20      C        0.21218    0.60150    0.61950    1.000
    C21      C        0.17440    0.62780    0.53900    1.000
    H8       H        0.18290    0.67620    0.50820    1.000
    C22      C        0.03140    0.89180    0.25090    1.000
    C23      C        0.06590    0.96410    0.25090    1.000
    H9       H        0.10860    0.96410    0.25140    1.000
    C24      C        0.03290    0.03330    0.25000    1.000
    H10      H        0.05360    0.08220    0.24940    1.000
    N2       N        0.05048    0.81430    0.25110    1.000
    O7       O        0.08995    0.68290    0.38940    1.000
    O8       O        0.04867    0.56210    0.37270    1.000
    O9       O        0.08608    0.36880    0.65930    1.000
    O10      O        0.17820    0.37540    0.73590    1.000
    O11      O        0.30588    0.61680    0.71540    1.000
    O12      O        0.27364    0.71840    0.62580    1.000
    Cd3      Cd       0.35668    0.24955    0.23303    1.000
    C25      C        0.41543    0.11110    0.08530    1.000
    C26      C        0.36400    0.90460    0.82010    1.000
    C27      C        0.23230    0.14960    0.84510    1.000
    C28      C        0.37569    0.08250    0.99530    1.000
    C29      C        0.38995    0.01060    0.94800    1.000
    H11      H        0.42430    0.98080    0.97020    1.000
    C30      C        0.35222    0.98430    0.86740    1.000
    C31      C        0.30170    0.02960    0.83540    1.000
    H12      H        0.27630    0.01140    0.78210    1.000
    C32      C        0.28782    0.10150    0.88050    1.000
    C33      C        0.32560    0.12780    0.96100    1.000
    H13      H        0.31710    0.17620    0.99180    1.000
    C34      C        0.46860    0.39180    0.24910    1.000
    C35      C        0.43410    0.46410    0.24910    1.000
    H14      H        0.39140    0.46410    0.24860    1.000
    C36      C        0.46710    0.53330    0.25000    1.000
    H15      H        0.44640    0.58220    0.25060    1.000
    N3       N        0.44952    0.31430    0.24890    1.000
    O13      O        0.41005    0.18290    0.11060    1.000
    O14      O        0.45133    0.06210    0.12730    1.000
    O15      O        0.41392    0.86880    0.84070    1.000
    O16      O        0.32180    0.87540    0.76410    1.000
    O17      O        0.19412    0.11680    0.78460    1.000
    O18      O        0.22636    0.21840    0.87420    1.000
    Cd4      Cd       0.85668    0.74955    0.23303    1.000
    C37      C        0.91543    0.61110    0.08530    1.000
    C38      C        0.86400    0.40460    0.82010    1.000
    C39      C        0.73230    0.64960    0.84510    1.000
    C40      C        0.87569    0.58250    0.99530    1.000
    C41      C        0.88995    0.51060    0.94800    1.000
    H16      H        0.92430    0.48080    0.97020    1.000
    C42      C        0.85222    0.48430    0.86740    1.000
    C43      C        0.80170    0.52960    0.83540    1.000
    H17      H        0.77630    0.51140    0.78210    1.000
    C44      C        0.78782    0.60150    0.88050    1.000
    C45      C        0.82560    0.62780    0.96100    1.000
    H18      H        0.81710    0.67620    0.99180    1.000
    C46      C        0.96860    0.89180    0.24910    1.000
    C47      C        0.93410    0.96410    0.24910    1.000
    H19      H        0.89140    0.96410    0.24860    1.000
    C48      C        0.96710    0.03330    0.25000    1.000
    H20      H        0.94640    0.08220    0.25060    1.000
    N4       N        0.94952    0.81430    0.24890    1.000
    O19      O        0.91005    0.68290    0.11060    1.000
    O20      O        0.95133    0.56210    0.12730    1.000
    O21      O        0.91392    0.36880    0.84070    1.000
    O22      O        0.82180    0.37540    0.76410    1.000
    O23      O        0.69412    0.61680    0.78460    1.000
    O24      O        0.72636    0.71840    0.87420    1.000
    Cd5      Cd       0.35668    0.75045    0.73303    1.000
    C49      C        0.41543    0.88890    0.58530    1.000
    C50      C        0.36400    0.09540    0.32010    1.000
    C51      C        0.23230    0.85040    0.34510    1.000
    C52      C        0.37569    0.91750    0.49530    1.000
    C53      C        0.38995    0.98940    0.44800    1.000
    H21      H        0.42430    0.01920    0.47020    1.000
    C54      C        0.35222    0.01570    0.36740    1.000
    C55      C        0.30170    0.97040    0.33540    1.000
    H22      H        0.27630    0.98860    0.28210    1.000
    C56      C        0.28782    0.89850    0.38050    1.000
    C57      C        0.32560    0.87220    0.46100    1.000
    H23      H        0.31710    0.82380    0.49180    1.000
    C58      C        0.46860    0.60820    0.74910    1.000
    C59      C        0.43410    0.53590    0.74910    1.000
    H24      H        0.39140    0.53590    0.74860    1.000
    C60      C        0.46710    0.46670    0.75000    1.000
    H25      H        0.44640    0.41780    0.75060    1.000
    N5       N        0.44952    0.68570    0.74890    1.000
    O25      O        0.41005    0.81710    0.61060    1.000
    O26      O        0.45133    0.93790    0.62730    1.000
    O27      O        0.41392    0.13120    0.34070    1.000
    O28      O        0.32180    0.12460    0.26410    1.000
    O29      O        0.19412    0.88320    0.28460    1.000
    O30      O        0.22636    0.78160    0.37420    1.000
    Cd6      Cd       0.85668    0.25045    0.73303    1.000
    C61      C        0.91543    0.38890    0.58530    1.000
    C62      C        0.86400    0.59540    0.32010    1.000
    C63      C        0.73230    0.35040    0.34510    1.000
    C64      C        0.87569    0.41750    0.49530    1.000
    C65      C        0.88995    0.48940    0.44800    1.000
    H26      H        0.92430    0.51920    0.47020    1.000
    C66      C        0.85222    0.51570    0.36740    1.000
    C67      C        0.80170    0.47040    0.33540    1.000
    H27      H        0.77630    0.48860    0.28210    1.000
    C68      C        0.78782    0.39850    0.38050    1.000
    C69      C        0.82560    0.37220    0.46100    1.000
    H28      H        0.81710    0.32380    0.49180    1.000
    C70      C        0.96860    0.10820    0.74910    1.000
    C71      C        0.93410    0.03590    0.74910    1.000
    H29      H        0.89140    0.03590    0.74860    1.000
    C72      C        0.96710    0.96670    0.75000    1.000
    H30      H        0.94640    0.91780    0.75060    1.000
    N6       N        0.94952    0.18570    0.74890    1.000
    O31      O        0.91005    0.31710    0.61060    1.000
    O32      O        0.95133    0.43790    0.62730    1.000
    O33      O        0.91392    0.63120    0.34070    1.000
    O34      O        0.82180    0.62460    0.26410    1.000
    O35      O        0.69412    0.38320    0.28460    1.000
    O36      O        0.72636    0.28160    0.37420    1.000
    Cd7      Cd       0.64332    0.75045    0.76697    1.000
    C73      C        0.58457    0.88890    0.91470    1.000
    C74      C        0.63600    0.09540    0.17990    1.000
    C75      C        0.76770    0.85040    0.15490    1.000
    C76      C        0.62431    0.91750    0.00470    1.000
    C77      C        0.61005    0.98940    0.05200    1.000
    H31      H        0.57570    0.01920    0.02980    1.000
    C78      C        0.64778    0.01570    0.13260    1.000
    C79      C        0.69830    0.97040    0.16460    1.000
    H32      H        0.72370    0.98860    0.21790    1.000
    C80      C        0.71218    0.89850    0.11950    1.000
    C81      C        0.67440    0.87220    0.03900    1.000
    H33      H        0.68290    0.82380    0.00820    1.000
    C82      C        0.53140    0.60820    0.75090    1.000
    C83      C        0.56590    0.53590    0.75090    1.000
    H34      H        0.60860    0.53590    0.75140    1.000
    C84      C        0.53290    0.46670    0.75000    1.000
    H35      H        0.55360    0.41780    0.74940    1.000
    N7       N        0.55048    0.68570    0.75110    1.000
    O37      O        0.58995    0.81710    0.88940    1.000
    O38      O        0.54867    0.93790    0.87270    1.000
    O39      O        0.58608    0.13120    0.15930    1.000
    O40      O        0.67820    0.12460    0.23590    1.000
    O41      O        0.80588    0.88320    0.21540    1.000
    O42      O        0.77364    0.78160    0.12580    1.000
    Cd8      Cd       0.14332    0.25045    0.76697    1.000
    C85      C        0.08457    0.38890    0.91470    1.000
    C86      C        0.13600    0.59540    0.17990    1.000
    C87      C        0.26770    0.35040    0.15490    1.000
    C88      C        0.12431    0.41750    0.00470    1.000
    C89      C        0.11005    0.48940    0.05200    1.000
    H36      H        0.07570    0.51920    0.02980    1.000
    C90      C        0.14778    0.51570    0.13260    1.000
    C91      C        0.19830    0.47040    0.16460    1.000
    H37      H        0.22370    0.48860    0.21790    1.000
    C92      C        0.21218    0.39850    0.11950    1.000
    C93      C        0.17440    0.37220    0.03900    1.000
    H38      H        0.18290    0.32380    0.00820    1.000
    C94      C        0.03140    0.10820    0.75090    1.000
    C95      C        0.06590    0.03590    0.75090    1.000
    H39      H        0.10860    0.03590    0.75140    1.000
    C96      C        0.03290    0.96670    0.75000    1.000
    H40      H        0.05360    0.91780    0.74940    1.000
    N8       N        0.05048    0.18570    0.75110    1.000
    O43      O        0.08995    0.31710    0.88940    1.000
    O44      O        0.04867    0.43790    0.87270    1.000
    O45      O        0.08608    0.63120    0.15930    1.000
    O46      O        0.17820    0.62460    0.23590    1.000
    O47      O        0.30588    0.38320    0.21540    1.000
    O48      O        0.27364    0.28160    0.12580    1.000
    Cd9      Cd       0.50000    0.13271    0.25000    1.000
    N9       N        0.50000    0.27040    0.25000    1.000
    Cd10     Cd       0.00000    0.63271    0.25000    1.000
    N10      N        0.00000    0.77040    0.25000    1.000
    Cd11     Cd       0.50000    0.86729    0.75000    1.000
    N11      N        0.50000    0.72960    0.75000    1.000
    Cd12     Cd       0.00000    0.36729    0.75000    1.000
    N12      N        0.00000    0.22960    0.75000    1.000
