# CIF file generated by openbabel 3.1.0, see https://openbabel.org
data_I
_chemical_name_common 'IZEBAR_clean'
_cell_length_a 13.592
_cell_length_b 14.082
_cell_length_c 16.313
_cell_angle_alpha 98.7237
_cell_angle_beta 114.62
_cell_angle_gamma 90
_space_group_name_H-M_alt 'P 1'
_space_group_name_Hall 'P 1'
loop_
    _symmetry_equiv_pos_as_xyz
    x,y,z
loop_
    _atom_site_label
    _atom_site_type_symbol
    _atom_site_fract_x
    _atom_site_fract_y
    _atom_site_fract_z
    _atom_site_occupancy
    Tb1      Tb       0.39135    0.95851    0.37141    1.000
    Tb2      Tb       0.01994    0.54149    0.62859    1.000
    Tb3      Tb       0.60865    0.04149    0.62859    1.000
    Tb4      Tb       0.98006    0.45851    0.37141    1.000
    H1       H        0.28050    0.70620    0.46760    1.000
    H2       H        0.31020    0.57770    0.67940    1.000
    H3       H        0.53490    0.78300    0.70740    1.000
    H4       H        0.52710    0.59460    0.00480    1.000
    H5       H        0.77040    0.64170    0.95040    1.000
    H6       H        0.88530    0.60440    0.08840    1.000
    H7       H        0.63750    0.54180    0.13700    1.000
    H8       H        0.81290    0.79380    0.53240    1.000
    H9       H        0.63080    0.92230    0.32060    1.000
    H10      H        0.82750    0.71700    0.29260    1.000
    H11      H        0.52230    0.90540    0.99520    1.000
    H12      H        0.82000    0.85830    0.04960    1.000
    H13      H        0.79690    0.89560    0.91160    1.000
    H14      H        0.50050    0.95820    0.86300    1.000
    H15      H        0.71950    0.29380    0.53240    1.000
    H16      H        0.68980    0.42230    0.32060    1.000
    H17      H        0.46510    0.21700    0.29260    1.000
    H18      H        0.47290    0.40540    0.99520    1.000
    H19      H        0.22960    0.35830    0.04960    1.000
    H20      H        0.11470    0.39560    0.91160    1.000
    H21      H        0.36250    0.45820    0.86300    1.000
    H22      H        0.18710    0.20620    0.46760    1.000
    H23      H        0.36920    0.07770    0.67940    1.000
    H24      H        0.17250    0.28300    0.70740    1.000
    H25      H        0.47770    0.09460    0.00480    1.000
    H26      H        0.18000    0.14170    0.95040    1.000
    H27      H        0.20310    0.10440    0.08840    1.000
    H28      H        0.49950    0.04180    0.13700    1.000
    C1       C        0.77030    0.55670    0.11960    1.000
    C2       C        0.41180    0.75730    0.58260    1.000
    C3       C        0.27760    0.63440    0.56460    1.000
    C4       C        0.45190    0.83400    0.54420    1.000
    C5       C        0.84450    0.51790    0.20600    1.000
    C6       C        0.56210    0.64240    0.87320    1.000
    C7       C        0.31770    0.70040    0.52880    1.000
    C8       C        0.33670    0.62120    0.65480    1.000
    C9       C        0.43770    0.67490    0.70860    1.000
    C10      C        0.47130    0.74460    0.67140    1.000
    C11      C        0.50360    0.65860    0.79960    1.000
    C12      C        0.60050    0.59120    0.01840    1.000
    C13      C        0.63540    0.61670    0.95900    1.000
    C14      C        0.74120    0.62060    0.98740    1.000
    C15      C        0.81070    0.59510    0.06860    1.000
    C16      C        0.66630    0.56010    0.09860    1.000
    C17      C        0.17310    0.57130    0.50460    1.000
    C18      C        0.65070    0.94330    0.88040    1.000
    C19      C        0.82920    0.74270    0.41740    1.000
    C20      C        0.71300    0.86560    0.43540    1.000
    C21      C        0.90770    0.66600    0.45580    1.000
    C22      C        0.63850    0.98210    0.79400    1.000
    C23      C        0.68890    0.85760    0.12680    1.000
    C24      C        0.78890    0.79960    0.47120    1.000
    C25      C        0.68190    0.87880    0.34520    1.000
    C26      C        0.72910    0.82510    0.29140    1.000
    C27      C        0.79990    0.75540    0.32860    1.000
    C28      C        0.70400    0.84140    0.20040    1.000
    C29      C        0.58210    0.90880    0.98160    1.000
    C30      C        0.67640    0.88330    0.04100    1.000
    C31      C        0.75380    0.87940    0.01260    1.000
    C32      C        0.74210    0.90490    0.93140    1.000
    C33      C        0.56770    0.93990    0.90140    1.000
    C34      C        0.66850    0.92870    0.49540    1.000
    C35      C        0.22970    0.44330    0.88040    1.000
    C36      C        0.58820    0.24270    0.41740    1.000
    C37      C        0.72240    0.36560    0.43540    1.000
    C38      C        0.54810    0.16600    0.45580    1.000
    C39      C        0.15550    0.48210    0.79400    1.000
    C40      C        0.43790    0.35760    0.12680    1.000
    C41      C        0.68230    0.29960    0.47120    1.000
    C42      C        0.66330    0.37880    0.34520    1.000
    C43      C        0.56230    0.32510    0.29140    1.000
    C44      C        0.52870    0.25540    0.32860    1.000
    C45      C        0.49640    0.34140    0.20040    1.000
    C46      C        0.39950    0.40880    0.98160    1.000
    C47      C        0.36460    0.38330    0.04100    1.000
    C48      C        0.25880    0.37940    0.01260    1.000
    C49      C        0.18930    0.40490    0.93140    1.000
    C50      C        0.33370    0.43990    0.90140    1.000
    C51      C        0.82690    0.42870    0.49540    1.000
    C52      C        0.34930    0.05670    0.11960    1.000
    C53      C        0.17080    0.25730    0.58260    1.000
    C54      C        0.28700    0.13440    0.56460    1.000
    C55      C        0.09230    0.33400    0.54420    1.000
    C56      C        0.36150    0.01790    0.20600    1.000
    C57      C        0.31110    0.14240    0.87320    1.000
    C58      C        0.21110    0.20040    0.52880    1.000
    C59      C        0.31810    0.12120    0.65480    1.000
    C60      C        0.27090    0.17490    0.70860    1.000
    C61      C        0.20010    0.24460    0.67140    1.000
    C62      C        0.29600    0.15860    0.79960    1.000
    C63      C        0.41790    0.09120    0.01840    1.000
    C64      C        0.32360    0.11670    0.95900    1.000
    C65      C        0.24620    0.12060    0.98740    1.000
    C66      C        0.25790    0.09510    0.06860    1.000
    C67      C        0.43230    0.06010    0.09860    1.000
    C68      C        0.33150    0.07130    0.50460    1.000
    O1       O        0.11930    0.54360    0.54140    1.000
    O2       O        0.39160    0.84490    0.46460    1.000
    O3       O        0.14800    0.55260    0.42020    1.000
    O4       O        0.94330    0.52020    0.22960    1.000
    O5       O        0.53850    0.88110    0.59700    1.000
    O6       O        0.80170    0.48660    0.25240    1.000
    O7       O        0.57790    0.95640    0.45860    1.000
    O8       O        0.92700    0.65510    0.53540    1.000
    O9       O        0.72780    0.94740    0.57980    1.000
    O10      O        0.71370    0.97980    0.77040    1.000
    O11      O        0.94150    0.61890    0.40300    1.000
    O12      O        0.54930    0.01340    0.74760    1.000
    O13      O        0.88070    0.45640    0.45860    1.000
    O14      O        0.60840    0.15510    0.53540    1.000
    O15      O        0.85200    0.44740    0.57980    1.000
    O16      O        0.05670    0.47980    0.77040    1.000
    O17      O        0.46150    0.11890    0.40300    1.000
    O18      O        0.19830    0.51340    0.74760    1.000
    O19      O        0.42210    0.04360    0.54140    1.000
    O20      O        0.07300    0.34490    0.46460    1.000
    O21      O        0.27220    0.05260    0.42020    1.000
    O22      O        0.28630    0.02020    0.22960    1.000
    O23      O        0.05850    0.38110    0.59700    1.000
    O24      O        0.45070    0.98660    0.25240    1.000
