# CIF file generated by openbabel 3.1.0, see https://openbabel.org
data_I
_chemical_name_common 'image0'
_cell_length_a 36.936
_cell_length_b 7.0081
_cell_length_c 6.2127
_cell_angle_alpha 90
_cell_angle_beta 97.246
_cell_angle_gamma 90
_space_group_name_H-M_alt 'P 1'
_space_group_name_Hall 'P 1'
loop_
    _symmetry_equiv_pos_as_xyz
    x,y,z
loop_
    _atom_site_label
    _atom_site_type_symbol
    _atom_site_fract_x
    _atom_site_fract_y
    _atom_site_fract_z
    _atom_site_occupancy
    Sm1      Sm       0.21990    0.68939    0.52263    1.000
    O1       O        0.15337    0.74530    0.48990    1.000
    O2       O        0.18038    0.66890    0.80970    1.000
    O3       O        0.27283    0.53030    0.34840    1.000
    O4       O        0.27910    0.83830    0.41010    1.000
    O5       O        0.26661    0.66580    0.83780    1.000
    O6       O        0.29610    0.39100    0.77490    1.000
    N1       N        0.04657    0.68500    0.90400    1.000
    C1       C        0.15174    0.70000    0.68340    1.000
    C2       C        0.11495    0.69500    0.76650    1.000
    C3       C        0.11081    0.64190    0.97330    1.000
    H1       H        0.13110    0.60880    0.07040    1.000
    C4       C        0.07650    0.63800    0.03770    1.000
    H2       H        0.07410    0.60130    0.17900    1.000
    C5       C        0.05080    0.75690    0.70700    1.000
    H3       H        0.03050    0.80340    0.61910    1.000
    C6       C        0.08490    0.76320    0.63100    1.000
    H4       H        0.08740    0.81170    0.49440    1.000
    C7       C        0.35990    0.59470    0.94740    1.000
    H5       H        0.36130    0.54380    0.81040    1.000
    C8       C        0.39151    0.65700    0.07120    1.000
    H6       H        0.41380    0.65040    0.01700    1.000
    C9       C        0.38947    0.72880    0.27500    1.000
    H7       H        0.41070    0.76790    0.36060    1.000
    C10      C        0.35636    0.74360    0.35390    1.000
    H8       H        0.35540    0.79390    0.49170    1.000
    C11      C        0.32464    0.68500    0.23150    1.000
    C12      C        0.32635    0.60620    0.02270    1.000
    C13      C        0.28983    0.67600    0.33260    1.000
    C14      C        0.29324    0.54690    0.87030    1.000
    Sm2      Sm       0.71990    0.18939    0.52263    1.000
    O7       O        0.65337    0.24530    0.48990    1.000
    O8       O        0.68038    0.16890    0.80970    1.000
    O9       O        0.77283    0.03030    0.34840    1.000
    O10      O        0.77910    0.33830    0.41010    1.000
    O11      O        0.76661    0.16580    0.83780    1.000
    O12      O        0.79610    0.89100    0.77490    1.000
    N2       N        0.54657    0.18500    0.90400    1.000
    C15      C        0.65174    0.20000    0.68340    1.000
    C16      C        0.61495    0.19500    0.76650    1.000
    C17      C        0.61081    0.14190    0.97330    1.000
    H9       H        0.63110    0.10880    0.07040    1.000
    C18      C        0.57650    0.13800    0.03770    1.000
    H10      H        0.57410    0.10130    0.17900    1.000
    C19      C        0.55080    0.25690    0.70700    1.000
    H11      H        0.53050    0.30340    0.61910    1.000
    C20      C        0.58490    0.26320    0.63100    1.000
    H12      H        0.58740    0.31170    0.49440    1.000
    C21      C        0.85990    0.09470    0.94740    1.000
    H13      H        0.86130    0.04380    0.81040    1.000
    C22      C        0.89151    0.15700    0.07120    1.000
    H14      H        0.91380    0.15040    0.01700    1.000
    C23      C        0.88947    0.22880    0.27500    1.000
    H15      H        0.91070    0.26790    0.36060    1.000
    C24      C        0.85636    0.24360    0.35390    1.000
    H16      H        0.85540    0.29390    0.49170    1.000
    C25      C        0.82464    0.18500    0.23150    1.000
    C26      C        0.82635    0.10620    0.02270    1.000
    C27      C        0.78983    0.17600    0.33260    1.000
    C28      C        0.79324    0.04690    0.87030    1.000
    Sm3      Sm       0.78010    0.68939    0.47737    1.000
    O13      O        0.84663    0.74530    0.51010    1.000
    O14      O        0.81962    0.66890    0.19030    1.000
    O15      O        0.72717    0.53030    0.65160    1.000
    O16      O        0.72090    0.83830    0.58990    1.000
    O17      O        0.73339    0.66580    0.16220    1.000
    O18      O        0.70390    0.39100    0.22510    1.000
    N3       N        0.95343    0.68500    0.09600    1.000
    C29      C        0.84826    0.70000    0.31660    1.000
    C30      C        0.88505    0.69500    0.23350    1.000
    C31      C        0.88919    0.64190    0.02670    1.000
    H17      H        0.86890    0.60880    0.92960    1.000
    C32      C        0.92350    0.63800    0.96230    1.000
    H18      H        0.92590    0.60130    0.82100    1.000
    C33      C        0.94920    0.75690    0.29300    1.000
    H19      H        0.96950    0.80340    0.38090    1.000
    C34      C        0.91510    0.76320    0.36900    1.000
    H20      H        0.91260    0.81170    0.50560    1.000
    C35      C        0.64010    0.59470    0.05260    1.000
    H21      H        0.63870    0.54380    0.18960    1.000
    C36      C        0.60849    0.65700    0.92880    1.000
    H22      H        0.58620    0.65040    0.98300    1.000
    C37      C        0.61053    0.72880    0.72500    1.000
    H23      H        0.58930    0.76790    0.63940    1.000
    C38      C        0.64364    0.74360    0.64610    1.000
    H24      H        0.64460    0.79390    0.50830    1.000
    C39      C        0.67536    0.68500    0.76850    1.000
    C40      C        0.67365    0.60620    0.97730    1.000
    C41      C        0.71017    0.67600    0.66740    1.000
    C42      C        0.70676    0.54690    0.12970    1.000
    Sm4      Sm       0.28010    0.18939    0.47737    1.000
    O19      O        0.34663    0.24530    0.51010    1.000
    O20      O        0.31962    0.16890    0.19030    1.000
    O21      O        0.22717    0.03030    0.65160    1.000
    O22      O        0.22090    0.33830    0.58990    1.000
    O23      O        0.23339    0.16580    0.16220    1.000
    O24      O        0.20390    0.89100    0.22510    1.000
    N4       N        0.45343    0.18500    0.09600    1.000
    C43      C        0.34826    0.20000    0.31660    1.000
    C44      C        0.38505    0.19500    0.23350    1.000
    C45      C        0.38919    0.14190    0.02670    1.000
    H25      H        0.36890    0.10880    0.92960    1.000
    C46      C        0.42350    0.13800    0.96230    1.000
    H26      H        0.42590    0.10130    0.82100    1.000
    C47      C        0.44920    0.25690    0.29300    1.000
    H27      H        0.46950    0.30340    0.38090    1.000
    C48      C        0.41510    0.26320    0.36900    1.000
    H28      H        0.41260    0.31170    0.50560    1.000
    C49      C        0.14010    0.09470    0.05260    1.000
    H29      H        0.13870    0.04380    0.18960    1.000
    C50      C        0.10849    0.15700    0.92880    1.000
    H30      H        0.08620    0.15040    0.98300    1.000
    C51      C        0.11053    0.22880    0.72500    1.000
    H31      H        0.08930    0.26790    0.63940    1.000
    C52      C        0.14364    0.24360    0.64610    1.000
    H32      H        0.14460    0.29390    0.50830    1.000
    C53      C        0.17536    0.18500    0.76850    1.000
    C54      C        0.17365    0.10620    0.97730    1.000
    C55      C        0.21017    0.17600    0.66740    1.000
    C56      C        0.20676    0.04690    0.12970    1.000
    Cu1      Cu       0.00000    0.69160    0.00000    1.000
    Cu2      Cu       0.50000    0.19160    0.00000    1.000
