data_functionalizedCrystal
_audit_creation_method	'EQeq! by Chris Wilmer'
_symmetry_space_group_name_H-M	'P1'
_symmetry_Int_Tables_number	1
_symmetry_cell_setting	triclinic
loop_
_symmetry_equiv_pos_as_xyz
  x,y,z
_cell_length_a	35.3394
_cell_length_b	35.3394
_cell_length_c	20.07
_cell_angle_alpha	90
_cell_angle_beta	90
_cell_angle_gamma	120
loop_
_atom_site_label
_atom_site_type_symbol
_atom_site_fract_x
_atom_site_fract_y
_atom_site_fract_z
_atom_site_charge
Mof_O 	O 	0.63751	0.7798	0.40879	-0.402
Mof_O 	O 	0.61095	0.76662	0.30277	-0.401
Mof_C 	C 	0.61215	0.75588	0.36265	0.343
Mof_C 	C 	0.57924	0.70937	0.3832	-0.099
Mof_C 	C 	0.54988	0.68066	0.3334	0.037
Mof_H 	H 	0.5506	0.6903	0.289	0.033
Mof_C 	C 	0.52034	0.63804	0.35266	-0.12
Mof_H 	H 	0.4989	0.6191	0.3217	0.083
Mof_C 	C 	0.52116	0.62239	0.4155	0.088
Mof_C 	C 	0.55026	0.65132	0.46495	-0.122
Mof_H 	H 	0.5501	0.6416	0.5091	0.074
Mof_C 	C 	0.57899	0.69453	0.44602	0.043
Mof_H 	H 	0.599	0.7142	0.478	0.033
Mof_C 	C 	0.49342	0.57566	0.4334	-0.053
Mof_C 	C 	0.51249	0.5552	0.4669	-0.049
Mof_H 	H 	0.5426	0.5717	0.4781	0.048
Mof_H 	H 	0.4321	0.6137	0.458	-0.002
Mof_H 	H 	0.3682	0.5865	0.3461	0.16
Mof_O 	O 	0.30418	0.11313	0.74212	-0.402
Mof_O 	O 	0.27762	0.09995	0.6361	-0.401
Mof_C 	C 	0.27882	0.08921	0.69598	0.343
Mof_C 	C 	0.24591	0.0427	0.71653	-0.099
Mof_C 	C 	0.21655	0.01399	0.66673	0.036
Mof_H 	H 	0.21727	0.02363	0.62233	0.033
Mof_C 	C 	0.18701	0.97137	0.68599	-0.119
Mof_H 	H 	0.16557	0.95243	0.65503	0.083
Mof_C 	C 	0.18783	0.95572	0.74883	0.088
Mof_C 	C 	0.21693	0.98465	0.79828	-0.121
Mof_H 	H 	0.21677	0.97493	0.84243	0.074
Mof_C 	C 	0.24566	0.02786	0.77935	0.043
Mof_H 	H 	0.26567	0.04753	0.81133	0.034
Mof_C 	C 	0.16009	0.90899	0.76673	-0.053
Mof_C 	C 	0.17916	0.88853	0.80023	-0.049
Mof_H 	H 	0.20927	0.90503	0.81143	0.048
Mof_H 	H 	0.09877	0.94703	0.79133	-0.002
Mof_H 	H 	0.03487	0.91983	0.67943	0.16
Mof_O 	O 	0.97084	0.44647	0.07546	-0.402
Mof_O 	O 	0.94428	0.43329	0.96944	-0.402
Mof_C 	C 	0.94548	0.42255	0.02932	0.343
Mof_C 	C 	0.91257	0.37604	0.04987	-0.1
Mof_C 	C 	0.88321	0.34733	7e-05	0.037
Mof_H 	H 	0.88393	0.35697	0.95567	0.033
Mof_C 	C 	0.85367	0.30471	0.01933	-0.12
Mof_H 	H 	0.83223	0.28577	0.98837	0.083
Mof_C 	C 	0.85449	0.28906	0.08217	0.088
Mof_C 	C 	0.88359	0.31799	0.13162	-0.122
Mof_H 	H 	0.88343	0.30827	0.17577	0.075
Mof_C 	C 	0.91232	0.3612	0.11269	0.043
Mof_H 	H 	0.93233	0.38087	0.14467	0.033
Mof_C 	C 	0.82675	0.24233	0.10007	-0.053
Mof_C 	C 	0.84582	0.22187	0.13357	-0.049
Mof_H 	H 	0.87593	0.23837	0.14477	0.048
Mof_H 	H 	0.76543	0.28037	0.12467	-0.002
Mof_H 	H 	0.70153	0.25317	0.01277	0.16
Mof_O 	O 	0.2202	0.85771	0.40879	-0.402
Mof_O 	O 	0.23338	0.84433	0.30277	-0.401
Mof_C 	C 	0.24412	0.85627	0.36265	0.343
Mof_C 	C 	0.29063	0.86987	0.3832	-0.099
Mof_C 	C 	0.31934	0.86922	0.3334	0.037
Mof_H 	H 	0.3097	0.8603	0.289	0.033
Mof_C 	C 	0.36196	0.8823	0.35266	-0.12
Mof_H 	H 	0.3809	0.8798	0.3217	0.083
Mof_C 	C 	0.37761	0.89877	0.4155	0.088
Mof_C 	C 	0.34868	0.89894	0.46495	-0.122
Mof_H 	H 	0.3584	0.9085	0.5091	0.073
Mof_C 	C 	0.30547	0.88446	0.44602	0.042
Mof_H 	H 	0.2858	0.8848	0.478	0.032
Mof_C 	C 	0.42434	0.91776	0.4334	-0.054
Mof_C 	C 	0.4448	0.95729	0.4669	-0.05
Mof_H 	H 	0.4283	0.9709	0.4781	0.047
Mof_H 	H 	0.3863	0.8184	0.458	-0.003
Mof_H 	H 	0.4135	0.7817	0.3461	0.159
Mof_O 	O 	0.88687	0.19104	0.74212	-0.403
Mof_O 	O 	0.90005	0.17766	0.6361	-0.402
Mof_C 	C 	0.91079	0.1896	0.69598	0.342
Mof_C 	C 	0.9573	0.2032	0.71653	-0.1
Mof_C 	C 	0.98601	0.20255	0.66673	0.036
Mof_H 	H 	0.97637	0.19363	0.62233	0.032
Mof_C 	C 	0.02863	0.21563	0.68599	-0.121
Mof_H 	H 	0.04757	0.21313	0.65503	0.082
Mof_C 	C 	0.04428	0.2321	0.74883	0.087
Mof_C 	C 	0.01535	0.23227	0.79828	-0.122
Mof_H 	H 	0.02507	0.24183	0.84243	0.073
Mof_C 	C 	0.97214	0.21779	0.77935	0.042
Mof_H 	H 	0.95247	0.21813	0.81133	0.033
Mof_C 	C 	0.09101	0.25109	0.76673	-0.054
Mof_C 	C 	0.11147	0.29062	0.80023	-0.05
Mof_H 	H 	0.09497	0.30423	0.81143	0.047
Mof_H 	H 	0.05297	0.15173	0.79133	-0.003
Mof_H 	H 	0.08017	0.11503	0.67943	0.159
Mof_O 	O 	0.55353	0.52438	0.07546	-0.403
Mof_O 	O 	0.56671	0.511	0.96944	-0.402
Mof_C 	C 	0.57745	0.52294	0.02932	0.342
Mof_C 	C 	0.62396	0.53654	0.04987	-0.1
Mof_C 	C 	0.65267	0.53589	7e-05	0.036
Mof_H 	H 	0.64303	0.52697	0.95567	0.032
Mof_C 	C 	0.69529	0.54897	0.01933	-0.121
Mof_H 	H 	0.71423	0.54647	0.98837	0.082
Mof_C 	C 	0.71094	0.56544	0.08217	0.087
Mof_C 	C 	0.68201	0.56561	0.13162	-0.123
Mof_H 	H 	0.69173	0.57517	0.17577	0.073
Mof_C 	C 	0.6388	0.55113	0.11269	0.042
Mof_H 	H 	0.61913	0.55147	0.14467	0.032
Mof_C 	C 	0.75767	0.58443	0.10007	-0.054
Mof_C 	C 	0.77813	0.62396	0.13357	-0.05
Mof_H 	H 	0.76163	0.63757	0.14477	0.047
Mof_H 	H 	0.71963	0.48507	0.12467	-0.003
Mof_H 	H 	0.74683	0.44837	0.01277	0.159
Mof_O 	O 	0.14229	0.36249	0.40879	-0.403
Mof_O 	O 	0.15567	0.38905	0.30277	-0.402
Mof_C 	C 	0.14373	0.38785	0.36265	0.342
Mof_C 	C 	0.13013	0.42076	0.3832	-0.1
Mof_C 	C 	0.13078	0.45012	0.3334	0.036
Mof_H 	H 	0.1397	0.4494	0.289	0.032
Mof_C 	C 	0.1177	0.47966	0.35266	-0.121
Mof_H 	H 	0.1202	0.5011	0.3217	0.082
Mof_C 	C 	0.10123	0.47884	0.4155	0.087
Mof_C 	C 	0.10106	0.44974	0.46495	-0.123
Mof_H 	H 	0.0915	0.4499	0.5091	0.073
Mof_C 	C 	0.11554	0.42101	0.44602	0.042
Mof_H 	H 	0.1152	0.401	0.478	0.032
Mof_C 	C 	0.08224	0.50658	0.4334	-0.054
Mof_C 	C 	0.04271	0.48751	0.4669	-0.05
Mof_H 	H 	0.0291	0.4574	0.4781	0.047
Mof_H 	H 	0.1816	0.5679	0.458	-0.003
Mof_H 	H 	0.2183	0.6318	0.3461	0.159
Mof_O 	O 	0.80896	0.69582	0.74212	-0.403
Mof_O 	O 	0.82234	0.72238	0.6361	-0.402
Mof_C 	C 	0.8104	0.72118	0.69598	0.342
Mof_C 	C 	0.7968	0.75409	0.71653	-0.1
Mof_C 	C 	0.79745	0.78345	0.66673	0.036
Mof_H 	H 	0.80637	0.78273	0.62233	0.032
Mof_C 	C 	0.78437	0.81299	0.68599	-0.121
Mof_H 	H 	0.78687	0.83443	0.65503	0.082
Mof_C 	C 	0.7679	0.81217	0.74883	0.087
Mof_C 	C 	0.76773	0.78307	0.79828	-0.123
Mof_H 	H 	0.75817	0.78323	0.84243	0.073
Mof_C 	C 	0.78221	0.75434	0.77935	0.042
Mof_H 	H 	0.78187	0.73433	0.81133	0.032
Mof_C 	C 	0.74891	0.83991	0.76673	-0.054
Mof_C 	C 	0.70938	0.82084	0.80023	-0.05
Mof_H 	H 	0.69577	0.79073	0.81143	0.047
Mof_H 	H 	0.84827	0.90123	0.79133	-0.003
Mof_H 	H 	0.88497	0.96513	0.67943	0.159
Mof_O 	O 	0.47562	0.02916	0.07546	-0.403
Mof_O 	O 	0.489	0.05572	0.96944	-0.403
Mof_C 	C 	0.47706	0.05452	0.02932	0.342
Mof_C 	C 	0.46346	0.08743	0.04987	-0.101
Mof_C 	C 	0.46411	0.11679	7e-05	0.036
Mof_H 	H 	0.47303	0.11607	0.95567	0.032
Mof_C 	C 	0.45103	0.14633	0.01933	-0.121
Mof_H 	H 	0.45353	0.16777	0.98837	0.082
Mof_C 	C 	0.43456	0.14551	0.08217	0.087
Mof_C 	C 	0.43439	0.11641	0.13162	-0.123
Mof_H 	H 	0.42483	0.11657	0.17577	0.074
Mof_C 	C 	0.44887	0.08768	0.11269	0.042
Mof_H 	H 	0.44853	0.06767	0.14467	0.032
Mof_C 	C 	0.41557	0.17325	0.10007	-0.054
Mof_C 	C 	0.37604	0.15418	0.13357	-0.05
Mof_H 	H 	0.36243	0.12407	0.14477	0.047
Mof_H 	H 	0.51493	0.23457	0.12467	-0.003
Mof_H 	H 	0.55163	0.29847	0.01277	0.159
Mof_O 	O 	0.7798	0.63751	0.59121	-0.403
Mof_O 	O 	0.76662	0.61095	0.69723	-0.402
Mof_C 	C 	0.75588	0.61215	0.63735	0.342
Mof_C 	C 	0.70937	0.57924	0.6168	-0.1
Mof_C 	C 	0.68066	0.54988	0.6666	0.036
Mof_H 	H 	0.6903	0.5506	0.711	0.032
Mof_C 	C 	0.63804	0.52034	0.64734	-0.121
Mof_H 	H 	0.6191	0.4989	0.6783	0.082
Mof_C 	C 	0.62239	0.52116	0.5845	0.087
Mof_C 	C 	0.65132	0.55026	0.53505	-0.123
Mof_H 	H 	0.6416	0.5501	0.4909	0.073
Mof_C 	C 	0.69453	0.57899	0.55398	0.042
Mof_H 	H 	0.7142	0.599	0.522	0.032
Mof_C 	C 	0.57566	0.49342	0.5666	-0.054
Mof_C 	C 	0.5552	0.51249	0.5331	-0.05
Mof_H 	H 	0.5717	0.5426	0.5219	0.047
Mof_H 	H 	0.6137	0.4321	0.542	-0.003
Mof_H 	H 	0.5865	0.3682	0.6539	0.159
Mof_O 	O 	0.44647	0.97084	0.92454	-0.403
Mof_O 	O 	0.43329	0.94428	0.03056	-0.403
Mof_C 	C 	0.42255	0.94548	0.97068	0.342
Mof_C 	C 	0.37604	0.91257	0.95013	-0.101
Mof_C 	C 	0.34733	0.88321	0.99993	0.036
Mof_H 	H 	0.35697	0.88393	0.04433	0.032
Mof_C 	C 	0.30471	0.85367	0.98067	-0.121
Mof_H 	H 	0.28577	0.83223	0.01163	0.082
Mof_C 	C 	0.28906	0.85449	0.91783	0.087
Mof_C 	C 	0.31799	0.88359	0.86838	-0.123
Mof_H 	H 	0.30827	0.88343	0.82423	0.074
Mof_C 	C 	0.3612	0.91232	0.88731	0.042
Mof_H 	H 	0.38087	0.93233	0.85533	0.032
Mof_C 	C 	0.24233	0.82675	0.89993	-0.054
Mof_C 	C 	0.22187	0.84582	0.86643	-0.05
Mof_H 	H 	0.23837	0.87593	0.85523	0.047
Mof_H 	H 	0.28037	0.76543	0.87533	-0.003
Mof_H 	H 	0.25317	0.70153	0.98723	0.159
Mof_O 	O 	0.11313	0.30418	0.25788	-0.403
Mof_O 	O 	0.09995	0.27762	0.3639	-0.402
Mof_C 	C 	0.08921	0.27882	0.30402	0.342
Mof_C 	C 	0.0427	0.24591	0.28347	-0.1
Mof_C 	C 	0.01399	0.21655	0.33327	0.035
Mof_H 	H 	0.02363	0.21727	0.37767	0.032
Mof_C 	C 	0.97137	0.18701	0.31401	-0.12
Mof_H 	H 	0.95243	0.16557	0.34497	0.082
Mof_C 	C 	0.95572	0.18783	0.25117	0.087
Mof_C 	C 	0.98465	0.21693	0.20172	-0.122
Mof_H 	H 	0.97493	0.21677	0.15757	0.073
Mof_C 	C 	0.02786	0.24566	0.22065	0.042
Mof_H 	H 	0.04753	0.26567	0.18867	0.033
Mof_C 	C 	0.90899	0.16009	0.23327	-0.054
Mof_C 	C 	0.88853	0.17916	0.19977	-0.05
Mof_H 	H 	0.90503	0.20927	0.18857	0.047
Mof_H 	H 	0.94703	0.09877	0.20867	-0.003
Mof_H 	H 	0.91983	0.03487	0.32057	0.159
Mof_O 	O 	0.85771	0.2202	0.59121	-0.403
Mof_O 	O 	0.84433	0.23338	0.69723	-0.402
Mof_C 	C 	0.85627	0.24412	0.63735	0.342
Mof_C 	C 	0.86987	0.29063	0.6168	-0.1
Mof_C 	C 	0.86922	0.31934	0.6666	0.036
Mof_H 	H 	0.8603	0.3097	0.711	0.032
Mof_C 	C 	0.8823	0.36196	0.64734	-0.121
Mof_H 	H 	0.8798	0.3809	0.6783	0.082
Mof_C 	C 	0.89877	0.37761	0.5845	0.087
Mof_C 	C 	0.89894	0.34868	0.53505	-0.123
Mof_H 	H 	0.9085	0.3584	0.4909	0.073
Mof_C 	C 	0.88446	0.30547	0.55398	0.042
Mof_H 	H 	0.8848	0.2858	0.522	0.032
Mof_C 	C 	0.91776	0.42434	0.5666	-0.054
Mof_C 	C 	0.95729	0.4448	0.5331	-0.05
Mof_H 	H 	0.9709	0.4283	0.5219	0.047
Mof_H 	H 	0.8184	0.3863	0.542	-0.003
Mof_H 	H 	0.7817	0.4135	0.6539	0.159
Mof_O 	O 	0.52438	0.55353	0.92454	-0.403
Mof_O 	O 	0.511	0.56671	0.03056	-0.402
Mof_C 	C 	0.52294	0.57745	0.97068	0.342
Mof_C 	C 	0.53654	0.62396	0.95013	-0.1
Mof_C 	C 	0.53589	0.65267	0.99993	0.036
Mof_H 	H 	0.52697	0.64303	0.04433	0.032
Mof_C 	C 	0.54897	0.69529	0.98067	-0.121
Mof_H 	H 	0.54647	0.71423	0.01163	0.082
Mof_C 	C 	0.56544	0.71094	0.91783	0.087
Mof_C 	C 	0.56561	0.68201	0.86838	-0.123
Mof_H 	H 	0.57517	0.69173	0.82423	0.073
Mof_C 	C 	0.55113	0.6388	0.88731	0.042
Mof_H 	H 	0.55147	0.61913	0.85533	0.032
Mof_C 	C 	0.58443	0.75767	0.89993	-0.054
Mof_C 	C 	0.62396	0.77813	0.86643	-0.05
Mof_H 	H 	0.63757	0.76163	0.85523	0.047
Mof_H 	H 	0.48507	0.71963	0.87533	-0.003
Mof_H 	H 	0.44837	0.74683	0.98723	0.159
Mof_O 	O 	0.19104	0.88687	0.25788	-0.403
Mof_O 	O 	0.17766	0.90005	0.3639	-0.402
Mof_C 	C 	0.1896	0.91079	0.30402	0.342
Mof_C 	C 	0.2032	0.9573	0.28347	-0.1
Mof_C 	C 	0.20255	0.98601	0.33327	0.036
Mof_H 	H 	0.19363	0.97637	0.37767	0.032
Mof_C 	C 	0.21563	0.02863	0.31401	-0.121
Mof_H 	H 	0.21313	0.04757	0.34497	0.082
Mof_C 	C 	0.2321	0.04428	0.25117	0.087
Mof_C 	C 	0.23227	0.01535	0.20172	-0.122
Mof_H 	H 	0.24183	0.02507	0.15757	0.073
Mof_C 	C 	0.21779	0.97214	0.22065	0.042
Mof_H 	H 	0.21813	0.95247	0.18867	0.033
Mof_C 	C 	0.25109	0.09101	0.23327	-0.054
Mof_C 	C 	0.29062	0.11147	0.19977	-0.05
Mof_H 	H 	0.30423	0.09497	0.18857	0.047
Mof_H 	H 	0.15173	0.05297	0.20867	-0.003
Mof_H 	H 	0.11503	0.08017	0.32057	0.159
Mof_O 	O 	0.36249	0.14229	0.59121	-0.403
Mof_O 	O 	0.38905	0.15567	0.69723	-0.402
Mof_C 	C 	0.38785	0.14373	0.63735	0.342
Mof_C 	C 	0.42076	0.13013	0.6168	-0.1
Mof_C 	C 	0.45012	0.13078	0.6666	0.036
Mof_H 	H 	0.4494	0.1397	0.711	0.032
Mof_C 	C 	0.47966	0.1177	0.64734	-0.121
Mof_H 	H 	0.5011	0.1202	0.6783	0.082
Mof_C 	C 	0.47884	0.10123	0.5845	0.087
Mof_C 	C 	0.44974	0.10106	0.53505	-0.123
Mof_H 	H 	0.4499	0.0915	0.4909	0.073
Mof_C 	C 	0.42101	0.11554	0.55398	0.042
Mof_H 	H 	0.401	0.1152	0.522	0.032
Mof_C 	C 	0.50658	0.08224	0.5666	-0.054
Mof_C 	C 	0.48751	0.04271	0.5331	-0.05
Mof_H 	H 	0.4574	0.0291	0.5219	0.047
Mof_H 	H 	0.5679	0.1816	0.542	-0.003
Mof_H 	H 	0.6318	0.2183	0.6539	0.159
Mof_O 	O 	0.02916	0.47562	0.92454	-0.403
Mof_O 	O 	0.05572	0.489	0.03056	-0.403
Mof_C 	C 	0.05452	0.47706	0.97068	0.342
Mof_C 	C 	0.08743	0.46346	0.95013	-0.101
Mof_C 	C 	0.11679	0.46411	0.99993	0.036
Mof_H 	H 	0.11607	0.47303	0.04433	0.032
Mof_C 	C 	0.14633	0.45103	0.98067	-0.121
Mof_H 	H 	0.16777	0.45353	0.01163	0.082
Mof_C 	C 	0.14551	0.43456	0.91783	0.087
Mof_C 	C 	0.11641	0.43439	0.86838	-0.123
Mof_H 	H 	0.11657	0.42483	0.82423	0.074
Mof_C 	C 	0.08768	0.44887	0.88731	0.042
Mof_H 	H 	0.06767	0.44853	0.85533	0.032
Mof_C 	C 	0.17325	0.41557	0.89993	-0.054
Mof_C 	C 	0.15418	0.37604	0.86643	-0.05
Mof_H 	H 	0.12407	0.36243	0.85523	0.047
Mof_H 	H 	0.23457	0.51493	0.87533	-0.003
Mof_H 	H 	0.29847	0.55163	0.98723	0.159
Mof_O 	O 	0.69582	0.80896	0.25788	-0.403
Mof_O 	O 	0.72238	0.82234	0.3639	-0.402
Mof_C 	C 	0.72118	0.8104	0.30402	0.342
Mof_C 	C 	0.75409	0.7968	0.28347	-0.1
Mof_C 	C 	0.78345	0.79745	0.33327	0.036
Mof_H 	H 	0.78273	0.80637	0.37767	0.032
Mof_C 	C 	0.81299	0.78437	0.31401	-0.121
Mof_H 	H 	0.83443	0.78687	0.34497	0.082
Mof_C 	C 	0.81217	0.7679	0.25117	0.087
Mof_C 	C 	0.78307	0.76773	0.20172	-0.123
Mof_H 	H 	0.78323	0.75817	0.15757	0.073
Mof_C 	C 	0.75434	0.78221	0.22065	0.042
Mof_H 	H 	0.73433	0.78187	0.18867	0.032
Mof_C 	C 	0.83991	0.74891	0.23327	-0.054
Mof_C 	C 	0.82084	0.70938	0.19977	-0.05
Mof_H 	H 	0.79073	0.69577	0.18857	0.047
Mof_H 	H 	0.90123	0.84827	0.20867	-0.003
Mof_H 	H 	0.96513	0.88497	0.32057	0.159
Mof_O 	O 	0.36249	0.2202	0.59121	-0.403
Mof_O 	O 	0.38905	0.23338	0.69723	-0.402
Mof_C 	C 	0.38785	0.24412	0.63735	0.342
Mof_C 	C 	0.42076	0.29063	0.6168	-0.1
Mof_C 	C 	0.45012	0.31934	0.6666	0.036
Mof_H 	H 	0.4494	0.3097	0.711	0.032
Mof_C 	C 	0.47966	0.36196	0.64734	-0.121
Mof_H 	H 	0.5011	0.3809	0.6783	0.082
Mof_C 	C 	0.47884	0.37761	0.5845	0.087
Mof_C 	C 	0.44974	0.34868	0.53505	-0.123
Mof_H 	H 	0.4499	0.3584	0.4909	0.073
Mof_C 	C 	0.42101	0.30547	0.55398	0.042
Mof_H 	H 	0.401	0.2858	0.522	0.032
Mof_C 	C 	0.50658	0.42434	0.5666	-0.054
Mof_C 	C 	0.48751	0.4448	0.5331	-0.05
Mof_H 	H 	0.4574	0.4283	0.5219	0.047
Mof_H 	H 	0.5679	0.3863	0.542	-0.003
Mof_H 	H 	0.6318	0.4135	0.6539	0.159
Mof_O 	O 	0.02916	0.55353	0.92454	-0.403
Mof_O 	O 	0.05572	0.56671	0.03056	-0.403
Mof_C 	C 	0.05452	0.57745	0.97068	0.342
Mof_C 	C 	0.08743	0.62396	0.95013	-0.101
Mof_C 	C 	0.11679	0.65267	0.99993	0.036
Mof_H 	H 	0.11607	0.64303	0.04433	0.032
Mof_C 	C 	0.14633	0.69529	0.98067	-0.121
Mof_H 	H 	0.16777	0.71423	0.01163	0.082
Mof_C 	C 	0.14551	0.71094	0.91783	0.087
Mof_C 	C 	0.11641	0.68201	0.86838	-0.123
Mof_H 	H 	0.11657	0.69173	0.82423	0.074
Mof_C 	C 	0.08768	0.6388	0.88731	0.042
Mof_H 	H 	0.06767	0.61913	0.85533	0.032
Mof_C 	C 	0.17325	0.75767	0.89993	-0.054
Mof_C 	C 	0.15418	0.77813	0.86643	-0.05
Mof_H 	H 	0.12407	0.76163	0.85523	0.047
Mof_H 	H 	0.23457	0.71963	0.87533	-0.003
Mof_H 	H 	0.29847	0.74683	0.98723	0.159
Mof_O 	O 	0.69582	0.88687	0.25788	-0.403
Mof_O 	O 	0.72238	0.90005	0.3639	-0.402
Mof_C 	C 	0.72118	0.91079	0.30402	0.342
Mof_C 	C 	0.75409	0.9573	0.28347	-0.1
Mof_C 	C 	0.78345	0.98601	0.33327	0.035
Mof_H 	H 	0.78273	0.97637	0.37767	0.032
Mof_C 	C 	0.81299	0.02863	0.31401	-0.12
Mof_H 	H 	0.83443	0.04757	0.34497	0.082
Mof_C 	C 	0.81217	0.04428	0.25117	0.087
Mof_C 	C 	0.78307	0.01535	0.20172	-0.122
Mof_H 	H 	0.78323	0.02507	0.15757	0.073
Mof_C 	C 	0.75434	0.97214	0.22065	0.042
Mof_H 	H 	0.73433	0.95247	0.18867	0.033
Mof_C 	C 	0.83991	0.09101	0.23327	-0.054
Mof_C 	C 	0.82084	0.11147	0.19977	-0.05
Mof_H 	H 	0.79073	0.09497	0.18857	0.047
Mof_H 	H 	0.90123	0.05297	0.20867	-0.003
Mof_H 	H 	0.96513	0.08017	0.32057	0.159
Mof_O 	O 	0.7798	0.14229	0.59121	-0.403
Mof_O 	O 	0.76662	0.15567	0.69723	-0.402
Mof_C 	C 	0.75588	0.14373	0.63735	0.342
Mof_C 	C 	0.70937	0.13013	0.6168	-0.1
Mof_C 	C 	0.68066	0.13078	0.6666	0.036
Mof_H 	H 	0.6903	0.1397	0.711	0.032
Mof_C 	C 	0.63804	0.1177	0.64734	-0.121
Mof_H 	H 	0.6191	0.1202	0.6783	0.082
Mof_C 	C 	0.62239	0.10123	0.5845	0.087
Mof_C 	C 	0.65132	0.10106	0.53505	-0.123
Mof_H 	H 	0.6416	0.0915	0.4909	0.073
Mof_C 	C 	0.69453	0.11554	0.55398	0.042
Mof_H 	H 	0.7142	0.1152	0.522	0.032
Mof_C 	C 	0.57566	0.08224	0.5666	-0.054
Mof_C 	C 	0.5552	0.04271	0.5331	-0.05
Mof_H 	H 	0.5717	0.0291	0.5219	0.047
Mof_H 	H 	0.6137	0.1816	0.542	-0.003
Mof_H 	H 	0.5865	0.2183	0.6539	0.159
Mof_O 	O 	0.44647	0.47562	0.92454	-0.403
Mof_O 	O 	0.43329	0.489	0.03056	-0.402
Mof_C 	C 	0.42255	0.47706	0.97068	0.342
Mof_C 	C 	0.37604	0.46346	0.95013	-0.1
Mof_C 	C 	0.34733	0.46411	0.99993	0.036
Mof_H 	H 	0.35697	0.47303	0.04433	0.032
Mof_C 	C 	0.30471	0.45103	0.98067	-0.121
Mof_H 	H 	0.28577	0.45353	0.01163	0.082
Mof_C 	C 	0.28906	0.43456	0.91783	0.087
Mof_C 	C 	0.31799	0.43439	0.86838	-0.123
Mof_H 	H 	0.30827	0.42483	0.82423	0.073
Mof_C 	C 	0.3612	0.44887	0.88731	0.042
Mof_H 	H 	0.38087	0.44853	0.85533	0.032
Mof_C 	C 	0.24233	0.41557	0.89993	-0.054
Mof_C 	C 	0.22187	0.37604	0.86643	-0.05
Mof_H 	H 	0.23837	0.36243	0.85523	0.047
Mof_H 	H 	0.28037	0.51493	0.87533	-0.003
Mof_H 	H 	0.25317	0.55163	0.98723	0.159
Mof_O 	O 	0.11313	0.80896	0.25788	-0.403
Mof_O 	O 	0.09995	0.82234	0.3639	-0.402
Mof_C 	C 	0.08921	0.8104	0.30402	0.342
Mof_C 	C 	0.0427	0.7968	0.28347	-0.1
Mof_C 	C 	0.01399	0.79745	0.33327	0.036
Mof_H 	H 	0.02363	0.80637	0.37767	0.032
Mof_C 	C 	0.97137	0.78437	0.31401	-0.121
Mof_H 	H 	0.95243	0.78687	0.34497	0.082
Mof_C 	C 	0.95572	0.7679	0.25117	0.087
Mof_C 	C 	0.98465	0.76773	0.20172	-0.122
Mof_H 	H 	0.97493	0.75817	0.15757	0.073
Mof_C 	C 	0.02786	0.78221	0.22065	0.042
Mof_H 	H 	0.04753	0.78187	0.18867	0.033
Mof_C 	C 	0.90899	0.74891	0.23327	-0.054
Mof_C 	C 	0.88853	0.70938	0.19977	-0.05
Mof_H 	H 	0.90503	0.69577	0.18857	0.047
Mof_H 	H 	0.94703	0.84827	0.20867	-0.003
Mof_H 	H 	0.91983	0.88497	0.32057	0.159
Mof_O 	O 	0.85771	0.63751	0.59121	-0.403
Mof_O 	O 	0.84433	0.61095	0.69723	-0.402
Mof_C 	C 	0.85627	0.61215	0.63735	0.342
Mof_C 	C 	0.86987	0.57924	0.6168	-0.1
Mof_C 	C 	0.86922	0.54988	0.6666	0.036
Mof_H 	H 	0.8603	0.5506	0.711	0.032
Mof_C 	C 	0.8823	0.52034	0.64734	-0.121
Mof_H 	H 	0.8798	0.4989	0.6783	0.082
Mof_C 	C 	0.89877	0.52116	0.5845	0.087
Mof_C 	C 	0.89894	0.55026	0.53505	-0.123
Mof_H 	H 	0.9085	0.5501	0.4909	0.073
Mof_C 	C 	0.88446	0.57899	0.55398	0.042
Mof_H 	H 	0.8848	0.599	0.522	0.032
Mof_C 	C 	0.91776	0.49342	0.5666	-0.054
Mof_C 	C 	0.95729	0.51249	0.5331	-0.05
Mof_H 	H 	0.9709	0.5426	0.5219	0.047
Mof_H 	H 	0.8184	0.4321	0.542	-0.003
Mof_H 	H 	0.7817	0.3682	0.6539	0.159
Mof_O 	O 	0.52438	0.97084	0.92454	-0.403
Mof_O 	O 	0.511	0.94428	0.03056	-0.403
Mof_C 	C 	0.52294	0.94548	0.97068	0.342
Mof_C 	C 	0.53654	0.91257	0.95013	-0.101
Mof_C 	C 	0.53589	0.88321	0.99993	0.036
Mof_H 	H 	0.52697	0.88393	0.04433	0.032
Mof_C 	C 	0.54897	0.85367	0.98067	-0.121
Mof_H 	H 	0.54647	0.83223	0.01163	0.082
Mof_C 	C 	0.56544	0.85449	0.91783	0.087
Mof_C 	C 	0.56561	0.88359	0.86838	-0.123
Mof_H 	H 	0.57517	0.88343	0.82423	0.074
Mof_C 	C 	0.55113	0.91232	0.88731	0.042
Mof_H 	H 	0.55147	0.93233	0.85533	0.032
Mof_C 	C 	0.58443	0.82675	0.89993	-0.054
Mof_C 	C 	0.62396	0.84582	0.86643	-0.05
Mof_H 	H 	0.63757	0.87593	0.85523	0.047
Mof_H 	H 	0.48507	0.76543	0.87533	-0.003
Mof_H 	H 	0.44837	0.70153	0.98723	0.159
Mof_O 	O 	0.19104	0.30418	0.25788	-0.403
Mof_O 	O 	0.17766	0.27762	0.3639	-0.402
Mof_C 	C 	0.1896	0.27882	0.30402	0.342
Mof_C 	C 	0.2032	0.24591	0.28347	-0.1
Mof_C 	C 	0.20255	0.21655	0.33327	0.036
Mof_H 	H 	0.19363	0.21727	0.37767	0.032
Mof_C 	C 	0.21563	0.18701	0.31401	-0.121
Mof_H 	H 	0.21313	0.16557	0.34497	0.082
Mof_C 	C 	0.2321	0.18783	0.25117	0.087
Mof_C 	C 	0.23227	0.21693	0.20172	-0.123
Mof_H 	H 	0.24183	0.21677	0.15757	0.073
Mof_C 	C 	0.21779	0.24566	0.22065	0.042
Mof_H 	H 	0.21813	0.26567	0.18867	0.032
Mof_C 	C 	0.25109	0.16009	0.23327	-0.054
Mof_C 	C 	0.29062	0.17916	0.19977	-0.05
Mof_H 	H 	0.30423	0.20927	0.18857	0.047
Mof_H 	H 	0.15173	0.09877	0.20867	-0.003
Mof_H 	H 	0.11503	0.03487	0.32057	0.159
Mof_O 	O 	0.2202	0.36249	0.40879	-0.403
Mof_O 	O 	0.23338	0.38905	0.30277	-0.402
Mof_C 	C 	0.24412	0.38785	0.36265	0.342
Mof_C 	C 	0.29063	0.42076	0.3832	-0.1
Mof_C 	C 	0.31934	0.45012	0.3334	0.036
Mof_H 	H 	0.3097	0.4494	0.289	0.032
Mof_C 	C 	0.36196	0.47966	0.35266	-0.121
Mof_H 	H 	0.3809	0.5011	0.3217	0.082
Mof_C 	C 	0.37761	0.47884	0.4155	0.087
Mof_C 	C 	0.34868	0.44974	0.46495	-0.123
Mof_H 	H 	0.3584	0.4499	0.5091	0.073
Mof_C 	C 	0.30547	0.42101	0.44602	0.042
Mof_H 	H 	0.2858	0.401	0.478	0.032
Mof_C 	C 	0.42434	0.50658	0.4334	-0.054
Mof_C 	C 	0.4448	0.48751	0.4669	-0.05
Mof_H 	H 	0.4283	0.4574	0.4781	0.047
Mof_H 	H 	0.3863	0.5679	0.458	-0.003
Mof_H 	H 	0.4135	0.6318	0.3461	0.159
Mof_O 	O 	0.88687	0.69582	0.74212	-0.403
Mof_O 	O 	0.90005	0.72238	0.6361	-0.402
Mof_C 	C 	0.91079	0.72118	0.69598	0.342
Mof_C 	C 	0.9573	0.75409	0.71653	-0.1
Mof_C 	C 	0.98601	0.78345	0.66673	0.035
Mof_H 	H 	0.97637	0.78273	0.62233	0.032
Mof_C 	C 	0.02863	0.81299	0.68599	-0.12
Mof_H 	H 	0.04757	0.83443	0.65503	0.082
Mof_C 	C 	0.04428	0.81217	0.74883	0.087
Mof_C 	C 	0.01535	0.78307	0.79828	-0.122
Mof_H 	H 	0.02507	0.78323	0.84243	0.073
Mof_C 	C 	0.97214	0.75434	0.77935	0.042
Mof_H 	H 	0.95247	0.73433	0.81133	0.033
Mof_C 	C 	0.09101	0.83991	0.76673	-0.054
Mof_C 	C 	0.11147	0.82084	0.80023	-0.05
Mof_H 	H 	0.09497	0.79073	0.81143	0.047
Mof_H 	H 	0.05297	0.90123	0.79133	-0.003
Mof_H 	H 	0.08017	0.96513	0.67943	0.159
Mof_O 	O 	0.55353	0.02916	0.07546	-0.403
Mof_O 	O 	0.56671	0.05572	0.96944	-0.403
Mof_C 	C 	0.57745	0.05452	0.02932	0.342
Mof_C 	C 	0.62396	0.08743	0.04987	-0.101
Mof_C 	C 	0.65267	0.11679	7e-05	0.036
Mof_H 	H 	0.64303	0.11607	0.95567	0.032
Mof_C 	C 	0.69529	0.14633	0.01933	-0.121
Mof_H 	H 	0.71423	0.16777	0.98837	0.082
Mof_C 	C 	0.71094	0.14551	0.08217	0.087
Mof_C 	C 	0.68201	0.11641	0.13162	-0.123
Mof_H 	H 	0.69173	0.11657	0.17577	0.074
Mof_C 	C 	0.6388	0.08768	0.11269	0.042
Mof_H 	H 	0.61913	0.06767	0.14467	0.032
Mof_C 	C 	0.75767	0.17325	0.10007	-0.054
Mof_C 	C 	0.77813	0.15418	0.13357	-0.05
Mof_H 	H 	0.76163	0.12407	0.14477	0.047
Mof_H 	H 	0.71963	0.23457	0.12467	-0.003
Mof_H 	H 	0.74683	0.29847	0.01277	0.159
Mof_O 	O 	0.14229	0.7798	0.40879	-0.403
Mof_O 	O 	0.15567	0.76662	0.30277	-0.402
Mof_C 	C 	0.14373	0.75588	0.36265	0.342
Mof_C 	C 	0.13013	0.70937	0.3832	-0.1
Mof_C 	C 	0.13078	0.68066	0.3334	0.036
Mof_H 	H 	0.1397	0.6903	0.289	0.032
Mof_C 	C 	0.1177	0.63804	0.35266	-0.121
Mof_H 	H 	0.1202	0.6191	0.3217	0.082
Mof_C 	C 	0.10123	0.62239	0.4155	0.087
Mof_C 	C 	0.10106	0.65132	0.46495	-0.123
Mof_H 	H 	0.0915	0.6416	0.5091	0.073
Mof_C 	C 	0.11554	0.69453	0.44602	0.042
Mof_H 	H 	0.1152	0.7142	0.478	0.032
Mof_C 	C 	0.08224	0.57566	0.4334	-0.054
Mof_C 	C 	0.04271	0.5552	0.4669	-0.05
Mof_H 	H 	0.0291	0.5717	0.4781	0.047
Mof_H 	H 	0.1816	0.6137	0.458	-0.003
Mof_H 	H 	0.2183	0.5865	0.3461	0.159
Mof_O 	O 	0.80896	0.11313	0.74212	-0.403
Mof_O 	O 	0.82234	0.09995	0.6361	-0.402
Mof_C 	C 	0.8104	0.08921	0.69598	0.342
Mof_C 	C 	0.7968	0.0427	0.71653	-0.1
Mof_C 	C 	0.79745	0.01399	0.66673	0.036
Mof_H 	H 	0.80637	0.02363	0.62233	0.032
Mof_C 	C 	0.78437	0.97137	0.68599	-0.121
Mof_H 	H 	0.78687	0.95243	0.65503	0.082
Mof_C 	C 	0.7679	0.95572	0.74883	0.087
Mof_C 	C 	0.76773	0.98465	0.79828	-0.122
Mof_H 	H 	0.75817	0.97493	0.84243	0.073
Mof_C 	C 	0.78221	0.02786	0.77935	0.042
Mof_H 	H 	0.78187	0.04753	0.81133	0.033
Mof_C 	C 	0.74891	0.90899	0.76673	-0.054
Mof_C 	C 	0.70938	0.88853	0.80023	-0.05
Mof_H 	H 	0.69577	0.90503	0.81143	0.047
Mof_H 	H 	0.84827	0.94703	0.79133	-0.003
Mof_H 	H 	0.88497	0.91983	0.67943	0.159
Mof_O 	O 	0.47562	0.44647	0.07546	-0.403
Mof_O 	O 	0.489	0.43329	0.96944	-0.402
Mof_C 	C 	0.47706	0.42255	0.02932	0.342
Mof_C 	C 	0.46346	0.37604	0.04987	-0.1
Mof_C 	C 	0.46411	0.34733	7e-05	0.036
Mof_H 	H 	0.47303	0.35697	0.95567	0.032
Mof_C 	C 	0.45103	0.30471	0.01933	-0.121
Mof_H 	H 	0.45353	0.28577	0.98837	0.082
Mof_C 	C 	0.43456	0.28906	0.08217	0.087
Mof_C 	C 	0.43439	0.31799	0.13162	-0.123
Mof_H 	H 	0.42483	0.30827	0.17577	0.073
Mof_C 	C 	0.44887	0.3612	0.11269	0.042
Mof_H 	H 	0.44853	0.38087	0.14467	0.032
Mof_C 	C 	0.41557	0.24233	0.10007	-0.054
Mof_C 	C 	0.37604	0.22187	0.13357	-0.05
Mof_H 	H 	0.36243	0.23837	0.14477	0.047
Mof_H 	H 	0.51493	0.28037	0.12467	-0.003
Mof_H 	H 	0.55163	0.25317	0.01277	0.159
Mof_O 	O 	0.63751	0.85771	0.40879	-0.403
Mof_O 	O 	0.61095	0.84433	0.30277	-0.402
Mof_C 	C 	0.61215	0.85627	0.36265	0.342
Mof_C 	C 	0.57924	0.86987	0.3832	-0.1
Mof_C 	C 	0.54988	0.86922	0.3334	0.036
Mof_H 	H 	0.5506	0.8603	0.289	0.032
Mof_C 	C 	0.52034	0.8823	0.35266	-0.121
Mof_H 	H 	0.4989	0.8798	0.3217	0.082
Mof_C 	C 	0.52116	0.89877	0.4155	0.087
Mof_C 	C 	0.55026	0.89894	0.46495	-0.123
Mof_H 	H 	0.5501	0.9085	0.5091	0.073
Mof_C 	C 	0.57899	0.88446	0.44602	0.042
Mof_H 	H 	0.599	0.8848	0.478	0.032
Mof_C 	C 	0.49342	0.91776	0.4334	-0.054
Mof_C 	C 	0.51249	0.95729	0.4669	-0.05
Mof_H 	H 	0.5426	0.9709	0.4781	0.047
Mof_H 	H 	0.4321	0.8184	0.458	-0.003
Mof_H 	H 	0.3682	0.7817	0.3461	0.159
Mof_O 	O 	0.30418	0.19104	0.74212	-0.403
Mof_O 	O 	0.27762	0.17766	0.6361	-0.402
Mof_C 	C 	0.27882	0.1896	0.69598	0.342
Mof_C 	C 	0.24591	0.2032	0.71653	-0.1
Mof_C 	C 	0.21655	0.20255	0.66673	0.036
Mof_H 	H 	0.21727	0.19363	0.62233	0.032
Mof_C 	C 	0.18701	0.21563	0.68599	-0.121
Mof_H 	H 	0.16557	0.21313	0.65503	0.082
Mof_C 	C 	0.18783	0.2321	0.74883	0.087
Mof_C 	C 	0.21693	0.23227	0.79828	-0.123
Mof_H 	H 	0.21677	0.24183	0.84243	0.073
Mof_C 	C 	0.24566	0.21779	0.77935	0.042
Mof_H 	H 	0.26567	0.21813	0.81133	0.032
Mof_C 	C 	0.16009	0.25109	0.76673	-0.054
Mof_C 	C 	0.17916	0.29062	0.80023	-0.05
Mof_H 	H 	0.20927	0.30423	0.81143	0.047
Mof_H 	H 	0.09877	0.15173	0.79133	-0.003
Mof_H 	H 	0.03487	0.11503	0.67943	0.159
Mof_O 	O 	0.97084	0.52438	0.07546	-0.403
Mof_O 	O 	0.94428	0.511	0.96944	-0.403
Mof_C 	C 	0.94548	0.52294	0.02932	0.342
Mof_C 	C 	0.91257	0.53654	0.04987	-0.101
Mof_C 	C 	0.88321	0.53589	7e-05	0.036
Mof_H 	H 	0.88393	0.52697	0.95567	0.032
Mof_C 	C 	0.85367	0.54897	0.01933	-0.121
Mof_H 	H 	0.83223	0.54647	0.98837	0.082
Mof_C 	C 	0.85449	0.56544	0.08217	0.087
Mof_C 	C 	0.88359	0.56561	0.13162	-0.123
Mof_H 	H 	0.88343	0.57517	0.17577	0.074
Mof_C 	C 	0.91232	0.55113	0.11269	0.042
Mof_H 	H 	0.93233	0.55147	0.14467	0.032
Mof_C 	C 	0.82675	0.58443	0.10007	-0.054
Mof_C 	C 	0.84582	0.62396	0.13357	-0.05
Mof_H 	H 	0.87593	0.63757	0.14477	0.047
Mof_H 	H 	0.76543	0.48507	0.12467	-0.003
Mof_H 	H 	0.70153	0.44837	0.01277	0.159
Mof_Cu	Cu	0.6817	0.84085	0.39427	0.902
Mof_Cu	Cu	0.34837	0.17418	0.7276	0.902
Mof_Cu	Cu	0.01503	0.50752	0.06094	0.902
Mof_Cu	Cu	0.15915	0.84085	0.39427	0.902
Mof_Cu	Cu	0.82582	0.17418	0.7276	0.902
Mof_Cu	Cu	0.49248	0.50752	0.06094	0.902
Mof_Cu	Cu	0.15915	0.3183	0.39427	0.902
Mof_Cu	Cu	0.82582	0.65163	0.7276	0.902
Mof_Cu	Cu	0.49248	0.98497	0.06094	0.902
Mof_Cu	Cu	0.84085	0.6817	0.60573	0.902
Mof_Cu	Cu	0.50752	0.01503	0.93906	0.902
Mof_Cu	Cu	0.17418	0.34837	0.2724	0.902
Mof_Cu	Cu	0.84085	0.15915	0.60573	0.902
Mof_Cu	Cu	0.50752	0.49248	0.93906	0.902
Mof_Cu	Cu	0.17418	0.82582	0.2724	0.902
Mof_Cu	Cu	0.3183	0.15915	0.60573	0.902
Mof_Cu	Cu	0.98497	0.49248	0.93906	0.902
Mof_Cu	Cu	0.65163	0.82582	0.2724	0.902
Mof_O 	O 	0.42854	0.57146	0.3833	-0.225
Mof_C 	C 	0.48893	0.51107	0.4849	0.01
Mof_C 	C 	0.44941	0.55059	0.4158	0.117
Mof_C 	C 	0.40956	0.59044	0.4296	0.134
Mof_C 	C 	0.3897	0.6103	0.3741	-0.441
Mof_H 	H 	0.3756	0.6244	0.397	0.147
Mof_O 	O 	0.09521	0.90479	0.71663	-0.225
Mof_C 	C 	0.1556	0.8444	0.81823	0.01
Mof_C 	C 	0.11608	0.88392	0.74913	0.117
Mof_C 	C 	0.07623	0.92377	0.76293	0.134
Mof_C 	C 	0.05637	0.94363	0.70743	-0.441
Mof_H 	H 	0.04227	0.95773	0.73033	0.147
Mof_O 	O 	0.76187	0.23813	0.04997	-0.225
Mof_C 	C 	0.82226	0.17774	0.15157	0.01
Mof_C 	C 	0.78274	0.21726	0.08247	0.117
Mof_C 	C 	0.74289	0.25711	0.09627	0.134
Mof_C 	C 	0.72303	0.27697	0.04077	-0.441
Mof_H 	H 	0.70893	0.29107	0.06367	0.147
Mof_O 	O 	0.42854	0.85708	0.3833	-0.225
Mof_C 	C 	0.48893	0.97786	0.4849	0.01
Mof_C 	C 	0.44941	0.89882	0.4158	0.117
Mof_C 	C 	0.40956	0.81912	0.4296	0.134
Mof_C 	C 	0.3897	0.7794	0.3741	-0.441
Mof_H 	H 	0.3756	0.7512	0.397	0.147
Mof_O 	O 	0.09521	0.19041	0.71663	-0.225
Mof_C 	C 	0.1556	0.31119	0.81823	0.01
Mof_C 	C 	0.11608	0.23215	0.74913	0.117
Mof_C 	C 	0.07623	0.15245	0.76293	0.134
Mof_C 	C 	0.05637	0.11273	0.70743	-0.441
Mof_H 	H 	0.04227	0.08453	0.73033	0.147
Mof_O 	O 	0.76187	0.52375	0.04997	-0.225
Mof_C 	C 	0.82226	0.64453	0.15157	0.01
Mof_C 	C 	0.78274	0.56549	0.08247	0.117
Mof_C 	C 	0.74289	0.48579	0.09627	0.134
Mof_C 	C 	0.72303	0.44607	0.04077	-0.441
Mof_H 	H 	0.70893	0.41787	0.06367	0.147
Mof_O 	O 	0.14292	0.57146	0.3833	-0.225
Mof_C 	C 	0.02214	0.51107	0.4849	0.01
Mof_C 	C 	0.10118	0.55059	0.4158	0.117
Mof_C 	C 	0.18088	0.59044	0.4296	0.134
Mof_C 	C 	0.2206	0.6103	0.3741	-0.441
Mof_H 	H 	0.2488	0.6244	0.397	0.147
Mof_O 	O 	0.80959	0.90479	0.71663	-0.225
Mof_C 	C 	0.68881	0.8444	0.81823	0.01
Mof_C 	C 	0.76785	0.88392	0.74913	0.117
Mof_C 	C 	0.84755	0.92377	0.76293	0.134
Mof_C 	C 	0.88727	0.94363	0.70743	-0.441
Mof_H 	H 	0.91547	0.95773	0.73033	0.147
Mof_O 	O 	0.47625	0.23813	0.04997	-0.225
Mof_C 	C 	0.35547	0.17774	0.15157	0.01
Mof_C 	C 	0.43451	0.21726	0.08247	0.117
Mof_C 	C 	0.51421	0.25711	0.09627	0.134
Mof_C 	C 	0.55393	0.27697	0.04077	-0.441
Mof_H 	H 	0.58213	0.29107	0.06367	0.147
Mof_O 	O 	0.57146	0.42854	0.6167	-0.225
Mof_C 	C 	0.51107	0.48893	0.5151	0.01
Mof_C 	C 	0.55059	0.44941	0.5842	0.117
Mof_C 	C 	0.59044	0.40956	0.5704	0.134
Mof_C 	C 	0.6103	0.3897	0.6259	-0.441
Mof_H 	H 	0.6244	0.3756	0.603	0.147
Mof_O 	O 	0.23813	0.76187	0.95003	-0.225
Mof_C 	C 	0.17774	0.82226	0.84843	0.01
Mof_C 	C 	0.21726	0.78274	0.91753	0.117
Mof_C 	C 	0.25711	0.74289	0.90373	0.134
Mof_C 	C 	0.27697	0.72303	0.95923	-0.441
Mof_H 	H 	0.29107	0.70893	0.93633	0.147
Mof_O 	O 	0.90479	0.09521	0.28337	-0.225
Mof_C 	C 	0.8444	0.1556	0.18177	0.01
Mof_C 	C 	0.88392	0.11608	0.25087	0.117
Mof_C 	C 	0.92377	0.07623	0.23707	0.134
Mof_C 	C 	0.94363	0.05637	0.29257	-0.441
Mof_H 	H 	0.95773	0.04227	0.26967	0.147
Mof_O 	O 	0.85708	0.42854	0.6167	-0.225
Mof_C 	C 	0.97786	0.48893	0.5151	0.01
Mof_C 	C 	0.89882	0.44941	0.5842	0.117
Mof_C 	C 	0.81912	0.40956	0.5704	0.134
Mof_C 	C 	0.7794	0.3897	0.6259	-0.441
Mof_H 	H 	0.7512	0.3756	0.603	0.147
Mof_O 	O 	0.52375	0.76187	0.95003	-0.225
Mof_C 	C 	0.64453	0.82226	0.84843	0.01
Mof_C 	C 	0.56549	0.78274	0.91753	0.117
Mof_C 	C 	0.48579	0.74289	0.90373	0.134
Mof_C 	C 	0.44607	0.72303	0.95923	-0.441
Mof_H 	H 	0.41787	0.70893	0.93633	0.147
Mof_O 	O 	0.19041	0.09521	0.28337	-0.225
Mof_C 	C 	0.31119	0.1556	0.18177	0.01
Mof_C 	C 	0.23215	0.11608	0.25087	0.117
Mof_C 	C 	0.15245	0.07623	0.23707	0.134
Mof_C 	C 	0.11273	0.05637	0.29257	-0.441
Mof_H 	H 	0.08453	0.04227	0.26967	0.147
Mof_O 	O 	0.57146	0.14292	0.6167	-0.225
Mof_C 	C 	0.51107	0.02214	0.5151	0.01
Mof_C 	C 	0.55059	0.10118	0.5842	0.117
Mof_C 	C 	0.59044	0.18088	0.5704	0.134
Mof_C 	C 	0.6103	0.2206	0.6259	-0.441
Mof_H 	H 	0.6244	0.2488	0.603	0.147
Mof_O 	O 	0.23813	0.47625	0.95003	-0.225
Mof_C 	C 	0.17774	0.35547	0.84843	0.01
Mof_C 	C 	0.21726	0.43451	0.91753	0.117
Mof_C 	C 	0.25711	0.51421	0.90373	0.134
Mof_C 	C 	0.27697	0.55393	0.95923	-0.441
Mof_H 	H 	0.29107	0.58213	0.93633	0.147
Mof_O 	O 	0.90479	0.80959	0.28337	-0.225
Mof_C 	C 	0.8444	0.68881	0.18177	0.01
Mof_C 	C 	0.88392	0.76785	0.25087	0.117
Mof_C 	C 	0.92377	0.84755	0.23707	0.134
Mof_C 	C 	0.94363	0.88727	0.29257	-0.441
Mof_H 	H 	0.95773	0.91547	0.26967	0.147
_end
