# CIF file generated by openbabel 3.1.0, see https://openbabel.org
data_I
_chemical_name_common 'image0'
_cell_length_a 5.0986
_cell_length_b 10.4943
_cell_length_c 12.4457
_cell_angle_alpha 87.614
_cell_angle_beta 87.258
_cell_angle_gamma 89.994
_space_group_name_H-M_alt 'P 1'
_space_group_name_Hall 'P 1'
loop_
    _symmetry_equiv_pos_as_xyz
    x,y,z
loop_
    _atom_site_label
    _atom_site_type_symbol
    _atom_site_fract_x
    _atom_site_fract_y
    _atom_site_fract_z
    _atom_site_occupancy
    Zn1      Zn       0.21169    0.35799    0.99839    1.000
    Zn2      Zn       0.71971    0.14534    0.99755    1.000
    Zn3      Zn       0.80521    0.39410    0.39234    1.000
    P1       P        0.24820    0.11324    0.86211    1.000
    P2       P        0.71190    0.39338    0.13820    1.000
    P3       P        0.29780    0.32839    0.52299    1.000
    O1       O        0.42150    0.39960    0.11620    1.000
    O2       O        0.83940    0.52500    0.12250    1.000
    O3       O        0.36980    0.19690    0.94860    1.000
    O4       O        0.85400    0.30610    0.05440    1.000
    O5       O        0.33760    0.97690    0.88610    1.000
    O6       O        0.95050    0.12750    0.87360    1.000
    O7       O        0.58930    0.30520    0.50270    1.000
    O8       O        0.25170    0.42470    0.60920    1.000
    O9       O        0.75070    0.33540    0.24980    1.000
    O10      O        0.17090    0.36400    0.41870    1.000
    O11      O        0.35360    0.15750    0.75260    1.000
    O12      O        0.16910    0.20160    0.56940    1.000
    H1       H        0.23510    0.18030    0.62620    1.000
    Zn4      Zn       0.78831    0.64201    0.00161    1.000
    Zn5      Zn       0.28029    0.85466    0.00245    1.000
    Zn6      Zn       0.19479    0.60590    0.60766    1.000
    P4       P        0.75180    0.88676    0.13789    1.000
    P5       P        0.28810    0.60662    0.86180    1.000
    P6       P        0.70220    0.67161    0.47701    1.000
    O13      O        0.57850    0.60040    0.88380    1.000
    O14      O        0.16060    0.47500    0.87750    1.000
    O15      O        0.63020    0.80310    0.05140    1.000
    O16      O        0.14600    0.69390    0.94560    1.000
    O17      O        0.66240    0.02310    0.11390    1.000
    O18      O        0.04950    0.87250    0.12640    1.000
    O19      O        0.41070    0.69480    0.49730    1.000
    O20      O        0.74830    0.57530    0.39080    1.000
    O21      O        0.24930    0.66460    0.75020    1.000
    O22      O        0.82910    0.63600    0.58130    1.000
    O23      O        0.64640    0.84250    0.24740    1.000
    O24      O        0.83090    0.79840    0.43060    1.000
    H2       H        0.76490    0.81970    0.37380    1.000
