data_functionalizedCrystal
_audit_creation_method	'EQeq! by Chris Wilmer'
_symmetry_space_group_name_H-M	'P1'
_symmetry_Int_Tables_number	1
_symmetry_cell_setting	triclinic
loop_
_symmetry_equiv_pos_as_xyz
  x,y,z
_cell_length_a	6.0214
_cell_length_b	12.3151
_cell_length_c	23.592
_cell_angle_alpha	90
_cell_angle_beta	90
_cell_angle_gamma	94.013
loop_
_atom_site_label
_atom_site_type_symbol
_atom_site_fract_x
_atom_site_fract_y
_atom_site_fract_z
_atom_site_charge
Mof_Yb	Yb	0.48785	0.39021	0.32782	1.56
Mof_Yb	Yb	0.01215	0.10979	0.82782	1.484
Mof_Yb	Yb	0.51215	0.60979	0.67218	1.561
Mof_Yb	Yb	0.98785	0.89021	0.17218	1.595
Mof_Cu	Cu	-0	0	0.5	0.898
Mof_Cu	Cu	0.5	0.5	-0	0.91
Mof_H 	H 	0.033	0.7744	0.6644	0.018
Mof_H 	H 	0.533	0.2744	0.8356	0.038
Mof_H 	H 	0.6763	0.6412	0.8952	0.058
Mof_H 	H 	0.1763	0.1412	0.6048	0.037
Mof_H 	H 	0.8237	0.8588	0.3952	0.062
Mof_H 	H 	0.39	0.4215	0.7926	0.033
Mof_H 	H 	0.4506	0.1212	0.6715	0.072
Mof_H 	H 	0.89	0.9215	0.7074	0.076
Mof_H 	H 	0.11	0.0785	0.2926	0.004
Mof_H 	H 	0.9506	0.6212	0.8285	0.059
Mof_H 	H 	0.467	0.7256	0.1644	0.035
Mof_H 	H 	0.61	0.5785	0.2074	0.035
Mof_H 	H 	0.967	0.2256	0.3356	0.049
Mof_H 	H 	0.5494	0.8788	0.3285	0.047
Mof_H 	H 	0.3237	0.3588	0.1048	0.045
Mof_H 	H 	0.0494	0.3788	0.1715	0.059
Mof_C 	C 	0.2336	0.4169	0.1019	0.029
Mof_C 	C 	0.8671	0.4292	0.9442	0.001
Mof_C 	C 	0.8891	0.1908	0.306	0.007
Mof_C 	C 	0.6036	0.7686	0.7783	0.343
Mof_C 	C 	0.4656	0.0816	0.4043	-0.038
Mof_C 	C 	0.5344	0.9184	0.5957	-0.045
Mof_C 	C 	0.0344	0.4184	0.9043	-0.059
Mof_C 	C 	0.0682	0.429	0.1421	-0.004
Mof_C 	C 	0.8011	0.6687	0.0919	0.402
Mof_C 	C 	0.4145	0.8271	0.7525	-0.016
Mof_C 	C 	0.3891	0.6908	0.194	0.024
Mof_C 	C 	0.6109	0.3092	0.806	0.025
Mof_C 	C 	0.1036	0.2686	0.7217	0.308
Mof_C 	C 	0.9318	0.571	0.8579	0.036
Mof_C 	C 	0.9656	0.5816	0.0957	-0.033
Mof_C 	C 	0.1527	0.5731	0.2703	-0.04
Mof_C 	C 	0.8156	0.3535	0.9927	0.328
Mof_C 	C 	0.5291	0.4006	0.7815	0.028
Mof_C 	C 	0.8964	0.7314	0.2783	0.352
Mof_C 	C 	0.6329	0.0708	0.4442	-0.047
Mof_C 	C 	0.4709	0.5994	0.2185	0.028
Mof_C 	C 	0.3671	0.9292	0.5558	0.017
Mof_C 	C 	0.9145	0.3271	0.7475	0.025
Mof_C 	C 	0.9709	0.0994	0.2815	0.063
Mof_C 	C 	0.6844	0.1465	0.4927	0.298
Mof_C 	C 	0.6989	0.8313	0.5919	0.402
Mof_C 	C 	0.0855	0.6729	0.2525	-0.022
Mof_C 	C 	0.4864	0.0114	0.80351	0.36
Mof_C 	C 	0.5682	0.929	0.3579	0.057
Mof_C 	C 	0.7336	0.9169	0.3981	0.015
Mof_C 	C 	0.9864	0.5114	0.69649	0.442
Mof_C 	C 	0.3011	0.1687	0.4081	0.398
Mof_C 	C 	0.1109	0.8092	0.694	0.048
Mof_C 	C 	0.5136	0.9886	0.19649	0.438
Mof_C 	C 	0.3156	0.8535	0.5073	0.282
Mof_C 	C 	0.0136	0.4886	0.30351	0.386
Mof_C 	C 	0.1989	0.3313	0.9081	0.397
Mof_C 	C 	0.6527	0.0731	0.2297	-0.078
Mof_C 	C 	0.0291	0.9006	0.7185	-0.023
Mof_C 	C 	0.8473	0.4269	0.7297	-0.058
Mof_C 	C 	0.5855	0.1729	0.2475	-0.005
Mof_C 	C 	0.4318	0.071	0.6421	-0.04
Mof_C 	C 	0.1329	0.5708	0.0558	-0.025
Mof_C 	C 	0.2664	0.0831	0.6019	0.042
Mof_C 	C 	0.7664	0.5831	0.8981	0.027
Mof_C 	C 	0.3964	0.2314	0.2217	0.338
Mof_C 	C 	0.1844	0.6465	0.0073	0.251
Mof_C 	C 	0.3473	0.9269	0.7703	-0.008
Mof_N 	N 	0.9348	0.5124	0.13935	-0.084
Mof_N 	N 	0.8555	0.0404	0.24251	-0.171
Mof_N 	N 	0.7353	0.5134	0.94069	-0.173
Mof_N 	N 	0.6445	0.4596	0.74251	-0.157
Mof_N 	N 	0.6992	0.2299	0.28774	-0.17
Mof_N 	N 	0.1445	0.9596	0.75749	-0.142
Mof_N 	N 	0.0652	0.4876	0.86065	-0.101
Mof_N 	N 	0.7647	0.9866	0.44069	-0.15
Mof_N 	N 	0.2647	0.4866	0.05931	-0.188
Mof_N 	N 	0.4348	0.0124	0.36065	-0.116
Mof_N 	N 	0.3555	0.5404	0.25749	-0.16
Mof_N 	N 	0.8008	0.2701	0.78774	-0.168
Mof_N 	N 	0.1992	0.7299	0.21226	-0.174
Mof_N 	N 	0.3008	0.7701	0.71226	-0.177
Mof_N 	N 	0.2353	0.0134	0.55931	-0.212
Mof_N 	N 	0.5652	0.9876	0.63935	-0.061
Mof_O 	O 	0.1157	0.4306	0.33704	-0.45
Mof_O 	O 	0.3367	0.2514	0.376	-0.47
Mof_O 	O 	0.8076	0.4777	0.29358	-0.452
Mof_O 	O 	0.1728	0.2966	0.67479	-0.272
Mof_O 	O 	0.6683	0.6899	0.74956	-0.42
Mof_O 	O 	0.8367	0.7514	0.124	-0.47
Mof_O 	O 	0.8317	0.8101	0.24956	-0.424
Mof_O 	O 	0.1403	0.1527	0.43974	-0.35
Mof_O 	O 	0.3272	0.2034	0.17479	-0.286
Mof_O 	O 	0.9049	0.2674	0.99517	-0.24
Mof_O 	O 	0.0951	0.7326	0.00483	-0.254
Mof_O 	O 	0.6775	0.386	0.02945	-0.379
Mof_O 	O 	0.3597	0.3473	0.93974	-0.328
Mof_O 	O 	0.1683	0.1899	0.75044	-0.418
Mof_O 	O 	0.1775	0.886	0.47055	-0.337
Mof_O 	O 	0.6157	0.9306	0.16296	-0.456
Mof_O 	O 	0.4049	0.7674	0.50483	-0.249
Mof_O 	O 	0.8843	0.5694	0.66296	-0.45
Mof_O 	O 	0.6403	0.6527	0.06026	-0.341
Mof_O 	O 	0.1924	0.5223	0.70642	-0.491
Mof_O 	O 	0.8272	0.7034	0.32521	-0.27
Mof_O 	O 	0.5951	0.2326	0.49517	-0.251
Mof_O 	O 	0.3076	0.9777	0.20642	-0.465
Mof_O 	O 	0.8597	0.8473	0.56026	-0.318
Mof_O 	O 	0.6728	0.7966	0.82521	-0.256
Mof_O 	O 	0.8225	0.114	0.52945	-0.343
Mof_O 	O 	0.6924	0.0223	0.79358	-0.449
Mof_O 	O 	0.3225	0.614	0.97055	-0.309
Mof_O 	O 	0.6633	0.7486	0.624	-0.464
Mof_O 	O 	0.3843	0.0694	0.83704	-0.436
Mof_O 	O 	0.1633	0.2486	0.876	-0.463
Mof_O 	O 	0.3317	0.3101	0.25044	-0.426
_end
