# CIF file generated by openbabel 3.1.0, see https://openbabel.org
data_I
_chemical_name_common 'image0'
_cell_length_a 14.7243
_cell_length_b 12.9861
_cell_length_c 12.7671
_cell_angle_alpha 90
_cell_angle_beta 105.008
_cell_angle_gamma 90
_space_group_name_H-M_alt 'P 1'
_space_group_name_Hall 'P 1'
loop_
    _symmetry_equiv_pos_as_xyz
    x,y,z
loop_
    _atom_site_label
    _atom_site_type_symbol
    _atom_site_fract_x
    _atom_site_fract_y
    _atom_site_fract_z
    _atom_site_occupancy
    Er1      Er       0.23514    0.06821    0.31083    1.000
    O1       O        0.18780    0.01910    0.95190    1.000
    O2       O        0.18730    0.05810    0.12010    1.000
    O3       O        0.07720    0.08750    0.26740    1.000
    O4       O        0.38340    0.04730    0.26750    1.000
    O5       O        0.22660    0.89440    0.27440    1.000
    O6       O        0.24360    0.72870    0.25450    1.000
    O7       O        0.38290    0.02380    0.43140    1.000
    O8       O        0.27720    0.18060    0.45190    1.000
    C1       C        0.22220    0.01790    0.05230    1.000
    H1       H        0.27900    0.98360    0.07800    1.000
    C2       C        0.27060    0.81900    0.25860    1.000
    H2       H        0.33020    0.83070    0.24880    1.000
    C3       C        0.42430    0.02420    0.35960    1.000
    H3       H        0.48760    0.00660    0.37600    1.000
    O9       O        0.20770    0.19040    0.43350    1.000
    H4       H        0.18510    0.25820    0.48210    1.000
    Er2      Er       0.73514    0.56821    0.31083    1.000
    O10      O        0.68780    0.51910    0.95190    1.000
    O11      O        0.68730    0.55810    0.12010    1.000
    O12      O        0.57720    0.58750    0.26740    1.000
    O13      O        0.88340    0.54730    0.26750    1.000
    O14      O        0.72660    0.39440    0.27440    1.000
    O15      O        0.74360    0.22870    0.25450    1.000
    O16      O        0.88290    0.52380    0.43140    1.000
    O17      O        0.77720    0.68060    0.45190    1.000
    C4       C        0.72220    0.51790    0.05230    1.000
    H5       H        0.77900    0.48360    0.07800    1.000
    C5       C        0.77060    0.31900    0.25860    1.000
    H6       H        0.83020    0.33070    0.24880    1.000
    C6       C        0.92430    0.52420    0.35960    1.000
    H7       H        0.98760    0.50660    0.37600    1.000
    O18      O        0.70770    0.69040    0.43350    1.000
    H8       H        0.68510    0.75820    0.48210    1.000
    Er3      Er       0.76486    0.06821    0.18917    1.000
    O19      O        0.81220    0.01910    0.54810    1.000
    O20      O        0.81270    0.05810    0.37990    1.000
    O21      O        0.92280    0.08750    0.23260    1.000
    O22      O        0.61660    0.04730    0.23250    1.000
    O23      O        0.77340    0.89440    0.22560    1.000
    O24      O        0.75640    0.72870    0.24550    1.000
    O25      O        0.61710    0.02380    0.06860    1.000
    O26      O        0.72280    0.18060    0.04810    1.000
    C7       C        0.77780    0.01790    0.44770    1.000
    H9       H        0.72100    0.98360    0.42200    1.000
    C8       C        0.72940    0.81900    0.24140    1.000
    H10      H        0.66980    0.83070    0.25120    1.000
    C9       C        0.57570    0.02420    0.14040    1.000
    H11      H        0.51240    0.00660    0.12400    1.000
    O27      O        0.79230    0.19040    0.06650    1.000
    H12      H        0.81490    0.25820    0.01790    1.000
    Er4      Er       0.26486    0.56821    0.18917    1.000
    O28      O        0.31220    0.51910    0.54810    1.000
    O29      O        0.31270    0.55810    0.37990    1.000
    O30      O        0.42280    0.58750    0.23260    1.000
    O31      O        0.11660    0.54730    0.23250    1.000
    O32      O        0.27340    0.39440    0.22560    1.000
    O33      O        0.25640    0.22870    0.24550    1.000
    O34      O        0.11710    0.52380    0.06860    1.000
    O35      O        0.22280    0.68060    0.04810    1.000
    C10      C        0.27780    0.51790    0.44770    1.000
    H13      H        0.22100    0.48360    0.42200    1.000
    C11      C        0.22940    0.31900    0.24140    1.000
    H14      H        0.16980    0.33070    0.25120    1.000
    C12      C        0.07570    0.52420    0.14040    1.000
    H15      H        0.01240    0.50660    0.12400    1.000
    O36      O        0.29230    0.69040    0.06650    1.000
    H16      H        0.31490    0.75820    0.01790    1.000
    Er5      Er       0.76486    0.93179    0.68917    1.000
    O37      O        0.81220    0.98090    0.04810    1.000
    O38      O        0.81270    0.94190    0.87990    1.000
    O39      O        0.92280    0.91250    0.73260    1.000
    O40      O        0.61660    0.95270    0.73250    1.000
    O41      O        0.77340    0.10560    0.72560    1.000
    O42      O        0.75640    0.27130    0.74550    1.000
    O43      O        0.61710    0.97620    0.56860    1.000
    O44      O        0.72280    0.81940    0.54810    1.000
    C13      C        0.77780    0.98210    0.94770    1.000
    H17      H        0.72100    0.01640    0.92200    1.000
    C14      C        0.72940    0.18100    0.74140    1.000
    H18      H        0.66980    0.16930    0.75120    1.000
    C15      C        0.57570    0.97580    0.64040    1.000
    H19      H        0.51240    0.99340    0.62400    1.000
    O45      O        0.79230    0.80960    0.56650    1.000
    H20      H        0.81490    0.74180    0.51790    1.000
    Er6      Er       0.26486    0.43179    0.68917    1.000
    O46      O        0.31220    0.48090    0.04810    1.000
    O47      O        0.31270    0.44190    0.87990    1.000
    O48      O        0.42280    0.41250    0.73260    1.000
    O49      O        0.11660    0.45270    0.73250    1.000
    O50      O        0.27340    0.60560    0.72560    1.000
    O51      O        0.25640    0.77130    0.74550    1.000
    O52      O        0.11710    0.47620    0.56860    1.000
    O53      O        0.22280    0.31940    0.54810    1.000
    C16      C        0.27780    0.48210    0.94770    1.000
    H21      H        0.22100    0.51640    0.92200    1.000
    C17      C        0.22940    0.68100    0.74140    1.000
    H22      H        0.16980    0.66930    0.75120    1.000
    C18      C        0.07570    0.47580    0.64040    1.000
    H23      H        0.01240    0.49340    0.62400    1.000
    O54      O        0.29230    0.30960    0.56650    1.000
    H24      H        0.31490    0.24180    0.51790    1.000
    Er7      Er       0.23514    0.93179    0.81083    1.000
    O55      O        0.18780    0.98090    0.45190    1.000
    O56      O        0.18730    0.94190    0.62010    1.000
    O57      O        0.07720    0.91250    0.76740    1.000
    O58      O        0.38340    0.95270    0.76750    1.000
    O59      O        0.22660    0.10560    0.77440    1.000
    O60      O        0.24360    0.27130    0.75450    1.000
    O61      O        0.38290    0.97620    0.93140    1.000
    O62      O        0.27720    0.81940    0.95190    1.000
    C19      C        0.22220    0.98210    0.55230    1.000
    H25      H        0.27900    0.01640    0.57800    1.000
    C20      C        0.27060    0.18100    0.75860    1.000
    H26      H        0.33020    0.16930    0.74880    1.000
    C21      C        0.42430    0.97580    0.85960    1.000
    H27      H        0.48760    0.99340    0.87600    1.000
    O63      O        0.20770    0.80960    0.93350    1.000
    H28      H        0.18510    0.74180    0.98210    1.000
    Er8      Er       0.73514    0.43179    0.81083    1.000
    O64      O        0.68780    0.48090    0.45190    1.000
    O65      O        0.68730    0.44190    0.62010    1.000
    O66      O        0.57720    0.41250    0.76740    1.000
    O67      O        0.88340    0.45270    0.76750    1.000
    O68      O        0.72660    0.60560    0.77440    1.000
    O69      O        0.74360    0.77130    0.75450    1.000
    O70      O        0.88290    0.47620    0.93140    1.000
    O71      O        0.77720    0.31940    0.95190    1.000
    C22      C        0.72220    0.48210    0.55230    1.000
    H29      H        0.77900    0.51640    0.57800    1.000
    C23      C        0.77060    0.68100    0.75860    1.000
    H30      H        0.83020    0.66930    0.74880    1.000
    C24      C        0.92430    0.47580    0.85960    1.000
    H31      H        0.98760    0.49340    0.87600    1.000
    O72      O        0.70770    0.30960    0.93350    1.000
    H32      H        0.68510    0.24180    0.98210    1.000
    C25      C        0.00000    0.12700    0.25000    1.000
    H33      H        0.00000    0.19860    0.25000    1.000
    C26      C        0.50000    0.62700    0.25000    1.000
    H34      H        0.50000    0.69860    0.25000    1.000
    C27      C        0.00000    0.87300    0.75000    1.000
    H35      H        0.00000    0.80140    0.75000    1.000
    C28      C        0.50000    0.37300    0.75000    1.000
    H36      H        0.50000    0.30140    0.75000    1.000
    C29      C        0.25000    0.25000    0.50000    1.000
    C30      C        0.75000    0.25000    0.00000    1.000
    C31      C        0.75000    0.75000    0.50000    1.000
    C32      C        0.25000    0.75000    0.00000    1.000
