# CIF file generated by openbabel 3.1.0, see https://openbabel.org
data_I
_chemical_name_common 'image0'
_cell_length_a 10.1023
_cell_length_b 14.412
_cell_length_c 14.9635
_cell_angle_alpha 70.59
_cell_angle_beta 72.752
_cell_angle_gamma 87.142
_space_group_name_H-M_alt 'P 1'
_space_group_name_Hall 'P 1'
loop_
    _symmetry_equiv_pos_as_xyz
    x,y,z
loop_
    _atom_site_label
    _atom_site_type_symbol
    _atom_site_fract_x
    _atom_site_fract_y
    _atom_site_fract_z
    _atom_site_occupancy
    Cd1      Cd       0.31053    0.45357    0.53015    1.000
    Cd2      Cd       0.89091    0.38677    0.63754    1.000
    O1       O        0.10570    0.31786    0.59840    1.000
    O2       O        0.31480    0.31438    0.49941    1.000
    O3       O        0.11040    0.54972    0.52249    1.000
    O4       O        0.93980    0.52262    0.66361    1.000
    O5       O        0.20710    0.76924    0.29143    1.000
    O6       O        0.15330    0.70459    0.19095    1.000
    O7       O        0.53620    0.41163    0.55976    1.000
    O8       O        0.65890    0.44409    0.64697    1.000
    C1       C        0.05930    0.11210    0.62690    1.000
    H1       H        0.98960    0.14080    0.66630    1.000
    C2       C        0.17150    0.16900    0.55990    1.000
    C3       C        0.26730    0.12650    0.50330    1.000
    H2       H        0.34690    0.16480    0.45560    1.000
    C4       C        0.39540    0.96320    0.49060    1.000
    H3       H        0.47520    0.00570    0.43980    1.000
    H4       H        0.42160    0.92870    0.55170    1.000
    C5       C        0.30430    0.99390    0.41670    1.000
    H5       H        0.23020    0.00040    0.38440    1.000
    H6       H        0.38670    0.03540    0.36820    1.000
    C6       C        0.34040    0.88880    0.45100    1.000
    C7       C        0.18380    0.73290    0.52710    1.000
    H7       H        0.24760    0.70570    0.48280    1.000
    C8       C        0.06550    0.67680    0.59480    1.000
    C9       C        0.97600    0.71540    0.66200    1.000
    H8       H        0.89660    0.67680    0.70960    1.000
    C10      C        0.90170    0.85460    0.73070    1.000
    C11      C        0.89120    0.96590    0.67070    1.000
    H9       H        0.82400    0.99820    0.71260    1.000
    H10      H        0.86200    0.97220    0.61140    1.000
    C12      C        0.96240    0.92950    0.75210    1.000
    H11      H        0.02980    0.90130    0.78910    1.000
    H12      H        0.88990    0.96050    0.79210    1.000
    C13      C        0.04350    0.01300    0.63950    1.000
    C14      C        0.13780    0.97070    0.58170    1.000
    C15      C        0.25160    0.02790    0.51370    1.000
    C16      C        0.20930    0.82790    0.52360    1.000
    C17      C        0.11680    0.86750    0.58950    1.000
    C18      C        0.00090    0.80940    0.66050    1.000
    C19      C        0.19620    0.27400    0.55130    1.000
    C20      C        0.03620    0.57690    0.59420    1.000
    C21      C        0.18950    0.89400    0.04080    1.000
    H13      H        0.13570    0.84540    0.03470    1.000
    C22      C        0.23170    0.87400    0.12620    1.000
    C23      C        0.30820    0.94570    0.13600    1.000
    H14      H        0.33610    0.93220    0.19420    1.000
    C24      C        0.43030    0.11410    0.07110    1.000
    H15      H        0.52990    0.10190    0.04800    1.000
    H16      H        0.40730    0.10900    0.14170    1.000
    C25      C        0.40450    0.21820    0.01020    1.000
    H17      H        0.31020    0.23580    0.04140    1.000
    H18      H        0.47230    0.26580    0.00960    1.000
    C26      C        0.48520    0.30410    0.82360    1.000
    H19      H        0.52810    0.35600    0.83280    1.000
    C27      C        0.49000    0.30860    0.72850    1.000
    C28      C        0.42770    0.23220    0.71440    1.000
    H20      H        0.42740    0.23710    0.64960    1.000
    C29      C        0.31000    0.06080    0.78120    1.000
    H21      H        0.38440    0.01420    0.77300    1.000
    H22      H        0.28060    0.08260    0.72020    1.000
    C30      C        0.18670    0.00820    0.87010    1.000
    H23      H        0.10690    0.05110    0.87250    1.000
    H24      H        0.15870    0.94690    0.86280    1.000
    C31      C        0.22540    0.98380    0.96530    1.000
    C32      C        0.30630    0.05510    0.97470    1.000
    C33      C        0.34420    0.03660    0.06200    1.000
    C34      C        0.41830    0.22450    0.90520    1.000
    C35      C        0.36120    0.14550    0.89050    1.000
    C36      C        0.36610    0.14920    0.79460    1.000
    C37      C        0.19590    0.77630    0.20760    1.000
    C38      C        0.56520    0.39280    0.64110    1.000
    Cd3      Cd       0.68947    0.54643    0.46985    1.000
    Cd4      Cd       0.10909    0.61323    0.36246    1.000
    O9       O        0.89430    0.68214    0.40160    1.000
    O10      O        0.68520    0.68562    0.50059    1.000
    O11      O        0.88960    0.45028    0.47751    1.000
    O12      O        0.06020    0.47738    0.33639    1.000
    O13      O        0.79290    0.23076    0.70857    1.000
    O14      O        0.84670    0.29541    0.80905    1.000
    O15      O        0.46380    0.58837    0.44024    1.000
    O16      O        0.34110    0.55591    0.35303    1.000
    C39      C        0.94070    0.88790    0.37310    1.000
    H25      H        0.01040    0.85920    0.33370    1.000
    C40      C        0.82850    0.83100    0.44010    1.000
    C41      C        0.73270    0.87350    0.49670    1.000
    H26      H        0.65310    0.83520    0.54440    1.000
    C42      C        0.60460    0.03680    0.50940    1.000
    H27      H        0.52480    0.99430    0.56020    1.000
    H28      H        0.57840    0.07130    0.44830    1.000
    C43      C        0.69570    0.00610    0.58330    1.000
    H29      H        0.76980    0.99960    0.61560    1.000
    H30      H        0.61330    0.96460    0.63180    1.000
    C44      C        0.65960    0.11120    0.54900    1.000
    C45      C        0.81620    0.26710    0.47290    1.000
    H31      H        0.75240    0.29430    0.51720    1.000
    C46      C        0.93450    0.32320    0.40520    1.000
    C47      C        0.02400    0.28460    0.33800    1.000
    H32      H        0.10340    0.32320    0.29040    1.000
    C48      C        0.09830    0.14540    0.26930    1.000
    C49      C        0.10880    0.03410    0.32930    1.000
    H33      H        0.17600    0.00180    0.28740    1.000
    H34      H        0.13800    0.02780    0.38860    1.000
    C50      C        0.03760    0.07050    0.24790    1.000
    H35      H        0.97020    0.09870    0.21090    1.000
    H36      H        0.11010    0.03950    0.20790    1.000
    C51      C        0.95650    0.98700    0.36050    1.000
    C52      C        0.86220    0.02930    0.41830    1.000
    C53      C        0.74840    0.97210    0.48630    1.000
    C54      C        0.79070    0.17210    0.47640    1.000
    C55      C        0.88320    0.13250    0.41050    1.000
    C56      C        0.99910    0.19060    0.33950    1.000
    C57      C        0.80380    0.72600    0.44870    1.000
    C58      C        0.96380    0.42310    0.40580    1.000
    C59      C        0.81050    0.10600    0.95920    1.000
    H37      H        0.86430    0.15460    0.96530    1.000
    C60      C        0.76830    0.12600    0.87380    1.000
    C61      C        0.69180    0.05430    0.86400    1.000
    H38      H        0.66390    0.06780    0.80580    1.000
    C62      C        0.56970    0.88590    0.92890    1.000
    H39      H        0.47010    0.89810    0.95200    1.000
    H40      H        0.59270    0.89100    0.85830    1.000
    C63      C        0.59550    0.78180    0.98980    1.000
    H41      H        0.68980    0.76420    0.95860    1.000
    H42      H        0.52770    0.73420    0.99040    1.000
    C64      C        0.51480    0.69590    0.17640    1.000
    H43      H        0.47190    0.64400    0.16720    1.000
    C65      C        0.51000    0.69140    0.27150    1.000
    C66      C        0.57230    0.76780    0.28560    1.000
    H44      H        0.57260    0.76290    0.35040    1.000
    C67      C        0.69000    0.93920    0.21880    1.000
    H45      H        0.61560    0.98580    0.22700    1.000
    H46      H        0.71940    0.91740    0.27980    1.000
    C68      C        0.81330    0.99180    0.12990    1.000
    H47      H        0.89310    0.94890    0.12750    1.000
    H48      H        0.84130    0.05310    0.13720    1.000
    C69      C        0.77460    0.01620    0.03470    1.000
    C70      C        0.69370    0.94490    0.02530    1.000
    C71      C        0.65580    0.96340    0.93800    1.000
    C72      C        0.58170    0.77550    0.09480    1.000
    C73      C        0.63880    0.85450    0.10950    1.000
    C74      C        0.63390    0.85080    0.20540    1.000
    C75      C        0.80410    0.22370    0.79240    1.000
    C76      C        0.43480    0.60720    0.35890    1.000
