# CIF file generated by openbabel 3.1.0, see https://openbabel.org
data_I
_chemical_name_common 'UNABUH01_clean'
_cell_length_a 8.4048
_cell_length_b 10.2379
_cell_length_c 17.6671
_cell_angle_alpha 90
_cell_angle_beta 103.032
_cell_angle_gamma 90
_space_group_name_H-M_alt 'P 1'
_space_group_name_Hall 'P 1'
loop_
    _symmetry_equiv_pos_as_xyz
    x,y,z
loop_
    _atom_site_label
    _atom_site_type_symbol
    _atom_site_fract_x
    _atom_site_fract_y
    _atom_site_fract_z
    _atom_site_occupancy
    Cu1      Cu       0.82629    0.55774    0.43204    1.000
    Cu2      Cu       0.32629    0.94226    0.93204    1.000
    H1       H        0.53690    0.77030    0.16960    1.000
    H2       H        0.64560    0.58920    0.98480    1.000
    H3       H        0.81420    0.44880    0.19980    1.000
    H4       H        0.89420    0.27110    0.86370    1.000
    H5       H        0.06340    0.10900    0.84180    1.000
    H6       H        0.23550    0.06440    0.06450    1.000
    H7       H        0.06930    0.22580    0.09210    1.000
    H8       H        0.86490    0.33810    0.09610    1.000
    H9       H        0.03690    0.72970    0.66960    1.000
    H10      H        0.14560    0.91080    0.48480    1.000
    H11      H        0.31420    0.05120    0.69980    1.000
    H12      H        0.39420    0.22890    0.36370    1.000
    H13      H        0.56340    0.39100    0.34180    1.000
    H14      H        0.73550    0.43560    0.56450    1.000
    H15      H        0.56930    0.27420    0.59210    1.000
    H16      H        0.36490    0.16190    0.59610    1.000
    C1       C        0.67750    0.61080    0.19760    1.000
    C2       C        0.58870    0.70280    0.14930    1.000
    C3       C        0.57700    0.69410    0.06970    1.000
    C4       C        0.65440    0.59440    0.03810    1.000
    C5       C        0.74550    0.50270    0.08820    1.000
    C6       C        0.75480    0.51110    0.16670    1.000
    C7       C        0.69470    0.61910    0.28390    1.000
    C8       C        0.48620    0.79290    0.01660    1.000
    C9       C        0.85920    0.38290    0.99120    1.000
    C10      C        0.96420    0.26830    0.98110    1.000
    C11      C        0.96370    0.23030    0.90540    1.000
    C12      C        0.06500    0.13350    0.89260    1.000
    C13      C        0.16600    0.10740    0.02370    1.000
    C14      C        0.06680    0.20410    0.04070    1.000
    C15      C        0.17750    0.88920    0.69760    1.000
    C16      C        0.08870    0.79720    0.64930    1.000
    C17      C        0.07700    0.80590    0.56970    1.000
    C18      C        0.15440    0.90560    0.53810    1.000
    C19      C        0.24550    0.99730    0.58820    1.000
    C20      C        0.25480    0.98890    0.66670    1.000
    C21      C        0.19470    0.88090    0.78390    1.000
    C22      C        0.98620    0.70710    0.51660    1.000
    C23      C        0.35920    0.11710    0.49120    1.000
    C24      C        0.46420    0.23170    0.48110    1.000
    C25      C        0.46370    0.26970    0.40540    1.000
    C26      C        0.56500    0.36650    0.39260    1.000
    C27      C        0.66600    0.39260    0.52370    1.000
    C28      C        0.56680    0.29590    0.54070    1.000
    N1       N        0.16710    0.07220    0.95100    1.000
    N2       N        0.82920    0.39840    0.06270    1.000
    N3       N        0.66710    0.42780    0.45100    1.000
    N4       N        0.32920    0.10160    0.56270    1.000
    O1       O        0.79312    0.53620    0.32362    1.000
    O2       O        0.61890    0.70070    0.31250    1.000
    O3       O        0.46968    0.78400    0.94418    1.000
    O4       O        0.42092    0.89060    0.04172    1.000
    O5       O        0.81035    0.45730    0.93745    1.000
    O6       O        0.29312    0.96380    0.82362    1.000
    O7       O        0.11890    0.79930    0.81250    1.000
    O8       O        0.96968    0.71600    0.44418    1.000
    O9       O        0.92092    0.60940    0.54172    1.000
    O10      O        0.31035    0.04270    0.43745    1.000
    Cu3      Cu       0.67371    0.05774    0.06796    1.000
    Cu4      Cu       0.17371    0.44226    0.56796    1.000
    H17      H        0.96310    0.27030    0.33040    1.000
    H18      H        0.85440    0.08920    0.51520    1.000
    H19      H        0.68580    0.94880    0.30020    1.000
    H20      H        0.60580    0.77110    0.63630    1.000
    H21      H        0.43660    0.60900    0.65820    1.000
    H22      H        0.26450    0.56440    0.43550    1.000
    H23      H        0.43070    0.72580    0.40790    1.000
    H24      H        0.63510    0.83810    0.40390    1.000
    H25      H        0.46310    0.22970    0.83040    1.000
    H26      H        0.35440    0.41080    0.01520    1.000
    H27      H        0.18580    0.55120    0.80020    1.000
    H28      H        0.10580    0.72890    0.13630    1.000
    H29      H        0.93660    0.89100    0.15820    1.000
    H30      H        0.76450    0.93560    0.93550    1.000
    H31      H        0.93070    0.77420    0.90790    1.000
    H32      H        0.13510    0.66190    0.90390    1.000
    C29      C        0.82250    0.11080    0.30240    1.000
    C30      C        0.91130    0.20280    0.35070    1.000
    C31      C        0.92300    0.19410    0.43030    1.000
    C32      C        0.84560    0.09440    0.46190    1.000
    C33      C        0.75450    0.00270    0.41180    1.000
    C34      C        0.74520    0.01110    0.33330    1.000
    C35      C        0.80530    0.11910    0.21610    1.000
    C36      C        0.01380    0.29290    0.48340    1.000
    C37      C        0.64080    0.88290    0.50880    1.000
    C38      C        0.53580    0.76830    0.51890    1.000
    C39      C        0.53630    0.73030    0.59460    1.000
    C40      C        0.43500    0.63350    0.60740    1.000
    C41      C        0.33400    0.60740    0.47630    1.000
    C42      C        0.43320    0.70410    0.45930    1.000
    C43      C        0.32250    0.38920    0.80240    1.000
    C44      C        0.41130    0.29720    0.85070    1.000
    C45      C        0.42300    0.30590    0.93030    1.000
    C46      C        0.34560    0.40560    0.96190    1.000
    C47      C        0.25450    0.49730    0.91180    1.000
    C48      C        0.24520    0.48890    0.83330    1.000
    C49      C        0.30530    0.38090    0.71610    1.000
    C50      C        0.51380    0.20710    0.98340    1.000
    C51      C        0.14080    0.61710    0.00880    1.000
    C52      C        0.03580    0.73170    0.01890    1.000
    C53      C        0.03630    0.76970    0.09460    1.000
    C54      C        0.93500    0.86650    0.10740    1.000
    C55      C        0.83400    0.89260    0.97630    1.000
    C56      C        0.93320    0.79590    0.95930    1.000
    N5       N        0.33290    0.57220    0.54900    1.000
    N6       N        0.67080    0.89840    0.43730    1.000
    N7       N        0.83290    0.92780    0.04900    1.000
    N8       N        0.17080    0.60160    0.93730    1.000
    O11      O        0.70688    0.03620    0.17638    1.000
    O12      O        0.88110    0.20070    0.18750    1.000
    O13      O        0.03032    0.28400    0.55582    1.000
    O14      O        0.07908    0.39060    0.45828    1.000
    O15      O        0.68965    0.95730    0.56255    1.000
    O16      O        0.20688    0.46380    0.67638    1.000
    O17      O        0.38110    0.29930    0.68750    1.000
    O18      O        0.53032    0.21600    0.05582    1.000
    O19      O        0.57908    0.10940    0.95828    1.000
    O20      O        0.18965    0.54270    0.06255    1.000
