data_functionalizedCrystal
_audit_creation_method	'EQeq! by Chris Wilmer'
_symmetry_space_group_name_H-M	'P1'
_symmetry_Int_Tables_number	1
_symmetry_cell_setting	triclinic
loop_
_symmetry_equiv_pos_as_xyz
  x,y,z
_cell_length_a	11.301
_cell_length_b	13.1942
_cell_length_c	20.3262
_cell_angle_alpha	102.13
_cell_angle_beta	90
_cell_angle_gamma	115.357
loop_
_atom_site_label
_atom_site_type_symbol
_atom_site_fract_x
_atom_site_fract_y
_atom_site_fract_z
_atom_site_charge
Mof_Co	Co	0.80672	0	0.25	1.167
Mof_Cl	Cl	0.65641	0.92394	0.15825	-0.507
Mof_Cl	Cl	0.99371	0.14164	0.22514	-0.574
Mof_Cl	Cl	0.73247	0.07606	0.34175	-0.576
Mof_Cl	Cl	0.85207	0.85836	0.27486	-0.525
Mof_Co	Co	0.19328	-4.26797e-17	0.75	1.165
Mof_Cl	Cl	0.34359	0.07606	0.84175	-0.575
Mof_Cl	Cl	0.00629	0.85836	0.77486	-0.547
Mof_Cl	Cl	0.26753	0.92394	0.65825	-0.506
Mof_Cl	Cl	0.14793	0.14164	0.72514	-0.598
Mof_Co	Co	-0	0.5	-0	1.201
Mof_Co	Co	0.5	0.5	0.5	1.223
Mof_H 	H 	0.8901	0.668	0.8522	0.341
Mof_H 	H 	0.8675	0.5424	0.8532	0.327
Mof_H 	H 	0.8515	0.6222	0.9181	0.341
Mof_H 	H 	0.0972	0.7844	0.8554	0.174
Mof_H 	H 	0.2936	0.7402	0.8978	-0.022
Mof_H 	H 	0.3121	0.834	0.8572	0.004
Mof_H 	H 	0.2918	0.9536	0.9576	0.162
Mof_H 	H 	0.2845	0.8614	0.9974	0.136
Mof_H 	H 	0.4983	0.8904	0.9754	-0.005
Mof_H 	H 	0.5056	0.9736	0.929	0.019
Mof_H 	H 	0.4499	0.6914	0.0362	0.4
Mof_H 	H 	0.3528	0.5612	0.0292	0.387
Mof_H 	H 	0.3293	0.6304	0.9807	0.421
Mof_H 	H 	0.4193	0.814	0.1174	0.191
Mof_H 	H 	0.3013	0.7886	0.2197	-0.053
Mof_H 	H 	0.1749	0.7476	0.1691	-0.063
Mof_H 	H 	0.3921	0.9604	0.1898	0.199
Mof_H 	H 	0.2678	0.9194	0.1374	0.174
Mof_H 	H 	0.13061	0.90842	0.2204	-0.04
Mof_H 	H 	0.22592	0.89704	0.2719	-0.041
Mof_H 	H 	0.882	0.6406	0.2005	0.376
Mof_H 	H 	0.8347	0.5162	0.1544	0.364
Mof_H 	H 	0.9851	0.6012	0.1672	0.384
Mof_H 	H 	0.8465	0.7554	0.1522	0.169
Mof_H 	H 	0.8115	0.7246	0.0162	0.005
Mof_H 	H 	0.767	0.803	0.0693	0.03
Mof_H 	H 	0.9884	0.94	0.0979	0.084
Mof_H 	H 	0.0315	0.8622	0.0437	0.037
Mof_H 	H 	0.8656	0.9564	0.0076	0.095
Mof_H 	H 	0.9283	0.892	0.9565	0.108
Mof_H 	H 	0.2221	0.332	0.6478	0.337
Mof_H 	H 	0.3251	0.4576	0.6468	0.329
Mof_H 	H 	0.2293	0.3778	0.5819	0.336
Mof_H 	H 	0.3128	0.2156	0.6446	0.163
Mof_H 	H 	0.5534	0.2598	0.6022	0.008
Mof_H 	H 	0.4781	0.166	0.6428	0.017
Mof_H 	H 	0.3382	0.0464	0.5424	0.049
Mof_H 	H 	0.4231	0.1386	0.5026	0.051
Mof_H 	H 	0.6079	0.1096	0.5246	0.071
Mof_H 	H 	0.532	0.0264	0.571	0.067
Mof_H 	H 	0.7585	0.3086	0.4638	0.36
Mof_H 	H 	0.7916	0.4388	0.4708	0.355
Mof_H 	H 	0.6989	0.3696	0.5193	0.358
Mof_H 	H 	0.6053	0.186	0.3826	0.172
Mof_H 	H 	0.5127	0.2114	0.2803	0.023
Mof_H 	H 	0.4273	0.2524	0.3309	0.03
Mof_H 	H 	0.4317	0.0396	0.3102	0.013
Mof_H 	H 	0.3484	0.0806	0.3626	0.012
Mof_H 	H 	0.22219	0.09158	0.2796	0.131
Mof_H 	H 	0.32888	0.10296	0.2281	0.114
Mof_H 	H 	0.2414	0.3594	0.2995	0.355
Mof_H 	H 	0.3185	0.4838	0.3456	0.351
Mof_H 	H 	0.3839	0.3988	0.3328	0.358
Mof_H 	H 	0.0911	0.2446	0.3478	0.154
Mof_H 	H 	0.0869	0.2754	0.4838	-0.002
Mof_H 	H 	0.964	0.197	0.4307	0.032
Mof_H 	H 	0.0484	0.06	0.4021	0.083
Mof_H 	H 	0.1693	0.1378	0.4563	0.093
Mof_H 	H 	0.9092	0.0436	0.4924	0.005
Mof_H 	H 	0.0363	0.108	0.5435	-0.004
Mof_H 	H 	0.1099	0.332	0.1478	0.345
Mof_H 	H 	0.1325	0.4576	0.1468	0.337
Mof_H 	H 	0.1485	0.3778	0.0819	0.342
Mof_H 	H 	0.9028	0.2156	0.1446	0.168
Mof_H 	H 	0.7064	0.2598	0.1022	0.012
Mof_H 	H 	0.6879	0.166	0.1428	0.022
Mof_H 	H 	0.7082	0.0464	0.0424	0.034
Mof_H 	H 	0.7155	0.1386	0.0026	0.032
Mof_H 	H 	0.5017	0.1096	0.0246	0.081
Mof_H 	H 	0.4944	0.0264	0.071	0.081
Mof_H 	H 	0.5501	0.3086	0.9638	0.323
Mof_H 	H 	0.6472	0.4388	0.9708	0.319
Mof_H 	H 	0.6707	0.3696	0.0193	0.301
Mof_H 	H 	0.5807	0.186	0.8826	0.172
Mof_H 	H 	0.6987	0.2114	0.7803	0.026
Mof_H 	H 	0.8251	0.2524	0.8309	0.037
Mof_H 	H 	0.6079	0.0396	0.8102	0.015
Mof_H 	H 	0.7322	0.0806	0.8626	0.017
Mof_H 	H 	0.86939	0.09158	0.7796	0.14
Mof_H 	H 	0.77408	0.10296	0.7281	0.118
Mof_H 	H 	0.118	0.3594	0.7995	0.355
Mof_H 	H 	0.1653	0.4838	0.8456	0.351
Mof_H 	H 	0.0149	0.3988	0.8328	0.351
Mof_H 	H 	0.1535	0.2446	0.8478	0.163
Mof_H 	H 	0.1885	0.2754	0.9838	-0.011
Mof_H 	H 	0.233	0.197	0.9307	0.003
Mof_H 	H 	0.0116	0.06	0.9021	0.103
Mof_H 	H 	0.9685	0.1378	0.9563	0.131
Mof_H 	H 	0.1344	0.0436	0.9924	-0.002
Mof_H 	H 	0.0717	0.108	0.0435	-0.023
Mof_H 	H 	0.7779	0.668	0.3522	0.349
Mof_H 	H 	0.6749	0.5424	0.3532	0.335
Mof_H 	H 	0.7707	0.6222	0.4181	0.347
Mof_H 	H 	0.6872	0.7844	0.3554	0.178
Mof_H 	H 	0.4466	0.7402	0.3978	-0.017
Mof_H 	H 	0.5219	0.834	0.3572	0.009
Mof_H 	H 	0.6618	0.9536	0.4576	0.146
Mof_H 	H 	0.5769	0.8614	0.4974	0.116
Mof_H 	H 	0.3921	0.8904	0.4754	0.006
Mof_H 	H 	0.468	0.9736	0.429	0.033
Mof_H 	H 	0.2415	0.6914	0.5362	0.363
Mof_H 	H 	0.2084	0.5612	0.5292	0.351
Mof_H 	H 	0.3011	0.6304	0.4807	0.361
Mof_H 	H 	0.3947	0.814	0.6174	0.191
Mof_H 	H 	0.4873	0.7886	0.7197	-0.048
Mof_H 	H 	0.5727	0.7476	0.6691	-0.053
Mof_H 	H 	0.5683	0.9604	0.6898	0.198
Mof_H 	H 	0.6516	0.9194	0.6374	0.176
Mof_H 	H 	0.77781	0.90842	0.7204	-0.028
Mof_H 	H 	0.67112	0.89704	0.7719	-0.034
Mof_H 	H 	0.7586	0.6406	0.7005	0.376
Mof_H 	H 	0.6815	0.5162	0.6544	0.363
Mof_H 	H 	0.6161	0.6012	0.6672	0.375
Mof_H 	H 	0.9089	0.7554	0.6522	0.176
Mof_H 	H 	0.9131	0.7246	0.5162	-0.005
Mof_H 	H 	0.036	0.803	0.5693	0.001
Mof_H 	H 	0.9516	0.94	0.5979	0.105
Mof_H 	H 	0.8307	0.8622	0.5437	0.079
Mof_H 	H 	0.0908	0.9564	0.5076	0.089
Mof_H 	H 	0.9637	0.892	0.4565	0.094
Mof_C 	C 	0.9002	0.6204	0.8795	-1.031
Mof_C 	C 	0.0443	0.6652	0.903	0.506
Mof_C 	C 	0.2699	0.8016	0.8943	0.138
Mof_C 	C 	0.3204	0.8946	0.9594	-0.314
Mof_C 	C 	0.4708	0.9484	0.9694	0.15
Mof_C 	C 	0.3597	0.635	0.0259	-1.276
Mof_C 	C 	0.2778	0.6694	0.0746	0.606
Mof_C 	C 	0.269	0.7964	0.1777	0.265
Mof_C 	C 	0.2985	0.911	0.1796	-0.469
Mof_C 	C 	0.22205	0.9353	0.2367	0.265
Mof_C 	C 	0.898	0.5954	0.1611	-1.165
Mof_C 	C 	0.886	0.6394	0.1007	0.577
Mof_C 	C 	0.8374	0.7804	0.0594	0.023
Mof_C 	C 	0.9617	0.8852	0.0544	-0.077
Mof_C 	C 	0.9437	0.944	0.0005	-0.17
Mof_C 	C 	0.2798	0.3796	0.6205	-1.052
Mof_C 	C 	0.3791	0.3348	0.597	0.518
Mof_C 	C 	0.4683	0.1984	0.6057	0.025
Mof_C 	C 	0.4258	0.1054	0.5406	-0.093
Mof_C 	C 	0.5224	0.0516	0.5306	-0.214
Mof_C 	C 	0.7247	0.365	0.4741	-1.129
Mof_C 	C 	0.6084	0.3306	0.4254	0.56
Mof_C 	C 	0.4726	0.2036	0.3223	-0.026
Mof_C 	C 	0.3875	0.089	0.3204	0.014
Mof_C 	C 	0.28675	0.0647	0.2633	-0.364
Mof_C 	C 	0.3026	0.4046	0.3389	-1.127
Mof_C 	C 	0.2466	0.3606	0.3993	0.557
Mof_C 	C 	0.057	0.2196	0.4406	0.049
Mof_C 	C 	0.0765	0.1148	0.4456	-0.231
Mof_C 	C 	0.9997	0.056	0.4995	0.019
Mof_C 	C 	0.0998	0.3796	0.1205	-1.1
Mof_C 	C 	0.9557	0.3348	0.097	0.544
Mof_C 	C 	0.7301	0.1984	0.1057	0.008
Mof_C 	C 	0.6796	0.1054	0.0406	-0.054
Mof_C 	C 	0.5292	0.0516	0.0306	-0.279
Mof_C 	C 	0.6403	0.365	0.9741	-0.993
Mof_C 	C 	0.7222	0.3306	0.9254	0.523
Mof_C 	C 	0.731	0.2036	0.8223	-0.031
Mof_C 	C 	0.7015	0.089	0.8204	0.015
Mof_C 	C 	0.77795	0.0647	0.7633	-0.363
Mof_C 	C 	0.102	0.4046	0.8389	-1.122
Mof_C 	C 	0.114	0.3606	0.8993	0.555
Mof_C 	C 	0.1626	0.2196	0.9406	0.115
Mof_C 	C 	0.0383	0.1148	0.9456	-0.291
Mof_C 	C 	0.0563	0.056	0.9995	0.046
Mof_C 	C 	0.7202	0.6204	0.3795	-1.074
Mof_C 	C 	0.6209	0.6652	0.403	0.53
Mof_C 	C 	0.5317	0.8016	0.3943	0.119
Mof_C 	C 	0.5742	0.8946	0.4594	-0.274
Mof_C 	C 	0.4776	0.9484	0.4694	0.085
Mof_C 	C 	0.2753	0.635	0.5259	-1.137
Mof_C 	C 	0.3916	0.6694	0.5746	0.571
Mof_C 	C 	0.5274	0.7964	0.6777	0.255
Mof_C 	C 	0.6125	0.911	0.6796	-0.459
Mof_C 	C 	0.71325	0.9353	0.7367	0.256
Mof_C 	C 	0.6974	0.5954	0.6611	-1.161
Mof_C 	C 	0.7534	0.6394	0.6007	0.577
Mof_C 	C 	0.943	0.7804	0.5594	0.089
Mof_C 	C 	0.9235	0.8852	0.5544	-0.142
Mof_C 	C 	0.0003	0.944	0.5005	-0.148
Mof_N 	N 	0.1283	0.754	0.88	-0.32
Mof_N 	N 	0.3394	0.7676	0.1207	-0.363
Mof_N 	N 	0.8558	0.7276	0.1113	-0.316
Mof_N 	N 	0.3743	0.246	0.62	-0.305
Mof_N 	N 	0.5718	0.2324	0.3793	-0.308
Mof_N 	N 	0.1282	0.2724	0.3887	-0.318
Mof_N 	N 	0.8717	0.246	0.12	-0.308
Mof_N 	N 	0.6606	0.2324	0.8793	-0.298
Mof_N 	N 	0.1442	0.2724	0.8887	-0.328
Mof_N 	N 	0.6257	0.754	0.38	-0.322
Mof_N 	N 	0.4282	0.7676	0.6207	-0.352
Mof_N 	N 	0.8718	0.7276	0.6113	-0.327
Mof_O 	O 	0.08425	0.6191	0.93905	-0.462
Mof_O 	O 	0.15734	0.61168	0.0728	-0.514
Mof_O 	O 	0.9016	0.5974	0.0431	-0.49
Mof_O 	O 	0.46515	0.3809	0.56095	-0.469
Mof_O 	O 	0.54566	0.38832	0.4272	-0.488
Mof_O 	O 	0.3042	0.4026	0.4569	-0.486
Mof_O 	O 	0.91575	0.3809	0.06095	-0.474
Mof_O 	O 	0.84266	0.38832	0.9272	-0.46
Mof_O 	O 	0.0984	0.4026	0.9569	-0.479
Mof_O 	O 	0.53485	0.6191	0.43905	-0.473
Mof_O 	O 	0.45434	0.61168	0.5728	-0.491
Mof_O 	O 	0.6958	0.5974	0.5431	-0.491
_end
