data_functionalizedCrystal
_audit_creation_method	'EQeq! by Chris Wilmer'
_symmetry_space_group_name_H-M	'P1'
_symmetry_Int_Tables_number	1
_symmetry_cell_setting	triclinic
loop_
_symmetry_equiv_pos_as_xyz
  x,y,z
_cell_length_a	13.9793
_cell_length_b	13.9793
_cell_length_c	13.9793
_cell_angle_alpha	100.816
_cell_angle_beta	100.816
_cell_angle_gamma	100.816
loop_
_atom_site_label
_atom_site_type_symbol
_atom_site_fract_x
_atom_site_fract_y
_atom_site_fract_z
_atom_site_charge
Mof_Cd	Cd	-0	0	-0	0.362
Mof_H 	H 	0.7764	0.8248	0.9353	0.027
Mof_H 	H 	0.8723	0.1716	0.0965	0.063
Mof_H 	H 	0.7742	0.2426	0.1932	0.055
Mof_H 	H 	0.633	0.1453	0.2199	0.031
Mof_H 	H 	0.5824	0.9786	0.1495	0.086
Mof_H 	H 	0.5896	0.7355	0.8682	0.115
Mof_H 	H 	0.4706	0.5961	0.8602	0.035
Mof_H 	H 	0.4907	0.6786	0.1521	0.028
Mof_H 	H 	0.616	0.8143	0.1656	0.086
Mof_H 	H 	0.9353	0.7764	0.8248	0.026
Mof_H 	H 	0.0965	0.8723	0.1716	0.062
Mof_H 	H 	0.1932	0.7742	0.2426	0.055
Mof_H 	H 	0.2199	0.633	0.1453	0.031
Mof_H 	H 	0.1495	0.5824	0.9786	0.086
Mof_H 	H 	0.8682	0.5896	0.7355	0.115
Mof_H 	H 	0.8602	0.4706	0.5961	0.035
Mof_H 	H 	0.1521	0.4907	0.6786	0.028
Mof_H 	H 	0.1656	0.616	0.8143	0.086
Mof_H 	H 	0.8248	0.9353	0.7764	0.026
Mof_H 	H 	0.1716	0.0965	0.8723	0.062
Mof_H 	H 	0.2426	0.1932	0.7742	0.055
Mof_H 	H 	0.1453	0.2199	0.633	0.031
Mof_H 	H 	0.9786	0.1495	0.5824	0.086
Mof_H 	H 	0.7355	0.8682	0.5896	0.115
Mof_H 	H 	0.5961	0.8602	0.4706	0.035
Mof_H 	H 	0.6786	0.1521	0.4907	0.028
Mof_H 	H 	0.8143	0.1656	0.616	0.086
Mof_H 	H 	0.1752	0.2236	0.0647	0.028
Mof_H 	H 	0.8284	0.1277	0.9035	0.077
Mof_H 	H 	0.7574	0.2258	0.8068	0.038
Mof_H 	H 	0.8547	0.367	0.7801	0.053
Mof_H 	H 	0.0214	0.4176	0.8505	0.054
Mof_H 	H 	0.2645	0.4104	0.1318	0.111
Mof_H 	H 	0.4039	0.5294	0.1398	0.046
Mof_H 	H 	0.3214	0.5093	0.8479	0.037
Mof_H 	H 	0.1857	0.384	0.8344	0.081
Mof_H 	H 	0.2236	0.0647	0.1752	0.028
Mof_H 	H 	0.1277	0.9035	0.8284	0.077
Mof_H 	H 	0.2258	0.8068	0.7574	0.038
Mof_H 	H 	0.367	0.7801	0.8547	0.053
Mof_H 	H 	0.4176	0.8505	0.0214	0.054
Mof_H 	H 	0.4104	0.1318	0.2645	0.111
Mof_H 	H 	0.5294	0.1398	0.4039	0.046
Mof_H 	H 	0.5093	0.8479	0.3214	0.037
Mof_H 	H 	0.384	0.8344	0.1857	0.081
Mof_H 	H 	0.0647	0.1752	0.2236	0.028
Mof_H 	H 	0.9035	0.8284	0.1277	0.077
Mof_H 	H 	0.8068	0.7574	0.2258	0.038
Mof_H 	H 	0.7801	0.8547	0.367	0.053
Mof_H 	H 	0.8505	0.0214	0.4176	0.054
Mof_H 	H 	0.1318	0.2645	0.4104	0.111
Mof_H 	H 	0.1398	0.4039	0.5294	0.046
Mof_H 	H 	0.8479	0.3214	0.5093	0.037
Mof_H 	H 	0.8344	0.1857	0.384	0.081
Mof_C 	C 	0.7668	0.8804	0.9775	0.094
Mof_C 	C 	0.783	0.0309	0.0604	0.034
Mof_C 	C 	0.8143	0.1328	0.1054	-0.063
Mof_C 	C 	0.7561	0.1745	0.1639	-0.052
Mof_C 	C 	0.67	0.1153	0.1796	0.013
Mof_C 	C 	0.6398	0.0167	0.1386	-0.133
Mof_C 	C 	0.6975	0.9726	0.0785	0.093
Mof_C 	C 	0.6143	0.7917	0.0183	0.137
Mof_C 	C 	0.57	0.7241	0.9259	-0.142
Mof_C 	C 	0.4975	0.6415	0.9214	0.021
Mof_C 	C 	0.4625	0.6226	0.0032	-0.034
Mof_C 	C 	0.5105	0.6902	0.0946	0.01
Mof_C 	C 	0.5852	0.7721	0.1033	-0.146
Mof_C 	C 	0.9775	0.7668	0.8804	0.094
Mof_C 	C 	0.0604	0.783	0.0309	0.034
Mof_C 	C 	0.1054	0.8143	0.1328	-0.063
Mof_C 	C 	0.1639	0.7561	0.1745	-0.052
Mof_C 	C 	0.1796	0.67	0.1153	0.013
Mof_C 	C 	0.1386	0.6398	0.0167	-0.133
Mof_C 	C 	0.0785	0.6975	0.9726	0.093
Mof_C 	C 	0.0183	0.6143	0.7917	0.137
Mof_C 	C 	0.9259	0.57	0.7241	-0.142
Mof_C 	C 	0.9214	0.4975	0.6415	0.021
Mof_C 	C 	0.0032	0.4625	0.6226	-0.034
Mof_C 	C 	0.0946	0.5105	0.6902	0.01
Mof_C 	C 	0.1033	0.5852	0.7721	-0.146
Mof_C 	C 	0.8804	0.9775	0.7668	0.094
Mof_C 	C 	0.0309	0.0604	0.783	0.034
Mof_C 	C 	0.1328	0.1054	0.8143	-0.063
Mof_C 	C 	0.1745	0.1639	0.7561	-0.052
Mof_C 	C 	0.1153	0.1796	0.67	0.013
Mof_C 	C 	0.0167	0.1386	0.6398	-0.133
Mof_C 	C 	0.9726	0.0785	0.6975	0.093
Mof_C 	C 	0.7917	0.0183	0.6143	0.137
Mof_C 	C 	0.7241	0.9259	0.57	-0.142
Mof_C 	C 	0.6415	0.9214	0.4975	0.021
Mof_C 	C 	0.6226	0.0032	0.4625	-0.034
Mof_C 	C 	0.6902	0.0946	0.5105	0.01
Mof_C 	C 	0.7721	0.1033	0.5852	-0.146
Mof_C 	C 	0.1196	0.2332	0.0225	0.082
Mof_C 	C 	0.9691	0.217	0.9396	0.083
Mof_C 	C 	0.8672	0.1857	0.8946	-0.105
Mof_C 	C 	0.8255	0.2439	0.8361	-0.004
Mof_C 	C 	0.8847	0.33	0.8204	-0.044
Mof_C 	C 	0.9833	0.3602	0.8614	-0.056
Mof_C 	C 	0.0274	0.3025	0.9215	0.044
Mof_C 	C 	0.2083	0.3857	0.9817	0.134
Mof_C 	C 	0.2759	0.43	0.0741	-0.134
Mof_C 	C 	0.3585	0.5025	0.0786	-0.013
Mof_C 	C 	0.3774	0.5375	0.9968	0.008
Mof_C 	C 	0.3098	0.4895	0.9054	-0.014
Mof_C 	C 	0.2279	0.4148	0.8967	-0.13
Mof_C 	C 	0.2332	0.0225	0.1196	0.082
Mof_C 	C 	0.217	0.9396	0.9691	0.083
Mof_C 	C 	0.1857	0.8946	0.8672	-0.105
Mof_C 	C 	0.2439	0.8361	0.8255	-0.004
Mof_C 	C 	0.33	0.8204	0.8847	-0.044
Mof_C 	C 	0.3602	0.8614	0.9833	-0.056
Mof_C 	C 	0.3025	0.9215	0.0274	0.044
Mof_C 	C 	0.3857	0.9817	0.2083	0.134
Mof_C 	C 	0.43	0.0741	0.2759	-0.134
Mof_C 	C 	0.5025	0.0786	0.3585	-0.013
Mof_C 	C 	0.5375	0.9968	0.3774	0.008
Mof_C 	C 	0.4895	0.9054	0.3098	-0.014
Mof_C 	C 	0.4148	0.8967	0.2279	-0.13
Mof_C 	C 	0.0225	0.1196	0.2332	0.082
Mof_C 	C 	0.9396	0.9691	0.217	0.083
Mof_C 	C 	0.8946	0.8672	0.1857	-0.105
Mof_C 	C 	0.8361	0.8255	0.2439	-0.004
Mof_C 	C 	0.8204	0.8847	0.33	-0.044
Mof_C 	C 	0.8614	0.9833	0.3602	-0.056
Mof_C 	C 	0.9215	0.0274	0.3025	0.044
Mof_C 	C 	0.9817	0.2083	0.3857	0.134
Mof_C 	C 	0.0741	0.2759	0.43	-0.134
Mof_C 	C 	0.0786	0.3585	0.5025	-0.013
Mof_C 	C 	0.9968	0.3774	0.5375	0.008
Mof_C 	C 	0.9054	0.3098	0.4895	-0.014
Mof_C 	C 	0.8967	0.2279	0.4148	-0.13
Mof_N 	N 	0.8259	0.9713	0.9985	-0.139
Mof_N 	N 	0.6892	0.8782	0.0258	-0.158
Mof_N 	N 	0.9985	0.8259	0.9713	-0.139
Mof_N 	N 	0.0258	0.6892	0.8782	-0.158
Mof_N 	N 	0.9713	0.9985	0.8259	-0.139
Mof_N 	N 	0.8782	0.0258	0.6892	-0.158
Mof_N 	N 	0.0287	0.1741	0.0015	-0.155
Mof_N 	N 	0.1218	0.3108	0.9742	-0.144
Mof_N 	N 	0.1741	0.0015	0.0287	-0.155
Mof_N 	N 	0.3108	0.9742	0.1218	-0.144
Mof_N 	N 	0.0015	0.0287	0.1741	-0.155
Mof_N 	N 	0.9742	0.1218	0.3108	-0.144
Mof_Cl	Cl	0.7028	0.7028	0.7028	-0.218
Mof_O 	O 	0.6684	0.7891	0.7424	-0.046
Mof_O 	O 	0.7424	0.6684	0.7891	-0.046
Mof_O 	O 	0.7891	0.7424	0.6684	-0.046
Mof_O 	O 	0.6276	0.6276	0.6276	-0.027
Mof_Cl	Cl	0.2972	0.2972	0.2972	-0.217
Mof_O 	O 	0.2109	0.3316	0.2576	-0.048
Mof_O 	O 	0.3316	0.2576	0.2109	-0.048
Mof_O 	O 	0.2576	0.2109	0.3316	-0.048
Mof_O 	O 	0.3724	0.3724	0.3724	-0.028
_end
