data_functionalizedCrystal
_audit_creation_method	'EQeq! by Chris Wilmer'
_symmetry_space_group_name_H-M	'P1'
_symmetry_Int_Tables_number	1
_symmetry_cell_setting	triclinic
loop_
_symmetry_equiv_pos_as_xyz
  x,y,z
_cell_length_a	30.4638
_cell_length_b	30.4638
_cell_length_c	44.2772
_cell_angle_alpha	90
_cell_angle_beta	90
_cell_angle_gamma	90
loop_
_atom_site_label
_atom_site_type_symbol
_atom_site_fract_x
_atom_site_fract_y
_atom_site_fract_z
_atom_site_charge
Mof_Cu	Cu	0.09764	0.84406	0.62788	0.905
Mof_Cu	Cu	0.131	0.79193	0.66983	0.905
Mof_O 	O 	0.11503	0.31973	0.53131	-0.407
Mof_O 	O 	0.10061	0.24771	0.5308	-0.401
Mof_O 	O 	0.16474	0.15495	0.6087	-0.408
Mof_O 	O 	0.20437	0.18462	0.64602	-0.405
Mof_O 	O 	0.29642	0.42772	0.81228	-0.399
Mof_O 	O 	0.34482	0.45376	0.84601	-0.405
Mof_O 	O 	0.37612	0.60916	0.84783	-0.407
Mof_O 	O 	0.35214	0.65313	0.81072	-0.404
Mof_O 	O 	0.10966	0.74501	0.64319	-0.396
Mof_O 	O 	0.07641	0.78957	0.61013	-0.406
Mof_O 	O 	0.98614	0.72839	0.531	-0.409
Mof_O 	O 	0.97174	0.65623	0.53063	-0.405
Mof_O 	O 	0.1655	0.39277	0.6057	-0.256
Mof_O 	O 	0.27393	0.48517	0.72033	-0.263
Mof_O 	O 	0.1372	0.6088	0.63557	-0.259
Mof_N 	N 	0.21853	0.34336	0.61776	-0.257
Mof_H 	H 	0.2439	0.3393	0.6269	0.128
Mof_N 	N 	0.2243	0.41353	0.63279	-0.291
Mof_H 	H 	0.2508	0.4057	0.6385	0.137
Mof_N 	N 	0.276	0.55492	0.73918	-0.255
Mof_H 	H 	0.268	0.5821	0.7354	0.128
Mof_N 	N 	0.2428	0.5418	0.69478	-0.29
Mof_H 	H 	0.2408	0.5706	0.6943	0.135
Mof_N 	N 	0.1352	0.5416	0.61467	-0.285
Mof_H 	H 	0.1215	0.5245	0.6017	0.136
Mof_N 	N 	0.0889	0.5937	0.59741	-0.253
Mof_H 	H 	0.0766	0.5723	0.5871	0.128
Mof_C 	C 	0.11931	0.28156	0.5412	0.347
Mof_C 	C 	0.18336	0.18611	0.62151	0.349
Mof_C 	C 	0.14998	0.27502	0.56683	-0.043
Mof_C 	C 	0.1547	0.23365	0.58018	-0.008
Mof_H 	H 	0.1403	0.2087	0.5719	0.065
Mof_C 	C 	0.18089	0.22965	0.60591	-0.042
Mof_C 	C 	0.2022	0.26554	0.6175	-0.091
Mof_H 	H 	0.2199	0.2624	0.635	0.079
Mof_C 	C 	0.1982	0.30704	0.60379	0.133
Mof_C 	C 	0.17271	0.31111	0.57808	-0.089
Mof_H 	H 	0.1707	0.3386	0.5681	0.096
Mof_C 	C 	0.32026	0.45717	0.82357	0.344
Mof_C 	C 	0.35705	0.61673	0.82364	0.348
Mof_C 	C 	0.32077	0.501	0.80797	-0.032
Mof_C 	C 	0.34041	0.53617	0.82116	-0.016
Mof_H 	H 	0.3558	0.5326	0.8396	0.068
Mof_C 	C 	0.3381	0.57725	0.80782	-0.032
Mof_C 	C 	0.3172	0.58228	0.78054	-0.105
Mof_H 	H 	0.3162	0.6103	0.7712	0.083
Mof_C 	C 	0.2977	0.54713	0.76686	0.143
Mof_C 	C 	0.2987	0.50583	0.78079	-0.098
Mof_H 	H 	0.2844	0.4814	0.7717	0.103
Mof_C 	C 	0.08622	0.75257	0.62012	0.345
Mof_C 	C 	0.99092	0.68975	0.53994	0.353
Mof_C 	C 	0.07064	0.71397	0.60293	-0.041
Mof_C 	C 	0.04095	0.71953	0.57937	-0.007
Mof_H 	H 	0.032	0.7483	0.5738	0.065
Mof_C 	C 	0.02458	0.68395	0.5642	-0.044
Mof_C 	C 	0.0396	0.64125	0.57126	-0.092
Mof_H 	H 	0.0281	0.6162	0.5612	0.077
Mof_C 	C 	0.0718	0.6369	0.59333	0.134
Mof_C 	C 	0.0856	0.67288	0.61012	-0.095
Mof_H 	H 	0.1053	0.669	0.6265	0.106
Mof_C 	C 	0.2011	0.3836	0.6178	0.317
Mof_C 	C 	0.2665	0.5244	0.71796	0.315
Mof_C 	C 	0.1224	0.5834	0.6159	0.311
Mof_C 	C 	0.211	0.4564	0.64048	0.315
Mof_C 	C 	0.2319	0.4763	0.66412	-0.381
Mof_H 	H 	0.2535	0.461	0.6754	0.182
Mof_C 	C 	0.2212	0.5187	0.67125	0.349
Mof_C 	C 	0.1925	0.5412	0.65472	-0.402
Mof_H 	H 	0.1884	0.5716	0.6586	0.188
Mof_C 	C 	0.1693	0.5218	0.6326	0.32
Mof_C 	C 	0.1799	0.479	0.62305	-0.34
Mof_H 	H 	0.1668	0.4661	0.6057	0.167
Mof_Cu	Cu	0.59764	0.34406	0.12788	0.906
Mof_Cu	Cu	0.631	0.29193	0.16983	0.906
Mof_O 	O 	0.61503	0.81973	0.03131	-0.407
Mof_O 	O 	0.60061	0.74771	0.0308	-0.401
Mof_O 	O 	0.66474	0.65495	0.1087	-0.407
Mof_O 	O 	0.70437	0.68462	0.14602	-0.404
Mof_O 	O 	0.79642	0.92772	0.31228	-0.398
Mof_O 	O 	0.84482	0.95376	0.34601	-0.405
Mof_O 	O 	0.87612	0.10916	0.34783	-0.407
Mof_O 	O 	0.85214	0.15313	0.31072	-0.404
Mof_O 	O 	0.60966	0.24501	0.14319	-0.396
Mof_O 	O 	0.57641	0.28957	0.11013	-0.406
Mof_O 	O 	0.48614	0.22839	0.031	-0.41
Mof_O 	O 	0.47174	0.15623	0.03063	-0.406
Mof_O 	O 	0.6655	0.89277	0.1057	-0.256
Mof_O 	O 	0.77393	0.98517	0.22033	-0.263
Mof_O 	O 	0.6372	0.1088	0.13557	-0.259
Mof_N 	N 	0.71853	0.84336	0.11776	-0.257
Mof_H 	H 	0.7439	0.8393	0.1269	0.128
Mof_N 	N 	0.7243	0.91353	0.13279	-0.291
Mof_H 	H 	0.7508	0.9057	0.1385	0.137
Mof_N 	N 	0.776	0.05492	0.23918	-0.255
Mof_H 	H 	0.768	0.0821	0.2354	0.128
Mof_N 	N 	0.7428	0.0418	0.19478	-0.29
Mof_H 	H 	0.7408	0.0706	0.1943	0.135
Mof_N 	N 	0.6352	0.0416	0.11467	-0.285
Mof_H 	H 	0.6215	0.0245	0.1017	0.136
Mof_N 	N 	0.5889	0.0937	0.09741	-0.253
Mof_H 	H 	0.5766	0.0723	0.0871	0.127
Mof_C 	C 	0.61931	0.78156	0.0412	0.348
Mof_C 	C 	0.68336	0.68611	0.12151	0.349
Mof_C 	C 	0.64998	0.77502	0.06683	-0.044
Mof_C 	C 	0.6547	0.73365	0.08018	-0.008
Mof_H 	H 	0.6403	0.7087	0.0719	0.064
Mof_C 	C 	0.68089	0.72965	0.10591	-0.042
Mof_C 	C 	0.7022	0.76554	0.1175	-0.091
Mof_H 	H 	0.7199	0.7624	0.135	0.079
Mof_C 	C 	0.6982	0.80704	0.10379	0.133
Mof_C 	C 	0.67271	0.81111	0.07808	-0.089
Mof_H 	H 	0.6707	0.8386	0.0681	0.096
Mof_C 	C 	0.82026	0.95717	0.32357	0.344
Mof_C 	C 	0.85705	0.11673	0.32364	0.348
Mof_C 	C 	0.82077	0.001	0.30797	-0.033
Mof_C 	C 	0.84041	0.03617	0.32116	-0.016
Mof_H 	H 	0.8558	0.0326	0.3396	0.068
Mof_C 	C 	0.8381	0.07725	0.30782	-0.032
Mof_C 	C 	0.8172	0.08228	0.28054	-0.105
Mof_H 	H 	0.8162	0.1103	0.2712	0.083
Mof_C 	C 	0.7977	0.04713	0.26686	0.143
Mof_C 	C 	0.7987	0.00583	0.28079	-0.098
Mof_H 	H 	0.7844	0.9814	0.2717	0.103
Mof_C 	C 	0.58622	0.25257	0.12012	0.345
Mof_C 	C 	0.49092	0.18975	0.03994	0.354
Mof_C 	C 	0.57064	0.21397	0.10293	-0.042
Mof_C 	C 	0.54095	0.21953	0.07937	-0.007
Mof_H 	H 	0.532	0.2483	0.0738	0.064
Mof_C 	C 	0.52458	0.18395	0.0642	-0.044
Mof_C 	C 	0.5396	0.14125	0.07126	-0.092
Mof_H 	H 	0.5281	0.1162	0.0612	0.076
Mof_C 	C 	0.5718	0.1369	0.09333	0.133
Mof_C 	C 	0.5856	0.17288	0.11012	-0.095
Mof_H 	H 	0.6053	0.169	0.1265	0.106
Mof_C 	C 	0.7011	0.8836	0.1178	0.317
Mof_C 	C 	0.7665	0.0244	0.21796	0.315
Mof_C 	C 	0.6224	0.0834	0.1159	0.311
Mof_C 	C 	0.711	0.9564	0.14048	0.315
Mof_C 	C 	0.7319	0.9763	0.16412	-0.381
Mof_H 	H 	0.7535	0.961	0.1754	0.182
Mof_C 	C 	0.7212	0.0187	0.17125	0.349
Mof_C 	C 	0.6925	0.0412	0.15472	-0.402
Mof_H 	H 	0.6884	0.0716	0.1586	0.188
Mof_C 	C 	0.6693	0.0218	0.1326	0.32
Mof_C 	C 	0.6799	0.979	0.12305	-0.34
Mof_H 	H 	0.6668	0.9661	0.1057	0.167
Mof_Cu	Cu	0.90236	0.15594	0.62788	0.906
Mof_Cu	Cu	0.869	0.20807	0.66983	0.906
Mof_O 	O 	0.88497	0.68027	0.53131	-0.406
Mof_O 	O 	0.89939	0.75229	0.5308	-0.4
Mof_O 	O 	0.83526	0.84505	0.6087	-0.407
Mof_O 	O 	0.79563	0.81538	0.64602	-0.404
Mof_O 	O 	0.70358	0.57228	0.81228	-0.398
Mof_O 	O 	0.65518	0.54624	0.84601	-0.404
Mof_O 	O 	0.62388	0.39084	0.84783	-0.407
Mof_O 	O 	0.64786	0.34687	0.81072	-0.404
Mof_O 	O 	0.89034	0.25499	0.64319	-0.396
Mof_O 	O 	0.92359	0.21043	0.61013	-0.406
Mof_O 	O 	0.01386	0.27161	0.531	-0.409
Mof_O 	O 	0.02826	0.34377	0.53063	-0.405
Mof_O 	O 	0.8345	0.60723	0.6057	-0.256
Mof_O 	O 	0.72607	0.51483	0.72033	-0.263
Mof_O 	O 	0.8628	0.3912	0.63557	-0.259
Mof_N 	N 	0.78147	0.65664	0.61776	-0.257
Mof_H 	H 	0.7561	0.6607	0.6269	0.128
Mof_N 	N 	0.7757	0.58647	0.63279	-0.291
Mof_H 	H 	0.7492	0.5943	0.6385	0.137
Mof_N 	N 	0.724	0.44508	0.73918	-0.255
Mof_H 	H 	0.732	0.4179	0.7354	0.128
Mof_N 	N 	0.7572	0.4582	0.69478	-0.29
Mof_H 	H 	0.7592	0.4294	0.6943	0.135
Mof_N 	N 	0.8648	0.4584	0.61467	-0.285
Mof_H 	H 	0.8785	0.4755	0.6017	0.136
Mof_N 	N 	0.9111	0.4063	0.59741	-0.253
Mof_H 	H 	0.9234	0.4277	0.5871	0.128
Mof_C 	C 	0.88069	0.71844	0.5412	0.347
Mof_C 	C 	0.81664	0.81389	0.62151	0.349
Mof_C 	C 	0.85002	0.72498	0.56683	-0.043
Mof_C 	C 	0.8453	0.76635	0.58018	-0.008
Mof_H 	H 	0.8597	0.7913	0.5719	0.065
Mof_C 	C 	0.81911	0.77035	0.60591	-0.042
Mof_C 	C 	0.7978	0.73446	0.6175	-0.091
Mof_H 	H 	0.7801	0.7376	0.635	0.079
Mof_C 	C 	0.8018	0.69296	0.60379	0.133
Mof_C 	C 	0.82729	0.68889	0.57808	-0.089
Mof_H 	H 	0.8293	0.6614	0.5681	0.096
Mof_C 	C 	0.67974	0.54283	0.82357	0.344
Mof_C 	C 	0.64295	0.38327	0.82364	0.348
Mof_C 	C 	0.67923	0.499	0.80797	-0.032
Mof_C 	C 	0.65959	0.46383	0.82116	-0.016
Mof_H 	H 	0.6442	0.4674	0.8396	0.068
Mof_C 	C 	0.6619	0.42275	0.80782	-0.032
Mof_C 	C 	0.6828	0.41772	0.78054	-0.105
Mof_H 	H 	0.6838	0.3897	0.7712	0.083
Mof_C 	C 	0.7023	0.45287	0.76686	0.143
Mof_C 	C 	0.7013	0.49417	0.78079	-0.098
Mof_H 	H 	0.7156	0.5186	0.7717	0.103
Mof_C 	C 	0.91378	0.24743	0.62012	0.345
Mof_C 	C 	0.00908	0.31025	0.53994	0.353
Mof_C 	C 	0.92936	0.28603	0.60293	-0.041
Mof_C 	C 	0.95905	0.28047	0.57937	-0.007
Mof_H 	H 	0.968	0.2517	0.5738	0.065
Mof_C 	C 	0.97542	0.31605	0.5642	-0.044
Mof_C 	C 	0.9604	0.35875	0.57126	-0.092
Mof_H 	H 	0.9719	0.3838	0.5612	0.077
Mof_C 	C 	0.9282	0.3631	0.59333	0.134
Mof_C 	C 	0.9144	0.32712	0.61012	-0.095
Mof_H 	H 	0.8947	0.331	0.6265	0.106
Mof_C 	C 	0.7989	0.6164	0.6178	0.317
Mof_C 	C 	0.7335	0.4756	0.71796	0.315
Mof_C 	C 	0.8776	0.4166	0.6159	0.311
Mof_C 	C 	0.789	0.5436	0.64048	0.315
Mof_C 	C 	0.7681	0.5237	0.66412	-0.381
Mof_H 	H 	0.7465	0.539	0.6754	0.182
Mof_C 	C 	0.7788	0.4813	0.67125	0.349
Mof_C 	C 	0.8075	0.4588	0.65472	-0.402
Mof_H 	H 	0.8116	0.4284	0.6586	0.188
Mof_C 	C 	0.8307	0.4782	0.6326	0.32
Mof_C 	C 	0.8201	0.521	0.62305	-0.34
Mof_H 	H 	0.8332	0.5339	0.6057	0.167
Mof_Cu	Cu	0.40236	0.65594	0.12788	0.906
Mof_Cu	Cu	0.369	0.70807	0.16983	0.906
Mof_O 	O 	0.38497	0.18027	0.03131	-0.407
Mof_O 	O 	0.39939	0.25229	0.0308	-0.401
Mof_O 	O 	0.33526	0.34505	0.1087	-0.407
Mof_O 	O 	0.29563	0.31538	0.14602	-0.404
Mof_O 	O 	0.20358	0.07228	0.31228	-0.398
Mof_O 	O 	0.15518	0.04624	0.34601	-0.405
Mof_O 	O 	0.12388	0.89084	0.34783	-0.407
Mof_O 	O 	0.14786	0.84687	0.31072	-0.404
Mof_O 	O 	0.39034	0.75499	0.14319	-0.396
Mof_O 	O 	0.42359	0.71043	0.11013	-0.406
Mof_O 	O 	0.51386	0.77161	0.031	-0.41
Mof_O 	O 	0.52826	0.84377	0.03063	-0.406
Mof_O 	O 	0.3345	0.10723	0.1057	-0.256
Mof_O 	O 	0.22607	0.01483	0.22033	-0.263
Mof_O 	O 	0.3628	0.8912	0.13557	-0.259
Mof_N 	N 	0.28147	0.15664	0.11776	-0.257
Mof_H 	H 	0.2561	0.1607	0.1269	0.128
Mof_N 	N 	0.2757	0.08647	0.13279	-0.291
Mof_H 	H 	0.2492	0.0943	0.1385	0.137
Mof_N 	N 	0.224	0.94508	0.23918	-0.255
Mof_H 	H 	0.232	0.9179	0.2354	0.128
Mof_N 	N 	0.2572	0.9582	0.19478	-0.29
Mof_H 	H 	0.2592	0.9294	0.1943	0.135
Mof_N 	N 	0.3648	0.9584	0.11467	-0.285
Mof_H 	H 	0.3785	0.9755	0.1017	0.136
Mof_N 	N 	0.4111	0.9063	0.09741	-0.253
Mof_H 	H 	0.4234	0.9277	0.0871	0.127
Mof_C 	C 	0.38069	0.21844	0.0412	0.348
Mof_C 	C 	0.31664	0.31389	0.12151	0.349
Mof_C 	C 	0.35002	0.22498	0.06683	-0.044
Mof_C 	C 	0.3453	0.26635	0.08018	-0.008
Mof_H 	H 	0.3597	0.2913	0.0719	0.064
Mof_C 	C 	0.31911	0.27035	0.10591	-0.042
Mof_C 	C 	0.2978	0.23446	0.1175	-0.091
Mof_H 	H 	0.2801	0.2376	0.135	0.079
Mof_C 	C 	0.3018	0.19296	0.10379	0.133
Mof_C 	C 	0.32729	0.18889	0.07808	-0.089
Mof_H 	H 	0.3293	0.1614	0.0681	0.096
Mof_C 	C 	0.17974	0.04283	0.32357	0.344
Mof_C 	C 	0.14295	0.88327	0.32364	0.348
Mof_C 	C 	0.17923	0.999	0.30797	-0.033
Mof_C 	C 	0.15959	0.96383	0.32116	-0.016
Mof_H 	H 	0.1442	0.9674	0.3396	0.068
Mof_C 	C 	0.1619	0.92275	0.30782	-0.032
Mof_C 	C 	0.1828	0.91772	0.28054	-0.105
Mof_H 	H 	0.1838	0.8897	0.2712	0.083
Mof_C 	C 	0.2023	0.95287	0.26686	0.143
Mof_C 	C 	0.2013	0.99417	0.28079	-0.098
Mof_H 	H 	0.2156	0.0186	0.2717	0.103
Mof_C 	C 	0.41378	0.74743	0.12012	0.345
Mof_C 	C 	0.50908	0.81025	0.03994	0.354
Mof_C 	C 	0.42936	0.78603	0.10293	-0.042
Mof_C 	C 	0.45905	0.78047	0.07937	-0.007
Mof_H 	H 	0.468	0.7517	0.0738	0.064
Mof_C 	C 	0.47542	0.81605	0.0642	-0.044
Mof_C 	C 	0.4604	0.85875	0.07126	-0.092
Mof_H 	H 	0.4719	0.8838	0.0612	0.076
Mof_C 	C 	0.4282	0.8631	0.09333	0.133
Mof_C 	C 	0.4144	0.82712	0.11012	-0.095
Mof_H 	H 	0.3947	0.831	0.1265	0.106
Mof_C 	C 	0.2989	0.1164	0.1178	0.317
Mof_C 	C 	0.2335	0.9756	0.21796	0.315
Mof_C 	C 	0.3776	0.9166	0.1159	0.311
Mof_C 	C 	0.289	0.0436	0.14048	0.315
Mof_C 	C 	0.2681	0.0237	0.16412	-0.381
Mof_H 	H 	0.2465	0.039	0.1754	0.182
Mof_C 	C 	0.2788	0.9813	0.17125	0.349
Mof_C 	C 	0.3075	0.9588	0.15472	-0.402
Mof_H 	H 	0.3116	0.9284	0.1586	0.188
Mof_C 	C 	0.3307	0.9782	0.1326	0.32
Mof_C 	C 	0.3201	0.021	0.12305	-0.34
Mof_H 	H 	0.3332	0.0339	0.1057	0.167
Mof_Cu	Cu	0.15594	0.09764	0.62788	0.906
Mof_Cu	Cu	0.20807	0.131	0.66983	0.906
Mof_O 	O 	0.68027	0.11503	0.53131	-0.406
Mof_O 	O 	0.75229	0.10061	0.5308	-0.4
Mof_O 	O 	0.84505	0.16474	0.6087	-0.407
Mof_O 	O 	0.81538	0.20437	0.64602	-0.404
Mof_O 	O 	0.57228	0.29642	0.81228	-0.398
Mof_O 	O 	0.54624	0.34482	0.84601	-0.404
Mof_O 	O 	0.39084	0.37612	0.84783	-0.407
Mof_O 	O 	0.34687	0.35214	0.81072	-0.404
Mof_O 	O 	0.25499	0.10966	0.64319	-0.396
Mof_O 	O 	0.21043	0.07641	0.61013	-0.406
Mof_O 	O 	0.27161	0.98614	0.531	-0.409
Mof_O 	O 	0.34377	0.97174	0.53063	-0.405
Mof_O 	O 	0.60723	0.1655	0.6057	-0.256
Mof_O 	O 	0.51483	0.27393	0.72033	-0.263
Mof_O 	O 	0.3912	0.1372	0.63557	-0.259
Mof_N 	N 	0.65664	0.21853	0.61776	-0.257
Mof_H 	H 	0.6607	0.2439	0.6269	0.128
Mof_N 	N 	0.58647	0.2243	0.63279	-0.291
Mof_H 	H 	0.5943	0.2508	0.6385	0.137
Mof_N 	N 	0.44508	0.276	0.73918	-0.255
Mof_H 	H 	0.4179	0.268	0.7354	0.128
Mof_N 	N 	0.4582	0.2428	0.69478	-0.29
Mof_H 	H 	0.4294	0.2408	0.6943	0.135
Mof_N 	N 	0.4584	0.1352	0.61467	-0.285
Mof_H 	H 	0.4755	0.1215	0.6017	0.136
Mof_N 	N 	0.4063	0.0889	0.59741	-0.253
Mof_H 	H 	0.4277	0.0766	0.5871	0.128
Mof_C 	C 	0.71844	0.11931	0.5412	0.347
Mof_C 	C 	0.81389	0.18336	0.62151	0.349
Mof_C 	C 	0.72498	0.14998	0.56683	-0.043
Mof_C 	C 	0.76635	0.1547	0.58018	-0.008
Mof_H 	H 	0.7913	0.1403	0.5719	0.065
Mof_C 	C 	0.77035	0.18089	0.60591	-0.042
Mof_C 	C 	0.73446	0.2022	0.6175	-0.091
Mof_H 	H 	0.7376	0.2199	0.635	0.079
Mof_C 	C 	0.69296	0.1982	0.60379	0.133
Mof_C 	C 	0.68889	0.17271	0.57808	-0.089
Mof_H 	H 	0.6614	0.1707	0.5681	0.096
Mof_C 	C 	0.54283	0.32026	0.82357	0.344
Mof_C 	C 	0.38327	0.35705	0.82364	0.348
Mof_C 	C 	0.499	0.32077	0.80797	-0.032
Mof_C 	C 	0.46383	0.34041	0.82116	-0.016
Mof_H 	H 	0.4674	0.3558	0.8396	0.068
Mof_C 	C 	0.42275	0.3381	0.80782	-0.032
Mof_C 	C 	0.41772	0.3172	0.78054	-0.105
Mof_H 	H 	0.3897	0.3162	0.7712	0.083
Mof_C 	C 	0.45287	0.2977	0.76686	0.143
Mof_C 	C 	0.49417	0.2987	0.78079	-0.098
Mof_H 	H 	0.5186	0.2844	0.7717	0.103
Mof_C 	C 	0.24743	0.08622	0.62012	0.345
Mof_C 	C 	0.31025	0.99092	0.53994	0.353
Mof_C 	C 	0.28603	0.07064	0.60293	-0.041
Mof_C 	C 	0.28047	0.04095	0.57937	-0.007
Mof_H 	H 	0.2517	0.032	0.5738	0.065
Mof_C 	C 	0.31605	0.02458	0.5642	-0.044
Mof_C 	C 	0.35875	0.0396	0.57126	-0.092
Mof_H 	H 	0.3838	0.0281	0.5612	0.077
Mof_C 	C 	0.3631	0.0718	0.59333	0.134
Mof_C 	C 	0.32712	0.0856	0.61012	-0.095
Mof_H 	H 	0.331	0.1053	0.6265	0.106
Mof_C 	C 	0.6164	0.2011	0.6178	0.317
Mof_C 	C 	0.4756	0.2665	0.71796	0.315
Mof_C 	C 	0.4166	0.1224	0.6159	0.311
Mof_C 	C 	0.5436	0.211	0.64048	0.315
Mof_C 	C 	0.5237	0.2319	0.66412	-0.381
Mof_H 	H 	0.539	0.2535	0.6754	0.182
Mof_C 	C 	0.4813	0.2212	0.67125	0.349
Mof_C 	C 	0.4588	0.1925	0.65472	-0.402
Mof_H 	H 	0.4284	0.1884	0.6586	0.188
Mof_C 	C 	0.4782	0.1693	0.6326	0.32
Mof_C 	C 	0.521	0.1799	0.62305	-0.34
Mof_H 	H 	0.5339	0.1668	0.6057	0.167
Mof_Cu	Cu	0.65594	0.59764	0.12788	0.906
Mof_Cu	Cu	0.70807	0.631	0.16983	0.906
Mof_O 	O 	0.18027	0.61503	0.03131	-0.407
Mof_O 	O 	0.25229	0.60061	0.0308	-0.401
Mof_O 	O 	0.34505	0.66474	0.1087	-0.407
Mof_O 	O 	0.31538	0.70437	0.14602	-0.404
Mof_O 	O 	0.07228	0.79642	0.31228	-0.398
Mof_O 	O 	0.04624	0.84482	0.34601	-0.405
Mof_O 	O 	0.89084	0.87612	0.34783	-0.407
Mof_O 	O 	0.84687	0.85214	0.31072	-0.404
Mof_O 	O 	0.75499	0.60966	0.14319	-0.396
Mof_O 	O 	0.71043	0.57641	0.11013	-0.406
Mof_O 	O 	0.77161	0.48614	0.031	-0.41
Mof_O 	O 	0.84377	0.47174	0.03063	-0.406
Mof_O 	O 	0.10723	0.6655	0.1057	-0.256
Mof_O 	O 	0.01483	0.77393	0.22033	-0.263
Mof_O 	O 	0.8912	0.6372	0.13557	-0.259
Mof_N 	N 	0.15664	0.71853	0.11776	-0.257
Mof_H 	H 	0.1607	0.7439	0.1269	0.128
Mof_N 	N 	0.08647	0.7243	0.13279	-0.291
Mof_H 	H 	0.0943	0.7508	0.1385	0.137
Mof_N 	N 	0.94508	0.776	0.23918	-0.255
Mof_H 	H 	0.9179	0.768	0.2354	0.128
Mof_N 	N 	0.9582	0.7428	0.19478	-0.29
Mof_H 	H 	0.9294	0.7408	0.1943	0.135
Mof_N 	N 	0.9584	0.6352	0.11467	-0.285
Mof_H 	H 	0.9755	0.6215	0.1017	0.136
Mof_N 	N 	0.9063	0.5889	0.09741	-0.253
Mof_H 	H 	0.9277	0.5766	0.0871	0.127
Mof_C 	C 	0.21844	0.61931	0.0412	0.348
Mof_C 	C 	0.31389	0.68336	0.12151	0.349
Mof_C 	C 	0.22498	0.64998	0.06683	-0.044
Mof_C 	C 	0.26635	0.6547	0.08018	-0.008
Mof_H 	H 	0.2913	0.6403	0.0719	0.064
Mof_C 	C 	0.27035	0.68089	0.10591	-0.042
Mof_C 	C 	0.23446	0.7022	0.1175	-0.091
Mof_H 	H 	0.2376	0.7199	0.135	0.079
Mof_C 	C 	0.19296	0.6982	0.10379	0.133
Mof_C 	C 	0.18889	0.67271	0.07808	-0.089
Mof_H 	H 	0.1614	0.6707	0.0681	0.096
Mof_C 	C 	0.04283	0.82026	0.32357	0.344
Mof_C 	C 	0.88327	0.85705	0.32364	0.348
Mof_C 	C 	0.999	0.82077	0.30797	-0.033
Mof_C 	C 	0.96383	0.84041	0.32116	-0.016
Mof_H 	H 	0.9674	0.8558	0.3396	0.068
Mof_C 	C 	0.92275	0.8381	0.30782	-0.032
Mof_C 	C 	0.91772	0.8172	0.28054	-0.105
Mof_H 	H 	0.8897	0.8162	0.2712	0.083
Mof_C 	C 	0.95287	0.7977	0.26686	0.143
Mof_C 	C 	0.99417	0.7987	0.28079	-0.098
Mof_H 	H 	0.0186	0.7844	0.2717	0.103
Mof_C 	C 	0.74743	0.58622	0.12012	0.345
Mof_C 	C 	0.81025	0.49092	0.03994	0.354
Mof_C 	C 	0.78603	0.57064	0.10293	-0.042
Mof_C 	C 	0.78047	0.54095	0.07937	-0.007
Mof_H 	H 	0.7517	0.532	0.0738	0.064
Mof_C 	C 	0.81605	0.52458	0.0642	-0.044
Mof_C 	C 	0.85875	0.5396	0.07126	-0.092
Mof_H 	H 	0.8838	0.5281	0.0612	0.076
Mof_C 	C 	0.8631	0.5718	0.09333	0.133
Mof_C 	C 	0.82712	0.5856	0.11012	-0.095
Mof_H 	H 	0.831	0.6053	0.1265	0.106
Mof_C 	C 	0.1164	0.7011	0.1178	0.317
Mof_C 	C 	0.9756	0.7665	0.21796	0.315
Mof_C 	C 	0.9166	0.6224	0.1159	0.311
Mof_C 	C 	0.0436	0.711	0.14048	0.315
Mof_C 	C 	0.0237	0.7319	0.16412	-0.381
Mof_H 	H 	0.039	0.7535	0.1754	0.182
Mof_C 	C 	0.9813	0.7212	0.17125	0.349
Mof_C 	C 	0.9588	0.6925	0.15472	-0.402
Mof_H 	H 	0.9284	0.6884	0.1586	0.188
Mof_C 	C 	0.9782	0.6693	0.1326	0.32
Mof_C 	C 	0.021	0.6799	0.12305	-0.34
Mof_H 	H 	0.0339	0.6668	0.1057	0.167
Mof_Cu	Cu	0.84406	0.90236	0.62788	0.906
Mof_Cu	Cu	0.79193	0.869	0.66983	0.906
Mof_O 	O 	0.31973	0.88497	0.53131	-0.406
Mof_O 	O 	0.24771	0.89939	0.5308	-0.4
Mof_O 	O 	0.15495	0.83526	0.6087	-0.407
Mof_O 	O 	0.18462	0.79563	0.64602	-0.404
Mof_O 	O 	0.42772	0.70358	0.81228	-0.398
Mof_O 	O 	0.45376	0.65518	0.84601	-0.404
Mof_O 	O 	0.60916	0.62388	0.84783	-0.407
Mof_O 	O 	0.65313	0.64786	0.81072	-0.404
Mof_O 	O 	0.74501	0.89034	0.64319	-0.396
Mof_O 	O 	0.78957	0.92359	0.61013	-0.406
Mof_O 	O 	0.72839	0.01386	0.531	-0.409
Mof_O 	O 	0.65623	0.02826	0.53063	-0.405
Mof_O 	O 	0.39277	0.8345	0.6057	-0.256
Mof_O 	O 	0.48517	0.72607	0.72033	-0.263
Mof_O 	O 	0.6088	0.8628	0.63557	-0.259
Mof_N 	N 	0.34336	0.78147	0.61776	-0.257
Mof_H 	H 	0.3393	0.7561	0.6269	0.128
Mof_N 	N 	0.41353	0.7757	0.63279	-0.291
Mof_H 	H 	0.4057	0.7492	0.6385	0.137
Mof_N 	N 	0.55492	0.724	0.73918	-0.255
Mof_H 	H 	0.5821	0.732	0.7354	0.128
Mof_N 	N 	0.5418	0.7572	0.69478	-0.29
Mof_H 	H 	0.5706	0.7592	0.6943	0.135
Mof_N 	N 	0.5416	0.8648	0.61467	-0.285
Mof_H 	H 	0.5245	0.8785	0.6017	0.136
Mof_N 	N 	0.5937	0.9111	0.59741	-0.253
Mof_H 	H 	0.5723	0.9234	0.5871	0.128
Mof_C 	C 	0.28156	0.88069	0.5412	0.347
Mof_C 	C 	0.18611	0.81664	0.62151	0.349
Mof_C 	C 	0.27502	0.85002	0.56683	-0.043
Mof_C 	C 	0.23365	0.8453	0.58018	-0.008
Mof_H 	H 	0.2087	0.8597	0.5719	0.065
Mof_C 	C 	0.22965	0.81911	0.60591	-0.042
Mof_C 	C 	0.26554	0.7978	0.6175	-0.091
Mof_H 	H 	0.2624	0.7801	0.635	0.079
Mof_C 	C 	0.30704	0.8018	0.60379	0.133
Mof_C 	C 	0.31111	0.82729	0.57808	-0.089
Mof_H 	H 	0.3386	0.8293	0.5681	0.096
Mof_C 	C 	0.45717	0.67974	0.82357	0.344
Mof_C 	C 	0.61673	0.64295	0.82364	0.348
Mof_C 	C 	0.501	0.67923	0.80797	-0.032
Mof_C 	C 	0.53617	0.65959	0.82116	-0.016
Mof_H 	H 	0.5326	0.6442	0.8396	0.068
Mof_C 	C 	0.57725	0.6619	0.80782	-0.032
Mof_C 	C 	0.58228	0.6828	0.78054	-0.105
Mof_H 	H 	0.6103	0.6838	0.7712	0.083
Mof_C 	C 	0.54713	0.7023	0.76686	0.143
Mof_C 	C 	0.50583	0.7013	0.78079	-0.098
Mof_H 	H 	0.4814	0.7156	0.7717	0.103
Mof_C 	C 	0.75257	0.91378	0.62012	0.345
Mof_C 	C 	0.68975	0.00908	0.53994	0.353
Mof_C 	C 	0.71397	0.92936	0.60293	-0.041
Mof_C 	C 	0.71953	0.95905	0.57937	-0.007
Mof_H 	H 	0.7483	0.968	0.5738	0.065
Mof_C 	C 	0.68395	0.97542	0.5642	-0.044
Mof_C 	C 	0.64125	0.9604	0.57126	-0.092
Mof_H 	H 	0.6162	0.9719	0.5612	0.077
Mof_C 	C 	0.6369	0.9282	0.59333	0.134
Mof_C 	C 	0.67288	0.9144	0.61012	-0.095
Mof_H 	H 	0.669	0.8947	0.6265	0.106
Mof_C 	C 	0.3836	0.7989	0.6178	0.317
Mof_C 	C 	0.5244	0.7335	0.71796	0.315
Mof_C 	C 	0.5834	0.8776	0.6159	0.311
Mof_C 	C 	0.4564	0.789	0.64048	0.315
Mof_C 	C 	0.4763	0.7681	0.66412	-0.381
Mof_H 	H 	0.461	0.7465	0.6754	0.182
Mof_C 	C 	0.5187	0.7788	0.67125	0.349
Mof_C 	C 	0.5412	0.8075	0.65472	-0.402
Mof_H 	H 	0.5716	0.8116	0.6586	0.188
Mof_C 	C 	0.5218	0.8307	0.6326	0.32
Mof_C 	C 	0.479	0.8201	0.62305	-0.34
Mof_H 	H 	0.4661	0.8332	0.6057	0.167
Mof_Cu	Cu	0.34406	0.40236	0.12788	0.906
Mof_Cu	Cu	0.29193	0.369	0.16983	0.906
Mof_O 	O 	0.81973	0.38497	0.03131	-0.407
Mof_O 	O 	0.74771	0.39939	0.0308	-0.401
Mof_O 	O 	0.65495	0.33526	0.1087	-0.407
Mof_O 	O 	0.68462	0.29563	0.14602	-0.404
Mof_O 	O 	0.92772	0.20358	0.31228	-0.398
Mof_O 	O 	0.95376	0.15518	0.34601	-0.405
Mof_O 	O 	0.10916	0.12388	0.34783	-0.407
Mof_O 	O 	0.15313	0.14786	0.31072	-0.404
Mof_O 	O 	0.24501	0.39034	0.14319	-0.396
Mof_O 	O 	0.28957	0.42359	0.11013	-0.406
Mof_O 	O 	0.22839	0.51386	0.031	-0.41
Mof_O 	O 	0.15623	0.52826	0.03063	-0.406
Mof_O 	O 	0.89277	0.3345	0.1057	-0.256
Mof_O 	O 	0.98517	0.22607	0.22033	-0.263
Mof_O 	O 	0.1088	0.3628	0.13557	-0.259
Mof_N 	N 	0.84336	0.28147	0.11776	-0.257
Mof_H 	H 	0.8393	0.2561	0.1269	0.128
Mof_N 	N 	0.91353	0.2757	0.13279	-0.291
Mof_H 	H 	0.9057	0.2492	0.1385	0.137
Mof_N 	N 	0.05492	0.224	0.23918	-0.255
Mof_H 	H 	0.0821	0.232	0.2354	0.128
Mof_N 	N 	0.0418	0.2572	0.19478	-0.29
Mof_H 	H 	0.0706	0.2592	0.1943	0.135
Mof_N 	N 	0.0416	0.3648	0.11467	-0.285
Mof_H 	H 	0.0245	0.3785	0.1017	0.136
Mof_N 	N 	0.0937	0.4111	0.09741	-0.253
Mof_H 	H 	0.0723	0.4234	0.0871	0.127
Mof_C 	C 	0.78156	0.38069	0.0412	0.348
Mof_C 	C 	0.68611	0.31664	0.12151	0.349
Mof_C 	C 	0.77502	0.35002	0.06683	-0.044
Mof_C 	C 	0.73365	0.3453	0.08018	-0.008
Mof_H 	H 	0.7087	0.3597	0.0719	0.064
Mof_C 	C 	0.72965	0.31911	0.10591	-0.042
Mof_C 	C 	0.76554	0.2978	0.1175	-0.091
Mof_H 	H 	0.7624	0.2801	0.135	0.079
Mof_C 	C 	0.80704	0.3018	0.10379	0.133
Mof_C 	C 	0.81111	0.32729	0.07808	-0.089
Mof_H 	H 	0.8386	0.3293	0.0681	0.096
Mof_C 	C 	0.95717	0.17974	0.32357	0.344
Mof_C 	C 	0.11673	0.14295	0.32364	0.348
Mof_C 	C 	0.001	0.17923	0.30797	-0.033
Mof_C 	C 	0.03617	0.15959	0.32116	-0.016
Mof_H 	H 	0.0326	0.1442	0.3396	0.068
Mof_C 	C 	0.07725	0.1619	0.30782	-0.032
Mof_C 	C 	0.08228	0.1828	0.28054	-0.105
Mof_H 	H 	0.1103	0.1838	0.2712	0.083
Mof_C 	C 	0.04713	0.2023	0.26686	0.143
Mof_C 	C 	0.00583	0.2013	0.28079	-0.098
Mof_H 	H 	0.9814	0.2156	0.2717	0.103
Mof_C 	C 	0.25257	0.41378	0.12012	0.345
Mof_C 	C 	0.18975	0.50908	0.03994	0.354
Mof_C 	C 	0.21397	0.42936	0.10293	-0.042
Mof_C 	C 	0.21953	0.45905	0.07937	-0.007
Mof_H 	H 	0.2483	0.468	0.0738	0.064
Mof_C 	C 	0.18395	0.47542	0.0642	-0.044
Mof_C 	C 	0.14125	0.4604	0.07126	-0.092
Mof_H 	H 	0.1162	0.4719	0.0612	0.076
Mof_C 	C 	0.1369	0.4282	0.09333	0.133
Mof_C 	C 	0.17288	0.4144	0.11012	-0.095
Mof_H 	H 	0.169	0.3947	0.1265	0.106
Mof_C 	C 	0.8836	0.2989	0.1178	0.317
Mof_C 	C 	0.0244	0.2335	0.21796	0.315
Mof_C 	C 	0.0834	0.3776	0.1159	0.311
Mof_C 	C 	0.9564	0.289	0.14048	0.315
Mof_C 	C 	0.9763	0.2681	0.16412	-0.381
Mof_H 	H 	0.961	0.2465	0.1754	0.182
Mof_C 	C 	0.0187	0.2788	0.17125	0.349
Mof_C 	C 	0.0412	0.3075	0.15472	-0.402
Mof_H 	H 	0.0716	0.3116	0.1586	0.188
Mof_C 	C 	0.0218	0.3307	0.1326	0.32
Mof_C 	C 	0.979	0.3201	0.12305	-0.34
Mof_H 	H 	0.9661	0.3332	0.1057	0.167
Mof_Cu	Cu	0.90236	0.15594	0.37212	0.906
Mof_Cu	Cu	0.869	0.20807	0.33017	0.906
Mof_O 	O 	0.88497	0.68027	0.46869	-0.406
Mof_O 	O 	0.89939	0.75229	0.4692	-0.4
Mof_O 	O 	0.83526	0.84505	0.3913	-0.407
Mof_O 	O 	0.79563	0.81538	0.35398	-0.404
Mof_O 	O 	0.70358	0.57228	0.18772	-0.398
Mof_O 	O 	0.65518	0.54624	0.15399	-0.405
Mof_O 	O 	0.62388	0.39084	0.15217	-0.407
Mof_O 	O 	0.64786	0.34687	0.18928	-0.404
Mof_O 	O 	0.89034	0.25499	0.35681	-0.396
Mof_O 	O 	0.92359	0.21043	0.38987	-0.406
Mof_O 	O 	0.01386	0.27161	0.469	-0.409
Mof_O 	O 	0.02826	0.34377	0.46937	-0.405
Mof_O 	O 	0.8345	0.60723	0.3943	-0.256
Mof_O 	O 	0.72607	0.51483	0.27967	-0.263
Mof_O 	O 	0.8628	0.3912	0.36443	-0.259
Mof_N 	N 	0.78147	0.65664	0.38224	-0.257
Mof_H 	H 	0.7561	0.6607	0.3731	0.128
Mof_N 	N 	0.7757	0.58647	0.36721	-0.291
Mof_H 	H 	0.7492	0.5943	0.3615	0.137
Mof_N 	N 	0.724	0.44508	0.26082	-0.255
Mof_H 	H 	0.732	0.4179	0.2646	0.128
Mof_N 	N 	0.7572	0.4582	0.30522	-0.29
Mof_H 	H 	0.7592	0.4294	0.3057	0.135
Mof_N 	N 	0.8648	0.4584	0.38533	-0.285
Mof_H 	H 	0.8785	0.4755	0.3983	0.136
Mof_N 	N 	0.9111	0.4063	0.40259	-0.253
Mof_H 	H 	0.9234	0.4277	0.4129	0.128
Mof_C 	C 	0.88069	0.71844	0.4588	0.347
Mof_C 	C 	0.81664	0.81389	0.37849	0.349
Mof_C 	C 	0.85002	0.72498	0.43317	-0.043
Mof_C 	C 	0.8453	0.76635	0.41982	-0.008
Mof_H 	H 	0.8597	0.7913	0.4281	0.065
Mof_C 	C 	0.81911	0.77035	0.39409	-0.042
Mof_C 	C 	0.7978	0.73446	0.3825	-0.091
Mof_H 	H 	0.7801	0.7376	0.365	0.079
Mof_C 	C 	0.8018	0.69296	0.39621	0.133
Mof_C 	C 	0.82729	0.68889	0.42192	-0.089
Mof_H 	H 	0.8293	0.6614	0.4319	0.096
Mof_C 	C 	0.67974	0.54283	0.17643	0.344
Mof_C 	C 	0.64295	0.38327	0.17636	0.348
Mof_C 	C 	0.67923	0.499	0.19203	-0.033
Mof_C 	C 	0.65959	0.46383	0.17884	-0.016
Mof_H 	H 	0.6442	0.4674	0.1604	0.068
Mof_C 	C 	0.6619	0.42275	0.19218	-0.032
Mof_C 	C 	0.6828	0.41772	0.21946	-0.105
Mof_H 	H 	0.6838	0.3897	0.2288	0.083
Mof_C 	C 	0.7023	0.45287	0.23314	0.143
Mof_C 	C 	0.7013	0.49417	0.21921	-0.098
Mof_H 	H 	0.7156	0.5186	0.2283	0.103
Mof_C 	C 	0.91378	0.24743	0.37988	0.345
Mof_C 	C 	0.00908	0.31025	0.46006	0.353
Mof_C 	C 	0.92936	0.28603	0.39707	-0.041
Mof_C 	C 	0.95905	0.28047	0.42063	-0.007
Mof_H 	H 	0.968	0.2517	0.4262	0.065
Mof_C 	C 	0.97542	0.31605	0.4358	-0.044
Mof_C 	C 	0.9604	0.35875	0.42874	-0.092
Mof_H 	H 	0.9719	0.3838	0.4388	0.077
Mof_C 	C 	0.9282	0.3631	0.40667	0.134
Mof_C 	C 	0.9144	0.32712	0.38988	-0.095
Mof_H 	H 	0.8947	0.331	0.3735	0.107
Mof_C 	C 	0.7989	0.6164	0.3822	0.317
Mof_C 	C 	0.7335	0.4756	0.28204	0.315
Mof_C 	C 	0.8776	0.4166	0.3841	0.311
Mof_C 	C 	0.789	0.5436	0.35952	0.315
Mof_C 	C 	0.7681	0.5237	0.33588	-0.381
Mof_H 	H 	0.7465	0.539	0.3246	0.182
Mof_C 	C 	0.7788	0.4813	0.32875	0.349
Mof_C 	C 	0.8075	0.4588	0.34528	-0.402
Mof_H 	H 	0.8116	0.4284	0.3414	0.188
Mof_C 	C 	0.8307	0.4782	0.3674	0.32
Mof_C 	C 	0.8201	0.521	0.37695	-0.34
Mof_H 	H 	0.8332	0.5339	0.3943	0.167
Mof_Cu	Cu	0.40236	0.65594	0.87212	0.907
Mof_Cu	Cu	0.369	0.70807	0.83017	0.906
Mof_O 	O 	0.38497	0.18027	0.96869	-0.403
Mof_O 	O 	0.39939	0.25229	0.9692	-0.398
Mof_O 	O 	0.33526	0.34505	0.8913	-0.407
Mof_O 	O 	0.29563	0.31538	0.85398	-0.404
Mof_O 	O 	0.20358	0.07228	0.68772	-0.399
Mof_O 	O 	0.15518	0.04624	0.65399	-0.405
Mof_O 	O 	0.12388	0.89084	0.65217	-0.407
Mof_O 	O 	0.14786	0.84687	0.68928	-0.404
Mof_O 	O 	0.39034	0.75499	0.85681	-0.396
Mof_O 	O 	0.42359	0.71043	0.88987	-0.406
Mof_O 	O 	0.51386	0.77161	0.969	-0.407
Mof_O 	O 	0.52826	0.84377	0.96937	-0.402
Mof_O 	O 	0.3345	0.10723	0.8943	-0.256
Mof_O 	O 	0.22607	0.01483	0.77967	-0.263
Mof_O 	O 	0.3628	0.8912	0.86443	-0.259
Mof_N 	N 	0.28147	0.15664	0.88224	-0.257
Mof_H 	H 	0.2561	0.1607	0.8731	0.129
Mof_N 	N 	0.2757	0.08647	0.86721	-0.291
Mof_H 	H 	0.2492	0.0943	0.8615	0.137
Mof_N 	N 	0.224	0.94508	0.76082	-0.255
Mof_H 	H 	0.232	0.9179	0.7646	0.128
Mof_N 	N 	0.2572	0.9582	0.80522	-0.29
Mof_H 	H 	0.2592	0.9294	0.8057	0.135
Mof_N 	N 	0.3648	0.9584	0.88533	-0.285
Mof_H 	H 	0.3785	0.9755	0.8983	0.136
Mof_N 	N 	0.4111	0.9063	0.90259	-0.253
Mof_H 	H 	0.4234	0.9277	0.9129	0.128
Mof_C 	C 	0.38069	0.21844	0.9588	0.347
Mof_C 	C 	0.31664	0.31389	0.87849	0.349
Mof_C 	C 	0.35002	0.22498	0.93317	-0.042
Mof_C 	C 	0.3453	0.26635	0.91982	-0.009
Mof_H 	H 	0.3597	0.2913	0.9281	0.065
Mof_C 	C 	0.31911	0.27035	0.89409	-0.041
Mof_C 	C 	0.2978	0.23446	0.8825	-0.091
Mof_H 	H 	0.2801	0.2376	0.865	0.079
Mof_C 	C 	0.3018	0.19296	0.89621	0.134
Mof_C 	C 	0.32729	0.18889	0.92192	-0.089
Mof_H 	H 	0.3293	0.1614	0.9319	0.097
Mof_C 	C 	0.17974	0.04283	0.67643	0.344
Mof_C 	C 	0.14295	0.88327	0.67636	0.348
Mof_C 	C 	0.17923	0.999	0.69203	-0.033
Mof_C 	C 	0.15959	0.96383	0.67884	-0.016
Mof_H 	H 	0.1442	0.9674	0.6604	0.068
Mof_C 	C 	0.1619	0.92275	0.69218	-0.032
Mof_C 	C 	0.1828	0.91772	0.71946	-0.105
Mof_H 	H 	0.1838	0.8897	0.7288	0.083
Mof_C 	C 	0.2023	0.95287	0.73314	0.143
Mof_C 	C 	0.2013	0.99417	0.71921	-0.098
Mof_H 	H 	0.2156	0.0186	0.7283	0.103
Mof_C 	C 	0.41378	0.74743	0.87988	0.345
Mof_C 	C 	0.50908	0.81025	0.96006	0.353
Mof_C 	C 	0.42936	0.78603	0.89707	-0.041
Mof_C 	C 	0.45905	0.78047	0.92063	-0.008
Mof_H 	H 	0.468	0.7517	0.9262	0.065
Mof_C 	C 	0.47542	0.81605	0.9358	-0.043
Mof_C 	C 	0.4604	0.85875	0.92874	-0.093
Mof_H 	H 	0.4719	0.8838	0.9388	0.078
Mof_C 	C 	0.4282	0.8631	0.90667	0.135
Mof_C 	C 	0.4144	0.82712	0.88988	-0.096
Mof_H 	H 	0.3947	0.831	0.8735	0.107
Mof_C 	C 	0.2989	0.1164	0.8822	0.317
Mof_C 	C 	0.2335	0.9756	0.78204	0.315
Mof_C 	C 	0.3776	0.9166	0.8841	0.312
Mof_C 	C 	0.289	0.0436	0.85952	0.315
Mof_C 	C 	0.2681	0.0237	0.83588	-0.381
Mof_H 	H 	0.2465	0.039	0.8246	0.182
Mof_C 	C 	0.2788	0.9813	0.82875	0.349
Mof_C 	C 	0.3075	0.9588	0.84528	-0.402
Mof_H 	H 	0.3116	0.9284	0.8414	0.188
Mof_C 	C 	0.3307	0.9782	0.8674	0.321
Mof_C 	C 	0.3201	0.021	0.87695	-0.34
Mof_H 	H 	0.3332	0.0339	0.8943	0.167
Mof_Cu	Cu	0.09764	0.84406	0.37212	0.906
Mof_Cu	Cu	0.131	0.79193	0.33017	0.906
Mof_O 	O 	0.11503	0.31973	0.46869	-0.406
Mof_O 	O 	0.10061	0.24771	0.4692	-0.4
Mof_O 	O 	0.16474	0.15495	0.3913	-0.407
Mof_O 	O 	0.20437	0.18462	0.35398	-0.404
Mof_O 	O 	0.29642	0.42772	0.18772	-0.398
Mof_O 	O 	0.34482	0.45376	0.15399	-0.405
Mof_O 	O 	0.37612	0.60916	0.15217	-0.407
Mof_O 	O 	0.35214	0.65313	0.18928	-0.404
Mof_O 	O 	0.10966	0.74501	0.35681	-0.396
Mof_O 	O 	0.07641	0.78957	0.38987	-0.406
Mof_O 	O 	0.98614	0.72839	0.469	-0.409
Mof_O 	O 	0.97174	0.65623	0.46937	-0.405
Mof_O 	O 	0.1655	0.39277	0.3943	-0.256
Mof_O 	O 	0.27393	0.48517	0.27967	-0.263
Mof_O 	O 	0.1372	0.6088	0.36443	-0.259
Mof_N 	N 	0.21853	0.34336	0.38224	-0.257
Mof_H 	H 	0.2439	0.3393	0.3731	0.128
Mof_N 	N 	0.2243	0.41353	0.36721	-0.291
Mof_H 	H 	0.2508	0.4057	0.3615	0.137
Mof_N 	N 	0.276	0.55492	0.26082	-0.255
Mof_H 	H 	0.268	0.5821	0.2646	0.128
Mof_N 	N 	0.2428	0.5418	0.30522	-0.29
Mof_H 	H 	0.2408	0.5706	0.3057	0.135
Mof_N 	N 	0.1352	0.5416	0.38533	-0.285
Mof_H 	H 	0.1215	0.5245	0.3983	0.136
Mof_N 	N 	0.0889	0.5937	0.40259	-0.253
Mof_H 	H 	0.0766	0.5723	0.4129	0.128
Mof_C 	C 	0.11931	0.28156	0.4588	0.347
Mof_C 	C 	0.18336	0.18611	0.37849	0.349
Mof_C 	C 	0.14998	0.27502	0.43317	-0.043
Mof_C 	C 	0.1547	0.23365	0.41982	-0.008
Mof_H 	H 	0.1403	0.2087	0.4281	0.065
Mof_C 	C 	0.18089	0.22965	0.39409	-0.042
Mof_C 	C 	0.2022	0.26554	0.3825	-0.091
Mof_H 	H 	0.2199	0.2624	0.365	0.079
Mof_C 	C 	0.1982	0.30704	0.39621	0.133
Mof_C 	C 	0.17271	0.31111	0.42192	-0.089
Mof_H 	H 	0.1707	0.3386	0.4319	0.096
Mof_C 	C 	0.32026	0.45717	0.17643	0.344
Mof_C 	C 	0.35705	0.61673	0.17636	0.348
Mof_C 	C 	0.32077	0.501	0.19203	-0.033
Mof_C 	C 	0.34041	0.53617	0.17884	-0.016
Mof_H 	H 	0.3558	0.5326	0.1604	0.068
Mof_C 	C 	0.3381	0.57725	0.19218	-0.032
Mof_C 	C 	0.3172	0.58228	0.21946	-0.105
Mof_H 	H 	0.3162	0.6103	0.2288	0.083
Mof_C 	C 	0.2977	0.54713	0.23314	0.143
Mof_C 	C 	0.2987	0.50583	0.21921	-0.098
Mof_H 	H 	0.2844	0.4814	0.2283	0.103
Mof_C 	C 	0.08622	0.75257	0.37988	0.345
Mof_C 	C 	0.99092	0.68975	0.46006	0.353
Mof_C 	C 	0.07064	0.71397	0.39707	-0.041
Mof_C 	C 	0.04095	0.71953	0.42063	-0.007
Mof_H 	H 	0.032	0.7483	0.4262	0.065
Mof_C 	C 	0.02458	0.68395	0.4358	-0.044
Mof_C 	C 	0.0396	0.64125	0.42874	-0.092
Mof_H 	H 	0.0281	0.6162	0.4388	0.077
Mof_C 	C 	0.0718	0.6369	0.40667	0.134
Mof_C 	C 	0.0856	0.67288	0.38988	-0.095
Mof_H 	H 	0.1053	0.669	0.3735	0.107
Mof_C 	C 	0.2011	0.3836	0.3822	0.317
Mof_C 	C 	0.2665	0.5244	0.28204	0.315
Mof_C 	C 	0.1224	0.5834	0.3841	0.311
Mof_C 	C 	0.211	0.4564	0.35952	0.315
Mof_C 	C 	0.2319	0.4763	0.33588	-0.381
Mof_H 	H 	0.2535	0.461	0.3246	0.182
Mof_C 	C 	0.2212	0.5187	0.32875	0.349
Mof_C 	C 	0.1925	0.5412	0.34528	-0.402
Mof_H 	H 	0.1884	0.5716	0.3414	0.188
Mof_C 	C 	0.1693	0.5218	0.3674	0.32
Mof_C 	C 	0.1799	0.479	0.37695	-0.34
Mof_H 	H 	0.1668	0.4661	0.3943	0.167
Mof_Cu	Cu	0.59764	0.34406	0.87212	0.907
Mof_Cu	Cu	0.631	0.29193	0.83017	0.906
Mof_O 	O 	0.61503	0.81973	0.96869	-0.403
Mof_O 	O 	0.60061	0.74771	0.9692	-0.398
Mof_O 	O 	0.66474	0.65495	0.8913	-0.407
Mof_O 	O 	0.70437	0.68462	0.85398	-0.404
Mof_O 	O 	0.79642	0.92772	0.68772	-0.399
Mof_O 	O 	0.84482	0.95376	0.65399	-0.405
Mof_O 	O 	0.87612	0.10916	0.65217	-0.407
Mof_O 	O 	0.85214	0.15313	0.68928	-0.404
Mof_O 	O 	0.60966	0.24501	0.85681	-0.396
Mof_O 	O 	0.57641	0.28957	0.88987	-0.406
Mof_O 	O 	0.48614	0.22839	0.969	-0.407
Mof_O 	O 	0.47174	0.15623	0.96937	-0.402
Mof_O 	O 	0.6655	0.89277	0.8943	-0.256
Mof_O 	O 	0.77393	0.98517	0.77967	-0.263
Mof_O 	O 	0.6372	0.1088	0.86443	-0.259
Mof_N 	N 	0.71853	0.84336	0.88224	-0.257
Mof_H 	H 	0.7439	0.8393	0.8731	0.129
Mof_N 	N 	0.7243	0.91353	0.86721	-0.291
Mof_H 	H 	0.7508	0.9057	0.8615	0.137
Mof_N 	N 	0.776	0.05492	0.76082	-0.255
Mof_H 	H 	0.768	0.0821	0.7646	0.128
Mof_N 	N 	0.7428	0.0418	0.80522	-0.29
Mof_H 	H 	0.7408	0.0706	0.8057	0.135
Mof_N 	N 	0.6352	0.0416	0.88533	-0.285
Mof_H 	H 	0.6215	0.0245	0.8983	0.136
Mof_N 	N 	0.5889	0.0937	0.90259	-0.253
Mof_H 	H 	0.5766	0.0723	0.9129	0.128
Mof_C 	C 	0.61931	0.78156	0.9588	0.347
Mof_C 	C 	0.68336	0.68611	0.87849	0.349
Mof_C 	C 	0.64998	0.77502	0.93317	-0.042
Mof_C 	C 	0.6547	0.73365	0.91982	-0.009
Mof_H 	H 	0.6403	0.7087	0.9281	0.065
Mof_C 	C 	0.68089	0.72965	0.89409	-0.041
Mof_C 	C 	0.7022	0.76554	0.8825	-0.091
Mof_H 	H 	0.7199	0.7624	0.865	0.079
Mof_C 	C 	0.6982	0.80704	0.89621	0.134
Mof_C 	C 	0.67271	0.81111	0.92192	-0.089
Mof_H 	H 	0.6707	0.8386	0.9319	0.097
Mof_C 	C 	0.82026	0.95717	0.67643	0.344
Mof_C 	C 	0.85705	0.11673	0.67636	0.348
Mof_C 	C 	0.82077	0.001	0.69203	-0.033
Mof_C 	C 	0.84041	0.03617	0.67884	-0.016
Mof_H 	H 	0.8558	0.0326	0.6604	0.068
Mof_C 	C 	0.8381	0.07725	0.69218	-0.032
Mof_C 	C 	0.8172	0.08228	0.71946	-0.105
Mof_H 	H 	0.8162	0.1103	0.7288	0.083
Mof_C 	C 	0.7977	0.04713	0.73314	0.143
Mof_C 	C 	0.7987	0.00583	0.71921	-0.098
Mof_H 	H 	0.7844	0.9814	0.7283	0.103
Mof_C 	C 	0.58622	0.25257	0.87988	0.345
Mof_C 	C 	0.49092	0.18975	0.96006	0.353
Mof_C 	C 	0.57064	0.21397	0.89707	-0.041
Mof_C 	C 	0.54095	0.21953	0.92063	-0.008
Mof_H 	H 	0.532	0.2483	0.9262	0.065
Mof_C 	C 	0.52458	0.18395	0.9358	-0.043
Mof_C 	C 	0.5396	0.14125	0.92874	-0.093
Mof_H 	H 	0.5281	0.1162	0.9388	0.078
Mof_C 	C 	0.5718	0.1369	0.90667	0.135
Mof_C 	C 	0.5856	0.17288	0.88988	-0.096
Mof_H 	H 	0.6053	0.169	0.8735	0.107
Mof_C 	C 	0.7011	0.8836	0.8822	0.317
Mof_C 	C 	0.7665	0.0244	0.78204	0.315
Mof_C 	C 	0.6224	0.0834	0.8841	0.312
Mof_C 	C 	0.711	0.9564	0.85952	0.315
Mof_C 	C 	0.7319	0.9763	0.83588	-0.381
Mof_H 	H 	0.7535	0.961	0.8246	0.182
Mof_C 	C 	0.7212	0.0187	0.82875	0.349
Mof_C 	C 	0.6925	0.0412	0.84528	-0.402
Mof_H 	H 	0.6884	0.0716	0.8414	0.188
Mof_C 	C 	0.6693	0.0218	0.8674	0.321
Mof_C 	C 	0.6799	0.979	0.87695	-0.34
Mof_H 	H 	0.6668	0.9661	0.8943	0.167
Mof_Cu	Cu	0.84406	0.90236	0.37212	0.906
Mof_Cu	Cu	0.79193	0.869	0.33017	0.906
Mof_O 	O 	0.31973	0.88497	0.46869	-0.406
Mof_O 	O 	0.24771	0.89939	0.4692	-0.4
Mof_O 	O 	0.15495	0.83526	0.3913	-0.407
Mof_O 	O 	0.18462	0.79563	0.35398	-0.404
Mof_O 	O 	0.42772	0.70358	0.18772	-0.398
Mof_O 	O 	0.45376	0.65518	0.15399	-0.405
Mof_O 	O 	0.60916	0.62388	0.15217	-0.407
Mof_O 	O 	0.65313	0.64786	0.18928	-0.404
Mof_O 	O 	0.74501	0.89034	0.35681	-0.396
Mof_O 	O 	0.78957	0.92359	0.38987	-0.406
Mof_O 	O 	0.72839	0.01386	0.469	-0.409
Mof_O 	O 	0.65623	0.02826	0.46937	-0.405
Mof_O 	O 	0.39277	0.8345	0.3943	-0.256
Mof_O 	O 	0.48517	0.72607	0.27967	-0.263
Mof_O 	O 	0.6088	0.8628	0.36443	-0.259
Mof_N 	N 	0.34336	0.78147	0.38224	-0.257
Mof_H 	H 	0.3393	0.7561	0.3731	0.128
Mof_N 	N 	0.41353	0.7757	0.36721	-0.291
Mof_H 	H 	0.4057	0.7492	0.3615	0.137
Mof_N 	N 	0.55492	0.724	0.26082	-0.255
Mof_H 	H 	0.5821	0.732	0.2646	0.128
Mof_N 	N 	0.5418	0.7572	0.30522	-0.29
Mof_H 	H 	0.5706	0.7592	0.3057	0.135
Mof_N 	N 	0.5416	0.8648	0.38533	-0.285
Mof_H 	H 	0.5245	0.8785	0.3983	0.136
Mof_N 	N 	0.5937	0.9111	0.40259	-0.253
Mof_H 	H 	0.5723	0.9234	0.4129	0.128
Mof_C 	C 	0.28156	0.88069	0.4588	0.347
Mof_C 	C 	0.18611	0.81664	0.37849	0.349
Mof_C 	C 	0.27502	0.85002	0.43317	-0.043
Mof_C 	C 	0.23365	0.8453	0.41982	-0.008
Mof_H 	H 	0.2087	0.8597	0.4281	0.065
Mof_C 	C 	0.22965	0.81911	0.39409	-0.042
Mof_C 	C 	0.26554	0.7978	0.3825	-0.091
Mof_H 	H 	0.2624	0.7801	0.365	0.079
Mof_C 	C 	0.30704	0.8018	0.39621	0.133
Mof_C 	C 	0.31111	0.82729	0.42192	-0.089
Mof_H 	H 	0.3386	0.8293	0.4319	0.096
Mof_C 	C 	0.45717	0.67974	0.17643	0.344
Mof_C 	C 	0.61673	0.64295	0.17636	0.348
Mof_C 	C 	0.501	0.67923	0.19203	-0.033
Mof_C 	C 	0.53617	0.65959	0.17884	-0.016
Mof_H 	H 	0.5326	0.6442	0.1604	0.068
Mof_C 	C 	0.57725	0.6619	0.19218	-0.032
Mof_C 	C 	0.58228	0.6828	0.21946	-0.105
Mof_H 	H 	0.6103	0.6838	0.2288	0.083
Mof_C 	C 	0.54713	0.7023	0.23314	0.143
Mof_C 	C 	0.50583	0.7013	0.21921	-0.098
Mof_H 	H 	0.4814	0.7156	0.2283	0.103
Mof_C 	C 	0.75257	0.91378	0.37988	0.345
Mof_C 	C 	0.68975	0.00908	0.46006	0.353
Mof_C 	C 	0.71397	0.92936	0.39707	-0.041
Mof_C 	C 	0.71953	0.95905	0.42063	-0.007
Mof_H 	H 	0.7483	0.968	0.4262	0.065
Mof_C 	C 	0.68395	0.97542	0.4358	-0.044
Mof_C 	C 	0.64125	0.9604	0.42874	-0.092
Mof_H 	H 	0.6162	0.9719	0.4388	0.077
Mof_C 	C 	0.6369	0.9282	0.40667	0.134
Mof_C 	C 	0.67288	0.9144	0.38988	-0.095
Mof_H 	H 	0.669	0.8947	0.3735	0.107
Mof_C 	C 	0.3836	0.7989	0.3822	0.317
Mof_C 	C 	0.5244	0.7335	0.28204	0.315
Mof_C 	C 	0.5834	0.8776	0.3841	0.311
Mof_C 	C 	0.4564	0.789	0.35952	0.315
Mof_C 	C 	0.4763	0.7681	0.33588	-0.381
Mof_H 	H 	0.461	0.7465	0.3246	0.182
Mof_C 	C 	0.5187	0.7788	0.32875	0.349
Mof_C 	C 	0.5412	0.8075	0.34528	-0.402
Mof_H 	H 	0.5716	0.8116	0.3414	0.188
Mof_C 	C 	0.5218	0.8307	0.3674	0.32
Mof_C 	C 	0.479	0.8201	0.37695	-0.34
Mof_H 	H 	0.4661	0.8332	0.3943	0.167
Mof_Cu	Cu	0.34406	0.40236	0.87212	0.907
Mof_Cu	Cu	0.29193	0.369	0.83017	0.906
Mof_O 	O 	0.81973	0.38497	0.96869	-0.403
Mof_O 	O 	0.74771	0.39939	0.9692	-0.398
Mof_O 	O 	0.65495	0.33526	0.8913	-0.407
Mof_O 	O 	0.68462	0.29563	0.85398	-0.404
Mof_O 	O 	0.92772	0.20358	0.68772	-0.399
Mof_O 	O 	0.95376	0.15518	0.65399	-0.405
Mof_O 	O 	0.10916	0.12388	0.65217	-0.407
Mof_O 	O 	0.15313	0.14786	0.68928	-0.404
Mof_O 	O 	0.24501	0.39034	0.85681	-0.396
Mof_O 	O 	0.28957	0.42359	0.88987	-0.406
Mof_O 	O 	0.22839	0.51386	0.969	-0.407
Mof_O 	O 	0.15623	0.52826	0.96937	-0.402
Mof_O 	O 	0.89277	0.3345	0.8943	-0.256
Mof_O 	O 	0.98517	0.22607	0.77967	-0.263
Mof_O 	O 	0.1088	0.3628	0.86443	-0.259
Mof_N 	N 	0.84336	0.28147	0.88224	-0.257
Mof_H 	H 	0.8393	0.2561	0.8731	0.129
Mof_N 	N 	0.91353	0.2757	0.86721	-0.291
Mof_H 	H 	0.9057	0.2492	0.8615	0.137
Mof_N 	N 	0.05492	0.224	0.76082	-0.255
Mof_H 	H 	0.0821	0.232	0.7646	0.128
Mof_N 	N 	0.0418	0.2572	0.80522	-0.29
Mof_H 	H 	0.0706	0.2592	0.8057	0.135
Mof_N 	N 	0.0416	0.3648	0.88533	-0.285
Mof_H 	H 	0.0245	0.3785	0.8983	0.136
Mof_N 	N 	0.0937	0.4111	0.90259	-0.253
Mof_H 	H 	0.0723	0.4234	0.9129	0.128
Mof_C 	C 	0.78156	0.38069	0.9588	0.347
Mof_C 	C 	0.68611	0.31664	0.87849	0.349
Mof_C 	C 	0.77502	0.35002	0.93317	-0.042
Mof_C 	C 	0.73365	0.3453	0.91982	-0.009
Mof_H 	H 	0.7087	0.3597	0.9281	0.065
Mof_C 	C 	0.72965	0.31911	0.89409	-0.041
Mof_C 	C 	0.76554	0.2978	0.8825	-0.091
Mof_H 	H 	0.7624	0.2801	0.865	0.079
Mof_C 	C 	0.80704	0.3018	0.89621	0.134
Mof_C 	C 	0.81111	0.32729	0.92192	-0.089
Mof_H 	H 	0.8386	0.3293	0.9319	0.097
Mof_C 	C 	0.95717	0.17974	0.67643	0.344
Mof_C 	C 	0.11673	0.14295	0.67636	0.348
Mof_C 	C 	0.001	0.17923	0.69203	-0.033
Mof_C 	C 	0.03617	0.15959	0.67884	-0.016
Mof_H 	H 	0.0326	0.1442	0.6604	0.068
Mof_C 	C 	0.07725	0.1619	0.69218	-0.032
Mof_C 	C 	0.08228	0.1828	0.71946	-0.105
Mof_H 	H 	0.1103	0.1838	0.7288	0.083
Mof_C 	C 	0.04713	0.2023	0.73314	0.143
Mof_C 	C 	0.00583	0.2013	0.71921	-0.098
Mof_H 	H 	0.9814	0.2156	0.7283	0.103
Mof_C 	C 	0.25257	0.41378	0.87988	0.345
Mof_C 	C 	0.18975	0.50908	0.96006	0.353
Mof_C 	C 	0.21397	0.42936	0.89707	-0.041
Mof_C 	C 	0.21953	0.45905	0.92063	-0.008
Mof_H 	H 	0.2483	0.468	0.9262	0.065
Mof_C 	C 	0.18395	0.47542	0.9358	-0.043
Mof_C 	C 	0.14125	0.4604	0.92874	-0.093
Mof_H 	H 	0.1162	0.4719	0.9388	0.078
Mof_C 	C 	0.1369	0.4282	0.90667	0.135
Mof_C 	C 	0.17288	0.4144	0.88988	-0.096
Mof_H 	H 	0.169	0.3947	0.8735	0.107
Mof_C 	C 	0.8836	0.2989	0.8822	0.317
Mof_C 	C 	0.0244	0.2335	0.78204	0.315
Mof_C 	C 	0.0834	0.3776	0.8841	0.312
Mof_C 	C 	0.9564	0.289	0.85952	0.315
Mof_C 	C 	0.9763	0.2681	0.83588	-0.381
Mof_H 	H 	0.961	0.2465	0.8246	0.182
Mof_C 	C 	0.0187	0.2788	0.82875	0.349
Mof_C 	C 	0.0412	0.3075	0.84528	-0.402
Mof_H 	H 	0.0716	0.3116	0.8414	0.188
Mof_C 	C 	0.0218	0.3307	0.8674	0.321
Mof_C 	C 	0.979	0.3201	0.87695	-0.34
Mof_H 	H 	0.9661	0.3332	0.8943	0.167
Mof_Cu	Cu	0.15594	0.09764	0.37212	0.906
Mof_Cu	Cu	0.20807	0.131	0.33017	0.906
Mof_O 	O 	0.68027	0.11503	0.46869	-0.406
Mof_O 	O 	0.75229	0.10061	0.4692	-0.4
Mof_O 	O 	0.84505	0.16474	0.3913	-0.407
Mof_O 	O 	0.81538	0.20437	0.35398	-0.404
Mof_O 	O 	0.57228	0.29642	0.18772	-0.398
Mof_O 	O 	0.54624	0.34482	0.15399	-0.405
Mof_O 	O 	0.39084	0.37612	0.15217	-0.407
Mof_O 	O 	0.34687	0.35214	0.18928	-0.404
Mof_O 	O 	0.25499	0.10966	0.35681	-0.396
Mof_O 	O 	0.21043	0.07641	0.38987	-0.406
Mof_O 	O 	0.27161	0.98614	0.469	-0.409
Mof_O 	O 	0.34377	0.97174	0.46937	-0.405
Mof_O 	O 	0.60723	0.1655	0.3943	-0.256
Mof_O 	O 	0.51483	0.27393	0.27967	-0.263
Mof_O 	O 	0.3912	0.1372	0.36443	-0.259
Mof_N 	N 	0.65664	0.21853	0.38224	-0.257
Mof_H 	H 	0.6607	0.2439	0.3731	0.128
Mof_N 	N 	0.58647	0.2243	0.36721	-0.291
Mof_H 	H 	0.5943	0.2508	0.3615	0.137
Mof_N 	N 	0.44508	0.276	0.26082	-0.255
Mof_H 	H 	0.4179	0.268	0.2646	0.128
Mof_N 	N 	0.4582	0.2428	0.30522	-0.29
Mof_H 	H 	0.4294	0.2408	0.3057	0.135
Mof_N 	N 	0.4584	0.1352	0.38533	-0.285
Mof_H 	H 	0.4755	0.1215	0.3983	0.136
Mof_N 	N 	0.4063	0.0889	0.40259	-0.253
Mof_H 	H 	0.4277	0.0766	0.4129	0.128
Mof_C 	C 	0.71844	0.11931	0.4588	0.347
Mof_C 	C 	0.81389	0.18336	0.37849	0.349
Mof_C 	C 	0.72498	0.14998	0.43317	-0.043
Mof_C 	C 	0.76635	0.1547	0.41982	-0.008
Mof_H 	H 	0.7913	0.1403	0.4281	0.065
Mof_C 	C 	0.77035	0.18089	0.39409	-0.042
Mof_C 	C 	0.73446	0.2022	0.3825	-0.091
Mof_H 	H 	0.7376	0.2199	0.365	0.079
Mof_C 	C 	0.69296	0.1982	0.39621	0.133
Mof_C 	C 	0.68889	0.17271	0.42192	-0.089
Mof_H 	H 	0.6614	0.1707	0.4319	0.096
Mof_C 	C 	0.54283	0.32026	0.17643	0.344
Mof_C 	C 	0.38327	0.35705	0.17636	0.348
Mof_C 	C 	0.499	0.32077	0.19203	-0.033
Mof_C 	C 	0.46383	0.34041	0.17884	-0.016
Mof_H 	H 	0.4674	0.3558	0.1604	0.068
Mof_C 	C 	0.42275	0.3381	0.19218	-0.032
Mof_C 	C 	0.41772	0.3172	0.21946	-0.105
Mof_H 	H 	0.3897	0.3162	0.2288	0.083
Mof_C 	C 	0.45287	0.2977	0.23314	0.143
Mof_C 	C 	0.49417	0.2987	0.21921	-0.098
Mof_H 	H 	0.5186	0.2844	0.2283	0.103
Mof_C 	C 	0.24743	0.08622	0.37988	0.345
Mof_C 	C 	0.31025	0.99092	0.46006	0.353
Mof_C 	C 	0.28603	0.07064	0.39707	-0.041
Mof_C 	C 	0.28047	0.04095	0.42063	-0.007
Mof_H 	H 	0.2517	0.032	0.4262	0.065
Mof_C 	C 	0.31605	0.02458	0.4358	-0.044
Mof_C 	C 	0.35875	0.0396	0.42874	-0.092
Mof_H 	H 	0.3838	0.0281	0.4388	0.077
Mof_C 	C 	0.3631	0.0718	0.40667	0.134
Mof_C 	C 	0.32712	0.0856	0.38988	-0.095
Mof_H 	H 	0.331	0.1053	0.3735	0.107
Mof_C 	C 	0.6164	0.2011	0.3822	0.317
Mof_C 	C 	0.4756	0.2665	0.28204	0.315
Mof_C 	C 	0.4166	0.1224	0.3841	0.311
Mof_C 	C 	0.5436	0.211	0.35952	0.315
Mof_C 	C 	0.5237	0.2319	0.33588	-0.381
Mof_H 	H 	0.539	0.2535	0.3246	0.182
Mof_C 	C 	0.4813	0.2212	0.32875	0.349
Mof_C 	C 	0.4588	0.1925	0.34528	-0.402
Mof_H 	H 	0.4284	0.1884	0.3414	0.188
Mof_C 	C 	0.4782	0.1693	0.3674	0.32
Mof_C 	C 	0.521	0.1799	0.37695	-0.34
Mof_H 	H 	0.5339	0.1668	0.3943	0.167
Mof_Cu	Cu	0.65594	0.59764	0.87212	0.907
Mof_Cu	Cu	0.70807	0.631	0.83017	0.906
Mof_O 	O 	0.18027	0.61503	0.96869	-0.403
Mof_O 	O 	0.25229	0.60061	0.9692	-0.398
Mof_O 	O 	0.34505	0.66474	0.8913	-0.407
Mof_O 	O 	0.31538	0.70437	0.85398	-0.404
Mof_O 	O 	0.07228	0.79642	0.68772	-0.399
Mof_O 	O 	0.04624	0.84482	0.65399	-0.405
Mof_O 	O 	0.89084	0.87612	0.65217	-0.407
Mof_O 	O 	0.84687	0.85214	0.68928	-0.404
Mof_O 	O 	0.75499	0.60966	0.85681	-0.396
Mof_O 	O 	0.71043	0.57641	0.88987	-0.406
Mof_O 	O 	0.77161	0.48614	0.969	-0.407
Mof_O 	O 	0.84377	0.47174	0.96937	-0.402
Mof_O 	O 	0.10723	0.6655	0.8943	-0.256
Mof_O 	O 	0.01483	0.77393	0.77967	-0.263
Mof_O 	O 	0.8912	0.6372	0.86443	-0.259
Mof_N 	N 	0.15664	0.71853	0.88224	-0.257
Mof_H 	H 	0.1607	0.7439	0.8731	0.129
Mof_N 	N 	0.08647	0.7243	0.86721	-0.291
Mof_H 	H 	0.0943	0.7508	0.8615	0.137
Mof_N 	N 	0.94508	0.776	0.76082	-0.255
Mof_H 	H 	0.9179	0.768	0.7646	0.128
Mof_N 	N 	0.9582	0.7428	0.80522	-0.29
Mof_H 	H 	0.9294	0.7408	0.8057	0.135
Mof_N 	N 	0.9584	0.6352	0.88533	-0.285
Mof_H 	H 	0.9755	0.6215	0.8983	0.136
Mof_N 	N 	0.9063	0.5889	0.90259	-0.253
Mof_H 	H 	0.9277	0.5766	0.9129	0.128
Mof_C 	C 	0.21844	0.61931	0.9588	0.347
Mof_C 	C 	0.31389	0.68336	0.87849	0.349
Mof_C 	C 	0.22498	0.64998	0.93317	-0.042
Mof_C 	C 	0.26635	0.6547	0.91982	-0.009
Mof_H 	H 	0.2913	0.6403	0.9281	0.065
Mof_C 	C 	0.27035	0.68089	0.89409	-0.041
Mof_C 	C 	0.23446	0.7022	0.8825	-0.091
Mof_H 	H 	0.2376	0.7199	0.865	0.079
Mof_C 	C 	0.19296	0.6982	0.89621	0.134
Mof_C 	C 	0.18889	0.67271	0.92192	-0.089
Mof_H 	H 	0.1614	0.6707	0.9319	0.097
Mof_C 	C 	0.04283	0.82026	0.67643	0.344
Mof_C 	C 	0.88327	0.85705	0.67636	0.348
Mof_C 	C 	0.999	0.82077	0.69203	-0.033
Mof_C 	C 	0.96383	0.84041	0.67884	-0.016
Mof_H 	H 	0.9674	0.8558	0.6604	0.068
Mof_C 	C 	0.92275	0.8381	0.69218	-0.032
Mof_C 	C 	0.91772	0.8172	0.71946	-0.105
Mof_H 	H 	0.8897	0.8162	0.7288	0.083
Mof_C 	C 	0.95287	0.7977	0.73314	0.143
Mof_C 	C 	0.99417	0.7987	0.71921	-0.098
Mof_H 	H 	0.0186	0.7844	0.7283	0.103
Mof_C 	C 	0.74743	0.58622	0.87988	0.345
Mof_C 	C 	0.81025	0.49092	0.96006	0.353
Mof_C 	C 	0.78603	0.57064	0.89707	-0.041
Mof_C 	C 	0.78047	0.54095	0.92063	-0.008
Mof_H 	H 	0.7517	0.532	0.9262	0.065
Mof_C 	C 	0.81605	0.52458	0.9358	-0.043
Mof_C 	C 	0.85875	0.5396	0.92874	-0.093
Mof_H 	H 	0.8838	0.5281	0.9388	0.078
Mof_C 	C 	0.8631	0.5718	0.90667	0.135
Mof_C 	C 	0.82712	0.5856	0.88988	-0.096
Mof_H 	H 	0.831	0.6053	0.8735	0.107
Mof_C 	C 	0.1164	0.7011	0.8822	0.317
Mof_C 	C 	0.9756	0.7665	0.78204	0.315
Mof_C 	C 	0.9166	0.6224	0.8841	0.312
Mof_C 	C 	0.0436	0.711	0.85952	0.315
Mof_C 	C 	0.0237	0.7319	0.83588	-0.381
Mof_H 	H 	0.039	0.7535	0.8246	0.182
Mof_C 	C 	0.9813	0.7212	0.82875	0.349
Mof_C 	C 	0.9588	0.6925	0.84528	-0.402
Mof_H 	H 	0.9284	0.6884	0.8414	0.188
Mof_C 	C 	0.9782	0.6693	0.8674	0.321
Mof_C 	C 	0.021	0.6799	0.87695	-0.34
Mof_H 	H 	0.0339	0.6668	0.8943	0.167
Mof_Cu	Cu	0.07384	0.33819	0.5	0.908
Mof_Cu	Cu	0.05574	0.25309	0.5	0.908
Mof_Cu	Cu	0.57384	0.83819	-0	0.905
Mof_Cu	Cu	0.55574	0.75309	-0	0.906
Mof_Cu	Cu	0.92616	0.66181	0.5	0.908
Mof_Cu	Cu	0.94426	0.74691	0.5	0.908
Mof_Cu	Cu	0.42616	0.16181	-0	0.905
Mof_Cu	Cu	0.44426	0.24691	-0	0.906
Mof_Cu	Cu	0.66181	0.07384	0.5	0.908
Mof_Cu	Cu	0.74691	0.05574	0.5	0.908
Mof_Cu	Cu	0.16181	0.57384	-0	0.905
Mof_Cu	Cu	0.24691	0.55574	-0	0.906
Mof_Cu	Cu	0.33819	0.92616	0.5	0.908
Mof_Cu	Cu	0.25309	0.94426	0.5	0.908
Mof_Cu	Cu	0.83819	0.42616	-0	0.905
Mof_Cu	Cu	0.75309	0.44426	-0	0.906
_end
