# CIF file generated by openbabel 3.1.0, see https://openbabel.org
data_I
_chemical_name_common 'image0'
_cell_length_a 12.2
_cell_length_b 26.58
_cell_length_c 18.62
_cell_angle_alpha 90
_cell_angle_beta 104.82
_cell_angle_gamma 90
_space_group_name_H-M_alt 'P 1'
_space_group_name_Hall 'P 1'
loop_
    _symmetry_equiv_pos_as_xyz
    x,y,z
loop_
    _atom_site_label
    _atom_site_type_symbol
    _atom_site_fract_x
    _atom_site_fract_y
    _atom_site_fract_z
    _atom_site_occupancy
    Cd1      Cd       0.78404    0.82999    0.79638    1.000
    Cd2      Cd       0.38388    0.67129    0.77853    1.000
    O1       O        0.21530    0.62270    0.73000    1.000
    O2       O        0.92420    0.87610    0.75240    1.000
    O3       O        0.34500    0.59600    0.82160    1.000
    C1       C        0.56150    0.81920    0.66440    1.000
    H1       H        0.53680    0.80430    0.70270    1.000
    O4       O        0.30680    0.73000    0.83650    1.000
    O5       O        0.85910    0.90490    0.84440    1.000
    O6       O        0.90350    0.76700    0.84130    1.000
    N1       N        0.66910    0.83400    0.87300    1.000
    N2       N        0.43200    0.66190    0.67040    1.000
    O7       O        0.36860    0.75830    0.74080    1.000
    O8       O        0.75220    0.74210    0.76070    1.000
    C2       C        0.53520    0.83870    0.97340    1.000
    C3       C        0.01350    0.67640    0.84400    1.000
    H2       H        0.04860    0.70020    0.87900    1.000
    N3       N        0.66300    0.84030    0.68400    1.000
    C4       C        0.25090    0.59370    0.77640    1.000
    C5       C        0.28870    0.85490    0.75510    1.000
    H3       H        0.33020    0.85010    0.72010    1.000
    C6       C        0.85460    0.73500    0.80250    1.000
    C7       C        0.92260    0.90900    0.80010    1.000
    C8       C        0.48780    0.81610    0.59510    1.000
    C9       C        0.01280    0.59360    0.78890    1.000
    C10      C        0.21550    0.82490    0.85380    1.000
    H4       H        0.21370    0.80030    0.88900    1.000
    C11      C        0.10540    0.95550    0.80520    1.000
    C12      C        0.07290    0.54610    0.78710    1.000
    C13      C        0.27540    0.81630    0.80350    1.000
    C14      C        0.99210    0.95520    0.80640    1.000
    C15      C        0.53850    0.79770    0.93040    1.000
    H5       H        0.49380    0.76980    0.93330    1.000
    C16      C        0.36080    0.64440    0.60850    1.000
    H6       H        0.29330    0.63000    0.61300    1.000
    C17      C        0.67090    0.87550    0.91930    1.000
    H7       H        0.71840    0.90210    0.91520    1.000
    C18      C        0.32130    0.76610    0.79400    1.000
    C19      C        0.16980    0.90830    0.80570    1.000
    C20      C        0.15830    0.86800    0.85470    1.000
    H8       H        0.11160    0.87170    0.88680    1.000
    C21      C        0.23870    0.89920    0.76150    1.000
    H9       H        0.25320    0.92580    0.73280    1.000
    C22      C        0.53380    0.83800    0.53750    1.000
    C23      C        0.89950    0.68600    0.79480    1.000
    C24      C        0.52400    0.68200    0.65690    1.000
    H10      H        0.57190    0.69640    0.69880    1.000
    C25      C        0.06690    0.63160    0.83690    1.000
    H11      H        0.14100    0.62660    0.86490    1.000
    C26      C        0.18830    0.54600    0.78670    1.000
    C27      C        0.60570    0.79760    0.88430    1.000
    H12      H        0.60710    0.76820    0.85740    1.000
    C28      C        0.56180    0.68600    0.59920    1.000
    C29      C        0.61080    0.87980    0.96820    1.000
    C30      C        0.84740    0.64860    0.75060    1.000
    H13      H        0.77260    0.65270    0.72330    1.000
    C31      C        0.70170    0.86030    0.62890    1.000
    H14      H        0.77010    0.87770    0.64080    1.000
    N4       N        0.37400    0.79870    0.58690    1.000
    C32      C        0.64440    0.85600    0.55680    1.000
    H15      H        0.67930    0.86510    0.51980    1.000
    C33      C        0.90630    0.60180    0.74460    1.000
    H16      H        0.87140    0.57740    0.71060    1.000
    C34      C        0.37920    0.64600    0.53950    1.000
    H17      H        0.32580    0.63520    0.49730    1.000
    C35      C        0.48920    0.66610    0.53730    1.000
    N5       N        0.66280    0.70650    0.60440    1.000
    N6       N        0.61120    0.92690    0.00410    1.000
    Cd3      Cd       0.21596    0.82999    0.20362    1.000
    Cd4      Cd       0.61612    0.67129    0.22147    1.000
    O9       O        0.78470    0.62270    0.27000    1.000
    O10      O        0.07580    0.87610    0.24760    1.000
    O11      O        0.65500    0.59600    0.17840    1.000
    C36      C        0.43850    0.81920    0.33560    1.000
    H18      H        0.46320    0.80430    0.29730    1.000
    O12      O        0.69320    0.73000    0.16350    1.000
    O13      O        0.14090    0.90490    0.15560    1.000
    O14      O        0.09650    0.76700    0.15870    1.000
    N7       N        0.33090    0.83400    0.12700    1.000
    N8       N        0.56800    0.66190    0.32960    1.000
    O15      O        0.63140    0.75830    0.25920    1.000
    O16      O        0.24780    0.74210    0.23930    1.000
    C37      C        0.46480    0.83870    0.02660    1.000
    C38      C        0.98650    0.67640    0.15600    1.000
    H19      H        0.95140    0.70020    0.12100    1.000
    N9       N        0.33700    0.84030    0.31600    1.000
    C39      C        0.74910    0.59370    0.22360    1.000
    C40      C        0.71130    0.85490    0.24490    1.000
    H20      H        0.66980    0.85010    0.27990    1.000
    C41      C        0.14540    0.73500    0.19750    1.000
    C42      C        0.07740    0.90900    0.19990    1.000
    C43      C        0.51220    0.81610    0.40490    1.000
    C44      C        0.98720    0.59360    0.21110    1.000
    C45      C        0.78450    0.82490    0.14620    1.000
    H21      H        0.78630    0.80030    0.11100    1.000
    C46      C        0.89460    0.95550    0.19480    1.000
    C47      C        0.92710    0.54610    0.21290    1.000
    C48      C        0.72460    0.81630    0.19650    1.000
    C49      C        0.00790    0.95520    0.19360    1.000
    C50      C        0.46150    0.79770    0.06960    1.000
    H22      H        0.50620    0.76980    0.06670    1.000
    C51      C        0.63920    0.64440    0.39150    1.000
    H23      H        0.70670    0.63000    0.38700    1.000
    C52      C        0.32910    0.87550    0.08070    1.000
    H24      H        0.28160    0.90210    0.08480    1.000
    C53      C        0.67870    0.76610    0.20600    1.000
    C54      C        0.83020    0.90830    0.19430    1.000
    C55      C        0.84170    0.86800    0.14530    1.000
    H25      H        0.88840    0.87170    0.11320    1.000
    C56      C        0.76130    0.89920    0.23850    1.000
    H26      H        0.74680    0.92580    0.26720    1.000
    C57      C        0.46620    0.83800    0.46250    1.000
    C58      C        0.10050    0.68600    0.20520    1.000
    C59      C        0.47600    0.68200    0.34310    1.000
    H27      H        0.42810    0.69640    0.30120    1.000
    C60      C        0.93310    0.63160    0.16310    1.000
    H28      H        0.85900    0.62660    0.13510    1.000
    C61      C        0.81170    0.54600    0.21330    1.000
    C62      C        0.39430    0.79760    0.11570    1.000
    H29      H        0.39290    0.76820    0.14260    1.000
    C63      C        0.43820    0.68600    0.40080    1.000
    C64      C        0.38920    0.87980    0.03180    1.000
    C65      C        0.15260    0.64860    0.24940    1.000
    H30      H        0.22740    0.65270    0.27670    1.000
    C66      C        0.29830    0.86030    0.37110    1.000
    H31      H        0.22990    0.87770    0.35920    1.000
    N10      N        0.62600    0.79870    0.41310    1.000
    C67      C        0.35560    0.85600    0.44320    1.000
    H32      H        0.32070    0.86510    0.48020    1.000
    C68      C        0.09370    0.60180    0.25540    1.000
    H33      H        0.12860    0.57740    0.28940    1.000
    C69      C        0.62080    0.64600    0.46050    1.000
    H34      H        0.67420    0.63520    0.50270    1.000
    C70      C        0.51080    0.66610    0.46270    1.000
    N11      N        0.33720    0.70650    0.39560    1.000
    N12      N        0.38880    0.92690    0.99590    1.000
    Cd5      Cd       0.21596    0.17001    0.20362    1.000
    Cd6      Cd       0.61612    0.32871    0.22147    1.000
    O17      O        0.78470    0.37730    0.27000    1.000
    O18      O        0.07580    0.12390    0.24760    1.000
    O19      O        0.65500    0.40400    0.17840    1.000
    C71      C        0.43850    0.18080    0.33560    1.000
    H35      H        0.46320    0.19570    0.29730    1.000
    O20      O        0.69320    0.27000    0.16350    1.000
    O21      O        0.14090    0.09510    0.15560    1.000
    O22      O        0.09650    0.23300    0.15870    1.000
    N13      N        0.33090    0.16600    0.12700    1.000
    N14      N        0.56800    0.33810    0.32960    1.000
    O23      O        0.63140    0.24170    0.25920    1.000
    O24      O        0.24780    0.25790    0.23930    1.000
    C72      C        0.46480    0.16130    0.02660    1.000
    C73      C        0.98650    0.32360    0.15600    1.000
    H36      H        0.95140    0.29980    0.12100    1.000
    N15      N        0.33700    0.15970    0.31600    1.000
    C74      C        0.74910    0.40630    0.22360    1.000
    C75      C        0.71130    0.14510    0.24490    1.000
    H37      H        0.66980    0.14990    0.27990    1.000
    C76      C        0.14540    0.26500    0.19750    1.000
    C77      C        0.07740    0.09100    0.19990    1.000
    C78      C        0.51220    0.18390    0.40490    1.000
    C79      C        0.98720    0.40640    0.21110    1.000
    C80      C        0.78450    0.17510    0.14620    1.000
    H38      H        0.78630    0.19970    0.11100    1.000
    C81      C        0.89460    0.04450    0.19480    1.000
    C82      C        0.92710    0.45390    0.21290    1.000
    C83      C        0.72460    0.18370    0.19650    1.000
    C84      C        0.00790    0.04480    0.19360    1.000
    C85      C        0.46150    0.20230    0.06960    1.000
    H39      H        0.50620    0.23020    0.06670    1.000
    C86      C        0.63920    0.35560    0.39150    1.000
    H40      H        0.70670    0.37000    0.38700    1.000
    C87      C        0.32910    0.12450    0.08070    1.000
    H41      H        0.28160    0.09790    0.08480    1.000
    C88      C        0.67870    0.23390    0.20600    1.000
    C89      C        0.83020    0.09170    0.19430    1.000
    C90      C        0.84170    0.13200    0.14530    1.000
    H42      H        0.88840    0.12830    0.11320    1.000
    C91      C        0.76130    0.10080    0.23850    1.000
    H43      H        0.74680    0.07420    0.26720    1.000
    C92      C        0.46620    0.16200    0.46250    1.000
    C93      C        0.10050    0.31400    0.20520    1.000
    C94      C        0.47600    0.31800    0.34310    1.000
    H44      H        0.42810    0.30360    0.30120    1.000
    C95      C        0.93310    0.36840    0.16310    1.000
    H45      H        0.85900    0.37340    0.13510    1.000
    C96      C        0.81170    0.45400    0.21330    1.000
    C97      C        0.39430    0.20240    0.11570    1.000
    H46      H        0.39290    0.23180    0.14260    1.000
    C98      C        0.43820    0.31400    0.40080    1.000
    C99      C        0.38920    0.12020    0.03180    1.000
    C100     C        0.15260    0.35140    0.24940    1.000
    H47      H        0.22740    0.34730    0.27670    1.000
    C101     C        0.29830    0.13970    0.37110    1.000
    H48      H        0.22990    0.12230    0.35920    1.000
    N16      N        0.62600    0.20130    0.41310    1.000
    C102     C        0.35560    0.14400    0.44320    1.000
    H49      H        0.32070    0.13490    0.48020    1.000
    C103     C        0.09370    0.39820    0.25540    1.000
    H50      H        0.12860    0.42260    0.28940    1.000
    C104     C        0.62080    0.35400    0.46050    1.000
    H51      H        0.67420    0.36480    0.50270    1.000
    C105     C        0.51080    0.33390    0.46270    1.000
    N17      N        0.33720    0.29350    0.39560    1.000
    N18      N        0.38880    0.07310    0.99590    1.000
    Cd7      Cd       0.78404    0.17001    0.79638    1.000
    Cd8      Cd       0.38388    0.32871    0.77853    1.000
    O25      O        0.21530    0.37730    0.73000    1.000
    O26      O        0.92420    0.12390    0.75240    1.000
    O27      O        0.34500    0.40400    0.82160    1.000
    C106     C        0.56150    0.18080    0.66440    1.000
    H52      H        0.53680    0.19570    0.70270    1.000
    O28      O        0.30680    0.27000    0.83650    1.000
    O29      O        0.85910    0.09510    0.84440    1.000
    O30      O        0.90350    0.23300    0.84130    1.000
    N19      N        0.66910    0.16600    0.87300    1.000
    N20      N        0.43200    0.33810    0.67040    1.000
    O31      O        0.36860    0.24170    0.74080    1.000
    O32      O        0.75220    0.25790    0.76070    1.000
    C107     C        0.53520    0.16130    0.97340    1.000
    C108     C        0.01350    0.32360    0.84400    1.000
    H53      H        0.04860    0.29980    0.87900    1.000
    N21      N        0.66300    0.15970    0.68400    1.000
    C109     C        0.25090    0.40630    0.77640    1.000
    C110     C        0.28870    0.14510    0.75510    1.000
    H54      H        0.33020    0.14990    0.72010    1.000
    C111     C        0.85460    0.26500    0.80250    1.000
    C112     C        0.92260    0.09100    0.80010    1.000
    C113     C        0.48780    0.18390    0.59510    1.000
    C114     C        0.01280    0.40640    0.78890    1.000
    C115     C        0.21550    0.17510    0.85380    1.000
    H55      H        0.21370    0.19970    0.88900    1.000
    C116     C        0.10540    0.04450    0.80520    1.000
    C117     C        0.07290    0.45390    0.78710    1.000
    C118     C        0.27540    0.18370    0.80350    1.000
    C119     C        0.99210    0.04480    0.80640    1.000
    C120     C        0.53850    0.20230    0.93040    1.000
    H56      H        0.49380    0.23020    0.93330    1.000
    C121     C        0.36080    0.35560    0.60850    1.000
    H57      H        0.29330    0.37000    0.61300    1.000
    C122     C        0.67090    0.12450    0.91930    1.000
    H58      H        0.71840    0.09790    0.91520    1.000
    C123     C        0.32130    0.23390    0.79400    1.000
    C124     C        0.16980    0.09170    0.80570    1.000
    C125     C        0.15830    0.13200    0.85470    1.000
    H59      H        0.11160    0.12830    0.88680    1.000
    C126     C        0.23870    0.10080    0.76150    1.000
    H60      H        0.25320    0.07420    0.73280    1.000
    C127     C        0.53380    0.16200    0.53750    1.000
    C128     C        0.89950    0.31400    0.79480    1.000
    C129     C        0.52400    0.31800    0.65690    1.000
    H61      H        0.57190    0.30360    0.69880    1.000
    C130     C        0.06690    0.36840    0.83690    1.000
    H62      H        0.14100    0.37340    0.86490    1.000
    C131     C        0.18830    0.45400    0.78670    1.000
    C132     C        0.60570    0.20240    0.88430    1.000
    H63      H        0.60710    0.23180    0.85740    1.000
    C133     C        0.56180    0.31400    0.59920    1.000
    C134     C        0.61080    0.12020    0.96820    1.000
    C135     C        0.84740    0.35140    0.75060    1.000
    H64      H        0.77260    0.34730    0.72330    1.000
    C136     C        0.70170    0.13970    0.62890    1.000
    H65      H        0.77010    0.12230    0.64080    1.000
    N22      N        0.37400    0.20130    0.58690    1.000
    C137     C        0.64440    0.14400    0.55680    1.000
    H66      H        0.67930    0.13490    0.51980    1.000
    C138     C        0.90630    0.39820    0.74460    1.000
    H67      H        0.87140    0.42260    0.71060    1.000
    C139     C        0.37920    0.35400    0.53950    1.000
    H68      H        0.32580    0.36480    0.49730    1.000
    C140     C        0.48920    0.33390    0.53730    1.000
    N23      N        0.66280    0.29350    0.60440    1.000
    N24      N        0.61120    0.07310    0.00410    1.000
    C141     C        0.93910    0.00000    0.80920    1.000
    H69      H        0.86460    0.00000    0.81310    1.000
    C142     C        0.16370    0.00000    0.80800    1.000
    H70      H        0.24120    0.00000    0.81180    1.000
    C143     C        0.06090    0.00000    0.19080    1.000
    H71      H        0.13540    0.00000    0.18690    1.000
    C144     C        0.83630    0.00000    0.19200    1.000
    H72      H        0.75880    0.00000    0.18820    1.000
    C145     C        0.02110    0.50000    0.78610    1.000
    H73      H        0.94430    0.50000    0.78470    1.000
    C146     C        0.24190    0.50000    0.78420    1.000
    H74      H        0.31660    0.50000    0.78080    1.000
    C147     C        0.97890    0.50000    0.21390    1.000
    H75      H        0.05570    0.50000    0.21530    1.000
    C148     C        0.75810    0.50000    0.21580    1.000
    H76      H        0.68340    0.50000    0.21920    1.000
