data_functionalizedCrystal
_audit_creation_method	'EQeq! by Chris Wilmer'
_symmetry_space_group_name_H-M	'P1'
_symmetry_Int_Tables_number	1
_symmetry_cell_setting	triclinic
loop_
_symmetry_equiv_pos_as_xyz
  x,y,z
_cell_length_a	9.956
_cell_length_b	11.208
_cell_length_c	10.615
_cell_angle_alpha	90
_cell_angle_beta	113.53
_cell_angle_gamma	90
loop_
_atom_site_label
_atom_site_type_symbol
_atom_site_fract_x
_atom_site_fract_y
_atom_site_fract_z
_atom_site_charge
Mof_Zr	Zr	0.9104	0.16416	0.72238	3.196
Mof_Rb	Rb	0.619	0.56902	0.6155	3.088
Mof_N 	N 	0.0655	0.27077	0.93338	-0.135
Mof_N 	N 	0.9592	0.01011	0.57988	-0.118
Mof_C 	C 	0.0857	0.394	0.895	-0.483
Mof_C 	C 	0.2049	0.204	0.9948	-0.427
Mof_C 	C 	0.9913	0.2695	0.0306	-0.39
Mof_C 	C 	0.9531	0.4363	0.7735	0.516
Mof_C 	C 	0.1693	0.072	0.9816	0.514
Mof_C 	C 	0.8349	0.2269	0.9687	0.455
Mof_C 	C 	0.9166	0.8934	0.6163	-0.684
Mof_C 	C 	0.1176	0.0145	0.6086	-0.377
Mof_C 	C 	0.8696	0.0392	0.4332	-0.356
Mof_C 	C 	0.7866	0.906	0.6534	0.634
Mof_C 	C 	0.1718	0.1421	0.636	0.48
Mof_C 	C 	0.7454	0.1247	0.412	0.42
Mof_O 	O 	0.9323	0.54378	0.7492	-0.602
Mof_O 	O 	0.87107	0.35425	0.69673	-0.849
Mof_O 	O 	0.2434	0.00033	0.0667	-0.548
Mof_O 	O 	0.05415	0.04468	0.87143	-0.723
Mof_O 	O 	0.7636	0.22227	0.0397	-0.318
Mof_O 	O 	0.78476	0.19112	0.84306	-0.75
Mof_O 	O 	0.7143	0.81789	0.6552	-0.734
Mof_O 	O 	0.7612	0.01119	0.6849	-0.818
Mof_O 	O 	0.28296	0.171	0.6211	-0.575
Mof_O 	O 	0.0957	0.2126	0.67856	-0.729
Mof_O 	O 	0.6415	0.1316	0.3018	-0.553
Mof_O 	O 	0.7615	0.193	0.51473	-0.829
Mof_H 	H 	0.107	0.448	0.966	0.193
Mof_H 	H 	0.166	0.397	0.864	0.156
Mof_H 	H 	0.259	0.23	0.084	0.079
Mof_H 	H 	0.26	0.223	0.939	0.122
Mof_H 	H 	0.041	0.213	0.106	0.095
Mof_H 	H 	0.998	0.344	0.065	0.189
Mof_H 	H 	3.87072e-33	0.863	0.692	0.206
Mof_H 	H 	0.901	0.839	0.555	0.268
Mof_H 	H 	0.14	0.985	0.539	0.066
Mof_H 	H 	0.171	0.972	0.694	0.092
Mof_H 	H 	0.835	0.965	0.38	0.113
Mof_H 	H 	0.937	0.081	0.394	0.12
Mof_Zr	Zr	0.0896	0.66416	0.27762	3.194
Mof_Rb	Rb	0.381	0.06902	0.3845	3.129
Mof_N 	N 	0.9345	0.77077	0.06662	-0.118
Mof_N 	N 	0.0408	0.51011	0.42012	-0.116
Mof_C 	C 	0.9143	0.894	0.105	-0.405
Mof_C 	C 	0.7951	0.704	0.0052	-0.44
Mof_C 	C 	0.0087	0.7695	0.9694	-0.486
Mof_C 	C 	0.0469	0.9363	0.2265	0.438
Mof_C 	C 	0.8307	0.572	0.0184	0.508
Mof_C 	C 	0.1651	0.7269	0.0313	0.464
Mof_C 	C 	0.0834	0.3934	0.3837	-0.743
Mof_C 	C 	0.8824	0.5145	0.3914	-0.452
Mof_C 	C 	0.1304	0.5392	0.5668	-0.366
Mof_C 	C 	0.2134	0.406	0.3466	0.656
Mof_C 	C 	0.8282	0.6421	0.364	0.503
Mof_C 	C 	0.2546	0.6247	0.588	0.421
Mof_O 	O 	0.0677	0.04378	0.2508	-0.581
Mof_O 	O 	0.12893	0.85425	0.30327	-0.844
Mof_O 	O 	0.7566	0.50033	0.9333	-0.548
Mof_O 	O 	0.94585	0.54468	0.12857	-0.715
Mof_O 	O 	0.2364	0.72227	0.9603	-0.324
Mof_O 	O 	0.21524	0.69112	0.15694	-0.761
Mof_O 	O 	0.2857	0.31789	0.3448	-0.744
Mof_O 	O 	0.2388	0.51119	0.3151	-0.832
Mof_O 	O 	0.71704	0.671	0.3789	-0.583
Mof_O 	O 	0.9043	0.7126	0.32144	-0.721
Mof_O 	O 	0.3585	0.6316	0.6982	-0.554
Mof_O 	O 	0.2385	0.693	0.48527	-0.835
Mof_H 	H 	0.893	0.948	0.034	0.175
Mof_H 	H 	0.834	0.897	0.136	0.137
Mof_H 	H 	0.741	0.73	0.916	0.088
Mof_H 	H 	0.74	0.723	0.061	0.123
Mof_H 	H 	0.959	0.713	0.894	0.146
Mof_H 	H 	0.002	0.844	0.935	0.206
Mof_H 	H 	1.72281e-33	0.363	0.308	0.228
Mof_H 	H 	0.099	0.339	0.445	0.283
Mof_H 	H 	0.86	0.485	0.461	0.112
Mof_H 	H 	0.829	0.472	0.306	0.13
Mof_H 	H 	0.165	0.465	0.62	0.113
Mof_H 	H 	0.063	0.581	0.606	0.11
_end
