data_functionalizedCrystal
_audit_creation_method	'EQeq! by Chris Wilmer'
_symmetry_space_group_name_H-M	'P1'
_symmetry_Int_Tables_number	1
_symmetry_cell_setting	triclinic
loop_
_symmetry_equiv_pos_as_xyz
  x,y,z
_cell_length_a	20.4633
_cell_length_b	9.2876
_cell_length_c	6.8839
_cell_angle_alpha	90
_cell_angle_beta	112.718
_cell_angle_gamma	90
loop_
_atom_site_label
_atom_site_type_symbol
_atom_site_fract_x
_atom_site_fract_y
_atom_site_fract_z
_atom_site_charge
Mof_Fe	Fe	0.005	0.0105	0.0147	0.988
Mof_O 	O 	0.069	0.1271	0.6937	-0.397
Mof_O 	O 	0.0853	0.0984	0.0264	-0.462
Mof_O 	O 	0.4185	0.3695	0.9991	-0.277
Mof_O 	O 	0.4348	0.3408	0.3318	-0.362
Mof_C 	C 	0.1835	0.1865	0.953	0.032
Mof_C 	C 	0.2105	0.2161	0.8036	-0.103
Mof_C 	C 	0.2789	0.2636	0.8633	0.14
Mof_C 	C 	0.3203	0.2814	0.0725	-0.202
Mof_C 	C 	0.2933	0.2517	0.222	0.089
Mof_C 	C 	0.2249	0.2043	0.1622	-0.152
Mof_C 	C 	0.1089	0.1347	0.8878	0.441
Mof_C 	C 	0.395	0.3331	0.1378	0.332
Mof_H 	H 	0.1809	0.2034	0.6539	0.084
Mof_H 	H 	0.2982	0.2848	0.7564	0.012
Mof_H 	H 	0.323	0.2645	0.3716	0.024
Mof_H 	H 	0.2057	0.1831	0.2691	0.091
Mof_O 	O 	0.0052	0.9033	0.7629	-0.37
Mof_Fe	Fe	0.505	0.5105	0.0147	1.042
Mof_O 	O 	0.569	0.6271	0.6937	-0.401
Mof_O 	O 	0.5853	0.5984	0.0264	-0.47
Mof_O 	O 	0.9185	0.8695	0.9991	-0.245
Mof_O 	O 	0.9348	0.8408	0.3318	-0.319
Mof_C 	C 	0.6835	0.6865	0.953	0.022
Mof_C 	C 	0.7105	0.7161	0.8036	-0.092
Mof_C 	C 	0.7789	0.7636	0.8633	0.127
Mof_C 	C 	0.8203	0.7814	0.0725	-0.185
Mof_C 	C 	0.7933	0.7517	0.222	0.078
Mof_C 	C 	0.7249	0.7043	0.1622	-0.14
Mof_C 	C 	0.6089	0.6347	0.8878	0.453
Mof_C 	C 	0.895	0.8331	0.1378	0.321
Mof_H 	H 	0.6809	0.7034	0.6539	0.082
Mof_H 	H 	0.7982	0.7848	0.7564	0.018
Mof_H 	H 	0.823	0.7645	0.3716	0.032
Mof_H 	H 	0.7057	0.6831	0.2691	0.088
Mof_O 	O 	0.5052	0.4033	0.7629	-0.352
Mof_Fe	Fe	0.005	0.9895	0.5147	1.046
Mof_O 	O 	0.069	0.8729	0.1937	-0.409
Mof_O 	O 	0.0853	0.9016	0.5264	-0.426
Mof_O 	O 	0.4185	0.6305	0.4991	-0.341
Mof_O 	O 	0.4348	0.6592	0.8318	-0.332
Mof_C 	C 	0.1835	0.8135	0.453	-0.108
Mof_C 	C 	0.2105	0.7839	0.3036	0.007
Mof_C 	C 	0.2789	0.7364	0.3633	-0.026
Mof_C 	C 	0.3203	0.7186	0.5725	-0.065
Mof_C 	C 	0.2933	0.7483	0.722	-0.023
Mof_C 	C 	0.2249	0.7957	0.6622	0.012
Mof_C 	C 	0.1089	0.8653	0.3878	0.419
Mof_C 	C 	0.395	0.6669	0.6378	0.355
Mof_H 	H 	0.1809	0.7966	0.1539	0.035
Mof_H 	H 	0.2982	0.7152	0.2564	0.043
Mof_H 	H 	0.323	0.7355	0.8716	0.072
Mof_H 	H 	0.2057	0.8169	0.7691	0.056
Mof_O 	O 	0.0052	0.0967	0.2629	-0.398
Mof_Fe	Fe	0.505	0.4895	0.5147	1.121
Mof_O 	O 	0.569	0.3729	0.1937	-0.406
Mof_O 	O 	0.5853	0.4016	0.5264	-0.431
Mof_O 	O 	0.9185	0.1305	0.4991	-0.3
Mof_O 	O 	0.9348	0.1592	0.8318	-0.289
Mof_C 	C 	0.6835	0.3135	0.453	-0.112
Mof_C 	C 	0.7105	0.2839	0.3036	0.017
Mof_C 	C 	0.7789	0.2364	0.3633	-0.033
Mof_C 	C 	0.8203	0.2186	0.5725	-0.049
Mof_C 	C 	0.7933	0.2483	0.722	-0.03
Mof_C 	C 	0.7249	0.2957	0.6622	0.022
Mof_C 	C 	0.6089	0.3653	0.3878	0.43
Mof_C 	C 	0.895	0.1669	0.6378	0.342
Mof_H 	H 	0.6809	0.2966	0.1539	0.034
Mof_H 	H 	0.7982	0.2152	0.2564	0.05
Mof_H 	H 	0.823	0.2355	0.8716	0.081
Mof_H 	H 	0.7057	0.3169	0.7691	0.056
Mof_O 	O 	0.5052	0.5967	0.2629	-0.387
_end
