# CIF file generated by openbabel 3.1.0, see https://openbabel.org
data_I
_chemical_name_common 'image0'
_cell_length_a 7.6627
_cell_length_b 7.8432
_cell_length_c 9.7695
_cell_angle_alpha 72.092
_cell_angle_beta 83.275
_cell_angle_gamma 84.998
_space_group_name_H-M_alt 'P 1'
_space_group_name_Hall 'P 1'
loop_
    _symmetry_equiv_pos_as_xyz
    x,y,z
loop_
    _atom_site_label
    _atom_site_type_symbol
    _atom_site_fract_x
    _atom_site_fract_y
    _atom_site_fract_z
    _atom_site_occupancy
    Mg1      Mg       0.37231    0.01672    0.73755    1.000
    Mg2      Mg       0.30514    0.71166    0.37331    1.000
    P1       P        0.41507    0.28097    0.40778    1.000
    O1       O        0.48990    0.19510    0.55436    1.000
    O2       O        0.41680    0.48210    0.36079    1.000
    O3       O        0.50930    0.20490    0.29263    1.000
    O4       O        0.21470    0.23310    0.43010    1.000
    H1       H        0.20460    0.14910    0.39870    1.000
    O5       O        0.13060    0.92960    0.70125    1.000
    O6       O        0.85580    0.03870    0.65690    1.000
    O7       O        0.18920    0.21970    0.76900    1.000
    O8       O        0.92340    0.33940    0.70740    1.000
    O9       O        0.55760    0.13560    0.82543    1.000
    O10      O        0.65830    0.12270    0.03469    1.000
    C1       C        0.00590    0.04470    0.69220    1.000
    C2       C        0.04210    0.21790    0.72670    1.000
    C3       C        0.56450    0.07520    0.96060    1.000
    Mg3      Mg       0.62769    0.98328    0.26245    1.000
    Mg4      Mg       0.69486    0.28834    0.62669    1.000
    P2       P        0.58493    0.71903    0.59222    1.000
    O11      O        0.51010    0.80490    0.44564    1.000
    O12      O        0.58320    0.51790    0.63921    1.000
    O13      O        0.49070    0.79510    0.70737    1.000
    O14      O        0.78530    0.76690    0.56990    1.000
    H2       H        0.79540    0.85090    0.60130    1.000
    O15      O        0.86940    0.07040    0.29875    1.000
    O16      O        0.14420    0.96130    0.34310    1.000
    O17      O        0.81080    0.78030    0.23100    1.000
    O18      O        0.07660    0.66060    0.29260    1.000
    O19      O        0.44240    0.86440    0.17457    1.000
    O20      O        0.34170    0.87730    0.96531    1.000
    C4       C        0.99410    0.95530    0.30780    1.000
    C5       C        0.95790    0.78210    0.27330    1.000
    C6       C        0.43550    0.92480    0.03940    1.000
