# CIF file generated by openbabel 3.1.0, see https://openbabel.org
data_I
_chemical_name_common 'BOXFOK_clean'
_cell_length_a 34.837
_cell_length_b 34.837
_cell_length_c 34.837
_cell_angle_alpha 60
_cell_angle_beta 60
_cell_angle_gamma 60
_space_group_name_H-M_alt 'P 1'
_space_group_name_Hall 'P 1'
loop_
    _symmetry_equiv_pos_as_xyz
    x,y,z
loop_
    _atom_site_label
    _atom_site_type_symbol
    _atom_site_fract_x
    _atom_site_fract_y
    _atom_site_fract_z
    _atom_site_occupancy
    Dy1      Dy       0.52276    0.05858    0.94142    1.000
    Dy2      Dy       0.05858    0.52276    0.47724    1.000
    Dy3      Dy       0.94142    0.47724    0.52276    1.000
    Dy4      Dy       0.47724    0.94142    0.05858    1.000
    Dy5      Dy       0.52276    0.94142    0.47724    1.000
    Dy6      Dy       0.05858    0.47724    0.94142    1.000
    Dy7      Dy       0.94142    0.52276    0.05858    1.000
    Dy8      Dy       0.47724    0.05858    0.52276    1.000
    Dy9      Dy       0.52276    0.47724    0.05858    1.000
    Dy10     Dy       0.05858    0.94142    0.52276    1.000
    Dy11     Dy       0.94142    0.05858    0.47724    1.000
    Dy12     Dy       0.47724    0.52276    0.94142    1.000
    Dy13     Dy       0.44142    0.97724    0.55858    1.000
    Dy14     Dy       0.97724    0.44142    0.02276    1.000
    Dy15     Dy       0.02276    0.55858    0.97724    1.000
    Dy16     Dy       0.55858    0.02276    0.44142    1.000
    Dy17     Dy       0.55858    0.97724    0.02276    1.000
    Dy18     Dy       0.02276    0.44142    0.55858    1.000
    Dy19     Dy       0.97724    0.55858    0.44142    1.000
    Dy20     Dy       0.44142    0.02276    0.97724    1.000
    Dy21     Dy       0.02276    0.97724    0.44142    1.000
    Dy22     Dy       0.55858    0.44142    0.97724    1.000
    Dy23     Dy       0.44142    0.55858    0.02276    1.000
    Dy24     Dy       0.97724    0.02276    0.55858    1.000
    H1       H        0.54170    0.05230    0.07470    1.000
    H2       H        0.55490    0.20190    0.00990    1.000
    H3       H        0.55030    0.17310    0.96570    1.000
    H4       H        0.59330    0.01010    0.17010    1.000
    H5       H        0.58900    0.00840    0.12740    1.000
    H6       H        0.63840    0.05640    0.07320    1.000
    H7       H        0.66520    0.00740    0.10500    1.000
    H8       H        0.64460    0.05440    0.11680    1.000
    H9       H        0.49950    0.04330    0.15910    1.000
    H10      H        0.50320    0.04460    0.20240    1.000
    H11      H        0.45760    0.12300    0.18740    1.000
    H12      H        0.43050    0.09630    0.18870    1.000
    H13      H        0.45860    0.12640    0.13940    1.000
    H14      H        0.05230    0.54170    0.33130    1.000
    H15      H        0.20190    0.55490    0.23330    1.000
    H16      H        0.17310    0.55030    0.31090    1.000
    H17      H        0.01010    0.59330    0.22650    1.000
    H18      H        0.00840    0.58900    0.27520    1.000
    H19      H        0.05640    0.63840    0.23200    1.000
    H20      H        0.00740    0.66520    0.22240    1.000
    H21      H        0.05440    0.64460    0.18420    1.000
    H22      H        0.04330    0.49950    0.29810    1.000
    H23      H        0.04460    0.50320    0.24980    1.000
    H24      H        0.12300    0.45760    0.23200    1.000
    H25      H        0.09630    0.43050    0.28450    1.000
    H26      H        0.12640    0.45860    0.27560    1.000
    H27      H        0.07470    0.33130    0.54170    1.000
    H28      H        0.00990    0.23330    0.55490    1.000
    H29      H        0.96570    0.31090    0.55030    1.000
    H30      H        0.17010    0.22650    0.59330    1.000
    H31      H        0.12740    0.27520    0.58900    1.000
    H32      H        0.07320    0.23200    0.63840    1.000
    H33      H        0.10500    0.22240    0.66520    1.000
    H34      H        0.11680    0.18420    0.64460    1.000
    H35      H        0.15910    0.29810    0.49950    1.000
    H36      H        0.20240    0.24980    0.50320    1.000
    H37      H        0.18740    0.23200    0.45760    1.000
    H38      H        0.18870    0.28450    0.43050    1.000
    H39      H        0.13940    0.27560    0.45860    1.000
    H40      H        0.33130    0.07470    0.05230    1.000
    H41      H        0.23330    0.00990    0.20190    1.000
    H42      H        0.31090    0.96570    0.17310    1.000
    H43      H        0.22650    0.17010    0.01010    1.000
    H44      H        0.27520    0.12740    0.00840    1.000
    H45      H        0.23200    0.07320    0.05640    1.000
    H46      H        0.22240    0.10500    0.00740    1.000
    H47      H        0.18420    0.11680    0.05440    1.000
    H48      H        0.29810    0.15910    0.04330    1.000
    H49      H        0.24980    0.20240    0.04460    1.000
    H50      H        0.23200    0.18740    0.12300    1.000
    H51      H        0.28450    0.18870    0.09630    1.000
    H52      H        0.27560    0.13940    0.12640    1.000
    H53      H        0.54170    0.07470    0.33130    1.000
    H54      H        0.55490    0.00990    0.23330    1.000
    H55      H        0.55030    0.96570    0.31090    1.000
    H56      H        0.59330    0.17010    0.22650    1.000
    H57      H        0.58900    0.12740    0.27520    1.000
    H58      H        0.63840    0.07320    0.23200    1.000
    H59      H        0.66520    0.10500    0.22240    1.000
    H60      H        0.64460    0.11680    0.18420    1.000
    H61      H        0.49950    0.15910    0.29810    1.000
    H62      H        0.50320    0.20240    0.24980    1.000
    H63      H        0.45760    0.18740    0.23200    1.000
    H64      H        0.43050    0.18870    0.28450    1.000
    H65      H        0.45860    0.13940    0.27560    1.000
    H66      H        0.05230    0.33130    0.07470    1.000
    H67      H        0.20190    0.23330    0.00990    1.000
    H68      H        0.17310    0.31090    0.96570    1.000
    H69      H        0.01010    0.22650    0.17010    1.000
    H70      H        0.00840    0.27520    0.12740    1.000
    H71      H        0.05640    0.23200    0.07320    1.000
    H72      H        0.00740    0.22240    0.10500    1.000
    H73      H        0.05440    0.18420    0.11680    1.000
    H74      H        0.04330    0.29810    0.15910    1.000
    H75      H        0.04460    0.24980    0.20240    1.000
    H76      H        0.12300    0.23200    0.18740    1.000
    H77      H        0.09630    0.28450    0.18870    1.000
    H78      H        0.12640    0.27560    0.13940    1.000
    H79      H        0.07470    0.54170    0.05230    1.000
    H80      H        0.00990    0.55490    0.20190    1.000
    H81      H        0.96570    0.55030    0.17310    1.000
    H82      H        0.17010    0.59330    0.01010    1.000
    H83      H        0.12740    0.58900    0.00840    1.000
    H84      H        0.07320    0.63840    0.05640    1.000
    H85      H        0.10500    0.66520    0.00740    1.000
    H86      H        0.11680    0.64460    0.05440    1.000
    H87      H        0.15910    0.49950    0.04330    1.000
    H88      H        0.20240    0.50320    0.04460    1.000
    H89      H        0.18740    0.45760    0.12300    1.000
    H90      H        0.18870    0.43050    0.09630    1.000
    H91      H        0.13940    0.45860    0.12640    1.000
    H92      H        0.33130    0.05230    0.54170    1.000
    H93      H        0.23330    0.20190    0.55490    1.000
    H94      H        0.31090    0.17310    0.55030    1.000
    H95      H        0.22650    0.01010    0.59330    1.000
    H96      H        0.27520    0.00840    0.58900    1.000
    H97      H        0.23200    0.05640    0.63840    1.000
    H98      H        0.22240    0.00740    0.66520    1.000
    H99      H        0.18420    0.05440    0.64460    1.000
    H100     H        0.29810    0.04330    0.49950    1.000
    H101     H        0.24980    0.04460    0.50320    1.000
    H102     H        0.23200    0.12300    0.45760    1.000
    H103     H        0.28450    0.09630    0.43050    1.000
    H104     H        0.27560    0.12640    0.45860    1.000
    H105     H        0.54170    0.33130    0.05230    1.000
    H106     H        0.55490    0.23330    0.20190    1.000
    H107     H        0.55030    0.31090    0.17310    1.000
    H108     H        0.59330    0.22650    0.01010    1.000
    H109     H        0.58900    0.27520    0.00840    1.000
    H110     H        0.63840    0.23200    0.05640    1.000
    H111     H        0.66520    0.22240    0.00740    1.000
    H112     H        0.64460    0.18420    0.05440    1.000
    H113     H        0.49950    0.29810    0.04330    1.000
    H114     H        0.50320    0.24980    0.04460    1.000
    H115     H        0.45760    0.23200    0.12300    1.000
    H116     H        0.43050    0.28450    0.09630    1.000
    H117     H        0.45860    0.27560    0.12640    1.000
    H118     H        0.05230    0.07470    0.54170    1.000
    H119     H        0.20190    0.00990    0.55490    1.000
    H120     H        0.17310    0.96570    0.55030    1.000
    H121     H        0.01010    0.17010    0.59330    1.000
    H122     H        0.00840    0.12740    0.58900    1.000
    H123     H        0.05640    0.07320    0.63840    1.000
    H124     H        0.00740    0.10500    0.66520    1.000
    H125     H        0.05440    0.11680    0.64460    1.000
    H126     H        0.04330    0.15910    0.49950    1.000
    H127     H        0.04460    0.20240    0.50320    1.000
    H128     H        0.12300    0.18740    0.45760    1.000
    H129     H        0.09630    0.18870    0.43050    1.000
    H130     H        0.12640    0.13940    0.45860    1.000
    H131     H        0.07470    0.05230    0.33130    1.000
    H132     H        0.00990    0.20190    0.23330    1.000
    H133     H        0.96570    0.17310    0.31090    1.000
    H134     H        0.17010    0.01010    0.22650    1.000
    H135     H        0.12740    0.00840    0.27520    1.000
    H136     H        0.07320    0.05640    0.23200    1.000
    H137     H        0.10500    0.00740    0.22240    1.000
    H138     H        0.11680    0.05440    0.18420    1.000
    H139     H        0.15910    0.04330    0.29810    1.000
    H140     H        0.20240    0.04460    0.24980    1.000
    H141     H        0.18740    0.12300    0.23200    1.000
    H142     H        0.18870    0.09630    0.28450    1.000
    H143     H        0.13940    0.12640    0.27560    1.000
    H144     H        0.33130    0.54170    0.07470    1.000
    H145     H        0.23330    0.55490    0.00990    1.000
    H146     H        0.31090    0.55030    0.96570    1.000
    H147     H        0.22650    0.59330    0.17010    1.000
    H148     H        0.27520    0.58900    0.12740    1.000
    H149     H        0.23200    0.63840    0.07320    1.000
    H150     H        0.22240    0.66520    0.10500    1.000
    H151     H        0.18420    0.64460    0.11680    1.000
    H152     H        0.29810    0.49950    0.15910    1.000
    H153     H        0.24980    0.50320    0.20240    1.000
    H154     H        0.23200    0.45760    0.18740    1.000
    H155     H        0.28450    0.43050    0.18870    1.000
    H156     H        0.27560    0.45860    0.13940    1.000
    H157     H        0.44770    0.95830    0.42530    1.000
    H158     H        0.29810    0.94510    0.49010    1.000
    H159     H        0.32690    0.94970    0.53430    1.000
    H160     H        0.48990    0.90670    0.32990    1.000
    H161     H        0.49160    0.91100    0.37260    1.000
    H162     H        0.44360    0.86160    0.42680    1.000
    H163     H        0.49260    0.83480    0.39500    1.000
    H164     H        0.44560    0.85540    0.38320    1.000
    H165     H        0.45670    0.00050    0.34090    1.000
    H166     H        0.45540    0.99680    0.29760    1.000
    H167     H        0.37700    0.04240    0.31260    1.000
    H168     H        0.40370    0.06950    0.31130    1.000
    H169     H        0.37360    0.04140    0.36060    1.000
    H170     H        0.95830    0.44770    0.16870    1.000
    H171     H        0.94510    0.29810    0.26670    1.000
    H172     H        0.94970    0.32690    0.18910    1.000
    H173     H        0.90670    0.48990    0.27350    1.000
    H174     H        0.91100    0.49160    0.22480    1.000
    H175     H        0.86160    0.44360    0.26800    1.000
    H176     H        0.83480    0.49260    0.27760    1.000
    H177     H        0.85540    0.44560    0.31580    1.000
    H178     H        0.00050    0.45670    0.20190    1.000
    H179     H        0.99680    0.45540    0.25020    1.000
    H180     H        0.04240    0.37700    0.26800    1.000
    H181     H        0.06950    0.40370    0.21550    1.000
    H182     H        0.04140    0.37360    0.22440    1.000
    H183     H        0.16870    0.42530    0.95830    1.000
    H184     H        0.26670    0.49010    0.94510    1.000
    H185     H        0.18910    0.53430    0.94970    1.000
    H186     H        0.27350    0.32990    0.90670    1.000
    H187     H        0.22480    0.37260    0.91100    1.000
    H188     H        0.26800    0.42680    0.86160    1.000
    H189     H        0.27760    0.39500    0.83480    1.000
    H190     H        0.31580    0.38320    0.85540    1.000
    H191     H        0.20190    0.34090    0.00050    1.000
    H192     H        0.25020    0.29760    0.99680    1.000
    H193     H        0.26800    0.31260    0.04240    1.000
    H194     H        0.21550    0.31130    0.06950    1.000
    H195     H        0.22440    0.36060    0.04140    1.000
    H196     H        0.42530    0.16870    0.44770    1.000
    H197     H        0.49010    0.26670    0.29810    1.000
    H198     H        0.53430    0.18910    0.32690    1.000
    H199     H        0.32990    0.27350    0.48990    1.000
    H200     H        0.37260    0.22480    0.49160    1.000
    H201     H        0.42680    0.26800    0.44360    1.000
    H202     H        0.39500    0.27760    0.49260    1.000
    H203     H        0.38320    0.31580    0.44560    1.000
    H204     H        0.34090    0.20190    0.45670    1.000
    H205     H        0.29760    0.25020    0.45540    1.000
    H206     H        0.31260    0.26800    0.37700    1.000
    H207     H        0.31130    0.21550    0.40370    1.000
    H208     H        0.36060    0.22440    0.37360    1.000
    H209     H        0.42530    0.95830    0.16870    1.000
    H210     H        0.49010    0.94510    0.26670    1.000
    H211     H        0.53430    0.94970    0.18910    1.000
    H212     H        0.32990    0.90670    0.27350    1.000
    H213     H        0.37260    0.91100    0.22480    1.000
    H214     H        0.42680    0.86160    0.26800    1.000
    H215     H        0.39500    0.83480    0.27760    1.000
    H216     H        0.38320    0.85540    0.31580    1.000
    H217     H        0.34090    0.00050    0.20190    1.000
    H218     H        0.29760    0.99680    0.25020    1.000
    H219     H        0.31260    0.04240    0.26800    1.000
    H220     H        0.31130    0.06950    0.21550    1.000
    H221     H        0.36060    0.04140    0.22440    1.000
    H222     H        0.16870    0.44770    0.42530    1.000
    H223     H        0.26670    0.29810    0.49010    1.000
    H224     H        0.18910    0.32690    0.53430    1.000
    H225     H        0.27350    0.48990    0.32990    1.000
    H226     H        0.22480    0.49160    0.37260    1.000
    H227     H        0.26800    0.44360    0.42680    1.000
    H228     H        0.27760    0.49260    0.39500    1.000
    H229     H        0.31580    0.44560    0.38320    1.000
    H230     H        0.20190    0.45670    0.34090    1.000
    H231     H        0.25020    0.45540    0.29760    1.000
    H232     H        0.26800    0.37700    0.31260    1.000
    H233     H        0.21550    0.40370    0.31130    1.000
    H234     H        0.22440    0.37360    0.36060    1.000
    H235     H        0.95830    0.42530    0.44770    1.000
    H236     H        0.94510    0.49010    0.29810    1.000
    H237     H        0.94970    0.53430    0.32690    1.000
    H238     H        0.90670    0.32990    0.48990    1.000
    H239     H        0.91100    0.37260    0.49160    1.000
    H240     H        0.86160    0.42680    0.44360    1.000
    H241     H        0.83480    0.39500    0.49260    1.000
    H242     H        0.85540    0.38320    0.44560    1.000
    H243     H        0.00050    0.34090    0.45670    1.000
    H244     H        0.99680    0.29760    0.45540    1.000
    H245     H        0.04240    0.31260    0.37700    1.000
    H246     H        0.06950    0.31130    0.40370    1.000
    H247     H        0.04140    0.36060    0.37360    1.000
    H248     H        0.44770    0.16870    0.95830    1.000
    H249     H        0.29810    0.26670    0.94510    1.000
    H250     H        0.32690    0.18910    0.94970    1.000
    H251     H        0.48990    0.27350    0.90670    1.000
    H252     H        0.49160    0.22480    0.91100    1.000
    H253     H        0.44360    0.26800    0.86160    1.000
    H254     H        0.49260    0.27760    0.83480    1.000
    H255     H        0.44560    0.31580    0.85540    1.000
    H256     H        0.45670    0.20190    0.00050    1.000
    H257     H        0.45540    0.25020    0.99680    1.000
    H258     H        0.37700    0.26800    0.04240    1.000
    H259     H        0.40370    0.21550    0.06950    1.000
    H260     H        0.37360    0.22440    0.04140    1.000
    H261     H        0.16870    0.95830    0.44770    1.000
    H262     H        0.26670    0.94510    0.29810    1.000
    H263     H        0.18910    0.94970    0.32690    1.000
    H264     H        0.27350    0.90670    0.48990    1.000
    H265     H        0.22480    0.91100    0.49160    1.000
    H266     H        0.26800    0.86160    0.44360    1.000
    H267     H        0.27760    0.83480    0.49260    1.000
    H268     H        0.31580    0.85540    0.44560    1.000
    H269     H        0.20190    0.00050    0.45670    1.000
    H270     H        0.25020    0.99680    0.45540    1.000
    H271     H        0.26800    0.04240    0.37700    1.000
    H272     H        0.21550    0.06950    0.40370    1.000
    H273     H        0.22440    0.04140    0.37360    1.000
    H274     H        0.42530    0.44770    0.95830    1.000
    H275     H        0.49010    0.29810    0.94510    1.000
    H276     H        0.53430    0.32690    0.94970    1.000
    H277     H        0.32990    0.48990    0.90670    1.000
    H278     H        0.37260    0.49160    0.91100    1.000
    H279     H        0.42680    0.44360    0.86160    1.000
    H280     H        0.39500    0.49260    0.83480    1.000
    H281     H        0.38320    0.44560    0.85540    1.000
    H282     H        0.34090    0.45670    0.00050    1.000
    H283     H        0.29760    0.45540    0.99680    1.000
    H284     H        0.31260    0.37700    0.04240    1.000
    H285     H        0.31130    0.40370    0.06950    1.000
    H286     H        0.36060    0.37360    0.04140    1.000
    H287     H        0.44770    0.42530    0.16870    1.000
    H288     H        0.29810    0.49010    0.26670    1.000
    H289     H        0.32690    0.53430    0.18910    1.000
    H290     H        0.48990    0.32990    0.27350    1.000
    H291     H        0.49160    0.37260    0.22480    1.000
    H292     H        0.44360    0.42680    0.26800    1.000
    H293     H        0.49260    0.39500    0.27760    1.000
    H294     H        0.44560    0.38320    0.31580    1.000
    H295     H        0.45670    0.34090    0.20190    1.000
    H296     H        0.45540    0.29760    0.25020    1.000
    H297     H        0.37700    0.31260    0.26800    1.000
    H298     H        0.40370    0.31130    0.21550    1.000
    H299     H        0.37360    0.36060    0.22440    1.000
    H300     H        0.95830    0.16870    0.42530    1.000
    H301     H        0.94510    0.26670    0.49010    1.000
    H302     H        0.94970    0.18910    0.53430    1.000
    H303     H        0.90670    0.27350    0.32990    1.000
    H304     H        0.91100    0.22480    0.37260    1.000
    H305     H        0.86160    0.26800    0.42680    1.000
    H306     H        0.83480    0.27760    0.39500    1.000
    H307     H        0.85540    0.31580    0.38320    1.000
    H308     H        0.00050    0.20190    0.34090    1.000
    H309     H        0.99680    0.25020    0.29760    1.000
    H310     H        0.04240    0.26800    0.31260    1.000
    H311     H        0.06950    0.21550    0.31130    1.000
    H312     H        0.04140    0.22440    0.36060    1.000
    H313     H        0.45830    0.94770    0.92530    1.000
    H314     H        0.44510    0.79810    0.99010    1.000
    H315     H        0.44970    0.82690    0.03430    1.000
    H316     H        0.40670    0.98990    0.82990    1.000
    H317     H        0.41100    0.99160    0.87260    1.000
    H318     H        0.36160    0.94360    0.92680    1.000
    H319     H        0.33480    0.99260    0.89500    1.000
    H320     H        0.35540    0.94560    0.88320    1.000
    H321     H        0.50050    0.95670    0.84090    1.000
    H322     H        0.49680    0.95540    0.79760    1.000
    H323     H        0.54240    0.87700    0.81260    1.000
    H324     H        0.56950    0.90370    0.81130    1.000
    H325     H        0.54140    0.87360    0.86060    1.000
    H326     H        0.94770    0.45830    0.66870    1.000
    H327     H        0.79810    0.44510    0.76670    1.000
    H328     H        0.82690    0.44970    0.68910    1.000
    H329     H        0.98990    0.40670    0.77350    1.000
    H330     H        0.99160    0.41100    0.72480    1.000
    H331     H        0.94360    0.36160    0.76800    1.000
    H332     H        0.99260    0.33480    0.77760    1.000
    H333     H        0.94560    0.35540    0.81580    1.000
    H334     H        0.95670    0.50050    0.70190    1.000
    H335     H        0.95540    0.49680    0.75020    1.000
    H336     H        0.87700    0.54240    0.76800    1.000
    H337     H        0.90370    0.56950    0.71550    1.000
    H338     H        0.87360    0.54140    0.72440    1.000
    H339     H        0.92530    0.66870    0.45830    1.000
    H340     H        0.99010    0.76670    0.44510    1.000
    H341     H        0.03430    0.68910    0.44970    1.000
    H342     H        0.82990    0.77350    0.40670    1.000
    H343     H        0.87260    0.72480    0.41100    1.000
    H344     H        0.92680    0.76800    0.36160    1.000
    H345     H        0.89500    0.77760    0.33480    1.000
    H346     H        0.88320    0.81580    0.35540    1.000
    H347     H        0.84090    0.70190    0.50050    1.000
    H348     H        0.79760    0.75020    0.49680    1.000
    H349     H        0.81260    0.76800    0.54240    1.000
    H350     H        0.81130    0.71550    0.56950    1.000
    H351     H        0.86060    0.72440    0.54140    1.000
    H352     H        0.66870    0.92530    0.94770    1.000
    H353     H        0.76670    0.99010    0.79810    1.000
    H354     H        0.68910    0.03430    0.82690    1.000
    H355     H        0.77350    0.82990    0.98990    1.000
    H356     H        0.72480    0.87260    0.99160    1.000
    H357     H        0.76800    0.92680    0.94360    1.000
    H358     H        0.77760    0.89500    0.99260    1.000
    H359     H        0.81580    0.88320    0.94560    1.000
    H360     H        0.70190    0.84090    0.95670    1.000
    H361     H        0.75020    0.79760    0.95540    1.000
    H362     H        0.76800    0.81260    0.87700    1.000
    H363     H        0.71550    0.81130    0.90370    1.000
    H364     H        0.72440    0.86060    0.87360    1.000
    H365     H        0.45830    0.92530    0.66870    1.000
    H366     H        0.44510    0.99010    0.76670    1.000
    H367     H        0.44970    0.03430    0.68910    1.000
    H368     H        0.40670    0.82990    0.77350    1.000
    H369     H        0.41100    0.87260    0.72480    1.000
    H370     H        0.36160    0.92680    0.76800    1.000
    H371     H        0.33480    0.89500    0.77760    1.000
    H372     H        0.35540    0.88320    0.81580    1.000
    H373     H        0.50050    0.84090    0.70190    1.000
    H374     H        0.49680    0.79760    0.75020    1.000
    H375     H        0.54240    0.81260    0.76800    1.000
    H376     H        0.56950    0.81130    0.71550    1.000
    H377     H        0.54140    0.86060    0.72440    1.000
    H378     H        0.94770    0.66870    0.92530    1.000
    H379     H        0.79810    0.76670    0.99010    1.000
    H380     H        0.82690    0.68910    0.03430    1.000
    H381     H        0.98990    0.77350    0.82990    1.000
    H382     H        0.99160    0.72480    0.87260    1.000
    H383     H        0.94360    0.76800    0.92680    1.000
    H384     H        0.99260    0.77760    0.89500    1.000
    H385     H        0.94560    0.81580    0.88320    1.000
    H386     H        0.95670    0.70190    0.84090    1.000
    H387     H        0.95540    0.75020    0.79760    1.000
    H388     H        0.87700    0.76800    0.81260    1.000
    H389     H        0.90370    0.71550    0.81130    1.000
    H390     H        0.87360    0.72440    0.86060    1.000
    H391     H        0.92530    0.45830    0.94770    1.000
    H392     H        0.99010    0.44510    0.79810    1.000
    H393     H        0.03430    0.44970    0.82690    1.000
    H394     H        0.82990    0.40670    0.98990    1.000
    H395     H        0.87260    0.41100    0.99160    1.000
    H396     H        0.92680    0.36160    0.94360    1.000
    H397     H        0.89500    0.33480    0.99260    1.000
    H398     H        0.88320    0.35540    0.94560    1.000
    H399     H        0.84090    0.50050    0.95670    1.000
    H400     H        0.79760    0.49680    0.95540    1.000
    H401     H        0.81260    0.54240    0.87700    1.000
    H402     H        0.81130    0.56950    0.90370    1.000
    H403     H        0.86060    0.54140    0.87360    1.000
    H404     H        0.66870    0.94770    0.45830    1.000
    H405     H        0.76670    0.79810    0.44510    1.000
    H406     H        0.68910    0.82690    0.44970    1.000
    H407     H        0.77350    0.98990    0.40670    1.000
    H408     H        0.72480    0.99160    0.41100    1.000
    H409     H        0.76800    0.94360    0.36160    1.000
    H410     H        0.77760    0.99260    0.33480    1.000
    H411     H        0.81580    0.94560    0.35540    1.000
    H412     H        0.70190    0.95670    0.50050    1.000
    H413     H        0.75020    0.95540    0.49680    1.000
    H414     H        0.76800    0.87700    0.54240    1.000
    H415     H        0.71550    0.90370    0.56950    1.000
    H416     H        0.72440    0.87360    0.54140    1.000
    H417     H        0.45830    0.66870    0.94770    1.000
    H418     H        0.44510    0.76670    0.79810    1.000
    H419     H        0.44970    0.68910    0.82690    1.000
    H420     H        0.40670    0.77350    0.98990    1.000
    H421     H        0.41100    0.72480    0.99160    1.000
    H422     H        0.36160    0.76800    0.94360    1.000
    H423     H        0.33480    0.77760    0.99260    1.000
    H424     H        0.35540    0.81580    0.94560    1.000
    H425     H        0.50050    0.70190    0.95670    1.000
    H426     H        0.49680    0.75020    0.95540    1.000
    H427     H        0.54240    0.76800    0.87700    1.000
    H428     H        0.56950    0.71550    0.90370    1.000
    H429     H        0.54140    0.72440    0.87360    1.000
    H430     H        0.94770    0.92530    0.45830    1.000
    H431     H        0.79810    0.99010    0.44510    1.000
    H432     H        0.82690    0.03430    0.44970    1.000
    H433     H        0.98990    0.82990    0.40670    1.000
    H434     H        0.99160    0.87260    0.41100    1.000
    H435     H        0.94360    0.92680    0.36160    1.000
    H436     H        0.99260    0.89500    0.33480    1.000
    H437     H        0.94560    0.88320    0.35540    1.000
    H438     H        0.95670    0.84090    0.50050    1.000
    H439     H        0.95540    0.79760    0.49680    1.000
    H440     H        0.87700    0.81260    0.54240    1.000
    H441     H        0.90370    0.81130    0.56950    1.000
    H442     H        0.87360    0.86060    0.54140    1.000
    H443     H        0.92530    0.94770    0.66870    1.000
    H444     H        0.99010    0.79810    0.76670    1.000
    H445     H        0.03430    0.82690    0.68910    1.000
    H446     H        0.82990    0.98990    0.77350    1.000
    H447     H        0.87260    0.99160    0.72480    1.000
    H448     H        0.92680    0.94360    0.76800    1.000
    H449     H        0.89500    0.99260    0.77760    1.000
    H450     H        0.88320    0.94560    0.81580    1.000
    H451     H        0.84090    0.95670    0.70190    1.000
    H452     H        0.79760    0.95540    0.75020    1.000
    H453     H        0.81260    0.87700    0.76800    1.000
    H454     H        0.81130    0.90370    0.71550    1.000
    H455     H        0.86060    0.87360    0.72440    1.000
    H456     H        0.66870    0.45830    0.92530    1.000
    H457     H        0.76670    0.44510    0.99010    1.000
    H458     H        0.68910    0.44970    0.03430    1.000
    H459     H        0.77350    0.40670    0.82990    1.000
    H460     H        0.72480    0.41100    0.87260    1.000
    H461     H        0.76800    0.36160    0.92680    1.000
    H462     H        0.77760    0.33480    0.89500    1.000
    H463     H        0.81580    0.35540    0.88320    1.000
    H464     H        0.70190    0.50050    0.84090    1.000
    H465     H        0.75020    0.49680    0.79760    1.000
    H466     H        0.76800    0.54240    0.81260    1.000
    H467     H        0.71550    0.56950    0.81130    1.000
    H468     H        0.72440    0.54140    0.86060    1.000
    H469     H        0.55230    0.04170    0.57470    1.000
    H470     H        0.70190    0.05490    0.50990    1.000
    H471     H        0.67310    0.05030    0.46570    1.000
    H472     H        0.51010    0.09330    0.67010    1.000
    H473     H        0.50840    0.08900    0.62740    1.000
    H474     H        0.55640    0.13840    0.57320    1.000
    H475     H        0.50740    0.16520    0.60500    1.000
    H476     H        0.55440    0.14460    0.61680    1.000
    H477     H        0.54330    0.99950    0.65910    1.000
    H478     H        0.54460    0.00320    0.70240    1.000
    H479     H        0.62300    0.95760    0.68740    1.000
    H480     H        0.59630    0.93050    0.68870    1.000
    H481     H        0.62640    0.95860    0.63940    1.000
    H482     H        0.04170    0.55230    0.83130    1.000
    H483     H        0.05490    0.70190    0.73330    1.000
    H484     H        0.05030    0.67310    0.81090    1.000
    H485     H        0.09330    0.51010    0.72650    1.000
    H486     H        0.08900    0.50840    0.77520    1.000
    H487     H        0.13840    0.55640    0.73200    1.000
    H488     H        0.16520    0.50740    0.72240    1.000
    H489     H        0.14460    0.55440    0.68420    1.000
    H490     H        0.99950    0.54330    0.79810    1.000
    H491     H        0.00320    0.54460    0.74980    1.000
    H492     H        0.95760    0.62300    0.73200    1.000
    H493     H        0.93050    0.59630    0.78450    1.000
    H494     H        0.95860    0.62640    0.77560    1.000
    H495     H        0.83130    0.57470    0.04170    1.000
    H496     H        0.73330    0.50990    0.05490    1.000
    H497     H        0.81090    0.46570    0.05030    1.000
    H498     H        0.72650    0.67010    0.09330    1.000
    H499     H        0.77520    0.62740    0.08900    1.000
    H500     H        0.73200    0.57320    0.13840    1.000
    H501     H        0.72240    0.60500    0.16520    1.000
    H502     H        0.68420    0.61680    0.14460    1.000
    H503     H        0.79810    0.65910    0.99950    1.000
    H504     H        0.74980    0.70240    0.00320    1.000
    H505     H        0.73200    0.68740    0.95760    1.000
    H506     H        0.78450    0.68870    0.93050    1.000
    H507     H        0.77560    0.63940    0.95860    1.000
    H508     H        0.57470    0.83130    0.55230    1.000
    H509     H        0.50990    0.73330    0.70190    1.000
    H510     H        0.46570    0.81090    0.67310    1.000
    H511     H        0.67010    0.72650    0.51010    1.000
    H512     H        0.62740    0.77520    0.50840    1.000
    H513     H        0.57320    0.73200    0.55640    1.000
    H514     H        0.60500    0.72240    0.50740    1.000
    H515     H        0.61680    0.68420    0.55440    1.000
    H516     H        0.65910    0.79810    0.54330    1.000
    H517     H        0.70240    0.74980    0.54460    1.000
    H518     H        0.68740    0.73200    0.62300    1.000
    H519     H        0.68870    0.78450    0.59630    1.000
    H520     H        0.63940    0.77560    0.62640    1.000
    H521     H        0.57470    0.04170    0.83130    1.000
    H522     H        0.50990    0.05490    0.73330    1.000
    H523     H        0.46570    0.05030    0.81090    1.000
    H524     H        0.67010    0.09330    0.72650    1.000
    H525     H        0.62740    0.08900    0.77520    1.000
    H526     H        0.57320    0.13840    0.73200    1.000
    H527     H        0.60500    0.16520    0.72240    1.000
    H528     H        0.61680    0.14460    0.68420    1.000
    H529     H        0.65910    0.99950    0.79810    1.000
    H530     H        0.70240    0.00320    0.74980    1.000
    H531     H        0.68740    0.95760    0.73200    1.000
    H532     H        0.68870    0.93050    0.78450    1.000
    H533     H        0.63940    0.95860    0.77560    1.000
    H534     H        0.83130    0.55230    0.57470    1.000
    H535     H        0.73330    0.70190    0.50990    1.000
    H536     H        0.81090    0.67310    0.46570    1.000
    H537     H        0.72650    0.51010    0.67010    1.000
    H538     H        0.77520    0.50840    0.62740    1.000
    H539     H        0.73200    0.55640    0.57320    1.000
    H540     H        0.72240    0.50740    0.60500    1.000
    H541     H        0.68420    0.55440    0.61680    1.000
    H542     H        0.79810    0.54330    0.65910    1.000
    H543     H        0.74980    0.54460    0.70240    1.000
    H544     H        0.73200    0.62300    0.68740    1.000
    H545     H        0.78450    0.59630    0.68870    1.000
    H546     H        0.77560    0.62640    0.63940    1.000
    H547     H        0.04170    0.57470    0.55230    1.000
    H548     H        0.05490    0.50990    0.70190    1.000
    H549     H        0.05030    0.46570    0.67310    1.000
    H550     H        0.09330    0.67010    0.51010    1.000
    H551     H        0.08900    0.62740    0.50840    1.000
    H552     H        0.13840    0.57320    0.55640    1.000
    H553     H        0.16520    0.60500    0.50740    1.000
    H554     H        0.14460    0.61680    0.55440    1.000
    H555     H        0.99950    0.65910    0.54330    1.000
    H556     H        0.00320    0.70240    0.54460    1.000
    H557     H        0.95760    0.68740    0.62300    1.000
    H558     H        0.93050    0.68870    0.59630    1.000
    H559     H        0.95860    0.63940    0.62640    1.000
    H560     H        0.55230    0.83130    0.04170    1.000
    H561     H        0.70190    0.73330    0.05490    1.000
    H562     H        0.67310    0.81090    0.05030    1.000
    H563     H        0.51010    0.72650    0.09330    1.000
    H564     H        0.50840    0.77520    0.08900    1.000
    H565     H        0.55640    0.73200    0.13840    1.000
    H566     H        0.50740    0.72240    0.16520    1.000
    H567     H        0.55440    0.68420    0.14460    1.000
    H568     H        0.54330    0.79810    0.99950    1.000
    H569     H        0.54460    0.74980    0.00320    1.000
    H570     H        0.62300    0.73200    0.95760    1.000
    H571     H        0.59630    0.78450    0.93050    1.000
    H572     H        0.62640    0.77560    0.95860    1.000
    H573     H        0.83130    0.04170    0.55230    1.000
    H574     H        0.73330    0.05490    0.70190    1.000
    H575     H        0.81090    0.05030    0.67310    1.000
    H576     H        0.72650    0.09330    0.51010    1.000
    H577     H        0.77520    0.08900    0.50840    1.000
    H578     H        0.73200    0.13840    0.55640    1.000
    H579     H        0.72240    0.16520    0.50740    1.000
    H580     H        0.68420    0.14460    0.55440    1.000
    H581     H        0.79810    0.99950    0.54330    1.000
    H582     H        0.74980    0.00320    0.54460    1.000
    H583     H        0.73200    0.95760    0.62300    1.000
    H584     H        0.78450    0.93050    0.59630    1.000
    H585     H        0.77560    0.95860    0.62640    1.000
    H586     H        0.57470    0.55230    0.04170    1.000
    H587     H        0.50990    0.70190    0.05490    1.000
    H588     H        0.46570    0.67310    0.05030    1.000
    H589     H        0.67010    0.51010    0.09330    1.000
    H590     H        0.62740    0.50840    0.08900    1.000
    H591     H        0.57320    0.55640    0.13840    1.000
    H592     H        0.60500    0.50740    0.16520    1.000
    H593     H        0.61680    0.55440    0.14460    1.000
    H594     H        0.65910    0.54330    0.99950    1.000
    H595     H        0.70240    0.54460    0.00320    1.000
    H596     H        0.68740    0.62300    0.95760    1.000
    H597     H        0.68870    0.59630    0.93050    1.000
    H598     H        0.63940    0.62640    0.95860    1.000
    H599     H        0.55230    0.57470    0.83130    1.000
    H600     H        0.70190    0.50990    0.73330    1.000
    H601     H        0.67310    0.46570    0.81090    1.000
    H602     H        0.51010    0.67010    0.72650    1.000
    H603     H        0.50840    0.62740    0.77520    1.000
    H604     H        0.55640    0.57320    0.73200    1.000
    H605     H        0.50740    0.60500    0.72240    1.000
    H606     H        0.55440    0.61680    0.68420    1.000
    H607     H        0.54330    0.65910    0.79810    1.000
    H608     H        0.54460    0.70240    0.74980    1.000
    H609     H        0.62300    0.68740    0.73200    1.000
    H610     H        0.59630    0.68870    0.78450    1.000
    H611     H        0.62640    0.63940    0.77560    1.000
    H612     H        0.04170    0.83130    0.57470    1.000
    H613     H        0.05490    0.73330    0.50990    1.000
    H614     H        0.05030    0.81090    0.46570    1.000
    H615     H        0.09330    0.72650    0.67010    1.000
    H616     H        0.08900    0.77520    0.62740    1.000
    H617     H        0.13840    0.73200    0.57320    1.000
    H618     H        0.16520    0.72240    0.60500    1.000
    H619     H        0.14460    0.68420    0.61680    1.000
    H620     H        0.99950    0.79810    0.65910    1.000
    H621     H        0.00320    0.74980    0.70240    1.000
    H622     H        0.95760    0.73200    0.68740    1.000
    H623     H        0.93050    0.78450    0.68870    1.000
    H624     H        0.95860    0.77560    0.63940    1.000
    C1       C        0.53963    0.09419    0.98723    1.000
    C2       C        0.54508    0.11060    0.01554    1.000
    C3       C        0.54449    0.08245    0.06161    1.000
    C4       C        0.54816    0.09956    0.08814    1.000
    C5       C        0.55158    0.14448    0.06964    1.000
    C6       C        0.55234    0.17160    0.02338    1.000
    C7       C        0.54939    0.15431    0.99721    1.000
    C8       C        0.54904    0.07348    0.13768    1.000
    C9       C        0.55242    0.10962    0.14714    1.000
    C10      C        0.55323    0.15155    0.10743    1.000
    C11      C        0.59238    0.02810    0.13762    1.000
    C12      C        0.63942    0.03738    0.10524    1.000
    C13      C        0.50206    0.06306    0.16996    1.000
    C14      C        0.45836    0.10598    0.17144    1.000
    C15      C        0.09419    0.53963    0.37895    1.000
    C16      C        0.11060    0.54508    0.32878    1.000
    C17      C        0.08245    0.54449    0.31145    1.000
    C18      C        0.09956    0.54816    0.26414    1.000
    C19      C        0.14448    0.55158    0.23430    1.000
    C20      C        0.17160    0.55234    0.25268    1.000
    C21      C        0.15431    0.54939    0.29909    1.000
    C22      C        0.07348    0.54904    0.23980    1.000
    C23      C        0.10962    0.55242    0.19082    1.000
    C24      C        0.15155    0.55323    0.18779    1.000
    C25      C        0.02810    0.59238    0.24190    1.000
    C26      C        0.03738    0.63942    0.21796    1.000
    C27      C        0.06306    0.50206    0.26492    1.000
    C28      C        0.10598    0.45836    0.26422    1.000
    C29      C        0.98723    0.37895    0.53963    1.000
    C30      C        0.01554    0.32878    0.54508    1.000
    C31      C        0.06161    0.31145    0.54449    1.000
    C32      C        0.08814    0.26414    0.54816    1.000
    C33      C        0.06964    0.23430    0.55158    1.000
    C34      C        0.02338    0.25268    0.55234    1.000
    C35      C        0.99721    0.29909    0.54939    1.000
    C36      C        0.13768    0.23980    0.54904    1.000
    C37      C        0.14714    0.19082    0.55242    1.000
    C38      C        0.10743    0.18779    0.55323    1.000
    C39      C        0.13762    0.24190    0.59238    1.000
    C40      C        0.10524    0.21796    0.63942    1.000
    C41      C        0.16996    0.26492    0.50206    1.000
    C42      C        0.17144    0.26422    0.45836    1.000
    C43      C        0.37895    0.98723    0.09419    1.000
    C44      C        0.32878    0.01554    0.11060    1.000
    C45      C        0.31145    0.06161    0.08245    1.000
    C46      C        0.26414    0.08814    0.09956    1.000
    C47      C        0.23430    0.06964    0.14448    1.000
    C48      C        0.25268    0.02338    0.17160    1.000
    C49      C        0.29909    0.99721    0.15431    1.000
    C50      C        0.23980    0.13768    0.07348    1.000
    C51      C        0.19082    0.14714    0.10962    1.000
    C52      C        0.18779    0.10743    0.15155    1.000
    C53      C        0.24190    0.13762    0.02810    1.000
    C54      C        0.21796    0.10524    0.03738    1.000
    C55      C        0.26492    0.16996    0.06306    1.000
    C56      C        0.26422    0.17144    0.10598    1.000
    C57      C        0.53963    0.98723    0.37895    1.000
    C58      C        0.54508    0.01554    0.32878    1.000
    C59      C        0.54449    0.06161    0.31145    1.000
    C60      C        0.54816    0.08814    0.26414    1.000
    C61      C        0.55158    0.06964    0.23430    1.000
    C62      C        0.55234    0.02338    0.25268    1.000
    C63      C        0.54939    0.99721    0.29909    1.000
    C64      C        0.54904    0.13768    0.23980    1.000
    C65      C        0.55242    0.14714    0.19082    1.000
    C66      C        0.55323    0.10743    0.18779    1.000
    C67      C        0.59238    0.13762    0.24190    1.000
    C68      C        0.63942    0.10524    0.21796    1.000
    C69      C        0.50206    0.16996    0.26492    1.000
    C70      C        0.45836    0.17144    0.26422    1.000
    C71      C        0.09419    0.37895    0.98723    1.000
    C72      C        0.11060    0.32878    0.01554    1.000
    C73      C        0.08245    0.31145    0.06161    1.000
    C74      C        0.09956    0.26414    0.08814    1.000
    C75      C        0.14448    0.23430    0.06964    1.000
    C76      C        0.17160    0.25268    0.02338    1.000
    C77      C        0.15431    0.29909    0.99721    1.000
    C78      C        0.07348    0.23980    0.13768    1.000
    C79      C        0.10962    0.19082    0.14714    1.000
    C80      C        0.15155    0.18779    0.10743    1.000
    C81      C        0.02810    0.24190    0.13762    1.000
    C82      C        0.03738    0.21796    0.10524    1.000
    C83      C        0.06306    0.26492    0.16996    1.000
    C84      C        0.10598    0.26422    0.17144    1.000
    C85      C        0.98723    0.53963    0.09419    1.000
    C86      C        0.01554    0.54508    0.11060    1.000
    C87      C        0.06161    0.54449    0.08245    1.000
    C88      C        0.08814    0.54816    0.09956    1.000
    C89      C        0.06964    0.55158    0.14448    1.000
    C90      C        0.02338    0.55234    0.17160    1.000
    C91      C        0.99721    0.54939    0.15431    1.000
    C92      C        0.13768    0.54904    0.07348    1.000
    C93      C        0.14714    0.55242    0.10962    1.000
    C94      C        0.10743    0.55323    0.15155    1.000
    C95      C        0.13762    0.59238    0.02810    1.000
    C96      C        0.10524    0.63942    0.03738    1.000
    C97      C        0.16996    0.50206    0.06306    1.000
    C98      C        0.17144    0.45836    0.10598    1.000
    C99      C        0.37895    0.09419    0.53963    1.000
    C100     C        0.32878    0.11060    0.54508    1.000
    C101     C        0.31145    0.08245    0.54449    1.000
    C102     C        0.26414    0.09956    0.54816    1.000
    C103     C        0.23430    0.14448    0.55158    1.000
    C104     C        0.25268    0.17160    0.55234    1.000
    C105     C        0.29909    0.15431    0.54939    1.000
    C106     C        0.23980    0.07348    0.54904    1.000
    C107     C        0.19082    0.10962    0.55242    1.000
    C108     C        0.18779    0.15155    0.55323    1.000
    C109     C        0.24190    0.02810    0.59238    1.000
    C110     C        0.21796    0.03738    0.63942    1.000
    C111     C        0.26492    0.06306    0.50206    1.000
    C112     C        0.26422    0.10598    0.45836    1.000
    C113     C        0.53963    0.37895    0.09419    1.000
    C114     C        0.54508    0.32878    0.11060    1.000
    C115     C        0.54449    0.31145    0.08245    1.000
    C116     C        0.54816    0.26414    0.09956    1.000
    C117     C        0.55158    0.23430    0.14448    1.000
    C118     C        0.55234    0.25268    0.17160    1.000
    C119     C        0.54939    0.29909    0.15431    1.000
    C120     C        0.54904    0.23980    0.07348    1.000
    C121     C        0.55242    0.19082    0.10962    1.000
    C122     C        0.55323    0.18779    0.15155    1.000
    C123     C        0.59238    0.24190    0.02810    1.000
    C124     C        0.63942    0.21796    0.03738    1.000
    C125     C        0.50206    0.26492    0.06306    1.000
    C126     C        0.45836    0.26422    0.10598    1.000
    C127     C        0.09419    0.98723    0.53963    1.000
    C128     C        0.11060    0.01554    0.54508    1.000
    C129     C        0.08245    0.06161    0.54449    1.000
    C130     C        0.09956    0.08814    0.54816    1.000
    C131     C        0.14448    0.06964    0.55158    1.000
    C132     C        0.17160    0.02338    0.55234    1.000
    C133     C        0.15431    0.99721    0.54939    1.000
    C134     C        0.07348    0.13768    0.54904    1.000
    C135     C        0.10962    0.14714    0.55242    1.000
    C136     C        0.15155    0.10743    0.55323    1.000
    C137     C        0.02810    0.13762    0.59238    1.000
    C138     C        0.03738    0.10524    0.63942    1.000
    C139     C        0.06306    0.16996    0.50206    1.000
    C140     C        0.10598    0.17144    0.45836    1.000
    C141     C        0.98723    0.09419    0.37895    1.000
    C142     C        0.01554    0.11060    0.32878    1.000
    C143     C        0.06161    0.08245    0.31145    1.000
    C144     C        0.08814    0.09956    0.26414    1.000
    C145     C        0.06964    0.14448    0.23430    1.000
    C146     C        0.02338    0.17160    0.25268    1.000
    C147     C        0.99721    0.15431    0.29909    1.000
    C148     C        0.13768    0.07348    0.23980    1.000
    C149     C        0.14714    0.10962    0.19082    1.000
    C150     C        0.10743    0.15155    0.18779    1.000
    C151     C        0.13762    0.02810    0.24190    1.000
    C152     C        0.10524    0.03738    0.21796    1.000
    C153     C        0.16996    0.06306    0.26492    1.000
    C154     C        0.17144    0.10598    0.26422    1.000
    C155     C        0.37895    0.53963    0.98723    1.000
    C156     C        0.32878    0.54508    0.01554    1.000
    C157     C        0.31145    0.54449    0.06161    1.000
    C158     C        0.26414    0.54816    0.08814    1.000
    C159     C        0.23430    0.55158    0.06964    1.000
    C160     C        0.25268    0.55234    0.02338    1.000
    C161     C        0.29909    0.54939    0.99721    1.000
    C162     C        0.23980    0.54904    0.13768    1.000
    C163     C        0.19082    0.55242    0.14714    1.000
    C164     C        0.18779    0.55323    0.10743    1.000
    C165     C        0.24190    0.59238    0.13762    1.000
    C166     C        0.21796    0.63942    0.10524    1.000
    C167     C        0.26492    0.50206    0.16996    1.000
    C168     C        0.26422    0.45836    0.17144    1.000
    C169     C        0.40581    0.96037    0.51277    1.000
    C170     C        0.38940    0.95492    0.48446    1.000
    C171     C        0.41755    0.95551    0.43839    1.000
    C172     C        0.40044    0.95184    0.41186    1.000
    C173     C        0.35552    0.94842    0.43036    1.000
    C174     C        0.32840    0.94766    0.47662    1.000
    C175     C        0.34569    0.95061    0.50279    1.000
    C176     C        0.42652    0.95096    0.36232    1.000
    C177     C        0.39038    0.94758    0.35286    1.000
    C178     C        0.34845    0.94677    0.39257    1.000
    C179     C        0.47190    0.90762    0.36238    1.000
    C180     C        0.46262    0.86058    0.39476    1.000
    C181     C        0.43694    0.99794    0.33004    1.000
    C182     C        0.39402    0.04164    0.32856    1.000
    C183     C        0.96037    0.40581    0.12105    1.000
    C184     C        0.95492    0.38940    0.17122    1.000
    C185     C        0.95551    0.41755    0.18855    1.000
    C186     C        0.95184    0.40044    0.23586    1.000
    C187     C        0.94842    0.35552    0.26570    1.000
    C188     C        0.94766    0.32840    0.24732    1.000
    C189     C        0.95061    0.34569    0.20091    1.000
    C190     C        0.95096    0.42652    0.26020    1.000
    C191     C        0.94758    0.39038    0.30918    1.000
    C192     C        0.94677    0.34845    0.31221    1.000
    C193     C        0.90762    0.47190    0.25810    1.000
    C194     C        0.86058    0.46262    0.28204    1.000
    C195     C        0.99794    0.43694    0.23508    1.000
    C196     C        0.04164    0.39402    0.23578    1.000
    C197     C        0.12105    0.51277    0.96037    1.000
    C198     C        0.17122    0.48446    0.95492    1.000
    C199     C        0.18855    0.43839    0.95551    1.000
    C200     C        0.23586    0.41186    0.95184    1.000
    C201     C        0.26570    0.43036    0.94842    1.000
    C202     C        0.24732    0.47662    0.94766    1.000
    C203     C        0.20091    0.50279    0.95061    1.000
    C204     C        0.26020    0.36232    0.95096    1.000
    C205     C        0.30918    0.35286    0.94758    1.000
    C206     C        0.31221    0.39257    0.94677    1.000
    C207     C        0.25810    0.36238    0.90762    1.000
    C208     C        0.28204    0.39476    0.86058    1.000
    C209     C        0.23508    0.33004    0.99794    1.000
    C210     C        0.23578    0.32856    0.04164    1.000
    C211     C        0.51277    0.12105    0.40581    1.000
    C212     C        0.48446    0.17122    0.38940    1.000
    C213     C        0.43839    0.18855    0.41755    1.000
    C214     C        0.41186    0.23586    0.40044    1.000
    C215     C        0.43036    0.26570    0.35552    1.000
    C216     C        0.47662    0.24732    0.32840    1.000
    C217     C        0.50279    0.20091    0.34569    1.000
    C218     C        0.36232    0.26020    0.42652    1.000
    C219     C        0.35286    0.30918    0.39038    1.000
    C220     C        0.39257    0.31221    0.34845    1.000
    C221     C        0.36238    0.25810    0.47190    1.000
    C222     C        0.39476    0.28204    0.46262    1.000
    C223     C        0.33004    0.23508    0.43694    1.000
    C224     C        0.32856    0.23578    0.39402    1.000
    C225     C        0.51277    0.96037    0.12105    1.000
    C226     C        0.48446    0.95492    0.17122    1.000
    C227     C        0.43839    0.95551    0.18855    1.000
    C228     C        0.41186    0.95184    0.23586    1.000
    C229     C        0.43036    0.94842    0.26570    1.000
    C230     C        0.47662    0.94766    0.24732    1.000
    C231     C        0.50279    0.95061    0.20091    1.000
    C232     C        0.36232    0.95096    0.26020    1.000
    C233     C        0.35286    0.94758    0.30918    1.000
    C234     C        0.39257    0.94677    0.31221    1.000
    C235     C        0.36238    0.90762    0.25810    1.000
    C236     C        0.39476    0.86058    0.28204    1.000
    C237     C        0.33004    0.99794    0.23508    1.000
    C238     C        0.32856    0.04164    0.23578    1.000
    C239     C        0.12105    0.40581    0.51277    1.000
    C240     C        0.17122    0.38940    0.48446    1.000
    C241     C        0.18855    0.41755    0.43839    1.000
    C242     C        0.23586    0.40044    0.41186    1.000
    C243     C        0.26570    0.35552    0.43036    1.000
    C244     C        0.24732    0.32840    0.47662    1.000
    C245     C        0.20091    0.34569    0.50279    1.000
    C246     C        0.26020    0.42652    0.36232    1.000
    C247     C        0.30918    0.39038    0.35286    1.000
    C248     C        0.31221    0.34845    0.39257    1.000
    C249     C        0.25810    0.47190    0.36238    1.000
    C250     C        0.28204    0.46262    0.39476    1.000
    C251     C        0.23508    0.43694    0.33004    1.000
    C252     C        0.23578    0.39402    0.32856    1.000
    C253     C        0.96037    0.51277    0.40581    1.000
    C254     C        0.95492    0.48446    0.38940    1.000
    C255     C        0.95551    0.43839    0.41755    1.000
    C256     C        0.95184    0.41186    0.40044    1.000
    C257     C        0.94842    0.43036    0.35552    1.000
    C258     C        0.94766    0.47662    0.32840    1.000
    C259     C        0.95061    0.50279    0.34569    1.000
    C260     C        0.95096    0.36232    0.42652    1.000
    C261     C        0.94758    0.35286    0.39038    1.000
    C262     C        0.94677    0.39257    0.34845    1.000
    C263     C        0.90762    0.36238    0.47190    1.000
    C264     C        0.86058    0.39476    0.46262    1.000
    C265     C        0.99794    0.33004    0.43694    1.000
    C266     C        0.04164    0.32856    0.39402    1.000
    C267     C        0.40581    0.12105    0.96037    1.000
    C268     C        0.38940    0.17122    0.95492    1.000
    C269     C        0.41755    0.18855    0.95551    1.000
    C270     C        0.40044    0.23586    0.95184    1.000
    C271     C        0.35552    0.26570    0.94842    1.000
    C272     C        0.32840    0.24732    0.94766    1.000
    C273     C        0.34569    0.20091    0.95061    1.000
    C274     C        0.42652    0.26020    0.95096    1.000
    C275     C        0.39038    0.30918    0.94758    1.000
    C276     C        0.34845    0.31221    0.94677    1.000
    C277     C        0.47190    0.25810    0.90762    1.000
    C278     C        0.46262    0.28204    0.86058    1.000
    C279     C        0.43694    0.23508    0.99794    1.000
    C280     C        0.39402    0.23578    0.04164    1.000
    C281     C        0.12105    0.96037    0.40581    1.000
    C282     C        0.17122    0.95492    0.38940    1.000
    C283     C        0.18855    0.95551    0.41755    1.000
    C284     C        0.23586    0.95184    0.40044    1.000
    C285     C        0.26570    0.94842    0.35552    1.000
    C286     C        0.24732    0.94766    0.32840    1.000
    C287     C        0.20091    0.95061    0.34569    1.000
    C288     C        0.26020    0.95096    0.42652    1.000
    C289     C        0.30918    0.94758    0.39038    1.000
    C290     C        0.31221    0.94677    0.34845    1.000
    C291     C        0.25810    0.90762    0.47190    1.000
    C292     C        0.28204    0.86058    0.46262    1.000
    C293     C        0.23508    0.99794    0.43694    1.000
    C294     C        0.23578    0.04164    0.39402    1.000
    C295     C        0.51277    0.40581    0.96037    1.000
    C296     C        0.48446    0.38940    0.95492    1.000
    C297     C        0.43839    0.41755    0.95551    1.000
    C298     C        0.41186    0.40044    0.95184    1.000
    C299     C        0.43036    0.35552    0.94842    1.000
    C300     C        0.47662    0.32840    0.94766    1.000
    C301     C        0.50279    0.34569    0.95061    1.000
    C302     C        0.36232    0.42652    0.95096    1.000
    C303     C        0.35286    0.39038    0.94758    1.000
    C304     C        0.39257    0.34845    0.94677    1.000
    C305     C        0.36238    0.47190    0.90762    1.000
    C306     C        0.39476    0.46262    0.86058    1.000
    C307     C        0.33004    0.43694    0.99794    1.000
    C308     C        0.32856    0.39402    0.04164    1.000
    C309     C        0.40581    0.51277    0.12105    1.000
    C310     C        0.38940    0.48446    0.17122    1.000
    C311     C        0.41755    0.43839    0.18855    1.000
    C312     C        0.40044    0.41186    0.23586    1.000
    C313     C        0.35552    0.43036    0.26570    1.000
    C314     C        0.32840    0.47662    0.24732    1.000
    C315     C        0.34569    0.50279    0.20091    1.000
    C316     C        0.42652    0.36232    0.26020    1.000
    C317     C        0.39038    0.35286    0.30918    1.000
    C318     C        0.34845    0.39257    0.31221    1.000
    C319     C        0.47190    0.36238    0.25810    1.000
    C320     C        0.46262    0.39476    0.28204    1.000
    C321     C        0.43694    0.33004    0.23508    1.000
    C322     C        0.39402    0.32856    0.23578    1.000
    C323     C        0.96037    0.12105    0.51277    1.000
    C324     C        0.95492    0.17122    0.48446    1.000
    C325     C        0.95551    0.18855    0.43839    1.000
    C326     C        0.95184    0.23586    0.41186    1.000
    C327     C        0.94842    0.26570    0.43036    1.000
    C328     C        0.94766    0.24732    0.47662    1.000
    C329     C        0.95061    0.20091    0.50279    1.000
    C330     C        0.95096    0.26020    0.36232    1.000
    C331     C        0.94758    0.30918    0.35286    1.000
    C332     C        0.94677    0.31221    0.39257    1.000
    C333     C        0.90762    0.25810    0.36238    1.000
    C334     C        0.86058    0.28204    0.39476    1.000
    C335     C        0.99794    0.23508    0.33004    1.000
    C336     C        0.04164    0.23578    0.32856    1.000
    C337     C        0.46037    0.90581    0.01277    1.000
    C338     C        0.45492    0.88940    0.98446    1.000
    C339     C        0.45551    0.91755    0.93839    1.000
    C340     C        0.45184    0.90044    0.91186    1.000
    C341     C        0.44842    0.85552    0.93036    1.000
    C342     C        0.44766    0.82840    0.97662    1.000
    C343     C        0.45061    0.84569    0.00279    1.000
    C344     C        0.45096    0.92652    0.86232    1.000
    C345     C        0.44758    0.89038    0.85286    1.000
    C346     C        0.44677    0.84845    0.89257    1.000
    C347     C        0.40762    0.97190    0.86238    1.000
    C348     C        0.36058    0.96262    0.89476    1.000
    C349     C        0.49794    0.93694    0.83004    1.000
    C350     C        0.54164    0.89402    0.82856    1.000
    C351     C        0.90581    0.46037    0.62105    1.000
    C352     C        0.88940    0.45492    0.67122    1.000
    C353     C        0.91755    0.45551    0.68855    1.000
    C354     C        0.90044    0.45184    0.73586    1.000
    C355     C        0.85552    0.44842    0.76570    1.000
    C356     C        0.82840    0.44766    0.74732    1.000
    C357     C        0.84569    0.45061    0.70091    1.000
    C358     C        0.92652    0.45096    0.76020    1.000
    C359     C        0.89038    0.44758    0.80918    1.000
    C360     C        0.84845    0.44677    0.81221    1.000
    C361     C        0.97190    0.40762    0.75810    1.000
    C362     C        0.96262    0.36058    0.78204    1.000
    C363     C        0.93694    0.49794    0.73508    1.000
    C364     C        0.89402    0.54164    0.73578    1.000
    C365     C        0.01277    0.62105    0.46037    1.000
    C366     C        0.98446    0.67122    0.45492    1.000
    C367     C        0.93839    0.68855    0.45551    1.000
    C368     C        0.91186    0.73586    0.45184    1.000
    C369     C        0.93036    0.76570    0.44842    1.000
    C370     C        0.97662    0.74732    0.44766    1.000
    C371     C        0.00279    0.70091    0.45061    1.000
    C372     C        0.86232    0.76020    0.45096    1.000
    C373     C        0.85286    0.80918    0.44758    1.000
    C374     C        0.89257    0.81221    0.44677    1.000
    C375     C        0.86238    0.75810    0.40762    1.000
    C376     C        0.89476    0.78204    0.36058    1.000
    C377     C        0.83004    0.73508    0.49794    1.000
    C378     C        0.82856    0.73578    0.54164    1.000
    C379     C        0.62105    0.01277    0.90581    1.000
    C380     C        0.67122    0.98446    0.88940    1.000
    C381     C        0.68855    0.93839    0.91755    1.000
    C382     C        0.73586    0.91186    0.90044    1.000
    C383     C        0.76570    0.93036    0.85552    1.000
    C384     C        0.74732    0.97662    0.82840    1.000
    C385     C        0.70091    0.00279    0.84569    1.000
    C386     C        0.76020    0.86232    0.92652    1.000
    C387     C        0.80918    0.85286    0.89038    1.000
    C388     C        0.81221    0.89257    0.84845    1.000
    C389     C        0.75810    0.86238    0.97190    1.000
    C390     C        0.78204    0.89476    0.96262    1.000
    C391     C        0.73508    0.83004    0.93694    1.000
    C392     C        0.73578    0.82856    0.89402    1.000
    C393     C        0.46037    0.01277    0.62105    1.000
    C394     C        0.45492    0.98446    0.67122    1.000
    C395     C        0.45551    0.93839    0.68855    1.000
    C396     C        0.45184    0.91186    0.73586    1.000
    C397     C        0.44842    0.93036    0.76570    1.000
    C398     C        0.44766    0.97662    0.74732    1.000
    C399     C        0.45061    0.00279    0.70091    1.000
    C400     C        0.45096    0.86232    0.76020    1.000
    C401     C        0.44758    0.85286    0.80918    1.000
    C402     C        0.44677    0.89257    0.81221    1.000
    C403     C        0.40762    0.86238    0.75810    1.000
    C404     C        0.36058    0.89476    0.78204    1.000
    C405     C        0.49794    0.83004    0.73508    1.000
    C406     C        0.54164    0.82856    0.73578    1.000
    C407     C        0.90581    0.62105    0.01277    1.000
    C408     C        0.88940    0.67122    0.98446    1.000
    C409     C        0.91755    0.68855    0.93839    1.000
    C410     C        0.90044    0.73586    0.91186    1.000
    C411     C        0.85552    0.76570    0.93036    1.000
    C412     C        0.82840    0.74732    0.97662    1.000
    C413     C        0.84569    0.70091    0.00279    1.000
    C414     C        0.92652    0.76020    0.86232    1.000
    C415     C        0.89038    0.80918    0.85286    1.000
    C416     C        0.84845    0.81221    0.89257    1.000
    C417     C        0.97190    0.75810    0.86238    1.000
    C418     C        0.96262    0.78204    0.89476    1.000
    C419     C        0.93694    0.73508    0.83004    1.000
    C420     C        0.89402    0.73578    0.82856    1.000
    C421     C        0.01277    0.46037    0.90581    1.000
    C422     C        0.98446    0.45492    0.88940    1.000
    C423     C        0.93839    0.45551    0.91755    1.000
    C424     C        0.91186    0.45184    0.90044    1.000
    C425     C        0.93036    0.44842    0.85552    1.000
    C426     C        0.97662    0.44766    0.82840    1.000
    C427     C        0.00279    0.45061    0.84569    1.000
    C428     C        0.86232    0.45096    0.92652    1.000
    C429     C        0.85286    0.44758    0.89038    1.000
    C430     C        0.89257    0.44677    0.84845    1.000
    C431     C        0.86238    0.40762    0.97190    1.000
    C432     C        0.89476    0.36058    0.96262    1.000
    C433     C        0.83004    0.49794    0.93694    1.000
    C434     C        0.82856    0.54164    0.89402    1.000
    C435     C        0.62105    0.90581    0.46037    1.000
    C436     C        0.67122    0.88940    0.45492    1.000
    C437     C        0.68855    0.91755    0.45551    1.000
    C438     C        0.73586    0.90044    0.45184    1.000
    C439     C        0.76570    0.85552    0.44842    1.000
    C440     C        0.74732    0.82840    0.44766    1.000
    C441     C        0.70091    0.84569    0.45061    1.000
    C442     C        0.76020    0.92652    0.45096    1.000
    C443     C        0.80918    0.89038    0.44758    1.000
    C444     C        0.81221    0.84845    0.44677    1.000
    C445     C        0.75810    0.97190    0.40762    1.000
    C446     C        0.78204    0.96262    0.36058    1.000
    C447     C        0.73508    0.93694    0.49794    1.000
    C448     C        0.73578    0.89402    0.54164    1.000
    C449     C        0.46037    0.62105    0.90581    1.000
    C450     C        0.45492    0.67122    0.88940    1.000
    C451     C        0.45551    0.68855    0.91755    1.000
    C452     C        0.45184    0.73586    0.90044    1.000
    C453     C        0.44842    0.76570    0.85552    1.000
    C454     C        0.44766    0.74732    0.82840    1.000
    C455     C        0.45061    0.70091    0.84569    1.000
    C456     C        0.45096    0.76020    0.92652    1.000
    C457     C        0.44758    0.80918    0.89038    1.000
    C458     C        0.44677    0.81221    0.84845    1.000
    C459     C        0.40762    0.75810    0.97190    1.000
    C460     C        0.36058    0.78204    0.96262    1.000
    C461     C        0.49794    0.73508    0.93694    1.000
    C462     C        0.54164    0.73578    0.89402    1.000
    C463     C        0.90581    0.01277    0.46037    1.000
    C464     C        0.88940    0.98446    0.45492    1.000
    C465     C        0.91755    0.93839    0.45551    1.000
    C466     C        0.90044    0.91186    0.45184    1.000
    C467     C        0.85552    0.93036    0.44842    1.000
    C468     C        0.82840    0.97662    0.44766    1.000
    C469     C        0.84569    0.00279    0.45061    1.000
    C470     C        0.92652    0.86232    0.45096    1.000
    C471     C        0.89038    0.85286    0.44758    1.000
    C472     C        0.84845    0.89257    0.44677    1.000
    C473     C        0.97190    0.86238    0.40762    1.000
    C474     C        0.96262    0.89476    0.36058    1.000
    C475     C        0.93694    0.83004    0.49794    1.000
    C476     C        0.89402    0.82856    0.54164    1.000
    C477     C        0.01277    0.90581    0.62105    1.000
    C478     C        0.98446    0.88940    0.67122    1.000
    C479     C        0.93839    0.91755    0.68855    1.000
    C480     C        0.91186    0.90044    0.73586    1.000
    C481     C        0.93036    0.85552    0.76570    1.000
    C482     C        0.97662    0.82840    0.74732    1.000
    C483     C        0.00279    0.84569    0.70091    1.000
    C484     C        0.86232    0.92652    0.76020    1.000
    C485     C        0.85286    0.89038    0.80918    1.000
    C486     C        0.89257    0.84845    0.81221    1.000
    C487     C        0.86238    0.97190    0.75810    1.000
    C488     C        0.89476    0.96262    0.78204    1.000
    C489     C        0.83004    0.93694    0.73508    1.000
    C490     C        0.82856    0.89402    0.73578    1.000
    C491     C        0.62105    0.46037    0.01277    1.000
    C492     C        0.67122    0.45492    0.98446    1.000
    C493     C        0.68855    0.45551    0.93839    1.000
    C494     C        0.73586    0.45184    0.91186    1.000
    C495     C        0.76570    0.44842    0.93036    1.000
    C496     C        0.74732    0.44766    0.97662    1.000
    C497     C        0.70091    0.45061    0.00279    1.000
    C498     C        0.76020    0.45096    0.86232    1.000
    C499     C        0.80918    0.44758    0.85286    1.000
    C500     C        0.81221    0.44677    0.89257    1.000
    C501     C        0.75810    0.40762    0.86238    1.000
    C502     C        0.78204    0.36058    0.89476    1.000
    C503     C        0.73508    0.49794    0.83004    1.000
    C504     C        0.73578    0.54164    0.82856    1.000
    C505     C        0.59419    0.03963    0.48723    1.000
    C506     C        0.61060    0.04508    0.51554    1.000
    C507     C        0.58245    0.04449    0.56161    1.000
    C508     C        0.59956    0.04816    0.58814    1.000
    C509     C        0.64448    0.05158    0.56964    1.000
    C510     C        0.67160    0.05234    0.52338    1.000
    C511     C        0.65431    0.04939    0.49721    1.000
    C512     C        0.57348    0.04904    0.63768    1.000
    C513     C        0.60962    0.05242    0.64714    1.000
    C514     C        0.65155    0.05323    0.60743    1.000
    C515     C        0.52810    0.09238    0.63762    1.000
    C516     C        0.53738    0.13942    0.60524    1.000
    C517     C        0.56306    0.00206    0.66996    1.000
    C518     C        0.60598    0.95836    0.67144    1.000
    C519     C        0.03963    0.59419    0.87895    1.000
    C520     C        0.04508    0.61060    0.82878    1.000
    C521     C        0.04449    0.58245    0.81145    1.000
    C522     C        0.04816    0.59956    0.76414    1.000
    C523     C        0.05158    0.64448    0.73430    1.000
    C524     C        0.05234    0.67160    0.75268    1.000
    C525     C        0.04939    0.65431    0.79909    1.000
    C526     C        0.04904    0.57348    0.73980    1.000
    C527     C        0.05242    0.60962    0.69082    1.000
    C528     C        0.05323    0.65155    0.68779    1.000
    C529     C        0.09238    0.52810    0.74190    1.000
    C530     C        0.13942    0.53738    0.71796    1.000
    C531     C        0.00206    0.56306    0.76492    1.000
    C532     C        0.95836    0.60598    0.76422    1.000
    C533     C        0.87895    0.48723    0.03963    1.000
    C534     C        0.82878    0.51554    0.04508    1.000
    C535     C        0.81145    0.56161    0.04449    1.000
    C536     C        0.76414    0.58814    0.04816    1.000
    C537     C        0.73430    0.56964    0.05158    1.000
    C538     C        0.75268    0.52338    0.05234    1.000
    C539     C        0.79909    0.49721    0.04939    1.000
    C540     C        0.73980    0.63768    0.04904    1.000
    C541     C        0.69082    0.64714    0.05242    1.000
    C542     C        0.68779    0.60743    0.05323    1.000
    C543     C        0.74190    0.63762    0.09238    1.000
    C544     C        0.71796    0.60524    0.13942    1.000
    C545     C        0.76492    0.66996    0.00206    1.000
    C546     C        0.76422    0.67144    0.95836    1.000
    C547     C        0.48723    0.87895    0.59419    1.000
    C548     C        0.51554    0.82878    0.61060    1.000
    C549     C        0.56161    0.81145    0.58245    1.000
    C550     C        0.58814    0.76414    0.59956    1.000
    C551     C        0.56964    0.73430    0.64448    1.000
    C552     C        0.52338    0.75268    0.67160    1.000
    C553     C        0.49721    0.79909    0.65431    1.000
    C554     C        0.63768    0.73980    0.57348    1.000
    C555     C        0.64714    0.69082    0.60962    1.000
    C556     C        0.60743    0.68779    0.65155    1.000
    C557     C        0.63762    0.74190    0.52810    1.000
    C558     C        0.60524    0.71796    0.53738    1.000
    C559     C        0.66996    0.76492    0.56306    1.000
    C560     C        0.67144    0.76422    0.60598    1.000
    C561     C        0.48723    0.03963    0.87895    1.000
    C562     C        0.51554    0.04508    0.82878    1.000
    C563     C        0.56161    0.04449    0.81145    1.000
    C564     C        0.58814    0.04816    0.76414    1.000
    C565     C        0.56964    0.05158    0.73430    1.000
    C566     C        0.52338    0.05234    0.75268    1.000
    C567     C        0.49721    0.04939    0.79909    1.000
    C568     C        0.63768    0.04904    0.73980    1.000
    C569     C        0.64714    0.05242    0.69082    1.000
    C570     C        0.60743    0.05323    0.68779    1.000
    C571     C        0.63762    0.09238    0.74190    1.000
    C572     C        0.60524    0.13942    0.71796    1.000
    C573     C        0.66996    0.00206    0.76492    1.000
    C574     C        0.67144    0.95836    0.76422    1.000
    C575     C        0.87895    0.59419    0.48723    1.000
    C576     C        0.82878    0.61060    0.51554    1.000
    C577     C        0.81145    0.58245    0.56161    1.000
    C578     C        0.76414    0.59956    0.58814    1.000
    C579     C        0.73430    0.64448    0.56964    1.000
    C580     C        0.75268    0.67160    0.52338    1.000
    C581     C        0.79909    0.65431    0.49721    1.000
    C582     C        0.73980    0.57348    0.63768    1.000
    C583     C        0.69082    0.60962    0.64714    1.000
    C584     C        0.68779    0.65155    0.60743    1.000
    C585     C        0.74190    0.52810    0.63762    1.000
    C586     C        0.71796    0.53738    0.60524    1.000
    C587     C        0.76492    0.56306    0.66996    1.000
    C588     C        0.76422    0.60598    0.67144    1.000
    C589     C        0.03963    0.48723    0.59419    1.000
    C590     C        0.04508    0.51554    0.61060    1.000
    C591     C        0.04449    0.56161    0.58245    1.000
    C592     C        0.04816    0.58814    0.59956    1.000
    C593     C        0.05158    0.56964    0.64448    1.000
    C594     C        0.05234    0.52338    0.67160    1.000
    C595     C        0.04939    0.49721    0.65431    1.000
    C596     C        0.04904    0.63768    0.57348    1.000
    C597     C        0.05242    0.64714    0.60962    1.000
    C598     C        0.05323    0.60743    0.65155    1.000
    C599     C        0.09238    0.63762    0.52810    1.000
    C600     C        0.13942    0.60524    0.53738    1.000
    C601     C        0.00206    0.66996    0.56306    1.000
    C602     C        0.95836    0.67144    0.60598    1.000
    C603     C        0.59419    0.87895    0.03963    1.000
    C604     C        0.61060    0.82878    0.04508    1.000
    C605     C        0.58245    0.81145    0.04449    1.000
    C606     C        0.59956    0.76414    0.04816    1.000
    C607     C        0.64448    0.73430    0.05158    1.000
    C608     C        0.67160    0.75268    0.05234    1.000
    C609     C        0.65431    0.79909    0.04939    1.000
    C610     C        0.57348    0.73980    0.04904    1.000
    C611     C        0.60962    0.69082    0.05242    1.000
    C612     C        0.65155    0.68779    0.05323    1.000
    C613     C        0.52810    0.74190    0.09238    1.000
    C614     C        0.53738    0.71796    0.13942    1.000
    C615     C        0.56306    0.76492    0.00206    1.000
    C616     C        0.60598    0.76422    0.95836    1.000
    C617     C        0.87895    0.03963    0.59419    1.000
    C618     C        0.82878    0.04508    0.61060    1.000
    C619     C        0.81145    0.04449    0.58245    1.000
    C620     C        0.76414    0.04816    0.59956    1.000
    C621     C        0.73430    0.05158    0.64448    1.000
    C622     C        0.75268    0.05234    0.67160    1.000
    C623     C        0.79909    0.04939    0.65431    1.000
    C624     C        0.73980    0.04904    0.57348    1.000
    C625     C        0.69082    0.05242    0.60962    1.000
    C626     C        0.68779    0.05323    0.65155    1.000
    C627     C        0.74190    0.09238    0.52810    1.000
    C628     C        0.71796    0.13942    0.53738    1.000
    C629     C        0.76492    0.00206    0.56306    1.000
    C630     C        0.76422    0.95836    0.60598    1.000
    C631     C        0.48723    0.59419    0.03963    1.000
    C632     C        0.51554    0.61060    0.04508    1.000
    C633     C        0.56161    0.58245    0.04449    1.000
    C634     C        0.58814    0.59956    0.04816    1.000
    C635     C        0.56964    0.64448    0.05158    1.000
    C636     C        0.52338    0.67160    0.05234    1.000
    C637     C        0.49721    0.65431    0.04939    1.000
    C638     C        0.63768    0.57348    0.04904    1.000
    C639     C        0.64714    0.60962    0.05242    1.000
    C640     C        0.60743    0.65155    0.05323    1.000
    C641     C        0.63762    0.52810    0.09238    1.000
    C642     C        0.60524    0.53738    0.13942    1.000
    C643     C        0.66996    0.56306    0.00206    1.000
    C644     C        0.67144    0.60598    0.95836    1.000
    C645     C        0.59419    0.48723    0.87895    1.000
    C646     C        0.61060    0.51554    0.82878    1.000
    C647     C        0.58245    0.56161    0.81145    1.000
    C648     C        0.59956    0.58814    0.76414    1.000
    C649     C        0.64448    0.56964    0.73430    1.000
    C650     C        0.67160    0.52338    0.75268    1.000
    C651     C        0.65431    0.49721    0.79909    1.000
    C652     C        0.57348    0.63768    0.73980    1.000
    C653     C        0.60962    0.64714    0.69082    1.000
    C654     C        0.65155    0.60743    0.68779    1.000
    C655     C        0.52810    0.63762    0.74190    1.000
    C656     C        0.53738    0.60524    0.71796    1.000
    C657     C        0.56306    0.66996    0.76492    1.000
    C658     C        0.60598    0.67144    0.76422    1.000
    C659     C        0.03963    0.87895    0.48723    1.000
    C660     C        0.04508    0.82878    0.51554    1.000
    C661     C        0.04449    0.81145    0.56161    1.000
    C662     C        0.04816    0.76414    0.58814    1.000
    C663     C        0.05158    0.73430    0.56964    1.000
    C664     C        0.05234    0.75268    0.52338    1.000
    C665     C        0.04939    0.79909    0.49721    1.000
    C666     C        0.04904    0.73980    0.63768    1.000
    C667     C        0.05242    0.69082    0.64714    1.000
    C668     C        0.05323    0.68779    0.60743    1.000
    C669     C        0.09238    0.74190    0.63762    1.000
    C670     C        0.13942    0.71796    0.60524    1.000
    C671     C        0.00206    0.76492    0.66996    1.000
    C672     C        0.95836    0.76422    0.67144    1.000
    O1       O        0.53444    0.05306    0.00670    1.000
    O2       O        0.53558    0.11916    0.94852    1.000
    O3       O        0.05306    0.53444    0.40580    1.000
    O4       O        0.11916    0.53558    0.39674    1.000
    O5       O        0.00670    0.40580    0.53444    1.000
    O6       O        0.94852    0.39674    0.53558    1.000
    O7       O        0.40580    0.00670    0.05306    1.000
    O8       O        0.39674    0.94852    0.11916    1.000
    O9       O        0.53444    0.00670    0.40580    1.000
    O10      O        0.53558    0.94852    0.39674    1.000
    O11      O        0.05306    0.40580    0.00670    1.000
    O12      O        0.11916    0.39674    0.94852    1.000
    O13      O        0.00670    0.53444    0.05306    1.000
    O14      O        0.94852    0.53558    0.11916    1.000
    O15      O        0.40580    0.05306    0.53444    1.000
    O16      O        0.39674    0.11916    0.53558    1.000
    O17      O        0.53444    0.40580    0.05306    1.000
    O18      O        0.53558    0.39674    0.11916    1.000
    O19      O        0.05306    0.00670    0.53444    1.000
    O20      O        0.11916    0.94852    0.53558    1.000
    O21      O        0.00670    0.05306    0.40580    1.000
    O22      O        0.94852    0.11916    0.39674    1.000
    O23      O        0.40580    0.53444    0.00670    1.000
    O24      O        0.39674    0.53558    0.94852    1.000
    O25      O        0.44694    0.96556    0.49330    1.000
    O26      O        0.38084    0.96442    0.55148    1.000
    O27      O        0.96556    0.44694    0.09420    1.000
    O28      O        0.96442    0.38084    0.10326    1.000
    O29      O        0.09420    0.49330    0.96556    1.000
    O30      O        0.10326    0.55148    0.96442    1.000
    O31      O        0.49330    0.09420    0.44694    1.000
    O32      O        0.55148    0.10326    0.38084    1.000
    O33      O        0.49330    0.96556    0.09420    1.000
    O34      O        0.55148    0.96442    0.10326    1.000
    O35      O        0.09420    0.44694    0.49330    1.000
    O36      O        0.10326    0.38084    0.55148    1.000
    O37      O        0.96556    0.49330    0.44694    1.000
    O38      O        0.96442    0.55148    0.38084    1.000
    O39      O        0.44694    0.09420    0.96556    1.000
    O40      O        0.38084    0.10326    0.96442    1.000
    O41      O        0.09420    0.96556    0.44694    1.000
    O42      O        0.10326    0.96442    0.38084    1.000
    O43      O        0.49330    0.44694    0.96556    1.000
    O44      O        0.55148    0.38084    0.96442    1.000
    O45      O        0.44694    0.49330    0.09420    1.000
    O46      O        0.38084    0.55148    0.10326    1.000
    O47      O        0.96556    0.09420    0.49330    1.000
    O48      O        0.96442    0.10326    0.55148    1.000
    O49      O        0.46556    0.94694    0.99330    1.000
    O50      O        0.46442    0.88084    0.05148    1.000
    O51      O        0.94694    0.46556    0.59420    1.000
    O52      O        0.88084    0.46442    0.60326    1.000
    O53      O        0.99330    0.59420    0.46556    1.000
    O54      O        0.05148    0.60326    0.46442    1.000
    O55      O        0.59420    0.99330    0.94694    1.000
    O56      O        0.60326    0.05148    0.88084    1.000
    O57      O        0.46556    0.99330    0.59420    1.000
    O58      O        0.46442    0.05148    0.60326    1.000
    O59      O        0.94694    0.59420    0.99330    1.000
    O60      O        0.88084    0.60326    0.05148    1.000
    O61      O        0.99330    0.46556    0.94694    1.000
    O62      O        0.05148    0.46442    0.88084    1.000
    O63      O        0.59420    0.94694    0.46556    1.000
    O64      O        0.60326    0.88084    0.46442    1.000
    O65      O        0.46556    0.59420    0.94694    1.000
    O66      O        0.46442    0.60326    0.88084    1.000
    O67      O        0.94694    0.99330    0.46556    1.000
    O68      O        0.88084    0.05148    0.46442    1.000
    O69      O        0.99330    0.94694    0.59420    1.000
    O70      O        0.05148    0.88084    0.60326    1.000
    O71      O        0.59420    0.46556    0.99330    1.000
    O72      O        0.60326    0.46442    0.05148    1.000
    O73      O        0.55306    0.03444    0.50670    1.000
    O74      O        0.61916    0.03558    0.44852    1.000
    O75      O        0.03444    0.55306    0.90580    1.000
    O76      O        0.03558    0.61916    0.89674    1.000
    O77      O        0.90580    0.50670    0.03444    1.000
    O78      O        0.89674    0.44852    0.03558    1.000
    O79      O        0.50670    0.90580    0.55306    1.000
    O80      O        0.44852    0.89674    0.61916    1.000
    O81      O        0.50670    0.03444    0.90580    1.000
    O82      O        0.44852    0.03558    0.89674    1.000
    O83      O        0.90580    0.55306    0.50670    1.000
    O84      O        0.89674    0.61916    0.44852    1.000
    O85      O        0.03444    0.50670    0.55306    1.000
    O86      O        0.03558    0.44852    0.61916    1.000
    O87      O        0.55306    0.90580    0.03444    1.000
    O88      O        0.61916    0.89674    0.03558    1.000
    O89      O        0.90580    0.03444    0.55306    1.000
    O90      O        0.89674    0.03558    0.61916    1.000
    O91      O        0.50670    0.55306    0.03444    1.000
    O92      O        0.44852    0.61916    0.03558    1.000
    O93      O        0.55306    0.50670    0.90580    1.000
    O94      O        0.61916    0.44852    0.89674    1.000
    O95      O        0.03444    0.90580    0.50670    1.000
    O96      O        0.03558    0.89674    0.44852    1.000
    O97      O        0.50000    0.00000    0.00000    1.000
    O98      O        0.00000    0.50000    0.50000    1.000
    O99      O        0.50000    0.00000    0.50000    1.000
    O100     O        0.00000    0.50000    0.00000    1.000
    O101     O        0.50000    0.50000    0.00000    1.000
    O102     O        0.00000    0.00000    0.50000    1.000
