data_functionalizedCrystal
_audit_creation_method	'EQeq! by Chris Wilmer'
_symmetry_space_group_name_H-M	'P1'
_symmetry_Int_Tables_number	1
_symmetry_cell_setting	triclinic
loop_
_symmetry_equiv_pos_as_xyz
  x,y,z
_cell_length_a	14.1227
_cell_length_b	18.7391
_cell_length_c	18.7391
_cell_angle_alpha	66.0878
_cell_angle_beta	75.4506
_cell_angle_gamma	104.549
loop_
_atom_site_label
_atom_site_type_symbol
_atom_site_fract_x
_atom_site_fract_y
_atom_site_fract_z
_atom_site_charge
Mof_In	In	0.16726	0.48778	0.43389	1.797
Mof_In	In	0.17948	0.51222	0.92167	1.815
Mof_In	In	0.60115	0.43389	0.07833	1.773
Mof_In	In	0.10115	0.92167	0.56611	1.814
Mof_In	In	0.67948	0.07833	0.48778	1.77
Mof_In	In	0.66726	0.56611	0.51222	1.799
Mof_H 	H 	0.3988	0.5878	0.0747	-0.028
Mof_H 	H 	0.4254	0.0088	0.5525	-0.051
Mof_H 	H 	0.6354	0.247	0.6419	0.071
Mof_H 	H 	0.8988	0.9253	0.4122	-0.016
Mof_H 	H 	0.6562	0.8484	0.3173	0.073
Mof_H 	H 	0.1354	0.3581	0.753	0.071
Mof_H 	H 	0.8838	0.2353	0.4445	-0.058
Mof_H 	H 	0.7104	0.9089	0.7919	0.022
Mof_H 	H 	0.3283	0.4445	0.3202	-0.057
Mof_H 	H 	0.2773	0.6419	0.1111	0.066
Mof_H 	H 	0.4735	0.0747	0.3375	-0.03
Mof_H 	H 	0.2104	0.2081	0.0911	-0.003
Mof_H 	H 	0.3838	0.5555	0.7647	-0.053
Mof_H 	H 	0.4779	0.5613	0.4475	-0.05
Mof_H 	H 	0.6485	0.3202	0.2353	-0.058
Mof_H 	H 	0.3078	0.1516	0.1657	0.059
Mof_H 	H 	0.7773	0.8889	0.3581	0.073
Mof_H 	H 	0.311	0.4122	0.6625	-0.022
Mof_H 	H 	0.1562	0.6827	0.1516	0.069
Mof_H 	H 	0.9735	0.3173	0.8343	0.064
Mof_H 	H 	0.9166	0.9912	0.5613	-0.033
Mof_H 	H 	0.9254	0.4475	0.9912	-0.033
Mof_H 	H 	0.811	0.3375	0.5878	-0.022
Mof_H 	H 	0.8884	0.753	0.8889	0.076
Mof_H 	H 	0.8015	0.2992	0.9089	0.014
Mof_H 	H 	0.8078	0.8343	0.8484	0.071
Mof_H 	H 	0.8283	0.6798	0.5555	-0.054
Mof_H 	H 	0.5023	0.7919	0.2992	0.001
Mof_H 	H 	0.0023	0.7008	0.2081	-0.005
Mof_H 	H 	0.4166	0.4387	0.0088	-0.051
Mof_H 	H 	0.9735	0.6625	0.9253	-0.013
Mof_H 	H 	0.4735	0.1657	0.6827	0.066
Mof_H 	H 	0.9779	0.5525	0.4387	-0.055
Mof_H 	H 	0.1485	0.7647	0.6798	-0.053
Mof_H 	H 	0.3884	0.1111	0.247	0.064
Mof_H 	H 	0.3015	0.0911	0.7008	0.003
Mof_C 	C 	0.7381	0.369	-0	0.405
Mof_C 	C 	0.7328	0.763	0.426	0.086
Mof_C 	C 	0.124	0.644	0.8231	0.43
Mof_C 	C 	0.2328	0.574	0.237	0.085
Mof_C 	C 	0.3691	0.631	0.369	0.446
Mof_C 	C 	0.2381	0	0.631	0.352
Mof_C 	C 	0.89268	0.95817	0.62013	0.13
Mof_C 	C 	0.6873	0.2455	0.6011	-0.181
Mof_C 	C 	0.069	0.703	0.8056	-0.205
Mof_C 	C 	0.1588	0.426	0.811	0.089
Mof_C 	C 	0.8604	0.3341	0.9099	0.069
Mof_C 	C 	0.48	0.5329	0.644	0.431
Mof_C 	C 	0.4917	0.1315	0.2995	0.119
Mof_C 	C 	0.4698	0.237	0.189	0.087
Mof_C 	C 	0.8467	0.3742	0.9557	-0.158
Mof_C 	C 	0.3602	0.569	0.1315	0.119
Mof_C 	C 	0.1873	0.3989	0.7545	-0.18
Mof_C 	C 	0.2381	0.369	-0	0.351
Mof_C 	C 	0.14765	0.60025	0.2658	0.072
Mof_C 	C 	0.4418	0.1534	0.2455	-0.185
Mof_C 	C 	0.0953	0.762	0.723	0.15
Mof_C 	C 	0.91345	0.86605	0.7342	0.065
Mof_C 	C 	0.41345	0.2658	0.13395	0.061
Mof_C 	C 	0.2884	0.6011	0.1534	-0.181
Mof_C 	C 	0.5263	0.756	0.3341	0.097
Mof_C 	C 	0.7884	0.8466	0.3989	-0.176
Mof_C 	C 	0.8024	0.9557	0.6701	-0.154
Mof_C 	C 	0.8274	0.8646	0.7899	-0.134
Mof_C 	C 	0.9698	0.811	0.763	0.088
Mof_C 	C 	0.7703	0.9099	0.756	0.069
Mof_C 	C 	0.366	0.4914	0.703	-0.212
Mof_C 	C 	0.866	0.297	0.5086	-0.213
Mof_C 	C 	0.01281	0.5783	0.37987	0.162
Mof_C 	C 	0.0474	0.39975	0.86605	0.066
Mof_C 	C 	0.4628	0.1354	0.6545	-0.143
Mof_C 	C 	0.7381	0	0.631	0.403
Mof_C 	C 	0.7912	0.2995	0.569	0.118
Mof_C 	C 	0.3333	0.515	0.762	0.151
Mof_C 	C 	0.3467	0.0443	0.6258	-0.178
Mof_C 	C 	0.8183	0.723	0.515	0.149
Mof_C 	C 	0.0263	0.6659	0.244	0.104
Mof_C 	C 	0.4471	0.4671	0.1769	0.431
Mof_C 	C 	0.98	0.356	0.4671	0.423
Mof_C 	C 	0.569	0.1944	0.297	-0.218
Mof_C 	C 	0.39268	0.37987	0.04183	0.13
Mof_C 	C 	0.1173	0.6545	0.2101	-0.161
Mof_C 	C 	0.8691	0.631	0.369	0.449
Mof_C 	C 	0.4725	0.6701	0.3742	-0.207
Mof_C 	C 	0.5474	0.13395	0.60025	0.063
Mof_C 	C 	0.3746	0.5086	0.1944	-0.216
Mof_C 	C 	0.9917	0.7005	0.8685	0.115
Mof_C 	C 	0.6173	0.7899	0.3455	-0.155
Mof_C 	C 	0.64765	0.7342	0.39975	0.071
Mof_C 	C 	0.9471	0.8231	0.5329	0.428
Mof_C 	C 	0.2703	0.244	0.0901	0.07
Mof_C 	C 	0.6588	0.189	0.574	0.088
Mof_C 	C 	0.3604	0.0901	0.6659	0.072
Mof_C 	C 	0.9725	0.6258	0.3299	-0.218
Mof_C 	C 	0.624	0.1769	0.356	0.43
Mof_C 	C 	0.9418	0.7545	0.8466	-0.174
Mof_C 	C 	0.8746	0.8056	0.4914	-0.209
Mof_C 	C 	0.3024	0.3299	0.0443	-0.18
Mof_C 	C 	0.8602	0.8685	0.431	0.118
Mof_C 	C 	0.43451	0.04183	0.5783	0.131
Mof_C 	C 	0.2912	0.431	0.7005	0.12
Mof_C 	C 	0.93451	0.4217	0.95817	0.127
Mof_C 	C 	0.3183	0.485	0.277	0.15
Mof_C 	C 	0.51281	0.62013	0.4217	0.151
Mof_C 	C 	0.9628	0.3455	0.8646	-0.141
Mof_C 	C 	0.8333	0.238	0.485	0.148
Mof_C 	C 	0.3274	0.2101	0.1354	-0.145
Mof_C 	C 	0.5953	0.277	0.238	0.149
Mof_N 	N 	0.03241	0.43317	0.91594	-0.297
Mof_N 	N 	0.53241	0.08406	0.56683	-0.298
Mof_N 	N 	0.54728	0.29789	0.18425	-0.3
Mof_N 	N 	0.04728	0.81575	0.70211	-0.299
Mof_N 	N 	0.74939	0.70211	0.48214	-0.3
Mof_N 	N 	0.44835	0.34911	0.08406	-0.298
Mof_N 	N 	0.09924	0.56683	0.34911	-0.305
Mof_N 	N 	0.94835	0.91594	0.65089	-0.298
Mof_N 	N 	0.73153	0.18425	0.51786	-0.299
Mof_N 	N 	0.59924	0.65089	0.43317	-0.304
Mof_N 	N 	0.24939	0.51786	0.29789	-0.301
Mof_N 	N 	0.23153	0.48214	0.81575	-0.301
Mof_O 	O 	0.0395	0.3639	0.4033	-0.396
Mof_O 	O 	0.1592	0.9972	0.6777	-0.314
Mof_O 	O 	0.01055	0.90045	0.4979	-0.603
Mof_O 	O 	0.77015	0.02981	0.55206	-0.623
Mof_O 	O 	0.1101	0.60165	0.90045	-0.603
Mof_O 	O 	0.00845	0.39835	0.5021	-0.605
Mof_O 	O 	0.662	0.0028	0.6749	-0.367
Mof_O 	O 	0.162	0.3251	0.9972	-0.319
Mof_O 	O 	0.32221	0.55206	0.41813	-0.624
Mof_O 	O 	0.5395	0.5967	0.6361	-0.394
Mof_O 	O 	0.51055	0.5021	0.09955	-0.611
Mof_O 	O 	0.6101	0.09955	0.39835	-0.612
Mof_O 	O 	0.74034	0.41813	0.02981	-0.623
Mof_O 	O 	0.8369	0.6777	0.3251	-0.372
Mof_O 	O 	0.4428	0.4033	0.2328	-0.399
Mof_O 	O 	0.27015	0.44794	0.97019	-0.576
Mof_O 	O 	0.9428	0.7672	0.5967	-0.396
Mof_O 	O 	0.6756	0.2328	0.3639	-0.399
Mof_O 	O 	0.1756	0.6361	0.7672	-0.394
Mof_O 	O 	0.24034	0.97019	0.58187	-0.575
Mof_O 	O 	0.3369	0.6749	0.3223	-0.369
Mof_O 	O 	0.82221	0.58187	0.44794	-0.625
Mof_O 	O 	0.50845	0.4979	0.60165	-0.608
Mof_O 	O 	0.6592	0.3223	0.0028	-0.373
_end
