data_functionalizedCrystal
_audit_creation_method	'EQeq! by Chris Wilmer'
_symmetry_space_group_name_H-M	'P1'
_symmetry_Int_Tables_number	1
_symmetry_cell_setting	triclinic
loop_
_symmetry_equiv_pos_as_xyz
  x,y,z
_cell_length_a	8.3365
_cell_length_b	10.453
_cell_length_c	19.03
_cell_angle_alpha	90
_cell_angle_beta	90
_cell_angle_gamma	90
loop_
_atom_site_label
_atom_site_type_symbol
_atom_site_fract_x
_atom_site_fract_y
_atom_site_fract_z
_atom_site_charge
Mof_Cu	Cu	0.76054	0.10503	0.62338	0.898
Mof_O 	O 	0.0648	0.3766	0.83488	-0.316
Mof_O 	O 	0.2102	0.5278	0.78331	-0.397
Mof_O 	O 	0.3228	0.4977	0.5253	-0.312
Mof_O 	O 	0.2342	0.3222	0.47057	-0.397
Mof_N 	N 	0.9587	0.2178	0.63928	-0.219
Mof_N 	N 	0.57	0.9943	0.6043	-0.256
Mof_N 	N 	0.1791	0.755	0.5764	-0.373
Mof_H 	H 	0.195	0.6761	0.5657	0.19
Mof_H 	H 	0.083	0.783	0.5822	0.193
Mof_C 	C 	0.2489	0.3962	0.5239	0.342
Mof_C 	C 	0.0476	0.2565	0.584	0.078
Mof_H 	H 	0.0301	0.218	0.5406	0.017
Mof_C 	C 	0.1883	0.4086	0.6536	0.064
Mof_H 	H 	0.2624	0.4745	0.6582	0.03
Mof_C 	C 	0.1634	0.3505	0.5889	-0.131
Mof_C 	C 	0.9875	0.2721	0.7013	0.079
Mof_H 	H 	0.9284	0.245	0.74	0.013
Mof_C 	C 	0.1011	0.367	0.7112	-0.127
Mof_C 	C 	0.125	0.4263	0.7828	0.343
Mof_C 	C 	0.4204	0.0376	0.6086	0.175
Mof_H 	H 	0.4055	0.124	0.6183	-0.038
Mof_C 	C 	0.2874	0.9634	0.5999	-0.294
Mof_H 	H 	0.1859	0.9992	0.6045	0.143
Mof_C 	C 	0.3038	0.8343	0.5839	0.298
Mof_C 	C 	0.4595	0.7908	0.5747	-0.299
Mof_H 	H 	0.4775	0.7067	0.5608	0.15
Mof_C 	C 	0.587	0.8706	0.586	0.169
Mof_H 	H 	0.69	0.8379	0.5808	-0.026
Mof_Cu	Cu	0.73946	0.89497	0.12338	0.899
Mof_O 	O 	0.4352	0.6234	0.33488	-0.315
Mof_O 	O 	0.2898	0.4722	0.28331	-0.396
Mof_O 	O 	0.1772	0.5023	0.0253	-0.31
Mof_O 	O 	0.2658	0.6778	0.97057	-0.395
Mof_N 	N 	0.5413	0.7822	0.13928	-0.219
Mof_N 	N 	0.93	0.0057	0.1043	-0.257
Mof_N 	N 	0.3209	0.245	0.0764	-0.373
Mof_H 	H 	0.305	0.3239	0.0657	0.19
Mof_H 	H 	0.417	0.217	0.0822	0.193
Mof_C 	C 	0.2511	0.6038	0.0239	0.342
Mof_C 	C 	0.4524	0.7435	0.084	0.078
Mof_H 	H 	0.4699	0.782	0.0406	0.016
Mof_C 	C 	0.3117	0.5914	0.1536	0.064
Mof_H 	H 	0.2376	0.5255	0.1582	0.03
Mof_C 	C 	0.3366	0.6495	0.0889	-0.13
Mof_C 	C 	0.5125	0.7279	0.2013	0.079
Mof_H 	H 	0.5716	0.755	0.24	0.013
Mof_C 	C 	0.3989	0.633	0.2112	-0.128
Mof_C 	C 	0.375	0.5737	0.2828	0.343
Mof_C 	C 	0.0796	0.9624	0.1086	0.175
Mof_H 	H 	0.0945	0.876	0.1183	-0.038
Mof_C 	C 	0.2126	0.0366	0.0999	-0.294
Mof_H 	H 	0.3141	0.0008	0.1045	0.142
Mof_C 	C 	0.1962	0.1657	0.0839	0.298
Mof_C 	C 	0.0405	0.2092	0.0747	-0.298
Mof_H 	H 	0.0225	0.2933	0.0608	0.15
Mof_C 	C 	0.913	0.1294	0.086	0.169
Mof_H 	H 	0.81	0.1621	0.0808	-0.026
Mof_Cu	Cu	0.23946	0.60503	0.87662	0.899
Mof_O 	O 	0.9352	0.8766	0.66512	-0.316
Mof_O 	O 	0.7898	0.0278	0.71669	-0.397
Mof_O 	O 	0.6772	0.9977	0.9747	-0.31
Mof_O 	O 	0.7658	0.8222	0.02943	-0.396
Mof_N 	N 	0.0413	0.7178	0.86072	-0.219
Mof_N 	N 	0.43	0.4943	0.8957	-0.257
Mof_N 	N 	0.8209	0.255	0.9236	-0.373
Mof_H 	H 	0.805	0.1761	0.9343	0.19
Mof_H 	H 	0.917	0.283	0.9178	0.192
Mof_C 	C 	0.7511	0.8962	0.9761	0.343
Mof_C 	C 	0.9524	0.7565	0.916	0.078
Mof_H 	H 	0.9699	0.718	0.9594	0.017
Mof_C 	C 	0.8117	0.9086	0.8464	0.064
Mof_H 	H 	0.7376	0.9745	0.8418	0.03
Mof_C 	C 	0.8366	0.8505	0.9111	-0.131
Mof_C 	C 	0.0125	0.7721	0.7987	0.08
Mof_H 	H 	0.0716	0.745	0.76	0.013
Mof_C 	C 	0.8989	0.867	0.7888	-0.128
Mof_C 	C 	0.875	0.9263	0.7172	0.345
Mof_C 	C 	0.5796	0.5376	0.8914	0.177
Mof_H 	H 	0.5945	0.624	0.8817	-0.039
Mof_C 	C 	0.7126	0.4634	0.9001	-0.296
Mof_H 	H 	0.8141	0.4992	0.8955	0.143
Mof_C 	C 	0.6962	0.3343	0.9161	0.298
Mof_C 	C 	0.5405	0.2908	0.9253	-0.299
Mof_H 	H 	0.5225	0.2067	0.9392	0.149
Mof_C 	C 	0.413	0.3706	0.914	0.169
Mof_H 	H 	0.31	0.3379	0.9192	-0.026
Mof_Cu	Cu	0.26054	0.39497	0.37662	0.899
Mof_O 	O 	0.5648	0.1234	0.16512	-0.315
Mof_O 	O 	0.7102	0.9722	0.21669	-0.396
Mof_O 	O 	0.8228	0.0023	0.4747	-0.311
Mof_O 	O 	0.7342	0.1778	0.52943	-0.396
Mof_N 	N 	0.4587	0.2822	0.36072	-0.219
Mof_N 	N 	0.07	0.5057	0.3957	-0.257
Mof_N 	N 	0.6791	0.745	0.4236	-0.374
Mof_H 	H 	0.695	0.8239	0.4343	0.19
Mof_H 	H 	0.583	0.717	0.4178	0.193
Mof_C 	C 	0.7489	0.1038	0.4761	0.342
Mof_C 	C 	0.5476	0.2435	0.416	0.078
Mof_H 	H 	0.5301	0.282	0.4594	0.017
Mof_C 	C 	0.6883	0.0914	0.3464	0.064
Mof_H 	H 	0.7624	0.0255	0.3418	0.03
Mof_C 	C 	0.6634	0.1495	0.4111	-0.131
Mof_C 	C 	0.4875	0.2279	0.2987	0.079
Mof_H 	H 	0.4284	0.255	0.26	0.013
Mof_C 	C 	0.6011	0.133	0.2888	-0.128
Mof_C 	C 	0.625	0.0737	0.2172	0.344
Mof_C 	C 	0.9204	0.4624	0.3914	0.178
Mof_H 	H 	0.9055	0.376	0.3817	-0.039
Mof_C 	C 	0.7874	0.5366	0.4001	-0.296
Mof_H 	H 	0.6859	0.5008	0.3955	0.143
Mof_C 	C 	0.8038	0.6657	0.4161	0.299
Mof_C 	C 	0.9595	0.7092	0.4253	-0.299
Mof_H 	H 	0.9775	0.7933	0.4392	0.15
Mof_C 	C 	0.087	0.6294	0.414	0.169
Mof_H 	H 	0.19	0.6621	0.4192	-0.026
_end
