data_functionalizedCrystal
_audit_creation_method	'EQeq! by Chris Wilmer'
_symmetry_space_group_name_H-M	'P1'
_symmetry_Int_Tables_number	1
_symmetry_cell_setting	triclinic
loop_
_symmetry_equiv_pos_as_xyz
  x,y,z
_cell_length_a	40.537
_cell_length_b	10.192
_cell_length_c	18.2312
_cell_angle_alpha	90
_cell_angle_beta	95.188
_cell_angle_gamma	90
loop_
_atom_site_label
_atom_site_type_symbol
_atom_site_fract_x
_atom_site_fract_y
_atom_site_fract_z
_atom_site_charge
Mof_Cd	Cd	0.663	0.20986	0.72892	0.433
Mof_Cd	Cd	0.8375	0.36213	0.77079	0.446
Mof_Cd	Cd	0.75041	0.28616	0.74979	0.521
Mof_O 	O 	0.72815	0.3269	0.6365	-0.291
Mof_O 	O 	0.67413	0.3589	0.6429	-0.281
Mof_O 	O 	0.7147	0.6529	0.3001	-0.267
Mof_O 	O 	0.6631	0.7249	0.3226	-0.3
Mof_C 	C 	0.698	0.4551	0.5433	-0.064
Mof_C 	C 	0.7249	0.4548	0.4994	-0.017
Mof_H 	H 	0.7447	0.4086	0.5145	0.055
Mof_C 	C 	0.7217	0.5228	0.4346	-0.029
Mof_H 	H 	0.7397	0.5242	0.4047	0.062
Mof_C 	C 	0.6945	0.586	0.4123	-0.038
Mof_C 	C 	0.6678	0.5871	0.4595	-0.04
Mof_H 	H 	0.6483	0.636	0.4458	0.044
Mof_C 	C 	0.6706	0.5189	0.5227	-0.007
Mof_H 	H 	0.6526	0.5168	0.5527	0.041
Mof_C 	C 	0.7014	0.3713	0.6132	0.321
Mof_C 	C 	0.6898	0.6675	0.3399	0.293
Mof_O 	O 	0.66608	0.3435	0.8254	-0.3
Mof_O 	O 	0.71516	0.4185	0.8035	-0.292
Mof_O 	O 	0.67413	0.7227	0.1423	-0.288
Mof_O 	O 	0.72814	0.7422	0.1362	-0.271
Mof_C 	C 	0.6931	0.4811	0.912	-0.073
Mof_C 	C 	0.667	0.4865	0.9535	-0.011
Mof_H 	H 	0.6469	0.444	0.9367	0.042
Mof_C 	C 	0.6693	0.5524	0.0193	-0.024
Mof_H 	H 	0.651	0.5503	0.0485	0.051
Mof_C 	C 	0.6981	0.6234	0.0449	-0.066
Mof_C 	C 	0.7234	0.6147	0.0047	-0.014
Mof_H 	H 	0.7438	0.653	0.0233	0.058
Mof_C 	C 	0.722	0.553	0.9363	-0.017
Mof_H 	H 	0.74	0.5582	0.9067	0.058
Mof_C 	C 	0.6916	0.4132	0.8405	0.34
Mof_C 	C 	0.699	0.6984	0.1143	0.33
Mof_O 	O 	0.78651	0.4585	0.737	-0.305
Mof_O 	O 	0.81685	0.5653	0.823	-0.276
Mof_O 	O 	0.6835	0.0037	0.6771	-0.283
Mof_O 	O 	0.71313	0.1127	0.763	-0.283
Mof_C 	C 	0.7695	0.6782	0.7646	-0.045
Mof_C 	C 	0.7485	0.6756	0.703	-0.02
Mof_H 	H 	0.7466	0.6036	0.6698	0.06
Mof_C 	C 	0.7288	0.7979	0.6929	-0.025
Mof_H 	H 	0.7138	0.8028	0.6498	0.064
Mof_C 	C 	0.7297	0.9002	0.7369	-0.024
Mof_C 	C 	0.7539	0.8859	0.798	-0.022
Mof_H 	H 	0.7564	0.958	0.831	0.073
Mof_C 	C 	0.7729	0.7862	0.8135	-0.019
Mof_H 	H 	0.7883	0.7852	0.8559	0.057
Mof_C 	C 	0.7918	0.5557	0.7768	0.304
Mof_C 	C 	0.7071	0.0065	0.7236	0.259
Mof_Cu	Cu	0.48436	0.0827	0.5598	0.84
Mof_O 	O 	0.5217	0.1921	0.5501	-0.362
Mof_N 	N 	0.612	0.203	0.6703	0.021
Mof_N 	N 	0.5118	0.963	0.625	-0.239
Mof_C 	C 	0.5924	0.097	0.6728	0.084
Mof_H 	H 	0.6007	0.022	0.6991	-0.021
Mof_C 	C 	0.5597	0.0937	0.6374	-0.199
Mof_C 	C 	0.5496	0.199	0.5857	0.217
Mof_C 	C 	0.5741	0.3055	0.5792	-0.069
Mof_C 	C 	0.6025	0.3043	0.6247	-0.111
Mof_H 	H 	0.6166	0.3787	0.6247	0.074
Mof_C 	C 	0.5639	0.424	0.5342	-0.097
Mof_H 	H 	0.5732	0.5031	0.5591	0.052
Mof_H 	H 	0.5397	0.4305	0.5286	0.063
Mof_H 	H 	0.5722	0.417	0.4856	0.046
Mof_C 	C 	0.5401	0.9865	0.6509	0.138
Mof_H 	H 	0.5499	0.9232	0.6844	-0.01
Mof_C 	C 	0.4964	0.8384	0.6593	-0.084
Mof_H 	H 	0.5125	0.781	0.6889	0.044
Mof_C 	C 	0.4714	0.9106	0.7041	0.041
Mof_H 	H 	0.4711	0.8701	0.7534	0.011
Mof_H 	H 	0.4778	0.0039	0.7107	-0.041
Mof_C 	C 	0.4369	0.9005	0.6618	-0.258
Mof_H 	H 	0.422	0.846	0.6893	0.094
Mof_H 	H 	0.4269	0.9887	0.6541	0.098
Mof_C 	C 	0.4424	0.8365	0.5877	0.167
Mof_C 	C 	0.4119	0.7629	0.5676	-0.538
Mof_H 	H 	0.3932	0.8084	0.5867	0.189
Mof_H 	H 	0.4139	0.6746	0.5888	0.17
Mof_H 	H 	0.4082	0.7566	0.5138	0.181
Mof_C 	C 	0.4741	0.7697	0.6039	0.098
Mof_C 	C 	0.4699	0.6311	0.6357	-0.429
Mof_H 	H 	0.485	0.6201	0.6804	0.133
Mof_H 	H 	0.4749	0.5653	0.5991	0.136
Mof_H 	H 	0.447	0.6198	0.6477	0.131
Mof_C 	C 	0.4902	0.749	0.5313	-0.329
Mof_H 	H 	0.5086	0.8104	0.5288	0.103
Mof_H 	H 	0.4737	0.7637	0.4895	0.092
Mof_H 	H 	0.4986	0.6586	0.5295	0.104
Mof_Cu	Cu	0.99701	0.5522	0.0171	0.567
Mof_C 	C 	0.0063	0.773	0.2137	-0.504
Mof_C 	C 	0.9735	0.836	0.0928	-0.219
Mof_C 	C 	0.9662	0.966	0.1311	-0.093
Mof_H 	H 	0.9425	0.986	0.1227	0.058
Mof_H 	H 	0.979	0.0367	0.1109	0.013
Mof_H 	H 	0.9724	0.958	0.1841	0.044
Mof_C 	C 	0.9994	0.87	0.0388	0.651
Mof_H 	H 	0.9883	0.8803	0.9891	-0.359
Mof_H 	H 	0.0157	0.7986	0.0387	-0.107
Mof_H 	H 	0.0106	0.9515	0.0542	-0.099
Mof_O 	O 	0.9806	0.445	0.9371	-0.199
Mof_N 	N 	0.8906	0.399	0.8255	0.43
Mof_N 	N 	0.9548	0.6422	0.0163	-0.174
Mof_C 	C 	0.8951	0.478	0.8771	-0.609
Mof_H 	H 	0.8763	0.527	0.8892	0.24
Mof_C 	C 	0.9264	0.5052	0.9212	0.379
Mof_C 	C 	0.9517	0.416	0.9066	-0.239
Mof_C 	C 	0.9456	0.317	0.8587	0.303
Mof_C 	C 	0.9132	0.319	0.8187	-0.344
Mof_H 	H 	0.9087	0.2521	0.783	0.135
Mof_C 	C 	0.973	0.221	0.852	-0.634
Mof_H 	H 	0.964	0.1408	0.8274	0.187
Mof_H 	H 	0.9833	0.1985	0.9008	0.216
Mof_H 	H 	0.9895	0.2593	0.8223	0.203
Mof_C 	C 	0.9307	0.619	0.9633	-0.175
Mof_H 	H 	0.9148	0.6866	0.9532	0.091
Mof_C 	C 	0.9432	0.776	0.0477	0.083
Mof_H 	H 	0.9289	0.8354	0.0146	0.007
Mof_C 	C 	0.9277	0.703	0.1096	-0.106
Mof_H 	H 	0.9171	0.6209	0.0904	0.064
Mof_H 	H 	0.9106	0.7583	0.1299	0.061
Mof_C 	C 	0.9556	0.672	0.1697	-0.18
Mof_H 	H 	0.9569	0.5766	0.179	0.072
Mof_H 	H 	0.9516	0.7173	0.2162	0.075
Mof_C 	C 	0.9881	0.722	0.141	0.197
Mof_H 	H 	0.9905	0.8187	0.2423	0.16
Mof_H 	H 	0.0238	0.834	0.2025	0.168
Mof_H 	H 	0.016	0.699	0.2423	0.159
Mof_O 	O 	0.0312	0.4115	0.0232	-0.25
Mof_N 	N 	0.1149	0.373	0.1607	-0.554
Mof_N 	N 	0.0157	0.649	0.101	-0.23
Mof_C 	C 	0.0972	0.481	0.1687	0.499
Mof_H 	H 	0.1045	0.545	0.2045	-0.144
Mof_C 	C 	0.0658	0.501	0.1211	-0.371
Mof_C 	C 	0.0573	0.407	0.0664	0.348
Mof_C 	C 	0.0795	0.292	0.0546	-0.184
Mof_C 	C 	0.107	0.29	0.1048	0.345
Mof_H 	H 	0.1224	0.2216	0.099	-0.064
Mof_C 	C 	0.0654	0.193	0.9992	-0.199
Mof_H 	H 	0.042	0.2135	0.9854	0.084
Mof_H 	H 	0.0673	0.1054	0.0207	0.074
Mof_H 	H 	0.0777	0.1971	0.9554	0.077
Mof_C 	C 	0.0465	0.618	0.1367	0.15
Mof_H 	H 	0.0557	0.6766	0.1737	-0.024
Mof_O 	O 	0.4662	0.226	0.4996	-0.207
Mof_N 	N 	0.3842	0.184	0.3455	-0.153
Mof_N 	N 	0.4441	0.9574	0.5347	-0.242
Mof_C 	C 	0.3943	0.078	0.3839	-0.039
Mof_H 	H 	0.3845	0.995	0.3733	0.076
Mof_C 	C 	0.42	0.093	0.4407	-0.069
Mof_C 	C 	0.4357	0.214	0.4562	-0.01
Mof_C 	C 	0.4324	0.317	0.3994	0.071
Mof_C 	C 	0.4059	0.307	0.3484	0.074
Mof_H 	H 	0.4008	0.3767	0.3145	0.002
Mof_C 	C 	0.4463	0.452	0.4131	-0.183
Mof_H 	H 	0.4642	0.4488	0.4532	0.033
Mof_H 	H 	0.4288	0.5111	0.427	0.031
Mof_H 	H 	0.4552	0.485	0.3683	0.063
Mof_C 	C 	0.4244	0.9774	0.4833	0.093
Mof_H 	H 	0.4097	0.9071	0.4694	-0.004
Mof_Cd	Cd	0.163	0.70986	0.72892	0.438
Mof_Cd	Cd	0.3375	0.86213	0.77079	0.468
Mof_Cd	Cd	0.25041	0.78616	0.74979	0.525
Mof_O 	O 	0.22815	0.8269	0.6365	-0.286
Mof_O 	O 	0.17413	0.8589	0.6429	-0.273
Mof_O 	O 	0.2147	0.1529	0.3001	-0.271
Mof_O 	O 	0.1631	0.2249	0.3226	-0.302
Mof_C 	C 	0.198	0.9551	0.5433	-0.026
Mof_C 	C 	0.2249	0.9548	0.4994	0.026
Mof_H 	H 	0.2447	0.9086	0.5145	0.047
Mof_C 	C 	0.2217	0.0228	0.4346	-0.082
Mof_H 	H 	0.2397	0.0242	0.4047	0.07
Mof_C 	C 	0.1945	0.086	0.4123	-0.032
Mof_C 	C 	0.1678	0.0871	0.4595	-0.028
Mof_H 	H 	0.1483	0.136	0.4458	0.036
Mof_C 	C 	0.1706	0.0189	0.5227	-0.064
Mof_H 	H 	0.1526	0.0168	0.5527	0.047
Mof_C 	C 	0.2014	0.8713	0.6132	0.315
Mof_C 	C 	0.1898	0.1675	0.3399	0.288
Mof_O 	O 	0.16608	0.8435	0.8254	-0.294
Mof_O 	O 	0.21516	0.9185	0.8035	-0.279
Mof_O 	O 	0.17413	0.2227	0.1423	-0.297
Mof_O 	O 	0.22814	0.2422	0.1362	-0.278
Mof_C 	C 	0.1931	0.9811	0.912	-0.045
Mof_C 	C 	0.167	0.9865	0.9535	0.03
Mof_H 	H 	0.1469	0.944	0.9367	0.035
Mof_C 	C 	0.1693	0.0524	0.0193	-0.072
Mof_H 	H 	0.151	0.0503	0.0485	0.055
Mof_C 	C 	0.1981	0.1234	0.0449	-0.067
Mof_C 	C 	0.2234	0.1147	0.0047	-0.006
Mof_H 	H 	0.2438	0.153	0.0233	0.049
Mof_C 	C 	0.222	0.053	0.9363	-0.063
Mof_H 	H 	0.24	0.0582	0.9067	0.063
Mof_C 	C 	0.1916	0.9132	0.8405	0.335
Mof_C 	C 	0.199	0.1984	0.1143	0.326
Mof_O 	O 	0.28651	0.9585	0.737	-0.268
Mof_O 	O 	0.31685	0.0653	0.823	-0.28
Mof_O 	O 	0.1835	0.5037	0.6771	-0.284
Mof_O 	O 	0.21313	0.6127	0.763	-0.289
Mof_C 	C 	0.2695	0.1782	0.7646	-0.016
Mof_C 	C 	0.2485	0.1756	0.703	-0.062
Mof_H 	H 	0.2466	0.1036	0.6698	0.06
Mof_C 	C 	0.2288	0.2979	0.6929	0.017
Mof_H 	H 	0.2138	0.3028	0.6498	0.039
Mof_C 	C 	0.2297	0.4002	0.7369	-0.103
Mof_C 	C 	0.2539	0.3859	0.798	0.027
Mof_H 	H 	0.2564	0.458	0.831	0.042
Mof_C 	C 	0.2729	0.2862	0.8135	-0.068
Mof_H 	H 	0.2883	0.2852	0.8559	0.066
Mof_C 	C 	0.2918	0.0557	0.7768	0.25
Mof_C 	C 	0.2071	0.5065	0.7236	0.315
Mof_Cu	Cu	0.98436	0.5827	0.5598	0.854
Mof_O 	O 	0.0217	0.6921	0.5501	-0.349
Mof_N 	N 	0.112	0.703	0.6703	-0.028
Mof_N 	N 	0.0118	0.463	0.625	-0.239
Mof_C 	C 	0.0924	0.597	0.6728	0.027
Mof_H 	H 	0.1007	0.522	0.6991	0.012
Mof_C 	C 	0.0597	0.5937	0.6374	-0.129
Mof_C 	C 	0.0496	0.699	0.5857	0.193
Mof_C 	C 	0.0741	0.8055	0.5792	-0.057
Mof_C 	C 	0.1025	0.8043	0.6247	-0.076
Mof_H 	H 	0.1166	0.8787	0.6247	0.069
Mof_C 	C 	0.0639	0.924	0.5342	-0.072
Mof_H 	H 	0.0732	0.0031	0.5591	0.03
Mof_H 	H 	0.0397	0.9305	0.5286	0.054
Mof_H 	H 	0.0722	0.917	0.4856	0.051
Mof_C 	C 	0.0401	0.4865	0.6509	0.066
Mof_H 	H 	0.0499	0.4232	0.6844	0.001
Mof_C 	C 	0.9964	0.3384	0.6593	-0.055
Mof_H 	H 	0.0125	0.281	0.6889	0.032
Mof_C 	C 	0.9714	0.4106	0.7041	-0.057
Mof_H 	H 	0.9711	0.3701	0.7534	0.036
Mof_H 	H 	0.9778	0.5039	0.7107	0.015
Mof_C 	C 	0.9369	0.4005	0.6618	-0.211
Mof_H 	H 	0.922	0.346	0.6893	0.08
Mof_H 	H 	0.9269	0.4887	0.6541	0.072
Mof_C 	C 	0.9424	0.3365	0.5877	0.152
Mof_C 	C 	0.9119	0.2629	0.5676	-0.517
Mof_H 	H 	0.8932	0.3084	0.5867	0.181
Mof_H 	H 	0.9139	0.1746	0.5888	0.162
Mof_H 	H 	0.9082	0.2566	0.5138	0.172
Mof_C 	C 	0.9741	0.2697	0.6039	0.086
Mof_C 	C 	0.9699	0.1311	0.6357	-0.407
Mof_H 	H 	0.985	0.1201	0.6804	0.122
Mof_H 	H 	0.9749	0.0653	0.5991	0.121
Mof_H 	H 	0.947	0.1198	0.6477	0.122
Mof_C 	C 	0.9902	0.249	0.5313	-0.317
Mof_H 	H 	0.0086	0.3104	0.5288	0.097
Mof_H 	H 	0.9737	0.2637	0.4895	0.088
Mof_H 	H 	0.9986	0.1586	0.5295	0.097
Mof_Cu	Cu	0.49701	0.0522	0.0171	0.557
Mof_C 	C 	0.5063	0.273	0.2137	-0.485
Mof_C 	C 	0.4735	0.336	0.0928	-0.2
Mof_C 	C 	0.4662	0.466	0.1311	-0.192
Mof_H 	H 	0.4425	0.486	0.1227	0.078
Mof_H 	H 	0.479	0.5367	0.1109	0.064
Mof_H 	H 	0.4724	0.458	0.1841	0.065
Mof_C 	C 	0.4994	0.37	0.0388	0.667
Mof_H 	H 	0.4883	0.3803	0.9891	-0.37
Mof_H 	H 	0.5157	0.2986	0.0387	-0.111
Mof_H 	H 	0.5106	0.4515	0.0542	-0.115
Mof_O 	O 	0.4806	0.945	0.9371	-0.144
Mof_N 	N 	0.3906	0.899	0.8255	0.68
Mof_N 	N 	0.4548	0.1422	0.0163	-0.16
Mof_C 	C 	0.3951	0.978	0.8771	-0.829
Mof_H 	H 	0.3763	0.027	0.8892	0.287
Mof_C 	C 	0.4264	0.0052	0.9212	0.594
Mof_C 	C 	0.4517	0.916	0.9066	-0.338
Mof_C 	C 	0.4456	0.817	0.8587	0.425
Mof_C 	C 	0.4132	0.819	0.8187	-0.498
Mof_H 	H 	0.4087	0.7521	0.783	0.188
Mof_C 	C 	0.473	0.721	0.852	-0.757
Mof_H 	H 	0.464	0.6408	0.8274	0.226
Mof_H 	H 	0.4833	0.6985	0.9008	0.256
Mof_H 	H 	0.4895	0.7593	0.8223	0.244
Mof_C 	C 	0.4307	0.119	0.9633	-0.283
Mof_H 	H 	0.4148	0.1866	0.9532	0.122
Mof_C 	C 	0.4432	0.276	0.0477	0.077
Mof_H 	H 	0.4289	0.3354	0.0146	0.004
Mof_C 	C 	0.4277	0.203	0.1096	-0.107
Mof_H 	H 	0.4171	0.1209	0.0904	0.058
Mof_H 	H 	0.4106	0.2583	0.1299	0.058
Mof_C 	C 	0.4556	0.172	0.1697	-0.173
Mof_H 	H 	0.4569	0.0766	0.179	0.061
Mof_H 	H 	0.4516	0.2173	0.2162	0.07
Mof_C 	C 	0.4881	0.222	0.141	0.184
Mof_H 	H 	0.4905	0.3187	0.2423	0.149
Mof_H 	H 	0.5238	0.334	0.2025	0.156
Mof_H 	H 	0.516	0.199	0.2423	0.149
Mof_O 	O 	0.5312	0.9115	0.0232	-0.286
Mof_N 	N 	0.6149	0.873	0.1607	-0.817
Mof_N 	N 	0.5157	0.149	0.101	-0.249
Mof_C 	C 	0.5972	0.981	0.1687	0.775
Mof_H 	H 	0.6045	0.045	0.2045	-0.26
Mof_C 	C 	0.5658	0.001	0.1211	-0.642
Mof_C 	C 	0.5573	0.907	0.0664	0.485
Mof_C 	C 	0.5795	0.792	0.0546	-0.312
Mof_C 	C 	0.607	0.79	0.1048	0.555
Mof_H 	H 	0.6224	0.7216	0.099	-0.127
Mof_C 	C 	0.5654	0.693	0.9992	-0.087
Mof_H 	H 	0.542	0.7135	0.9854	0.055
Mof_H 	H 	0.5673	0.6054	0.0207	0.049
Mof_H 	H 	0.5777	0.6971	0.9554	0.054
Mof_C 	C 	0.5465	0.118	0.1367	0.243
Mof_H 	H 	0.5557	0.1766	0.1737	-0.058
Mof_O 	O 	0.9662	0.726	0.4996	-0.206
Mof_N 	N 	0.8842	0.684	0.3455	-0.103
Mof_N 	N 	0.9441	0.4574	0.5347	-0.241
Mof_C 	C 	0.8943	0.578	0.3839	0.029
Mof_H 	H 	0.8845	0.495	0.3733	0.024
Mof_C 	C 	0.92	0.593	0.4407	-0.063
Mof_C 	C 	0.9357	0.714	0.4562	0.005
Mof_C 	C 	0.9324	0.817	0.3994	0.047
Mof_C 	C 	0.9059	0.807	0.3484	0.049
Mof_H 	H 	0.9008	0.8767	0.3145	0.014
Mof_C 	C 	0.9463	0.952	0.4131	-0.14
Mof_H 	H 	0.9642	0.9488	0.4532	0.035
Mof_H 	H 	0.9288	0.0111	0.427	0.013
Mof_H 	H 	0.9552	0.985	0.3683	0.062
Mof_C 	C 	0.9244	0.4774	0.4833	0.055
Mof_H 	H 	0.9097	0.4071	0.4694	0.003
Mof_Cd	Cd	0.337	0.20986	0.27108	0.432
Mof_Cd	Cd	0.1625	0.36213	0.22921	0.445
Mof_Cd	Cd	0.24959	0.28616	0.25021	0.52
Mof_O 	O 	0.27185	0.3269	0.3635	-0.292
Mof_O 	O 	0.32587	0.3589	0.3571	-0.282
Mof_O 	O 	0.2853	0.6529	0.6999	-0.268
Mof_O 	O 	0.3369	0.7249	0.6774	-0.301
Mof_C 	C 	0.302	0.4551	0.4567	-0.065
Mof_C 	C 	0.2751	0.4548	0.5006	-0.018
Mof_H 	H 	0.2553	0.4086	0.4855	0.054
Mof_C 	C 	0.2783	0.5228	0.5654	-0.029
Mof_H 	H 	0.2603	0.5242	0.5953	0.062
Mof_C 	C 	0.3055	0.586	0.5877	-0.038
Mof_C 	C 	0.3322	0.5871	0.5405	-0.04
Mof_H 	H 	0.3517	0.636	0.5542	0.044
Mof_C 	C 	0.3294	0.5189	0.4773	-0.007
Mof_H 	H 	0.3474	0.5168	0.4473	0.041
Mof_C 	C 	0.2986	0.3713	0.3868	0.321
Mof_C 	C 	0.3102	0.6675	0.6601	0.293
Mof_O 	O 	0.33392	0.3435	0.1746	-0.3
Mof_O 	O 	0.28484	0.4185	0.1965	-0.292
Mof_O 	O 	0.32587	0.7227	0.8577	-0.288
Mof_O 	O 	0.27186	0.7422	0.8638	-0.271
Mof_C 	C 	0.3069	0.4811	0.088	-0.073
Mof_C 	C 	0.333	0.4865	0.0465	-0.011
Mof_H 	H 	0.3531	0.444	0.0633	0.042
Mof_C 	C 	0.3307	0.5524	0.9807	-0.024
Mof_H 	H 	0.349	0.5503	0.9515	0.051
Mof_C 	C 	0.3019	0.6234	0.9551	-0.066
Mof_C 	C 	0.2766	0.6147	0.9953	-0.014
Mof_H 	H 	0.2562	0.653	0.9767	0.058
Mof_C 	C 	0.278	0.553	0.0637	-0.017
Mof_H 	H 	0.26	0.5582	0.0933	0.058
Mof_C 	C 	0.3084	0.4132	0.1595	0.34
Mof_C 	C 	0.301	0.6984	0.8857	0.33
Mof_O 	O 	0.21349	0.4585	0.263	-0.305
Mof_O 	O 	0.18315	0.5653	0.177	-0.276
Mof_O 	O 	0.3165	0.0037	0.3229	-0.283
Mof_O 	O 	0.28687	0.1127	0.237	-0.283
Mof_C 	C 	0.2305	0.6782	0.2354	-0.045
Mof_C 	C 	0.2515	0.6756	0.297	-0.02
Mof_H 	H 	0.2534	0.6036	0.3302	0.06
Mof_C 	C 	0.2712	0.7979	0.3071	-0.025
Mof_H 	H 	0.2862	0.8028	0.3502	0.064
Mof_C 	C 	0.2703	0.9002	0.2631	-0.024
Mof_C 	C 	0.2461	0.8859	0.202	-0.022
Mof_H 	H 	0.2436	0.958	0.169	0.073
Mof_C 	C 	0.2271	0.7862	0.1865	-0.019
Mof_H 	H 	0.2117	0.7852	0.1441	0.057
Mof_C 	C 	0.2082	0.5557	0.2232	0.304
Mof_C 	C 	0.2929	0.0065	0.2764	0.259
Mof_Cu	Cu	0.51564	0.0827	0.4402	0.84
Mof_O 	O 	0.4783	0.1921	0.4499	-0.362
Mof_N 	N 	0.388	0.203	0.3297	0.021
Mof_N 	N 	0.4882	0.963	0.375	-0.239
Mof_C 	C 	0.4076	0.097	0.3272	0.084
Mof_H 	H 	0.3993	0.022	0.3009	-0.021
Mof_C 	C 	0.4403	0.0937	0.3626	-0.199
Mof_C 	C 	0.4504	0.199	0.4143	0.217
Mof_C 	C 	0.4259	0.3055	0.4208	-0.069
Mof_C 	C 	0.3975	0.3043	0.3753	-0.111
Mof_H 	H 	0.3834	0.3787	0.3753	0.074
Mof_C 	C 	0.4361	0.424	0.4658	-0.097
Mof_H 	H 	0.4268	0.5031	0.4409	0.052
Mof_H 	H 	0.4603	0.4305	0.4714	0.063
Mof_H 	H 	0.4278	0.417	0.5144	0.046
Mof_C 	C 	0.4599	0.9865	0.3491	0.138
Mof_H 	H 	0.4501	0.9232	0.3156	-0.01
Mof_C 	C 	0.5036	0.8384	0.3407	-0.084
Mof_H 	H 	0.4875	0.781	0.3111	0.044
Mof_C 	C 	0.5286	0.9106	0.2959	0.041
Mof_H 	H 	0.5289	0.8701	0.2466	0.011
Mof_H 	H 	0.5222	0.0039	0.2893	-0.041
Mof_C 	C 	0.5631	0.9005	0.3382	-0.258
Mof_H 	H 	0.578	0.846	0.3107	0.094
Mof_H 	H 	0.5731	0.9887	0.3459	0.098
Mof_C 	C 	0.5576	0.8365	0.4123	0.167
Mof_C 	C 	0.5881	0.7629	0.4324	-0.538
Mof_H 	H 	0.6068	0.8084	0.4133	0.189
Mof_H 	H 	0.5861	0.6746	0.4112	0.17
Mof_H 	H 	0.5918	0.7566	0.4862	0.181
Mof_C 	C 	0.5259	0.7697	0.3961	0.098
Mof_C 	C 	0.5301	0.6311	0.3643	-0.429
Mof_H 	H 	0.515	0.6201	0.3196	0.133
Mof_H 	H 	0.5251	0.5653	0.4009	0.136
Mof_H 	H 	0.553	0.6198	0.3523	0.131
Mof_C 	C 	0.5098	0.749	0.4687	-0.329
Mof_H 	H 	0.4914	0.8104	0.4712	0.103
Mof_H 	H 	0.5263	0.7637	0.5105	0.092
Mof_H 	H 	0.5014	0.6586	0.4705	0.104
Mof_Cu	Cu	0.00299	0.5522	0.9829	0.567
Mof_C 	C 	0.9937	0.773	0.7863	-0.504
Mof_C 	C 	0.0265	0.836	0.9072	-0.219
Mof_C 	C 	0.0338	0.966	0.8689	-0.093
Mof_H 	H 	0.0575	0.986	0.8773	0.058
Mof_H 	H 	0.021	0.0367	0.8891	0.013
Mof_H 	H 	0.0276	0.958	0.8159	0.044
Mof_C 	C 	0.0006	0.87	0.9612	0.651
Mof_H 	H 	0.0117	0.8803	0.0109	-0.359
Mof_H 	H 	0.9843	0.7986	0.9613	-0.107
Mof_H 	H 	0.9894	0.9515	0.9458	-0.099
Mof_O 	O 	0.0194	0.445	0.0629	-0.199
Mof_N 	N 	0.1094	0.399	0.1745	0.43
Mof_N 	N 	0.0452	0.6422	0.9837	-0.174
Mof_C 	C 	0.1049	0.478	0.1229	-0.609
Mof_H 	H 	0.1237	0.527	0.1108	0.24
Mof_C 	C 	0.0736	0.5052	0.0788	0.379
Mof_C 	C 	0.0483	0.416	0.0934	-0.239
Mof_C 	C 	0.0544	0.317	0.1413	0.303
Mof_C 	C 	0.0868	0.319	0.1813	-0.344
Mof_H 	H 	0.0913	0.2521	0.217	0.135
Mof_C 	C 	0.027	0.221	0.148	-0.634
Mof_H 	H 	0.036	0.1408	0.1726	0.187
Mof_H 	H 	0.0167	0.1985	0.0992	0.216
Mof_H 	H 	0.0105	0.2593	0.1777	0.203
Mof_C 	C 	0.0693	0.619	0.0367	-0.175
Mof_H 	H 	0.0852	0.6866	0.0468	0.091
Mof_C 	C 	0.0568	0.776	0.9523	0.083
Mof_H 	H 	0.0711	0.8354	0.9854	0.007
Mof_C 	C 	0.0723	0.703	0.8904	-0.106
Mof_H 	H 	0.0829	0.6209	0.9096	0.064
Mof_H 	H 	0.0894	0.7583	0.8701	0.061
Mof_C 	C 	0.0444	0.672	0.8303	-0.18
Mof_H 	H 	0.0431	0.5766	0.821	0.072
Mof_H 	H 	0.0484	0.7173	0.7838	0.075
Mof_C 	C 	0.0119	0.722	0.859	0.197
Mof_H 	H 	0.0095	0.8187	0.7577	0.16
Mof_H 	H 	0.9762	0.834	0.7975	0.168
Mof_H 	H 	0.984	0.699	0.7577	0.159
Mof_O 	O 	0.9688	0.4115	0.9768	-0.25
Mof_N 	N 	0.8851	0.373	0.8393	-0.554
Mof_N 	N 	0.9843	0.649	0.899	-0.23
Mof_C 	C 	0.9028	0.481	0.8313	0.499
Mof_H 	H 	0.8955	0.545	0.7955	-0.144
Mof_C 	C 	0.9342	0.501	0.8789	-0.371
Mof_C 	C 	0.9427	0.407	0.9336	0.348
Mof_C 	C 	0.9205	0.292	0.9454	-0.184
Mof_C 	C 	0.893	0.29	0.8952	0.345
Mof_H 	H 	0.8776	0.2216	0.901	-0.064
Mof_C 	C 	0.9346	0.193	0.0008	-0.199
Mof_H 	H 	0.958	0.2135	0.0146	0.084
Mof_H 	H 	0.9327	0.1054	0.9793	0.074
Mof_H 	H 	0.9223	0.1971	0.0446	0.077
Mof_C 	C 	0.9535	0.618	0.8633	0.15
Mof_H 	H 	0.9443	0.6766	0.8263	-0.024
Mof_O 	O 	0.5338	0.226	0.5004	-0.207
Mof_N 	N 	0.6158	0.184	0.6545	-0.153
Mof_N 	N 	0.5559	0.9574	0.4653	-0.242
Mof_C 	C 	0.6057	0.078	0.6161	-0.039
Mof_H 	H 	0.6155	0.995	0.6267	0.076
Mof_C 	C 	0.58	0.093	0.5593	-0.069
Mof_C 	C 	0.5643	0.214	0.5438	-0.01
Mof_C 	C 	0.5676	0.317	0.6006	0.071
Mof_C 	C 	0.5941	0.307	0.6516	0.074
Mof_H 	H 	0.5992	0.3767	0.6855	0.002
Mof_C 	C 	0.5537	0.452	0.5869	-0.183
Mof_H 	H 	0.5358	0.4488	0.5468	0.033
Mof_H 	H 	0.5712	0.5111	0.573	0.031
Mof_H 	H 	0.5448	0.485	0.6317	0.063
Mof_C 	C 	0.5756	0.9774	0.5167	0.093
Mof_H 	H 	0.5903	0.9071	0.5306	-0.004
Mof_Cd	Cd	0.837	0.70986	0.27108	0.438
Mof_Cd	Cd	0.6625	0.86213	0.22921	0.468
Mof_Cd	Cd	0.74959	0.78616	0.25021	0.525
Mof_O 	O 	0.77185	0.8269	0.3635	-0.286
Mof_O 	O 	0.82587	0.8589	0.3571	-0.273
Mof_O 	O 	0.7853	0.1529	0.6999	-0.271
Mof_O 	O 	0.8369	0.2249	0.6774	-0.302
Mof_C 	C 	0.802	0.9551	0.4567	-0.026
Mof_C 	C 	0.7751	0.9548	0.5006	0.026
Mof_H 	H 	0.7553	0.9086	0.4855	0.047
Mof_C 	C 	0.7783	0.0228	0.5654	-0.082
Mof_H 	H 	0.7603	0.0242	0.5953	0.07
Mof_C 	C 	0.8055	0.086	0.5877	-0.032
Mof_C 	C 	0.8322	0.0871	0.5405	-0.028
Mof_H 	H 	0.8517	0.136	0.5542	0.036
Mof_C 	C 	0.8294	0.0189	0.4773	-0.064
Mof_H 	H 	0.8474	0.0168	0.4473	0.047
Mof_C 	C 	0.7986	0.8713	0.3868	0.315
Mof_C 	C 	0.8102	0.1675	0.6601	0.288
Mof_O 	O 	0.83392	0.8435	0.1746	-0.294
Mof_O 	O 	0.78484	0.9185	0.1965	-0.279
Mof_O 	O 	0.82587	0.2227	0.8577	-0.297
Mof_O 	O 	0.77186	0.2422	0.8638	-0.278
Mof_C 	C 	0.8069	0.9811	0.088	-0.045
Mof_C 	C 	0.833	0.9865	0.0465	0.03
Mof_H 	H 	0.8531	0.944	0.0633	0.035
Mof_C 	C 	0.8307	0.0524	0.9807	-0.072
Mof_H 	H 	0.849	0.0503	0.9515	0.055
Mof_C 	C 	0.8019	0.1234	0.9551	-0.067
Mof_C 	C 	0.7766	0.1147	0.9953	-0.006
Mof_H 	H 	0.7562	0.153	0.9767	0.049
Mof_C 	C 	0.778	0.053	0.0637	-0.063
Mof_H 	H 	0.76	0.0582	0.0933	0.063
Mof_C 	C 	0.8084	0.9132	0.1595	0.335
Mof_C 	C 	0.801	0.1984	0.8857	0.326
Mof_O 	O 	0.71349	0.9585	0.263	-0.268
Mof_O 	O 	0.68315	0.0653	0.177	-0.28
Mof_O 	O 	0.8165	0.5037	0.3229	-0.284
Mof_O 	O 	0.78687	0.6127	0.237	-0.289
Mof_C 	C 	0.7305	0.1782	0.2354	-0.016
Mof_C 	C 	0.7515	0.1756	0.297	-0.062
Mof_H 	H 	0.7534	0.1036	0.3302	0.06
Mof_C 	C 	0.7712	0.2979	0.3071	0.017
Mof_H 	H 	0.7862	0.3028	0.3502	0.039
Mof_C 	C 	0.7703	0.4002	0.2631	-0.103
Mof_C 	C 	0.7461	0.3859	0.202	0.027
Mof_H 	H 	0.7436	0.458	0.169	0.042
Mof_C 	C 	0.7271	0.2862	0.1865	-0.068
Mof_H 	H 	0.7117	0.2852	0.1441	0.066
Mof_C 	C 	0.7082	0.0557	0.2232	0.25
Mof_C 	C 	0.7929	0.5065	0.2764	0.315
Mof_Cu	Cu	0.01564	0.5827	0.4402	0.854
Mof_O 	O 	0.9783	0.6921	0.4499	-0.349
Mof_N 	N 	0.888	0.703	0.3297	-0.028
Mof_N 	N 	0.9882	0.463	0.375	-0.239
Mof_C 	C 	0.9076	0.597	0.3272	0.027
Mof_H 	H 	0.8993	0.522	0.3009	0.012
Mof_C 	C 	0.9403	0.5937	0.3626	-0.129
Mof_C 	C 	0.9504	0.699	0.4143	0.193
Mof_C 	C 	0.9259	0.8055	0.4208	-0.057
Mof_C 	C 	0.8975	0.8043	0.3753	-0.076
Mof_H 	H 	0.8834	0.8787	0.3753	0.069
Mof_C 	C 	0.9361	0.924	0.4658	-0.072
Mof_H 	H 	0.9268	0.0031	0.4409	0.03
Mof_H 	H 	0.9603	0.9305	0.4714	0.054
Mof_H 	H 	0.9278	0.917	0.5144	0.051
Mof_C 	C 	0.9599	0.4865	0.3491	0.066
Mof_H 	H 	0.9501	0.4232	0.3156	0.001
Mof_C 	C 	0.0036	0.3384	0.3407	-0.055
Mof_H 	H 	0.9875	0.281	0.3111	0.032
Mof_C 	C 	0.0286	0.4106	0.2959	-0.057
Mof_H 	H 	0.0289	0.3701	0.2466	0.036
Mof_H 	H 	0.0222	0.5039	0.2893	0.015
Mof_C 	C 	0.0631	0.4005	0.3382	-0.211
Mof_H 	H 	0.078	0.346	0.3107	0.08
Mof_H 	H 	0.0731	0.4887	0.3459	0.072
Mof_C 	C 	0.0576	0.3365	0.4123	0.152
Mof_C 	C 	0.0881	0.2629	0.4324	-0.517
Mof_H 	H 	0.1068	0.3084	0.4133	0.181
Mof_H 	H 	0.0861	0.1746	0.4112	0.162
Mof_H 	H 	0.0918	0.2566	0.4862	0.172
Mof_C 	C 	0.0259	0.2697	0.3961	0.086
Mof_C 	C 	0.0301	0.1311	0.3643	-0.407
Mof_H 	H 	0.015	0.1201	0.3196	0.122
Mof_H 	H 	0.0251	0.0653	0.4009	0.121
Mof_H 	H 	0.053	0.1198	0.3523	0.122
Mof_C 	C 	0.0098	0.249	0.4687	-0.317
Mof_H 	H 	0.9914	0.3104	0.4712	0.097
Mof_H 	H 	0.0263	0.2637	0.5105	0.088
Mof_H 	H 	0.0014	0.1586	0.4705	0.097
Mof_Cu	Cu	0.50299	0.0522	0.9829	0.557
Mof_C 	C 	0.4937	0.273	0.7863	-0.485
Mof_C 	C 	0.5265	0.336	0.9072	-0.2
Mof_C 	C 	0.5338	0.466	0.8689	-0.192
Mof_H 	H 	0.5575	0.486	0.8773	0.078
Mof_H 	H 	0.521	0.5367	0.8891	0.064
Mof_H 	H 	0.5276	0.458	0.8159	0.065
Mof_C 	C 	0.5006	0.37	0.9612	0.667
Mof_H 	H 	0.5117	0.3803	0.0109	-0.37
Mof_H 	H 	0.4843	0.2986	0.9613	-0.111
Mof_H 	H 	0.4894	0.4515	0.9458	-0.115
Mof_O 	O 	0.5194	0.945	0.0629	-0.144
Mof_N 	N 	0.6094	0.899	0.1745	0.68
Mof_N 	N 	0.5452	0.1422	0.9837	-0.16
Mof_C 	C 	0.6049	0.978	0.1229	-0.829
Mof_H 	H 	0.6237	0.027	0.1108	0.287
Mof_C 	C 	0.5736	0.0052	0.0788	0.594
Mof_C 	C 	0.5483	0.916	0.0934	-0.338
Mof_C 	C 	0.5544	0.817	0.1413	0.425
Mof_C 	C 	0.5868	0.819	0.1813	-0.498
Mof_H 	H 	0.5913	0.7521	0.217	0.188
Mof_C 	C 	0.527	0.721	0.148	-0.757
Mof_H 	H 	0.536	0.6408	0.1726	0.226
Mof_H 	H 	0.5167	0.6985	0.0992	0.256
Mof_H 	H 	0.5105	0.7593	0.1777	0.244
Mof_C 	C 	0.5693	0.119	0.0367	-0.283
Mof_H 	H 	0.5852	0.1866	0.0468	0.122
Mof_C 	C 	0.5568	0.276	0.9523	0.077
Mof_H 	H 	0.5711	0.3354	0.9854	0.004
Mof_C 	C 	0.5723	0.203	0.8904	-0.107
Mof_H 	H 	0.5829	0.1209	0.9096	0.058
Mof_H 	H 	0.5894	0.2583	0.8701	0.058
Mof_C 	C 	0.5444	0.172	0.8303	-0.173
Mof_H 	H 	0.5431	0.0766	0.821	0.061
Mof_H 	H 	0.5484	0.2173	0.7838	0.07
Mof_C 	C 	0.5119	0.222	0.859	0.184
Mof_H 	H 	0.5095	0.3187	0.7577	0.149
Mof_H 	H 	0.4762	0.334	0.7975	0.156
Mof_H 	H 	0.484	0.199	0.7577	0.149
Mof_O 	O 	0.4688	0.9115	0.9768	-0.286
Mof_N 	N 	0.3851	0.873	0.8393	-0.817
Mof_N 	N 	0.4843	0.149	0.899	-0.249
Mof_C 	C 	0.4028	0.981	0.8313	0.775
Mof_H 	H 	0.3955	0.045	0.7955	-0.26
Mof_C 	C 	0.4342	0.001	0.8789	-0.642
Mof_C 	C 	0.4427	0.907	0.9336	0.485
Mof_C 	C 	0.4205	0.792	0.9454	-0.312
Mof_C 	C 	0.393	0.79	0.8952	0.555
Mof_H 	H 	0.3776	0.7216	0.901	-0.127
Mof_C 	C 	0.4346	0.693	0.0008	-0.087
Mof_H 	H 	0.458	0.7135	0.0146	0.055
Mof_H 	H 	0.4327	0.6054	0.9793	0.049
Mof_H 	H 	0.4223	0.6971	0.0446	0.054
Mof_C 	C 	0.4535	0.118	0.8633	0.243
Mof_H 	H 	0.4443	0.1766	0.8263	-0.058
Mof_O 	O 	0.0338	0.726	0.5004	-0.206
Mof_N 	N 	0.1158	0.684	0.6545	-0.103
Mof_N 	N 	0.0559	0.4574	0.4653	-0.241
Mof_C 	C 	0.1057	0.578	0.6161	0.029
Mof_H 	H 	0.1155	0.495	0.6267	0.024
Mof_C 	C 	0.08	0.593	0.5593	-0.063
Mof_C 	C 	0.0643	0.714	0.5438	0.005
Mof_C 	C 	0.0676	0.817	0.6006	0.047
Mof_C 	C 	0.0941	0.807	0.6516	0.049
Mof_H 	H 	0.0992	0.8767	0.6855	0.014
Mof_C 	C 	0.0537	0.952	0.5869	-0.14
Mof_H 	H 	0.0358	0.9488	0.5468	0.035
Mof_H 	H 	0.0712	0.0111	0.573	0.013
Mof_H 	H 	0.0448	0.985	0.6317	0.062
Mof_C 	C 	0.0756	0.4774	0.5167	0.055
Mof_H 	H 	0.0903	0.4071	0.5306	0.003
_end
