data_functionalizedCrystal
_audit_creation_method	'EQeq! by Chris Wilmer'
_symmetry_space_group_name_H-M	'P1'
_symmetry_Int_Tables_number	1
_symmetry_cell_setting	triclinic
loop_
_symmetry_equiv_pos_as_xyz
  x,y,z
_cell_length_a	9.0211
_cell_length_b	9.0211
_cell_length_c	12.72
_cell_angle_alpha	85.2089
_cell_angle_beta	85.2089
_cell_angle_gamma	79.3769
loop_
_atom_site_label
_atom_site_type_symbol
_atom_site_fract_x
_atom_site_fract_y
_atom_site_fract_z
_atom_site_charge
Mof_Th	Th	0.26515	0.73485	0.25	0.045
Mof_Th	Th	0.73485	0.26515	0.75	0.045
Mof_C 	C 	0.0542	0.5082	0.3906	0.108
Mof_C 	C 	0.8791	0.4199	0.5256	0.092
Mof_C 	C 	0.937	0.4266	0.4212	0.11
Mof_C 	C 	0.084	0.0036	0.0899	0.104
Mof_C 	C 	0.9651	0.1399	0.9388	0.101
Mof_C 	C 	0.0455	0.1391	0.0229	0.108
Mof_C 	C 	0.4918	0.9458	0.1094	0.108
Mof_C 	C 	0.5801	0.1209	0.9744	0.092
Mof_C 	C 	0.5734	0.063	0.0788	0.108
Mof_C 	C 	0.9964	0.916	0.4101	0.104
Mof_C 	C 	0.8601	0.0349	0.5612	0.1
Mof_C 	C 	0.8609	0.9545	0.4771	0.108
Mof_C 	C 	0.9458	0.4918	0.6094	0.107
Mof_C 	C 	0.1209	0.5801	0.4744	0.091
Mof_C 	C 	0.063	0.5734	0.5788	0.109
Mof_C 	C 	0.916	0.9964	0.9101	0.103
Mof_C 	C 	0.0349	0.8601	0.0612	0.101
Mof_C 	C 	0.9545	0.8609	0.9771	0.108
Mof_C 	C 	0.5082	0.0542	0.8906	0.108
Mof_C 	C 	0.4199	0.8791	0.0256	0.092
Mof_C 	C 	0.4266	0.937	0.9212	0.108
Mof_C 	C 	0.0036	0.084	0.5899	0.104
Mof_C 	C 	0.1399	0.9651	0.4388	0.1
Mof_C 	C 	0.1391	0.0455	0.5229	0.108
Mof_Cl	Cl	0.86863	0.33603	0.3266	-0.181
Mof_Cl	Cl	0.0983	0.3021	0.0586	-0.172
Mof_Cl	Cl	0.66397	0.13137	0.1734	-0.181
Mof_Cl	Cl	0.6979	0.9017	0.4414	-0.171
Mof_Cl	Cl	0.13137	0.66397	0.6734	-0.181
Mof_Cl	Cl	0.9017	0.6979	0.9414	-0.172
Mof_Cl	Cl	0.33603	0.86863	0.8266	-0.181
Mof_Cl	Cl	0.3021	0.0983	0.5586	-0.171
Mof_O 	O 	0.1072	0.5314	0.2986	-0.067
Mof_O 	O 	0.7654	0.3606	0.5587	-0.076
Mof_O 	O 	0.1617	0.9921	0.1684	-0.086
Mof_O 	O 	0.9273	0.2553	0.8758	-0.061
Mof_O 	O 	0.4686	0.8928	0.2014	-0.067
Mof_O 	O 	0.6394	0.2346	0.9413	-0.076
Mof_O 	O 	0.0079	0.8383	0.3316	-0.087
Mof_O 	O 	0.7447	0.0727	0.6242	-0.061
Mof_O 	O 	0.8928	0.4686	0.7014	-0.067
Mof_O 	O 	0.2346	0.6394	0.4413	-0.076
Mof_O 	O 	0.8383	0.0079	0.8316	-0.086
Mof_O 	O 	0.0727	0.7447	0.1242	-0.061
Mof_O 	O 	0.5314	0.1072	0.7986	-0.067
Mof_O 	O 	0.3606	0.7654	0.0587	-0.076
Mof_O 	O 	0.9921	0.1617	0.6684	-0.087
Mof_O 	O 	0.2553	0.9273	0.3758	-0.061
_end
