# CIF file generated by openbabel 3.1.0, see https://openbabel.org
data_I
_chemical_name_common 'image0'
_cell_length_a 9.3591
_cell_length_b 9.3128
_cell_length_c 15.1655
_cell_angle_alpha 90
_cell_angle_beta 92.505
_cell_angle_gamma 90
_space_group_name_H-M_alt 'P 1'
_space_group_name_Hall 'P 1'
loop_
    _symmetry_equiv_pos_as_xyz
    x,y,z
loop_
    _atom_site_label
    _atom_site_type_symbol
    _atom_site_fract_x
    _atom_site_fract_y
    _atom_site_fract_z
    _atom_site_occupancy
    Be1      Be       0.91640    0.90560    0.61700    1.000
    Be2      Be       0.33280    0.99730    0.67940    1.000
    P1       P        0.63697    0.02548    0.63834    1.000
    P2       P        0.10889    0.13904    0.57606    1.000
    P3       P        0.34847    0.23926    0.81425    1.000
    O1       O        0.75420    0.91630    0.64881    1.000
    O2       O        0.63760    0.09510    0.54475    1.000
    H1       H        0.67290    0.03890    0.51020    1.000
    O3       O        0.66960    0.15710    0.69931    1.000
    H2       H        0.59860    0.17640    0.72690    1.000
    O4       O        0.49500    0.96110    0.65536    1.000
    O5       O        0.25170    0.05920    0.58865    1.000
    O6       O        0.07550    0.16980    0.47894    1.000
    O7       O        0.99000    0.06110    0.61964    1.000
    O8       O        0.12450    0.29340    0.61699    1.000
    H3       H        0.16090    0.28760    0.66700    1.000
    O9       O        0.32750    0.10790    0.75895    1.000
    O10      O        0.23810    0.35000    0.78547    1.000
    O11      O        0.32100    0.19760    0.91281    1.000
    H4       H        0.38670    0.22800    0.94520    1.000
    O12      O        0.50160    0.29450    0.81194    1.000
    Be3      Be       0.58360    0.40560    0.88300    1.000
    Be4      Be       0.16720    0.49730    0.82060    1.000
    P4       P        0.86303    0.52548    0.86166    1.000
    P5       P        0.39111    0.63904    0.92394    1.000
    P6       P        0.15153    0.73926    0.68575    1.000
    O13      O        0.74580    0.41630    0.85119    1.000
    O14      O        0.86240    0.59510    0.95525    1.000
    H5       H        0.82710    0.53890    0.98980    1.000
    O15      O        0.83040    0.65710    0.80069    1.000
    H6       H        0.90140    0.67640    0.77310    1.000
    O16      O        0.00500    0.46110    0.84464    1.000
    O17      O        0.24830    0.55920    0.91135    1.000
    O18      O        0.42450    0.66980    0.02106    1.000
    O19      O        0.51000    0.56110    0.88036    1.000
    O20      O        0.37550    0.79340    0.88301    1.000
    H7       H        0.33910    0.78760    0.83300    1.000
    O21      O        0.17250    0.60790    0.74105    1.000
    O22      O        0.26190    0.85000    0.71453    1.000
    O23      O        0.17900    0.69760    0.58719    1.000
    H8       H        0.11330    0.72800    0.55480    1.000
    O24      O        0.99840    0.79450    0.68806    1.000
    Be5      Be       0.08360    0.09440    0.38300    1.000
    Be6      Be       0.66720    0.00270    0.32060    1.000
    P7       P        0.36303    0.97452    0.36166    1.000
    P8       P        0.89111    0.86096    0.42394    1.000
    P9       P        0.65153    0.76074    0.18575    1.000
    O25      O        0.24580    0.08370    0.35119    1.000
    O26      O        0.36240    0.90490    0.45525    1.000
    H9       H        0.32710    0.96110    0.48980    1.000
    O27      O        0.33040    0.84290    0.30069    1.000
    H10      H        0.40140    0.82360    0.27310    1.000
    O28      O        0.50500    0.03890    0.34464    1.000
    O29      O        0.74830    0.94080    0.41135    1.000
    O30      O        0.92450    0.83020    0.52106    1.000
    O31      O        0.01000    0.93890    0.38036    1.000
    O32      O        0.87550    0.70660    0.38301    1.000
    H11      H        0.83910    0.71240    0.33300    1.000
    O33      O        0.67250    0.89210    0.24105    1.000
    O34      O        0.76190    0.65000    0.21453    1.000
    O35      O        0.67900    0.80240    0.08719    1.000
    H12      H        0.61330    0.77200    0.05480    1.000
    O36      O        0.49840    0.70550    0.18806    1.000
    Be7      Be       0.41640    0.59440    0.11700    1.000
    Be8      Be       0.83280    0.50270    0.17940    1.000
    P10      P        0.13697    0.47452    0.13834    1.000
    P11      P        0.60889    0.36096    0.07606    1.000
    P12      P        0.84847    0.26074    0.31425    1.000
    O37      O        0.25420    0.58370    0.14881    1.000
    O38      O        0.13760    0.40490    0.04475    1.000
    H13      H        0.17290    0.46110    0.01020    1.000
    O39      O        0.16960    0.34290    0.19931    1.000
    H14      H        0.09860    0.32360    0.22690    1.000
    O40      O        0.99500    0.53890    0.15536    1.000
    O41      O        0.75170    0.44080    0.08865    1.000
    O42      O        0.57550    0.33020    0.97894    1.000
    O43      O        0.49000    0.43890    0.11964    1.000
    O44      O        0.62450    0.20660    0.11699    1.000
    H15      H        0.66090    0.21240    0.16700    1.000
    O45      O        0.82750    0.39210    0.25895    1.000
    O46      O        0.73810    0.15000    0.28547    1.000
    O47      O        0.82100    0.30240    0.41281    1.000
    H16      H        0.88670    0.27200    0.44520    1.000
    O48      O        0.00160    0.20550    0.31194    1.000
