data_functionalizedCrystal
_audit_creation_method	'EQeq! by Chris Wilmer'
_symmetry_space_group_name_H-M	'P1'
_symmetry_Int_Tables_number	1
_symmetry_cell_setting	triclinic
loop_
_symmetry_equiv_pos_as_xyz
  x,y,z
_cell_length_a	10.1763
_cell_length_b	11.1598
_cell_length_c	14.8557
_cell_angle_alpha	90
_cell_angle_beta	107.035
_cell_angle_gamma	90
loop_
_atom_site_label
_atom_site_type_symbol
_atom_site_fract_x
_atom_site_fract_y
_atom_site_fract_z
_atom_site_charge
Mof_Cu	Cu	0.03066	0.25026	-0	0.901
Mof_O 	O 	0.8509	0.1722	0.9914	-0.301
Mof_O 	O 	0.707	0.0676	0.0463	-0.218
Mof_O 	O 	0.9875	0.3655	0.0844	-0.39
Mof_O 	O 	0.8671	0.4235	0.1787	-0.238
Mof_O 	O 	0.9401	0.8844	0.0756	-0.377
Mof_O 	O 	0.8557	0.8184	0.1905	-0.244
Mof_N 	N 	0.2134	0.3291	0.0181	-0.201
Mof_C 	C 	0.2188	0.4488	0.0291	0.051
Mof_H 	H 	0.1447	0.4872	0.0412	0.02
Mof_C 	C 	0.3279	0.5168	0.0233	-0.053
Mof_H 	H 	0.3257	0.5995	0.0309	0.058
Mof_C 	C 	0.4416	0.4642	0.0063	-0.042
Mof_C 	C 	0.4391	0.3392	-0	-0.104
Mof_H 	H 	0.5147	0.2984	0.9922	0.116
Mof_C 	C 	0.3253	0.2758	0.0052	0.003
Mof_H 	H 	0.3259	0.1928	0.9996	0.086
Mof_C 	C 	0.9332	0.3481	0.1512	0.32
Mof_C 	C 	0.9631	0.228	0.2015	-0.058
Mof_C 	C 	0.8193	0.119	0.0564	0.261
Mof_C 	C 	0.9201	0.1199	0.1554	-0.042
Mof_C 	C 	0.9578	0.0119	0.2033	-0.034
Mof_C 	C 	0.9124	0.8943	0.153	0.333
Mof_Cu	Cu	0.96934	0.25026	0.5	0.919
Mof_O 	O 	0.1491	0.1722	0.5086	-0.35
Mof_O 	O 	0.293	0.0676	0.4537	-0.218
Mof_O 	O 	0.0125	0.3655	0.4156	-0.377
Mof_O 	O 	0.1329	0.4235	0.3213	-0.229
Mof_O 	O 	0.0599	0.8844	0.4244	-0.368
Mof_O 	O 	0.1443	0.8184	0.3095	-0.239
Mof_N 	N 	0.7866	0.3291	0.4819	-0.217
Mof_C 	C 	0.7812	0.4488	0.4709	0.093
Mof_H 	H 	0.8553	0.4872	0.4588	0.013
Mof_C 	C 	0.6721	0.5168	0.4767	-0.121
Mof_H 	H 	0.6743	0.5995	0.4691	0.092
Mof_C 	C 	0.5584	0.4642	0.4937	0.071
Mof_C 	C 	0.5609	0.3392	0.5	-0.121
Mof_H 	H 	0.4853	0.2984	0.5078	0.098
Mof_C 	C 	0.6747	0.2758	0.4948	0.092
Mof_H 	H 	0.6741	0.1928	0.5004	0.027
Mof_C 	C 	0.0668	0.3481	0.3488	0.318
Mof_C 	C 	0.0369	0.228	0.2985	-0.045
Mof_C 	C 	0.1807	0.119	0.4436	0.314
Mof_C 	C 	0.0799	0.1199	0.3446	-0.058
Mof_C 	C 	0.0422	0.0119	0.2967	-0.021
Mof_C 	C 	0.0876	0.8943	0.347	0.326
Mof_Cu	Cu	0.96934	0.74974	-0	0.904
Mof_O 	O 	0.1491	0.8278	0.0086	-0.391
Mof_O 	O 	0.293	0.9324	0.9537	-0.215
Mof_O 	O 	0.0125	0.6345	0.9156	-0.356
Mof_O 	O 	0.1329	0.5765	0.8213	-0.217
Mof_O 	O 	0.0599	0.1156	0.9244	-0.35
Mof_O 	O 	0.1443	0.1816	0.8095	-0.228
Mof_N 	N 	0.7866	0.6709	0.9819	-0.257
Mof_C 	C 	0.7812	0.5512	0.9709	0.174
Mof_H 	H 	0.8553	0.5128	0.9588	-0.005
Mof_C 	C 	0.6721	0.4832	0.9767	-0.239
Mof_H 	H 	0.6743	0.4005	0.9691	0.142
Mof_C 	C 	0.5584	0.5358	0.9937	0.268
Mof_C 	C 	0.5609	0.6608	-0	-0.382
Mof_H 	H 	0.4853	0.7016	0.0078	0.179
Mof_C 	C 	0.6747	0.7242	0.9948	0.322
Mof_H 	H 	0.6741	0.8072	0.0004	-0.077
Mof_C 	C 	0.0668	0.6519	0.8488	0.316
Mof_C 	C 	0.0369	0.772	0.7985	-0.039
Mof_C 	C 	0.1807	0.881	0.9436	0.36
Mof_C 	C 	0.0799	0.8801	0.8446	-0.065
Mof_C 	C 	0.0422	0.9881	0.7967	-0.017
Mof_C 	C 	0.0876	0.1057	0.847	0.321
Mof_Cu	Cu	0.03066	0.74974	0.5	0.919
Mof_O 	O 	0.8509	0.8278	0.4914	-0.351
Mof_O 	O 	0.707	0.9324	0.5463	-0.216
Mof_O 	O 	0.9875	0.6345	0.5844	-0.377
Mof_O 	O 	0.8671	0.5765	0.6787	-0.227
Mof_O 	O 	0.9401	0.1156	0.5756	-0.368
Mof_O 	O 	0.8557	0.1816	0.6905	-0.235
Mof_N 	N 	0.2134	0.6709	0.5181	-0.216
Mof_C 	C 	0.2188	0.5512	0.5291	0.094
Mof_H 	H 	0.1447	0.5128	0.5412	0.014
Mof_C 	C 	0.3279	0.4832	0.5233	-0.121
Mof_H 	H 	0.3257	0.4005	0.5309	0.093
Mof_C 	C 	0.4416	0.5358	0.5063	0.071
Mof_C 	C 	0.4391	0.6608	0.5	-0.121
Mof_H 	H 	0.5147	0.7016	0.4922	0.098
Mof_C 	C 	0.3253	0.7242	0.5052	0.092
Mof_H 	H 	0.3259	0.8072	0.4996	0.027
Mof_C 	C 	0.9332	0.6519	0.6512	0.32
Mof_C 	C 	0.9631	0.772	0.7015	-0.052
Mof_C 	C 	0.8193	0.881	0.5564	0.313
Mof_C 	C 	0.9201	0.8801	0.6554	-0.052
Mof_C 	C 	0.9578	0.9881	0.7033	-0.026
Mof_C 	C 	0.9124	0.1057	0.653	0.327
_end
