# CIF file generated by openbabel 3.1.0, see https://openbabel.org
data_I
_chemical_name_common 'GIQXEK_clean'
_cell_length_a 9.6921
_cell_length_b 9.6921
_cell_length_c 15.6938
_cell_angle_alpha 92.7017
_cell_angle_beta 92.7017
_cell_angle_gamma 99.0196
_space_group_name_H-M_alt 'P 1'
_space_group_name_Hall 'P 1'
loop_
    _symmetry_equiv_pos_as_xyz
    x,y,z
loop_
    _atom_site_label
    _atom_site_type_symbol
    _atom_site_fract_x
    _atom_site_fract_y
    _atom_site_fract_z
    _atom_site_occupancy
    Ce1      Ce       0.01140    0.98860    0.75000    1.000
    Ce2      Ce       0.98860    0.01140    0.25000    1.000
    P1       P        0.35642    0.04528    0.64390    1.000
    P2       P        0.64866    0.97408    0.65165    1.000
    P3       P        0.95472    0.64358    0.85610    1.000
    P4       P        0.02592    0.35134    0.84835    1.000
    P5       P        0.64358    0.95472    0.35610    1.000
    P6       P        0.35134    0.02592    0.34835    1.000
    P7       P        0.04528    0.35642    0.14390    1.000
    P8       P        0.97408    0.64866    0.15165    1.000
    H1       H        0.47820    0.16000    0.81170    1.000
    H2       H        0.63490    0.12710    0.81070    1.000
    H3       H        0.58030    0.22510    0.74160    1.000
    H4       H        0.50800    0.82400    0.77100    1.000
    H5       H        0.84000    0.52180    0.68830    1.000
    H6       H        0.87290    0.36510    0.68930    1.000
    H7       H        0.77490    0.41970    0.75840    1.000
    H8       H        0.17600    0.49200    0.72900    1.000
    H9       H        0.52180    0.84000    0.18830    1.000
    H10      H        0.36510    0.87290    0.18930    1.000
    H11      H        0.41970    0.77490    0.25840    1.000
    H12      H        0.49200    0.17600    0.22900    1.000
    H13      H        0.16000    0.47820    0.31170    1.000
    H14      H        0.12710    0.63490    0.31070    1.000
    H15      H        0.22510    0.58030    0.24160    1.000
    H16      H        0.82400    0.50800    0.27100    1.000
    Ru1      Ru       0.54622    0.12006    0.50207    1.000
    Ru2      Ru       0.87994    0.45378    0.99793    1.000
    Ru3      Ru       0.45378    0.87994    0.49793    1.000
    Ru4      Ru       0.12006    0.54622    0.00207    1.000
    C1       C        0.50400    0.01520    0.71500    1.000
    C2       C        0.55380    0.14320    0.77510    1.000
    C3       C        0.98480    0.49600    0.78500    1.000
    C4       C        0.85680    0.44620    0.72490    1.000
    C5       C        0.49600    0.98480    0.28500    1.000
    C6       C        0.44620    0.85680    0.22490    1.000
    C7       C        0.01520    0.50400    0.21500    1.000
    C8       C        0.14320    0.55380    0.27510    1.000
    O1       O        0.41107    0.16807    0.58909    1.000
    O2       O        0.31164    0.91088    0.58536    1.000
    O3       O        0.24016    0.07722    0.69762    1.000
    O4       O        0.69003    0.10125    0.59716    1.000
    O5       O        0.59229    0.84389    0.59246    1.000
    O6       O        0.76781    0.95005    0.71076    1.000
    O7       O        0.44983    0.89857    0.76433    1.000
    O8       O        0.83193    0.58893    0.91091    1.000
    O9       O        0.08912    0.68836    0.91464    1.000
    O10      O        0.92278    0.75984    0.80238    1.000
    O11      O        0.89875    0.30997    0.90284    1.000
    O12      O        0.15611    0.40771    0.90754    1.000
    O13      O        0.04995    0.23219    0.78924    1.000
    O14      O        0.10143    0.55017    0.73567    1.000
    O15      O        0.58893    0.83193    0.41091    1.000
    O16      O        0.68836    0.08912    0.41464    1.000
    O17      O        0.75984    0.92278    0.30238    1.000
    O18      O        0.30997    0.89875    0.40284    1.000
    O19      O        0.40771    0.15611    0.40754    1.000
    O20      O        0.23219    0.04995    0.28924    1.000
    O21      O        0.55017    0.10143    0.23567    1.000
    O22      O        0.16807    0.41107    0.08909    1.000
    O23      O        0.91088    0.31164    0.08536    1.000
    O24      O        0.07722    0.24016    0.19762    1.000
    O25      O        0.10125    0.69003    0.09716    1.000
    O26      O        0.84389    0.59229    0.09246    1.000
    O27      O        0.95005    0.76781    0.21076    1.000
    O28      O        0.89857    0.44983    0.26433    1.000
