data_functionalizedCrystal
_audit_creation_method	'EQeq! by Chris Wilmer'
_symmetry_space_group_name_H-M	'P1'
_symmetry_Int_Tables_number	1
_symmetry_cell_setting	triclinic
loop_
_symmetry_equiv_pos_as_xyz
  x,y,z
_cell_length_a	38.8511
_cell_length_b	38.8511
_cell_length_c	18.7521
_cell_angle_alpha	90
_cell_angle_beta	90
_cell_angle_gamma	90
loop_
_atom_site_label
_atom_site_type_symbol
_atom_site_fract_x
_atom_site_fract_y
_atom_site_fract_z
_atom_site_charge
Mof_Zr	Zr	0.99006	0.81077	0.08577	3.175
Mof_Zr	Zr	0.9449	0.73612	0.03495	3.196
Mof_Zr	Zr	0.03524	0.73631	0.03584	3.195
Mof_C 	C 	0.0471	0.8436	0.1902	0.545
Mof_C 	C 	0.0634	0.8761	0.2214	-0.208
Mof_C 	C 	0.0854	0.8756	0.2787	0.111
Mof_H 	H 	0.09126	0.85465	0.29942	-0.011
Mof_C 	C 	0.0988	0.905	0.3057	-0.173
Mof_H 	H 	0.11185	0.90398	0.34721	0.085
Mof_C 	C 	0.0936	0.9356	0.2738	0.064
Mof_C 	C 	0.0727	0.9374	0.2115	-0.155
Mof_H 	H 	0.06986	0.95804	0.18698	0.063
Mof_C 	C 	0.0564	0.9071	0.1884	0.086
Mof_H 	H 	0.04092	0.90793	0.15068	-0.015
Mof_C 	C 	0.0647	0.1538	0.1912	0.629
Mof_C 	C 	0.0775	0.1222	0.2171	-0.357
Mof_C 	C 	0.0686	0.0909	0.1881	0.235
Mof_H 	H 	0.05552	0.09028	0.14659	-0.07
Mof_C 	C 	0.0789	0.0602	0.2203	-0.301
Mof_H 	H 	0.0685	0.03968	0.20618	0.122
Mof_C 	C 	0.1019	0.0593	0.2683	0.177
Mof_C 	C 	0.1123	0.09	0.298	-0.29
Mof_H 	H 	0.12794	0.08977	0.33544	0.124
Mof_C 	C 	0.1003	0.1202	0.2741	0.241
Mof_H 	H 	0.10747	0.14039	0.29618	-0.05
Mof_C 	C 	0.2119	0.9903	0.6524	0.6
Mof_C 	C 	0.1955	0.9915	0.5806	-0.242
Mof_C 	C 	0.1851	0.9604	0.5457	0.133
Mof_H 	H 	0.19008	0.93914	0.56622	-0.021
Mof_C 	C 	0.1685	0.9619	0.4845	-0.185
Mof_H 	H 	0.16189	0.94146	0.46283	0.09
Mof_C 	C 	0.1603	0.9938	0.4499	0.091
Mof_C 	C 	0.1697	0.0231	0.4771	-0.175
Mof_H 	H 	0.16578	0.0438	0.45372	0.089
Mof_C 	C 	0.1871	0.0217	0.5473	0.119
Mof_H 	H 	0.19268	0.04231	0.56971	-0.011
Mof_C 	C 	0.1394	0.9947	0.3835	0.078
Mof_C 	C 	0.1117	0.0259	0.3067	0.053
Mof_C 	C 	0.108	0.9672	0.2972	0.075
Mof_C 	C 	0.82412	0.7421	0.06295	-0.113
Mof_H 	H 	0.83606	0.73734	0.02113	0.064
Mof_C 	C 	0.78827	0.7421	0.06295	-0.008
Mof_H 	H 	0.77632	0.73736	0.02113	-0.008
Mof_N 	N 	0.1272	0.9645	0.3595	-0.137
Mof_N 	N 	0.0989	0.9968	0.2726	-0.142
Mof_N 	N 	0.1318	0.0261	0.36	-0.139
Mof_O 	O 	0.0261	0.8475	0.1398	-0.743
Mof_O 	O 	0.0548	0.81698	0.2246	-0.684
Mof_O 	O 	0.04461	0.15271	0.1391	-0.789
Mof_O 	O 	0.07355	0.1821	0.2232	-0.682
Mof_O 	O 	0.2191	0.01902	0.6772	-0.736
Mof_O 	O 	0.2187	0.96137	0.6791	-0.755
Mof_O 	O 	0.99038	0.76754	0.0159	-1.413
Mof_O 	O 	0.99039	0.7073	0.055	-1.285
Mof_O 	O 	0.0354	0.7813	0.1011	-1.354
Mof_O 	O 	0.9453	0.77968	0.104	-1.353
Mof_O 	O 	0.09	0.739	0.0607	-0.896
Mof_O 	O 	0.88896	0.738	0.0536	-0.61
Mof_H 	H 	0.15195	0.75782	0.17047	0.608
Mof_H 	H 	0.15195	0.72709	0.11629	0.594
Mof_H 	H 	0.15195	0.7651	0.08824	0.589
Mof_Zr	Zr	0.49006	0.31077	0.58577	3.176
Mof_Zr	Zr	0.4449	0.23612	0.53495	3.197
Mof_Zr	Zr	0.53524	0.23631	0.53584	3.196
Mof_C 	C 	0.5471	0.3436	0.6902	0.546
Mof_C 	C 	0.5634	0.3761	0.7214	-0.207
Mof_C 	C 	0.5854	0.3756	0.7787	0.112
Mof_H 	H 	0.59126	0.35465	0.79942	-0.01
Mof_C 	C 	0.5988	0.405	0.8057	-0.172
Mof_H 	H 	0.61185	0.40398	0.84721	0.086
Mof_C 	C 	0.5936	0.4356	0.7738	0.065
Mof_C 	C 	0.5727	0.4374	0.7115	-0.154
Mof_H 	H 	0.56986	0.45804	0.68698	0.064
Mof_C 	C 	0.5564	0.4071	0.6884	0.087
Mof_H 	H 	0.54092	0.40793	0.65068	-0.014
Mof_C 	C 	0.5647	0.6538	0.6912	0.63
Mof_C 	C 	0.5775	0.6222	0.7171	-0.356
Mof_C 	C 	0.5686	0.5909	0.6881	0.236
Mof_H 	H 	0.55552	0.59028	0.64659	-0.069
Mof_C 	C 	0.5789	0.5602	0.7203	-0.3
Mof_H 	H 	0.5685	0.53968	0.70618	0.123
Mof_C 	C 	0.6019	0.5593	0.7683	0.178
Mof_C 	C 	0.6123	0.59	0.798	-0.289
Mof_H 	H 	0.62794	0.58977	0.83544	0.125
Mof_C 	C 	0.6003	0.6202	0.7741	0.242
Mof_H 	H 	0.60747	0.64039	0.79618	-0.05
Mof_C 	C 	0.7119	0.4903	0.1524	0.6
Mof_C 	C 	0.6955	0.4915	0.0806	-0.241
Mof_C 	C 	0.6851	0.4604	0.0457	0.132
Mof_H 	H 	0.69008	0.43914	0.06622	-0.02
Mof_C 	C 	0.6685	0.4619	0.9845	-0.184
Mof_H 	H 	0.66189	0.44146	0.96283	0.089
Mof_C 	C 	0.6603	0.4938	0.9499	0.091
Mof_C 	C 	0.6697	0.5231	0.9771	-0.174
Mof_H 	H 	0.66578	0.5438	0.95372	0.089
Mof_C 	C 	0.6871	0.5217	0.0473	0.118
Mof_H 	H 	0.69268	0.54231	0.06971	-0.011
Mof_C 	C 	0.6394	0.4947	0.8835	0.078
Mof_C 	C 	0.6117	0.5259	0.8067	0.053
Mof_C 	C 	0.608	0.4672	0.7972	0.075
Mof_C 	C 	0.32412	0.2421	0.56295	-0.113
Mof_H 	H 	0.33606	0.23734	0.52113	0.064
Mof_C 	C 	0.28827	0.2421	0.56295	-0.008
Mof_H 	H 	0.27632	0.23736	0.52113	-0.008
Mof_N 	N 	0.6272	0.4645	0.8595	-0.137
Mof_N 	N 	0.5989	0.4968	0.7726	-0.142
Mof_N 	N 	0.6318	0.5261	0.86	-0.139
Mof_O 	O 	0.5261	0.3475	0.6398	-0.743
Mof_O 	O 	0.5548	0.31698	0.7246	-0.684
Mof_O 	O 	0.54461	0.65271	0.6391	-0.789
Mof_O 	O 	0.57355	0.6821	0.7232	-0.682
Mof_O 	O 	0.7191	0.51902	0.1772	-0.736
Mof_O 	O 	0.7187	0.46137	0.1791	-0.755
Mof_O 	O 	0.49038	0.26754	0.5159	-1.413
Mof_O 	O 	0.49039	0.2073	0.555	-1.285
Mof_O 	O 	0.5354	0.2813	0.6011	-1.354
Mof_O 	O 	0.4453	0.27968	0.604	-1.353
Mof_O 	O 	0.59	0.239	0.5607	-0.896
Mof_O 	O 	0.38896	0.238	0.5536	-0.61
Mof_H 	H 	0.65195	0.25782	0.67047	0.608
Mof_H 	H 	0.65195	0.22709	0.61629	0.594
Mof_H 	H 	0.65195	0.2651	0.58824	0.589
Mof_Zr	Zr	0.00994	0.18923	0.08577	3.176
Mof_Zr	Zr	0.0551	0.26388	0.03495	3.197
Mof_Zr	Zr	0.96476	0.26369	0.03584	3.196
Mof_C 	C 	0.9529	0.1564	0.1902	0.546
Mof_C 	C 	0.9366	0.1239	0.2214	-0.207
Mof_C 	C 	0.9146	0.1244	0.2787	0.112
Mof_H 	H 	0.90874	0.14535	0.29942	-0.01
Mof_C 	C 	0.9012	0.095	0.3057	-0.172
Mof_H 	H 	0.88815	0.09602	0.34721	0.086
Mof_C 	C 	0.9064	0.0644	0.2738	0.065
Mof_C 	C 	0.9273	0.0626	0.2115	-0.154
Mof_H 	H 	0.93014	0.04196	0.18698	0.064
Mof_C 	C 	0.9436	0.0929	0.1884	0.087
Mof_H 	H 	0.95908	0.09207	0.15068	-0.014
Mof_C 	C 	0.9353	0.8462	0.1912	0.63
Mof_C 	C 	0.9225	0.8778	0.2171	-0.356
Mof_C 	C 	0.9314	0.9091	0.1881	0.236
Mof_H 	H 	0.94448	0.90972	0.14659	-0.069
Mof_C 	C 	0.9211	0.9398	0.2203	-0.3
Mof_H 	H 	0.9315	0.96032	0.20618	0.123
Mof_C 	C 	0.8981	0.9407	0.2683	0.178
Mof_C 	C 	0.8877	0.91	0.298	-0.289
Mof_H 	H 	0.87206	0.91023	0.33544	0.125
Mof_C 	C 	0.8997	0.8798	0.2741	0.242
Mof_H 	H 	0.89253	0.85961	0.29618	-0.05
Mof_C 	C 	0.7881	0.0097	0.6524	0.6
Mof_C 	C 	0.8045	0.0085	0.5806	-0.242
Mof_C 	C 	0.8149	0.0396	0.5457	0.133
Mof_H 	H 	0.80992	0.06086	0.56622	-0.021
Mof_C 	C 	0.8315	0.0381	0.4845	-0.185
Mof_H 	H 	0.83811	0.05854	0.46283	0.09
Mof_C 	C 	0.8397	0.0062	0.4499	0.091
Mof_C 	C 	0.8303	0.9769	0.4771	-0.175
Mof_H 	H 	0.83422	0.9562	0.45372	0.089
Mof_C 	C 	0.8129	0.9783	0.5473	0.119
Mof_H 	H 	0.80732	0.95769	0.56971	-0.011
Mof_C 	C 	0.8606	0.0053	0.3835	0.078
Mof_C 	C 	0.8883	0.9741	0.3067	0.053
Mof_C 	C 	0.892	0.0328	0.2972	0.075
Mof_C 	C 	0.17588	0.2579	0.06295	-0.113
Mof_H 	H 	0.16394	0.26266	0.02113	0.064
Mof_C 	C 	0.21173	0.2579	0.06295	-0.008
Mof_H 	H 	0.22368	0.26264	0.02113	-0.008
Mof_N 	N 	0.8728	0.0355	0.3595	-0.137
Mof_N 	N 	0.9011	0.0032	0.2726	-0.142
Mof_N 	N 	0.8682	0.9739	0.36	-0.139
Mof_O 	O 	0.9739	0.1525	0.1398	-0.743
Mof_O 	O 	0.9452	0.18302	0.2246	-0.684
Mof_O 	O 	0.95539	0.84729	0.1391	-0.789
Mof_O 	O 	0.92645	0.8179	0.2232	-0.682
Mof_O 	O 	0.7809	0.98098	0.6772	-0.736
Mof_O 	O 	0.7813	0.03863	0.6791	-0.755
Mof_O 	O 	0.00962	0.23246	0.0159	-1.413
Mof_O 	O 	0.00961	0.2927	0.055	-1.285
Mof_O 	O 	0.9646	0.2187	0.1011	-1.354
Mof_O 	O 	0.0547	0.22032	0.104	-1.353
Mof_O 	O 	0.91	0.261	0.0607	-0.896
Mof_O 	O 	0.11104	0.262	0.0536	-0.61
Mof_H 	H 	0.84805	0.24218	0.17047	0.608
Mof_H 	H 	0.84805	0.27291	0.11629	0.594
Mof_H 	H 	0.84805	0.2349	0.08824	0.589
Mof_Zr	Zr	0.50994	0.68923	0.58577	3.176
Mof_Zr	Zr	0.5551	0.76388	0.53495	3.197
Mof_Zr	Zr	0.46476	0.76369	0.53584	3.196
Mof_C 	C 	0.4529	0.6564	0.6902	0.546
Mof_C 	C 	0.4366	0.6239	0.7214	-0.207
Mof_C 	C 	0.4146	0.6244	0.7787	0.112
Mof_H 	H 	0.40874	0.64535	0.79942	-0.01
Mof_C 	C 	0.4012	0.595	0.8057	-0.172
Mof_H 	H 	0.38815	0.59602	0.84721	0.086
Mof_C 	C 	0.4064	0.5644	0.7738	0.065
Mof_C 	C 	0.4273	0.5626	0.7115	-0.154
Mof_H 	H 	0.43014	0.54196	0.68698	0.064
Mof_C 	C 	0.4436	0.5929	0.6884	0.087
Mof_H 	H 	0.45908	0.59207	0.65068	-0.014
Mof_C 	C 	0.4353	0.3462	0.6912	0.63
Mof_C 	C 	0.4225	0.3778	0.7171	-0.356
Mof_C 	C 	0.4314	0.4091	0.6881	0.236
Mof_H 	H 	0.44448	0.40972	0.64659	-0.069
Mof_C 	C 	0.4211	0.4398	0.7203	-0.3
Mof_H 	H 	0.4315	0.46032	0.70618	0.123
Mof_C 	C 	0.3981	0.4407	0.7683	0.178
Mof_C 	C 	0.3877	0.41	0.798	-0.289
Mof_H 	H 	0.37206	0.41023	0.83544	0.125
Mof_C 	C 	0.3997	0.3798	0.7741	0.242
Mof_H 	H 	0.39253	0.35961	0.79618	-0.05
Mof_C 	C 	0.2881	0.5097	0.1524	0.6
Mof_C 	C 	0.3045	0.5085	0.0806	-0.241
Mof_C 	C 	0.3149	0.5396	0.0457	0.132
Mof_H 	H 	0.30992	0.56086	0.06622	-0.02
Mof_C 	C 	0.3315	0.5381	0.9845	-0.184
Mof_H 	H 	0.33811	0.55854	0.96283	0.089
Mof_C 	C 	0.3397	0.5062	0.9499	0.091
Mof_C 	C 	0.3303	0.4769	0.9771	-0.174
Mof_H 	H 	0.33422	0.4562	0.95372	0.089
Mof_C 	C 	0.3129	0.4783	0.0473	0.118
Mof_H 	H 	0.30732	0.45769	0.06971	-0.011
Mof_C 	C 	0.3606	0.5053	0.8835	0.078
Mof_C 	C 	0.3883	0.4741	0.8067	0.053
Mof_C 	C 	0.392	0.5328	0.7972	0.075
Mof_C 	C 	0.67588	0.7579	0.56295	-0.113
Mof_H 	H 	0.66394	0.76266	0.52113	0.064
Mof_C 	C 	0.71173	0.7579	0.56295	-0.008
Mof_H 	H 	0.72368	0.76264	0.52113	-0.008
Mof_N 	N 	0.3728	0.5355	0.8595	-0.137
Mof_N 	N 	0.4011	0.5032	0.7726	-0.142
Mof_N 	N 	0.3682	0.4739	0.86	-0.139
Mof_O 	O 	0.4739	0.6525	0.6398	-0.743
Mof_O 	O 	0.4452	0.68302	0.7246	-0.684
Mof_O 	O 	0.45539	0.34729	0.6391	-0.789
Mof_O 	O 	0.42645	0.3179	0.7232	-0.682
Mof_O 	O 	0.2809	0.48098	0.1772	-0.736
Mof_O 	O 	0.2813	0.53863	0.1791	-0.755
Mof_O 	O 	0.50962	0.73246	0.5159	-1.413
Mof_O 	O 	0.50961	0.7927	0.555	-1.285
Mof_O 	O 	0.4646	0.7187	0.6011	-1.354
Mof_O 	O 	0.5547	0.72032	0.604	-1.353
Mof_O 	O 	0.41	0.761	0.5607	-0.896
Mof_O 	O 	0.61104	0.762	0.5536	-0.61
Mof_H 	H 	0.34805	0.74218	0.67047	0.608
Mof_H 	H 	0.34805	0.77291	0.61629	0.594
Mof_H 	H 	0.34805	0.7349	0.58824	0.589
Mof_Zr	Zr	0.81077	0.00994	0.91423	3.176
Mof_Zr	Zr	0.73612	0.0551	0.96505	3.197
Mof_Zr	Zr	0.73631	0.96476	0.96416	3.196
Mof_C 	C 	0.8436	0.9529	0.8098	0.546
Mof_C 	C 	0.8761	0.9366	0.7786	-0.207
Mof_C 	C 	0.8756	0.9146	0.7213	0.112
Mof_H 	H 	0.85465	0.90874	0.70058	-0.01
Mof_C 	C 	0.905	0.9012	0.6943	-0.172
Mof_H 	H 	0.90398	0.88815	0.65279	0.086
Mof_C 	C 	0.9356	0.9064	0.7262	0.065
Mof_C 	C 	0.9374	0.9273	0.7885	-0.154
Mof_H 	H 	0.95804	0.93014	0.81302	0.064
Mof_C 	C 	0.9071	0.9436	0.8116	0.087
Mof_H 	H 	0.90793	0.95908	0.84932	-0.014
Mof_C 	C 	0.1538	0.9353	0.8088	0.63
Mof_C 	C 	0.1222	0.9225	0.7829	-0.356
Mof_C 	C 	0.0909	0.9314	0.8119	0.236
Mof_H 	H 	0.09028	0.94448	0.85341	-0.069
Mof_C 	C 	0.0602	0.9211	0.7797	-0.3
Mof_H 	H 	0.03968	0.9315	0.79382	0.123
Mof_C 	C 	0.0593	0.8981	0.7317	0.178
Mof_C 	C 	0.09	0.8877	0.702	-0.289
Mof_H 	H 	0.08977	0.87206	0.66456	0.125
Mof_C 	C 	0.1202	0.8997	0.7259	0.242
Mof_H 	H 	0.14039	0.89253	0.70382	-0.05
Mof_C 	C 	0.9903	0.7881	0.3476	0.6
Mof_C 	C 	0.9915	0.8045	0.4194	-0.242
Mof_C 	C 	0.9604	0.8149	0.4543	0.133
Mof_H 	H 	0.93914	0.80992	0.43378	-0.021
Mof_C 	C 	0.9619	0.8315	0.5155	-0.185
Mof_H 	H 	0.94146	0.83811	0.53717	0.09
Mof_C 	C 	0.9938	0.8397	0.5501	0.091
Mof_C 	C 	0.0231	0.8303	0.5229	-0.175
Mof_H 	H 	0.0438	0.83422	0.54628	0.089
Mof_C 	C 	0.0217	0.8129	0.4527	0.119
Mof_H 	H 	0.04231	0.80732	0.43029	-0.011
Mof_C 	C 	0.9947	0.8606	0.6165	0.078
Mof_C 	C 	0.0259	0.8883	0.6933	0.053
Mof_C 	C 	0.9672	0.892	0.7028	0.075
Mof_C 	C 	0.7421	0.17588	0.93705	-0.113
Mof_H 	H 	0.73734	0.16394	0.97887	0.064
Mof_C 	C 	0.7421	0.21173	0.93705	-0.008
Mof_H 	H 	0.73736	0.22368	0.97887	-0.008
Mof_N 	N 	0.9645	0.8728	0.6405	-0.137
Mof_N 	N 	0.9968	0.9011	0.7274	-0.142
Mof_N 	N 	0.0261	0.8682	0.64	-0.139
Mof_O 	O 	0.8475	0.9739	0.8602	-0.743
Mof_O 	O 	0.81698	0.9452	0.7754	-0.684
Mof_O 	O 	0.15271	0.95539	0.8609	-0.789
Mof_O 	O 	0.1821	0.92645	0.7768	-0.682
Mof_O 	O 	0.01902	0.7809	0.3228	-0.736
Mof_O 	O 	0.96137	0.7813	0.3209	-0.755
Mof_O 	O 	0.76754	0.00962	0.9841	-1.413
Mof_O 	O 	0.7073	0.00961	0.945	-1.285
Mof_O 	O 	0.7813	0.9646	0.8989	-1.354
Mof_O 	O 	0.77968	0.0547	0.896	-1.353
Mof_O 	O 	0.739	0.91	0.9393	-0.896
Mof_O 	O 	0.738	0.11104	0.9464	-0.61
Mof_H 	H 	0.75782	0.84805	0.82953	0.608
Mof_H 	H 	0.72709	0.84805	0.88371	0.594
Mof_H 	H 	0.7651	0.84805	0.91176	0.589
Mof_Zr	Zr	0.31077	0.50994	0.41423	3.176
Mof_Zr	Zr	0.23612	0.5551	0.46505	3.197
Mof_Zr	Zr	0.23631	0.46476	0.46416	3.196
Mof_C 	C 	0.3436	0.4529	0.3098	0.546
Mof_C 	C 	0.3761	0.4366	0.2786	-0.207
Mof_C 	C 	0.3756	0.4146	0.2213	0.112
Mof_H 	H 	0.35465	0.40874	0.20058	-0.01
Mof_C 	C 	0.405	0.4012	0.1943	-0.172
Mof_H 	H 	0.40398	0.38815	0.15279	0.086
Mof_C 	C 	0.4356	0.4064	0.2262	0.065
Mof_C 	C 	0.4374	0.4273	0.2885	-0.154
Mof_H 	H 	0.45804	0.43014	0.31302	0.064
Mof_C 	C 	0.4071	0.4436	0.3116	0.087
Mof_H 	H 	0.40793	0.45908	0.34932	-0.014
Mof_C 	C 	0.6538	0.4353	0.3088	0.63
Mof_C 	C 	0.6222	0.4225	0.2829	-0.356
Mof_C 	C 	0.5909	0.4314	0.3119	0.236
Mof_H 	H 	0.59028	0.44448	0.35341	-0.069
Mof_C 	C 	0.5602	0.4211	0.2797	-0.3
Mof_H 	H 	0.53968	0.4315	0.29382	0.123
Mof_C 	C 	0.5593	0.3981	0.2317	0.178
Mof_C 	C 	0.59	0.3877	0.202	-0.289
Mof_H 	H 	0.58977	0.37206	0.16456	0.125
Mof_C 	C 	0.6202	0.3997	0.2259	0.242
Mof_H 	H 	0.64039	0.39253	0.20382	-0.05
Mof_C 	C 	0.4903	0.2881	0.8476	0.6
Mof_C 	C 	0.4915	0.3045	0.9194	-0.241
Mof_C 	C 	0.4604	0.3149	0.9543	0.132
Mof_H 	H 	0.43914	0.30992	0.93378	-0.02
Mof_C 	C 	0.4619	0.3315	0.0155	-0.184
Mof_H 	H 	0.44146	0.33811	0.03717	0.089
Mof_C 	C 	0.4938	0.3397	0.0501	0.091
Mof_C 	C 	0.5231	0.3303	0.0229	-0.174
Mof_H 	H 	0.5438	0.33422	0.04628	0.089
Mof_C 	C 	0.5217	0.3129	0.9527	0.118
Mof_H 	H 	0.54231	0.30732	0.93029	-0.011
Mof_C 	C 	0.4947	0.3606	0.1165	0.078
Mof_C 	C 	0.5259	0.3883	0.1933	0.053
Mof_C 	C 	0.4672	0.392	0.2028	0.075
Mof_C 	C 	0.2421	0.67588	0.43705	-0.113
Mof_H 	H 	0.23734	0.66394	0.47887	0.064
Mof_C 	C 	0.2421	0.71173	0.43705	-0.008
Mof_H 	H 	0.23736	0.72368	0.47887	-0.008
Mof_N 	N 	0.4645	0.3728	0.1405	-0.137
Mof_N 	N 	0.4968	0.4011	0.2274	-0.142
Mof_N 	N 	0.5261	0.3682	0.14	-0.139
Mof_O 	O 	0.3475	0.4739	0.3602	-0.743
Mof_O 	O 	0.31698	0.4452	0.2754	-0.684
Mof_O 	O 	0.65271	0.45539	0.3609	-0.789
Mof_O 	O 	0.6821	0.42645	0.2768	-0.682
Mof_O 	O 	0.51902	0.2809	0.8228	-0.736
Mof_O 	O 	0.46137	0.2813	0.8209	-0.755
Mof_O 	O 	0.26754	0.50962	0.4841	-1.413
Mof_O 	O 	0.2073	0.50961	0.445	-1.285
Mof_O 	O 	0.2813	0.4646	0.3989	-1.354
Mof_O 	O 	0.27968	0.5547	0.396	-1.353
Mof_O 	O 	0.239	0.41	0.4393	-0.896
Mof_O 	O 	0.238	0.61104	0.4464	-0.61
Mof_H 	H 	0.25782	0.34805	0.32953	0.608
Mof_H 	H 	0.22709	0.34805	0.38371	0.594
Mof_H 	H 	0.2651	0.34805	0.41176	0.589
Mof_Zr	Zr	0.18923	0.99006	0.91423	3.176
Mof_Zr	Zr	0.26388	0.9449	0.96505	3.197
Mof_Zr	Zr	0.26369	0.03524	0.96416	3.196
Mof_C 	C 	0.1564	0.0471	0.8098	0.546
Mof_C 	C 	0.1239	0.0634	0.7786	-0.207
Mof_C 	C 	0.1244	0.0854	0.7213	0.112
Mof_H 	H 	0.14535	0.09126	0.70058	-0.01
Mof_C 	C 	0.095	0.0988	0.6943	-0.172
Mof_H 	H 	0.09602	0.11185	0.65279	0.086
Mof_C 	C 	0.0644	0.0936	0.7262	0.065
Mof_C 	C 	0.0626	0.0727	0.7885	-0.154
Mof_H 	H 	0.04196	0.06986	0.81302	0.064
Mof_C 	C 	0.0929	0.0564	0.8116	0.087
Mof_H 	H 	0.09207	0.04092	0.84932	-0.014
Mof_C 	C 	0.8462	0.0647	0.8088	0.63
Mof_C 	C 	0.8778	0.0775	0.7829	-0.356
Mof_C 	C 	0.9091	0.0686	0.8119	0.236
Mof_H 	H 	0.90972	0.05552	0.85341	-0.069
Mof_C 	C 	0.9398	0.0789	0.7797	-0.3
Mof_H 	H 	0.96032	0.0685	0.79382	0.123
Mof_C 	C 	0.9407	0.1019	0.7317	0.178
Mof_C 	C 	0.91	0.1123	0.702	-0.289
Mof_H 	H 	0.91023	0.12794	0.66456	0.125
Mof_C 	C 	0.8798	0.1003	0.7259	0.242
Mof_H 	H 	0.85961	0.10747	0.70382	-0.05
Mof_C 	C 	0.0097	0.2119	0.3476	0.6
Mof_C 	C 	0.0085	0.1955	0.4194	-0.242
Mof_C 	C 	0.0396	0.1851	0.4543	0.133
Mof_H 	H 	0.06086	0.19008	0.43378	-0.021
Mof_C 	C 	0.0381	0.1685	0.5155	-0.185
Mof_H 	H 	0.05854	0.16189	0.53717	0.09
Mof_C 	C 	0.0062	0.1603	0.5501	0.091
Mof_C 	C 	0.9769	0.1697	0.5229	-0.175
Mof_H 	H 	0.9562	0.16578	0.54628	0.089
Mof_C 	C 	0.9783	0.1871	0.4527	0.119
Mof_H 	H 	0.95769	0.19268	0.43029	-0.011
Mof_C 	C 	0.0053	0.1394	0.6165	0.078
Mof_C 	C 	0.9741	0.1117	0.6933	0.053
Mof_C 	C 	0.0328	0.108	0.7028	0.075
Mof_C 	C 	0.2579	0.82412	0.93705	-0.113
Mof_H 	H 	0.26266	0.83606	0.97887	0.064
Mof_C 	C 	0.2579	0.78827	0.93705	-0.008
Mof_H 	H 	0.26264	0.77632	0.97887	-0.008
Mof_N 	N 	0.0355	0.1272	0.6405	-0.137
Mof_N 	N 	0.0032	0.0989	0.7274	-0.142
Mof_N 	N 	0.9739	0.1318	0.64	-0.139
Mof_O 	O 	0.1525	0.0261	0.8602	-0.743
Mof_O 	O 	0.18302	0.0548	0.7754	-0.684
Mof_O 	O 	0.84729	0.04461	0.8609	-0.789
Mof_O 	O 	0.8179	0.07355	0.7768	-0.682
Mof_O 	O 	0.98098	0.2191	0.3228	-0.736
Mof_O 	O 	0.03863	0.2187	0.3209	-0.755
Mof_O 	O 	0.23246	0.99038	0.9841	-1.413
Mof_O 	O 	0.2927	0.99039	0.945	-1.285
Mof_O 	O 	0.2187	0.0354	0.8989	-1.354
Mof_O 	O 	0.22032	0.9453	0.896	-1.353
Mof_O 	O 	0.261	0.09	0.9393	-0.896
Mof_O 	O 	0.262	0.88896	0.9464	-0.61
Mof_H 	H 	0.24218	0.15195	0.82953	0.608
Mof_H 	H 	0.27291	0.15195	0.88371	0.594
Mof_H 	H 	0.2349	0.15195	0.91176	0.589
Mof_Zr	Zr	0.68923	0.49006	0.41423	3.176
Mof_Zr	Zr	0.76388	0.4449	0.46505	3.197
Mof_Zr	Zr	0.76369	0.53524	0.46416	3.196
Mof_C 	C 	0.6564	0.5471	0.3098	0.546
Mof_C 	C 	0.6239	0.5634	0.2786	-0.207
Mof_C 	C 	0.6244	0.5854	0.2213	0.112
Mof_H 	H 	0.64535	0.59126	0.20058	-0.01
Mof_C 	C 	0.595	0.5988	0.1943	-0.172
Mof_H 	H 	0.59602	0.61185	0.15279	0.086
Mof_C 	C 	0.5644	0.5936	0.2262	0.065
Mof_C 	C 	0.5626	0.5727	0.2885	-0.154
Mof_H 	H 	0.54196	0.56986	0.31302	0.064
Mof_C 	C 	0.5929	0.5564	0.3116	0.087
Mof_H 	H 	0.59207	0.54092	0.34932	-0.014
Mof_C 	C 	0.3462	0.5647	0.3088	0.63
Mof_C 	C 	0.3778	0.5775	0.2829	-0.356
Mof_C 	C 	0.4091	0.5686	0.3119	0.236
Mof_H 	H 	0.40972	0.55552	0.35341	-0.069
Mof_C 	C 	0.4398	0.5789	0.2797	-0.3
Mof_H 	H 	0.46032	0.5685	0.29382	0.123
Mof_C 	C 	0.4407	0.6019	0.2317	0.178
Mof_C 	C 	0.41	0.6123	0.202	-0.289
Mof_H 	H 	0.41023	0.62794	0.16456	0.125
Mof_C 	C 	0.3798	0.6003	0.2259	0.242
Mof_H 	H 	0.35961	0.60747	0.20382	-0.05
Mof_C 	C 	0.5097	0.7119	0.8476	0.6
Mof_C 	C 	0.5085	0.6955	0.9194	-0.241
Mof_C 	C 	0.5396	0.6851	0.9543	0.132
Mof_H 	H 	0.56086	0.69008	0.93378	-0.02
Mof_C 	C 	0.5381	0.6685	0.0155	-0.184
Mof_H 	H 	0.55854	0.66189	0.03717	0.089
Mof_C 	C 	0.5062	0.6603	0.0501	0.091
Mof_C 	C 	0.4769	0.6697	0.0229	-0.174
Mof_H 	H 	0.4562	0.66578	0.04628	0.089
Mof_C 	C 	0.4783	0.6871	0.9527	0.118
Mof_H 	H 	0.45769	0.69268	0.93029	-0.011
Mof_C 	C 	0.5053	0.6394	0.1165	0.078
Mof_C 	C 	0.4741	0.6117	0.1933	0.053
Mof_C 	C 	0.5328	0.608	0.2028	0.075
Mof_C 	C 	0.7579	0.32412	0.43705	-0.113
Mof_H 	H 	0.76266	0.33606	0.47887	0.064
Mof_C 	C 	0.7579	0.28827	0.43705	-0.008
Mof_H 	H 	0.76264	0.27632	0.47887	-0.008
Mof_N 	N 	0.5355	0.6272	0.1405	-0.137
Mof_N 	N 	0.5032	0.5989	0.2274	-0.142
Mof_N 	N 	0.4739	0.6318	0.14	-0.139
Mof_O 	O 	0.6525	0.5261	0.3602	-0.743
Mof_O 	O 	0.68302	0.5548	0.2754	-0.684
Mof_O 	O 	0.34729	0.54461	0.3609	-0.789
Mof_O 	O 	0.3179	0.57355	0.2768	-0.682
Mof_O 	O 	0.48098	0.7191	0.8228	-0.736
Mof_O 	O 	0.53863	0.7187	0.8209	-0.755
Mof_O 	O 	0.73246	0.49038	0.4841	-1.413
Mof_O 	O 	0.7927	0.49039	0.445	-1.285
Mof_O 	O 	0.7187	0.5354	0.3989	-1.354
Mof_O 	O 	0.72032	0.4453	0.396	-1.353
Mof_O 	O 	0.761	0.59	0.4393	-0.896
Mof_O 	O 	0.762	0.38896	0.4464	-0.61
Mof_H 	H 	0.74218	0.65195	0.32953	0.608
Mof_H 	H 	0.77291	0.65195	0.38371	0.594
Mof_H 	H 	0.7349	0.65195	0.41176	0.589
Mof_Zr	Zr	0.50994	0.81077	0.66423	3.176
Mof_Zr	Zr	0.5551	0.73612	0.71505	3.197
Mof_Zr	Zr	0.46476	0.73631	0.71416	3.196
Mof_C 	C 	0.4529	0.8436	0.5598	0.546
Mof_C 	C 	0.4366	0.8761	0.5286	-0.207
Mof_C 	C 	0.4146	0.8756	0.4713	0.112
Mof_H 	H 	0.40874	0.85465	0.45058	-0.01
Mof_C 	C 	0.4012	0.905	0.4443	-0.172
Mof_H 	H 	0.38815	0.90398	0.40279	0.086
Mof_C 	C 	0.4064	0.9356	0.4762	0.065
Mof_C 	C 	0.4273	0.9374	0.5385	-0.154
Mof_H 	H 	0.43014	0.95804	0.56302	0.064
Mof_C 	C 	0.4436	0.9071	0.5616	0.087
Mof_H 	H 	0.45908	0.90793	0.59932	-0.014
Mof_C 	C 	0.4353	0.1538	0.5588	0.63
Mof_C 	C 	0.4225	0.1222	0.5329	-0.356
Mof_C 	C 	0.4314	0.0909	0.5619	0.236
Mof_H 	H 	0.44448	0.09028	0.60341	-0.069
Mof_C 	C 	0.4211	0.0602	0.5297	-0.3
Mof_H 	H 	0.4315	0.03968	0.54382	0.123
Mof_C 	C 	0.3981	0.0593	0.4817	0.178
Mof_C 	C 	0.3877	0.09	0.452	-0.289
Mof_H 	H 	0.37206	0.08977	0.41456	0.125
Mof_C 	C 	0.3997	0.1202	0.4759	0.242
Mof_H 	H 	0.39253	0.14039	0.45382	-0.05
Mof_C 	C 	0.2881	0.9903	0.0976	0.6
Mof_C 	C 	0.3045	0.9915	0.1694	-0.242
Mof_C 	C 	0.3149	0.9604	0.2043	0.133
Mof_H 	H 	0.30992	0.93914	0.18378	-0.021
Mof_C 	C 	0.3315	0.9619	0.2655	-0.184
Mof_H 	H 	0.33811	0.94146	0.28717	0.09
Mof_C 	C 	0.3397	0.9938	0.3001	0.091
Mof_C 	C 	0.3303	0.0231	0.2729	-0.175
Mof_H 	H 	0.33422	0.0438	0.29628	0.089
Mof_C 	C 	0.3129	0.0217	0.2027	0.119
Mof_H 	H 	0.30732	0.04231	0.18029	-0.011
Mof_C 	C 	0.3606	0.9947	0.3665	0.078
Mof_C 	C 	0.3883	0.0259	0.4433	0.053
Mof_C 	C 	0.392	0.9672	0.4528	0.075
Mof_C 	C 	0.67588	0.7421	0.68705	-0.113
Mof_H 	H 	0.66394	0.73734	0.72887	0.064
Mof_C 	C 	0.71173	0.7421	0.68705	-0.008
Mof_H 	H 	0.72368	0.73736	0.72887	-0.008
Mof_N 	N 	0.3728	0.9645	0.3905	-0.137
Mof_N 	N 	0.4011	0.9968	0.4774	-0.142
Mof_N 	N 	0.3682	0.0261	0.39	-0.139
Mof_O 	O 	0.4739	0.8475	0.6102	-0.743
Mof_O 	O 	0.4452	0.81698	0.5254	-0.684
Mof_O 	O 	0.45539	0.15271	0.6109	-0.789
Mof_O 	O 	0.42645	0.1821	0.5268	-0.682
Mof_O 	O 	0.2809	0.01902	0.0728	-0.736
Mof_O 	O 	0.2813	0.96137	0.0709	-0.755
Mof_O 	O 	0.50962	0.76754	0.7341	-1.413
Mof_O 	O 	0.50961	0.7073	0.695	-1.285
Mof_O 	O 	0.4646	0.7813	0.6489	-1.354
Mof_O 	O 	0.5547	0.77968	0.646	-1.353
Mof_O 	O 	0.41	0.739	0.6893	-0.896
Mof_O 	O 	0.61104	0.738	0.6964	-0.61
Mof_H 	H 	0.34805	0.75782	0.57953	0.608
Mof_H 	H 	0.34805	0.72709	0.63371	0.594
Mof_H 	H 	0.34805	0.7651	0.66176	0.589
Mof_Zr	Zr	0.00994	0.31077	0.16423	3.176
Mof_Zr	Zr	0.0551	0.23612	0.21505	3.197
Mof_Zr	Zr	0.96476	0.23631	0.21416	3.196
Mof_C 	C 	0.9529	0.3436	0.0598	0.546
Mof_C 	C 	0.9366	0.3761	0.0286	-0.208
Mof_C 	C 	0.9146	0.3756	0.9713	0.114
Mof_H 	H 	0.90874	0.35465	0.95058	-0.011
Mof_C 	C 	0.9012	0.405	0.9443	-0.174
Mof_H 	H 	0.88815	0.40398	0.90279	0.087
Mof_C 	C 	0.9064	0.4356	0.9762	0.067
Mof_C 	C 	0.9273	0.4374	0.0385	-0.157
Mof_H 	H 	0.93014	0.45804	0.06302	0.065
Mof_C 	C 	0.9436	0.4071	0.0616	0.088
Mof_H 	H 	0.95908	0.40793	0.09932	-0.015
Mof_C 	C 	0.9353	0.6538	0.0588	0.631
Mof_C 	C 	0.9225	0.6222	0.0329	-0.359
Mof_C 	C 	0.9314	0.5909	0.0619	0.238
Mof_H 	H 	0.94448	0.59028	0.10341	-0.07
Mof_C 	C 	0.9211	0.5602	0.0297	-0.303
Mof_H 	H 	0.9315	0.53968	0.04382	0.124
Mof_C 	C 	0.8981	0.5593	0.9817	0.181
Mof_C 	C 	0.8877	0.59	0.952	-0.292
Mof_H 	H 	0.87206	0.58977	0.91456	0.126
Mof_C 	C 	0.8997	0.6202	0.9759	0.245
Mof_H 	H 	0.89253	0.64039	0.95382	-0.051
Mof_C 	C 	0.7881	0.4903	0.5976	0.6
Mof_C 	C 	0.8045	0.4915	0.6694	-0.242
Mof_C 	C 	0.8149	0.4604	0.7043	0.133
Mof_H 	H 	0.80992	0.43914	0.68378	-0.021
Mof_C 	C 	0.8315	0.4619	0.7655	-0.185
Mof_H 	H 	0.83811	0.44146	0.78717	0.09
Mof_C 	C 	0.8397	0.4938	0.8001	0.091
Mof_C 	C 	0.8303	0.5231	0.7729	-0.175
Mof_H 	H 	0.83422	0.5438	0.79628	0.089
Mof_C 	C 	0.8129	0.5217	0.7027	0.119
Mof_H 	H 	0.80732	0.54231	0.68029	-0.011
Mof_C 	C 	0.8606	0.4947	0.8665	0.078
Mof_C 	C 	0.8883	0.5259	0.9433	0.052
Mof_C 	C 	0.892	0.4672	0.9528	0.074
Mof_C 	C 	0.17588	0.2421	0.18705	-0.113
Mof_H 	H 	0.16394	0.23734	0.22887	0.064
Mof_C 	C 	0.21173	0.2421	0.18705	-0.008
Mof_H 	H 	0.22368	0.23736	0.22887	-0.008
Mof_N 	N 	0.8728	0.4645	0.8905	-0.137
Mof_N 	N 	0.9011	0.4968	0.9774	-0.142
Mof_N 	N 	0.8682	0.5261	0.89	-0.139
Mof_O 	O 	0.9739	0.3475	0.1102	-0.743
Mof_O 	O 	0.9452	0.31698	0.0254	-0.685
Mof_O 	O 	0.95539	0.65271	0.1109	-0.79
Mof_O 	O 	0.92645	0.6821	0.0268	-0.683
Mof_O 	O 	0.7809	0.51902	0.5728	-0.736
Mof_O 	O 	0.7813	0.46137	0.5709	-0.755
Mof_O 	O 	0.00962	0.26754	0.2341	-1.413
Mof_O 	O 	0.00961	0.2073	0.195	-1.285
Mof_O 	O 	0.9646	0.2813	0.1489	-1.354
Mof_O 	O 	0.0547	0.27968	0.146	-1.353
Mof_O 	O 	0.91	0.239	0.1893	-0.896
Mof_O 	O 	0.11104	0.238	0.1964	-0.61
Mof_H 	H 	0.84805	0.25782	0.07953	0.608
Mof_H 	H 	0.84805	0.22709	0.13371	0.594
Mof_H 	H 	0.84805	0.2651	0.16176	0.589
Mof_Zr	Zr	0.49006	0.18923	0.66423	3.176
Mof_Zr	Zr	0.4449	0.26388	0.71505	3.197
Mof_Zr	Zr	0.53524	0.26369	0.71416	3.196
Mof_C 	C 	0.5471	0.1564	0.5598	0.546
Mof_C 	C 	0.5634	0.1239	0.5286	-0.207
Mof_C 	C 	0.5854	0.1244	0.4713	0.112
Mof_H 	H 	0.59126	0.14535	0.45058	-0.01
Mof_C 	C 	0.5988	0.095	0.4443	-0.172
Mof_H 	H 	0.61185	0.09602	0.40279	0.086
Mof_C 	C 	0.5936	0.0644	0.4762	0.065
Mof_C 	C 	0.5727	0.0626	0.5385	-0.154
Mof_H 	H 	0.56986	0.04196	0.56302	0.064
Mof_C 	C 	0.5564	0.0929	0.5616	0.087
Mof_H 	H 	0.54092	0.09207	0.59932	-0.014
Mof_C 	C 	0.5647	0.8462	0.5588	0.63
Mof_C 	C 	0.5775	0.8778	0.5329	-0.356
Mof_C 	C 	0.5686	0.9091	0.5619	0.236
Mof_H 	H 	0.55552	0.90972	0.60341	-0.069
Mof_C 	C 	0.5789	0.9398	0.5297	-0.3
Mof_H 	H 	0.5685	0.96032	0.54382	0.123
Mof_C 	C 	0.6019	0.9407	0.4817	0.178
Mof_C 	C 	0.6123	0.91	0.452	-0.289
Mof_H 	H 	0.62794	0.91023	0.41456	0.125
Mof_C 	C 	0.6003	0.8798	0.4759	0.242
Mof_H 	H 	0.60747	0.85961	0.45382	-0.05
Mof_C 	C 	0.7119	0.0097	0.0976	0.6
Mof_C 	C 	0.6955	0.0085	0.1694	-0.242
Mof_C 	C 	0.6851	0.0396	0.2043	0.133
Mof_H 	H 	0.69008	0.06086	0.18378	-0.021
Mof_C 	C 	0.6685	0.0381	0.2655	-0.184
Mof_H 	H 	0.66189	0.05854	0.28717	0.09
Mof_C 	C 	0.6603	0.0062	0.3001	0.091
Mof_C 	C 	0.6697	0.9769	0.2729	-0.175
Mof_H 	H 	0.66578	0.9562	0.29628	0.089
Mof_C 	C 	0.6871	0.9783	0.2027	0.119
Mof_H 	H 	0.69268	0.95769	0.18029	-0.011
Mof_C 	C 	0.6394	0.0053	0.3665	0.078
Mof_C 	C 	0.6117	0.9741	0.4433	0.053
Mof_C 	C 	0.608	0.0328	0.4528	0.075
Mof_C 	C 	0.32412	0.2579	0.68705	-0.113
Mof_H 	H 	0.33606	0.26266	0.72887	0.064
Mof_C 	C 	0.28827	0.2579	0.68705	-0.008
Mof_H 	H 	0.27632	0.26264	0.72887	-0.008
Mof_N 	N 	0.6272	0.0355	0.3905	-0.137
Mof_N 	N 	0.5989	0.0032	0.4774	-0.142
Mof_N 	N 	0.6318	0.9739	0.39	-0.139
Mof_O 	O 	0.5261	0.1525	0.6102	-0.743
Mof_O 	O 	0.5548	0.18302	0.5254	-0.684
Mof_O 	O 	0.54461	0.84729	0.6109	-0.789
Mof_O 	O 	0.57355	0.8179	0.5268	-0.682
Mof_O 	O 	0.7191	0.98098	0.0728	-0.736
Mof_O 	O 	0.7187	0.03863	0.0709	-0.755
Mof_O 	O 	0.49038	0.23246	0.7341	-1.413
Mof_O 	O 	0.49039	0.2927	0.695	-1.285
Mof_O 	O 	0.5354	0.2187	0.6489	-1.354
Mof_O 	O 	0.4453	0.22032	0.646	-1.353
Mof_O 	O 	0.59	0.261	0.6893	-0.896
Mof_O 	O 	0.38896	0.262	0.6964	-0.61
Mof_H 	H 	0.65195	0.24218	0.57953	0.608
Mof_H 	H 	0.65195	0.27291	0.63371	0.594
Mof_H 	H 	0.65195	0.2349	0.66176	0.589
Mof_Zr	Zr	0.99006	0.68923	0.16423	3.176
Mof_Zr	Zr	0.9449	0.76388	0.21505	3.197
Mof_Zr	Zr	0.03524	0.76369	0.21416	3.196
Mof_C 	C 	0.0471	0.6564	0.0598	0.546
Mof_C 	C 	0.0634	0.6239	0.0286	-0.208
Mof_C 	C 	0.0854	0.6244	0.9713	0.114
Mof_H 	H 	0.09126	0.64535	0.95058	-0.011
Mof_C 	C 	0.0988	0.595	0.9443	-0.174
Mof_H 	H 	0.11185	0.59602	0.90279	0.087
Mof_C 	C 	0.0936	0.5644	0.9762	0.067
Mof_C 	C 	0.0727	0.5626	0.0385	-0.157
Mof_H 	H 	0.06986	0.54196	0.06302	0.065
Mof_C 	C 	0.0564	0.5929	0.0616	0.088
Mof_H 	H 	0.04092	0.59207	0.09932	-0.015
Mof_C 	C 	0.0647	0.3462	0.0588	0.631
Mof_C 	C 	0.0775	0.3778	0.0329	-0.359
Mof_C 	C 	0.0686	0.4091	0.0619	0.238
Mof_H 	H 	0.05552	0.40972	0.10341	-0.07
Mof_C 	C 	0.0789	0.4398	0.0297	-0.303
Mof_H 	H 	0.0685	0.46032	0.04382	0.124
Mof_C 	C 	0.1019	0.4407	0.9817	0.181
Mof_C 	C 	0.1123	0.41	0.952	-0.292
Mof_H 	H 	0.12794	0.41023	0.91456	0.126
Mof_C 	C 	0.1003	0.3798	0.9759	0.245
Mof_H 	H 	0.10747	0.35961	0.95382	-0.051
Mof_C 	C 	0.2119	0.5097	0.5976	0.6
Mof_C 	C 	0.1955	0.5085	0.6694	-0.242
Mof_C 	C 	0.1851	0.5396	0.7043	0.133
Mof_H 	H 	0.19008	0.56086	0.68378	-0.021
Mof_C 	C 	0.1685	0.5381	0.7655	-0.185
Mof_H 	H 	0.16189	0.55854	0.78717	0.09
Mof_C 	C 	0.1603	0.5062	0.8001	0.091
Mof_C 	C 	0.1697	0.4769	0.7729	-0.175
Mof_H 	H 	0.16578	0.4562	0.79628	0.089
Mof_C 	C 	0.1871	0.4783	0.7027	0.119
Mof_H 	H 	0.19268	0.45769	0.68029	-0.011
Mof_C 	C 	0.1394	0.5053	0.8665	0.078
Mof_C 	C 	0.1117	0.4741	0.9433	0.052
Mof_C 	C 	0.108	0.5328	0.9528	0.074
Mof_C 	C 	0.82412	0.7579	0.18705	-0.113
Mof_H 	H 	0.83606	0.76266	0.22887	0.064
Mof_C 	C 	0.78827	0.7579	0.18705	-0.008
Mof_H 	H 	0.77632	0.76264	0.22887	-0.008
Mof_N 	N 	0.1272	0.5355	0.8905	-0.137
Mof_N 	N 	0.0989	0.5032	0.9774	-0.142
Mof_N 	N 	0.1318	0.4739	0.89	-0.139
Mof_O 	O 	0.0261	0.6525	0.1102	-0.743
Mof_O 	O 	0.0548	0.68302	0.0254	-0.685
Mof_O 	O 	0.04461	0.34729	0.1109	-0.79
Mof_O 	O 	0.07355	0.3179	0.0268	-0.683
Mof_O 	O 	0.2191	0.48098	0.5728	-0.736
Mof_O 	O 	0.2187	0.53863	0.5709	-0.755
Mof_O 	O 	0.99038	0.73246	0.2341	-1.413
Mof_O 	O 	0.99039	0.7927	0.195	-1.285
Mof_O 	O 	0.0354	0.7187	0.1489	-1.354
Mof_O 	O 	0.9453	0.72032	0.146	-1.353
Mof_O 	O 	0.09	0.761	0.1893	-0.896
Mof_O 	O 	0.88896	0.762	0.1964	-0.61
Mof_H 	H 	0.15195	0.74218	0.07953	0.608
Mof_H 	H 	0.15195	0.77291	0.13371	0.594
Mof_H 	H 	0.15195	0.7349	0.16176	0.589
Mof_Zr	Zr	0.68923	0.00994	0.83577	3.176
Mof_Zr	Zr	0.76388	0.0551	0.78495	3.197
Mof_Zr	Zr	0.76369	0.96476	0.78584	3.196
Mof_C 	C 	0.6564	0.9529	0.9402	0.546
Mof_C 	C 	0.6239	0.9366	0.9714	-0.208
Mof_C 	C 	0.6244	0.9146	0.0287	0.114
Mof_H 	H 	0.64535	0.90874	0.04942	-0.011
Mof_C 	C 	0.595	0.9012	0.0557	-0.174
Mof_H 	H 	0.59602	0.88815	0.09721	0.087
Mof_C 	C 	0.5644	0.9064	0.0238	0.067
Mof_C 	C 	0.5626	0.9273	0.9615	-0.157
Mof_H 	H 	0.54196	0.93014	0.93698	0.065
Mof_C 	C 	0.5929	0.9436	0.9384	0.088
Mof_H 	H 	0.59207	0.95908	0.90068	-0.015
Mof_C 	C 	0.3462	0.9353	0.9412	0.631
Mof_C 	C 	0.3778	0.9225	0.9671	-0.359
Mof_C 	C 	0.4091	0.9314	0.9381	0.238
Mof_H 	H 	0.40972	0.94448	0.89659	-0.07
Mof_C 	C 	0.4398	0.9211	0.9703	-0.303
Mof_H 	H 	0.46032	0.9315	0.95618	0.124
Mof_C 	C 	0.4407	0.8981	0.0183	0.181
Mof_C 	C 	0.41	0.8877	0.048	-0.292
Mof_H 	H 	0.41023	0.87206	0.08544	0.126
Mof_C 	C 	0.3798	0.8997	0.0241	0.245
Mof_H 	H 	0.35961	0.89253	0.04618	-0.051
Mof_C 	C 	0.5097	0.7881	0.4024	0.6
Mof_C 	C 	0.5085	0.8045	0.3306	-0.242
Mof_C 	C 	0.5396	0.8149	0.2957	0.133
Mof_H 	H 	0.56086	0.80992	0.31622	-0.021
Mof_C 	C 	0.5381	0.8315	0.2345	-0.185
Mof_H 	H 	0.55854	0.83811	0.21283	0.09
Mof_C 	C 	0.5062	0.8397	0.1999	0.091
Mof_C 	C 	0.4769	0.8303	0.2271	-0.175
Mof_H 	H 	0.4562	0.83422	0.20372	0.089
Mof_C 	C 	0.4783	0.8129	0.2973	0.119
Mof_H 	H 	0.45769	0.80732	0.31971	-0.011
Mof_C 	C 	0.5053	0.8606	0.1335	0.078
Mof_C 	C 	0.4741	0.8883	0.0567	0.052
Mof_C 	C 	0.5328	0.892	0.0472	0.074
Mof_C 	C 	0.7579	0.17588	0.81295	-0.113
Mof_H 	H 	0.76266	0.16394	0.77113	0.064
Mof_C 	C 	0.7579	0.21173	0.81295	-0.008
Mof_H 	H 	0.76264	0.22368	0.77113	-0.008
Mof_N 	N 	0.5355	0.8728	0.1095	-0.137
Mof_N 	N 	0.5032	0.9011	0.0226	-0.142
Mof_N 	N 	0.4739	0.8682	0.11	-0.139
Mof_O 	O 	0.6525	0.9739	0.8898	-0.743
Mof_O 	O 	0.68302	0.9452	0.9746	-0.685
Mof_O 	O 	0.34729	0.95539	0.8891	-0.79
Mof_O 	O 	0.3179	0.92645	0.9732	-0.683
Mof_O 	O 	0.48098	0.7809	0.4272	-0.736
Mof_O 	O 	0.53863	0.7813	0.4291	-0.755
Mof_O 	O 	0.73246	0.00962	0.7659	-1.413
Mof_O 	O 	0.7927	0.00961	0.805	-1.285
Mof_O 	O 	0.7187	0.9646	0.8511	-1.354
Mof_O 	O 	0.72032	0.0547	0.854	-1.353
Mof_O 	O 	0.761	0.91	0.8107	-0.896
Mof_O 	O 	0.762	0.11104	0.8036	-0.61
Mof_H 	H 	0.74218	0.84805	0.92047	0.608
Mof_H 	H 	0.77291	0.84805	0.86629	0.594
Mof_H 	H 	0.7349	0.84805	0.83824	0.589
Mof_Zr	Zr	0.18923	0.50994	0.33577	3.176
Mof_Zr	Zr	0.26388	0.5551	0.28495	3.197
Mof_Zr	Zr	0.26369	0.46476	0.28584	3.196
Mof_C 	C 	0.1564	0.4529	0.4402	0.546
Mof_C 	C 	0.1239	0.4366	0.4714	-0.207
Mof_C 	C 	0.1244	0.4146	0.5287	0.112
Mof_H 	H 	0.14535	0.40874	0.54942	-0.01
Mof_C 	C 	0.095	0.4012	0.5557	-0.172
Mof_H 	H 	0.09602	0.38815	0.59721	0.086
Mof_C 	C 	0.0644	0.4064	0.5238	0.065
Mof_C 	C 	0.0626	0.4273	0.4615	-0.154
Mof_H 	H 	0.04196	0.43014	0.43698	0.064
Mof_C 	C 	0.0929	0.4436	0.4384	0.087
Mof_H 	H 	0.09207	0.45908	0.40068	-0.014
Mof_C 	C 	0.8462	0.4353	0.4412	0.63
Mof_C 	C 	0.8778	0.4225	0.4671	-0.356
Mof_C 	C 	0.9091	0.4314	0.4381	0.236
Mof_H 	H 	0.90972	0.44448	0.39659	-0.069
Mof_C 	C 	0.9398	0.4211	0.4703	-0.3
Mof_H 	H 	0.96032	0.4315	0.45618	0.123
Mof_C 	C 	0.9407	0.3981	0.5183	0.178
Mof_C 	C 	0.91	0.3877	0.548	-0.289
Mof_H 	H 	0.91023	0.37206	0.58544	0.125
Mof_C 	C 	0.8798	0.3997	0.5241	0.242
Mof_H 	H 	0.85961	0.39253	0.54618	-0.05
Mof_C 	C 	0.0097	0.2881	0.9024	0.6
Mof_C 	C 	0.0085	0.3045	0.8306	-0.242
Mof_C 	C 	0.0396	0.3149	0.7957	0.133
Mof_H 	H 	0.06086	0.30992	0.81622	-0.021
Mof_C 	C 	0.0381	0.3315	0.7345	-0.184
Mof_H 	H 	0.05854	0.33811	0.71283	0.09
Mof_C 	C 	0.0062	0.3397	0.6999	0.091
Mof_C 	C 	0.9769	0.3303	0.7271	-0.175
Mof_H 	H 	0.9562	0.33422	0.70372	0.089
Mof_C 	C 	0.9783	0.3129	0.7973	0.119
Mof_H 	H 	0.95769	0.30732	0.81971	-0.011
Mof_C 	C 	0.0053	0.3606	0.6335	0.078
Mof_C 	C 	0.9741	0.3883	0.5567	0.053
Mof_C 	C 	0.0328	0.392	0.5472	0.075
Mof_C 	C 	0.2579	0.67588	0.31295	-0.113
Mof_H 	H 	0.26266	0.66394	0.27113	0.064
Mof_C 	C 	0.2579	0.71173	0.31295	-0.008
Mof_H 	H 	0.26264	0.72368	0.27113	-0.008
Mof_N 	N 	0.0355	0.3728	0.6095	-0.137
Mof_N 	N 	0.0032	0.4011	0.5226	-0.142
Mof_N 	N 	0.9739	0.3682	0.61	-0.139
Mof_O 	O 	0.1525	0.4739	0.3898	-0.743
Mof_O 	O 	0.18302	0.4452	0.4746	-0.684
Mof_O 	O 	0.84729	0.45539	0.3891	-0.789
Mof_O 	O 	0.8179	0.42645	0.4732	-0.682
Mof_O 	O 	0.98098	0.2809	0.9272	-0.736
Mof_O 	O 	0.03863	0.2813	0.9291	-0.755
Mof_O 	O 	0.23246	0.50962	0.2659	-1.413
Mof_O 	O 	0.2927	0.50961	0.305	-1.285
Mof_O 	O 	0.2187	0.4646	0.3511	-1.354
Mof_O 	O 	0.22032	0.5547	0.354	-1.353
Mof_O 	O 	0.261	0.41	0.3107	-0.896
Mof_O 	O 	0.262	0.61104	0.3036	-0.61
Mof_H 	H 	0.24218	0.34805	0.42047	0.608
Mof_H 	H 	0.27291	0.34805	0.36629	0.594
Mof_H 	H 	0.2349	0.34805	0.33824	0.589
Mof_Zr	Zr	0.31077	0.99006	0.83577	3.176
Mof_Zr	Zr	0.23612	0.9449	0.78495	3.197
Mof_Zr	Zr	0.23631	0.03524	0.78584	3.196
Mof_C 	C 	0.3436	0.0471	0.9402	0.546
Mof_C 	C 	0.3761	0.0634	0.9714	-0.208
Mof_C 	C 	0.3756	0.0854	0.0287	0.114
Mof_H 	H 	0.35465	0.09126	0.04942	-0.011
Mof_C 	C 	0.405	0.0988	0.0557	-0.174
Mof_H 	H 	0.40398	0.11185	0.09721	0.087
Mof_C 	C 	0.4356	0.0936	0.0238	0.067
Mof_C 	C 	0.4374	0.0727	0.9615	-0.157
Mof_H 	H 	0.45804	0.06986	0.93698	0.065
Mof_C 	C 	0.4071	0.0564	0.9384	0.088
Mof_H 	H 	0.40793	0.04092	0.90068	-0.015
Mof_C 	C 	0.6538	0.0647	0.9412	0.631
Mof_C 	C 	0.6222	0.0775	0.9671	-0.359
Mof_C 	C 	0.5909	0.0686	0.9381	0.238
Mof_H 	H 	0.59028	0.05552	0.89659	-0.07
Mof_C 	C 	0.5602	0.0789	0.9703	-0.303
Mof_H 	H 	0.53968	0.0685	0.95618	0.124
Mof_C 	C 	0.5593	0.1019	0.0183	0.181
Mof_C 	C 	0.59	0.1123	0.048	-0.292
Mof_H 	H 	0.58977	0.12794	0.08544	0.126
Mof_C 	C 	0.6202	0.1003	0.0241	0.245
Mof_H 	H 	0.64039	0.10747	0.04618	-0.051
Mof_C 	C 	0.4903	0.2119	0.4024	0.6
Mof_C 	C 	0.4915	0.1955	0.3306	-0.242
Mof_C 	C 	0.4604	0.1851	0.2957	0.133
Mof_H 	H 	0.43914	0.19008	0.31622	-0.021
Mof_C 	C 	0.4619	0.1685	0.2345	-0.185
Mof_H 	H 	0.44146	0.16189	0.21283	0.09
Mof_C 	C 	0.4938	0.1603	0.1999	0.091
Mof_C 	C 	0.5231	0.1697	0.2271	-0.175
Mof_H 	H 	0.5438	0.16578	0.20372	0.089
Mof_C 	C 	0.5217	0.1871	0.2973	0.119
Mof_H 	H 	0.54231	0.19268	0.31971	-0.011
Mof_C 	C 	0.4947	0.1394	0.1335	0.078
Mof_C 	C 	0.5259	0.1117	0.0567	0.052
Mof_C 	C 	0.4672	0.108	0.0472	0.074
Mof_C 	C 	0.2421	0.82412	0.81295	-0.113
Mof_H 	H 	0.23734	0.83606	0.77113	0.064
Mof_C 	C 	0.2421	0.78827	0.81295	-0.008
Mof_H 	H 	0.23736	0.77632	0.77113	-0.008
Mof_N 	N 	0.4645	0.1272	0.1095	-0.137
Mof_N 	N 	0.4968	0.0989	0.0226	-0.142
Mof_N 	N 	0.5261	0.1318	0.11	-0.139
Mof_O 	O 	0.3475	0.0261	0.8898	-0.743
Mof_O 	O 	0.31698	0.0548	0.9746	-0.685
Mof_O 	O 	0.65271	0.04461	0.8891	-0.79
Mof_O 	O 	0.6821	0.07355	0.9732	-0.683
Mof_O 	O 	0.51902	0.2191	0.4272	-0.736
Mof_O 	O 	0.46137	0.2187	0.4291	-0.755
Mof_O 	O 	0.26754	0.99038	0.7659	-1.413
Mof_O 	O 	0.2073	0.99039	0.805	-1.285
Mof_O 	O 	0.2813	0.0354	0.8511	-1.354
Mof_O 	O 	0.27968	0.9453	0.854	-1.353
Mof_O 	O 	0.239	0.09	0.8107	-0.896
Mof_O 	O 	0.238	0.88896	0.8036	-0.61
Mof_H 	H 	0.25782	0.15195	0.92047	0.608
Mof_H 	H 	0.22709	0.15195	0.86629	0.594
Mof_H 	H 	0.2651	0.15195	0.83824	0.589
Mof_Zr	Zr	0.81077	0.49006	0.33577	3.176
Mof_Zr	Zr	0.73612	0.4449	0.28495	3.197
Mof_Zr	Zr	0.73631	0.53524	0.28584	3.196
Mof_C 	C 	0.8436	0.5471	0.4402	0.546
Mof_C 	C 	0.8761	0.5634	0.4714	-0.207
Mof_C 	C 	0.8756	0.5854	0.5287	0.112
Mof_H 	H 	0.85465	0.59126	0.54942	-0.01
Mof_C 	C 	0.905	0.5988	0.5557	-0.172
Mof_H 	H 	0.90398	0.61185	0.59721	0.086
Mof_C 	C 	0.9356	0.5936	0.5238	0.065
Mof_C 	C 	0.9374	0.5727	0.4615	-0.154
Mof_H 	H 	0.95804	0.56986	0.43698	0.064
Mof_C 	C 	0.9071	0.5564	0.4384	0.087
Mof_H 	H 	0.90793	0.54092	0.40068	-0.014
Mof_C 	C 	0.1538	0.5647	0.4412	0.63
Mof_C 	C 	0.1222	0.5775	0.4671	-0.356
Mof_C 	C 	0.0909	0.5686	0.4381	0.236
Mof_H 	H 	0.09028	0.55552	0.39659	-0.069
Mof_C 	C 	0.0602	0.5789	0.4703	-0.3
Mof_H 	H 	0.03968	0.5685	0.45618	0.123
Mof_C 	C 	0.0593	0.6019	0.5183	0.178
Mof_C 	C 	0.09	0.6123	0.548	-0.289
Mof_H 	H 	0.08977	0.62794	0.58544	0.125
Mof_C 	C 	0.1202	0.6003	0.5241	0.242
Mof_H 	H 	0.14039	0.60747	0.54618	-0.05
Mof_C 	C 	0.9903	0.7119	0.9024	0.6
Mof_C 	C 	0.9915	0.6955	0.8306	-0.242
Mof_C 	C 	0.9604	0.6851	0.7957	0.133
Mof_H 	H 	0.93914	0.69008	0.81622	-0.021
Mof_C 	C 	0.9619	0.6685	0.7345	-0.184
Mof_H 	H 	0.94146	0.66189	0.71283	0.09
Mof_C 	C 	0.9938	0.6603	0.6999	0.091
Mof_C 	C 	0.0231	0.6697	0.7271	-0.175
Mof_H 	H 	0.0438	0.66578	0.70372	0.089
Mof_C 	C 	0.0217	0.6871	0.7973	0.119
Mof_H 	H 	0.04231	0.69268	0.81971	-0.011
Mof_C 	C 	0.9947	0.6394	0.6335	0.078
Mof_C 	C 	0.0259	0.6117	0.5567	0.053
Mof_C 	C 	0.9672	0.608	0.5472	0.075
Mof_C 	C 	0.7421	0.32412	0.31295	-0.113
Mof_H 	H 	0.73734	0.33606	0.27113	0.064
Mof_C 	C 	0.7421	0.28827	0.31295	-0.008
Mof_H 	H 	0.73736	0.27632	0.27113	-0.008
Mof_N 	N 	0.9645	0.6272	0.6095	-0.137
Mof_N 	N 	0.9968	0.5989	0.5226	-0.142
Mof_N 	N 	0.0261	0.6318	0.61	-0.139
Mof_O 	O 	0.8475	0.5261	0.3898	-0.743
Mof_O 	O 	0.81698	0.5548	0.4746	-0.684
Mof_O 	O 	0.15271	0.54461	0.3891	-0.789
Mof_O 	O 	0.1821	0.57355	0.4732	-0.682
Mof_O 	O 	0.01902	0.7191	0.9272	-0.736
Mof_O 	O 	0.96137	0.7187	0.9291	-0.755
Mof_O 	O 	0.76754	0.49038	0.2659	-1.413
Mof_O 	O 	0.7073	0.49039	0.305	-1.285
Mof_O 	O 	0.7813	0.5354	0.3511	-1.354
Mof_O 	O 	0.77968	0.4453	0.354	-1.353
Mof_O 	O 	0.739	0.59	0.3107	-0.896
Mof_O 	O 	0.738	0.38896	0.3036	-0.61
Mof_H 	H 	0.75782	0.65195	0.42047	0.608
Mof_H 	H 	0.72709	0.65195	0.36629	0.594
Mof_H 	H 	0.7651	0.65195	0.33824	0.589
Mof_C 	C 	0.1064	0.75	0.125	1.236
Mof_C 	C 	0.1437	0.75	0.125	-3.608
Mof_C 	C 	0.8809	0.75	0.125	0.125
Mof_C 	C 	0.8421	0.75	0.125	0.044
Mof_C 	C 	0.77029	0.75	0.125	-0.109
Mof_H 	H 	0.74636	0.75	0.125	0.029
Mof_C 	C 	0.8936	0.25	0.125	1.236
Mof_C 	C 	0.8563	0.25	0.125	-3.608
Mof_C 	C 	0.1191	0.25	0.125	0.125
Mof_C 	C 	0.1579	0.25	0.125	0.044
Mof_C 	C 	0.22971	0.25	0.125	-0.109
Mof_H 	H 	0.25364	0.25	0.125	0.029
Mof_C 	C 	0.75	0.8936	0.875	1.236
Mof_C 	C 	0.75	0.8563	0.875	-3.608
Mof_C 	C 	0.75	0.1191	0.875	0.125
Mof_C 	C 	0.75	0.1579	0.875	0.044
Mof_C 	C 	0.75	0.22971	0.875	-0.109
Mof_H 	H 	0.75	0.25364	0.875	0.029
Mof_C 	C 	0.25	0.3936	0.375	1.236
Mof_C 	C 	0.25	0.3563	0.375	-3.608
Mof_C 	C 	0.25	0.6191	0.375	0.125
Mof_C 	C 	0.25	0.6579	0.375	0.044
Mof_C 	C 	0.25	0.72971	0.375	-0.109
Mof_H 	H 	0.25	0.75364	0.375	0.029
Mof_C 	C 	0.25	0.1064	0.875	1.236
Mof_C 	C 	0.25	0.1437	0.875	-3.608
Mof_C 	C 	0.25	0.8809	0.875	0.125
Mof_C 	C 	0.25	0.8421	0.875	0.044
Mof_C 	C 	0.25	0.77029	0.875	-0.109
Mof_H 	H 	0.25	0.74636	0.875	0.029
Mof_C 	C 	0.75	0.6064	0.375	1.236
Mof_C 	C 	0.75	0.6437	0.375	-3.608
Mof_C 	C 	0.75	0.3809	0.375	0.125
Mof_C 	C 	0.75	0.3421	0.375	0.044
Mof_C 	C 	0.75	0.27029	0.375	-0.109
Mof_H 	H 	0.75	0.24636	0.375	0.029
Mof_C 	C 	0.3936	0.75	0.625	1.236
Mof_C 	C 	0.3563	0.75	0.625	-3.608
Mof_C 	C 	0.6191	0.75	0.625	0.125
Mof_C 	C 	0.6579	0.75	0.625	0.044
Mof_C 	C 	0.72971	0.75	0.625	-0.109
Mof_H 	H 	0.75364	0.75	0.625	0.029
Mof_C 	C 	0.6064	0.25	0.625	1.236
Mof_C 	C 	0.6437	0.25	0.625	-3.608
Mof_C 	C 	0.3809	0.25	0.625	0.125
Mof_C 	C 	0.3421	0.25	0.625	0.044
Mof_C 	C 	0.27029	0.25	0.625	-0.109
Mof_H 	H 	0.24636	0.25	0.625	0.029
_end
