# CIF file generated by openbabel 3.1.0, see https://openbabel.org
data_I
_chemical_name_common 'image0'
_cell_length_a 15.3332
_cell_length_b 32.852
_cell_length_c 10.1075
_cell_angle_alpha 90
_cell_angle_beta 106.565
_cell_angle_gamma 90
_space_group_name_H-M_alt 'P 1'
_space_group_name_Hall 'P 1'
loop_
    _symmetry_equiv_pos_as_xyz
    x,y,z
loop_
    _atom_site_label
    _atom_site_type_symbol
    _atom_site_fract_x
    _atom_site_fract_y
    _atom_site_fract_z
    _atom_site_occupancy
    Cu1      Cu       0.57981    0.21666    0.22383    1.000
    Cu2      Cu       0.50667    0.21733    0.48218    1.000
    Cu3      Cu       0.65344    0.27473    0.45904    1.000
    O1       O        0.61720    0.21805    0.42370    1.000
    H1       H        0.65730    0.20060    0.46280    1.000
    O2       O        0.53190    0.15800    0.23350    1.000
    O3       O        0.47150    0.16262    0.41340    1.000
    O4       O        0.70490    0.22826    0.21050    1.000
    O5       O        0.76190    0.26697    0.39870    1.000
    O6       O        0.54370    0.27520    0.52670    1.000
    H2       H        0.50360    0.29210    0.48390    1.000
    O7       O        0.04660    0.33450    0.45690    1.000
    O8       O        0.09680    0.33690    0.29120    1.000
    O9       O        0.00340    0.30450    0.00090    1.000
    O10      O        0.11740    0.34570    0.00470    1.000
    O11      O        0.27420    0.99640    0.38700    1.000
    O12      O        0.27700    0.05090    0.47500    1.000
    O13      O        0.29410    0.01840    0.00800    1.000
    O14      O        0.29410    0.96970    0.87160    1.000
    O15      O        0.40120    0.27866    0.04780    1.000
    O16      O        0.45400    0.23979    0.23460    1.000
    O17      O        0.40130    0.81978    0.27020    1.000
    O18      O        0.33700    0.83251    0.04730    1.000
    C1       C        0.49240    0.14380    0.31670    1.000
    C2       C        0.46520    0.10000    0.29890    1.000
    C3       C        0.51100    0.07370    0.23670    1.000
    H3       H        0.55810    0.08350    0.20440    1.000
    C4       C        0.48790    0.03260    0.22140    1.000
    H4       H        0.52200    0.01500    0.18360    1.000
    C5       C        0.41430    0.01730    0.26170    1.000
    C6       C        0.36990    0.04450    0.32520    1.000
    C7       C        0.39510    0.08490    0.34600    1.000
    H5       H        0.36490    0.10200    0.39170    1.000
    C8       C        0.39330    0.97320    0.24020    1.000
    C9       C        0.35140    0.95640    0.11280    1.000
    C10      C        0.34270    0.91500    0.08880    1.000
    H6       H        0.31360    0.90500    0.00120    1.000
    C11      C        0.37790    0.88870    0.19710    1.000
    C12      C        0.42100    0.90470    0.32430    1.000
    H7       H        0.44530    0.88730    0.39800    1.000
    C13      C        0.42910    0.94610    0.34480    1.000
    H8       H        0.45960    0.95600    0.43190    1.000
    C14      C        0.37320    0.84330    0.17530    1.000
    C15      C        0.76830    0.24786    0.29590    1.000
    C16      C        0.85880    0.24830    0.26810    1.000
    C17      C        0.91690    0.28060    0.32170    1.000
    H9       H        0.89960    0.30090    0.37320    1.000
    C18      C        0.00030    0.28190    0.29690    1.000
    C19      C        0.03060    0.25210    0.21940    1.000
    C20      C        0.97270    0.21930    0.17500    1.000
    H10      H        0.99180    0.19770    0.13070    1.000
    C21      C        0.88640    0.21800    0.19510    1.000
    H11      H        0.84740    0.19650    0.15910    1.000
    C22      C        0.12070    0.25350    0.19070    1.000
    C23      C        0.18450    0.22300    0.24530    1.000
    H12      H        0.16720    0.20120    0.29110    1.000
    C24      C        0.27090    0.22390    0.23390    1.000
    H13      H        0.31210    0.20370    0.27530    1.000
    C25      C        0.29760    0.25510    0.16030    1.000
    C26      C        0.23340    0.28440    0.09590    1.000
    H14      H        0.24900    0.30470    0.04280    1.000
    C27      C        0.14680    0.28310    0.11120    1.000
    C28      C        0.39350    0.25801    0.14930    1.000
    N1       N        0.31420    0.02870    0.41110    1.000
    N2       N        0.06100    0.31570    0.36090    1.000
    N3       N        0.08350    0.31480    0.03600    1.000
    N4       N        0.31140    0.98300    0.98920    1.000
    O19      O        0.02540    0.34590    0.39290    1.000
    O20      O        0.14230    0.30710    0.39950    1.000
    O21      O        0.00440    0.31430    0.03770    1.000
    O22      O        0.10580    0.33640    0.95250    1.000
    O23      O        0.24090    0.00260    0.29600    1.000
    O24      O        0.22580    0.05870    0.36600    1.000
    O25      O        0.26490    0.00960    0.02100    1.000
    O26      O        0.33870    0.97340    0.89090    1.000
    N5       N        0.27930    0.03400    0.34400    1.000
    Cu4      Cu       0.42019    0.71666    0.27617    1.000
    Cu5      Cu       0.49333    0.71733    0.01782    1.000
    Cu6      Cu       0.34656    0.77473    0.04096    1.000
    O27      O        0.38280    0.71805    0.07630    1.000
    H15      H        0.34270    0.70060    0.03720    1.000
    O28      O        0.46810    0.65800    0.26650    1.000
    O29      O        0.52850    0.66262    0.08660    1.000
    O30      O        0.29510    0.72826    0.28950    1.000
    O31      O        0.23810    0.76697    0.10130    1.000
    O32      O        0.45630    0.77520    0.97330    1.000
    H16      H        0.49640    0.79210    0.01610    1.000
    O33      O        0.95340    0.83450    0.04310    1.000
    O34      O        0.90320    0.83690    0.20880    1.000
    O35      O        0.99660    0.80450    0.49910    1.000
    O36      O        0.88260    0.84570    0.49530    1.000
    O37      O        0.72580    0.49640    0.11300    1.000
    O38      O        0.72300    0.55090    0.02500    1.000
    O39      O        0.70590    0.51840    0.49200    1.000
    O40      O        0.70590    0.46970    0.62840    1.000
    O41      O        0.59880    0.77866    0.45220    1.000
    O42      O        0.54600    0.73979    0.26540    1.000
    O43      O        0.59870    0.31978    0.22980    1.000
    O44      O        0.66300    0.33251    0.45270    1.000
    C29      C        0.50760    0.64380    0.18330    1.000
    C30      C        0.53480    0.60000    0.20110    1.000
    C31      C        0.48900    0.57370    0.26330    1.000
    H17      H        0.44190    0.58350    0.29560    1.000
    C32      C        0.51210    0.53260    0.27860    1.000
    H18      H        0.47800    0.51500    0.31640    1.000
    C33      C        0.58570    0.51730    0.23830    1.000
    C34      C        0.63010    0.54450    0.17480    1.000
    C35      C        0.60490    0.58490    0.15400    1.000
    H19      H        0.63510    0.60200    0.10830    1.000
    C36      C        0.60670    0.47320    0.25980    1.000
    C37      C        0.64860    0.45640    0.38720    1.000
    C38      C        0.65730    0.41500    0.41120    1.000
    H20      H        0.68640    0.40500    0.49880    1.000
    C39      C        0.62210    0.38870    0.30290    1.000
    C40      C        0.57900    0.40470    0.17570    1.000
    H21      H        0.55470    0.38730    0.10200    1.000
    C41      C        0.57090    0.44610    0.15520    1.000
    H22      H        0.54040    0.45600    0.06810    1.000
    C42      C        0.62680    0.34330    0.32470    1.000
    C43      C        0.23170    0.74786    0.20410    1.000
    C44      C        0.14120    0.74830    0.23190    1.000
    C45      C        0.08310    0.78060    0.17830    1.000
    H23      H        0.10040    0.80090    0.12680    1.000
    C46      C        0.99970    0.78190    0.20310    1.000
    C47      C        0.96940    0.75210    0.28060    1.000
    C48      C        0.02730    0.71930    0.32500    1.000
    H24      H        0.00820    0.69770    0.36930    1.000
    C49      C        0.11360    0.71800    0.30490    1.000
    H25      H        0.15260    0.69650    0.34090    1.000
    C50      C        0.87930    0.75350    0.30930    1.000
    C51      C        0.81550    0.72300    0.25470    1.000
    H26      H        0.83280    0.70120    0.20890    1.000
    C52      C        0.72910    0.72390    0.26610    1.000
    H27      H        0.68790    0.70370    0.22470    1.000
    C53      C        0.70240    0.75510    0.33970    1.000
    C54      C        0.76660    0.78440    0.40410    1.000
    H28      H        0.75100    0.80470    0.45720    1.000
    C55      C        0.85320    0.78310    0.38880    1.000
    C56      C        0.60650    0.75801    0.35070    1.000
    N6       N        0.68580    0.52870    0.08890    1.000
    N7       N        0.93900    0.81570    0.13910    1.000
    N8       N        0.91650    0.81480    0.46400    1.000
    N9       N        0.68860    0.48300    0.51080    1.000
    O45      O        0.97460    0.84590    0.10710    1.000
    O46      O        0.85770    0.80710    0.10050    1.000
    O47      O        0.99560    0.81430    0.46230    1.000
    O48      O        0.89420    0.83640    0.54750    1.000
    O49      O        0.75910    0.50260    0.20400    1.000
    O50      O        0.77420    0.55870    0.13400    1.000
    O51      O        0.73510    0.50960    0.47900    1.000
    O52      O        0.66130    0.47340    0.60910    1.000
    N10      N        0.72070    0.53400    0.15600    1.000
    Cu7      Cu       0.42019    0.78334    0.77617    1.000
    Cu8      Cu       0.49333    0.78267    0.51782    1.000
    Cu9      Cu       0.34656    0.72527    0.54096    1.000
    O53      O        0.38280    0.78195    0.57630    1.000
    H29      H        0.34270    0.79940    0.53720    1.000
    O54      O        0.46810    0.84200    0.76650    1.000
    O55      O        0.52850    0.83738    0.58660    1.000
    O56      O        0.29510    0.77174    0.78950    1.000
    O57      O        0.23810    0.73303    0.60130    1.000
    O58      O        0.45630    0.72480    0.47330    1.000
    H30      H        0.49640    0.70790    0.51610    1.000
    O59      O        0.95340    0.66550    0.54310    1.000
    O60      O        0.90320    0.66310    0.70880    1.000
    O61      O        0.99660    0.69550    0.99910    1.000
    O62      O        0.88260    0.65430    0.99530    1.000
    O63      O        0.72580    0.00360    0.61300    1.000
    O64      O        0.72300    0.94910    0.52500    1.000
    O65      O        0.70590    0.98160    0.99200    1.000
    O66      O        0.70590    0.03030    0.12840    1.000
    O67      O        0.59880    0.72134    0.95220    1.000
    O68      O        0.54600    0.76021    0.76540    1.000
    O69      O        0.59870    0.18022    0.72980    1.000
    O70      O        0.66300    0.16749    0.95270    1.000
    C57      C        0.50760    0.85620    0.68330    1.000
    C58      C        0.53480    0.90000    0.70110    1.000
    C59      C        0.48900    0.92630    0.76330    1.000
    H31      H        0.44190    0.91650    0.79560    1.000
    C60      C        0.51210    0.96740    0.77860    1.000
    H32      H        0.47800    0.98500    0.81640    1.000
    C61      C        0.58570    0.98270    0.73830    1.000
    C62      C        0.63010    0.95550    0.67480    1.000
    C63      C        0.60490    0.91510    0.65400    1.000
    H33      H        0.63510    0.89800    0.60830    1.000
    C64      C        0.60670    0.02680    0.75980    1.000
    C65      C        0.64860    0.04360    0.88720    1.000
    C66      C        0.65730    0.08500    0.91120    1.000
    H34      H        0.68640    0.09500    0.99880    1.000
    C67      C        0.62210    0.11130    0.80290    1.000
    C68      C        0.57900    0.09530    0.67570    1.000
    H35      H        0.55470    0.11270    0.60200    1.000
    C69      C        0.57090    0.05390    0.65520    1.000
    H36      H        0.54040    0.04400    0.56810    1.000
    C70      C        0.62680    0.15670    0.82470    1.000
    C71      C        0.23170    0.75214    0.70410    1.000
    C72      C        0.14120    0.75170    0.73190    1.000
    C73      C        0.08310    0.71940    0.67830    1.000
    H37      H        0.10040    0.69910    0.62680    1.000
    C74      C        0.99970    0.71810    0.70310    1.000
    C75      C        0.96940    0.74790    0.78060    1.000
    C76      C        0.02730    0.78070    0.82500    1.000
    H38      H        0.00820    0.80230    0.86930    1.000
    C77      C        0.11360    0.78200    0.80490    1.000
    H39      H        0.15260    0.80350    0.84090    1.000
    C78      C        0.87930    0.74650    0.80930    1.000
    C79      C        0.81550    0.77700    0.75470    1.000
    H40      H        0.83280    0.79880    0.70890    1.000
    C80      C        0.72910    0.77610    0.76610    1.000
    H41      H        0.68790    0.79630    0.72470    1.000
    C81      C        0.70240    0.74490    0.83970    1.000
    C82      C        0.76660    0.71560    0.90410    1.000
    H42      H        0.75100    0.69530    0.95720    1.000
    C83      C        0.85320    0.71690    0.88880    1.000
    C84      C        0.60650    0.74199    0.85070    1.000
    N11      N        0.68580    0.97130    0.58890    1.000
    N12      N        0.93900    0.68430    0.63910    1.000
    N13      N        0.91650    0.68520    0.96400    1.000
    N14      N        0.68860    0.01700    0.01080    1.000
    O71      O        0.97460    0.65410    0.60710    1.000
    O72      O        0.85770    0.69290    0.60050    1.000
    O73      O        0.99560    0.68570    0.96230    1.000
    O74      O        0.89420    0.66360    0.04750    1.000
    O75      O        0.75910    0.99740    0.70400    1.000
    O76      O        0.77420    0.94130    0.63400    1.000
    O77      O        0.73510    0.99040    0.97900    1.000
    O78      O        0.66130    0.02660    0.10910    1.000
    N15      N        0.72070    0.96600    0.65600    1.000
    Cu10     Cu       0.57981    0.28334    0.72383    1.000
    Cu11     Cu       0.50667    0.28267    0.98218    1.000
    Cu12     Cu       0.65344    0.22527    0.95904    1.000
    O79      O        0.61720    0.28195    0.92370    1.000
    H43      H        0.65730    0.29940    0.96280    1.000
    O80      O        0.53190    0.34200    0.73350    1.000
    O81      O        0.47150    0.33738    0.91340    1.000
    O82      O        0.70490    0.27174    0.71050    1.000
    O83      O        0.76190    0.23303    0.89870    1.000
    O84      O        0.54370    0.22480    0.02670    1.000
    H44      H        0.50360    0.20790    0.98390    1.000
    O85      O        0.04660    0.16550    0.95690    1.000
    O86      O        0.09680    0.16310    0.79120    1.000
    O87      O        0.00340    0.19550    0.50090    1.000
    O88      O        0.11740    0.15430    0.50470    1.000
    O89      O        0.27420    0.50360    0.88700    1.000
    O90      O        0.27700    0.44910    0.97500    1.000
    O91      O        0.29410    0.48160    0.50800    1.000
    O92      O        0.29410    0.53030    0.37160    1.000
    O93      O        0.40120    0.22134    0.54780    1.000
    O94      O        0.45400    0.26021    0.73460    1.000
    O95      O        0.40130    0.68022    0.77020    1.000
    O96      O        0.33700    0.66749    0.54730    1.000
    C85      C        0.49240    0.35620    0.81670    1.000
    C86      C        0.46520    0.40000    0.79890    1.000
    C87      C        0.51100    0.42630    0.73670    1.000
    H45      H        0.55810    0.41650    0.70440    1.000
    C88      C        0.48790    0.46740    0.72140    1.000
    H46      H        0.52200    0.48500    0.68360    1.000
    C89      C        0.41430    0.48270    0.76170    1.000
    C90      C        0.36990    0.45550    0.82520    1.000
    C91      C        0.39510    0.41510    0.84600    1.000
    H47      H        0.36490    0.39800    0.89170    1.000
    C92      C        0.39330    0.52680    0.74020    1.000
    C93      C        0.35140    0.54360    0.61280    1.000
    C94      C        0.34270    0.58500    0.58880    1.000
    H48      H        0.31360    0.59500    0.50120    1.000
    C95      C        0.37790    0.61130    0.69710    1.000
    C96      C        0.42100    0.59530    0.82430    1.000
    H49      H        0.44530    0.61270    0.89800    1.000
    C97      C        0.42910    0.55390    0.84480    1.000
    H50      H        0.45960    0.54400    0.93190    1.000
    C98      C        0.37320    0.65670    0.67530    1.000
    C99      C        0.76830    0.25214    0.79590    1.000
    C100     C        0.85880    0.25170    0.76810    1.000
    C101     C        0.91690    0.21940    0.82170    1.000
    H51      H        0.89960    0.19910    0.87320    1.000
    C102     C        0.00030    0.21810    0.79690    1.000
    C103     C        0.03060    0.24790    0.71940    1.000
    C104     C        0.97270    0.28070    0.67500    1.000
    H52      H        0.99180    0.30230    0.63070    1.000
    C105     C        0.88640    0.28200    0.69510    1.000
    H53      H        0.84740    0.30350    0.65910    1.000
    C106     C        0.12070    0.24650    0.69070    1.000
    C107     C        0.18450    0.27700    0.74530    1.000
    H54      H        0.16720    0.29880    0.79110    1.000
    C108     C        0.27090    0.27610    0.73390    1.000
    H55      H        0.31210    0.29630    0.77530    1.000
    C109     C        0.29760    0.24490    0.66030    1.000
    C110     C        0.23340    0.21560    0.59590    1.000
    H56      H        0.24900    0.19530    0.54280    1.000
    C111     C        0.14680    0.21690    0.61120    1.000
    C112     C        0.39350    0.24199    0.64930    1.000
    N16      N        0.31420    0.47130    0.91110    1.000
    N17      N        0.06100    0.18430    0.86090    1.000
    N18      N        0.08350    0.18520    0.53600    1.000
    N19      N        0.31140    0.51700    0.48920    1.000
    O97      O        0.02540    0.15410    0.89290    1.000
    O98      O        0.14230    0.19290    0.89950    1.000
    O99      O        0.00440    0.18570    0.53770    1.000
    O100     O        0.10580    0.16360    0.45250    1.000
    O101     O        0.24090    0.49740    0.79600    1.000
    O102     O        0.22580    0.44130    0.86600    1.000
    O103     O        0.26490    0.49040    0.52100    1.000
    O104     O        0.33870    0.52660    0.39090    1.000
    N20      N        0.27930    0.46600    0.84400    1.000
