# CIF file generated by openbabel 3.1.0, see https://openbabel.org
data_I
_chemical_name_common 'image0'
_cell_length_a 8.6544
_cell_length_b 10.3809
_cell_length_c 10.7646
_cell_angle_alpha 90
_cell_angle_beta 90
_cell_angle_gamma 90
_space_group_name_H-M_alt 'P 1'
_space_group_name_Hall 'P 1'
loop_
    _symmetry_equiv_pos_as_xyz
    x,y,z
loop_
    _atom_site_label
    _atom_site_type_symbol
    _atom_site_fract_x
    _atom_site_fract_y
    _atom_site_fract_z
    _atom_site_occupancy
    Pr1      Pr       0.49280    0.39847    0.61346    1.000
    P1       P        0.69340    0.58160    0.86180    1.000
    P2       P        0.34240    0.58570    0.89250    1.000
    O1       O        0.67720    0.47210    0.76930    1.000
    O2       O        0.67090    0.71530    0.80260    1.000
    O3       O        0.84160    0.57080    0.93650    1.000
    O4       O        0.21950    0.54480    0.98440    1.000
    O5       O        0.32490    0.72560    0.85680    1.000
    O6       O        0.34540    0.49710    0.77920    1.000
    O7       O        0.54280    0.69510    0.04500    1.000
    H1       H        0.63100    0.69820    0.07870    1.000
    C1       C        0.53220    0.57470    0.96960    1.000
    C2       C        0.54060    0.45750    0.05490    1.000
    H2       H        0.64010    0.45450    0.09410    1.000
    H3       H        0.52540    0.38060    0.00690    1.000
    H4       H        0.46160    0.46370    0.11720    1.000
    Pr2      Pr       0.00720    0.60153    0.11346    1.000
    P3       P        0.80660    0.41840    0.36180    1.000
    P4       P        0.15760    0.41430    0.39250    1.000
    O8       O        0.82280    0.52790    0.26930    1.000
    O9       O        0.82910    0.28470    0.30260    1.000
    O10      O        0.65840    0.42920    0.43650    1.000
    O11      O        0.28050    0.45520    0.48440    1.000
    O12      O        0.17510    0.27440    0.35680    1.000
    O13      O        0.15460    0.50290    0.27920    1.000
    O14      O        0.95720    0.30490    0.54500    1.000
    H5       H        0.86900    0.30180    0.57870    1.000
    C3       C        0.96780    0.42530    0.46960    1.000
    C4       C        0.95940    0.54250    0.55490    1.000
    H6       H        0.85990    0.54550    0.59410    1.000
    H7       H        0.97460    0.61940    0.50690    1.000
    H8       H        0.03840    0.53630    0.61720    1.000
    Pr3      Pr       0.50720    0.89847    0.88654    1.000
    P5       P        0.30660    0.08160    0.63820    1.000
    P6       P        0.65760    0.08570    0.60750    1.000
    O15      O        0.32280    0.97210    0.73070    1.000
    O16      O        0.32910    0.21530    0.69740    1.000
    O17      O        0.15840    0.07080    0.56350    1.000
    O18      O        0.78050    0.04480    0.51560    1.000
    O19      O        0.67510    0.22560    0.64320    1.000
    O20      O        0.65460    0.99710    0.72080    1.000
    O21      O        0.45720    0.19510    0.45500    1.000
    H9       H        0.36900    0.19820    0.42130    1.000
    C5       C        0.46780    0.07470    0.53040    1.000
    C6       C        0.45940    0.95750    0.44510    1.000
    H10      H        0.35990    0.95450    0.40590    1.000
    H11      H        0.47460    0.88060    0.49310    1.000
    H12      H        0.53840    0.96370    0.38280    1.000
    Pr4      Pr       0.99280    0.10153    0.38654    1.000
    P7       P        0.19340    0.91840    0.13820    1.000
    P8       P        0.84240    0.91430    0.10750    1.000
    O22      O        0.17720    0.02790    0.23070    1.000
    O23      O        0.17090    0.78470    0.19740    1.000
    O24      O        0.34160    0.92920    0.06350    1.000
    O25      O        0.71950    0.95520    0.01560    1.000
    O26      O        0.82490    0.77440    0.14320    1.000
    O27      O        0.84540    0.00290    0.22080    1.000
    O28      O        0.04280    0.80490    0.95500    1.000
    H13      H        0.13100    0.80180    0.92130    1.000
    C7       C        0.03220    0.92530    0.03040    1.000
    C8       C        0.04060    0.04250    0.94510    1.000
    H14      H        0.14010    0.04550    0.90590    1.000
    H15      H        0.02540    0.11940    0.99310    1.000
    H16      H        0.96160    0.03630    0.88280    1.000
