data_functionalizedCrystal
_audit_creation_method	'EQeq! by Chris Wilmer'
_symmetry_space_group_name_H-M	'P1'
_symmetry_Int_Tables_number	1
_symmetry_cell_setting	triclinic
loop_
_symmetry_equiv_pos_as_xyz
  x,y,z
_cell_length_a	13.454
_cell_length_b	13.454
_cell_length_c	14.856
_cell_angle_alpha	90
_cell_angle_beta	90
_cell_angle_gamma	120
loop_
_atom_site_label
_atom_site_type_symbol
_atom_site_fract_x
_atom_site_fract_y
_atom_site_fract_z
_atom_site_charge
Mof_Sm	Sm	0.66667	0.33334	0.66925	2.331
Mof_Sm	Sm	0.33333	0.66666	0.83075	2.333
Mof_Sm	Sm	0.33333	0.66666	0.33075	2.324
Mof_Sm	Sm	0.66667	0.33334	0.16925	2.323
Mof_Cu	Cu	0.5	0.5	-0	0.9
Mof_Cu	Cu	-0	0.5	-0	0.872
Mof_Cu	Cu	0.5	0	-0	0.87
Mof_Cu	Cu	3.00217e-17	0.5	0.5	0.898
Mof_Cu	Cu	0.5	0.5	0.5	0.927
Mof_Cu	Cu	0.5	0	0.5	0.897
Mof_H 	H 	0.326	0.3517	0.9235	0.094
Mof_H 	H 	0.4571	0.2687	0.872	0.157
Mof_H 	H 	0.3966	0.3171	0.8103	0.134
Mof_H 	H 	0.2932	0.2543	0.048	0.159
Mof_H 	H 	0.3193	0.1819	0.979	0.21
Mof_H 	H 	0.0257	0.674	0.9235	0.044
Mof_H 	H 	0.8116	0.5429	0.872	0.167
Mof_H 	H 	0.9205	0.6034	0.8103	0.164
Mof_H 	H 	0.9611	0.7068	0.048	0.205
Mof_H 	H 	0.8626	0.6807	0.979	0.24
Mof_H 	H 	0.6483	0.9743	0.9235	0.158
Mof_H 	H 	0.7313	0.1884	0.872	0.162
Mof_H 	H 	0.6829	0.0795	0.8103	0.122
Mof_H 	H 	0.7457	0.0389	0.048	0.148
Mof_H 	H 	0.8181	0.1374	0.979	0.223
Mof_H 	H 	0.9743	0.6483	0.5765	0.154
Mof_H 	H 	0.1884	0.7313	0.628	0.151
Mof_H 	H 	0.0795	0.6829	0.6897	0.121
Mof_H 	H 	0.0389	0.7457	0.452	0.102
Mof_H 	H 	0.1374	0.8181	0.521	0.125
Mof_H 	H 	0.3517	0.326	0.5765	0.091
Mof_H 	H 	0.2687	0.4571	0.628	0.146
Mof_H 	H 	0.3171	0.3966	0.6897	0.132
Mof_H 	H 	0.2543	0.2932	0.452	0.11
Mof_H 	H 	0.1819	0.3193	0.521	0.107
Mof_H 	H 	0.674	0.0257	0.5765	0.037
Mof_H 	H 	0.5429	0.8116	0.628	0.156
Mof_H 	H 	0.6034	0.9205	0.6897	0.163
Mof_H 	H 	0.7068	0.9611	0.452	0.16
Mof_H 	H 	0.6807	0.8626	0.521	0.144
Mof_H 	H 	0.674	0.6483	0.0765	0.097
Mof_H 	H 	0.5429	0.7313	0.128	0.144
Mof_H 	H 	0.6034	0.6829	0.1897	0.141
Mof_H 	H 	0.7068	0.7457	0.952	0.091
Mof_H 	H 	0.6807	0.8181	0.021	0.045
Mof_H 	H 	0.9743	0.326	0.0765	0.15
Mof_H 	H 	0.1884	0.4571	0.128	0.132
Mof_H 	H 	0.0795	0.3966	0.1897	0.109
Mof_H 	H 	0.0389	0.2932	0.952	0.04
Mof_H 	H 	0.1374	0.3193	0.021	0.002
Mof_H 	H 	0.3517	0.0257	0.0765	0.031
Mof_H 	H 	0.2687	0.8116	0.128	0.138
Mof_H 	H 	0.3171	0.9205	0.1897	0.153
Mof_H 	H 	0.2543	0.9611	0.952	0.1
Mof_H 	H 	0.1819	0.8626	0.021	0.026
Mof_H 	H 	0.0257	0.3517	0.4235	0.036
Mof_H 	H 	0.8116	0.2687	0.372	0.15
Mof_H 	H 	0.9205	0.3171	0.3103	0.155
Mof_H 	H 	0.9611	0.2543	0.548	0.145
Mof_H 	H 	0.8626	0.1819	0.479	0.124
Mof_H 	H 	0.6483	0.674	0.4235	0.098
Mof_H 	H 	0.7313	0.5429	0.372	0.156
Mof_H 	H 	0.6829	0.6034	0.3103	0.145
Mof_H 	H 	0.7457	0.7068	0.548	0.138
Mof_H 	H 	0.8181	0.6807	0.479	0.143
Mof_H 	H 	0.326	0.9743	0.4235	0.154
Mof_H 	H 	0.4571	0.1884	0.372	0.144
Mof_H 	H 	0.3966	0.0795	0.3103	0.111
Mof_H 	H 	0.2932	0.0389	0.548	0.088
Mof_H 	H 	0.3193	0.1374	0.479	0.106
Mof_C 	C 	0.5605	0.4385	0.8428	0.489
Mof_C 	C 	0.4461	0.3339	0.8623	-0.375
Mof_C 	C 	0.352	0.2553	0.0097	-0.497
Mof_C 	C 	0.452	0.2718	0.0668	0.435
Mof_C 	C 	0.878	0.4395	0.8428	0.498
Mof_C 	C 	0.8878	0.5539	0.8623	-0.387
Mof_C 	C 	0.9033	0.648	0.0097	-0.516
Mof_C 	C 	0.8198	0.548	0.0668	0.449
Mof_C 	C 	0.5615	0.122	0.8428	0.483
Mof_C 	C 	0.6661	0.1122	0.8623	-0.37
Mof_C 	C 	0.7447	0.0967	0.0097	-0.49
Mof_C 	C 	0.7282	0.1802	0.0668	0.429
Mof_C 	C 	0.122	0.5615	0.6572	0.478
Mof_C 	C 	0.1122	0.6661	0.6377	-0.366
Mof_C 	C 	0.0967	0.7447	0.4903	-0.293
Mof_C 	C 	0.1802	0.7282	0.4332	0.381
Mof_C 	C 	0.4385	0.5605	0.6572	0.483
Mof_C 	C 	0.3339	0.4461	0.6377	-0.37
Mof_C 	C 	0.2553	0.352	0.4903	-0.292
Mof_C 	C 	0.2718	0.452	0.4332	0.384
Mof_C 	C 	0.4395	0.878	0.6572	0.493
Mof_C 	C 	0.5539	0.8878	0.6377	-0.383
Mof_C 	C 	0.648	0.9033	0.4903	-0.324
Mof_C 	C 	0.548	0.8198	0.4332	0.403
Mof_C 	C 	0.4395	0.5615	0.1572	0.48
Mof_C 	C 	0.5539	0.6661	0.1377	-0.368
Mof_C 	C 	0.648	0.7447	0.9903	-0.118
Mof_C 	C 	0.548	0.7282	0.9332	0.347
Mof_C 	C 	0.122	0.5605	0.1572	0.468
Mof_C 	C 	0.1122	0.4461	0.1377	-0.35
Mof_C 	C 	0.0967	0.352	0.9903	-0.072
Mof_C 	C 	0.1802	0.452	0.9332	0.326
Mof_C 	C 	0.4385	0.878	0.1572	0.484
Mof_C 	C 	0.3339	0.8878	0.1377	-0.368
Mof_C 	C 	0.2553	0.9033	0.9903	-0.114
Mof_C 	C 	0.2718	0.8198	0.9332	0.35
Mof_C 	C 	0.878	0.4385	0.3428	0.49
Mof_C 	C 	0.8878	0.3339	0.3623	-0.377
Mof_C 	C 	0.9033	0.2553	0.5097	-0.312
Mof_C 	C 	0.8198	0.2718	0.5668	0.397
Mof_C 	C 	0.5615	0.4395	0.3428	0.487
Mof_C 	C 	0.6661	0.5539	0.3623	-0.378
Mof_C 	C 	0.7447	0.648	0.5097	-0.316
Mof_C 	C 	0.7282	0.548	0.5668	0.395
Mof_C 	C 	0.5605	0.122	0.3428	0.475
Mof_C 	C 	0.4461	0.1122	0.3623	-0.36
Mof_C 	C 	0.352	0.0967	0.5097	-0.28
Mof_C 	C 	0.452	0.1802	0.5668	0.376
Mof_N 	N 	0.3888	0.3486	0.94212	-0.104
Mof_N 	N 	0.9598	0.6112	0.94212	-0.048
Mof_N 	N 	0.6514	0.0402	0.94212	-0.155
Mof_N 	N 	0.0402	0.6514	0.55788	-0.207
Mof_N 	N 	0.3486	0.3888	0.55788	-0.159
Mof_N 	N 	0.6112	0.9598	0.55788	-0.094
Mof_N 	N 	0.6112	0.6514	0.05788	-0.201
Mof_N 	N 	0.0402	0.3888	0.05788	-0.26
Mof_N 	N 	0.3486	0.9598	0.05788	-0.143
Mof_N 	N 	0.9598	0.3486	0.44212	-0.1
Mof_N 	N 	0.6514	0.6112	0.44212	-0.154
Mof_N 	N 	0.3888	0.0402	0.44212	-0.213
Mof_O 	O 	0.5975	0.524	0.89503	-0.412
Mof_O 	O 	0.6147	0.4364	0.7751	-0.537
Mof_O 	O 	0.547	0.3631	0.05678	-0.556
Mof_O 	O 	0.4381	0.1963	0.1234	-0.442
Mof_O 	O 	0.9265	0.4025	0.89503	-0.386
Mof_O 	O 	0.8217	0.3853	0.7751	-0.532
Mof_O 	O 	0.8161	0.453	0.05678	-0.547
Mof_O 	O 	0.7582	0.5619	0.1234	-0.429
Mof_O 	O 	0.476	0.0735	0.89503	-0.436
Mof_O 	O 	0.5636	0.1783	0.7751	-0.546
Mof_O 	O 	0.6369	0.1839	0.05678	-0.559
Mof_O 	O 	0.8037	0.2418	0.1234	-0.428
Mof_O 	O 	0.0735	0.476	0.60497	-0.454
Mof_O 	O 	0.1783	0.5636	0.7249	-0.547
Mof_O 	O 	0.1839	0.6369	0.44322	-0.531
Mof_O 	O 	0.2418	0.8037	0.3766	-0.406
Mof_O 	O 	0.524	0.5975	0.60497	-0.431
Mof_O 	O 	0.4364	0.6147	0.7249	-0.538
Mof_O 	O 	0.3631	0.547	0.44322	-0.527
Mof_O 	O 	0.1963	0.4381	0.3766	-0.42
Mof_O 	O 	0.4025	0.9265	0.60497	-0.402
Mof_O 	O 	0.3853	0.8217	0.7249	-0.533
Mof_O 	O 	0.453	0.8161	0.44322	-0.519
Mof_O 	O 	0.5619	0.7582	0.3766	-0.409
Mof_O 	O 	0.4025	0.476	0.10497	-0.444
Mof_O 	O 	0.3853	0.5636	0.2249	-0.54
Mof_O 	O 	0.453	0.6369	0.94322	-0.496
Mof_O 	O 	0.5619	0.8037	0.8766	-0.382
Mof_O 	O 	0.0735	0.5975	0.10497	-0.461
Mof_O 	O 	0.1783	0.6147	0.2249	-0.544
Mof_O 	O 	0.1839	0.547	0.94322	-0.496
Mof_O 	O 	0.2418	0.4381	0.8766	-0.393
Mof_O 	O 	0.524	0.9265	0.10497	-0.408
Mof_O 	O 	0.4364	0.8217	0.2249	-0.53
Mof_O 	O 	0.3631	0.8161	0.94322	-0.486
Mof_O 	O 	0.1963	0.7582	0.8766	-0.395
Mof_O 	O 	0.9265	0.524	0.39503	-0.401
Mof_O 	O 	0.8217	0.4364	0.2751	-0.529
Mof_O 	O 	0.8161	0.3631	0.55678	-0.52
Mof_O 	O 	0.7582	0.1963	0.6234	-0.417
Mof_O 	O 	0.476	0.4025	0.39503	-0.436
Mof_O 	O 	0.5636	0.3853	0.2751	-0.539
Mof_O 	O 	0.6369	0.453	0.55678	-0.529
Mof_O 	O 	0.8037	0.5619	0.6234	-0.403
Mof_O 	O 	0.5975	0.0735	0.39503	-0.453
Mof_O 	O 	0.6147	0.1783	0.2751	-0.544
Mof_O 	O 	0.547	0.1839	0.55678	-0.531
Mof_O 	O 	0.4381	0.2418	0.6234	-0.415
_end
