# CIF file generated by openbabel 3.1.0, see https://openbabel.org
data_I
_chemical_name_common 'image0'
_cell_length_a 8.504
_cell_length_b 14.441
_cell_length_c 45.883
_cell_angle_alpha 90
_cell_angle_beta 90
_cell_angle_gamma 90
_space_group_name_H-M_alt 'P 1'
_space_group_name_Hall 'P 1'
loop_
    _symmetry_equiv_pos_as_xyz
    x,y,z
loop_
    _atom_site_label
    _atom_site_type_symbol
    _atom_site_fract_x
    _atom_site_fract_y
    _atom_site_fract_z
    _atom_site_occupancy
    C1       C        0.99800    0.02850    0.09580    1.000
    C2       C        0.95200    0.97430    0.07980    1.000
    C3       C        0.97500    0.97460    0.00910    1.000
    C4       C        0.99800    0.52850    0.59580    1.000
    C5       C        0.95200    0.47430    0.57980    1.000
    C6       C        0.97500    0.47460    0.50910    1.000
    C7       C        0.49800    0.02850    0.59580    1.000
    C8       C        0.45200    0.97430    0.57980    1.000
    C9       C        0.47500    0.97460    0.50910    1.000
    C10      C        0.49800    0.52850    0.09580    1.000
    C11      C        0.45200    0.47430    0.07980    1.000
    C12      C        0.47500    0.47460    0.00910    1.000
    C13      C        0.75200    0.72150    0.09580    1.000
    C14      C        0.79800    0.77570    0.07980    1.000
    C15      C        0.77500    0.77540    0.00910    1.000
    C16      C        0.75200    0.22150    0.59580    1.000
    C17      C        0.79800    0.27570    0.57980    1.000
    C18      C        0.77500    0.27540    0.50910    1.000
    C19      C        0.25200    0.72150    0.59580    1.000
    C20      C        0.29800    0.77570    0.57980    1.000
    C21      C        0.27500    0.77540    0.50910    1.000
    C22      C        0.25200    0.22150    0.09580    1.000
    C23      C        0.29800    0.27570    0.07980    1.000
    C24      C        0.27500    0.27540    0.00910    1.000
    C25      C        0.75200    0.02850    0.65420    1.000
    C26      C        0.79800    0.97430    0.67020    1.000
    C27      C        0.77500    0.97460    0.74090    1.000
    C28      C        0.75200    0.52850    0.15420    1.000
    C29      C        0.79800    0.47430    0.17020    1.000
    C30      C        0.77500    0.47460    0.24090    1.000
    C31      C        0.25200    0.02850    0.15420    1.000
    C32      C        0.29800    0.97430    0.17020    1.000
    C33      C        0.27500    0.97460    0.24090    1.000
    C34      C        0.25200    0.52850    0.65420    1.000
    C35      C        0.29800    0.47430    0.67020    1.000
    C36      C        0.27500    0.47460    0.74090    1.000
    C37      C        0.99800    0.72150    0.65420    1.000
    C38      C        0.95200    0.77570    0.67020    1.000
    C39      C        0.97500    0.77540    0.74090    1.000
    C40      C        0.99800    0.22150    0.15420    1.000
    C41      C        0.95200    0.27570    0.17020    1.000
    C42      C        0.97500    0.27540    0.24090    1.000
    C43      C        0.49800    0.72150    0.15420    1.000
    C44      C        0.45200    0.77570    0.17020    1.000
    C45      C        0.47500    0.77540    0.24090    1.000
    C46      C        0.49800    0.22150    0.65420    1.000
    C47      C        0.45200    0.27570    0.67020    1.000
    C48      C        0.47500    0.27540    0.74090    1.000
    C49      C        0.00200    0.97150    0.90420    1.000
    C50      C        0.04800    0.02570    0.92020    1.000
    C51      C        0.02500    0.02540    0.99090    1.000
    C52      C        0.00200    0.47150    0.40420    1.000
    C53      C        0.04800    0.52570    0.42020    1.000
    C54      C        0.02500    0.52540    0.49090    1.000
    C55      C        0.50200    0.97150    0.40420    1.000
    C56      C        0.54800    0.02570    0.42020    1.000
    C57      C        0.52500    0.02540    0.49090    1.000
    C58      C        0.50200    0.47150    0.90420    1.000
    C59      C        0.54800    0.52570    0.92020    1.000
    C60      C        0.52500    0.52540    0.99090    1.000
    C61      C        0.24800    0.27850    0.90420    1.000
    C62      C        0.20200    0.22430    0.92020    1.000
    C63      C        0.22500    0.22460    0.99090    1.000
    C64      C        0.24800    0.77850    0.40420    1.000
    C65      C        0.20200    0.72430    0.42020    1.000
    C66      C        0.22500    0.72460    0.49090    1.000
    C67      C        0.74800    0.27850    0.40420    1.000
    C68      C        0.70200    0.22430    0.42020    1.000
    C69      C        0.72500    0.22460    0.49090    1.000
    C70      C        0.74800    0.77850    0.90420    1.000
    C71      C        0.70200    0.72430    0.92020    1.000
    C72      C        0.72500    0.72460    0.99090    1.000
    C73      C        0.24800    0.97150    0.34580    1.000
    C74      C        0.20200    0.02570    0.32980    1.000
    C75      C        0.22500    0.02540    0.25910    1.000
    C76      C        0.24800    0.47150    0.84580    1.000
    C77      C        0.20200    0.52570    0.82980    1.000
    C78      C        0.22500    0.52540    0.75910    1.000
    C79      C        0.74800    0.97150    0.84580    1.000
    C80      C        0.70200    0.02570    0.82980    1.000
    C81      C        0.72500    0.02540    0.75910    1.000
    C82      C        0.74800    0.47150    0.34580    1.000
    C83      C        0.70200    0.52570    0.32980    1.000
    C84      C        0.72500    0.52540    0.25910    1.000
    C85      C        0.00200    0.27850    0.34580    1.000
    C86      C        0.04800    0.22430    0.32980    1.000
    C87      C        0.02500    0.22460    0.25910    1.000
    C88      C        0.00200    0.77850    0.84580    1.000
    C89      C        0.04800    0.72430    0.82980    1.000
    C90      C        0.02500    0.72460    0.75910    1.000
    C91      C        0.50200    0.27850    0.84580    1.000
    C92      C        0.54800    0.22430    0.82980    1.000
    C93      C        0.52500    0.22460    0.75910    1.000
    C94      C        0.50200    0.77850    0.34580    1.000
    C95      C        0.54800    0.72430    0.32980    1.000
    C96      C        0.52500    0.72460    0.25910    1.000
    Cd1      Cd       0.87500    0.87500    0.04175    1.000
    Cd2      Cd       0.87500    0.37500    0.54175    1.000
    Cd3      Cd       0.37500    0.87500    0.54175    1.000
    Cd4      Cd       0.37500    0.37500    0.04175    1.000
    Cd5      Cd       0.87500    0.87500    0.70825    1.000
    Cd6      Cd       0.87500    0.37500    0.20825    1.000
    Cd7      Cd       0.37500    0.87500    0.20825    1.000
    Cd8      Cd       0.37500    0.37500    0.70825    1.000
    Cd9      Cd       0.12500    0.12500    0.95825    1.000
    Cd10     Cd       0.12500    0.62500    0.45825    1.000
    Cd11     Cd       0.62500    0.12500    0.45825    1.000
    Cd12     Cd       0.62500    0.62500    0.95825    1.000
    Cd13     Cd       0.12500    0.12500    0.29175    1.000
    Cd14     Cd       0.12500    0.62500    0.79175    1.000
    Cd15     Cd       0.62500    0.12500    0.79175    1.000
    Cd16     Cd       0.62500    0.62500    0.29175    1.000
    Cd17     Cd       0.12500    0.12500    0.12500    1.000
    Cd18     Cd       0.12500    0.62500    0.62500    1.000
    Cd19     Cd       0.62500    0.12500    0.62500    1.000
    Cd20     Cd       0.62500    0.62500    0.12500    1.000
    Cd21     Cd       0.87500    0.87500    0.87500    1.000
    Cd22     Cd       0.87500    0.37500    0.37500    1.000
    Cd23     Cd       0.37500    0.87500    0.37500    1.000
    Cd24     Cd       0.37500    0.37500    0.87500    1.000
