data_functionalizedCrystal
_audit_creation_method	'EQeq! by Chris Wilmer'
_symmetry_space_group_name_H-M	'P1'
_symmetry_Int_Tables_number	1
_symmetry_cell_setting	triclinic
loop_
_symmetry_equiv_pos_as_xyz
  x,y,z
_cell_length_a	7.5106
_cell_length_b	31.1959
_cell_length_c	10.5537
_cell_angle_alpha	90
_cell_angle_beta	118.658
_cell_angle_gamma	90
loop_
_atom_site_label
_atom_site_type_symbol
_atom_site_fract_x
_atom_site_fract_y
_atom_site_fract_z
_atom_site_charge
Mof_C 	C 	0.9536	0.08703	0.5248	0.011
Mof_C 	C 	0.8484	0.04976	0.4997	-0.014
Mof_H 	H 	0.7312	0.043	0.4112	0.027
Mof_C 	C 	0.0932	0.04461	0.7193	0.161
Mof_C 	C 	0.2342	0.0331	0.8622	-0.203
Mof_H 	H 	0.227	0.0059	0.8998	0.101
Mof_C 	C 	0.3797	0.06157	0.9444	0.105
Mof_H 	H 	0.4768	0.0541	0.0403	-0.001
Mof_C 	C 	0.389	0.10178	0.8901	-0.147
Mof_H 	H 	0.4908	0.1215	0.9506	0.066
Mof_C 	C 	0.2565	0.11323	0.7536	0.088
Mof_H 	H 	0.2633	0.1408	0.718	-0.009
Mof_C 	C 	0.3274	0.92205	0.2695	-0.163
Mof_C 	C 	0.1958	0.93404	0.1275	0.067
Mof_H 	H 	0.2052	0.962	0.0955	0.015
Mof_C 	C 	0.0506	0.90556	0.032	-0.133
Mof_C 	C 	0.0367	0.86496	0.0806	0.053
Mof_H 	H 	0.9359	0.8456	0.017	0
Mof_C 	C 	0.1696	0.85237	0.2223	-0.15
Mof_C 	C 	0.3174	0.88064	0.3157	0.078
Mof_H 	H 	0.4113	0.8718	0.4108	0.023
Mof_C 	C 	0.4788	0.95327	0.371	0.377
Mof_C 	C 	0.1538	0.80854	0.2749	0.312
Mof_C 	C 	0.0341	0.17914	0.3298	0.069
Mof_H 	H 	0.1434	0.1951	0.3323	-0.042
Mof_C 	C 	0.0772	0.14618	0.4251	-0.154
Mof_H 	H 	0.2142	0.1389	0.4897	0.09
Mof_C 	C 	0.9191	0.12316	0.4272	0.071
Mof_C 	C 	0.7194	0.13426	0.3261	-0.151
Mof_H 	H 	0.6073	0.1192	0.3228	0.096
Mof_C 	C 	0.6898	0.16755	0.2317	0.068
Mof_H 	H 	0.5545	0.1749	0.1632	-0.04
Mof_C 	C 	0.9061	0.91875	0.8797	0.348
Mof_N 	N 	0.9305	0.02327	0.6159	-0.269
Mof_N 	N 	0.1103	0.08398	0.6662	-0.14
Mof_N 	N 	0.8418	0.19006	0.2316	-0.309
Mof_O 	O 	0.6293	0.93786	0.4819	-0.465
Mof_O 	O 	0.4491	0.99294	0.3447	-0.483
Mof_O 	O 	0.9644	0.9518	0.8364	-0.471
Mof_O 	O 	0.7489	0.8987	0.8066	-0.32
Mof_O 	O 	0.283	0.79757	0.4024	-0.495
Mof_O 	O 	0.0139	0.78353	0.1943	-0.424
Mof_Zn	Zn	0.78098	0.97494	0.6501	1.22
Mof_Zn	Zn	0.19596	0.73785	0.40921	1.137
Mof_C 	C 	0.0464	0.58703	0.9752	-0
Mof_C 	C 	0.1516	0.54976	0.0003	-0.004
Mof_H 	H 	0.2688	0.543	0.0888	0.024
Mof_C 	C 	0.9068	0.54461	0.7807	0.163
Mof_C 	C 	0.7658	0.5331	0.6378	-0.202
Mof_H 	H 	0.773	0.5059	0.6002	0.101
Mof_C 	C 	0.6203	0.56157	0.5556	0.102
Mof_H 	H 	0.5232	0.5541	0.4597	0.001
Mof_C 	C 	0.611	0.60178	0.6099	-0.145
Mof_H 	H 	0.5092	0.6215	0.5494	0.065
Mof_C 	C 	0.7435	0.61323	0.7464	0.087
Mof_H 	H 	0.7367	0.6408	0.782	-0.008
Mof_C 	C 	0.6726	0.42205	0.2305	-0.164
Mof_C 	C 	0.8042	0.43404	0.3725	0.067
Mof_H 	H 	0.7948	0.462	0.4045	0.015
Mof_C 	C 	0.9494	0.40556	0.468	-0.135
Mof_C 	C 	0.9633	0.36496	0.4194	0.05
Mof_H 	H 	0.0641	0.3456	0.483	0.002
Mof_C 	C 	0.8304	0.35237	0.2777	-0.15
Mof_C 	C 	0.6826	0.38064	0.1843	0.077
Mof_H 	H 	0.5887	0.3718	0.0892	0.023
Mof_C 	C 	0.5212	0.45327	0.129	0.377
Mof_C 	C 	0.8462	0.30854	0.2251	0.312
Mof_C 	C 	0.9659	0.67914	0.1702	0.071
Mof_H 	H 	0.8566	0.6951	0.1677	-0.042
Mof_C 	C 	0.9228	0.64618	0.0749	-0.161
Mof_H 	H 	0.7858	0.6389	0.0103	0.093
Mof_C 	C 	0.0809	0.62316	0.0728	0.082
Mof_C 	C 	0.2806	0.63426	0.1739	-0.155
Mof_H 	H 	0.3927	0.6192	0.1772	0.098
Mof_C 	C 	0.3102	0.66755	0.2683	0.071
Mof_H 	H 	0.4455	0.6749	0.3368	-0.041
Mof_C 	C 	0.0939	0.41875	0.6203	0.349
Mof_N 	N 	0.0695	0.52327	0.8841	-0.272
Mof_N 	N 	0.8897	0.58398	0.8338	-0.137
Mof_N 	N 	0.1582	0.69006	0.2684	-0.308
Mof_O 	O 	0.3707	0.43786	0.0181	-0.465
Mof_O 	O 	0.5509	0.49294	0.1553	-0.483
Mof_O 	O 	0.0356	0.4518	0.6636	-0.472
Mof_O 	O 	0.2511	0.3987	0.6934	-0.32
Mof_O 	O 	0.717	0.29757	0.0976	-0.496
Mof_O 	O 	0.9861	0.28353	0.3057	-0.426
Mof_Zn	Zn	0.21902	0.47494	0.8499	1.22
Mof_Zn	Zn	0.80404	0.23785	0.09079	1.136
Mof_C 	C 	0.0464	0.91297	0.4752	0.011
Mof_C 	C 	0.1516	0.95024	0.5003	-0.014
Mof_H 	H 	0.2688	0.957	0.5888	0.027
Mof_C 	C 	0.9068	0.95539	0.2807	0.161
Mof_C 	C 	0.7658	0.9669	0.1378	-0.203
Mof_H 	H 	0.773	0.9941	0.1002	0.101
Mof_C 	C 	0.6203	0.93843	0.0556	0.105
Mof_H 	H 	0.5232	0.9459	0.9597	-0.001
Mof_C 	C 	0.611	0.89822	0.1099	-0.147
Mof_H 	H 	0.5092	0.8785	0.0494	0.066
Mof_C 	C 	0.7435	0.88677	0.2464	0.088
Mof_H 	H 	0.7367	0.8592	0.282	-0.009
Mof_C 	C 	0.6726	0.07795	0.7305	-0.163
Mof_C 	C 	0.8042	0.06596	0.8725	0.067
Mof_H 	H 	0.7948	0.038	0.9045	0.015
Mof_C 	C 	0.9494	0.09444	0.968	-0.133
Mof_C 	C 	0.9633	0.13504	0.9194	0.053
Mof_H 	H 	0.0641	0.1544	0.983	0
Mof_C 	C 	0.8304	0.14763	0.7777	-0.15
Mof_C 	C 	0.6826	0.11936	0.6843	0.078
Mof_H 	H 	0.5887	0.1282	0.5892	0.023
Mof_C 	C 	0.5212	0.04673	0.629	0.377
Mof_C 	C 	0.8462	0.19146	0.7251	0.312
Mof_C 	C 	0.9659	0.82086	0.6702	0.069
Mof_H 	H 	0.8566	0.8049	0.6677	-0.042
Mof_C 	C 	0.9228	0.85382	0.5749	-0.154
Mof_H 	H 	0.7858	0.8611	0.5103	0.09
Mof_C 	C 	0.0809	0.87684	0.5728	0.071
Mof_C 	C 	0.2806	0.86574	0.6739	-0.151
Mof_H 	H 	0.3927	0.8808	0.6772	0.096
Mof_C 	C 	0.3102	0.83245	0.7683	0.068
Mof_H 	H 	0.4455	0.8251	0.8368	-0.04
Mof_C 	C 	0.0939	0.08125	0.1203	0.348
Mof_N 	N 	0.0695	0.97673	0.3841	-0.269
Mof_N 	N 	0.8897	0.91602	0.3338	-0.14
Mof_N 	N 	0.1582	0.80994	0.7684	-0.309
Mof_O 	O 	0.3707	0.06214	0.5181	-0.465
Mof_O 	O 	0.5509	0.00706	0.6553	-0.483
Mof_O 	O 	0.0356	0.0482	0.1636	-0.471
Mof_O 	O 	0.2511	0.1013	0.1934	-0.32
Mof_O 	O 	0.717	0.20243	0.5976	-0.495
Mof_O 	O 	0.9861	0.21647	0.8057	-0.424
Mof_Zn	Zn	0.21902	0.02506	0.3499	1.22
Mof_Zn	Zn	0.80404	0.26215	0.59079	1.137
Mof_C 	C 	0.9536	0.41297	0.0248	-0
Mof_C 	C 	0.8484	0.45024	0.9997	-0.004
Mof_H 	H 	0.7312	0.457	0.9112	0.024
Mof_C 	C 	0.0932	0.45539	0.2193	0.163
Mof_C 	C 	0.2342	0.4669	0.3622	-0.202
Mof_H 	H 	0.227	0.4941	0.3998	0.101
Mof_C 	C 	0.3797	0.43843	0.4444	0.102
Mof_H 	H 	0.4768	0.4459	0.5403	0.001
Mof_C 	C 	0.389	0.39822	0.3901	-0.145
Mof_H 	H 	0.4908	0.3785	0.4506	0.065
Mof_C 	C 	0.2565	0.38677	0.2536	0.087
Mof_H 	H 	0.2633	0.3592	0.218	-0.008
Mof_C 	C 	0.3274	0.57795	0.7695	-0.164
Mof_C 	C 	0.1958	0.56596	0.6275	0.067
Mof_H 	H 	0.2052	0.538	0.5955	0.015
Mof_C 	C 	0.0506	0.59444	0.532	-0.135
Mof_C 	C 	0.0367	0.63504	0.5806	0.05
Mof_H 	H 	0.9359	0.6544	0.517	0.002
Mof_C 	C 	0.1696	0.64763	0.7223	-0.15
Mof_C 	C 	0.3174	0.61936	0.8157	0.077
Mof_H 	H 	0.4113	0.6282	0.9108	0.023
Mof_C 	C 	0.4788	0.54673	0.871	0.377
Mof_C 	C 	0.1538	0.69146	0.7749	0.312
Mof_C 	C 	0.0341	0.32086	0.8298	0.071
Mof_H 	H 	0.1434	0.3049	0.8323	-0.042
Mof_C 	C 	0.0772	0.35382	0.9251	-0.161
Mof_H 	H 	0.2142	0.3611	0.9897	0.093
Mof_C 	C 	0.9191	0.37684	0.9272	0.082
Mof_C 	C 	0.7194	0.36574	0.8261	-0.155
Mof_H 	H 	0.6073	0.3808	0.8228	0.098
Mof_C 	C 	0.6898	0.33245	0.7317	0.071
Mof_H 	H 	0.5545	0.3251	0.6632	-0.041
Mof_C 	C 	0.9061	0.58125	0.3797	0.349
Mof_N 	N 	0.9305	0.47673	0.1159	-0.272
Mof_N 	N 	0.1103	0.41602	0.1662	-0.137
Mof_N 	N 	0.8418	0.30994	0.7316	-0.308
Mof_O 	O 	0.6293	0.56214	0.9819	-0.465
Mof_O 	O 	0.4491	0.50706	0.8447	-0.483
Mof_O 	O 	0.9644	0.5482	0.3364	-0.472
Mof_O 	O 	0.7489	0.6013	0.3066	-0.32
Mof_O 	O 	0.283	0.70243	0.9024	-0.496
Mof_O 	O 	0.0139	0.71647	0.6943	-0.426
Mof_Zn	Zn	0.78098	0.52506	0.1501	1.22
Mof_Zn	Zn	0.19596	0.76215	0.90921	1.136
_end
