data_functionalizedCrystal
_audit_creation_method	'EQeq! by Chris Wilmer'
_symmetry_space_group_name_H-M	'P1'
_symmetry_Int_Tables_number	1
_symmetry_cell_setting	triclinic
loop_
_symmetry_equiv_pos_as_xyz
  x,y,z
_cell_length_a	38.03
_cell_length_b	10.0098
_cell_length_c	26.423
_cell_angle_alpha	90
_cell_angle_beta	125.589
_cell_angle_gamma	90
loop_
_atom_site_label
_atom_site_type_symbol
_atom_site_fract_x
_atom_site_fract_y
_atom_site_fract_z
_atom_site_charge
Mof_Zn	Zn	0.83734	0.66779	0.2916	1.202
Mof_Zn	Zn	0.88609	0.96437	0.41558	1.221
Mof_C 	C 	0.07079	0.7205	0.0842	0.385
Mof_C 	C 	0.02774	0.6611	0.0612	-0.052
Mof_C 	C 	0.02565	0.5368	0.0825	-0.105
Mof_H 	H 	0.0507	0.4885	0.1099	0.087
Mof_C 	C 	0.9853	0.4853	0.0621	0.158
Mof_C 	C 	0.94775	0.5584	0.0218	-0.104
Mof_H 	H 	0.921	0.5251	0.0092	0.093
Mof_C 	C 	0.95093	0.6833	0.0005	-0.045
Mof_C 	C 	0.99084	0.7329	0.0203	-0.011
Mof_H 	H 	0.9928	0.8153	0.0058	0.059
Mof_C 	C 	0.9117	0.7674	0.9598	0.335
Mof_C 	C 	0.0146	0.2859	0.1226	-0.106
Mof_H 	H 	0.0318	0.3339	0.1618	0.075
Mof_H 	H 	0.0323	0.2687	0.1079	0.076
Mof_C 	C 	0.9985	0.1567	0.1312	0.169
Mof_C 	C 	0.9727	0.1551	0.1532	-0.222
Mof_H 	H 	0.9654	0.2354	0.1625	0.133
Mof_C 	C 	0.9579	0.0373	0.1611	0.174
Mof_C 	C 	0.971	0.9209	0.1498	-0.234
Mof_H 	H 	0.9615	0.8403	0.1553	0.111
Mof_C 	C 	0.997	0.9185	0.131	0.133
Mof_H 	H 	0.0054	0.8369	0.1243	-0.01
Mof_C 	C 	0.012	0.0388	0.1213	-0.214
Mof_H 	H 	0.0303	0.0378	0.1087	0.111
Mof_C 	C 	0.9295	0.0298	0.1825	-0.094
Mof_H 	H 	0.9047	0.974	0.1541	0.064
Mof_H 	H 	0.9453	0.9882	0.2233	0.065
Mof_C 	C 	0.8943	0.1617	0.2153	0.17
Mof_C 	C 	0.8855	0.2891	0.2259	-0.124
Mof_H 	H 	0.8927	0.3634	0.2126	0.101
Mof_C 	C 	0.8661	0.3058	0.2564	-0.022
Mof_C 	C 	0.8565	0.1934	0.2772	-0.028
Mof_H 	H 	0.8441	0.2037	0.2987	0.06
Mof_C 	C 	0.86491	0.0693	0.2666	-0.052
Mof_C 	C 	0.884	0.0504	0.2344	-0.116
Mof_H 	H 	0.8893	0.9651	0.2264	0.086
Mof_C 	C 	0.8552	0.4422	0.2682	0.306
Mof_C 	C 	0.85441	0.9465	0.2886	0.348
Mof_C 	C 	0.77337	0.7915	0.312	0.07
Mof_H 	H 	0.7703	0.8548	0.284	-0.014
Mof_C 	C 	0.74973	0.8068	0.3354	-0.129
Mof_H 	H 	0.7324	0.882	0.3248	0.078
Mof_C 	C 	0.7512	0.7125	0.3743	0.056
Mof_C 	C 	0.7796	0.6026	0.3906	-0.124
Mof_H 	H 	0.7821	0.5347	0.4165	0.079
Mof_C 	C 	0.8036	0.6012	0.3659	0.068
Mof_H 	H 	0.8232	0.5319	0.3777	0.008
Mof_C 	C 	0.7265	0.7319	0.4003	0.095
Mof_C 	C 	0.6908	0.7082	0.4397	0.09
Mof_C 	C 	0.6708	0.6537	0.4698	0.078
Mof_C 	C 	0.6419	0.7383	0.4713	-0.133
Mof_H 	H 	0.6342	0.8209	0.4514	0.092
Mof_C 	C 	0.6253	0.6955	0.5029	0.081
Mof_H 	H 	0.6051	0.7492	0.5024	-0.003
Mof_C 	C 	0.6629	0.5004	0.5298	0.088
Mof_H 	H 	0.6699	0.4173	0.5492	-0.011
Mof_C 	C 	0.6797	0.5352	0.4979	-0.146
Mof_H 	H 	0.6976	0.4757	0.4958	0.083
Mof_N 	N 	0.80031	0.6914	0.3272	-0.263
Mof_N 	N 	0.71053	0.6404	0.4181	-0.095
Mof_N 	N 	0.71765	0.8498	0.4099	-0.092
Mof_N 	N 	0.6949	0.8351	0.4348	-0.087
Mof_N 	N 	0.709	0.4992	0.411	-0.245
Mof_H 	H 	0.7194	0.4627	0.3929	0.136
Mof_H 	H 	0.6976	0.4504	0.4247	0.135
Mof_N 	N 	0.63672	0.5805	0.5344	-0.276
Mof_O 	O 	0.06962	0.8388	0.0655	-0.483
Mof_O 	O 	0.10415	0.6533	0.1172	-0.444
Mof_O 	O 	0.87655	0.7338	0.9507	-0.284
Mof_O 	O 	0.91695	0.8691	0.9376	-0.466
Mof_O 	O 	0.9778	0.3618	0.0783	-0.193
Mof_O 	O 	0.91515	0.1561	0.1859	-0.197
Mof_O 	O 	0.8568	0.8343	0.2707	-0.462
Mof_O 	O 	0.84354	0.9656	0.3252	-0.502
Mof_O 	O 	0.83454	0.452	0.2906	-0.402
Mof_O 	O 	0.8676	0.5423	0.2557	-0.374
Mof_Zn	Zn	0.33734	0.16779	0.2916	1.203
Mof_Zn	Zn	0.38609	0.46437	0.41558	1.222
Mof_C 	C 	0.57079	0.2205	0.0842	0.386
Mof_C 	C 	0.52774	0.1611	0.0612	-0.056
Mof_C 	C 	0.52565	0.0368	0.0825	-0.098
Mof_H 	H 	0.5507	0.9885	0.1099	0.083
Mof_C 	C 	0.4853	0.9853	0.0621	0.152
Mof_C 	C 	0.44775	0.0584	0.0218	-0.1
Mof_H 	H 	0.421	0.0251	0.0092	0.092
Mof_C 	C 	0.45093	0.1833	0.0005	-0.046
Mof_C 	C 	0.49084	0.2329	0.0203	-0.009
Mof_H 	H 	0.4928	0.3153	0.0058	0.059
Mof_C 	C 	0.4117	0.2674	0.9598	0.334
Mof_C 	C 	0.5146	0.7859	0.1226	-0.109
Mof_H 	H 	0.5318	0.8339	0.1618	0.076
Mof_H 	H 	0.5323	0.7687	0.1079	0.077
Mof_C 	C 	0.4985	0.6567	0.1312	0.172
Mof_C 	C 	0.4727	0.6551	0.1532	-0.226
Mof_H 	H 	0.4654	0.7354	0.1625	0.135
Mof_C 	C 	0.4579	0.5373	0.1611	0.177
Mof_C 	C 	0.471	0.4209	0.1498	-0.237
Mof_H 	H 	0.4615	0.3403	0.1553	0.113
Mof_C 	C 	0.497	0.4185	0.131	0.14
Mof_H 	H 	0.5054	0.3369	0.1243	-0.012
Mof_C 	C 	0.512	0.5388	0.1213	-0.22
Mof_H 	H 	0.5303	0.5378	0.1087	0.113
Mof_C 	C 	0.4295	0.5298	0.1825	-0.102
Mof_H 	H 	0.4047	0.474	0.1541	0.068
Mof_H 	H 	0.4453	0.4882	0.2233	0.069
Mof_C 	C 	0.3943	0.6617	0.2153	0.171
Mof_C 	C 	0.3855	0.7891	0.2259	-0.124
Mof_H 	H 	0.3927	0.8634	0.2126	0.101
Mof_C 	C 	0.3661	0.8058	0.2564	-0.022
Mof_C 	C 	0.3565	0.6934	0.2772	-0.028
Mof_H 	H 	0.3441	0.7037	0.2987	0.06
Mof_C 	C 	0.36491	0.5693	0.2666	-0.052
Mof_C 	C 	0.384	0.5504	0.2344	-0.119
Mof_H 	H 	0.3893	0.4651	0.2264	0.088
Mof_C 	C 	0.3552	0.9422	0.2682	0.305
Mof_C 	C 	0.35441	0.4465	0.2886	0.349
Mof_C 	C 	0.27337	0.2915	0.312	0.07
Mof_H 	H 	0.2703	0.3548	0.284	-0.013
Mof_C 	C 	0.24973	0.3068	0.3354	-0.129
Mof_H 	H 	0.2324	0.382	0.3248	0.078
Mof_C 	C 	0.2512	0.2125	0.3743	0.056
Mof_C 	C 	0.2796	0.1026	0.3906	-0.124
Mof_H 	H 	0.2821	0.0347	0.4165	0.079
Mof_C 	C 	0.3036	0.1012	0.3659	0.068
Mof_H 	H 	0.3232	0.0319	0.3777	0.009
Mof_C 	C 	0.2265	0.2319	0.4003	0.095
Mof_C 	C 	0.1908	0.2082	0.4397	0.091
Mof_C 	C 	0.1708	0.1537	0.4698	0.077
Mof_C 	C 	0.1419	0.2383	0.4713	-0.133
Mof_H 	H 	0.1342	0.3209	0.4514	0.092
Mof_C 	C 	0.1253	0.1955	0.5029	0.081
Mof_H 	H 	0.1051	0.2492	0.5024	-0.003
Mof_C 	C 	0.1629	0.0004	0.5298	0.087
Mof_H 	H 	0.1699	0.9173	0.5492	-0.01
Mof_C 	C 	0.1797	0.0352	0.4979	-0.145
Mof_H 	H 	0.1976	0.9757	0.4958	0.082
Mof_N 	N 	0.30031	0.1914	0.3272	-0.263
Mof_N 	N 	0.21053	0.1404	0.4181	-0.094
Mof_N 	N 	0.21765	0.3498	0.4099	-0.092
Mof_N 	N 	0.1949	0.3351	0.4348	-0.087
Mof_N 	N 	0.209	0.9992	0.411	-0.245
Mof_H 	H 	0.2194	0.9627	0.3929	0.136
Mof_H 	H 	0.1976	0.9504	0.4247	0.135
Mof_N 	N 	0.13672	0.0805	0.5344	-0.276
Mof_O 	O 	0.56962	0.3388	0.0655	-0.483
Mof_O 	O 	0.60415	0.1533	0.1172	-0.444
Mof_O 	O 	0.37655	0.2338	0.9507	-0.285
Mof_O 	O 	0.41695	0.3691	0.9376	-0.467
Mof_O 	O 	0.4778	0.8618	0.0783	-0.192
Mof_O 	O 	0.41515	0.6561	0.1859	-0.196
Mof_O 	O 	0.3568	0.3343	0.2707	-0.462
Mof_O 	O 	0.34354	0.4656	0.3252	-0.502
Mof_O 	O 	0.33454	0.952	0.2906	-0.402
Mof_O 	O 	0.3676	0.0423	0.2557	-0.373
Mof_Zn	Zn	0.16266	0.66779	0.2084	1.203
Mof_Zn	Zn	0.11391	0.96437	0.08442	1.222
Mof_C 	C 	0.92921	0.7205	0.4158	0.385
Mof_C 	C 	0.97226	0.6611	0.4388	-0.052
Mof_C 	C 	0.97435	0.5368	0.4175	-0.105
Mof_H 	H 	0.9493	0.4885	0.3901	0.087
Mof_C 	C 	0.0147	0.4853	0.4379	0.159
Mof_C 	C 	0.05225	0.5584	0.4782	-0.105
Mof_H 	H 	0.079	0.5251	0.4908	0.093
Mof_C 	C 	0.04907	0.6833	0.4995	-0.044
Mof_C 	C 	0.00916	0.7329	0.4797	-0.012
Mof_H 	H 	0.0072	0.8153	0.4942	0.06
Mof_C 	C 	0.0883	0.7674	0.5402	0.334
Mof_C 	C 	0.9854	0.2859	0.3774	-0.108
Mof_H 	H 	0.9682	0.3339	0.3382	0.075
Mof_H 	H 	0.9677	0.2687	0.3921	0.077
Mof_C 	C 	0.0015	0.1567	0.3688	0.171
Mof_C 	C 	0.0273	0.1551	0.3468	-0.224
Mof_H 	H 	0.0346	0.2354	0.3375	0.134
Mof_C 	C 	0.0421	0.0373	0.3389	0.176
Mof_C 	C 	0.029	0.9209	0.3502	-0.236
Mof_H 	H 	0.0385	0.8403	0.3447	0.112
Mof_C 	C 	0.003	0.9185	0.369	0.138
Mof_H 	H 	0.9946	0.8369	0.3757	-0.012
Mof_C 	C 	0.988	0.0388	0.3787	-0.218
Mof_H 	H 	0.9697	0.0378	0.3913	0.112
Mof_C 	C 	0.0705	0.0298	0.3175	-0.097
Mof_H 	H 	0.0953	0.974	0.3459	0.066
Mof_H 	H 	0.0547	0.9882	0.2767	0.066
Mof_C 	C 	0.1057	0.1617	0.2847	0.17
Mof_C 	C 	0.1145	0.2891	0.2741	-0.124
Mof_H 	H 	0.1073	0.3634	0.2874	0.101
Mof_C 	C 	0.1339	0.3058	0.2436	-0.022
Mof_C 	C 	0.1435	0.1934	0.2228	-0.028
Mof_H 	H 	0.1559	0.2037	0.2013	0.06
Mof_C 	C 	0.13509	0.0693	0.2334	-0.051
Mof_C 	C 	0.116	0.0504	0.2656	-0.117
Mof_H 	H 	0.1107	0.9651	0.2736	0.087
Mof_C 	C 	0.1448	0.4422	0.2318	0.306
Mof_C 	C 	0.14559	0.9465	0.2114	0.348
Mof_C 	C 	0.22663	0.7915	0.188	0.07
Mof_H 	H 	0.2297	0.8548	0.216	-0.013
Mof_C 	C 	0.25027	0.8068	0.1646	-0.129
Mof_H 	H 	0.2676	0.882	0.1752	0.077
Mof_C 	C 	0.2488	0.7125	0.1257	0.056
Mof_C 	C 	0.2204	0.6026	0.1094	-0.124
Mof_H 	H 	0.2179	0.5347	0.0835	0.079
Mof_C 	C 	0.1964	0.6012	0.1341	0.068
Mof_H 	H 	0.1768	0.5319	0.1223	0.008
Mof_C 	C 	0.2735	0.7319	0.0997	0.095
Mof_C 	C 	0.3092	0.7082	0.0603	0.09
Mof_C 	C 	0.3292	0.6537	0.0302	0.078
Mof_C 	C 	0.3581	0.7383	0.0287	-0.134
Mof_H 	H 	0.3658	0.8209	0.0486	0.093
Mof_C 	C 	0.3747	0.6955	0.9971	0.082
Mof_H 	H 	0.3949	0.7492	0.9976	-0.003
Mof_C 	C 	0.3371	0.5004	0.9702	0.088
Mof_H 	H 	0.3301	0.4173	0.9508	-0.011
Mof_C 	C 	0.3203	0.5352	0.0021	-0.146
Mof_H 	H 	0.3024	0.4757	0.0042	0.083
Mof_N 	N 	0.19969	0.6914	0.1728	-0.263
Mof_N 	N 	0.28947	0.6404	0.0819	-0.095
Mof_N 	N 	0.28235	0.8498	0.0901	-0.092
Mof_N 	N 	0.3051	0.8351	0.0652	-0.087
Mof_N 	N 	0.291	0.4992	0.089	-0.245
Mof_H 	H 	0.2806	0.4627	0.1071	0.136
Mof_H 	H 	0.3024	0.4504	0.0753	0.135
Mof_N 	N 	0.36328	0.5805	0.9656	-0.276
Mof_O 	O 	0.93038	0.8388	0.4345	-0.483
Mof_O 	O 	0.89585	0.6533	0.3828	-0.444
Mof_O 	O 	0.12345	0.7338	0.5493	-0.284
Mof_O 	O 	0.08305	0.8691	0.5624	-0.466
Mof_O 	O 	0.0222	0.3618	0.4217	-0.193
Mof_O 	O 	0.08485	0.1561	0.3141	-0.197
Mof_O 	O 	0.1432	0.8343	0.2293	-0.462
Mof_O 	O 	0.15646	0.9656	0.1748	-0.502
Mof_O 	O 	0.16546	0.452	0.2094	-0.401
Mof_O 	O 	0.1324	0.5423	0.2443	-0.374
Mof_Zn	Zn	0.66266	0.16779	0.2084	1.203
Mof_Zn	Zn	0.61391	0.46437	0.08442	1.222
Mof_C 	C 	0.42921	0.2205	0.4158	0.385
Mof_C 	C 	0.47226	0.1611	0.4388	-0.053
Mof_C 	C 	0.47435	0.0368	0.4175	-0.104
Mof_H 	H 	0.4493	0.9885	0.3901	0.086
Mof_C 	C 	0.5147	0.9853	0.4379	0.157
Mof_C 	C 	0.55225	0.0584	0.4782	-0.104
Mof_H 	H 	0.579	0.0251	0.4908	0.092
Mof_C 	C 	0.54907	0.1833	0.4995	-0.044
Mof_C 	C 	0.50916	0.2329	0.4797	-0.011
Mof_H 	H 	0.5072	0.3153	0.4942	0.059
Mof_C 	C 	0.5883	0.2674	0.5402	0.334
Mof_C 	C 	0.4854	0.7859	0.3774	-0.108
Mof_H 	H 	0.4682	0.8339	0.3382	0.075
Mof_H 	H 	0.4677	0.7687	0.3921	0.077
Mof_C 	C 	0.5015	0.6567	0.3688	0.172
Mof_C 	C 	0.5273	0.6551	0.3468	-0.226
Mof_H 	H 	0.5346	0.7354	0.3375	0.135
Mof_C 	C 	0.5421	0.5373	0.3389	0.176
Mof_C 	C 	0.529	0.4209	0.3502	-0.237
Mof_H 	H 	0.5385	0.3403	0.3447	0.113
Mof_C 	C 	0.503	0.4185	0.369	0.139
Mof_H 	H 	0.4946	0.3369	0.3757	-0.012
Mof_C 	C 	0.488	0.5388	0.3787	-0.22
Mof_H 	H 	0.4697	0.5378	0.3913	0.113
Mof_C 	C 	0.5705	0.5298	0.3175	-0.102
Mof_H 	H 	0.5953	0.474	0.3459	0.067
Mof_H 	H 	0.5547	0.4882	0.2767	0.068
Mof_C 	C 	0.6057	0.6617	0.2847	0.171
Mof_C 	C 	0.6145	0.7891	0.2741	-0.124
Mof_H 	H 	0.6073	0.8634	0.2874	0.101
Mof_C 	C 	0.6339	0.8058	0.2436	-0.022
Mof_C 	C 	0.6435	0.6934	0.2228	-0.028
Mof_H 	H 	0.6559	0.7037	0.2013	0.06
Mof_C 	C 	0.63509	0.5693	0.2334	-0.052
Mof_C 	C 	0.616	0.5504	0.2656	-0.119
Mof_H 	H 	0.6107	0.4651	0.2736	0.088
Mof_C 	C 	0.6448	0.9422	0.2318	0.305
Mof_C 	C 	0.64559	0.4465	0.2114	0.349
Mof_C 	C 	0.72663	0.2915	0.188	0.07
Mof_H 	H 	0.7297	0.3548	0.216	-0.013
Mof_C 	C 	0.75027	0.3068	0.1646	-0.129
Mof_H 	H 	0.7676	0.382	0.1752	0.078
Mof_C 	C 	0.7488	0.2125	0.1257	0.056
Mof_C 	C 	0.7204	0.1026	0.1094	-0.124
Mof_H 	H 	0.7179	0.0347	0.0835	0.08
Mof_C 	C 	0.6964	0.1012	0.1341	0.068
Mof_H 	H 	0.6768	0.0319	0.1223	0.009
Mof_C 	C 	0.7735	0.2319	0.0997	0.095
Mof_C 	C 	0.8092	0.2082	0.0603	0.093
Mof_C 	C 	0.8292	0.1537	0.0302	0.072
Mof_C 	C 	0.8581	0.2383	0.0287	-0.127
Mof_H 	H 	0.8658	0.3209	0.0486	0.091
Mof_C 	C 	0.8747	0.1955	0.9971	0.077
Mof_H 	H 	0.8949	0.2492	0.9976	-0.002
Mof_C 	C 	0.8371	0.0004	0.9702	0.078
Mof_H 	H 	0.8301	0.9173	0.9508	-0.006
Mof_C 	C 	0.8203	0.0352	0.0021	-0.133
Mof_H 	H 	0.8024	0.9757	0.0042	0.077
Mof_N 	N 	0.69969	0.1914	0.1728	-0.263
Mof_N 	N 	0.78947	0.1404	0.0819	-0.094
Mof_N 	N 	0.78235	0.3498	0.0901	-0.092
Mof_N 	N 	0.8051	0.3351	0.0652	-0.088
Mof_N 	N 	0.791	0.9992	0.089	-0.245
Mof_H 	H 	0.7806	0.9627	0.1071	0.136
Mof_H 	H 	0.8024	0.9504	0.0753	0.135
Mof_N 	N 	0.86328	0.0805	0.9656	-0.274
Mof_O 	O 	0.43038	0.3388	0.4345	-0.483
Mof_O 	O 	0.39585	0.1533	0.3828	-0.444
Mof_O 	O 	0.62345	0.2338	0.5493	-0.285
Mof_O 	O 	0.58305	0.3691	0.5624	-0.466
Mof_O 	O 	0.5222	0.8618	0.4217	-0.192
Mof_O 	O 	0.58485	0.6561	0.3141	-0.196
Mof_O 	O 	0.6432	0.3343	0.2293	-0.462
Mof_O 	O 	0.65646	0.4656	0.1748	-0.502
Mof_O 	O 	0.66546	0.952	0.2094	-0.402
Mof_O 	O 	0.6324	0.0423	0.2443	-0.372
Mof_Zn	Zn	0.16266	0.33221	0.7084	1.203
Mof_Zn	Zn	0.11391	0.03563	0.58442	1.222
Mof_C 	C 	0.92921	0.2795	0.9158	0.385
Mof_C 	C 	0.97226	0.3389	0.9388	-0.052
Mof_C 	C 	0.97435	0.4632	0.9175	-0.105
Mof_H 	H 	0.9493	0.5115	0.8901	0.087
Mof_C 	C 	0.0147	0.5147	0.9379	0.158
Mof_C 	C 	0.05225	0.4416	0.9782	-0.104
Mof_H 	H 	0.079	0.4749	0.9908	0.093
Mof_C 	C 	0.04907	0.3167	0.9995	-0.045
Mof_C 	C 	0.00916	0.2671	0.9797	-0.011
Mof_H 	H 	0.0072	0.1847	0.9942	0.059
Mof_C 	C 	0.0883	0.2326	0.0402	0.335
Mof_C 	C 	0.9854	0.7141	0.8774	-0.106
Mof_H 	H 	0.9682	0.6661	0.8382	0.075
Mof_H 	H 	0.9677	0.7313	0.8921	0.076
Mof_C 	C 	0.0015	0.8433	0.8688	0.169
Mof_C 	C 	0.0273	0.8449	0.8468	-0.222
Mof_H 	H 	0.0346	0.7646	0.8375	0.133
Mof_C 	C 	0.0421	0.9627	0.8389	0.174
Mof_C 	C 	0.029	0.0791	0.8502	-0.234
Mof_H 	H 	0.0385	0.1597	0.8447	0.111
Mof_C 	C 	0.003	0.0815	0.869	0.133
Mof_H 	H 	0.9946	0.1631	0.8757	-0.01
Mof_C 	C 	0.988	0.9612	0.8787	-0.214
Mof_H 	H 	0.9697	0.9622	0.8913	0.111
Mof_C 	C 	0.0705	0.9702	0.8175	-0.094
Mof_H 	H 	0.0953	0.026	0.8459	0.064
Mof_H 	H 	0.0547	0.0118	0.7767	0.065
Mof_C 	C 	0.1057	0.8383	0.7847	0.17
Mof_C 	C 	0.1145	0.7109	0.7741	-0.124
Mof_H 	H 	0.1073	0.6366	0.7874	0.101
Mof_C 	C 	0.1339	0.6942	0.7436	-0.022
Mof_C 	C 	0.1435	0.8066	0.7228	-0.028
Mof_H 	H 	0.1559	0.7963	0.7013	0.06
Mof_C 	C 	0.13509	0.9307	0.7334	-0.052
Mof_C 	C 	0.116	0.9496	0.7656	-0.116
Mof_H 	H 	0.1107	0.0349	0.7736	0.086
Mof_C 	C 	0.1448	0.5578	0.7318	0.306
Mof_C 	C 	0.14559	0.0535	0.7114	0.348
Mof_C 	C 	0.22663	0.2085	0.688	0.07
Mof_H 	H 	0.2297	0.1452	0.716	-0.014
Mof_C 	C 	0.25027	0.1932	0.6646	-0.129
Mof_H 	H 	0.2676	0.118	0.6752	0.078
Mof_C 	C 	0.2488	0.2875	0.6257	0.056
Mof_C 	C 	0.2204	0.3974	0.6094	-0.124
Mof_H 	H 	0.2179	0.4653	0.5835	0.079
Mof_C 	C 	0.1964	0.3988	0.6341	0.068
Mof_H 	H 	0.1768	0.4681	0.6223	0.008
Mof_C 	C 	0.2735	0.2681	0.5997	0.095
Mof_C 	C 	0.3092	0.2918	0.5603	0.09
Mof_C 	C 	0.3292	0.3463	0.5302	0.078
Mof_C 	C 	0.3581	0.2617	0.5287	-0.133
Mof_H 	H 	0.3658	0.1791	0.5486	0.092
Mof_C 	C 	0.3747	0.3045	0.4971	0.081
Mof_H 	H 	0.3949	0.2508	0.4976	-0.003
Mof_C 	C 	0.3371	0.4996	0.4702	0.088
Mof_H 	H 	0.3301	0.5827	0.4508	-0.011
Mof_C 	C 	0.3203	0.4648	0.5021	-0.146
Mof_H 	H 	0.3024	0.5243	0.5042	0.083
Mof_N 	N 	0.19969	0.3086	0.6728	-0.263
Mof_N 	N 	0.28947	0.3596	0.5819	-0.095
Mof_N 	N 	0.28235	0.1502	0.5901	-0.092
Mof_N 	N 	0.3051	0.1649	0.5652	-0.087
Mof_N 	N 	0.291	0.5008	0.589	-0.245
Mof_H 	H 	0.2806	0.5373	0.6071	0.136
Mof_H 	H 	0.3024	0.5496	0.5753	0.135
Mof_N 	N 	0.36328	0.4195	0.4656	-0.276
Mof_O 	O 	0.93038	0.1612	0.9345	-0.483
Mof_O 	O 	0.89585	0.3467	0.8828	-0.444
Mof_O 	O 	0.12345	0.2662	0.0493	-0.284
Mof_O 	O 	0.08305	0.1309	0.0624	-0.466
Mof_O 	O 	0.0222	0.6382	0.9217	-0.193
Mof_O 	O 	0.08485	0.8439	0.8141	-0.197
Mof_O 	O 	0.1432	0.1657	0.7293	-0.462
Mof_O 	O 	0.15646	0.0344	0.6748	-0.502
Mof_O 	O 	0.16546	0.548	0.7094	-0.402
Mof_O 	O 	0.1324	0.4577	0.7443	-0.374
Mof_Zn	Zn	0.66266	0.83221	0.7084	1.203
Mof_Zn	Zn	0.61391	0.53563	0.58442	1.222
Mof_C 	C 	0.42921	0.7795	0.9158	0.386
Mof_C 	C 	0.47226	0.8389	0.9388	-0.056
Mof_C 	C 	0.47435	0.9632	0.9175	-0.098
Mof_H 	H 	0.4493	0.0115	0.8901	0.083
Mof_C 	C 	0.5147	0.0147	0.9379	0.152
Mof_C 	C 	0.55225	0.9416	0.9782	-0.1
Mof_H 	H 	0.579	0.9749	0.9908	0.092
Mof_C 	C 	0.54907	0.8167	0.9995	-0.046
Mof_C 	C 	0.50916	0.7671	0.9797	-0.009
Mof_H 	H 	0.5072	0.6847	0.9942	0.059
Mof_C 	C 	0.5883	0.7326	0.0402	0.334
Mof_C 	C 	0.4854	0.2141	0.8774	-0.109
Mof_H 	H 	0.4682	0.1661	0.8382	0.076
Mof_H 	H 	0.4677	0.2313	0.8921	0.077
Mof_C 	C 	0.5015	0.3433	0.8688	0.172
Mof_C 	C 	0.5273	0.3449	0.8468	-0.226
Mof_H 	H 	0.5346	0.2646	0.8375	0.135
Mof_C 	C 	0.5421	0.4627	0.8389	0.177
Mof_C 	C 	0.529	0.5791	0.8502	-0.237
Mof_H 	H 	0.5385	0.6597	0.8447	0.113
Mof_C 	C 	0.503	0.5815	0.869	0.14
Mof_H 	H 	0.4946	0.6631	0.8757	-0.012
Mof_C 	C 	0.488	0.4612	0.8787	-0.22
Mof_H 	H 	0.4697	0.4622	0.8913	0.113
Mof_C 	C 	0.5705	0.4702	0.8175	-0.102
Mof_H 	H 	0.5953	0.526	0.8459	0.068
Mof_H 	H 	0.5547	0.5118	0.7767	0.069
Mof_C 	C 	0.6057	0.3383	0.7847	0.171
Mof_C 	C 	0.6145	0.2109	0.7741	-0.124
Mof_H 	H 	0.6073	0.1366	0.7874	0.101
Mof_C 	C 	0.6339	0.1942	0.7436	-0.022
Mof_C 	C 	0.6435	0.3066	0.7228	-0.028
Mof_H 	H 	0.6559	0.2963	0.7013	0.06
Mof_C 	C 	0.63509	0.4307	0.7334	-0.052
Mof_C 	C 	0.616	0.4496	0.7656	-0.119
Mof_H 	H 	0.6107	0.5349	0.7736	0.088
Mof_C 	C 	0.6448	0.0578	0.7318	0.305
Mof_C 	C 	0.64559	0.5535	0.7114	0.349
Mof_C 	C 	0.72663	0.7085	0.688	0.07
Mof_H 	H 	0.7297	0.6452	0.716	-0.013
Mof_C 	C 	0.75027	0.6932	0.6646	-0.129
Mof_H 	H 	0.7676	0.618	0.6752	0.078
Mof_C 	C 	0.7488	0.7875	0.6257	0.056
Mof_C 	C 	0.7204	0.8974	0.6094	-0.124
Mof_H 	H 	0.7179	0.9653	0.5835	0.079
Mof_C 	C 	0.6964	0.8988	0.6341	0.068
Mof_H 	H 	0.6768	0.9681	0.6223	0.009
Mof_C 	C 	0.7735	0.7681	0.5997	0.095
Mof_C 	C 	0.8092	0.7918	0.5603	0.091
Mof_C 	C 	0.8292	0.8463	0.5302	0.077
Mof_C 	C 	0.8581	0.7617	0.5287	-0.133
Mof_H 	H 	0.8658	0.6791	0.5486	0.092
Mof_C 	C 	0.8747	0.8045	0.4971	0.081
Mof_H 	H 	0.8949	0.7508	0.4976	-0.003
Mof_C 	C 	0.8371	0.9996	0.4702	0.087
Mof_H 	H 	0.8301	0.0827	0.4508	-0.01
Mof_C 	C 	0.8203	0.9648	0.5021	-0.145
Mof_H 	H 	0.8024	0.0243	0.5042	0.082
Mof_N 	N 	0.69969	0.8086	0.6728	-0.263
Mof_N 	N 	0.78947	0.8596	0.5819	-0.094
Mof_N 	N 	0.78235	0.6502	0.5901	-0.092
Mof_N 	N 	0.8051	0.6649	0.5652	-0.087
Mof_N 	N 	0.791	0.0008	0.589	-0.245
Mof_H 	H 	0.7806	0.0373	0.6071	0.136
Mof_H 	H 	0.8024	0.0496	0.5753	0.135
Mof_N 	N 	0.86328	0.9195	0.4656	-0.276
Mof_O 	O 	0.43038	0.6612	0.9345	-0.483
Mof_O 	O 	0.39585	0.8467	0.8828	-0.444
Mof_O 	O 	0.62345	0.7662	0.0493	-0.285
Mof_O 	O 	0.58305	0.6309	0.0624	-0.467
Mof_O 	O 	0.5222	0.1382	0.9217	-0.192
Mof_O 	O 	0.58485	0.3439	0.8141	-0.196
Mof_O 	O 	0.6432	0.6657	0.7293	-0.462
Mof_O 	O 	0.65646	0.5344	0.6748	-0.502
Mof_O 	O 	0.66546	0.048	0.7094	-0.402
Mof_O 	O 	0.6324	0.9577	0.7443	-0.373
Mof_Zn	Zn	0.83734	0.33221	0.7916	1.203
Mof_Zn	Zn	0.88609	0.03563	0.91558	1.222
Mof_C 	C 	0.07079	0.2795	0.5842	0.385
Mof_C 	C 	0.02774	0.3389	0.5612	-0.052
Mof_C 	C 	0.02565	0.4632	0.5825	-0.105
Mof_H 	H 	0.0507	0.5115	0.6099	0.087
Mof_C 	C 	0.9853	0.5147	0.5621	0.159
Mof_C 	C 	0.94775	0.4416	0.5218	-0.105
Mof_H 	H 	0.921	0.4749	0.5092	0.093
Mof_C 	C 	0.95093	0.3167	0.5005	-0.044
Mof_C 	C 	0.99084	0.2671	0.5203	-0.012
Mof_H 	H 	0.9928	0.1847	0.5058	0.06
Mof_C 	C 	0.9117	0.2326	0.4598	0.334
Mof_C 	C 	0.0146	0.7141	0.6226	-0.108
Mof_H 	H 	0.0318	0.6661	0.6618	0.075
Mof_H 	H 	0.0323	0.7313	0.6079	0.077
Mof_C 	C 	0.9985	0.8433	0.6312	0.171
Mof_C 	C 	0.9727	0.8449	0.6532	-0.224
Mof_H 	H 	0.9654	0.7646	0.6625	0.134
Mof_C 	C 	0.9579	0.9627	0.6611	0.176
Mof_C 	C 	0.971	0.0791	0.6498	-0.236
Mof_H 	H 	0.9615	0.1597	0.6553	0.112
Mof_C 	C 	0.997	0.0815	0.631	0.138
Mof_H 	H 	0.0054	0.1631	0.6243	-0.012
Mof_C 	C 	0.012	0.9612	0.6213	-0.218
Mof_H 	H 	0.0303	0.9622	0.6087	0.112
Mof_C 	C 	0.9295	0.9702	0.6825	-0.097
Mof_H 	H 	0.9047	0.026	0.6541	0.066
Mof_H 	H 	0.9453	0.0118	0.7233	0.066
Mof_C 	C 	0.8943	0.8383	0.7153	0.17
Mof_C 	C 	0.8855	0.7109	0.7259	-0.124
Mof_H 	H 	0.8927	0.6366	0.7126	0.101
Mof_C 	C 	0.8661	0.6942	0.7564	-0.022
Mof_C 	C 	0.8565	0.8066	0.7772	-0.028
Mof_H 	H 	0.8441	0.7963	0.7987	0.06
Mof_C 	C 	0.86491	0.9307	0.7666	-0.051
Mof_C 	C 	0.884	0.9496	0.7344	-0.117
Mof_H 	H 	0.8893	0.0349	0.7264	0.087
Mof_C 	C 	0.8552	0.5578	0.7682	0.306
Mof_C 	C 	0.85441	0.0535	0.7886	0.348
Mof_C 	C 	0.77337	0.2085	0.812	0.07
Mof_H 	H 	0.7703	0.1452	0.784	-0.013
Mof_C 	C 	0.74973	0.1932	0.8354	-0.129
Mof_H 	H 	0.7324	0.118	0.8248	0.077
Mof_C 	C 	0.7512	0.2875	0.8743	0.056
Mof_C 	C 	0.7796	0.3974	0.8906	-0.124
Mof_H 	H 	0.7821	0.4653	0.9165	0.079
Mof_C 	C 	0.8036	0.3988	0.8659	0.068
Mof_H 	H 	0.8232	0.4681	0.8777	0.008
Mof_C 	C 	0.7265	0.2681	0.9003	0.095
Mof_C 	C 	0.6908	0.2918	0.9397	0.09
Mof_C 	C 	0.6708	0.3463	0.9698	0.078
Mof_C 	C 	0.6419	0.2617	0.9713	-0.134
Mof_H 	H 	0.6342	0.1791	0.9514	0.093
Mof_C 	C 	0.6253	0.3045	0.0029	0.082
Mof_H 	H 	0.6051	0.2508	0.0024	-0.003
Mof_C 	C 	0.6629	0.4996	0.0298	0.088
Mof_H 	H 	0.6699	0.5827	0.0492	-0.011
Mof_C 	C 	0.6797	0.4648	0.9979	-0.146
Mof_H 	H 	0.6976	0.5243	0.9958	0.083
Mof_N 	N 	0.80031	0.3086	0.8272	-0.263
Mof_N 	N 	0.71053	0.3596	0.9181	-0.095
Mof_N 	N 	0.71765	0.1502	0.9099	-0.092
Mof_N 	N 	0.6949	0.1649	0.9348	-0.087
Mof_N 	N 	0.709	0.5008	0.911	-0.245
Mof_H 	H 	0.7194	0.5373	0.8929	0.136
Mof_H 	H 	0.6976	0.5496	0.9247	0.135
Mof_N 	N 	0.63672	0.4195	0.0344	-0.276
Mof_O 	O 	0.06962	0.1612	0.5655	-0.483
Mof_O 	O 	0.10415	0.3467	0.6172	-0.444
Mof_O 	O 	0.87655	0.2662	0.4507	-0.284
Mof_O 	O 	0.91695	0.1309	0.4376	-0.466
Mof_O 	O 	0.9778	0.6382	0.5783	-0.193
Mof_O 	O 	0.91515	0.8439	0.6859	-0.197
Mof_O 	O 	0.8568	0.1657	0.7707	-0.462
Mof_O 	O 	0.84354	0.0344	0.8252	-0.502
Mof_O 	O 	0.83454	0.548	0.7906	-0.401
Mof_O 	O 	0.8676	0.4577	0.7557	-0.374
Mof_Zn	Zn	0.33734	0.83221	0.7916	1.203
Mof_Zn	Zn	0.38609	0.53563	0.91558	1.222
Mof_C 	C 	0.57079	0.7795	0.5842	0.385
Mof_C 	C 	0.52774	0.8389	0.5612	-0.053
Mof_C 	C 	0.52565	0.9632	0.5825	-0.104
Mof_H 	H 	0.5507	0.0115	0.6099	0.086
Mof_C 	C 	0.4853	0.0147	0.5621	0.157
Mof_C 	C 	0.44775	0.9416	0.5218	-0.104
Mof_H 	H 	0.421	0.9749	0.5092	0.092
Mof_C 	C 	0.45093	0.8167	0.5005	-0.044
Mof_C 	C 	0.49084	0.7671	0.5203	-0.011
Mof_H 	H 	0.4928	0.6847	0.5058	0.059
Mof_C 	C 	0.4117	0.7326	0.4598	0.334
Mof_C 	C 	0.5146	0.2141	0.6226	-0.108
Mof_H 	H 	0.5318	0.1661	0.6618	0.075
Mof_H 	H 	0.5323	0.2313	0.6079	0.077
Mof_C 	C 	0.4985	0.3433	0.6312	0.172
Mof_C 	C 	0.4727	0.3449	0.6532	-0.226
Mof_H 	H 	0.4654	0.2646	0.6625	0.135
Mof_C 	C 	0.4579	0.4627	0.6611	0.176
Mof_C 	C 	0.471	0.5791	0.6498	-0.237
Mof_H 	H 	0.4615	0.6597	0.6553	0.113
Mof_C 	C 	0.497	0.5815	0.631	0.139
Mof_H 	H 	0.5054	0.6631	0.6243	-0.012
Mof_C 	C 	0.512	0.4612	0.6213	-0.22
Mof_H 	H 	0.5303	0.4622	0.6087	0.113
Mof_C 	C 	0.4295	0.4702	0.6825	-0.102
Mof_H 	H 	0.4047	0.526	0.6541	0.067
Mof_H 	H 	0.4453	0.5118	0.7233	0.068
Mof_C 	C 	0.3943	0.3383	0.7153	0.171
Mof_C 	C 	0.3855	0.2109	0.7259	-0.124
Mof_H 	H 	0.3927	0.1366	0.7126	0.101
Mof_C 	C 	0.3661	0.1942	0.7564	-0.022
Mof_C 	C 	0.3565	0.3066	0.7772	-0.028
Mof_H 	H 	0.3441	0.2963	0.7987	0.06
Mof_C 	C 	0.36491	0.4307	0.7666	-0.052
Mof_C 	C 	0.384	0.4496	0.7344	-0.119
Mof_H 	H 	0.3893	0.5349	0.7264	0.088
Mof_C 	C 	0.3552	0.0578	0.7682	0.305
Mof_C 	C 	0.35441	0.5535	0.7886	0.349
Mof_C 	C 	0.27337	0.7085	0.812	0.07
Mof_H 	H 	0.2703	0.6452	0.784	-0.013
Mof_C 	C 	0.24973	0.6932	0.8354	-0.129
Mof_H 	H 	0.2324	0.618	0.8248	0.078
Mof_C 	C 	0.2512	0.7875	0.8743	0.056
Mof_C 	C 	0.2796	0.8974	0.8906	-0.124
Mof_H 	H 	0.2821	0.9653	0.9165	0.08
Mof_C 	C 	0.3036	0.8988	0.8659	0.068
Mof_H 	H 	0.3232	0.9681	0.8777	0.009
Mof_C 	C 	0.2265	0.7681	0.9003	0.095
Mof_C 	C 	0.1908	0.7918	0.9397	0.093
Mof_C 	C 	0.1708	0.8463	0.9698	0.072
Mof_C 	C 	0.1419	0.7617	0.9713	-0.127
Mof_H 	H 	0.1342	0.6791	0.9514	0.091
Mof_C 	C 	0.1253	0.8045	0.0029	0.077
Mof_H 	H 	0.1051	0.7508	0.0024	-0.002
Mof_C 	C 	0.1629	0.9996	0.0298	0.078
Mof_H 	H 	0.1699	0.0827	0.0492	-0.006
Mof_C 	C 	0.1797	0.9648	0.9979	-0.133
Mof_H 	H 	0.1976	0.0243	0.9958	0.077
Mof_N 	N 	0.30031	0.8086	0.8272	-0.263
Mof_N 	N 	0.21053	0.8596	0.9181	-0.094
Mof_N 	N 	0.21765	0.6502	0.9099	-0.092
Mof_N 	N 	0.1949	0.6649	0.9348	-0.088
Mof_N 	N 	0.209	0.0008	0.911	-0.245
Mof_H 	H 	0.2194	0.0373	0.8929	0.136
Mof_H 	H 	0.1976	0.0496	0.9247	0.135
Mof_N 	N 	0.13672	0.9195	0.0344	-0.274
Mof_O 	O 	0.56962	0.6612	0.5655	-0.483
Mof_O 	O 	0.60415	0.8467	0.6172	-0.444
Mof_O 	O 	0.37655	0.7662	0.4507	-0.285
Mof_O 	O 	0.41695	0.6309	0.4376	-0.466
Mof_O 	O 	0.4778	0.1382	0.5783	-0.192
Mof_O 	O 	0.41515	0.3439	0.6859	-0.196
Mof_O 	O 	0.3568	0.6657	0.7707	-0.462
Mof_O 	O 	0.34354	0.5344	0.8252	-0.502
Mof_O 	O 	0.33454	0.048	0.7906	-0.402
Mof_O 	O 	0.3676	0.9577	0.7557	-0.372
_end
