data_functionalizedCrystal
_audit_creation_method	'EQeq! by Chris Wilmer'
_symmetry_space_group_name_H-M	'P1'
_symmetry_Int_Tables_number	1
_symmetry_cell_setting	triclinic
loop_
_symmetry_equiv_pos_as_xyz
  x,y,z
_cell_length_a	14.3929
_cell_length_b	17.8516
_cell_length_c	26.7111
_cell_angle_alpha	90
_cell_angle_beta	90
_cell_angle_gamma	90
loop_
_atom_site_label
_atom_site_type_symbol
_atom_site_fract_x
_atom_site_fract_y
_atom_site_fract_z
_atom_site_charge
Mof_Zn	Zn	0.56416	0.47132	0.70404	1.244
Mof_Zn	Zn	0.75417	0.53592	0.34199	1.244
Mof_Zn	Zn	0.86657	0.45782	0.4441	1.24
Mof_O 	O 	0.5426	0.4966	0.63409	-0.423
Mof_O 	O 	0.4912	0.3845	0.61425	-0.267
Mof_O 	O 	0.6656	0.4959	0.39668	-0.451
Mof_O 	O 	0.8042	0.4368	0.32442	-0.472
Mof_O 	O 	0.8822	0.3876	0.38887	-0.479
Mof_O 	O 	0.7412	0.4753	0.46711	-0.477
Mof_O 	O 	0.9193	0.4013	0.49837	-0.412
Mof_O 	O 	0.0578	0.42	0.4658	-0.281
Mof_O 	O 	0.0827	0.4471	0.57753	-0.468
Mof_O 	O 	0.2008	0.3848	0.61193	-0.459
Mof_O 	O 	0.9463	0.43349	0.24126	-0.398
Mof_O 	O 	0.8134	0.4038	0.20426	-0.264
Mof_O 	O 	0.4806	0.39065	0.73022	-0.412
Mof_O 	O 	0.3556	0.44775	0.70171	-0.448
Mof_O 	O 	0.1605	0.4225	0.7152	-0.439
Mof_O 	O 	0.1743	0.4021	0.79566	-0.399
Mof_C 	C 	0.5095	0.4507	0.6041	0.346
Mof_C 	C 	0.5013	0.4772	0.5504	-0.027
Mof_C 	C 	0.5793	0.4749	0.52131	0.01
Mof_H 	H 	0.6346	0.4591	0.5359	0.064
Mof_C 	C 	0.5804	0.495	0.47105	-0.068
Mof_C 	C 	0.669	0.488	0.44238	0.415
Mof_C 	C 	0.851	0.3874	0.34508	0.427
Mof_C 	C 	0.0053	0.3871	0.4939	0.319
Mof_C 	C 	0.0375	0.3177	0.5214	-0.006
Mof_C 	C 	0.0961	0.3175	0.56182	-0.077
Mof_C 	C 	0.1302	0.3884	0.5853	0.388
Mof_C 	C 	0.8687	0.318	0.31526	-0.092
Mof_C 	C 	0.8747	0.3183	0.26298	0.008
Mof_C 	C 	0.8763	0.3907	0.23377	0.306
Mof_C 	C 	0.3962	0.3901	0.71842	0.376
Mof_C 	C 	0.3434	0.3184	0.72577	-0.083
Mof_C 	C 	0.2519	0.3178	0.74116	-0.05
Mof_C 	C 	0.1931	0.3869	0.75098	0.345
Mof_Zn	Zn	0.93584	0.52868	0.20404	1.245
Mof_Zn	Zn	0.74583	0.46408	0.84199	1.245
Mof_Zn	Zn	0.63343	0.54218	0.9441	1.241
Mof_O 	O 	0.9574	0.5034	0.13409	-0.422
Mof_O 	O 	0.0088	0.6155	0.11425	-0.263
Mof_O 	O 	0.8344	0.5041	0.89668	-0.45
Mof_O 	O 	0.6958	0.5632	0.82442	-0.471
Mof_O 	O 	0.6178	0.6124	0.88887	-0.478
Mof_O 	O 	0.7588	0.5247	0.96711	-0.475
Mof_O 	O 	0.5807	0.5987	0.99837	-0.412
Mof_O 	O 	0.4422	0.58	0.9658	-0.282
Mof_O 	O 	0.4173	0.5529	0.07753	-0.468
Mof_O 	O 	0.2992	0.6152	0.11193	-0.459
Mof_O 	O 	0.5537	0.56651	0.74126	-0.398
Mof_O 	O 	0.6866	0.5962	0.70426	-0.264
Mof_O 	O 	0.0194	0.60935	0.23022	-0.411
Mof_O 	O 	0.1444	0.55225	0.20171	-0.448
Mof_O 	O 	0.3395	0.5775	0.2152	-0.439
Mof_O 	O 	0.3257	0.5979	0.29566	-0.399
Mof_C 	C 	0.9905	0.5493	0.1041	0.343
Mof_C 	C 	0.9987	0.5228	0.0504	-0.029
Mof_C 	C 	0.9207	0.5251	0.02131	0.006
Mof_H 	H 	0.8654	0.5409	0.0359	0.065
Mof_C 	C 	0.9196	0.505	0.97105	-0.064
Mof_C 	C 	0.831	0.512	0.94238	0.413
Mof_C 	C 	0.649	0.6126	0.84508	0.427
Mof_C 	C 	0.4947	0.6129	0.9939	0.321
Mof_C 	C 	0.4625	0.6823	0.0214	-0.008
Mof_C 	C 	0.4039	0.6825	0.06182	-0.075
Mof_C 	C 	0.3698	0.6116	0.0853	0.387
Mof_C 	C 	0.6313	0.682	0.81526	-0.092
Mof_C 	C 	0.6253	0.6817	0.76298	0.009
Mof_C 	C 	0.6237	0.6093	0.73377	0.306
Mof_C 	C 	0.1038	0.6099	0.21842	0.376
Mof_C 	C 	0.1566	0.6816	0.22577	-0.083
Mof_C 	C 	0.2481	0.6822	0.24116	-0.049
Mof_C 	C 	0.3069	0.6131	0.25098	0.345
Mof_Zn	Zn	0.43584	0.97132	0.29596	1.245
Mof_Zn	Zn	0.24583	0.03592	0.65801	1.245
Mof_Zn	Zn	0.13343	0.95782	0.5559	1.242
Mof_O 	O 	0.4574	0.9966	0.36591	-0.422
Mof_O 	O 	0.5088	0.8845	0.38575	-0.266
Mof_O 	O 	0.3344	0.9959	0.60332	-0.449
Mof_O 	O 	0.1958	0.9368	0.67558	-0.47
Mof_O 	O 	0.1178	0.8876	0.61113	-0.478
Mof_O 	O 	0.2588	0.9753	0.53289	-0.475
Mof_O 	O 	0.0807	0.9013	0.50163	-0.409
Mof_O 	O 	0.9422	0.92	0.5342	-0.281
Mof_O 	O 	0.9173	0.9471	0.42247	-0.469
Mof_O 	O 	0.7992	0.8848	0.38807	-0.459
Mof_O 	O 	0.0537	0.93349	0.75874	-0.396
Mof_O 	O 	0.1866	0.9038	0.79574	-0.263
Mof_O 	O 	0.5194	0.89065	0.26978	-0.412
Mof_O 	O 	0.6444	0.94775	0.29829	-0.449
Mof_O 	O 	0.8395	0.9225	0.2848	-0.44
Mof_O 	O 	0.8257	0.9021	0.20434	-0.4
Mof_C 	C 	0.4905	0.9507	0.3959	0.346
Mof_C 	C 	0.4987	0.9772	0.4496	-0.028
Mof_C 	C 	0.4207	0.9749	0.47869	0.01
Mof_H 	H 	0.3654	0.9591	0.4641	0.065
Mof_C 	C 	0.4196	0.995	0.52895	-0.068
Mof_C 	C 	0.331	0.988	0.55762	0.414
Mof_C 	C 	0.149	0.8874	0.65492	0.427
Mof_C 	C 	0.9947	0.8871	0.5061	0.316
Mof_C 	C 	0.9625	0.8177	0.4786	-0.006
Mof_C 	C 	0.9039	0.8175	0.43818	-0.077
Mof_C 	C 	0.8698	0.8884	0.4147	0.388
Mof_C 	C 	0.1313	0.818	0.68474	-0.092
Mof_C 	C 	0.1253	0.8183	0.73702	0.009
Mof_C 	C 	0.1237	0.8907	0.76623	0.306
Mof_C 	C 	0.6038	0.8901	0.28158	0.376
Mof_C 	C 	0.6566	0.8184	0.27423	-0.083
Mof_C 	C 	0.7481	0.8178	0.25884	-0.05
Mof_C 	C 	0.8069	0.8869	0.24902	0.345
Mof_Zn	Zn	0.06416	0.02868	0.79596	1.244
Mof_Zn	Zn	0.25417	0.96408	0.15801	1.245
Mof_Zn	Zn	0.36657	0.04218	0.0559	1.241
Mof_O 	O 	0.0426	0.0034	0.86591	-0.423
Mof_O 	O 	0.9912	0.1155	0.88575	-0.261
Mof_O 	O 	0.1656	0.0041	0.10332	-0.449
Mof_O 	O 	0.3042	0.0632	0.17558	-0.471
Mof_O 	O 	0.3822	0.1124	0.11113	-0.478
Mof_O 	O 	0.2412	0.0247	0.03289	-0.475
Mof_O 	O 	0.4193	0.0987	0.00163	-0.412
Mof_O 	O 	0.5578	0.08	0.0342	-0.281
Mof_O 	O 	0.5827	0.0529	0.92247	-0.468
Mof_O 	O 	0.7008	0.1152	0.88807	-0.459
Mof_O 	O 	0.4463	0.06651	0.25874	-0.397
Mof_O 	O 	0.3134	0.0962	0.29574	-0.264
Mof_O 	O 	0.9806	0.10935	0.76978	-0.41
Mof_O 	O 	0.8556	0.05225	0.79829	-0.447
Mof_O 	O 	0.6605	0.0775	0.7848	-0.439
Mof_O 	O 	0.6743	0.0979	0.70434	-0.398
Mof_C 	C 	0.0095	0.0493	0.8959	0.341
Mof_C 	C 	0.0013	0.0228	0.9496	-0.031
Mof_C 	C 	0.0793	0.0251	0.97869	0.004
Mof_H 	H 	0.1346	0.0409	0.9641	0.065
Mof_C 	C 	0.0804	0.005	0.02895	-0.061
Mof_C 	C 	0.169	0.012	0.05762	0.413
Mof_C 	C 	0.351	0.1126	0.15492	0.427
Mof_C 	C 	0.5053	0.1129	0.0061	0.321
Mof_C 	C 	0.5375	0.1823	0.9786	-0.009
Mof_C 	C 	0.5961	0.1825	0.93818	-0.075
Mof_C 	C 	0.6302	0.1116	0.9147	0.387
Mof_C 	C 	0.3687	0.182	0.18474	-0.092
Mof_C 	C 	0.3747	0.1817	0.23702	0.009
Mof_C 	C 	0.3763	0.1093	0.26623	0.306
Mof_C 	C 	0.8962	0.1099	0.78158	0.376
Mof_C 	C 	0.8434	0.1816	0.77423	-0.083
Mof_C 	C 	0.7519	0.1822	0.75884	-0.049
Mof_C 	C 	0.6931	0.1131	0.74902	0.345
Mof_Zn	Zn	0.43584	0.52868	0.29596	1.245
Mof_Zn	Zn	0.24583	0.46408	0.65801	1.245
Mof_Zn	Zn	0.13343	0.54218	0.5559	1.241
Mof_O 	O 	0.4574	0.5034	0.36591	-0.422
Mof_O 	O 	0.5088	0.6155	0.38575	-0.266
Mof_O 	O 	0.3344	0.5041	0.60332	-0.45
Mof_O 	O 	0.1958	0.5632	0.67558	-0.471
Mof_O 	O 	0.1178	0.6124	0.61113	-0.478
Mof_O 	O 	0.2588	0.5247	0.53289	-0.476
Mof_O 	O 	0.0807	0.5987	0.50163	-0.411
Mof_O 	O 	0.9422	0.58	0.5342	-0.281
Mof_O 	O 	0.9173	0.5529	0.42247	-0.468
Mof_O 	O 	0.7992	0.6152	0.38807	-0.459
Mof_O 	O 	0.0537	0.56651	0.75874	-0.398
Mof_O 	O 	0.1866	0.5962	0.79574	-0.264
Mof_O 	O 	0.5194	0.60935	0.26978	-0.412
Mof_O 	O 	0.6444	0.55225	0.29829	-0.448
Mof_O 	O 	0.8395	0.5775	0.2848	-0.439
Mof_O 	O 	0.8257	0.5979	0.20434	-0.399
Mof_C 	C 	0.4905	0.5493	0.3959	0.346
Mof_C 	C 	0.4987	0.5228	0.4496	-0.027
Mof_C 	C 	0.4207	0.5251	0.47869	0.01
Mof_H 	H 	0.3654	0.5409	0.4641	0.064
Mof_C 	C 	0.4196	0.505	0.52895	-0.068
Mof_C 	C 	0.331	0.512	0.55762	0.415
Mof_C 	C 	0.149	0.6126	0.65492	0.427
Mof_C 	C 	0.9947	0.6129	0.5061	0.319
Mof_C 	C 	0.9625	0.6823	0.4786	-0.006
Mof_C 	C 	0.9039	0.6825	0.43818	-0.077
Mof_C 	C 	0.8698	0.6116	0.4147	0.388
Mof_C 	C 	0.1313	0.682	0.68474	-0.092
Mof_C 	C 	0.1253	0.6817	0.73702	0.008
Mof_C 	C 	0.1237	0.6093	0.76623	0.306
Mof_C 	C 	0.6038	0.6099	0.28158	0.376
Mof_C 	C 	0.6566	0.6816	0.27423	-0.083
Mof_C 	C 	0.7481	0.6822	0.25884	-0.05
Mof_C 	C 	0.8069	0.6131	0.24902	0.345
Mof_Zn	Zn	0.06416	0.47132	0.79596	1.245
Mof_Zn	Zn	0.25417	0.53592	0.15801	1.245
Mof_Zn	Zn	0.36657	0.45782	0.0559	1.241
Mof_O 	O 	0.0426	0.4966	0.86591	-0.422
Mof_O 	O 	0.9912	0.3845	0.88575	-0.263
Mof_O 	O 	0.1656	0.4959	0.10332	-0.45
Mof_O 	O 	0.3042	0.4368	0.17558	-0.471
Mof_O 	O 	0.3822	0.3876	0.11113	-0.478
Mof_O 	O 	0.2412	0.4753	0.03289	-0.475
Mof_O 	O 	0.4193	0.4013	0.00163	-0.412
Mof_O 	O 	0.5578	0.42	0.0342	-0.282
Mof_O 	O 	0.5827	0.4471	0.92247	-0.468
Mof_O 	O 	0.7008	0.3848	0.88807	-0.459
Mof_O 	O 	0.4463	0.43349	0.25874	-0.398
Mof_O 	O 	0.3134	0.4038	0.29574	-0.264
Mof_O 	O 	0.9806	0.39065	0.76978	-0.411
Mof_O 	O 	0.8556	0.44775	0.79829	-0.448
Mof_O 	O 	0.6605	0.4225	0.7848	-0.439
Mof_O 	O 	0.6743	0.4021	0.70434	-0.399
Mof_C 	C 	0.0095	0.4507	0.8959	0.343
Mof_C 	C 	0.0013	0.4772	0.9496	-0.029
Mof_C 	C 	0.0793	0.4749	0.97869	0.006
Mof_H 	H 	0.1346	0.4591	0.9641	0.065
Mof_C 	C 	0.0804	0.495	0.02895	-0.064
Mof_C 	C 	0.169	0.488	0.05762	0.413
Mof_C 	C 	0.351	0.3874	0.15492	0.427
Mof_C 	C 	0.5053	0.3871	0.0061	0.321
Mof_C 	C 	0.5375	0.3177	0.9786	-0.008
Mof_C 	C 	0.5961	0.3175	0.93818	-0.075
Mof_C 	C 	0.6302	0.3884	0.9147	0.387
Mof_C 	C 	0.3687	0.318	0.18474	-0.092
Mof_C 	C 	0.3747	0.3183	0.23702	0.009
Mof_C 	C 	0.3763	0.3907	0.26623	0.306
Mof_C 	C 	0.8962	0.3901	0.78158	0.376
Mof_C 	C 	0.8434	0.3184	0.77423	-0.083
Mof_C 	C 	0.7519	0.3178	0.75884	-0.049
Mof_C 	C 	0.6931	0.3869	0.74902	0.345
Mof_Zn	Zn	0.56416	0.02868	0.70404	1.245
Mof_Zn	Zn	0.75417	0.96408	0.34199	1.245
Mof_Zn	Zn	0.86657	0.04218	0.4441	1.242
Mof_O 	O 	0.5426	0.0034	0.63409	-0.422
Mof_O 	O 	0.4912	0.1155	0.61425	-0.266
Mof_O 	O 	0.6656	0.0041	0.39668	-0.449
Mof_O 	O 	0.8042	0.0632	0.32442	-0.47
Mof_O 	O 	0.8822	0.1124	0.38887	-0.478
Mof_O 	O 	0.7412	0.0247	0.46711	-0.475
Mof_O 	O 	0.9193	0.0987	0.49837	-0.409
Mof_O 	O 	0.0578	0.08	0.4658	-0.281
Mof_O 	O 	0.0827	0.0529	0.57753	-0.469
Mof_O 	O 	0.2008	0.1152	0.61193	-0.459
Mof_O 	O 	0.9463	0.06651	0.24126	-0.396
Mof_O 	O 	0.8134	0.0962	0.20426	-0.263
Mof_O 	O 	0.4806	0.10935	0.73022	-0.412
Mof_O 	O 	0.3556	0.05225	0.70171	-0.449
Mof_O 	O 	0.1605	0.0775	0.7152	-0.44
Mof_O 	O 	0.1743	0.0979	0.79566	-0.4
Mof_C 	C 	0.5095	0.0493	0.6041	0.346
Mof_C 	C 	0.5013	0.0228	0.5504	-0.028
Mof_C 	C 	0.5793	0.0251	0.52131	0.01
Mof_H 	H 	0.6346	0.0409	0.5359	0.065
Mof_C 	C 	0.5804	0.005	0.47105	-0.068
Mof_C 	C 	0.669	0.012	0.44238	0.414
Mof_C 	C 	0.851	0.1126	0.34508	0.427
Mof_C 	C 	0.0053	0.1129	0.4939	0.316
Mof_C 	C 	0.0375	0.1823	0.5214	-0.006
Mof_C 	C 	0.0961	0.1825	0.56182	-0.077
Mof_C 	C 	0.1302	0.1116	0.5853	0.388
Mof_C 	C 	0.8687	0.182	0.31526	-0.092
Mof_C 	C 	0.8747	0.1817	0.26298	0.009
Mof_C 	C 	0.8763	0.1093	0.23377	0.306
Mof_C 	C 	0.3962	0.1099	0.71842	0.376
Mof_C 	C 	0.3434	0.1816	0.72577	-0.083
Mof_C 	C 	0.2519	0.1822	0.74116	-0.05
Mof_C 	C 	0.1931	0.1131	0.75098	0.345
Mof_Zn	Zn	0.93584	0.97132	0.20404	1.244
Mof_Zn	Zn	0.74583	0.03592	0.84199	1.245
Mof_Zn	Zn	0.63343	0.95782	0.9441	1.241
Mof_O 	O 	0.9574	0.9966	0.13409	-0.423
Mof_O 	O 	0.0088	0.8845	0.11425	-0.261
Mof_O 	O 	0.8344	0.9959	0.89668	-0.449
Mof_O 	O 	0.6958	0.9368	0.82442	-0.471
Mof_O 	O 	0.6178	0.8876	0.88887	-0.478
Mof_O 	O 	0.7588	0.9753	0.96711	-0.475
Mof_O 	O 	0.5807	0.9013	0.99837	-0.412
Mof_O 	O 	0.4422	0.92	0.9658	-0.281
Mof_O 	O 	0.4173	0.9471	0.07753	-0.468
Mof_O 	O 	0.2992	0.8848	0.11193	-0.459
Mof_O 	O 	0.5537	0.93349	0.74126	-0.397
Mof_O 	O 	0.6866	0.9038	0.70426	-0.264
Mof_O 	O 	0.0194	0.89065	0.23022	-0.41
Mof_O 	O 	0.1444	0.94775	0.20171	-0.447
Mof_O 	O 	0.3395	0.9225	0.2152	-0.439
Mof_O 	O 	0.3257	0.9021	0.29566	-0.398
Mof_C 	C 	0.9905	0.9507	0.1041	0.341
Mof_C 	C 	0.9987	0.9772	0.0504	-0.031
Mof_C 	C 	0.9207	0.9749	0.02131	0.004
Mof_H 	H 	0.8654	0.9591	0.0359	0.065
Mof_C 	C 	0.9196	0.995	0.97105	-0.061
Mof_C 	C 	0.831	0.988	0.94238	0.413
Mof_C 	C 	0.649	0.8874	0.84508	0.427
Mof_C 	C 	0.4947	0.8871	0.9939	0.321
Mof_C 	C 	0.4625	0.8177	0.0214	-0.009
Mof_C 	C 	0.4039	0.8175	0.06182	-0.075
Mof_C 	C 	0.3698	0.8884	0.0853	0.387
Mof_C 	C 	0.6313	0.818	0.81526	-0.092
Mof_C 	C 	0.6253	0.8183	0.76298	0.009
Mof_C 	C 	0.6237	0.8907	0.73377	0.306
Mof_C 	C 	0.1038	0.8901	0.21842	0.376
Mof_C 	C 	0.1566	0.8184	0.22577	-0.083
Mof_C 	C 	0.2481	0.8178	0.24116	-0.049
Mof_C 	C 	0.3069	0.8869	0.25098	0.345
Mof_C 	C 	0.1255	0.25	0.5821	0.037
Mof_H 	H 	0.1652	0.25	0.6096	0.057
Mof_C 	C 	0.0087	0.25	0.5011	-0.029
Mof_H 	H 	0.9694	0.25	0.4735	0.065
Mof_C 	C 	0.8795	0.25	0.2374	-0.038
Mof_H 	H 	0.8859	0.25	0.2028	0.075
Mof_C 	C 	0.8669	0.25	0.3402	0.052
Mof_H 	H 	0.8644	0.25	0.375	0.042
Mof_C 	C 	0.207	0.25	0.7499	0.007
Mof_H 	H 	0.1462	0.25	0.7618	0.057
Mof_C 	C 	0.3898	0.25	0.7197	0.039
Mof_H 	H 	0.4526	0.25	0.7114	0.055
Mof_C 	C 	0.3745	0.75	0.0821	0.035
Mof_H 	H 	0.3348	0.75	0.1096	0.058
Mof_C 	C 	0.4913	0.75	0.0011	-0.026
Mof_H 	H 	0.5306	0.75	0.9735	0.064
Mof_C 	C 	0.6205	0.75	0.7374	-0.038
Mof_H 	H 	0.6141	0.75	0.7028	0.075
Mof_C 	C 	0.6331	0.75	0.8402	0.052
Mof_H 	H 	0.6356	0.75	0.875	0.042
Mof_C 	C 	0.293	0.75	0.2499	0.007
Mof_H 	H 	0.3538	0.75	0.2618	0.058
Mof_C 	C 	0.1102	0.75	0.2197	0.039
Mof_H 	H 	0.0474	0.75	0.2114	0.056
Mof_C 	C 	0.8745	0.75	0.4179	0.037
Mof_H 	H 	0.8348	0.75	0.3904	0.057
Mof_C 	C 	0.9913	0.75	0.4989	-0.029
Mof_H 	H 	0.0306	0.75	0.5265	0.065
Mof_C 	C 	0.1205	0.75	0.7626	-0.038
Mof_H 	H 	0.1141	0.75	0.7972	0.075
Mof_C 	C 	0.1331	0.75	0.6598	0.052
Mof_H 	H 	0.1356	0.75	0.625	0.042
Mof_C 	C 	0.793	0.75	0.2501	0.007
Mof_H 	H 	0.8538	0.75	0.2382	0.057
Mof_C 	C 	0.6102	0.75	0.2803	0.039
Mof_H 	H 	0.5474	0.75	0.2886	0.055
Mof_C 	C 	0.6255	0.25	0.9179	0.035
Mof_H 	H 	0.6652	0.25	0.8904	0.058
Mof_C 	C 	0.5087	0.25	0.9989	-0.026
Mof_H 	H 	0.4694	0.25	0.0265	0.064
Mof_C 	C 	0.3795	0.25	0.2626	-0.038
Mof_H 	H 	0.3859	0.25	0.2972	0.075
Mof_C 	C 	0.3669	0.25	0.1598	0.052
Mof_H 	H 	0.3644	0.25	0.125	0.042
Mof_C 	C 	0.707	0.25	0.7501	0.007
Mof_H 	H 	0.6462	0.25	0.7382	0.058
Mof_C 	C 	0.8898	0.25	0.7803	0.039
Mof_H 	H 	0.9526	0.25	0.7886	0.056
_end
