# CIF file generated by openbabel 3.1.0, see https://openbabel.org
data_I
_chemical_name_common 'image0'
_cell_length_a 18.272
_cell_length_b 23.498
_cell_length_c 29.935
_cell_angle_alpha 90
_cell_angle_beta 90
_cell_angle_gamma 90
_space_group_name_H-M_alt 'P 1'
_space_group_name_Hall 'P 1'
loop_
    _symmetry_equiv_pos_as_xyz
    x,y,z
loop_
    _atom_site_label
    _atom_site_type_symbol
    _atom_site_fract_x
    _atom_site_fract_y
    _atom_site_fract_z
    _atom_site_occupancy
    Cu1      Cu       0.26070    0.10710    0.36900    1.000
    N1       N        0.27130    0.02500    0.37060    1.000
    C1       C        0.25200    0.99320    0.33550    1.000
    C2       C        0.25310    0.93510    0.33610    1.000
    C3       C        0.27450    0.90650    0.37410    1.000
    C4       C        0.29540    0.93880    0.41050    1.000
    C5       C        0.29380    0.99710    0.40720    1.000
    N2       N        0.30720    0.59120    0.42570    1.000
    C6       C        0.31610    0.53610    0.41770    1.000
    C7       C        0.34600    0.49880    0.44760    1.000
    C8       C        0.36830    0.51800    0.48890    1.000
    C9       C        0.35840    0.57550    0.49780    1.000
    C10      C        0.32850    0.60990    0.46560    1.000
    N3       N        0.46180    0.40450    0.58460    1.000
    C11      C        0.46950    0.39640    0.54090    1.000
    C12      C        0.44120    0.43180    0.50920    1.000
    C13      C        0.40090    0.47950    0.52170    1.000
    C14      C        0.39270    0.48770    0.56760    1.000
    C15      C        0.42280    0.44950    0.59720    1.000
    H1       H        0.23250    0.01120    0.30930    1.000
    H2       H        0.24400    0.91350    0.30940    1.000
    H3       H        0.31290    0.92140    0.43750    1.000
    H4       H        0.30880    0.01930    0.43250    1.000
    H5       H        0.29940    0.52230    0.38920    1.000
    H6       H        0.35380    0.46010    0.43860    1.000
    H7       H        0.37080    0.59090    0.52650    1.000
    H8       H        0.32620    0.65020    0.47060    1.000
    H9       H        0.50120    0.36590    0.53180    1.000
    H10      H        0.44640    0.42210    0.47820    1.000
    H11      H        0.36580    0.52000    0.57840    1.000
    H12      H        0.41510    0.45500    0.62870    1.000
    Cu2      Cu       0.26070    0.60710    0.86900    1.000
    N4       N        0.27130    0.52500    0.87060    1.000
    C16      C        0.25200    0.49320    0.83550    1.000
    C17      C        0.25310    0.43510    0.83610    1.000
    C18      C        0.27450    0.40650    0.87410    1.000
    C19      C        0.29540    0.43880    0.91050    1.000
    C20      C        0.29380    0.49710    0.90720    1.000
    N5       N        0.30720    0.09120    0.92570    1.000
    C21      C        0.31610    0.03610    0.91770    1.000
    C22      C        0.34600    0.99880    0.94760    1.000
    C23      C        0.36830    0.01800    0.98890    1.000
    C24      C        0.35840    0.07550    0.99780    1.000
    C25      C        0.32850    0.10990    0.96560    1.000
    N6       N        0.46180    0.90450    0.08460    1.000
    C26      C        0.46950    0.89640    0.04090    1.000
    C27      C        0.44120    0.93180    0.00920    1.000
    C28      C        0.40090    0.97950    0.02170    1.000
    C29      C        0.39270    0.98770    0.06760    1.000
    C30      C        0.42280    0.94950    0.09720    1.000
    H13      H        0.23250    0.51120    0.80930    1.000
    H14      H        0.24400    0.41350    0.80940    1.000
    H15      H        0.31290    0.42140    0.93750    1.000
    H16      H        0.30880    0.51930    0.93250    1.000
    H17      H        0.29940    0.02230    0.88920    1.000
    H18      H        0.35380    0.96010    0.93860    1.000
    H19      H        0.37080    0.09090    0.02650    1.000
    H20      H        0.32620    0.15020    0.97060    1.000
    H21      H        0.50120    0.86590    0.03180    1.000
    H22      H        0.44640    0.92210    0.97820    1.000
    H23      H        0.36580    0.02000    0.07840    1.000
    H24      H        0.41510    0.95500    0.12870    1.000
    Cu3      Cu       0.76070    0.10710    0.86900    1.000
    N7       N        0.77130    0.02500    0.87060    1.000
    C31      C        0.75200    0.99320    0.83550    1.000
    C32      C        0.75310    0.93510    0.83610    1.000
    C33      C        0.77450    0.90650    0.87410    1.000
    C34      C        0.79540    0.93880    0.91050    1.000
    C35      C        0.79380    0.99710    0.90720    1.000
    N8       N        0.80720    0.59120    0.92570    1.000
    C36      C        0.81610    0.53610    0.91770    1.000
    C37      C        0.84600    0.49880    0.94760    1.000
    C38      C        0.86830    0.51800    0.98890    1.000
    C39      C        0.85840    0.57550    0.99780    1.000
    C40      C        0.82850    0.60990    0.96560    1.000
    N9       N        0.96180    0.40450    0.08460    1.000
    C41      C        0.96950    0.39640    0.04090    1.000
    C42      C        0.94120    0.43180    0.00920    1.000
    C43      C        0.90090    0.47950    0.02170    1.000
    C44      C        0.89270    0.48770    0.06760    1.000
    C45      C        0.92280    0.44950    0.09720    1.000
    H25      H        0.73250    0.01120    0.80930    1.000
    H26      H        0.74400    0.91350    0.80940    1.000
    H27      H        0.81290    0.92140    0.93750    1.000
    H28      H        0.80880    0.01930    0.93250    1.000
    H29      H        0.79940    0.52230    0.88920    1.000
    H30      H        0.85380    0.46010    0.93860    1.000
    H31      H        0.87080    0.59090    0.02650    1.000
    H32      H        0.82620    0.65020    0.97060    1.000
    H33      H        0.00120    0.36590    0.03180    1.000
    H34      H        0.94640    0.42210    0.97820    1.000
    H35      H        0.86580    0.52000    0.07840    1.000
    H36      H        0.91510    0.45500    0.12870    1.000
    Cu4      Cu       0.76070    0.60710    0.36900    1.000
    N10      N        0.77130    0.52500    0.37060    1.000
    C46      C        0.75200    0.49320    0.33550    1.000
    C47      C        0.75310    0.43510    0.33610    1.000
    C48      C        0.77450    0.40650    0.37410    1.000
    C49      C        0.79540    0.43880    0.41050    1.000
    C50      C        0.79380    0.49710    0.40720    1.000
    N11      N        0.80720    0.09120    0.42570    1.000
    C51      C        0.81610    0.03610    0.41770    1.000
    C52      C        0.84600    0.99880    0.44760    1.000
    C53      C        0.86830    0.01800    0.48890    1.000
    C54      C        0.85840    0.07550    0.49780    1.000
    C55      C        0.82850    0.10990    0.46560    1.000
    N12      N        0.96180    0.90450    0.58460    1.000
    C56      C        0.96950    0.89640    0.54090    1.000
    C57      C        0.94120    0.93180    0.50920    1.000
    C58      C        0.90090    0.97950    0.52170    1.000
    C59      C        0.89270    0.98770    0.56760    1.000
    C60      C        0.92280    0.94950    0.59720    1.000
    H37      H        0.73250    0.51120    0.30930    1.000
    H38      H        0.74400    0.41350    0.30940    1.000
    H39      H        0.81290    0.42140    0.43750    1.000
    H40      H        0.80880    0.51930    0.43250    1.000
    H41      H        0.79940    0.02230    0.38920    1.000
    H42      H        0.85380    0.96010    0.43860    1.000
    H43      H        0.87080    0.09090    0.52650    1.000
    H44      H        0.82620    0.15020    0.47060    1.000
    H45      H        0.00120    0.86590    0.53180    1.000
    H46      H        0.94640    0.92210    0.47820    1.000
    H47      H        0.86580    0.02000    0.57840    1.000
    H48      H        0.91510    0.95500    0.62870    1.000
    Cu5      Cu       0.26070    0.64290    0.38100    1.000
    N13      N        0.27130    0.72500    0.37940    1.000
    C61      C        0.25200    0.75680    0.41450    1.000
    C62      C        0.25310    0.81490    0.41390    1.000
    C63      C        0.27450    0.84350    0.37590    1.000
    C64      C        0.29540    0.81120    0.33950    1.000
    C65      C        0.29380    0.75290    0.34280    1.000
    N14      N        0.30720    0.15880    0.32430    1.000
    C66      C        0.31610    0.21390    0.33230    1.000
    C67      C        0.34600    0.25120    0.30240    1.000
    C68      C        0.36830    0.23200    0.26110    1.000
    C69      C        0.35840    0.17450    0.25220    1.000
    C70      C        0.32850    0.14010    0.28440    1.000
    N15      N        0.46180    0.34550    0.16540    1.000
    C71      C        0.46950    0.35360    0.20910    1.000
    C72      C        0.44120    0.31820    0.24080    1.000
    C73      C        0.40090    0.27050    0.22830    1.000
    C74      C        0.39270    0.26230    0.18240    1.000
    C75      C        0.42280    0.30050    0.15280    1.000
    H49      H        0.23250    0.73880    0.44070    1.000
    H50      H        0.24400    0.83650    0.44060    1.000
    H51      H        0.31290    0.82860    0.31250    1.000
    H52      H        0.30880    0.73070    0.31750    1.000
    H53      H        0.29940    0.22770    0.36080    1.000
    H54      H        0.35380    0.28990    0.31140    1.000
    H55      H        0.37080    0.15910    0.22350    1.000
    H56      H        0.32620    0.09980    0.27940    1.000
    H57      H        0.50120    0.38410    0.21820    1.000
    H58      H        0.44640    0.32790    0.27180    1.000
    H59      H        0.36580    0.23000    0.17160    1.000
    H60      H        0.41510    0.29500    0.12130    1.000
    Cu6      Cu       0.26070    0.14290    0.88100    1.000
    N16      N        0.27130    0.22500    0.87940    1.000
    C76      C        0.25200    0.25680    0.91450    1.000
    C77      C        0.25310    0.31490    0.91390    1.000
    C78      C        0.27450    0.34350    0.87590    1.000
    C79      C        0.29540    0.31120    0.83950    1.000
    C80      C        0.29380    0.25290    0.84280    1.000
    N17      N        0.30720    0.65880    0.82430    1.000
    C81      C        0.31610    0.71390    0.83230    1.000
    C82      C        0.34600    0.75120    0.80240    1.000
    C83      C        0.36830    0.73200    0.76110    1.000
    C84      C        0.35840    0.67450    0.75220    1.000
    C85      C        0.32850    0.64010    0.78440    1.000
    N18      N        0.46180    0.84550    0.66540    1.000
    C86      C        0.46950    0.85360    0.70910    1.000
    C87      C        0.44120    0.81820    0.74080    1.000
    C88      C        0.40090    0.77050    0.72830    1.000
    C89      C        0.39270    0.76230    0.68240    1.000
    C90      C        0.42280    0.80050    0.65280    1.000
    H61      H        0.23250    0.23880    0.94070    1.000
    H62      H        0.24400    0.33650    0.94060    1.000
    H63      H        0.31290    0.32860    0.81250    1.000
    H64      H        0.30880    0.23070    0.81750    1.000
    H65      H        0.29940    0.72770    0.86080    1.000
    H66      H        0.35380    0.78990    0.81140    1.000
    H67      H        0.37080    0.65910    0.72350    1.000
    H68      H        0.32620    0.59980    0.77940    1.000
    H69      H        0.50120    0.88410    0.71820    1.000
    H70      H        0.44640    0.82790    0.77180    1.000
    H71      H        0.36580    0.73000    0.67160    1.000
    H72      H        0.41510    0.79500    0.62130    1.000
    Cu7      Cu       0.76070    0.64290    0.88100    1.000
    N19      N        0.77130    0.72500    0.87940    1.000
    C91      C        0.75200    0.75680    0.91450    1.000
    C92      C        0.75310    0.81490    0.91390    1.000
    C93      C        0.77450    0.84350    0.87590    1.000
    C94      C        0.79540    0.81120    0.83950    1.000
    C95      C        0.79380    0.75290    0.84280    1.000
    N20      N        0.80720    0.15880    0.82430    1.000
    C96      C        0.81610    0.21390    0.83230    1.000
    C97      C        0.84600    0.25120    0.80240    1.000
    C98      C        0.86830    0.23200    0.76110    1.000
    C99      C        0.85840    0.17450    0.75220    1.000
    C100     C        0.82850    0.14010    0.78440    1.000
    N21      N        0.96180    0.34550    0.66540    1.000
    C101     C        0.96950    0.35360    0.70910    1.000
    C102     C        0.94120    0.31820    0.74080    1.000
    C103     C        0.90090    0.27050    0.72830    1.000
    C104     C        0.89270    0.26230    0.68240    1.000
    C105     C        0.92280    0.30050    0.65280    1.000
    H73      H        0.73250    0.73880    0.94070    1.000
    H74      H        0.74400    0.83650    0.94060    1.000
    H75      H        0.81290    0.82860    0.81250    1.000
    H76      H        0.80880    0.73070    0.81750    1.000
    H77      H        0.79940    0.22770    0.86080    1.000
    H78      H        0.85380    0.28990    0.81140    1.000
    H79      H        0.87080    0.15910    0.72350    1.000
    H80      H        0.82620    0.09980    0.77940    1.000
    H81      H        0.00120    0.38410    0.71820    1.000
    H82      H        0.94640    0.32790    0.77180    1.000
    H83      H        0.86580    0.23000    0.67160    1.000
    H84      H        0.91510    0.29500    0.62130    1.000
    Cu8      Cu       0.76070    0.14290    0.38100    1.000
    N22      N        0.77130    0.22500    0.37940    1.000
    C106     C        0.75200    0.25680    0.41450    1.000
    C107     C        0.75310    0.31490    0.41390    1.000
    C108     C        0.77450    0.34350    0.37590    1.000
    C109     C        0.79540    0.31120    0.33950    1.000
    C110     C        0.79380    0.25290    0.34280    1.000
    N23      N        0.80720    0.65880    0.32430    1.000
    C111     C        0.81610    0.71390    0.33230    1.000
    C112     C        0.84600    0.75120    0.30240    1.000
    C113     C        0.86830    0.73200    0.26110    1.000
    C114     C        0.85840    0.67450    0.25220    1.000
    C115     C        0.82850    0.64010    0.28440    1.000
    N24      N        0.96180    0.84550    0.16540    1.000
    C116     C        0.96950    0.85360    0.20910    1.000
    C117     C        0.94120    0.81820    0.24080    1.000
    C118     C        0.90090    0.77050    0.22830    1.000
    C119     C        0.89270    0.76230    0.18240    1.000
    C120     C        0.92280    0.80050    0.15280    1.000
    H85      H        0.73250    0.23880    0.44070    1.000
    H86      H        0.74400    0.33650    0.44060    1.000
    H87      H        0.81290    0.32860    0.31250    1.000
    H88      H        0.80880    0.23070    0.31750    1.000
    H89      H        0.79940    0.72770    0.36080    1.000
    H90      H        0.85380    0.78990    0.31140    1.000
    H91      H        0.87080    0.65910    0.22350    1.000
    H92      H        0.82620    0.59980    0.27940    1.000
    H93      H        0.00120    0.88410    0.21820    1.000
    H94      H        0.94640    0.82790    0.27180    1.000
    H95      H        0.86580    0.73000    0.17160    1.000
    H96      H        0.91510    0.79500    0.12130    1.000
    Cu9      Cu       0.51070    0.35710    0.63100    1.000
    N25      N        0.52130    0.27500    0.62940    1.000
    C121     C        0.50200    0.24320    0.66450    1.000
    C122     C        0.50310    0.18510    0.66390    1.000
    C123     C        0.52450    0.15650    0.62590    1.000
    C124     C        0.54540    0.18880    0.58950    1.000
    C125     C        0.54380    0.24710    0.59280    1.000
    N26      N        0.55720    0.84120    0.57430    1.000
    C126     C        0.56610    0.78610    0.58230    1.000
    C127     C        0.59600    0.74880    0.55240    1.000
    C128     C        0.61830    0.76800    0.51110    1.000
    C129     C        0.60840    0.82550    0.50220    1.000
    C130     C        0.57850    0.85990    0.53440    1.000
    N27      N        0.71180    0.65450    0.41540    1.000
    C131     C        0.71950    0.64640    0.45910    1.000
    C132     C        0.69120    0.68180    0.49080    1.000
    C133     C        0.65090    0.72950    0.47830    1.000
    C134     C        0.64270    0.73770    0.43240    1.000
    C135     C        0.67280    0.69950    0.40280    1.000
    H97      H        0.48250    0.26120    0.69070    1.000
    H98      H        0.49400    0.16350    0.69060    1.000
    H99      H        0.56290    0.17140    0.56250    1.000
    H100     H        0.55880    0.26930    0.56750    1.000
    H101     H        0.54940    0.77230    0.61080    1.000
    H102     H        0.60380    0.71010    0.56140    1.000
    H103     H        0.62080    0.84090    0.47350    1.000
    H104     H        0.57620    0.90020    0.52940    1.000
    H105     H        0.75120    0.61590    0.46820    1.000
    H106     H        0.69640    0.67210    0.52180    1.000
    H107     H        0.61580    0.77000    0.42160    1.000
    H108     H        0.66510    0.70500    0.37130    1.000
    Cu10     Cu       0.51070    0.85710    0.13100    1.000
    N28      N        0.52130    0.77500    0.12940    1.000
    C136     C        0.50200    0.74320    0.16450    1.000
    C137     C        0.50310    0.68510    0.16390    1.000
    C138     C        0.52450    0.65650    0.12590    1.000
    C139     C        0.54540    0.68880    0.08950    1.000
    C140     C        0.54380    0.74710    0.09280    1.000
    N29      N        0.55720    0.34120    0.07430    1.000
    C141     C        0.56610    0.28610    0.08230    1.000
    C142     C        0.59600    0.24880    0.05240    1.000
    C143     C        0.61830    0.26800    0.01110    1.000
    C144     C        0.60840    0.32550    0.00220    1.000
    C145     C        0.57850    0.35990    0.03440    1.000
    N30      N        0.71180    0.15450    0.91540    1.000
    C146     C        0.71950    0.14640    0.95910    1.000
    C147     C        0.69120    0.18180    0.99080    1.000
    C148     C        0.65090    0.22950    0.97830    1.000
    C149     C        0.64270    0.23770    0.93240    1.000
    C150     C        0.67280    0.19950    0.90280    1.000
    H109     H        0.48250    0.76120    0.19070    1.000
    H110     H        0.49400    0.66350    0.19060    1.000
    H111     H        0.56290    0.67140    0.06250    1.000
    H112     H        0.55880    0.76930    0.06750    1.000
    H113     H        0.54940    0.27230    0.11080    1.000
    H114     H        0.60380    0.21010    0.06140    1.000
    H115     H        0.62080    0.34090    0.97350    1.000
    H116     H        0.57620    0.40020    0.02940    1.000
    H117     H        0.75120    0.11590    0.96820    1.000
    H118     H        0.69640    0.17210    0.02180    1.000
    H119     H        0.61580    0.27000    0.92160    1.000
    H120     H        0.66510    0.20500    0.87130    1.000
    Cu11     Cu       0.01070    0.35710    0.13100    1.000
    N31      N        0.02130    0.27500    0.12940    1.000
    C151     C        0.00200    0.24320    0.16450    1.000
    C152     C        0.00310    0.18510    0.16390    1.000
    C153     C        0.02450    0.15650    0.12590    1.000
    C154     C        0.04540    0.18880    0.08950    1.000
    C155     C        0.04380    0.24710    0.09280    1.000
    N32      N        0.05720    0.84120    0.07430    1.000
    C156     C        0.06610    0.78610    0.08230    1.000
    C157     C        0.09600    0.74880    0.05240    1.000
    C158     C        0.11830    0.76800    0.01110    1.000
    C159     C        0.10840    0.82550    0.00220    1.000
    C160     C        0.07850    0.85990    0.03440    1.000
    N33      N        0.21180    0.65450    0.91540    1.000
    C161     C        0.21950    0.64640    0.95910    1.000
    C162     C        0.19120    0.68180    0.99080    1.000
    C163     C        0.15090    0.72950    0.97830    1.000
    C164     C        0.14270    0.73770    0.93240    1.000
    C165     C        0.17280    0.69950    0.90280    1.000
    H121     H        0.98250    0.26120    0.19070    1.000
    H122     H        0.99400    0.16350    0.19060    1.000
    H123     H        0.06290    0.17140    0.06250    1.000
    H124     H        0.05880    0.26930    0.06750    1.000
    H125     H        0.04940    0.77230    0.11080    1.000
    H126     H        0.10380    0.71010    0.06140    1.000
    H127     H        0.12080    0.84090    0.97350    1.000
    H128     H        0.07620    0.90020    0.02940    1.000
    H129     H        0.25120    0.61590    0.96820    1.000
    H130     H        0.19640    0.67210    0.02180    1.000
    H131     H        0.11580    0.77000    0.92160    1.000
    H132     H        0.16510    0.70500    0.87130    1.000
    Cu12     Cu       0.01070    0.85710    0.63100    1.000
    N34      N        0.02130    0.77500    0.62940    1.000
    C166     C        0.00200    0.74320    0.66450    1.000
    C167     C        0.00310    0.68510    0.66390    1.000
    C168     C        0.02450    0.65650    0.62590    1.000
    C169     C        0.04540    0.68880    0.58950    1.000
    C170     C        0.04380    0.74710    0.59280    1.000
    N35      N        0.05720    0.34120    0.57430    1.000
    C171     C        0.06610    0.28610    0.58230    1.000
    C172     C        0.09600    0.24880    0.55240    1.000
    C173     C        0.11830    0.26800    0.51110    1.000
    C174     C        0.10840    0.32550    0.50220    1.000
    C175     C        0.07850    0.35990    0.53440    1.000
    N36      N        0.21180    0.15450    0.41540    1.000
    C176     C        0.21950    0.14640    0.45910    1.000
    C177     C        0.19120    0.18180    0.49080    1.000
    C178     C        0.15090    0.22950    0.47830    1.000
    C179     C        0.14270    0.23770    0.43240    1.000
    C180     C        0.17280    0.19950    0.40280    1.000
    H133     H        0.98250    0.76120    0.69070    1.000
    H134     H        0.99400    0.66350    0.69060    1.000
    H135     H        0.06290    0.67140    0.56250    1.000
    H136     H        0.05880    0.76930    0.56750    1.000
    H137     H        0.04940    0.27230    0.61080    1.000
    H138     H        0.10380    0.21010    0.56140    1.000
    H139     H        0.12080    0.34090    0.47350    1.000
    H140     H        0.07620    0.40020    0.52940    1.000
    H141     H        0.25120    0.11590    0.46820    1.000
    H142     H        0.19640    0.17210    0.52180    1.000
    H143     H        0.11580    0.27000    0.42160    1.000
    H144     H        0.16510    0.20500    0.37130    1.000
    Cu13     Cu       0.51070    0.89290    0.61900    1.000
    N37      N        0.52130    0.97500    0.62060    1.000
    C181     C        0.50200    0.00680    0.58550    1.000
    C182     C        0.50310    0.06490    0.58610    1.000
    C183     C        0.52450    0.09350    0.62410    1.000
    C184     C        0.54540    0.06120    0.66050    1.000
    C185     C        0.54380    0.00290    0.65720    1.000
    N38      N        0.55720    0.40880    0.67570    1.000
    C186     C        0.56610    0.46390    0.66770    1.000
    C187     C        0.59600    0.50120    0.69760    1.000
    C188     C        0.61830    0.48200    0.73890    1.000
    C189     C        0.60840    0.42450    0.74780    1.000
    C190     C        0.57850    0.39010    0.71560    1.000
    N39      N        0.71180    0.59550    0.83460    1.000
    C191     C        0.71950    0.60360    0.79090    1.000
    C192     C        0.69120    0.56820    0.75920    1.000
    C193     C        0.65090    0.52050    0.77170    1.000
    C194     C        0.64270    0.51230    0.81760    1.000
    C195     C        0.67280    0.55050    0.84720    1.000
    H145     H        0.48250    0.98880    0.55930    1.000
    H146     H        0.49400    0.08650    0.55940    1.000
    H147     H        0.56290    0.07860    0.68750    1.000
    H148     H        0.55880    0.98070    0.68250    1.000
    H149     H        0.54940    0.47770    0.63920    1.000
    H150     H        0.60380    0.53990    0.68860    1.000
    H151     H        0.62080    0.40910    0.77650    1.000
    H152     H        0.57620    0.34980    0.72060    1.000
    H153     H        0.75120    0.63410    0.78180    1.000
    H154     H        0.69640    0.57790    0.72820    1.000
    H155     H        0.61580    0.48000    0.82840    1.000
    H156     H        0.66510    0.54500    0.87870    1.000
    Cu14     Cu       0.51070    0.39290    0.11900    1.000
    N40      N        0.52130    0.47500    0.12060    1.000
    C196     C        0.50200    0.50680    0.08550    1.000
    C197     C        0.50310    0.56490    0.08610    1.000
    C198     C        0.52450    0.59350    0.12410    1.000
    C199     C        0.54540    0.56120    0.16050    1.000
    C200     C        0.54380    0.50290    0.15720    1.000
    N41      N        0.55720    0.90880    0.17570    1.000
    C201     C        0.56610    0.96390    0.16770    1.000
    C202     C        0.59600    0.00120    0.19760    1.000
    C203     C        0.61830    0.98200    0.23890    1.000
    C204     C        0.60840    0.92450    0.24780    1.000
    C205     C        0.57850    0.89010    0.21560    1.000
    N42      N        0.71180    0.09550    0.33460    1.000
    C206     C        0.71950    0.10360    0.29090    1.000
    C207     C        0.69120    0.06820    0.25920    1.000
    C208     C        0.65090    0.02050    0.27170    1.000
    C209     C        0.64270    0.01230    0.31760    1.000
    C210     C        0.67280    0.05050    0.34720    1.000
    H157     H        0.48250    0.48880    0.05930    1.000
    H158     H        0.49400    0.58650    0.05940    1.000
    H159     H        0.56290    0.57860    0.18750    1.000
    H160     H        0.55880    0.48070    0.18250    1.000
    H161     H        0.54940    0.97770    0.13920    1.000
    H162     H        0.60380    0.03990    0.18860    1.000
    H163     H        0.62080    0.90910    0.27650    1.000
    H164     H        0.57620    0.84980    0.22060    1.000
    H165     H        0.75120    0.13410    0.28180    1.000
    H166     H        0.69640    0.07790    0.22820    1.000
    H167     H        0.61580    0.98000    0.32840    1.000
    H168     H        0.66510    0.04500    0.37870    1.000
    Cu15     Cu       0.01070    0.89290    0.11900    1.000
    N43      N        0.02130    0.97500    0.12060    1.000
    C211     C        0.00200    0.00680    0.08550    1.000
    C212     C        0.00310    0.06490    0.08610    1.000
    C213     C        0.02450    0.09350    0.12410    1.000
    C214     C        0.04540    0.06120    0.16050    1.000
    C215     C        0.04380    0.00290    0.15720    1.000
    N44      N        0.05720    0.40880    0.17570    1.000
    C216     C        0.06610    0.46390    0.16770    1.000
    C217     C        0.09600    0.50120    0.19760    1.000
    C218     C        0.11830    0.48200    0.23890    1.000
    C219     C        0.10840    0.42450    0.24780    1.000
    C220     C        0.07850    0.39010    0.21560    1.000
    N45      N        0.21180    0.59550    0.33460    1.000
    C221     C        0.21950    0.60360    0.29090    1.000
    C222     C        0.19120    0.56820    0.25920    1.000
    C223     C        0.15090    0.52050    0.27170    1.000
    C224     C        0.14270    0.51230    0.31760    1.000
    C225     C        0.17280    0.55050    0.34720    1.000
    H169     H        0.98250    0.98880    0.05930    1.000
    H170     H        0.99400    0.08650    0.05940    1.000
    H171     H        0.06290    0.07860    0.18750    1.000
    H172     H        0.05880    0.98070    0.18250    1.000
    H173     H        0.04940    0.47770    0.13920    1.000
    H174     H        0.10380    0.53990    0.18860    1.000
    H175     H        0.12080    0.40910    0.27650    1.000
    H176     H        0.07620    0.34980    0.22060    1.000
    H177     H        0.25120    0.63410    0.28180    1.000
    H178     H        0.19640    0.57790    0.22820    1.000
    H179     H        0.11580    0.48000    0.32840    1.000
    H180     H        0.16510    0.54500    0.37870    1.000
    Cu16     Cu       0.01070    0.39290    0.61900    1.000
    N46      N        0.02130    0.47500    0.62060    1.000
    C226     C        0.00200    0.50680    0.58550    1.000
    C227     C        0.00310    0.56490    0.58610    1.000
    C228     C        0.02450    0.59350    0.62410    1.000
    C229     C        0.04540    0.56120    0.66050    1.000
    C230     C        0.04380    0.50290    0.65720    1.000
    N47      N        0.05720    0.90880    0.67570    1.000
    C231     C        0.06610    0.96390    0.66770    1.000
    C232     C        0.09600    0.00120    0.69760    1.000
    C233     C        0.11830    0.98200    0.73890    1.000
    C234     C        0.10840    0.92450    0.74780    1.000
    C235     C        0.07850    0.89010    0.71560    1.000
    N48      N        0.21180    0.09550    0.83460    1.000
    C236     C        0.21950    0.10360    0.79090    1.000
    C237     C        0.19120    0.06820    0.75920    1.000
    C238     C        0.15090    0.02050    0.77170    1.000
    C239     C        0.14270    0.01230    0.81760    1.000
    C240     C        0.17280    0.05050    0.84720    1.000
    H181     H        0.98250    0.48880    0.55930    1.000
    H182     H        0.99400    0.58650    0.55940    1.000
    H183     H        0.06290    0.57860    0.68750    1.000
    H184     H        0.05880    0.48070    0.68250    1.000
    H185     H        0.04940    0.97770    0.63920    1.000
    H186     H        0.10380    0.03990    0.68860    1.000
    H187     H        0.12080    0.90910    0.77650    1.000
    H188     H        0.07620    0.84980    0.72060    1.000
    H189     H        0.25120    0.13410    0.78180    1.000
    H190     H        0.19640    0.07790    0.72820    1.000
    H191     H        0.11580    0.98000    0.82840    1.000
    H192     H        0.16510    0.04500    0.87870    1.000
    Cu17     Cu       0.48930    0.64290    0.36900    1.000
    N49      N        0.47870    0.72500    0.37060    1.000
    C241     C        0.49800    0.75680    0.33550    1.000
    C242     C        0.49690    0.81490    0.33610    1.000
    C243     C        0.47550    0.84350    0.37410    1.000
    C244     C        0.45460    0.81120    0.41050    1.000
    C245     C        0.45620    0.75290    0.40720    1.000
    N50      N        0.44280    0.15880    0.42570    1.000
    C246     C        0.43390    0.21390    0.41770    1.000
    C247     C        0.40400    0.25120    0.44760    1.000
    C248     C        0.38170    0.23200    0.48890    1.000
    C249     C        0.39160    0.17450    0.49780    1.000
    C250     C        0.42150    0.14010    0.46560    1.000
    N51      N        0.28820    0.34550    0.58460    1.000
    C251     C        0.28050    0.35360    0.54090    1.000
    C252     C        0.30880    0.31820    0.50920    1.000
    C253     C        0.34910    0.27050    0.52170    1.000
    C254     C        0.35730    0.26230    0.56760    1.000
    C255     C        0.32720    0.30050    0.59720    1.000
    H193     H        0.51750    0.73880    0.30930    1.000
    H194     H        0.50600    0.83650    0.30940    1.000
    H195     H        0.43710    0.82860    0.43750    1.000
    H196     H        0.44120    0.73070    0.43250    1.000
    H197     H        0.45060    0.22770    0.38920    1.000
    H198     H        0.39620    0.28990    0.43860    1.000
    H199     H        0.37920    0.15910    0.52650    1.000
    H200     H        0.42380    0.09980    0.47060    1.000
    H201     H        0.24880    0.38410    0.53180    1.000
    H202     H        0.30360    0.32790    0.47820    1.000
    H203     H        0.38420    0.23000    0.57840    1.000
    H204     H        0.33490    0.29500    0.62870    1.000
    Cu18     Cu       0.48930    0.14290    0.86900    1.000
    N52      N        0.47870    0.22500    0.87060    1.000
    C256     C        0.49800    0.25680    0.83550    1.000
    C257     C        0.49690    0.31490    0.83610    1.000
    C258     C        0.47550    0.34350    0.87410    1.000
    C259     C        0.45460    0.31120    0.91050    1.000
    C260     C        0.45620    0.25290    0.90720    1.000
    N53      N        0.44280    0.65880    0.92570    1.000
    C261     C        0.43390    0.71390    0.91770    1.000
    C262     C        0.40400    0.75120    0.94760    1.000
    C263     C        0.38170    0.73200    0.98890    1.000
    C264     C        0.39160    0.67450    0.99780    1.000
    C265     C        0.42150    0.64010    0.96560    1.000
    N54      N        0.28820    0.84550    0.08460    1.000
    C266     C        0.28050    0.85360    0.04090    1.000
    C267     C        0.30880    0.81820    0.00920    1.000
    C268     C        0.34910    0.77050    0.02170    1.000
    C269     C        0.35730    0.76230    0.06760    1.000
    C270     C        0.32720    0.80050    0.09720    1.000
    H205     H        0.51750    0.23880    0.80930    1.000
    H206     H        0.50600    0.33650    0.80940    1.000
    H207     H        0.43710    0.32860    0.93750    1.000
    H208     H        0.44120    0.23070    0.93250    1.000
    H209     H        0.45060    0.72770    0.88920    1.000
    H210     H        0.39620    0.78990    0.93860    1.000
    H211     H        0.37920    0.65910    0.02650    1.000
    H212     H        0.42380    0.59980    0.97060    1.000
    H213     H        0.24880    0.88410    0.03180    1.000
    H214     H        0.30360    0.82790    0.97820    1.000
    H215     H        0.38420    0.73000    0.07840    1.000
    H216     H        0.33490    0.79500    0.12870    1.000
    Cu19     Cu       0.98930    0.64290    0.86900    1.000
    N55      N        0.97870    0.72500    0.87060    1.000
    C271     C        0.99800    0.75680    0.83550    1.000
    C272     C        0.99690    0.81490    0.83610    1.000
    C273     C        0.97550    0.84350    0.87410    1.000
    C274     C        0.95460    0.81120    0.91050    1.000
    C275     C        0.95620    0.75290    0.90720    1.000
    N56      N        0.94280    0.15880    0.92570    1.000
    C276     C        0.93390    0.21390    0.91770    1.000
    C277     C        0.90400    0.25120    0.94760    1.000
    C278     C        0.88170    0.23200    0.98890    1.000
    C279     C        0.89160    0.17450    0.99780    1.000
    C280     C        0.92150    0.14010    0.96560    1.000
    N57      N        0.78820    0.34550    0.08460    1.000
    C281     C        0.78050    0.35360    0.04090    1.000
    C282     C        0.80880    0.31820    0.00920    1.000
    C283     C        0.84910    0.27050    0.02170    1.000
    C284     C        0.85730    0.26230    0.06760    1.000
    C285     C        0.82720    0.30050    0.09720    1.000
    H217     H        0.01750    0.73880    0.80930    1.000
    H218     H        0.00600    0.83650    0.80940    1.000
    H219     H        0.93710    0.82860    0.93750    1.000
    H220     H        0.94120    0.73070    0.93250    1.000
    H221     H        0.95060    0.22770    0.88920    1.000
    H222     H        0.89620    0.28990    0.93860    1.000
    H223     H        0.87920    0.15910    0.02650    1.000
    H224     H        0.92380    0.09980    0.97060    1.000
    H225     H        0.74880    0.38410    0.03180    1.000
    H226     H        0.80360    0.32790    0.97820    1.000
    H227     H        0.88420    0.23000    0.07840    1.000
    H228     H        0.83490    0.29500    0.12870    1.000
    Cu20     Cu       0.98930    0.14290    0.36900    1.000
    N58      N        0.97870    0.22500    0.37060    1.000
    C286     C        0.99800    0.25680    0.33550    1.000
    C287     C        0.99690    0.31490    0.33610    1.000
    C288     C        0.97550    0.34350    0.37410    1.000
    C289     C        0.95460    0.31120    0.41050    1.000
    C290     C        0.95620    0.25290    0.40720    1.000
    N59      N        0.94280    0.65880    0.42570    1.000
    C291     C        0.93390    0.71390    0.41770    1.000
    C292     C        0.90400    0.75120    0.44760    1.000
    C293     C        0.88170    0.73200    0.48890    1.000
    C294     C        0.89160    0.67450    0.49780    1.000
    C295     C        0.92150    0.64010    0.46560    1.000
    N60      N        0.78820    0.84550    0.58460    1.000
    C296     C        0.78050    0.85360    0.54090    1.000
    C297     C        0.80880    0.81820    0.50920    1.000
    C298     C        0.84910    0.77050    0.52170    1.000
    C299     C        0.85730    0.76230    0.56760    1.000
    C300     C        0.82720    0.80050    0.59720    1.000
    H229     H        0.01750    0.23880    0.30930    1.000
    H230     H        0.00600    0.33650    0.30940    1.000
    H231     H        0.93710    0.32860    0.43750    1.000
    H232     H        0.94120    0.23070    0.43250    1.000
    H233     H        0.95060    0.72770    0.38920    1.000
    H234     H        0.89620    0.78990    0.43860    1.000
    H235     H        0.87920    0.65910    0.52650    1.000
    H236     H        0.92380    0.59980    0.47060    1.000
    H237     H        0.74880    0.88410    0.53180    1.000
    H238     H        0.80360    0.82790    0.47820    1.000
    H239     H        0.88420    0.73000    0.57840    1.000
    H240     H        0.83490    0.79500    0.62870    1.000
    Cu21     Cu       0.48930    0.10710    0.38100    1.000
    N61      N        0.47870    0.02500    0.37940    1.000
    C301     C        0.49800    0.99320    0.41450    1.000
    C302     C        0.49690    0.93510    0.41390    1.000
    C303     C        0.47550    0.90650    0.37590    1.000
    C304     C        0.45460    0.93880    0.33950    1.000
    C305     C        0.45620    0.99710    0.34280    1.000
    N62      N        0.44280    0.59120    0.32430    1.000
    C306     C        0.43390    0.53610    0.33230    1.000
    C307     C        0.40400    0.49880    0.30240    1.000
    C308     C        0.38170    0.51800    0.26110    1.000
    C309     C        0.39160    0.57550    0.25220    1.000
    C310     C        0.42150    0.60990    0.28440    1.000
    N63      N        0.28820    0.40450    0.16540    1.000
    C311     C        0.28050    0.39640    0.20910    1.000
    C312     C        0.30880    0.43180    0.24080    1.000
    C313     C        0.34910    0.47950    0.22830    1.000
    C314     C        0.35730    0.48770    0.18240    1.000
    C315     C        0.32720    0.44950    0.15280    1.000
    H241     H        0.51750    0.01120    0.44070    1.000
    H242     H        0.50600    0.91350    0.44060    1.000
    H243     H        0.43710    0.92140    0.31250    1.000
    H244     H        0.44120    0.01930    0.31750    1.000
    H245     H        0.45060    0.52230    0.36080    1.000
    H246     H        0.39620    0.46010    0.31140    1.000
    H247     H        0.37920    0.59090    0.22350    1.000
    H248     H        0.42380    0.65020    0.27940    1.000
    H249     H        0.24880    0.36590    0.21820    1.000
    H250     H        0.30360    0.42210    0.27180    1.000
    H251     H        0.38420    0.52000    0.17160    1.000
    H252     H        0.33490    0.45500    0.12130    1.000
    Cu22     Cu       0.48930    0.60710    0.88100    1.000
    N64      N        0.47870    0.52500    0.87940    1.000
    C316     C        0.49800    0.49320    0.91450    1.000
    C317     C        0.49690    0.43510    0.91390    1.000
    C318     C        0.47550    0.40650    0.87590    1.000
    C319     C        0.45460    0.43880    0.83950    1.000
    C320     C        0.45620    0.49710    0.84280    1.000
    N65      N        0.44280    0.09120    0.82430    1.000
    C321     C        0.43390    0.03610    0.83230    1.000
    C322     C        0.40400    0.99880    0.80240    1.000
    C323     C        0.38170    0.01800    0.76110    1.000
    C324     C        0.39160    0.07550    0.75220    1.000
    C325     C        0.42150    0.10990    0.78440    1.000
    N66      N        0.28820    0.90450    0.66540    1.000
    C326     C        0.28050    0.89640    0.70910    1.000
    C327     C        0.30880    0.93180    0.74080    1.000
    C328     C        0.34910    0.97950    0.72830    1.000
    C329     C        0.35730    0.98770    0.68240    1.000
    C330     C        0.32720    0.94950    0.65280    1.000
    H253     H        0.51750    0.51120    0.94070    1.000
    H254     H        0.50600    0.41350    0.94060    1.000
    H255     H        0.43710    0.42140    0.81250    1.000
    H256     H        0.44120    0.51930    0.81750    1.000
    H257     H        0.45060    0.02230    0.86080    1.000
    H258     H        0.39620    0.96010    0.81140    1.000
    H259     H        0.37920    0.09090    0.72350    1.000
    H260     H        0.42380    0.15020    0.77940    1.000
    H261     H        0.24880    0.86590    0.71820    1.000
    H262     H        0.30360    0.92210    0.77180    1.000
    H263     H        0.38420    0.02000    0.67160    1.000
    H264     H        0.33490    0.95500    0.62130    1.000
    Cu23     Cu       0.98930    0.10710    0.88100    1.000
    N67      N        0.97870    0.02500    0.87940    1.000
    C331     C        0.99800    0.99320    0.91450    1.000
    C332     C        0.99690    0.93510    0.91390    1.000
    C333     C        0.97550    0.90650    0.87590    1.000
    C334     C        0.95460    0.93880    0.83950    1.000
    C335     C        0.95620    0.99710    0.84280    1.000
    N68      N        0.94280    0.59120    0.82430    1.000
    C336     C        0.93390    0.53610    0.83230    1.000
    C337     C        0.90400    0.49880    0.80240    1.000
    C338     C        0.88170    0.51800    0.76110    1.000
    C339     C        0.89160    0.57550    0.75220    1.000
    C340     C        0.92150    0.60990    0.78440    1.000
    N69      N        0.78820    0.40450    0.66540    1.000
    C341     C        0.78050    0.39640    0.70910    1.000
    C342     C        0.80880    0.43180    0.74080    1.000
    C343     C        0.84910    0.47950    0.72830    1.000
    C344     C        0.85730    0.48770    0.68240    1.000
    C345     C        0.82720    0.44950    0.65280    1.000
    H265     H        0.01750    0.01120    0.94070    1.000
    H266     H        0.00600    0.91350    0.94060    1.000
    H267     H        0.93710    0.92140    0.81250    1.000
    H268     H        0.94120    0.01930    0.81750    1.000
    H269     H        0.95060    0.52230    0.86080    1.000
    H270     H        0.89620    0.46010    0.81140    1.000
    H271     H        0.87920    0.59090    0.72350    1.000
    H272     H        0.92380    0.65020    0.77940    1.000
    H273     H        0.74880    0.36590    0.71820    1.000
    H274     H        0.80360    0.42210    0.77180    1.000
    H275     H        0.88420    0.52000    0.67160    1.000
    H276     H        0.83490    0.45500    0.62130    1.000
    Cu24     Cu       0.98930    0.60710    0.38100    1.000
    N70      N        0.97870    0.52500    0.37940    1.000
    C346     C        0.99800    0.49320    0.41450    1.000
    C347     C        0.99690    0.43510    0.41390    1.000
    C348     C        0.97550    0.40650    0.37590    1.000
    C349     C        0.95460    0.43880    0.33950    1.000
    C350     C        0.95620    0.49710    0.34280    1.000
    N71      N        0.94280    0.09120    0.32430    1.000
    C351     C        0.93390    0.03610    0.33230    1.000
    C352     C        0.90400    0.99880    0.30240    1.000
    C353     C        0.88170    0.01800    0.26110    1.000
    C354     C        0.89160    0.07550    0.25220    1.000
    C355     C        0.92150    0.10990    0.28440    1.000
    N72      N        0.78820    0.90450    0.16540    1.000
    C356     C        0.78050    0.89640    0.20910    1.000
    C357     C        0.80880    0.93180    0.24080    1.000
    C358     C        0.84910    0.97950    0.22830    1.000
    C359     C        0.85730    0.98770    0.18240    1.000
    C360     C        0.82720    0.94950    0.15280    1.000
    H277     H        0.01750    0.51120    0.44070    1.000
    H278     H        0.00600    0.41350    0.44060    1.000
    H279     H        0.93710    0.42140    0.31250    1.000
    H280     H        0.94120    0.51930    0.31750    1.000
    H281     H        0.95060    0.02230    0.36080    1.000
    H282     H        0.89620    0.96010    0.31140    1.000
    H283     H        0.87920    0.09090    0.22350    1.000
    H284     H        0.92380    0.15020    0.27940    1.000
    H285     H        0.74880    0.86590    0.21820    1.000
    H286     H        0.80360    0.92210    0.27180    1.000
    H287     H        0.88420    0.02000    0.17160    1.000
    H288     H        0.83490    0.95500    0.12130    1.000
    Cu25     Cu       0.73930    0.89290    0.63100    1.000
    N73      N        0.72870    0.97500    0.62940    1.000
    C361     C        0.74800    0.00680    0.66450    1.000
    C362     C        0.74690    0.06490    0.66390    1.000
    C363     C        0.72550    0.09350    0.62590    1.000
    C364     C        0.70460    0.06120    0.58950    1.000
    C365     C        0.70620    0.00290    0.59280    1.000
    N74      N        0.69280    0.40880    0.57430    1.000
    C366     C        0.68390    0.46390    0.58230    1.000
    C367     C        0.65400    0.50120    0.55240    1.000
    C368     C        0.63170    0.48200    0.51110    1.000
    C369     C        0.64160    0.42450    0.50220    1.000
    C370     C        0.67150    0.39010    0.53440    1.000
    N75      N        0.53820    0.59550    0.41540    1.000
    C371     C        0.53050    0.60360    0.45910    1.000
    C372     C        0.55880    0.56820    0.49080    1.000
    C373     C        0.59910    0.52050    0.47830    1.000
    C374     C        0.60730    0.51230    0.43240    1.000
    C375     C        0.57720    0.55050    0.40280    1.000
    H289     H        0.76750    0.98880    0.69070    1.000
    H290     H        0.75600    0.08650    0.69060    1.000
    H291     H        0.68710    0.07860    0.56250    1.000
    H292     H        0.69120    0.98070    0.56750    1.000
    H293     H        0.70060    0.47770    0.61080    1.000
    H294     H        0.64620    0.53990    0.56140    1.000
    H295     H        0.62920    0.40910    0.47350    1.000
    H296     H        0.67380    0.34980    0.52940    1.000
    H297     H        0.49880    0.63410    0.46820    1.000
    H298     H        0.55360    0.57790    0.52180    1.000
    H299     H        0.63420    0.48000    0.42160    1.000
    H300     H        0.58490    0.54500    0.37130    1.000
    Cu26     Cu       0.73930    0.39290    0.13100    1.000
    N76      N        0.72870    0.47500    0.12940    1.000
    C376     C        0.74800    0.50680    0.16450    1.000
    C377     C        0.74690    0.56490    0.16390    1.000
    C378     C        0.72550    0.59350    0.12590    1.000
    C379     C        0.70460    0.56120    0.08950    1.000
    C380     C        0.70620    0.50290    0.09280    1.000
    N77      N        0.69280    0.90880    0.07430    1.000
    C381     C        0.68390    0.96390    0.08230    1.000
    C382     C        0.65400    0.00120    0.05240    1.000
    C383     C        0.63170    0.98200    0.01110    1.000
    C384     C        0.64160    0.92450    0.00220    1.000
    C385     C        0.67150    0.89010    0.03440    1.000
    N78      N        0.53820    0.09550    0.91540    1.000
    C386     C        0.53050    0.10360    0.95910    1.000
    C387     C        0.55880    0.06820    0.99080    1.000
    C388     C        0.59910    0.02050    0.97830    1.000
    C389     C        0.60730    0.01230    0.93240    1.000
    C390     C        0.57720    0.05050    0.90280    1.000
    H301     H        0.76750    0.48880    0.19070    1.000
    H302     H        0.75600    0.58650    0.19060    1.000
    H303     H        0.68710    0.57860    0.06250    1.000
    H304     H        0.69120    0.48070    0.06750    1.000
    H305     H        0.70060    0.97770    0.11080    1.000
    H306     H        0.64620    0.03990    0.06140    1.000
    H307     H        0.62920    0.90910    0.97350    1.000
    H308     H        0.67380    0.84980    0.02940    1.000
    H309     H        0.49880    0.13410    0.96820    1.000
    H310     H        0.55360    0.07790    0.02180    1.000
    H311     H        0.63420    0.98000    0.92160    1.000
    H312     H        0.58490    0.04500    0.87130    1.000
    Cu27     Cu       0.23930    0.89290    0.13100    1.000
    N79      N        0.22870    0.97500    0.12940    1.000
    C391     C        0.24800    0.00680    0.16450    1.000
    C392     C        0.24690    0.06490    0.16390    1.000
    C393     C        0.22550    0.09350    0.12590    1.000
    C394     C        0.20460    0.06120    0.08950    1.000
    C395     C        0.20620    0.00290    0.09280    1.000
    N80      N        0.19280    0.40880    0.07430    1.000
    C396     C        0.18390    0.46390    0.08230    1.000
    C397     C        0.15400    0.50120    0.05240    1.000
    C398     C        0.13170    0.48200    0.01110    1.000
    C399     C        0.14160    0.42450    0.00220    1.000
    C400     C        0.17150    0.39010    0.03440    1.000
    N81      N        0.03820    0.59550    0.91540    1.000
    C401     C        0.03050    0.60360    0.95910    1.000
    C402     C        0.05880    0.56820    0.99080    1.000
    C403     C        0.09910    0.52050    0.97830    1.000
    C404     C        0.10730    0.51230    0.93240    1.000
    C405     C        0.07720    0.55050    0.90280    1.000
    H313     H        0.26750    0.98880    0.19070    1.000
    H314     H        0.25600    0.08650    0.19060    1.000
    H315     H        0.18710    0.07860    0.06250    1.000
    H316     H        0.19120    0.98070    0.06750    1.000
    H317     H        0.20060    0.47770    0.11080    1.000
    H318     H        0.14620    0.53990    0.06140    1.000
    H319     H        0.12920    0.40910    0.97350    1.000
    H320     H        0.17380    0.34980    0.02940    1.000
    H321     H        0.99880    0.63410    0.96820    1.000
    H322     H        0.05360    0.57790    0.02180    1.000
    H323     H        0.13420    0.48000    0.92160    1.000
    H324     H        0.08490    0.54500    0.87130    1.000
    Cu28     Cu       0.23930    0.39290    0.63100    1.000
    N82      N        0.22870    0.47500    0.62940    1.000
    C406     C        0.24800    0.50680    0.66450    1.000
    C407     C        0.24690    0.56490    0.66390    1.000
    C408     C        0.22550    0.59350    0.62590    1.000
    C409     C        0.20460    0.56120    0.58950    1.000
    C410     C        0.20620    0.50290    0.59280    1.000
    N83      N        0.19280    0.90880    0.57430    1.000
    C411     C        0.18390    0.96390    0.58230    1.000
    C412     C        0.15400    0.00120    0.55240    1.000
    C413     C        0.13170    0.98200    0.51110    1.000
    C414     C        0.14160    0.92450    0.50220    1.000
    C415     C        0.17150    0.89010    0.53440    1.000
    N84      N        0.03820    0.09550    0.41540    1.000
    C416     C        0.03050    0.10360    0.45910    1.000
    C417     C        0.05880    0.06820    0.49080    1.000
    C418     C        0.09910    0.02050    0.47830    1.000
    C419     C        0.10730    0.01230    0.43240    1.000
    C420     C        0.07720    0.05050    0.40280    1.000
    H325     H        0.26750    0.48880    0.69070    1.000
    H326     H        0.25600    0.58650    0.69060    1.000
    H327     H        0.18710    0.57860    0.56250    1.000
    H328     H        0.19120    0.48070    0.56750    1.000
    H329     H        0.20060    0.97770    0.61080    1.000
    H330     H        0.14620    0.03990    0.56140    1.000
    H331     H        0.12920    0.90910    0.47350    1.000
    H332     H        0.17380    0.84980    0.52940    1.000
    H333     H        0.99880    0.13410    0.46820    1.000
    H334     H        0.05360    0.07790    0.52180    1.000
    H335     H        0.13420    0.98000    0.42160    1.000
    H336     H        0.08490    0.04500    0.37130    1.000
    Cu29     Cu       0.73930    0.35710    0.61900    1.000
    N85      N        0.72870    0.27500    0.62060    1.000
    C421     C        0.74800    0.24320    0.58550    1.000
    C422     C        0.74690    0.18510    0.58610    1.000
    C423     C        0.72550    0.15650    0.62410    1.000
    C424     C        0.70460    0.18880    0.66050    1.000
    C425     C        0.70620    0.24710    0.65720    1.000
    N86      N        0.69280    0.84120    0.67570    1.000
    C426     C        0.68390    0.78610    0.66770    1.000
    C427     C        0.65400    0.74880    0.69760    1.000
    C428     C        0.63170    0.76800    0.73890    1.000
    C429     C        0.64160    0.82550    0.74780    1.000
    C430     C        0.67150    0.85990    0.71560    1.000
    N87      N        0.53820    0.65450    0.83460    1.000
    C431     C        0.53050    0.64640    0.79090    1.000
    C432     C        0.55880    0.68180    0.75920    1.000
    C433     C        0.59910    0.72950    0.77170    1.000
    C434     C        0.60730    0.73770    0.81760    1.000
    C435     C        0.57720    0.69950    0.84720    1.000
    H337     H        0.76750    0.26120    0.55930    1.000
    H338     H        0.75600    0.16350    0.55940    1.000
    H339     H        0.68710    0.17140    0.68750    1.000
    H340     H        0.69120    0.26930    0.68250    1.000
    H341     H        0.70060    0.77230    0.63920    1.000
    H342     H        0.64620    0.71010    0.68860    1.000
    H343     H        0.62920    0.84090    0.77650    1.000
    H344     H        0.67380    0.90020    0.72060    1.000
    H345     H        0.49880    0.61590    0.78180    1.000
    H346     H        0.55360    0.67210    0.72820    1.000
    H347     H        0.63420    0.77000    0.82840    1.000
    H348     H        0.58490    0.70500    0.87870    1.000
    Cu30     Cu       0.73930    0.85710    0.11900    1.000
    N88      N        0.72870    0.77500    0.12060    1.000
    C436     C        0.74800    0.74320    0.08550    1.000
    C437     C        0.74690    0.68510    0.08610    1.000
    C438     C        0.72550    0.65650    0.12410    1.000
    C439     C        0.70460    0.68880    0.16050    1.000
    C440     C        0.70620    0.74710    0.15720    1.000
    N89      N        0.69280    0.34120    0.17570    1.000
    C441     C        0.68390    0.28610    0.16770    1.000
    C442     C        0.65400    0.24880    0.19760    1.000
    C443     C        0.63170    0.26800    0.23890    1.000
    C444     C        0.64160    0.32550    0.24780    1.000
    C445     C        0.67150    0.35990    0.21560    1.000
    N90      N        0.53820    0.15450    0.33460    1.000
    C446     C        0.53050    0.14640    0.29090    1.000
    C447     C        0.55880    0.18180    0.25920    1.000
    C448     C        0.59910    0.22950    0.27170    1.000
    C449     C        0.60730    0.23770    0.31760    1.000
    C450     C        0.57720    0.19950    0.34720    1.000
    H349     H        0.76750    0.76120    0.05930    1.000
    H350     H        0.75600    0.66350    0.05940    1.000
    H351     H        0.68710    0.67140    0.18750    1.000
    H352     H        0.69120    0.76930    0.18250    1.000
    H353     H        0.70060    0.27230    0.13920    1.000
    H354     H        0.64620    0.21010    0.18860    1.000
    H355     H        0.62920    0.34090    0.27650    1.000
    H356     H        0.67380    0.40020    0.22060    1.000
    H357     H        0.49880    0.11590    0.28180    1.000
    H358     H        0.55360    0.17210    0.22820    1.000
    H359     H        0.63420    0.27000    0.32840    1.000
    H360     H        0.58490    0.20500    0.37870    1.000
    Cu31     Cu       0.23930    0.35710    0.11900    1.000
    N91      N        0.22870    0.27500    0.12060    1.000
    C451     C        0.24800    0.24320    0.08550    1.000
    C452     C        0.24690    0.18510    0.08610    1.000
    C453     C        0.22550    0.15650    0.12410    1.000
    C454     C        0.20460    0.18880    0.16050    1.000
    C455     C        0.20620    0.24710    0.15720    1.000
    N92      N        0.19280    0.84120    0.17570    1.000
    C456     C        0.18390    0.78610    0.16770    1.000
    C457     C        0.15400    0.74880    0.19760    1.000
    C458     C        0.13170    0.76800    0.23890    1.000
    C459     C        0.14160    0.82550    0.24780    1.000
    C460     C        0.17150    0.85990    0.21560    1.000
    N93      N        0.03820    0.65450    0.33460    1.000
    C461     C        0.03050    0.64640    0.29090    1.000
    C462     C        0.05880    0.68180    0.25920    1.000
    C463     C        0.09910    0.72950    0.27170    1.000
    C464     C        0.10730    0.73770    0.31760    1.000
    C465     C        0.07720    0.69950    0.34720    1.000
    H361     H        0.26750    0.26120    0.05930    1.000
    H362     H        0.25600    0.16350    0.05940    1.000
    H363     H        0.18710    0.17140    0.18750    1.000
    H364     H        0.19120    0.26930    0.18250    1.000
    H365     H        0.20060    0.77230    0.13920    1.000
    H366     H        0.14620    0.71010    0.18860    1.000
    H367     H        0.12920    0.84090    0.27650    1.000
    H368     H        0.17380    0.90020    0.22060    1.000
    H369     H        0.99880    0.61590    0.28180    1.000
    H370     H        0.05360    0.67210    0.22820    1.000
    H371     H        0.13420    0.77000    0.32840    1.000
    H372     H        0.08490    0.70500    0.37870    1.000
    Cu32     Cu       0.23930    0.85710    0.61900    1.000
    N94      N        0.22870    0.77500    0.62060    1.000
    C466     C        0.24800    0.74320    0.58550    1.000
    C467     C        0.24690    0.68510    0.58610    1.000
    C468     C        0.22550    0.65650    0.62410    1.000
    C469     C        0.20460    0.68880    0.66050    1.000
    C470     C        0.20620    0.74710    0.65720    1.000
    N95      N        0.19280    0.34120    0.67570    1.000
    C471     C        0.18390    0.28610    0.66770    1.000
    C472     C        0.15400    0.24880    0.69760    1.000
    C473     C        0.13170    0.26800    0.73890    1.000
    C474     C        0.14160    0.32550    0.74780    1.000
    C475     C        0.17150    0.35990    0.71560    1.000
    N96      N        0.03820    0.15450    0.83460    1.000
    C476     C        0.03050    0.14640    0.79090    1.000
    C477     C        0.05880    0.18180    0.75920    1.000
    C478     C        0.09910    0.22950    0.77170    1.000
    C479     C        0.10730    0.23770    0.81760    1.000
    C480     C        0.07720    0.19950    0.84720    1.000
    H373     H        0.26750    0.76120    0.55930    1.000
    H374     H        0.25600    0.66350    0.55940    1.000
    H375     H        0.18710    0.67140    0.68750    1.000
    H376     H        0.19120    0.76930    0.68250    1.000
    H377     H        0.20060    0.27230    0.63920    1.000
    H378     H        0.14620    0.21010    0.68860    1.000
    H379     H        0.12920    0.34090    0.77650    1.000
    H380     H        0.17380    0.40020    0.72060    1.000
    H381     H        0.99880    0.11590    0.78180    1.000
    H382     H        0.05360    0.17210    0.72820    1.000
    H383     H        0.13420    0.27000    0.82840    1.000
    H384     H        0.08490    0.20500    0.87870    1.000
