data_functionalizedCrystal
_audit_creation_method	'EQeq! by Chris Wilmer'
_symmetry_space_group_name_H-M	'P1'
_symmetry_Int_Tables_number	1
_symmetry_cell_setting	triclinic
loop_
_symmetry_equiv_pos_as_xyz
  x,y,z
_cell_length_a	22.087
_cell_length_b	16.3172
_cell_length_c	25.6279
_cell_angle_alpha	90
_cell_angle_beta	115.265
_cell_angle_gamma	90
loop_
_atom_site_label
_atom_site_type_symbol
_atom_site_fract_x
_atom_site_fract_y
_atom_site_fract_z
_atom_site_charge
Mof_Ag	Ag	0.82296	0.25212	0.86723	0.535
Mof_Ag	Ag	0.34397	0.45717	0.36776	0.523
Mof_C 	C 	0.6237	0.2568	0.5024	0.098
Mof_C 	C 	0.7353	0.0652	0.3882	0.08
Mof_H 	H 	0.7134	0.0586	0.3484	-0.009
Mof_C 	C 	0.2776	0.6377	0.0089	-0.136
Mof_H 	H 	0.2985	0.634	0.0489	0.075
Mof_C 	C 	0.0033	0.3837	0.9965	-0.132
Mof_H 	H 	0.0228	0.3822	0.0366	0.085
Mof_C 	C 	0.9435	0.3433	0.9648	0.084
Mof_H 	H 	0.9233	0.3152	0.9848	-0.012
Mof_C 	C 	0.2196	0.6521	0.8919	0.063
Mof_H 	H 	0.1996	0.6565	0.8519	-0.024
Mof_C 	C 	0.5332	0.3121	0.4112	-0.141
Mof_H 	H 	0.555	0.2912	0.39	0.081
Mof_C 	C 	0.0977	0.4699	0.001	0.099
Mof_C 	C 	0.7981	0.084	0.5049	-0.131
Mof_H 	H 	0.8204	0.0883	0.5449	0.084
Mof_C 	C 	0.5598	0.3019	0.4701	0.06
Mof_C 	C 	0.1792	0.4563	0.1815	-0.137
Mof_H 	H 	0.1352	0.4388	0.1616	0.081
Mof_C 	C 	0.0334	0.4262	0.9671	0.066
Mof_C 	C 	0.7098	0.2269	0.5876	0.102
Mof_C 	C 	0.7433	0.2373	0.6514	0.058
Mof_C 	C 	0.5259	0.3352	0.5001	-0.145
Mof_H 	H 	0.543	0.3305	0.54	0.075
Mof_C 	C 	0.1804	0.5023	0.0884	0.095
Mof_C 	C 	0.1825	0.5517	0.0067	0.091
Mof_C 	C 	0.826	0.0408	0.4741	0.085
Mof_H 	H 	0.868	0.0176	0.4944	-0.012
Mof_C 	C 	0.2151	0.6013	0.9774	0.055
Mof_C 	C 	0.1855	0.6098	0.9182	-0.133
Mof_H 	H 	0.1435	0.5875	0.8963	0.078
Mof_C 	C 	0.7362	0.1209	0.4749	0.068
Mof_C 	C 	0.3079	0.5048	0.2427	0.069
Mof_H 	H 	0.3521	0.5212	0.2634	-0.023
Mof_C 	C 	0.4666	0.3753	0.4693	0.074
Mof_H 	H 	0.4443	0.3976	0.4896	-0.02
Mof_C 	C 	0.7056	0.1721	0.5052	0.102
Mof_C 	C 	0.3081	0.6797	0.9789	0.075
Mof_H 	H 	0.3497	0.7036	0.9999	-0.012
Mof_C 	C 	0.4728	0.3544	0.384	0.071
Mof_H 	H 	0.4553	0.3621	0.3443	-0.02
Mof_C 	C 	0.9436	0.3835	0.8796	0.083
Mof_H 	H 	0.9239	0.3824	0.8394	-0.007
Mof_C 	C 	0.0023	0.4272	0.9071	-0.137
Mof_H 	H 	0.0205	0.4565	0.8861	0.08
Mof_C 	C 	0.704	0.1103	0.4152	-0.131
Mof_H 	H 	0.6621	0.1334	0.3939	0.084
Mof_C 	C 	0.2782	0.5166	0.1833	-0.138
Mof_H 	H 	0.3022	0.5402	0.1648	0.071
Mof_C 	C 	0.2123	0.4924	0.152	0.053
Mof_C 	C 	0.8283	0.2071	0.7446	0.083
Mof_H 	H 	0.8677	0.1795	0.7672	-0.021
Mof_C 	C 	0.7154	0.2894	0.6781	-0.134
Mof_H 	H 	0.6773	0.3198	0.6563	0.068
Mof_C 	C 	0.8023	0.1975	0.6851	-0.139
Mof_H 	H 	0.824	0.1651	0.6685	0.083
Mof_C 	C 	0.2119	0.4465	0.2404	0.079
Mof_H 	H 	0.189	0.4221	0.2595	-0.015
Mof_C 	C 	0.745	0.2953	0.7372	0.069
Mof_H 	H 	0.7257	0.33	0.7547	-0.016
Mof_N 	N 	0.9133	0.3426	0.90722	-0.188
Mof_N 	N 	0.28	0.6872	0.9214	-0.209
Mof_N 	N 	0.2759	0.4709	0.2717	-0.198
Mof_N 	N 	0.1228	0.4627	0.0589	-0.136
Mof_N 	N 	0.1263	0.5112	0.97315	-0.14
Mof_N 	N 	0.2115	0.5499	0.06485	-0.148
Mof_N 	N 	0.439	0.3843	0.4121	-0.215
Mof_N 	N 	0.7957	0.0303	0.41656	-0.192
Mof_N 	N 	0.8004	0.2536	0.7713	-0.199
Mof_N 	N 	0.648	0.2105	0.4726	-0.137
Mof_N 	N 	0.7382	0.1775	0.56314	-0.137
Mof_N 	N 	0.6529	0.2681	0.55923	-0.143
Mof_Ag	Ag	0.32296	0.75212	0.86723	0.536
Mof_Ag	Ag	0.84397	0.95717	0.36776	0.524
Mof_C 	C 	0.1237	0.7568	0.5024	0.099
Mof_C 	C 	0.2353	0.5652	0.3882	0.081
Mof_H 	H 	0.2134	0.5586	0.3484	-0.009
Mof_C 	C 	0.7776	0.1377	0.0089	-0.129
Mof_H 	H 	0.7985	0.134	0.0489	0.073
Mof_C 	C 	0.5033	0.8837	0.9965	-0.135
Mof_H 	H 	0.5228	0.8822	0.0366	0.086
Mof_C 	C 	0.4435	0.8433	0.9648	0.087
Mof_H 	H 	0.4233	0.8152	0.9848	-0.012
Mof_C 	C 	0.7196	0.1521	0.8919	0.061
Mof_H 	H 	0.6996	0.1565	0.8519	-0.024
Mof_C 	C 	0.0332	0.8121	0.4112	-0.141
Mof_H 	H 	0.055	0.7912	0.39	0.081
Mof_C 	C 	0.5977	0.9699	0.001	0.099
Mof_C 	C 	0.2981	0.584	0.5049	-0.131
Mof_H 	H 	0.3204	0.5883	0.5449	0.084
Mof_C 	C 	0.0598	0.8019	0.4701	0.06
Mof_C 	C 	0.6792	0.9563	0.1815	-0.137
Mof_H 	H 	0.6352	0.9388	0.1616	0.081
Mof_C 	C 	0.5334	0.9262	0.9671	0.066
Mof_C 	C 	0.2098	0.7269	0.5876	0.102
Mof_C 	C 	0.2433	0.7373	0.6514	0.058
Mof_C 	C 	0.0259	0.8352	0.5001	-0.145
Mof_H 	H 	0.043	0.8305	0.54	0.075
Mof_C 	C 	0.6804	0.0023	0.0884	0.096
Mof_C 	C 	0.6825	0.0517	0.0067	0.094
Mof_C 	C 	0.326	0.5408	0.4741	0.085
Mof_H 	H 	0.368	0.5176	0.4944	-0.012
Mof_C 	C 	0.7151	0.1013	0.9774	0.05
Mof_C 	C 	0.6855	0.1098	0.9182	-0.13
Mof_H 	H 	0.6435	0.0875	0.8963	0.076
Mof_C 	C 	0.2362	0.6209	0.4749	0.068
Mof_C 	C 	0.8079	0.0048	0.2427	0.069
Mof_H 	H 	0.8521	0.0212	0.2634	-0.022
Mof_C 	C 	0.9666	0.8753	0.4693	0.074
Mof_H 	H 	0.9443	0.8976	0.4896	-0.02
Mof_C 	C 	0.2056	0.6721	0.5052	0.102
Mof_C 	C 	0.8081	0.1797	0.9789	0.071
Mof_H 	H 	0.8497	0.2036	0.9999	-0.011
Mof_C 	C 	0.9728	0.8544	0.384	0.071
Mof_H 	H 	0.9553	0.8621	0.3443	-0.02
Mof_C 	C 	0.4436	0.8835	0.8796	0.085
Mof_H 	H 	0.4239	0.8824	0.8394	-0.007
Mof_C 	C 	0.5023	0.9272	0.9071	-0.139
Mof_H 	H 	0.5205	0.9565	0.8861	0.08
Mof_C 	C 	0.204	0.6103	0.4152	-0.131
Mof_H 	H 	0.1621	0.6334	0.3939	0.084
Mof_C 	C 	0.7782	0.0166	0.1833	-0.137
Mof_H 	H 	0.8022	0.0402	0.1648	0.071
Mof_C 	C 	0.7123	0.9924	0.152	0.052
Mof_C 	C 	0.3283	0.7071	0.7446	0.083
Mof_H 	H 	0.3677	0.6795	0.7672	-0.02
Mof_C 	C 	0.2154	0.7894	0.6781	-0.134
Mof_H 	H 	0.1773	0.8198	0.6563	0.068
Mof_C 	C 	0.3023	0.6975	0.6851	-0.139
Mof_H 	H 	0.324	0.6651	0.6685	0.083
Mof_C 	C 	0.7119	0.9465	0.2404	0.078
Mof_H 	H 	0.689	0.9221	0.2595	-0.015
Mof_C 	C 	0.245	0.7953	0.7372	0.07
Mof_H 	H 	0.2257	0.83	0.7547	-0.016
Mof_N 	N 	0.4133	0.8426	0.90722	-0.188
Mof_N 	N 	0.78	0.1872	0.9214	-0.208
Mof_N 	N 	0.7759	0.9709	0.2717	-0.198
Mof_N 	N 	0.6228	0.9627	0.0589	-0.137
Mof_N 	N 	0.6263	0.0112	0.97315	-0.141
Mof_N 	N 	0.7115	0.0499	0.06485	-0.149
Mof_N 	N 	0.939	0.8843	0.4121	-0.215
Mof_N 	N 	0.2957	0.5303	0.41656	-0.192
Mof_N 	N 	0.3004	0.7536	0.7713	-0.199
Mof_N 	N 	0.148	0.7105	0.4726	-0.137
Mof_N 	N 	0.2382	0.6775	0.56314	-0.137
Mof_N 	N 	0.1529	0.7681	0.55923	-0.143
Mof_Ag	Ag	0.17704	0.25212	0.63277	0.536
Mof_Ag	Ag	0.65603	0.45717	0.13224	0.524
Mof_C 	C 	0.3763	0.2568	0.9976	0.098
Mof_C 	C 	0.2647	0.0652	0.1118	0.081
Mof_H 	H 	0.2866	0.0586	0.1516	-0.009
Mof_C 	C 	0.7224	0.6377	0.4911	-0.133
Mof_H 	H 	0.7015	0.634	0.4511	0.074
Mof_C 	C 	0.9967	0.3837	0.5035	-0.135
Mof_H 	H 	0.9772	0.3822	0.4634	0.086
Mof_C 	C 	0.0565	0.3433	0.5352	0.087
Mof_H 	H 	0.0767	0.3152	0.5152	-0.013
Mof_C 	C 	0.7804	0.6521	0.6081	0.062
Mof_H 	H 	0.8004	0.6565	0.6481	-0.024
Mof_C 	C 	0.4668	0.3121	0.0888	-0.141
Mof_H 	H 	0.445	0.2912	0.11	0.081
Mof_C 	C 	0.9023	0.4699	0.499	0.099
Mof_C 	C 	0.2019	0.084	0.9951	-0.131
Mof_H 	H 	0.1796	0.0883	0.9551	0.083
Mof_C 	C 	0.4402	0.3019	0.0299	0.06
Mof_C 	C 	0.8208	0.4563	0.3185	-0.137
Mof_H 	H 	0.8648	0.4388	0.3384	0.081
Mof_C 	C 	0.9666	0.4262	0.5329	0.066
Mof_C 	C 	0.2902	0.2269	0.9124	0.102
Mof_C 	C 	0.2567	0.2373	0.8486	0.058
Mof_C 	C 	0.4741	0.3352	0.9999	-0.146
Mof_H 	H 	0.457	0.3305	0.96	0.075
Mof_C 	C 	0.8196	0.5023	0.4116	0.095
Mof_C 	C 	0.8175	0.5517	0.4933	0.093
Mof_C 	C 	0.174	0.0408	0.0259	0.084
Mof_H 	H 	0.132	0.0176	0.0056	-0.012
Mof_C 	C 	0.7849	0.6013	0.5226	0.053
Mof_C 	C 	0.8145	0.6098	0.5818	-0.132
Mof_H 	H 	0.8565	0.5875	0.6037	0.077
Mof_C 	C 	0.2638	0.1209	0.0251	0.067
Mof_C 	C 	0.6921	0.5048	0.2573	0.069
Mof_H 	H 	0.6479	0.5212	0.2366	-0.023
Mof_C 	C 	0.5334	0.3753	0.0307	0.074
Mof_H 	H 	0.5557	0.3976	0.0104	-0.021
Mof_C 	C 	0.2944	0.1721	0.9948	0.102
Mof_C 	C 	0.6919	0.6797	0.5211	0.073
Mof_H 	H 	0.6503	0.7036	0.5001	-0.011
Mof_C 	C 	0.5272	0.3544	0.116	0.071
Mof_H 	H 	0.5447	0.3621	0.1557	-0.02
Mof_C 	C 	0.0564	0.3835	0.6204	0.085
Mof_H 	H 	0.0761	0.3824	0.6606	-0.008
Mof_C 	C 	0.9977	0.4272	0.5929	-0.139
Mof_H 	H 	0.9795	0.4565	0.6139	0.08
Mof_C 	C 	0.296	0.1103	0.0848	-0.131
Mof_H 	H 	0.3379	0.1334	0.1061	0.084
Mof_C 	C 	0.7218	0.5166	0.3167	-0.138
Mof_H 	H 	0.6978	0.5402	0.3352	0.071
Mof_C 	C 	0.7877	0.4924	0.348	0.053
Mof_C 	C 	0.1717	0.2071	0.7554	0.083
Mof_H 	H 	0.1323	0.1795	0.7328	-0.02
Mof_C 	C 	0.2846	0.2894	0.8219	-0.134
Mof_H 	H 	0.3227	0.3198	0.8437	0.068
Mof_C 	C 	0.1977	0.1975	0.8149	-0.139
Mof_H 	H 	0.176	0.1651	0.8315	0.083
Mof_C 	C 	0.7881	0.4465	0.2596	0.079
Mof_H 	H 	0.811	0.4221	0.2405	-0.015
Mof_C 	C 	0.255	0.2953	0.7628	0.069
Mof_H 	H 	0.2743	0.33	0.7453	-0.016
Mof_N 	N 	0.0867	0.3426	0.59278	-0.188
Mof_N 	N 	0.72	0.6872	0.5786	-0.208
Mof_N 	N 	0.7241	0.4709	0.2283	-0.198
Mof_N 	N 	0.8772	0.4627	0.4411	-0.136
Mof_N 	N 	0.8737	0.5112	0.52685	-0.14
Mof_N 	N 	0.7885	0.5499	0.43515	-0.149
Mof_N 	N 	0.561	0.3843	0.0879	-0.215
Mof_N 	N 	0.2043	0.0303	0.08344	-0.192
Mof_N 	N 	0.1996	0.2536	0.7287	-0.199
Mof_N 	N 	0.352	0.2105	0.0274	-0.137
Mof_N 	N 	0.2618	0.1775	0.93686	-0.137
Mof_N 	N 	0.3471	0.2681	0.94077	-0.143
Mof_Ag	Ag	0.67704	0.75212	0.63277	0.536
Mof_Ag	Ag	0.15603	0.95717	0.13224	0.523
Mof_C 	C 	0.8763	0.7568	0.9976	0.098
Mof_C 	C 	0.7647	0.5652	0.1118	0.082
Mof_H 	H 	0.7866	0.5586	0.1516	-0.009
Mof_C 	C 	0.2224	0.1377	0.4911	-0.133
Mof_H 	H 	0.2015	0.134	0.4511	0.074
Mof_C 	C 	0.4967	0.8837	0.5035	-0.135
Mof_H 	H 	0.4772	0.8822	0.4634	0.086
Mof_C 	C 	0.5565	0.8433	0.5352	0.087
Mof_H 	H 	0.5767	0.8152	0.5152	-0.012
Mof_C 	C 	0.2804	0.1521	0.6081	0.062
Mof_H 	H 	0.3004	0.1565	0.6481	-0.024
Mof_C 	C 	0.9668	0.8121	0.0888	-0.141
Mof_H 	H 	0.945	0.7912	0.11	0.081
Mof_C 	C 	0.4023	0.9699	0.499	0.1
Mof_C 	C 	0.7019	0.584	0.9951	-0.133
Mof_H 	H 	0.6796	0.5883	0.9551	0.084
Mof_C 	C 	0.9402	0.8019	0.0299	0.061
Mof_C 	C 	0.3208	0.9563	0.3185	-0.137
Mof_H 	H 	0.3648	0.9388	0.3384	0.081
Mof_C 	C 	0.4666	0.9262	0.5329	0.066
Mof_C 	C 	0.7902	0.7269	0.9124	0.102
Mof_C 	C 	0.7567	0.7373	0.8486	0.058
Mof_C 	C 	0.9741	0.8352	0.9999	-0.146
Mof_H 	H 	0.957	0.8305	0.96	0.075
Mof_C 	C 	0.3196	0.0023	0.4116	0.095
Mof_C 	C 	0.3175	0.0517	0.4933	0.093
Mof_C 	C 	0.674	0.5408	0.0259	0.086
Mof_H 	H 	0.632	0.5176	0.0056	-0.012
Mof_C 	C 	0.2849	0.1013	0.5226	0.053
Mof_C 	C 	0.3145	0.1098	0.5818	-0.132
Mof_H 	H 	0.3565	0.0875	0.6037	0.077
Mof_C 	C 	0.7638	0.6209	0.0251	0.069
Mof_C 	C 	0.1921	0.0048	0.2573	0.069
Mof_H 	H 	0.1479	0.0212	0.2366	-0.023
Mof_C 	C 	0.0334	0.8753	0.0307	0.074
Mof_H 	H 	0.0557	0.8976	0.0104	-0.021
Mof_C 	C 	0.7944	0.6721	0.9948	0.101
Mof_C 	C 	0.1919	0.1797	0.5211	0.073
Mof_H 	H 	0.1503	0.2036	0.5001	-0.011
Mof_C 	C 	0.0272	0.8544	0.116	0.07
Mof_H 	H 	0.0447	0.8621	0.1557	-0.02
Mof_C 	C 	0.5564	0.8835	0.6204	0.085
Mof_H 	H 	0.5761	0.8824	0.6606	-0.007
Mof_C 	C 	0.4977	0.9272	0.5929	-0.139
Mof_H 	H 	0.4795	0.9565	0.6139	0.08
Mof_C 	C 	0.796	0.6103	0.0848	-0.132
Mof_H 	H 	0.8379	0.6334	0.1061	0.084
Mof_C 	C 	0.2218	0.0166	0.3167	-0.138
Mof_H 	H 	0.1978	0.0402	0.3352	0.071
Mof_C 	C 	0.2877	0.9924	0.348	0.053
Mof_C 	C 	0.6717	0.7071	0.7554	0.083
Mof_H 	H 	0.6323	0.6795	0.7328	-0.02
Mof_C 	C 	0.7846	0.7894	0.8219	-0.134
Mof_H 	H 	0.8227	0.8198	0.8437	0.068
Mof_C 	C 	0.6977	0.6975	0.8149	-0.139
Mof_H 	H 	0.676	0.6651	0.8315	0.083
Mof_C 	C 	0.2881	0.9465	0.2596	0.079
Mof_H 	H 	0.311	0.9221	0.2405	-0.015
Mof_C 	C 	0.755	0.7953	0.7628	0.07
Mof_H 	H 	0.7743	0.83	0.7453	-0.016
Mof_N 	N 	0.5867	0.8426	0.59278	-0.188
Mof_N 	N 	0.22	0.1872	0.5786	-0.208
Mof_N 	N 	0.2241	0.9709	0.2283	-0.198
Mof_N 	N 	0.3772	0.9627	0.4411	-0.136
Mof_N 	N 	0.3737	0.0112	0.52685	-0.14
Mof_N 	N 	0.2885	0.0499	0.43515	-0.149
Mof_N 	N 	0.061	0.8843	0.0879	-0.215
Mof_N 	N 	0.7043	0.5303	0.08344	-0.192
Mof_N 	N 	0.6996	0.7536	0.7287	-0.199
Mof_N 	N 	0.852	0.7105	0.0274	-0.137
Mof_N 	N 	0.7618	0.6775	0.93686	-0.137
Mof_N 	N 	0.8471	0.7681	0.94077	-0.143
Mof_Ag	Ag	0.17704	0.74788	0.13277	0.536
Mof_Ag	Ag	0.65603	0.54283	0.63224	0.524
Mof_C 	C 	0.3763	0.7432	0.4976	0.099
Mof_C 	C 	0.2647	0.9348	0.6118	0.081
Mof_H 	H 	0.2866	0.9414	0.6516	-0.009
Mof_C 	C 	0.7224	0.3623	0.9911	-0.136
Mof_H 	H 	0.7015	0.366	0.9511	0.075
Mof_C 	C 	0.9967	0.6163	0.0035	-0.132
Mof_H 	H 	0.9772	0.6178	0.9634	0.085
Mof_C 	C 	0.0565	0.6567	0.0352	0.084
Mof_H 	H 	0.0767	0.6848	0.0152	-0.012
Mof_C 	C 	0.7804	0.3479	0.1081	0.063
Mof_H 	H 	0.8004	0.3435	0.1481	-0.024
Mof_C 	C 	0.4668	0.6879	0.5888	-0.141
Mof_H 	H 	0.445	0.7088	0.61	0.081
Mof_C 	C 	0.9023	0.5301	0.999	0.099
Mof_C 	C 	0.2019	0.916	0.4951	-0.131
Mof_H 	H 	0.1796	0.9117	0.4551	0.084
Mof_C 	C 	0.4402	0.6981	0.5299	0.06
Mof_C 	C 	0.8208	0.5437	0.8185	-0.137
Mof_H 	H 	0.8648	0.5612	0.8384	0.081
Mof_C 	C 	0.9666	0.5738	0.0329	0.066
Mof_C 	C 	0.2902	0.7731	0.4124	0.102
Mof_C 	C 	0.2567	0.7627	0.3486	0.058
Mof_C 	C 	0.4741	0.6648	0.4999	-0.145
Mof_H 	H 	0.457	0.6695	0.46	0.075
Mof_C 	C 	0.8196	0.4977	0.9116	0.095
Mof_C 	C 	0.8175	0.4483	0.9933	0.091
Mof_C 	C 	0.174	0.9592	0.5259	0.085
Mof_H 	H 	0.132	0.9824	0.5056	-0.012
Mof_C 	C 	0.7849	0.3987	0.0226	0.055
Mof_C 	C 	0.8145	0.3902	0.0818	-0.133
Mof_H 	H 	0.8565	0.4125	0.1037	0.078
Mof_C 	C 	0.2638	0.8791	0.5251	0.068
Mof_C 	C 	0.6921	0.4952	0.7573	0.069
Mof_H 	H 	0.6479	0.4788	0.7366	-0.023
Mof_C 	C 	0.5334	0.6247	0.5307	0.074
Mof_H 	H 	0.5557	0.6024	0.5104	-0.02
Mof_C 	C 	0.2944	0.8279	0.4948	0.102
Mof_C 	C 	0.6919	0.3203	0.0211	0.075
Mof_H 	H 	0.6503	0.2964	0.0001	-0.012
Mof_C 	C 	0.5272	0.6456	0.616	0.071
Mof_H 	H 	0.5447	0.6379	0.6557	-0.02
Mof_C 	C 	0.0564	0.6165	0.1204	0.083
Mof_H 	H 	0.0761	0.6176	0.1606	-0.007
Mof_C 	C 	0.9977	0.5728	0.0929	-0.137
Mof_H 	H 	0.9795	0.5435	0.1139	0.08
Mof_C 	C 	0.296	0.8897	0.5848	-0.131
Mof_H 	H 	0.3379	0.8666	0.6061	0.084
Mof_C 	C 	0.7218	0.4834	0.8167	-0.138
Mof_H 	H 	0.6978	0.4598	0.8352	0.071
Mof_C 	C 	0.7877	0.5076	0.848	0.053
Mof_C 	C 	0.1717	0.7929	0.2554	0.083
Mof_H 	H 	0.1323	0.8205	0.2328	-0.021
Mof_C 	C 	0.2846	0.7106	0.3219	-0.134
Mof_H 	H 	0.3227	0.6802	0.3437	0.068
Mof_C 	C 	0.1977	0.8025	0.3149	-0.139
Mof_H 	H 	0.176	0.8349	0.3315	0.083
Mof_C 	C 	0.7881	0.5535	0.7596	0.079
Mof_H 	H 	0.811	0.5779	0.7405	-0.015
Mof_C 	C 	0.255	0.7047	0.2628	0.069
Mof_H 	H 	0.2743	0.67	0.2453	-0.016
Mof_N 	N 	0.0867	0.6574	0.09278	-0.188
Mof_N 	N 	0.72	0.3128	0.0786	-0.209
Mof_N 	N 	0.7241	0.5291	0.7283	-0.198
Mof_N 	N 	0.8772	0.5373	0.9411	-0.136
Mof_N 	N 	0.8737	0.4888	0.02685	-0.14
Mof_N 	N 	0.7885	0.4501	0.93515	-0.148
Mof_N 	N 	0.561	0.6157	0.5879	-0.215
Mof_N 	N 	0.2043	0.9697	0.58344	-0.192
Mof_N 	N 	0.1996	0.7464	0.2287	-0.199
Mof_N 	N 	0.352	0.7895	0.5274	-0.137
Mof_N 	N 	0.2618	0.8225	0.43686	-0.137
Mof_N 	N 	0.3471	0.7319	0.44077	-0.143
Mof_Ag	Ag	0.67704	0.24788	0.13277	0.536
Mof_Ag	Ag	0.15603	0.04283	0.63224	0.524
Mof_C 	C 	0.8763	0.2432	0.4976	0.099
Mof_C 	C 	0.7647	0.4348	0.6118	0.081
Mof_H 	H 	0.7866	0.4414	0.6516	-0.009
Mof_C 	C 	0.2224	0.8623	0.9911	-0.129
Mof_H 	H 	0.2015	0.866	0.9511	0.073
Mof_C 	C 	0.4967	0.1163	0.0035	-0.135
Mof_H 	H 	0.4772	0.1178	0.9634	0.086
Mof_C 	C 	0.5565	0.1567	0.0352	0.087
Mof_H 	H 	0.5767	0.1848	0.0152	-0.012
Mof_C 	C 	0.2804	0.8479	0.1081	0.061
Mof_H 	H 	0.3004	0.8435	0.1481	-0.024
Mof_C 	C 	0.9668	0.1879	0.5888	-0.141
Mof_H 	H 	0.945	0.2088	0.61	0.081
Mof_C 	C 	0.4023	0.0301	0.999	0.099
Mof_C 	C 	0.7019	0.416	0.4951	-0.131
Mof_H 	H 	0.6796	0.4117	0.4551	0.084
Mof_C 	C 	0.9402	0.1981	0.5299	0.06
Mof_C 	C 	0.3208	0.0437	0.8185	-0.137
Mof_H 	H 	0.3648	0.0612	0.8384	0.081
Mof_C 	C 	0.4666	0.0738	0.0329	0.066
Mof_C 	C 	0.7902	0.2731	0.4124	0.102
Mof_C 	C 	0.7567	0.2627	0.3486	0.058
Mof_C 	C 	0.9741	0.1648	0.4999	-0.145
Mof_H 	H 	0.957	0.1695	0.46	0.075
Mof_C 	C 	0.3196	0.9977	0.9116	0.096
Mof_C 	C 	0.3175	0.9483	0.9933	0.094
Mof_C 	C 	0.674	0.4592	0.5259	0.085
Mof_H 	H 	0.632	0.4824	0.5056	-0.012
Mof_C 	C 	0.2849	0.8987	0.0226	0.05
Mof_C 	C 	0.3145	0.8902	0.0818	-0.13
Mof_H 	H 	0.3565	0.9125	0.1037	0.076
Mof_C 	C 	0.7638	0.3791	0.5251	0.068
Mof_C 	C 	0.1921	0.9952	0.7573	0.069
Mof_H 	H 	0.1479	0.9788	0.7366	-0.022
Mof_C 	C 	0.0334	0.1247	0.5307	0.074
Mof_H 	H 	0.0557	0.1024	0.5104	-0.02
Mof_C 	C 	0.7944	0.3279	0.4948	0.102
Mof_C 	C 	0.1919	0.8203	0.0211	0.071
Mof_H 	H 	0.1503	0.7964	0.0001	-0.011
Mof_C 	C 	0.0272	0.1456	0.616	0.071
Mof_H 	H 	0.0447	0.1379	0.6557	-0.02
Mof_C 	C 	0.5564	0.1165	0.1204	0.085
Mof_H 	H 	0.5761	0.1176	0.1606	-0.007
Mof_C 	C 	0.4977	0.0728	0.0929	-0.139
Mof_H 	H 	0.4795	0.0435	0.1139	0.08
Mof_C 	C 	0.796	0.3897	0.5848	-0.131
Mof_H 	H 	0.8379	0.3666	0.6061	0.084
Mof_C 	C 	0.2218	0.9834	0.8167	-0.137
Mof_H 	H 	0.1978	0.9598	0.8352	0.071
Mof_C 	C 	0.2877	0.0076	0.848	0.052
Mof_C 	C 	0.6717	0.2929	0.2554	0.083
Mof_H 	H 	0.6323	0.3205	0.2328	-0.02
Mof_C 	C 	0.7846	0.2106	0.3219	-0.134
Mof_H 	H 	0.8227	0.1802	0.3437	0.068
Mof_C 	C 	0.6977	0.3025	0.3149	-0.139
Mof_H 	H 	0.676	0.3349	0.3315	0.083
Mof_C 	C 	0.2881	0.0535	0.7596	0.078
Mof_H 	H 	0.311	0.0779	0.7405	-0.015
Mof_C 	C 	0.755	0.2047	0.2628	0.07
Mof_H 	H 	0.7743	0.17	0.2453	-0.016
Mof_N 	N 	0.5867	0.1574	0.09278	-0.188
Mof_N 	N 	0.22	0.8128	0.0786	-0.208
Mof_N 	N 	0.2241	0.0291	0.7283	-0.198
Mof_N 	N 	0.3772	0.0373	0.9411	-0.137
Mof_N 	N 	0.3737	0.9888	0.02685	-0.141
Mof_N 	N 	0.2885	0.9501	0.93515	-0.149
Mof_N 	N 	0.061	0.1157	0.5879	-0.215
Mof_N 	N 	0.7043	0.4697	0.58344	-0.192
Mof_N 	N 	0.6996	0.2464	0.2287	-0.199
Mof_N 	N 	0.852	0.2895	0.5274	-0.137
Mof_N 	N 	0.7618	0.3225	0.43686	-0.137
Mof_N 	N 	0.8471	0.2319	0.44077	-0.143
Mof_Ag	Ag	0.82296	0.74788	0.36723	0.536
Mof_Ag	Ag	0.34397	0.54283	0.86776	0.524
Mof_C 	C 	0.6237	0.7432	0.0024	0.098
Mof_C 	C 	0.7353	0.9348	0.8882	0.081
Mof_H 	H 	0.7134	0.9414	0.8484	-0.009
Mof_C 	C 	0.2776	0.3623	0.5089	-0.133
Mof_H 	H 	0.2985	0.366	0.5489	0.074
Mof_C 	C 	0.0033	0.6163	0.4965	-0.135
Mof_H 	H 	0.0228	0.6178	0.5366	0.086
Mof_C 	C 	0.9435	0.6567	0.4648	0.087
Mof_H 	H 	0.9233	0.6848	0.4848	-0.013
Mof_C 	C 	0.2196	0.3479	0.3919	0.062
Mof_H 	H 	0.1996	0.3435	0.3519	-0.024
Mof_C 	C 	0.5332	0.6879	0.9112	-0.141
Mof_H 	H 	0.555	0.7088	0.89	0.081
Mof_C 	C 	0.0977	0.5301	0.501	0.099
Mof_C 	C 	0.7981	0.916	0.0049	-0.131
Mof_H 	H 	0.8204	0.9117	0.0449	0.083
Mof_C 	C 	0.5598	0.6981	0.9701	0.06
Mof_C 	C 	0.1792	0.5437	0.6815	-0.137
Mof_H 	H 	0.1352	0.5612	0.6616	0.081
Mof_C 	C 	0.0334	0.5738	0.4671	0.066
Mof_C 	C 	0.7098	0.7731	0.0876	0.102
Mof_C 	C 	0.7433	0.7627	0.1514	0.058
Mof_C 	C 	0.5259	0.6648	0.0001	-0.146
Mof_H 	H 	0.543	0.6695	0.04	0.075
Mof_C 	C 	0.1804	0.4977	0.5884	0.095
Mof_C 	C 	0.1825	0.4483	0.5067	0.093
Mof_C 	C 	0.826	0.9592	0.9741	0.084
Mof_H 	H 	0.868	0.9824	0.9944	-0.012
Mof_C 	C 	0.2151	0.3987	0.4774	0.053
Mof_C 	C 	0.1855	0.3902	0.4182	-0.132
Mof_H 	H 	0.1435	0.4125	0.3963	0.077
Mof_C 	C 	0.7362	0.8791	0.9749	0.067
Mof_C 	C 	0.3079	0.4952	0.7427	0.069
Mof_H 	H 	0.3521	0.4788	0.7634	-0.023
Mof_C 	C 	0.4666	0.6247	0.9693	0.074
Mof_H 	H 	0.4443	0.6024	0.9896	-0.021
Mof_C 	C 	0.7056	0.8279	0.0052	0.102
Mof_C 	C 	0.3081	0.3203	0.4789	0.073
Mof_H 	H 	0.3497	0.2964	0.4999	-0.011
Mof_C 	C 	0.4728	0.6456	0.884	0.071
Mof_H 	H 	0.4553	0.6379	0.8443	-0.02
Mof_C 	C 	0.9436	0.6165	0.3796	0.085
Mof_H 	H 	0.9239	0.6176	0.3394	-0.008
Mof_C 	C 	0.0023	0.5728	0.4071	-0.139
Mof_H 	H 	0.0205	0.5435	0.3861	0.08
Mof_C 	C 	0.704	0.8897	0.9152	-0.131
Mof_H 	H 	0.6621	0.8666	0.8939	0.084
Mof_C 	C 	0.2782	0.4834	0.6833	-0.138
Mof_H 	H 	0.3022	0.4598	0.6648	0.071
Mof_C 	C 	0.2123	0.5076	0.652	0.053
Mof_C 	C 	0.8283	0.7929	0.2446	0.083
Mof_H 	H 	0.8677	0.8205	0.2672	-0.02
Mof_C 	C 	0.7154	0.7106	0.1781	-0.134
Mof_H 	H 	0.6773	0.6802	0.1563	0.068
Mof_C 	C 	0.8023	0.8025	0.1851	-0.139
Mof_H 	H 	0.824	0.8349	0.1685	0.083
Mof_C 	C 	0.2119	0.5535	0.7404	0.079
Mof_H 	H 	0.189	0.5779	0.7595	-0.015
Mof_C 	C 	0.745	0.7047	0.2372	0.069
Mof_H 	H 	0.7257	0.67	0.2547	-0.016
Mof_N 	N 	0.9133	0.6574	0.40722	-0.188
Mof_N 	N 	0.28	0.3128	0.4214	-0.208
Mof_N 	N 	0.2759	0.5291	0.7717	-0.198
Mof_N 	N 	0.1228	0.5373	0.5589	-0.136
Mof_N 	N 	0.1263	0.4888	0.47315	-0.14
Mof_N 	N 	0.2115	0.4501	0.56485	-0.149
Mof_N 	N 	0.439	0.6157	0.9121	-0.215
Mof_N 	N 	0.7957	0.9697	0.91656	-0.192
Mof_N 	N 	0.8004	0.7464	0.2713	-0.199
Mof_N 	N 	0.648	0.7895	0.9726	-0.137
Mof_N 	N 	0.7382	0.8225	0.06314	-0.137
Mof_N 	N 	0.6529	0.7319	0.05923	-0.143
Mof_Ag	Ag	0.32296	0.24788	0.36723	0.536
Mof_Ag	Ag	0.84397	0.04283	0.86776	0.523
Mof_C 	C 	0.1237	0.2432	0.0024	0.098
Mof_C 	C 	0.2353	0.4348	0.8882	0.082
Mof_H 	H 	0.2134	0.4414	0.8484	-0.009
Mof_C 	C 	0.7776	0.8623	0.5089	-0.133
Mof_H 	H 	0.7985	0.866	0.5489	0.074
Mof_C 	C 	0.5033	0.1163	0.4965	-0.135
Mof_H 	H 	0.5228	0.1178	0.5366	0.086
Mof_C 	C 	0.4435	0.1567	0.4648	0.087
Mof_H 	H 	0.4233	0.1848	0.4848	-0.012
Mof_C 	C 	0.7196	0.8479	0.3919	0.062
Mof_H 	H 	0.6996	0.8435	0.3519	-0.024
Mof_C 	C 	0.0332	0.1879	0.9112	-0.141
Mof_H 	H 	0.055	0.2088	0.89	0.081
Mof_C 	C 	0.5977	0.0301	0.501	0.1
Mof_C 	C 	0.2981	0.416	0.0049	-0.133
Mof_H 	H 	0.3204	0.4117	0.0449	0.084
Mof_C 	C 	0.0598	0.1981	0.9701	0.061
Mof_C 	C 	0.6792	0.0437	0.6815	-0.137
Mof_H 	H 	0.6352	0.0612	0.6616	0.081
Mof_C 	C 	0.5334	0.0738	0.4671	0.066
Mof_C 	C 	0.2098	0.2731	0.0876	0.102
Mof_C 	C 	0.2433	0.2627	0.1514	0.058
Mof_C 	C 	0.0259	0.1648	0.0001	-0.146
Mof_H 	H 	0.043	0.1695	0.04	0.075
Mof_C 	C 	0.6804	0.9977	0.5884	0.095
Mof_C 	C 	0.6825	0.9483	0.5067	0.093
Mof_C 	C 	0.326	0.4592	0.9741	0.086
Mof_H 	H 	0.368	0.4824	0.9944	-0.012
Mof_C 	C 	0.7151	0.8987	0.4774	0.053
Mof_C 	C 	0.6855	0.8902	0.4182	-0.132
Mof_H 	H 	0.6435	0.9125	0.3963	0.077
Mof_C 	C 	0.2362	0.3791	0.9749	0.069
Mof_C 	C 	0.8079	0.9952	0.7427	0.069
Mof_H 	H 	0.8521	0.9788	0.7634	-0.023
Mof_C 	C 	0.9666	0.1247	0.9693	0.074
Mof_H 	H 	0.9443	0.1024	0.9896	-0.021
Mof_C 	C 	0.2056	0.3279	0.0052	0.101
Mof_C 	C 	0.8081	0.8203	0.4789	0.073
Mof_H 	H 	0.8497	0.7964	0.4999	-0.011
Mof_C 	C 	0.9728	0.1456	0.884	0.07
Mof_H 	H 	0.9553	0.1379	0.8443	-0.02
Mof_C 	C 	0.4436	0.1165	0.3796	0.085
Mof_H 	H 	0.4239	0.1176	0.3394	-0.007
Mof_C 	C 	0.5023	0.0728	0.4071	-0.139
Mof_H 	H 	0.5205	0.0435	0.3861	0.08
Mof_C 	C 	0.204	0.3897	0.9152	-0.132
Mof_H 	H 	0.1621	0.3666	0.8939	0.084
Mof_C 	C 	0.7782	0.9834	0.6833	-0.138
Mof_H 	H 	0.8022	0.9598	0.6648	0.071
Mof_C 	C 	0.7123	0.0076	0.652	0.053
Mof_C 	C 	0.3283	0.2929	0.2446	0.083
Mof_H 	H 	0.3677	0.3205	0.2672	-0.02
Mof_C 	C 	0.2154	0.2106	0.1781	-0.134
Mof_H 	H 	0.1773	0.1802	0.1563	0.068
Mof_C 	C 	0.3023	0.3025	0.1851	-0.139
Mof_H 	H 	0.324	0.3349	0.1685	0.083
Mof_C 	C 	0.7119	0.0535	0.7404	0.079
Mof_H 	H 	0.689	0.0779	0.7595	-0.015
Mof_C 	C 	0.245	0.2047	0.2372	0.07
Mof_H 	H 	0.2257	0.17	0.2547	-0.016
Mof_N 	N 	0.4133	0.1574	0.40722	-0.188
Mof_N 	N 	0.78	0.8128	0.4214	-0.208
Mof_N 	N 	0.7759	0.0291	0.7717	-0.198
Mof_N 	N 	0.6228	0.0373	0.5589	-0.136
Mof_N 	N 	0.6263	0.9888	0.47315	-0.14
Mof_N 	N 	0.7115	0.9501	0.56485	-0.149
Mof_N 	N 	0.939	0.1157	0.9121	-0.215
Mof_N 	N 	0.2957	0.4697	0.91656	-0.192
Mof_N 	N 	0.3004	0.2464	0.2713	-0.199
Mof_N 	N 	0.148	0.2895	0.9726	-0.137
Mof_N 	N 	0.2382	0.3225	0.06314	-0.137
Mof_N 	N 	0.1529	0.2319	0.05923	-0.143
_end
