data_functionalizedCrystal
_audit_creation_method	'EQeq! by Chris Wilmer'
_symmetry_space_group_name_H-M	'P1'
_symmetry_Int_Tables_number	1
_symmetry_cell_setting	triclinic
loop_
_symmetry_equiv_pos_as_xyz
  x,y,z
_cell_length_a	35.2906
_cell_length_b	35.2906
_cell_length_c	20.5612
_cell_angle_alpha	90
_cell_angle_beta	90
_cell_angle_gamma	120
loop_
_atom_site_label
_atom_site_type_symbol
_atom_site_fract_x
_atom_site_fract_y
_atom_site_fract_z
_atom_site_charge
Mof_O 	O 	0.55389	0.52396	0.57299	-0.406
Mof_O 	O 	0.56656	0.51144	0.47023	-0.404
Mof_C 	C 	0.57818	0.52324	0.52826	0.366
Mof_C 	C 	0.62463	0.53782	0.54585	-0.126
Mof_C 	C 	0.6535	0.53877	0.49941	0.068
Mof_H 	H 	0.6435	0.5291	0.4564	0.028
Mof_C 	C 	0.69701	0.55376	0.51524	-0.14
Mof_H 	H 	0.7167	0.5546	0.4829	0.095
Mof_C 	C 	0.71177	0.5674	0.57781	0.114
Mof_C 	C 	0.68273	0.56584	0.62429	-0.143
Mof_H 	H 	0.6925	0.5749	0.6675	0.085
Mof_C 	C 	0.63918	0.55111	0.60825	0.068
Mof_H 	H 	0.6195	0.5502	0.6405	0.027
Mof_C 	C 	0.75914	0.5868	0.59522	-0.069
Mof_C 	C 	0.77872	0.62478	0.6311	-0.037
Mof_H 	H 	0.7616	0.6373	0.6442	0.045
Mof_C 	C 	0.7434	0.4551	0.5219	-0.007
Mof_C 	C 	0.7577	0.4751	0.6301	-0.024
Mof_O 	O 	0.22056	0.85729	0.90632	-0.407
Mof_O 	O 	0.23323	0.84477	0.80356	-0.405
Mof_C 	C 	0.24485	0.85657	0.86159	0.365
Mof_C 	C 	0.2913	0.87115	0.87918	-0.127
Mof_C 	C 	0.32017	0.8721	0.83274	0.067
Mof_H 	H 	0.31017	0.86243	0.78973	0.027
Mof_C 	C 	0.36368	0.88709	0.84857	-0.14
Mof_H 	H 	0.38337	0.88793	0.81623	0.094
Mof_C 	C 	0.37844	0.90073	0.91114	0.113
Mof_C 	C 	0.3494	0.89917	0.95762	-0.144
Mof_H 	H 	0.35917	0.90823	0.00083	0.084
Mof_C 	C 	0.30585	0.88444	0.94158	0.067
Mof_H 	H 	0.28617	0.88353	0.97383	0.026
Mof_C 	C 	0.42581	0.92013	0.92855	-0.07
Mof_C 	C 	0.44539	0.95811	0.96443	-0.038
Mof_H 	H 	0.42827	0.97063	0.97753	0.044
Mof_C 	C 	0.41007	0.78843	0.85523	-0.007
Mof_C 	C 	0.42437	0.80843	0.96343	-0.024
Mof_O 	O 	0.88722	0.19063	0.23966	-0.407
Mof_O 	O 	0.89989	0.17811	0.1369	-0.405
Mof_C 	C 	0.91151	0.18991	0.19493	0.365
Mof_C 	C 	0.95796	0.20449	0.21252	-0.127
Mof_C 	C 	0.98683	0.20544	0.16608	0.067
Mof_H 	H 	0.97683	0.19577	0.12307	0.027
Mof_C 	C 	0.03034	0.22043	0.18191	-0.141
Mof_H 	H 	0.05003	0.22127	0.14957	0.094
Mof_C 	C 	0.0451	0.23407	0.24448	0.113
Mof_C 	C 	0.01606	0.23251	0.29096	-0.144
Mof_H 	H 	0.02583	0.24157	0.33417	0.084
Mof_C 	C 	0.97251	0.21778	0.27492	0.067
Mof_H 	H 	0.95283	0.21687	0.30717	0.026
Mof_C 	C 	0.09247	0.25347	0.26189	-0.07
Mof_C 	C 	0.11205	0.29145	0.29777	-0.038
Mof_H 	H 	0.09493	0.30397	0.31087	0.044
Mof_C 	C 	0.07673	0.12177	0.18857	-0.007
Mof_C 	C 	0.09103	0.14177	0.29677	-0.024
Mof_O 	O 	0.47604	0.02993	0.57299	-0.407
Mof_O 	O 	0.48856	0.05512	0.47023	-0.405
Mof_C 	C 	0.47676	0.05494	0.52826	0.365
Mof_C 	C 	0.46218	0.08681	0.54585	-0.127
Mof_C 	C 	0.46123	0.11473	0.49941	0.067
Mof_H 	H 	0.4709	0.1144	0.4564	0.027
Mof_C 	C 	0.44624	0.14325	0.51524	-0.14
Mof_H 	H 	0.4454	0.1621	0.4829	0.094
Mof_C 	C 	0.4326	0.14437	0.57781	0.113
Mof_C 	C 	0.43416	0.11689	0.62429	-0.144
Mof_H 	H 	0.4251	0.1176	0.6675	0.084
Mof_C 	C 	0.44889	0.08807	0.60825	0.067
Mof_H 	H 	0.4498	0.0693	0.6405	0.026
Mof_C 	C 	0.4132	0.17234	0.59522	-0.07
Mof_C 	C 	0.37522	0.15394	0.6311	-0.038
Mof_H 	H 	0.3627	0.1243	0.6442	0.044
Mof_C 	C 	0.5449	0.2883	0.5219	-0.007
Mof_C 	C 	0.5249	0.2826	0.6301	-0.024
Mof_O 	O 	0.14271	0.36326	0.90632	-0.407
Mof_O 	O 	0.15523	0.38845	0.80356	-0.405
Mof_C 	C 	0.14343	0.38827	0.86159	0.365
Mof_C 	C 	0.12885	0.42014	0.87918	-0.127
Mof_C 	C 	0.1279	0.44806	0.83274	0.067
Mof_H 	H 	0.13757	0.44773	0.78973	0.027
Mof_C 	C 	0.11291	0.47658	0.84857	-0.14
Mof_H 	H 	0.11207	0.49543	0.81623	0.094
Mof_C 	C 	0.09927	0.4777	0.91114	0.113
Mof_C 	C 	0.10083	0.45022	0.95762	-0.144
Mof_H 	H 	0.09177	0.45093	0.00083	0.084
Mof_C 	C 	0.11556	0.4214	0.94158	0.067
Mof_H 	H 	0.11647	0.40263	0.97383	0.026
Mof_C 	C 	0.07987	0.50567	0.92855	-0.07
Mof_C 	C 	0.04189	0.48727	0.96443	-0.038
Mof_H 	H 	0.02937	0.45763	0.97753	0.044
Mof_C 	C 	0.21157	0.62163	0.85523	-0.007
Mof_C 	C 	0.19157	0.61593	0.96343	-0.024
Mof_O 	O 	0.80937	0.6966	0.23966	-0.407
Mof_O 	O 	0.82189	0.72179	0.1369	-0.405
Mof_C 	C 	0.81009	0.72161	0.19493	0.365
Mof_C 	C 	0.79551	0.75348	0.21252	-0.127
Mof_C 	C 	0.79456	0.7814	0.16608	0.067
Mof_H 	H 	0.80423	0.78107	0.12307	0.027
Mof_C 	C 	0.77957	0.80992	0.18191	-0.141
Mof_H 	H 	0.77873	0.82877	0.14957	0.094
Mof_C 	C 	0.76593	0.81104	0.24448	0.113
Mof_C 	C 	0.76749	0.78356	0.29096	-0.144
Mof_H 	H 	0.75843	0.78427	0.33417	0.084
Mof_C 	C 	0.78222	0.75474	0.27492	0.067
Mof_H 	H 	0.78313	0.73597	0.30717	0.026
Mof_C 	C 	0.74653	0.83901	0.26189	-0.07
Mof_C 	C 	0.70855	0.82061	0.29777	-0.038
Mof_H 	H 	0.69603	0.79097	0.31087	0.044
Mof_C 	C 	0.87823	0.95497	0.18857	-0.007
Mof_C 	C 	0.85823	0.94927	0.29677	-0.024
Mof_O 	O 	0.97007	0.44611	0.57299	-0.407
Mof_O 	O 	0.94488	0.43344	0.47023	-0.405
Mof_C 	C 	0.94506	0.42182	0.52826	0.365
Mof_C 	C 	0.91319	0.37537	0.54585	-0.127
Mof_C 	C 	0.88527	0.3465	0.49941	0.067
Mof_H 	H 	0.8856	0.3565	0.4564	0.027
Mof_C 	C 	0.85675	0.30299	0.51524	-0.141
Mof_H 	H 	0.8379	0.2833	0.4829	0.094
Mof_C 	C 	0.85563	0.28823	0.57781	0.113
Mof_C 	C 	0.88311	0.31727	0.62429	-0.144
Mof_H 	H 	0.8824	0.3075	0.6675	0.084
Mof_C 	C 	0.91193	0.36082	0.60825	0.067
Mof_H 	H 	0.9307	0.3805	0.6405	0.026
Mof_C 	C 	0.82766	0.24086	0.59522	-0.07
Mof_C 	C 	0.84606	0.22128	0.6311	-0.038
Mof_H 	H 	0.8757	0.2384	0.6442	0.044
Mof_C 	C 	0.7117	0.2566	0.5219	-0.007
Mof_C 	C 	0.7174	0.2423	0.6301	-0.024
Mof_O 	O 	0.63674	0.77944	0.90632	-0.407
Mof_O 	O 	0.61155	0.76677	0.80356	-0.405
Mof_C 	C 	0.61173	0.75515	0.86159	0.365
Mof_C 	C 	0.57986	0.7087	0.87918	-0.127
Mof_C 	C 	0.55194	0.67983	0.83274	0.067
Mof_H 	H 	0.55227	0.68983	0.78973	0.027
Mof_C 	C 	0.52342	0.63632	0.84857	-0.14
Mof_H 	H 	0.50457	0.61663	0.81623	0.094
Mof_C 	C 	0.5223	0.62156	0.91114	0.113
Mof_C 	C 	0.54978	0.6506	0.95762	-0.144
Mof_H 	H 	0.54907	0.64083	0.00083	0.084
Mof_C 	C 	0.5786	0.69415	0.94158	0.067
Mof_H 	H 	0.59737	0.71383	0.97383	0.026
Mof_C 	C 	0.49433	0.57419	0.92855	-0.07
Mof_C 	C 	0.51273	0.55461	0.96443	-0.038
Mof_H 	H 	0.54237	0.57173	0.97753	0.044
Mof_C 	C 	0.37837	0.58993	0.85523	-0.007
Mof_C 	C 	0.38407	0.57563	0.96343	-0.024
Mof_O 	O 	0.3034	0.11278	0.23966	-0.407
Mof_O 	O 	0.27821	0.10011	0.1369	-0.405
Mof_C 	C 	0.27839	0.08849	0.19493	0.365
Mof_C 	C 	0.24652	0.04204	0.21252	-0.127
Mof_C 	C 	0.2186	0.01317	0.16608	0.067
Mof_H 	H 	0.21893	0.02317	0.12307	0.027
Mof_C 	C 	0.19008	0.96966	0.18191	-0.14
Mof_H 	H 	0.17123	0.94997	0.14957	0.094
Mof_C 	C 	0.18896	0.9549	0.24448	0.113
Mof_C 	C 	0.21644	0.98394	0.29096	-0.144
Mof_H 	H 	0.21573	0.97417	0.33417	0.084
Mof_C 	C 	0.24526	0.02749	0.27492	0.067
Mof_H 	H 	0.26403	0.04717	0.30717	0.026
Mof_C 	C 	0.16099	0.90753	0.26189	-0.07
Mof_C 	C 	0.17939	0.88795	0.29777	-0.038
Mof_H 	H 	0.20903	0.90507	0.31087	0.044
Mof_C 	C 	0.04503	0.92327	0.18857	-0.007
Mof_C 	C 	0.05073	0.90897	0.29677	-0.024
Mof_O 	O 	0.52396	0.55389	0.42701	-0.407
Mof_O 	O 	0.51144	0.56656	0.52977	-0.405
Mof_C 	C 	0.52324	0.57818	0.47174	0.365
Mof_C 	C 	0.53782	0.62463	0.45415	-0.127
Mof_C 	C 	0.53877	0.6535	0.50059	0.067
Mof_H 	H 	0.5291	0.6435	0.5436	0.027
Mof_C 	C 	0.55376	0.69701	0.48476	-0.141
Mof_H 	H 	0.5546	0.7167	0.5171	0.094
Mof_C 	C 	0.5674	0.71177	0.42219	0.113
Mof_C 	C 	0.56584	0.68273	0.37571	-0.144
Mof_H 	H 	0.5749	0.6925	0.3325	0.084
Mof_C 	C 	0.55111	0.63918	0.39175	0.067
Mof_H 	H 	0.5502	0.6195	0.3595	0.026
Mof_C 	C 	0.5868	0.75914	0.40478	-0.07
Mof_C 	C 	0.62478	0.77872	0.3689	-0.038
Mof_H 	H 	0.6373	0.7616	0.3558	0.044
Mof_C 	C 	0.4551	0.7434	0.4781	-0.007
Mof_C 	C 	0.4751	0.7577	0.3699	-0.024
Mof_O 	O 	0.19063	0.88722	0.76034	-0.407
Mof_O 	O 	0.17811	0.89989	0.8631	-0.405
Mof_C 	C 	0.18991	0.91151	0.80507	0.365
Mof_C 	C 	0.20449	0.95796	0.78748	-0.127
Mof_C 	C 	0.20544	0.98683	0.83392	0.067
Mof_H 	H 	0.19577	0.97683	0.87693	0.027
Mof_C 	C 	0.22043	0.03034	0.81809	-0.141
Mof_H 	H 	0.22127	0.05003	0.85043	0.094
Mof_C 	C 	0.23407	0.0451	0.75552	0.113
Mof_C 	C 	0.23251	0.01606	0.70904	-0.144
Mof_H 	H 	0.24157	0.02583	0.66583	0.084
Mof_C 	C 	0.21778	0.97251	0.72508	0.067
Mof_H 	H 	0.21687	0.95283	0.69283	0.026
Mof_C 	C 	0.25347	0.09247	0.73811	-0.07
Mof_C 	C 	0.29145	0.11205	0.70223	-0.038
Mof_H 	H 	0.30397	0.09493	0.68913	0.044
Mof_C 	C 	0.12177	0.07673	0.81143	-0.007
Mof_C 	C 	0.14177	0.09103	0.70323	-0.024
Mof_O 	O 	0.85729	0.22056	0.09368	-0.407
Mof_O 	O 	0.84477	0.23323	0.19644	-0.405
Mof_C 	C 	0.85657	0.24485	0.13841	0.365
Mof_C 	C 	0.87115	0.2913	0.12082	-0.127
Mof_C 	C 	0.8721	0.32017	0.16726	0.067
Mof_H 	H 	0.86243	0.31017	0.21027	0.027
Mof_C 	C 	0.88709	0.36368	0.15143	-0.14
Mof_H 	H 	0.88793	0.38337	0.18377	0.094
Mof_C 	C 	0.90073	0.37844	0.08886	0.113
Mof_C 	C 	0.89917	0.3494	0.04238	-0.144
Mof_H 	H 	0.90823	0.35917	0.99917	0.084
Mof_C 	C 	0.88444	0.30585	0.05842	0.067
Mof_H 	H 	0.88353	0.28617	0.02617	0.026
Mof_C 	C 	0.92013	0.42581	0.07145	-0.07
Mof_C 	C 	0.95811	0.44539	0.03557	-0.038
Mof_H 	H 	0.97063	0.42827	0.02247	0.044
Mof_C 	C 	0.78843	0.41007	0.14477	-0.007
Mof_C 	C 	0.80843	0.42437	0.03657	-0.024
Mof_O 	O 	0.02993	0.47604	0.42701	-0.407
Mof_O 	O 	0.05512	0.48856	0.52977	-0.405
Mof_C 	C 	0.05494	0.47676	0.47174	0.365
Mof_C 	C 	0.08681	0.46218	0.45415	-0.127
Mof_C 	C 	0.11473	0.46123	0.50059	0.067
Mof_H 	H 	0.1144	0.4709	0.5436	0.027
Mof_C 	C 	0.14325	0.44624	0.48476	-0.14
Mof_H 	H 	0.1621	0.4454	0.5171	0.094
Mof_C 	C 	0.14437	0.4326	0.42219	0.113
Mof_C 	C 	0.11689	0.43416	0.37571	-0.144
Mof_H 	H 	0.1176	0.4251	0.3325	0.084
Mof_C 	C 	0.08807	0.44889	0.39175	0.067
Mof_H 	H 	0.0693	0.4498	0.3595	0.026
Mof_C 	C 	0.17234	0.4132	0.40478	-0.07
Mof_C 	C 	0.15394	0.37522	0.3689	-0.038
Mof_H 	H 	0.1243	0.3627	0.3558	0.044
Mof_C 	C 	0.2883	0.5449	0.4781	-0.007
Mof_C 	C 	0.2826	0.5249	0.3699	-0.024
Mof_O 	O 	0.6966	0.80937	0.76034	-0.407
Mof_O 	O 	0.72179	0.82189	0.8631	-0.405
Mof_C 	C 	0.72161	0.81009	0.80507	0.365
Mof_C 	C 	0.75348	0.79551	0.78748	-0.127
Mof_C 	C 	0.7814	0.79456	0.83392	0.067
Mof_H 	H 	0.78107	0.80423	0.87693	0.027
Mof_C 	C 	0.80992	0.77957	0.81809	-0.141
Mof_H 	H 	0.82877	0.77873	0.85043	0.094
Mof_C 	C 	0.81104	0.76593	0.75552	0.113
Mof_C 	C 	0.78356	0.76749	0.70904	-0.144
Mof_H 	H 	0.78427	0.75843	0.66583	0.084
Mof_C 	C 	0.75474	0.78222	0.72508	0.067
Mof_H 	H 	0.73597	0.78313	0.69283	0.026
Mof_C 	C 	0.83901	0.74653	0.73811	-0.07
Mof_C 	C 	0.82061	0.70855	0.70223	-0.038
Mof_H 	H 	0.79097	0.69603	0.68913	0.044
Mof_C 	C 	0.95497	0.87823	0.81143	-0.007
Mof_C 	C 	0.94927	0.85823	0.70323	-0.024
Mof_O 	O 	0.36326	0.14271	0.09368	-0.407
Mof_O 	O 	0.38845	0.15523	0.19644	-0.405
Mof_C 	C 	0.38827	0.14343	0.13841	0.365
Mof_C 	C 	0.42014	0.12885	0.12082	-0.127
Mof_C 	C 	0.44806	0.1279	0.16726	0.067
Mof_H 	H 	0.44773	0.13757	0.21027	0.027
Mof_C 	C 	0.47658	0.11291	0.15143	-0.14
Mof_H 	H 	0.49543	0.11207	0.18377	0.094
Mof_C 	C 	0.4777	0.09927	0.08886	0.113
Mof_C 	C 	0.45022	0.10083	0.04238	-0.144
Mof_H 	H 	0.45093	0.09177	0.99917	0.084
Mof_C 	C 	0.4214	0.11556	0.05842	0.067
Mof_H 	H 	0.40263	0.11647	0.02617	0.026
Mof_C 	C 	0.50567	0.07987	0.07145	-0.07
Mof_C 	C 	0.48727	0.04189	0.03557	-0.038
Mof_H 	H 	0.45763	0.02937	0.02247	0.044
Mof_C 	C 	0.62163	0.21157	0.14477	-0.007
Mof_C 	C 	0.61593	0.19157	0.03657	-0.024
Mof_O 	O 	0.44611	0.97007	0.42701	-0.407
Mof_O 	O 	0.43344	0.94488	0.52977	-0.405
Mof_C 	C 	0.42182	0.94506	0.47174	0.365
Mof_C 	C 	0.37537	0.91319	0.45415	-0.127
Mof_C 	C 	0.3465	0.88527	0.50059	0.067
Mof_H 	H 	0.3565	0.8856	0.5436	0.027
Mof_C 	C 	0.30299	0.85675	0.48476	-0.141
Mof_H 	H 	0.2833	0.8379	0.5171	0.094
Mof_C 	C 	0.28823	0.85563	0.42219	0.113
Mof_C 	C 	0.31727	0.88311	0.37571	-0.144
Mof_H 	H 	0.3075	0.8824	0.3325	0.084
Mof_C 	C 	0.36082	0.91193	0.39175	0.067
Mof_H 	H 	0.3805	0.9307	0.3595	0.026
Mof_C 	C 	0.24086	0.82766	0.40478	-0.07
Mof_C 	C 	0.22128	0.84606	0.3689	-0.038
Mof_H 	H 	0.2384	0.8757	0.3558	0.044
Mof_C 	C 	0.2566	0.7117	0.4781	-0.007
Mof_C 	C 	0.2423	0.7174	0.3699	-0.024
Mof_O 	O 	0.11278	0.3034	0.76034	-0.407
Mof_O 	O 	0.10011	0.27821	0.8631	-0.405
Mof_C 	C 	0.08849	0.27839	0.80507	0.365
Mof_C 	C 	0.04204	0.24652	0.78748	-0.127
Mof_C 	C 	0.01317	0.2186	0.83392	0.067
Mof_H 	H 	0.02317	0.21893	0.87693	0.027
Mof_C 	C 	0.96966	0.19008	0.81809	-0.14
Mof_H 	H 	0.94997	0.17123	0.85043	0.094
Mof_C 	C 	0.9549	0.18896	0.75552	0.113
Mof_C 	C 	0.98394	0.21644	0.70904	-0.144
Mof_H 	H 	0.97417	0.21573	0.66583	0.084
Mof_C 	C 	0.02749	0.24526	0.72508	0.067
Mof_H 	H 	0.04717	0.26403	0.69283	0.026
Mof_C 	C 	0.90753	0.16099	0.73811	-0.07
Mof_C 	C 	0.88795	0.17939	0.70223	-0.038
Mof_H 	H 	0.90507	0.20903	0.68913	0.044
Mof_C 	C 	0.92327	0.04503	0.81143	-0.007
Mof_C 	C 	0.90897	0.05073	0.70323	-0.024
Mof_O 	O 	0.77944	0.63674	0.09368	-0.407
Mof_O 	O 	0.76677	0.61155	0.19644	-0.405
Mof_C 	C 	0.75515	0.61173	0.13841	0.365
Mof_C 	C 	0.7087	0.57986	0.12082	-0.127
Mof_C 	C 	0.67983	0.55194	0.16726	0.067
Mof_H 	H 	0.68983	0.55227	0.21027	0.027
Mof_C 	C 	0.63632	0.52342	0.15143	-0.14
Mof_H 	H 	0.61663	0.50457	0.18377	0.094
Mof_C 	C 	0.62156	0.5223	0.08886	0.113
Mof_C 	C 	0.6506	0.54978	0.04238	-0.144
Mof_H 	H 	0.64083	0.54907	0.99917	0.084
Mof_C 	C 	0.69415	0.5786	0.05842	0.067
Mof_H 	H 	0.71383	0.59737	0.02617	0.026
Mof_C 	C 	0.57419	0.49433	0.07145	-0.07
Mof_C 	C 	0.55461	0.51273	0.03557	-0.038
Mof_H 	H 	0.57173	0.54237	0.02247	0.044
Mof_C 	C 	0.58993	0.37837	0.14477	-0.007
Mof_C 	C 	0.57563	0.38407	0.03657	-0.024
Mof_O 	O 	0.44611	0.47604	0.42701	-0.407
Mof_O 	O 	0.43344	0.48856	0.52977	-0.405
Mof_C 	C 	0.42182	0.47676	0.47174	0.365
Mof_C 	C 	0.37537	0.46218	0.45415	-0.127
Mof_C 	C 	0.3465	0.46123	0.50059	0.067
Mof_H 	H 	0.3565	0.4709	0.5436	0.027
Mof_C 	C 	0.30299	0.44624	0.48476	-0.141
Mof_H 	H 	0.2833	0.4454	0.5171	0.094
Mof_C 	C 	0.28823	0.4326	0.42219	0.113
Mof_C 	C 	0.31727	0.43416	0.37571	-0.144
Mof_H 	H 	0.3075	0.4251	0.3325	0.084
Mof_C 	C 	0.36082	0.44889	0.39175	0.067
Mof_H 	H 	0.3805	0.4498	0.3595	0.026
Mof_C 	C 	0.24086	0.4132	0.40478	-0.07
Mof_C 	C 	0.22128	0.37522	0.3689	-0.038
Mof_H 	H 	0.2384	0.3627	0.3558	0.044
Mof_C 	C 	0.2566	0.5449	0.4781	-0.007
Mof_C 	C 	0.2423	0.5249	0.3699	-0.024
Mof_O 	O 	0.11278	0.80937	0.76034	-0.407
Mof_O 	O 	0.10011	0.82189	0.8631	-0.405
Mof_C 	C 	0.08849	0.81009	0.80507	0.365
Mof_C 	C 	0.04204	0.79551	0.78748	-0.127
Mof_C 	C 	0.01317	0.79456	0.83392	0.067
Mof_H 	H 	0.02317	0.80423	0.87693	0.027
Mof_C 	C 	0.96966	0.77957	0.81809	-0.141
Mof_H 	H 	0.94997	0.77873	0.85043	0.094
Mof_C 	C 	0.9549	0.76593	0.75552	0.113
Mof_C 	C 	0.98394	0.76749	0.70904	-0.144
Mof_H 	H 	0.97417	0.75843	0.66583	0.084
Mof_C 	C 	0.02749	0.78222	0.72508	0.067
Mof_H 	H 	0.04717	0.78313	0.69283	0.026
Mof_C 	C 	0.90753	0.74653	0.73811	-0.07
Mof_C 	C 	0.88795	0.70855	0.70223	-0.038
Mof_H 	H 	0.90507	0.69603	0.68913	0.044
Mof_C 	C 	0.92327	0.87823	0.81143	-0.007
Mof_C 	C 	0.90897	0.85823	0.70323	-0.024
Mof_O 	O 	0.77944	0.14271	0.09368	-0.407
Mof_O 	O 	0.76677	0.15523	0.19644	-0.405
Mof_C 	C 	0.75515	0.14343	0.13841	0.365
Mof_C 	C 	0.7087	0.12885	0.12082	-0.127
Mof_C 	C 	0.67983	0.1279	0.16726	0.067
Mof_H 	H 	0.68983	0.13757	0.21027	0.027
Mof_C 	C 	0.63632	0.11291	0.15143	-0.14
Mof_H 	H 	0.61663	0.11207	0.18377	0.094
Mof_C 	C 	0.62156	0.09927	0.08886	0.113
Mof_C 	C 	0.6506	0.10083	0.04238	-0.144
Mof_H 	H 	0.64083	0.09177	0.99917	0.084
Mof_C 	C 	0.69415	0.11556	0.05842	0.067
Mof_H 	H 	0.71383	0.11647	0.02617	0.026
Mof_C 	C 	0.57419	0.07987	0.07145	-0.07
Mof_C 	C 	0.55461	0.04189	0.03557	-0.038
Mof_H 	H 	0.57173	0.02937	0.02247	0.044
Mof_C 	C 	0.58993	0.21157	0.14477	-0.007
Mof_C 	C 	0.57563	0.19157	0.03657	-0.024
Mof_O 	O 	0.52396	0.97007	0.42701	-0.407
Mof_O 	O 	0.51144	0.94488	0.52977	-0.405
Mof_C 	C 	0.52324	0.94506	0.47174	0.365
Mof_C 	C 	0.53782	0.91319	0.45415	-0.127
Mof_C 	C 	0.53877	0.88527	0.50059	0.067
Mof_H 	H 	0.5291	0.8856	0.5436	0.027
Mof_C 	C 	0.55376	0.85675	0.48476	-0.14
Mof_H 	H 	0.5546	0.8379	0.5171	0.094
Mof_C 	C 	0.5674	0.85563	0.42219	0.113
Mof_C 	C 	0.56584	0.88311	0.37571	-0.144
Mof_H 	H 	0.5749	0.8824	0.3325	0.084
Mof_C 	C 	0.55111	0.91193	0.39175	0.067
Mof_H 	H 	0.5502	0.9307	0.3595	0.026
Mof_C 	C 	0.5868	0.82766	0.40478	-0.07
Mof_C 	C 	0.62478	0.84606	0.3689	-0.038
Mof_H 	H 	0.6373	0.8757	0.3558	0.044
Mof_C 	C 	0.4551	0.7117	0.4781	-0.007
Mof_C 	C 	0.4751	0.7174	0.3699	-0.024
Mof_O 	O 	0.19063	0.3034	0.76034	-0.407
Mof_O 	O 	0.17811	0.27821	0.8631	-0.405
Mof_C 	C 	0.18991	0.27839	0.80507	0.365
Mof_C 	C 	0.20449	0.24652	0.78748	-0.127
Mof_C 	C 	0.20544	0.2186	0.83392	0.067
Mof_H 	H 	0.19577	0.21893	0.87693	0.027
Mof_C 	C 	0.22043	0.19008	0.81809	-0.141
Mof_H 	H 	0.22127	0.17123	0.85043	0.094
Mof_C 	C 	0.23407	0.18896	0.75552	0.113
Mof_C 	C 	0.23251	0.21644	0.70904	-0.144
Mof_H 	H 	0.24157	0.21573	0.66583	0.084
Mof_C 	C 	0.21778	0.24526	0.72508	0.067
Mof_H 	H 	0.21687	0.26403	0.69283	0.026
Mof_C 	C 	0.25347	0.16099	0.73811	-0.07
Mof_C 	C 	0.29145	0.17939	0.70223	-0.038
Mof_H 	H 	0.30397	0.20903	0.68913	0.044
Mof_C 	C 	0.12177	0.04503	0.81143	-0.007
Mof_C 	C 	0.14177	0.05073	0.70323	-0.024
Mof_O 	O 	0.85729	0.63674	0.09368	-0.407
Mof_O 	O 	0.84477	0.61155	0.19644	-0.405
Mof_C 	C 	0.85657	0.61173	0.13841	0.365
Mof_C 	C 	0.87115	0.57986	0.12082	-0.127
Mof_C 	C 	0.8721	0.55194	0.16726	0.067
Mof_H 	H 	0.86243	0.55227	0.21027	0.027
Mof_C 	C 	0.88709	0.52342	0.15143	-0.14
Mof_H 	H 	0.88793	0.50457	0.18377	0.094
Mof_C 	C 	0.90073	0.5223	0.08886	0.113
Mof_C 	C 	0.89917	0.54978	0.04238	-0.144
Mof_H 	H 	0.90823	0.54907	0.99917	0.084
Mof_C 	C 	0.88444	0.5786	0.05842	0.067
Mof_H 	H 	0.88353	0.59737	0.02617	0.026
Mof_C 	C 	0.92013	0.49433	0.07145	-0.07
Mof_C 	C 	0.95811	0.51273	0.03557	-0.038
Mof_H 	H 	0.97063	0.54237	0.02247	0.044
Mof_C 	C 	0.78843	0.37837	0.14477	-0.007
Mof_C 	C 	0.80843	0.38407	0.03657	-0.024
Mof_O 	O 	0.02993	0.55389	0.42701	-0.407
Mof_O 	O 	0.05512	0.56656	0.52977	-0.405
Mof_C 	C 	0.05494	0.57818	0.47174	0.365
Mof_C 	C 	0.08681	0.62463	0.45415	-0.127
Mof_C 	C 	0.11473	0.6535	0.50059	0.067
Mof_H 	H 	0.1144	0.6435	0.5436	0.027
Mof_C 	C 	0.14325	0.69701	0.48476	-0.141
Mof_H 	H 	0.1621	0.7167	0.5171	0.094
Mof_C 	C 	0.14437	0.71177	0.42219	0.113
Mof_C 	C 	0.11689	0.68273	0.37571	-0.144
Mof_H 	H 	0.1176	0.6925	0.3325	0.084
Mof_C 	C 	0.08807	0.63918	0.39175	0.067
Mof_H 	H 	0.0693	0.6195	0.3595	0.026
Mof_C 	C 	0.17234	0.75914	0.40478	-0.07
Mof_C 	C 	0.15394	0.77872	0.3689	-0.038
Mof_H 	H 	0.1243	0.7616	0.3558	0.044
Mof_C 	C 	0.2883	0.7434	0.4781	-0.007
Mof_C 	C 	0.2826	0.7577	0.3699	-0.024
Mof_O 	O 	0.6966	0.88722	0.76034	-0.407
Mof_O 	O 	0.72179	0.89989	0.8631	-0.405
Mof_C 	C 	0.72161	0.91151	0.80507	0.365
Mof_C 	C 	0.75348	0.95796	0.78748	-0.127
Mof_C 	C 	0.7814	0.98683	0.83392	0.067
Mof_H 	H 	0.78107	0.97683	0.87693	0.027
Mof_C 	C 	0.80992	0.03034	0.81809	-0.14
Mof_H 	H 	0.82877	0.05003	0.85043	0.094
Mof_C 	C 	0.81104	0.0451	0.75552	0.113
Mof_C 	C 	0.78356	0.01606	0.70904	-0.144
Mof_H 	H 	0.78427	0.02583	0.66583	0.084
Mof_C 	C 	0.75474	0.97251	0.72508	0.067
Mof_H 	H 	0.73597	0.95283	0.69283	0.026
Mof_C 	C 	0.83901	0.09247	0.73811	-0.07
Mof_C 	C 	0.82061	0.11205	0.70223	-0.038
Mof_H 	H 	0.79097	0.09493	0.68913	0.044
Mof_C 	C 	0.95497	0.07673	0.81143	-0.007
Mof_C 	C 	0.94927	0.09103	0.70323	-0.024
Mof_O 	O 	0.36326	0.22056	0.09368	-0.407
Mof_O 	O 	0.38845	0.23323	0.19644	-0.405
Mof_C 	C 	0.38827	0.24485	0.13841	0.365
Mof_C 	C 	0.42014	0.2913	0.12082	-0.127
Mof_C 	C 	0.44806	0.32017	0.16726	0.067
Mof_H 	H 	0.44773	0.31017	0.21027	0.027
Mof_C 	C 	0.47658	0.36368	0.15143	-0.14
Mof_H 	H 	0.49543	0.38337	0.18377	0.094
Mof_C 	C 	0.4777	0.37844	0.08886	0.113
Mof_C 	C 	0.45022	0.3494	0.04238	-0.144
Mof_H 	H 	0.45093	0.35917	0.99917	0.084
Mof_C 	C 	0.4214	0.30585	0.05842	0.067
Mof_H 	H 	0.40263	0.28617	0.02617	0.026
Mof_C 	C 	0.50567	0.42581	0.07145	-0.07
Mof_C 	C 	0.48727	0.44539	0.03557	-0.038
Mof_H 	H 	0.45763	0.42827	0.02247	0.044
Mof_C 	C 	0.62163	0.41007	0.14477	-0.007
Mof_C 	C 	0.61593	0.42437	0.03657	-0.024
Mof_O 	O 	0.47604	0.44611	0.57299	-0.407
Mof_O 	O 	0.48856	0.43344	0.47023	-0.405
Mof_C 	C 	0.47676	0.42182	0.52826	0.365
Mof_C 	C 	0.46218	0.37537	0.54585	-0.127
Mof_C 	C 	0.46123	0.3465	0.49941	0.067
Mof_H 	H 	0.4709	0.3565	0.4564	0.027
Mof_C 	C 	0.44624	0.30299	0.51524	-0.141
Mof_H 	H 	0.4454	0.2833	0.4829	0.094
Mof_C 	C 	0.4326	0.28823	0.57781	0.113
Mof_C 	C 	0.43416	0.31727	0.62429	-0.144
Mof_H 	H 	0.4251	0.3075	0.6675	0.084
Mof_C 	C 	0.44889	0.36082	0.60825	0.067
Mof_H 	H 	0.4498	0.3805	0.6405	0.026
Mof_C 	C 	0.4132	0.24086	0.59522	-0.07
Mof_C 	C 	0.37522	0.22128	0.6311	-0.038
Mof_H 	H 	0.3627	0.2384	0.6442	0.044
Mof_C 	C 	0.5449	0.2566	0.5219	-0.007
Mof_C 	C 	0.5249	0.2423	0.6301	-0.024
Mof_O 	O 	0.14271	0.77944	0.90632	-0.407
Mof_O 	O 	0.15523	0.76677	0.80356	-0.405
Mof_C 	C 	0.14343	0.75515	0.86159	0.365
Mof_C 	C 	0.12885	0.7087	0.87918	-0.127
Mof_C 	C 	0.1279	0.67983	0.83274	0.067
Mof_H 	H 	0.13757	0.68983	0.78973	0.027
Mof_C 	C 	0.11291	0.63632	0.84857	-0.14
Mof_H 	H 	0.11207	0.61663	0.81623	0.094
Mof_C 	C 	0.09927	0.62156	0.91114	0.113
Mof_C 	C 	0.10083	0.6506	0.95762	-0.144
Mof_H 	H 	0.09177	0.64083	0.00083	0.084
Mof_C 	C 	0.11556	0.69415	0.94158	0.067
Mof_H 	H 	0.11647	0.71383	0.97383	0.026
Mof_C 	C 	0.07987	0.57419	0.92855	-0.07
Mof_C 	C 	0.04189	0.55461	0.96443	-0.038
Mof_H 	H 	0.02937	0.57173	0.97753	0.044
Mof_C 	C 	0.21157	0.58993	0.85523	-0.007
Mof_C 	C 	0.19157	0.57563	0.96343	-0.024
Mof_O 	O 	0.80937	0.11278	0.23966	-0.407
Mof_O 	O 	0.82189	0.10011	0.1369	-0.405
Mof_C 	C 	0.81009	0.08849	0.19493	0.365
Mof_C 	C 	0.79551	0.04204	0.21252	-0.127
Mof_C 	C 	0.79456	0.01317	0.16608	0.067
Mof_H 	H 	0.80423	0.02317	0.12307	0.027
Mof_C 	C 	0.77957	0.96966	0.18191	-0.141
Mof_H 	H 	0.77873	0.94997	0.14957	0.094
Mof_C 	C 	0.76593	0.9549	0.24448	0.113
Mof_C 	C 	0.76749	0.98394	0.29096	-0.144
Mof_H 	H 	0.75843	0.97417	0.33417	0.084
Mof_C 	C 	0.78222	0.02749	0.27492	0.067
Mof_H 	H 	0.78313	0.04717	0.30717	0.026
Mof_C 	C 	0.74653	0.90753	0.26189	-0.07
Mof_C 	C 	0.70855	0.88795	0.29777	-0.038
Mof_H 	H 	0.69603	0.90507	0.31087	0.044
Mof_C 	C 	0.87823	0.92327	0.18857	-0.007
Mof_C 	C 	0.85823	0.90897	0.29677	-0.024
Mof_O 	O 	0.97007	0.52396	0.57299	-0.407
Mof_O 	O 	0.94488	0.51144	0.47023	-0.405
Mof_C 	C 	0.94506	0.52324	0.52826	0.365
Mof_C 	C 	0.91319	0.53782	0.54585	-0.127
Mof_C 	C 	0.88527	0.53877	0.49941	0.067
Mof_H 	H 	0.8856	0.5291	0.4564	0.027
Mof_C 	C 	0.85675	0.55376	0.51524	-0.14
Mof_H 	H 	0.8379	0.5546	0.4829	0.094
Mof_C 	C 	0.85563	0.5674	0.57781	0.113
Mof_C 	C 	0.88311	0.56584	0.62429	-0.144
Mof_H 	H 	0.8824	0.5749	0.6675	0.084
Mof_C 	C 	0.91193	0.55111	0.60825	0.067
Mof_H 	H 	0.9307	0.5502	0.6405	0.026
Mof_C 	C 	0.82766	0.5868	0.59522	-0.07
Mof_C 	C 	0.84606	0.62478	0.6311	-0.038
Mof_H 	H 	0.8757	0.6373	0.6442	0.044
Mof_C 	C 	0.7117	0.4551	0.5219	-0.007
Mof_C 	C 	0.7174	0.4751	0.6301	-0.024
Mof_O 	O 	0.63674	0.85729	0.90632	-0.407
Mof_O 	O 	0.61155	0.84477	0.80356	-0.405
Mof_C 	C 	0.61173	0.85657	0.86159	0.365
Mof_C 	C 	0.57986	0.87115	0.87918	-0.127
Mof_C 	C 	0.55194	0.8721	0.83274	0.067
Mof_H 	H 	0.55227	0.86243	0.78973	0.027
Mof_C 	C 	0.52342	0.88709	0.84857	-0.14
Mof_H 	H 	0.50457	0.88793	0.81623	0.094
Mof_C 	C 	0.5223	0.90073	0.91114	0.113
Mof_C 	C 	0.54978	0.89917	0.95762	-0.144
Mof_H 	H 	0.54907	0.90823	0.00083	0.084
Mof_C 	C 	0.5786	0.88444	0.94158	0.067
Mof_H 	H 	0.59737	0.88353	0.97383	0.026
Mof_C 	C 	0.49433	0.92013	0.92855	-0.07
Mof_C 	C 	0.51273	0.95811	0.96443	-0.038
Mof_H 	H 	0.54237	0.97063	0.97753	0.044
Mof_C 	C 	0.37837	0.78843	0.85523	-0.007
Mof_C 	C 	0.38407	0.80843	0.96343	-0.024
Mof_O 	O 	0.3034	0.19063	0.23966	-0.407
Mof_O 	O 	0.27821	0.17811	0.1369	-0.405
Mof_C 	C 	0.27839	0.18991	0.19493	0.365
Mof_C 	C 	0.24652	0.20449	0.21252	-0.127
Mof_C 	C 	0.2186	0.20544	0.16608	0.067
Mof_H 	H 	0.21893	0.19577	0.12307	0.027
Mof_C 	C 	0.19008	0.22043	0.18191	-0.141
Mof_H 	H 	0.17123	0.22127	0.14957	0.094
Mof_C 	C 	0.18896	0.23407	0.24448	0.113
Mof_C 	C 	0.21644	0.23251	0.29096	-0.144
Mof_H 	H 	0.21573	0.24157	0.33417	0.084
Mof_C 	C 	0.24526	0.21778	0.27492	0.067
Mof_H 	H 	0.26403	0.21687	0.30717	0.026
Mof_C 	C 	0.16099	0.25347	0.26189	-0.07
Mof_C 	C 	0.17939	0.29145	0.29777	-0.038
Mof_H 	H 	0.20903	0.30397	0.31087	0.044
Mof_C 	C 	0.04503	0.12177	0.18857	-0.007
Mof_C 	C 	0.05073	0.14177	0.29677	-0.024
Mof_O 	O 	0.55389	0.02993	0.57299	-0.407
Mof_O 	O 	0.56656	0.05512	0.47023	-0.405
Mof_C 	C 	0.57818	0.05494	0.52826	0.365
Mof_C 	C 	0.62463	0.08681	0.54585	-0.127
Mof_C 	C 	0.6535	0.11473	0.49941	0.067
Mof_H 	H 	0.6435	0.1144	0.4564	0.027
Mof_C 	C 	0.69701	0.14325	0.51524	-0.141
Mof_H 	H 	0.7167	0.1621	0.4829	0.094
Mof_C 	C 	0.71177	0.14437	0.57781	0.113
Mof_C 	C 	0.68273	0.11689	0.62429	-0.144
Mof_H 	H 	0.6925	0.1176	0.6675	0.084
Mof_C 	C 	0.63918	0.08807	0.60825	0.067
Mof_H 	H 	0.6195	0.0693	0.6405	0.026
Mof_C 	C 	0.75914	0.17234	0.59522	-0.07
Mof_C 	C 	0.77872	0.15394	0.6311	-0.038
Mof_H 	H 	0.7616	0.1243	0.6442	0.044
Mof_C 	C 	0.7434	0.2883	0.5219	-0.007
Mof_C 	C 	0.7577	0.2826	0.6301	-0.024
Mof_O 	O 	0.22056	0.36326	0.90632	-0.407
Mof_O 	O 	0.23323	0.38845	0.80356	-0.405
Mof_C 	C 	0.24485	0.38827	0.86159	0.365
Mof_C 	C 	0.2913	0.42014	0.87918	-0.127
Mof_C 	C 	0.32017	0.44806	0.83274	0.067
Mof_H 	H 	0.31017	0.44773	0.78973	0.027
Mof_C 	C 	0.36368	0.47658	0.84857	-0.14
Mof_H 	H 	0.38337	0.49543	0.81623	0.094
Mof_C 	C 	0.37844	0.4777	0.91114	0.113
Mof_C 	C 	0.3494	0.45022	0.95762	-0.144
Mof_H 	H 	0.35917	0.45093	0.00083	0.084
Mof_C 	C 	0.30585	0.4214	0.94158	0.067
Mof_H 	H 	0.28617	0.40263	0.97383	0.026
Mof_C 	C 	0.42581	0.50567	0.92855	-0.07
Mof_C 	C 	0.44539	0.48727	0.96443	-0.038
Mof_H 	H 	0.42827	0.45763	0.97753	0.044
Mof_C 	C 	0.41007	0.62163	0.85523	-0.007
Mof_C 	C 	0.42437	0.61593	0.96343	-0.024
Mof_O 	O 	0.88722	0.6966	0.23966	-0.407
Mof_O 	O 	0.89989	0.72179	0.1369	-0.405
Mof_C 	C 	0.91151	0.72161	0.19493	0.365
Mof_C 	C 	0.95796	0.75348	0.21252	-0.127
Mof_C 	C 	0.98683	0.7814	0.16608	0.067
Mof_H 	H 	0.97683	0.78107	0.12307	0.027
Mof_C 	C 	0.03034	0.80992	0.18191	-0.14
Mof_H 	H 	0.05003	0.82877	0.14957	0.094
Mof_C 	C 	0.0451	0.81104	0.24448	0.113
Mof_C 	C 	0.01606	0.78356	0.29096	-0.144
Mof_H 	H 	0.02583	0.78427	0.33417	0.084
Mof_C 	C 	0.97251	0.75474	0.27492	0.067
Mof_H 	H 	0.95283	0.73597	0.30717	0.026
Mof_C 	C 	0.09247	0.83901	0.26189	-0.07
Mof_C 	C 	0.11205	0.82061	0.29777	-0.038
Mof_H 	H 	0.09493	0.79097	0.31087	0.044
Mof_C 	C 	0.07673	0.95497	0.18857	-0.007
Mof_C 	C 	0.09103	0.94927	0.29677	-0.024
Mof_Cu	Cu	0.49264	0.50736	0.56018	0.906
Mof_Cu	Cu	0.15931	0.84069	0.89351	0.906
Mof_Cu	Cu	0.82597	0.17403	0.22685	0.906
Mof_Cu	Cu	0.49264	0.98528	0.56018	0.906
Mof_Cu	Cu	0.15931	0.31861	0.89351	0.906
Mof_Cu	Cu	0.82597	0.65195	0.22685	0.906
Mof_Cu	Cu	0.01472	0.50736	0.56018	0.906
Mof_Cu	Cu	0.68139	0.84069	0.89351	0.906
Mof_Cu	Cu	0.34805	0.17403	0.22685	0.906
Mof_Cu	Cu	0.50736	0.49264	0.43982	0.906
Mof_Cu	Cu	0.17403	0.82597	0.77315	0.906
Mof_Cu	Cu	0.84069	0.15931	0.10649	0.906
Mof_Cu	Cu	0.98528	0.49264	0.43982	0.906
Mof_Cu	Cu	0.65195	0.82597	0.77315	0.906
Mof_Cu	Cu	0.31861	0.15931	0.10649	0.906
Mof_Cu	Cu	0.50736	0.01472	0.43982	0.906
Mof_Cu	Cu	0.17403	0.34805	0.77315	0.906
Mof_Cu	Cu	0.84069	0.68139	0.10649	0.906
Mof_O 	O 	0.76439	0.52878	0.54215	-0.238
Mof_C 	C 	0.82287	0.64574	0.6491	0.005
Mof_C 	C 	0.78372	0.56745	0.5762	0.148
Mof_C 	C 	0.7447	0.4894	0.5729	0.129
Mof_O 	O 	0.43106	0.86211	0.87548	-0.238
Mof_C 	C 	0.48954	0.97907	0.98243	0.005
Mof_C 	C 	0.45039	0.90078	0.90953	0.148
Mof_C 	C 	0.41137	0.82273	0.90623	0.129
Mof_O 	O 	0.09772	0.19545	0.20882	-0.238
Mof_C 	C 	0.1562	0.31241	0.31577	0.005
Mof_C 	C 	0.11706	0.23412	0.24287	0.148
Mof_C 	C 	0.07803	0.15607	0.23957	0.129
Mof_O 	O 	0.47122	0.23561	0.54215	-0.238
Mof_C 	C 	0.35426	0.17713	0.6491	0.005
Mof_C 	C 	0.43255	0.21628	0.5762	0.148
Mof_C 	C 	0.5106	0.2553	0.5729	0.129
Mof_O 	O 	0.13789	0.56894	0.87548	-0.238
Mof_C 	C 	0.02093	0.51046	0.98243	0.005
Mof_C 	C 	0.09922	0.54961	0.90953	0.148
Mof_C 	C 	0.17727	0.58863	0.90623	0.129
Mof_O 	O 	0.80455	0.90228	0.20882	-0.238
Mof_C 	C 	0.68759	0.8438	0.31577	0.005
Mof_C 	C 	0.76588	0.88294	0.24287	0.148
Mof_C 	C 	0.84393	0.92197	0.23957	0.129
Mof_O 	O 	0.76439	0.23561	0.54215	-0.238
Mof_C 	C 	0.82287	0.17713	0.6491	0.005
Mof_C 	C 	0.78372	0.21628	0.5762	0.148
Mof_C 	C 	0.7447	0.2553	0.5729	0.129
Mof_O 	O 	0.43106	0.56894	0.87548	-0.238
Mof_C 	C 	0.48954	0.51046	0.98243	0.005
Mof_C 	C 	0.45039	0.54961	0.90953	0.148
Mof_C 	C 	0.41137	0.58863	0.90623	0.129
Mof_O 	O 	0.09772	0.90228	0.20882	-0.238
Mof_C 	C 	0.1562	0.8438	0.31577	0.005
Mof_C 	C 	0.11706	0.88294	0.24287	0.148
Mof_C 	C 	0.07803	0.92197	0.23957	0.129
Mof_O 	O 	0.52878	0.76439	0.45785	-0.238
Mof_C 	C 	0.64574	0.82287	0.3509	0.005
Mof_C 	C 	0.56745	0.78372	0.4238	0.148
Mof_C 	C 	0.4894	0.7447	0.4271	0.129
Mof_O 	O 	0.19545	0.09772	0.79118	-0.238
Mof_C 	C 	0.31241	0.1562	0.68423	0.005
Mof_C 	C 	0.23412	0.11706	0.75713	0.148
Mof_C 	C 	0.15607	0.07803	0.76043	0.129
Mof_O 	O 	0.86211	0.43106	0.12452	-0.238
Mof_C 	C 	0.97907	0.48954	0.01757	0.005
Mof_C 	C 	0.90078	0.45039	0.09047	0.148
Mof_C 	C 	0.82273	0.41137	0.09377	0.129
Mof_O 	O 	0.23561	0.47122	0.45785	-0.238
Mof_C 	C 	0.17713	0.35426	0.3509	0.005
Mof_C 	C 	0.21628	0.43255	0.4238	0.148
Mof_C 	C 	0.2553	0.5106	0.4271	0.129
Mof_O 	O 	0.90228	0.80455	0.79118	-0.238
Mof_C 	C 	0.8438	0.68759	0.68423	0.005
Mof_C 	C 	0.88294	0.76588	0.75713	0.148
Mof_C 	C 	0.92197	0.84393	0.76043	0.129
Mof_O 	O 	0.56894	0.13789	0.12452	-0.238
Mof_C 	C 	0.51046	0.02093	0.01757	0.005
Mof_C 	C 	0.54961	0.09922	0.09047	0.148
Mof_C 	C 	0.58863	0.17727	0.09377	0.129
Mof_O 	O 	0.23561	0.76439	0.45785	-0.238
Mof_C 	C 	0.17713	0.82287	0.3509	0.005
Mof_C 	C 	0.21628	0.78372	0.4238	0.148
Mof_C 	C 	0.2553	0.7447	0.4271	0.129
Mof_O 	O 	0.90228	0.09772	0.79118	-0.238
Mof_C 	C 	0.8438	0.1562	0.68423	0.005
Mof_C 	C 	0.88294	0.11706	0.75713	0.148
Mof_C 	C 	0.92197	0.07803	0.76043	0.129
Mof_O 	O 	0.56894	0.43106	0.12452	-0.238
Mof_C 	C 	0.51046	0.48954	0.01757	0.005
Mof_C 	C 	0.54961	0.45039	0.09047	0.148
Mof_C 	C 	0.58863	0.41137	0.09377	0.129
_end
