data_functionalizedCrystal
_audit_creation_method	'EQeq! by Chris Wilmer'
_symmetry_space_group_name_H-M	'P1'
_symmetry_Int_Tables_number	1
_symmetry_cell_setting	triclinic
loop_
_symmetry_equiv_pos_as_xyz
  x,y,z
_cell_length_a	26.7264
_cell_length_b	26.7264
_cell_length_c	26.7264
_cell_angle_alpha	90
_cell_angle_beta	90
_cell_angle_gamma	90
loop_
_atom_site_label
_atom_site_type_symbol
_atom_site_fract_x
_atom_site_fract_y
_atom_site_fract_z
_atom_site_charge
Mof_O 	O 	0.0573	0.4281	0.3938	39.866
Mof_O 	O 	0.0369	0.4318	0.3202	-1.864
Mof_C 	C 	0.0741	0.4303	0.3505	0.604
Mof_C 	C 	0.119	0.3984	0.3383	-0.267
Mof_C 	C 	0.1378	0.3994	0.2905	0.467
Mof_C 	C 	0.142	0.3689	0.3728	0.486
Mof_H 	H 	0.1218	0.4182	0.266	-0.045
Mof_C 	C 	0.1802	0.3725	0.2785	-0.303
Mof_C 	C 	0.1839	0.3404	0.3611	-0.281
Mof_H 	H 	0.1292	0.3677	0.4052	-0.32
Mof_H 	H 	0.1932	0.3745	0.2463	0.201
Mof_C 	C 	0.2032	0.3431	0.3128	0.297
Mof_H 	H 	0.1987	0.3199	0.385	0.256
Mof_C 	C 	0.2471	0.3131	0.2989	0.109
Mof_N 	N 	0.2734	0.3279	0.2588	-0.082
Mof_O 	O 	0.0679	0.4453	0.394	-38.839
Mof_O 	O 	0.0668	0.4674	0.3205	2.055
Mof_O 	O 	0.9427	0.5719	0.3938	-37.233
Mof_O 	O 	0.9631	0.5682	0.3202	1.239
Mof_C 	C 	0.9259	0.5697	0.3505	0.195
Mof_C 	C 	0.881	0.6016	0.3383	0.071
Mof_C 	C 	0.8622	0.6006	0.2905	-0.36
Mof_C 	C 	0.858	0.6311	0.3728	-0.376
Mof_H 	H 	0.8782	0.5818	0.266	0.189
Mof_C 	C 	0.8198	0.6275	0.2785	0.117
Mof_C 	C 	0.8161	0.6596	0.3611	0.081
Mof_H 	H 	0.8708	0.6323	0.4052	0.364
Mof_H 	H 	0.8068	0.6255	0.2463	-0.01
Mof_C 	C 	0.7968	0.6569	0.3128	-0.181
Mof_H 	H 	0.8013	0.6801	0.385	-0.078
Mof_C 	C 	0.7529	0.6869	0.2989	0.138
Mof_N 	N 	0.7266	0.6721	0.2588	-0.148
Mof_O 	O 	0.9321	0.5547	0.394	35.495
Mof_O 	O 	0.9332	0.5326	0.3205	-2.339
Mof_O 	O 	0.9427	0.4281	0.6062	-37.126
Mof_O 	O 	0.9631	0.4318	0.6798	1.202
Mof_C 	C 	0.9259	0.4303	0.6495	0.231
Mof_C 	C 	0.881	0.3984	0.6617	0.007
Mof_C 	C 	0.8622	0.3994	0.7095	-0.303
Mof_C 	C 	0.858	0.3689	0.6272	-0.316
Mof_H 	H 	0.8782	0.4182	0.734	0.106
Mof_C 	C 	0.8198	0.3725	0.7215	0.038
Mof_C 	C 	0.8161	0.3404	0.6389	0.02
Mof_H 	H 	0.8708	0.3677	0.5948	0.357
Mof_H 	H 	0.8068	0.3745	0.7537	-0.014
Mof_C 	C 	0.7968	0.3431	0.6872	-0.137
Mof_H 	H 	0.8013	0.3199	0.615	-0.007
Mof_C 	C 	0.7529	0.3131	0.7011	0.119
Mof_N 	N 	0.7266	0.3279	0.7412	-0.179
Mof_O 	O 	0.9321	0.4453	0.606	35.382
Mof_O 	O 	0.9332	0.4674	0.6795	-2.372
Mof_O 	O 	0.0573	0.5719	0.6062	40.123
Mof_O 	O 	0.0369	0.5682	0.6798	-1.91
Mof_C 	C 	0.0741	0.5697	0.6495	0.629
Mof_C 	C 	0.119	0.6016	0.6617	-0.31
Mof_C 	C 	0.1378	0.6006	0.7095	0.489
Mof_C 	C 	0.142	0.6311	0.6272	0.485
Mof_H 	H 	0.1218	0.5818	0.734	-0.127
Mof_C 	C 	0.1802	0.6275	0.7215	-0.348
Mof_C 	C 	0.1839	0.6596	0.6389	-0.302
Mof_H 	H 	0.1292	0.6323	0.5948	-0.347
Mof_H 	H 	0.1932	0.6255	0.7537	0.172
Mof_C 	C 	0.2032	0.6569	0.6872	0.274
Mof_H 	H 	0.1987	0.6801	0.615	0.19
Mof_C 	C 	0.2471	0.6869	0.7011	0.047
Mof_N 	N 	0.2734	0.6721	0.7412	-0.127
Mof_O 	O 	0.0679	0.5547	0.606	-39.117
Mof_O 	O 	0.0668	0.5326	0.6795	2.029
Mof_O 	O 	0.3938	0.0573	0.4281	39.865
Mof_O 	O 	0.3202	0.0369	0.4318	-1.865
Mof_C 	C 	0.3505	0.0741	0.4303	0.603
Mof_C 	C 	0.3383	0.119	0.3984	-0.268
Mof_C 	C 	0.2905	0.1378	0.3994	0.466
Mof_C 	C 	0.3728	0.142	0.3689	0.485
Mof_H 	H 	0.266	0.1218	0.4182	-0.046
Mof_C 	C 	0.2785	0.1802	0.3725	-0.304
Mof_C 	C 	0.3611	0.1839	0.3404	-0.282
Mof_H 	H 	0.4052	0.1292	0.3677	-0.321
Mof_H 	H 	0.2463	0.1932	0.3745	0.2
Mof_C 	C 	0.3128	0.2032	0.3431	0.296
Mof_H 	H 	0.385	0.1987	0.3199	0.256
Mof_C 	C 	0.2989	0.2471	0.3131	0.109
Mof_N 	N 	0.2588	0.2734	0.3279	-0.082
Mof_O 	O 	0.394	0.0679	0.4453	-38.839
Mof_O 	O 	0.3205	0.0668	0.4674	2.055
Mof_O 	O 	0.3938	0.9427	0.5719	-37.233
Mof_O 	O 	0.3202	0.9631	0.5682	1.239
Mof_C 	C 	0.3505	0.9259	0.5697	0.195
Mof_C 	C 	0.3383	0.881	0.6016	0.071
Mof_C 	C 	0.2905	0.8622	0.6006	-0.36
Mof_C 	C 	0.3728	0.858	0.6311	-0.376
Mof_H 	H 	0.266	0.8782	0.5818	0.189
Mof_C 	C 	0.2785	0.8198	0.6275	0.117
Mof_C 	C 	0.3611	0.8161	0.6596	0.081
Mof_H 	H 	0.4052	0.8708	0.6323	0.364
Mof_H 	H 	0.2463	0.8068	0.6255	-0.01
Mof_C 	C 	0.3128	0.7968	0.6569	-0.181
Mof_H 	H 	0.385	0.8013	0.6801	-0.078
Mof_C 	C 	0.2989	0.7529	0.6869	0.138
Mof_N 	N 	0.2588	0.7266	0.6721	-0.148
Mof_O 	O 	0.394	0.9321	0.5547	35.495
Mof_O 	O 	0.3205	0.9332	0.5326	-2.339
Mof_O 	O 	0.6062	0.9427	0.4281	-37.126
Mof_O 	O 	0.6798	0.9631	0.4318	1.202
Mof_C 	C 	0.6495	0.9259	0.4303	0.231
Mof_C 	C 	0.6617	0.881	0.3984	0.007
Mof_C 	C 	0.7095	0.8622	0.3994	-0.303
Mof_C 	C 	0.6272	0.858	0.3689	-0.316
Mof_H 	H 	0.734	0.8782	0.4182	0.106
Mof_C 	C 	0.7215	0.8198	0.3725	0.038
Mof_C 	C 	0.6389	0.8161	0.3404	0.02
Mof_H 	H 	0.5948	0.8708	0.3677	0.357
Mof_H 	H 	0.7537	0.8068	0.3745	-0.014
Mof_C 	C 	0.6872	0.7968	0.3431	-0.137
Mof_H 	H 	0.615	0.8013	0.3199	-0.007
Mof_C 	C 	0.7011	0.7529	0.3131	0.119
Mof_N 	N 	0.7412	0.7266	0.3279	-0.179
Mof_O 	O 	0.606	0.9321	0.4453	35.382
Mof_O 	O 	0.6795	0.9332	0.4674	-2.372
Mof_O 	O 	0.6062	0.0573	0.5719	40.123
Mof_O 	O 	0.6798	0.0369	0.5682	-1.91
Mof_C 	C 	0.6495	0.0741	0.5697	0.629
Mof_C 	C 	0.6617	0.119	0.6016	-0.31
Mof_C 	C 	0.7095	0.1378	0.6006	0.489
Mof_C 	C 	0.6272	0.142	0.6311	0.485
Mof_H 	H 	0.734	0.1218	0.5818	-0.127
Mof_C 	C 	0.7215	0.1802	0.6275	-0.348
Mof_C 	C 	0.6389	0.1839	0.6596	-0.302
Mof_H 	H 	0.5948	0.1292	0.6323	-0.347
Mof_H 	H 	0.7537	0.1932	0.6255	0.172
Mof_C 	C 	0.6872	0.2032	0.6569	0.274
Mof_H 	H 	0.615	0.1987	0.6801	0.19
Mof_C 	C 	0.7011	0.2471	0.6869	0.047
Mof_N 	N 	0.7412	0.2734	0.6721	-0.127
Mof_O 	O 	0.606	0.0679	0.5547	-39.117
Mof_O 	O 	0.6795	0.0668	0.5326	2.029
Mof_O 	O 	0.4281	0.3938	0.0573	39.865
Mof_O 	O 	0.4318	0.3202	0.0369	-1.865
Mof_C 	C 	0.4303	0.3505	0.0741	0.603
Mof_C 	C 	0.3984	0.3383	0.119	-0.268
Mof_C 	C 	0.3994	0.2905	0.1378	0.466
Mof_C 	C 	0.3689	0.3728	0.142	0.485
Mof_H 	H 	0.4182	0.266	0.1218	-0.046
Mof_C 	C 	0.3725	0.2785	0.1802	-0.304
Mof_C 	C 	0.3404	0.3611	0.1839	-0.282
Mof_H 	H 	0.3677	0.4052	0.1292	-0.321
Mof_H 	H 	0.3745	0.2463	0.1932	0.2
Mof_C 	C 	0.3431	0.3128	0.2032	0.296
Mof_H 	H 	0.3199	0.385	0.1987	0.256
Mof_C 	C 	0.3131	0.2989	0.2471	0.109
Mof_N 	N 	0.3279	0.2588	0.2734	-0.082
Mof_O 	O 	0.4453	0.394	0.0679	-38.839
Mof_O 	O 	0.4674	0.3205	0.0668	2.055
Mof_O 	O 	0.5719	0.3938	0.9427	-37.233
Mof_O 	O 	0.5682	0.3202	0.9631	1.239
Mof_C 	C 	0.5697	0.3505	0.9259	0.195
Mof_C 	C 	0.6016	0.3383	0.881	0.071
Mof_C 	C 	0.6006	0.2905	0.8622	-0.36
Mof_C 	C 	0.6311	0.3728	0.858	-0.376
Mof_H 	H 	0.5818	0.266	0.8782	0.189
Mof_C 	C 	0.6275	0.2785	0.8198	0.117
Mof_C 	C 	0.6596	0.3611	0.8161	0.081
Mof_H 	H 	0.6323	0.4052	0.8708	0.364
Mof_H 	H 	0.6255	0.2463	0.8068	-0.01
Mof_C 	C 	0.6569	0.3128	0.7968	-0.181
Mof_H 	H 	0.6801	0.385	0.8013	-0.078
Mof_C 	C 	0.6869	0.2989	0.7529	0.138
Mof_N 	N 	0.6721	0.2588	0.7266	-0.148
Mof_O 	O 	0.5547	0.394	0.9321	35.495
Mof_O 	O 	0.5326	0.3205	0.9332	-2.339
Mof_O 	O 	0.4281	0.6062	0.9427	-37.126
Mof_O 	O 	0.4318	0.6798	0.9631	1.202
Mof_C 	C 	0.4303	0.6495	0.9259	0.231
Mof_C 	C 	0.3984	0.6617	0.881	0.007
Mof_C 	C 	0.3994	0.7095	0.8622	-0.303
Mof_C 	C 	0.3689	0.6272	0.858	-0.316
Mof_H 	H 	0.4182	0.734	0.8782	0.106
Mof_C 	C 	0.3725	0.7215	0.8198	0.038
Mof_C 	C 	0.3404	0.6389	0.8161	0.02
Mof_H 	H 	0.3677	0.5948	0.8708	0.357
Mof_H 	H 	0.3745	0.7537	0.8068	-0.014
Mof_C 	C 	0.3431	0.6872	0.7968	-0.137
Mof_H 	H 	0.3199	0.615	0.8013	-0.007
Mof_C 	C 	0.3131	0.7011	0.7529	0.119
Mof_N 	N 	0.3279	0.7412	0.7266	-0.179
Mof_O 	O 	0.4453	0.606	0.9321	35.382
Mof_O 	O 	0.4674	0.6795	0.9332	-2.372
Mof_O 	O 	0.5719	0.6062	0.0573	40.123
Mof_O 	O 	0.5682	0.6798	0.0369	-1.91
Mof_C 	C 	0.5697	0.6495	0.0741	0.629
Mof_C 	C 	0.6016	0.6617	0.119	-0.31
Mof_C 	C 	0.6006	0.7095	0.1378	0.489
Mof_C 	C 	0.6311	0.6272	0.142	0.485
Mof_H 	H 	0.5818	0.734	0.1218	-0.127
Mof_C 	C 	0.6275	0.7215	0.1802	-0.348
Mof_C 	C 	0.6596	0.6389	0.1839	-0.302
Mof_H 	H 	0.6323	0.5948	0.1292	-0.347
Mof_H 	H 	0.6255	0.7537	0.1932	0.172
Mof_C 	C 	0.6569	0.6872	0.2032	0.274
Mof_H 	H 	0.6801	0.615	0.1987	0.19
Mof_C 	C 	0.6869	0.7011	0.2471	0.047
Mof_N 	N 	0.6721	0.7412	0.2734	-0.127
Mof_O 	O 	0.5547	0.606	0.0679	-39.117
Mof_O 	O 	0.5326	0.6795	0.0668	2.029
Mof_O 	O 	0.9427	0.5719	0.6062	-37.053
Mof_O 	O 	0.9631	0.5682	0.6798	1.198
Mof_C 	C 	0.9259	0.5697	0.6495	0.226
Mof_C 	C 	0.881	0.6016	0.6617	0.018
Mof_C 	C 	0.8622	0.6006	0.7095	-0.32
Mof_C 	C 	0.858	0.6311	0.6272	-0.346
Mof_H 	H 	0.8782	0.5818	0.734	0.107
Mof_C 	C 	0.8198	0.6275	0.7215	0.055
Mof_C 	C 	0.8161	0.6596	0.6389	0.04
Mof_H 	H 	0.8708	0.6323	0.5948	0.348
Mof_H 	H 	0.8068	0.6255	0.7537	-0.026
Mof_C 	C 	0.7968	0.6569	0.6872	-0.17
Mof_H 	H 	0.8013	0.6801	0.615	-0.076
Mof_C 	C 	0.7529	0.6869	0.7011	0.097
Mof_N 	N 	0.7266	0.6721	0.7412	-0.186
Mof_O 	O 	0.9321	0.5547	0.606	35.301
Mof_O 	O 	0.9332	0.5326	0.6795	-2.369
Mof_O 	O 	0.0573	0.4281	0.6062	40.049
Mof_O 	O 	0.0369	0.4318	0.6798	-1.906
Mof_C 	C 	0.0741	0.4303	0.6495	0.634
Mof_C 	C 	0.119	0.3984	0.6617	-0.321
Mof_C 	C 	0.1378	0.3994	0.7095	0.506
Mof_C 	C 	0.142	0.3689	0.6272	0.515
Mof_H 	H 	0.1218	0.4182	0.734	-0.128
Mof_C 	C 	0.1802	0.3725	0.7215	-0.365
Mof_C 	C 	0.1839	0.3404	0.6389	-0.323
Mof_H 	H 	0.1292	0.3677	0.5948	-0.337
Mof_H 	H 	0.1932	0.3745	0.7537	0.184
Mof_C 	C 	0.2032	0.3431	0.6872	0.307
Mof_H 	H 	0.1987	0.3199	0.615	0.259
Mof_C 	C 	0.2471	0.3131	0.7011	0.068
Mof_N 	N 	0.2734	0.3279	0.7412	-0.121
Mof_O 	O 	0.0679	0.4453	0.606	-39.036
Mof_O 	O 	0.0668	0.4674	0.6795	2.026
Mof_O 	O 	0.0573	0.5719	0.3938	39.939
Mof_O 	O 	0.0369	0.5682	0.3202	-1.869
Mof_C 	C 	0.0741	0.5697	0.3505	0.599
Mof_C 	C 	0.119	0.6016	0.3383	-0.257
Mof_C 	C 	0.1378	0.6006	0.2905	0.449
Mof_C 	C 	0.142	0.6311	0.3728	0.455
Mof_H 	H 	0.1218	0.5818	0.266	-0.045
Mof_C 	C 	0.1802	0.6275	0.2785	-0.286
Mof_C 	C 	0.1839	0.6596	0.3611	-0.261
Mof_H 	H 	0.1292	0.6323	0.4052	-0.331
Mof_H 	H 	0.1932	0.6255	0.2463	0.188
Mof_C 	C 	0.2032	0.6569	0.3128	0.263
Mof_H 	H 	0.1987	0.6801	0.385	0.188
Mof_C 	C 	0.2471	0.6869	0.2989	0.087
Mof_N 	N 	0.2734	0.6721	0.2588	-0.089
Mof_O 	O 	0.0679	0.5547	0.394	-38.92
Mof_O 	O 	0.0668	0.5326	0.3205	2.059
Mof_O 	O 	0.9427	0.4281	0.3938	-37.307
Mof_O 	O 	0.9631	0.4318	0.3202	1.242
Mof_C 	C 	0.9259	0.4303	0.3505	0.2
Mof_C 	C 	0.881	0.3984	0.3383	0.06
Mof_C 	C 	0.8622	0.3994	0.2905	-0.343
Mof_C 	C 	0.858	0.3689	0.3728	-0.346
Mof_H 	H 	0.8782	0.4182	0.266	0.188
Mof_C 	C 	0.8198	0.3725	0.2785	0.1
Mof_C 	C 	0.8161	0.3404	0.3611	0.061
Mof_H 	H 	0.8708	0.3677	0.4052	0.374
Mof_H 	H 	0.8068	0.3745	0.2463	0.002
Mof_C 	C 	0.7968	0.3431	0.3128	-0.148
Mof_H 	H 	0.8013	0.3199	0.385	-0.01
Mof_C 	C 	0.7529	0.3131	0.2989	0.159
Mof_N 	N 	0.7266	0.3279	0.2588	-0.141
Mof_O 	O 	0.9321	0.4453	0.394	35.576
Mof_O 	O 	0.9332	0.4674	0.3205	-2.342
Mof_O 	O 	0.6062	0.9427	0.5719	-37.053
Mof_O 	O 	0.6798	0.9631	0.5682	1.198
Mof_C 	C 	0.6495	0.9259	0.5697	0.226
Mof_C 	C 	0.6617	0.881	0.6016	0.018
Mof_C 	C 	0.7095	0.8622	0.6006	-0.32
Mof_C 	C 	0.6272	0.858	0.6311	-0.346
Mof_H 	H 	0.734	0.8782	0.5818	0.107
Mof_C 	C 	0.7215	0.8198	0.6275	0.055
Mof_C 	C 	0.6389	0.8161	0.6596	0.04
Mof_H 	H 	0.5948	0.8708	0.6323	0.348
Mof_H 	H 	0.7537	0.8068	0.6255	-0.026
Mof_C 	C 	0.6872	0.7968	0.6569	-0.17
Mof_H 	H 	0.615	0.8013	0.6801	-0.076
Mof_C 	C 	0.7011	0.7529	0.6869	0.097
Mof_N 	N 	0.7412	0.7266	0.6721	-0.186
Mof_O 	O 	0.606	0.9321	0.5547	35.301
Mof_O 	O 	0.6795	0.9332	0.5326	-2.369
Mof_O 	O 	0.6062	0.0573	0.4281	40.049
Mof_O 	O 	0.6798	0.0369	0.4318	-1.906
Mof_C 	C 	0.6495	0.0741	0.4303	0.634
Mof_C 	C 	0.6617	0.119	0.3984	-0.321
Mof_C 	C 	0.7095	0.1378	0.3994	0.506
Mof_C 	C 	0.6272	0.142	0.3689	0.515
Mof_H 	H 	0.734	0.1218	0.4182	-0.128
Mof_C 	C 	0.7215	0.1802	0.3725	-0.365
Mof_C 	C 	0.6389	0.1839	0.3404	-0.323
Mof_H 	H 	0.5948	0.1292	0.3677	-0.337
Mof_H 	H 	0.7537	0.1932	0.3745	0.184
Mof_C 	C 	0.6872	0.2032	0.3431	0.307
Mof_H 	H 	0.615	0.1987	0.3199	0.259
Mof_C 	C 	0.7011	0.2471	0.3131	0.068
Mof_N 	N 	0.7412	0.2734	0.3279	-0.121
Mof_O 	O 	0.606	0.0679	0.4453	-39.036
Mof_O 	O 	0.6795	0.0668	0.4674	2.026
Mof_O 	O 	0.3938	0.0573	0.5719	39.939
Mof_O 	O 	0.3202	0.0369	0.5682	-1.869
Mof_C 	C 	0.3505	0.0741	0.5697	0.599
Mof_C 	C 	0.3383	0.119	0.6016	-0.257
Mof_C 	C 	0.2905	0.1378	0.6006	0.449
Mof_C 	C 	0.3728	0.142	0.6311	0.455
Mof_H 	H 	0.266	0.1218	0.5818	-0.045
Mof_C 	C 	0.2785	0.1802	0.6275	-0.286
Mof_C 	C 	0.3611	0.1839	0.6596	-0.261
Mof_H 	H 	0.4052	0.1292	0.6323	-0.331
Mof_H 	H 	0.2463	0.1932	0.6255	0.188
Mof_C 	C 	0.3128	0.2032	0.6569	0.263
Mof_H 	H 	0.385	0.1987	0.6801	0.188
Mof_C 	C 	0.2989	0.2471	0.6869	0.087
Mof_N 	N 	0.2588	0.2734	0.6721	-0.089
Mof_O 	O 	0.394	0.0679	0.5547	-38.92
Mof_O 	O 	0.3205	0.0668	0.5326	2.059
Mof_O 	O 	0.3938	0.9427	0.4281	-37.307
Mof_O 	O 	0.3202	0.9631	0.4318	1.242
Mof_C 	C 	0.3505	0.9259	0.4303	0.2
Mof_C 	C 	0.3383	0.881	0.3984	0.06
Mof_C 	C 	0.2905	0.8622	0.3994	-0.343
Mof_C 	C 	0.3728	0.858	0.3689	-0.346
Mof_H 	H 	0.266	0.8782	0.4182	0.188
Mof_C 	C 	0.2785	0.8198	0.3725	0.1
Mof_C 	C 	0.3611	0.8161	0.3404	0.061
Mof_H 	H 	0.4052	0.8708	0.3677	0.374
Mof_H 	H 	0.2463	0.8068	0.3745	0.002
Mof_C 	C 	0.3128	0.7968	0.3431	-0.148
Mof_H 	H 	0.385	0.8013	0.3199	-0.01
Mof_C 	C 	0.2989	0.7529	0.3131	0.159
Mof_N 	N 	0.2588	0.7266	0.3279	-0.141
Mof_O 	O 	0.394	0.9321	0.4453	35.576
Mof_O 	O 	0.3205	0.9332	0.4674	-2.342
Mof_O 	O 	0.5719	0.6062	0.9427	-37.053
Mof_O 	O 	0.5682	0.6798	0.9631	1.198
Mof_C 	C 	0.5697	0.6495	0.9259	0.226
Mof_C 	C 	0.6016	0.6617	0.881	0.018
Mof_C 	C 	0.6006	0.7095	0.8622	-0.32
Mof_C 	C 	0.6311	0.6272	0.858	-0.346
Mof_H 	H 	0.5818	0.734	0.8782	0.107
Mof_C 	C 	0.6275	0.7215	0.8198	0.055
Mof_C 	C 	0.6596	0.6389	0.8161	0.04
Mof_H 	H 	0.6323	0.5948	0.8708	0.348
Mof_H 	H 	0.6255	0.7537	0.8068	-0.026
Mof_C 	C 	0.6569	0.6872	0.7968	-0.17
Mof_H 	H 	0.6801	0.615	0.8013	-0.076
Mof_C 	C 	0.6869	0.7011	0.7529	0.097
Mof_N 	N 	0.6721	0.7412	0.7266	-0.186
Mof_O 	O 	0.5547	0.606	0.9321	35.301
Mof_O 	O 	0.5326	0.6795	0.9332	-2.369
Mof_O 	O 	0.4281	0.6062	0.0573	40.049
Mof_O 	O 	0.4318	0.6798	0.0369	-1.906
Mof_C 	C 	0.4303	0.6495	0.0741	0.634
Mof_C 	C 	0.3984	0.6617	0.119	-0.321
Mof_C 	C 	0.3994	0.7095	0.1378	0.506
Mof_C 	C 	0.3689	0.6272	0.142	0.515
Mof_H 	H 	0.4182	0.734	0.1218	-0.128
Mof_C 	C 	0.3725	0.7215	0.1802	-0.365
Mof_C 	C 	0.3404	0.6389	0.1839	-0.323
Mof_H 	H 	0.3677	0.5948	0.1292	-0.337
Mof_H 	H 	0.3745	0.7537	0.1932	0.184
Mof_C 	C 	0.3431	0.6872	0.2032	0.307
Mof_H 	H 	0.3199	0.615	0.1987	0.259
Mof_C 	C 	0.3131	0.7011	0.2471	0.068
Mof_N 	N 	0.3279	0.7412	0.2734	-0.121
Mof_O 	O 	0.4453	0.606	0.0679	-39.036
Mof_O 	O 	0.4674	0.6795	0.0668	2.026
Mof_O 	O 	0.5719	0.3938	0.0573	39.939
Mof_O 	O 	0.5682	0.3202	0.0369	-1.869
Mof_C 	C 	0.5697	0.3505	0.0741	0.599
Mof_C 	C 	0.6016	0.3383	0.119	-0.257
Mof_C 	C 	0.6006	0.2905	0.1378	0.449
Mof_C 	C 	0.6311	0.3728	0.142	0.455
Mof_H 	H 	0.5818	0.266	0.1218	-0.045
Mof_C 	C 	0.6275	0.2785	0.1802	-0.286
Mof_C 	C 	0.6596	0.3611	0.1839	-0.261
Mof_H 	H 	0.6323	0.4052	0.1292	-0.331
Mof_H 	H 	0.6255	0.2463	0.1932	0.188
Mof_C 	C 	0.6569	0.3128	0.2032	0.263
Mof_H 	H 	0.6801	0.385	0.1987	0.188
Mof_C 	C 	0.6869	0.2989	0.2471	0.087
Mof_N 	N 	0.6721	0.2588	0.2734	-0.089
Mof_O 	O 	0.5547	0.394	0.0679	-38.92
Mof_O 	O 	0.5326	0.3205	0.0668	2.059
Mof_O 	O 	0.4281	0.3938	0.9427	-37.307
Mof_O 	O 	0.4318	0.3202	0.9631	1.242
Mof_C 	C 	0.4303	0.3505	0.9259	0.2
Mof_C 	C 	0.3984	0.3383	0.881	0.06
Mof_C 	C 	0.3994	0.2905	0.8622	-0.343
Mof_C 	C 	0.3689	0.3728	0.858	-0.346
Mof_H 	H 	0.4182	0.266	0.8782	0.188
Mof_C 	C 	0.3725	0.2785	0.8198	0.1
Mof_C 	C 	0.3404	0.3611	0.8161	0.061
Mof_H 	H 	0.3677	0.4052	0.8708	0.374
Mof_H 	H 	0.3745	0.2463	0.8068	0.002
Mof_C 	C 	0.3431	0.3128	0.7968	-0.148
Mof_H 	H 	0.3199	0.385	0.8013	-0.01
Mof_C 	C 	0.3131	0.2989	0.7529	0.159
Mof_N 	N 	0.3279	0.2588	0.7266	-0.141
Mof_O 	O 	0.4453	0.394	0.9321	35.576
Mof_O 	O 	0.4674	0.3205	0.9332	-2.342
Mof_Tb	Tb	1.39841e-33	0.5	0.37297	1.982
Mof_O 	O 	1.7161e-33	0.5	0.4577	-0.94
Mof_Tb	Tb	-2.9382e-33	0.5	0.62703	2.025
Mof_O 	O 	-3.25589e-33	0.5	0.5423	-0.94
Mof_Tb	Tb	0.37297	0	0.5	1.982
Mof_O 	O 	0.4577	0	0.5	-0.94
Mof_Tb	Tb	0.62703	0	0.5	2.025
Mof_O 	O 	0.5423	0	0.5	-0.94
Mof_Tb	Tb	0.5	0.37297	-0	1.982
Mof_O 	O 	0.5	0.4577	-0	-0.94
Mof_Tb	Tb	0.5	0.62703	-0	2.025
Mof_O 	O 	0.5	0.5423	-0	-0.94
Mof_C 	C 	0.0175	0.5	0.5	4.069
Mof_C 	C 	0.9825	0.5	0.5	-2.831
Mof_C 	C 	0.5	0.0175	0.5	4.069
Mof_C 	C 	0.5	0.9825	0.5	-2.831
Mof_C 	C 	0.5	0.5	0.0175	4.069
Mof_C 	C 	0.5	0.5	0.9825	-2.831
Mof_O 	O 	0.5573	0.9281	0.8938	6.358
Mof_O 	O 	0.5369	0.9318	0.8202	-0.538
Mof_C 	C 	0.5741	0.9303	0.8505	0.334
Mof_C 	C 	0.619	0.8984	0.8383	-0.086
Mof_C 	C 	0.6378	0.8994	0.7905	0.08
Mof_C 	C 	0.642	0.8689	0.8728	0.09
Mof_H 	H 	0.6218	0.9182	0.766	0.144
Mof_C 	C 	0.6802	0.8725	0.7785	-0.09
Mof_C 	C 	0.6839	0.8404	0.8611	-0.091
Mof_H 	H 	0.6292	0.8677	0.9052	0.019
Mof_H 	H 	0.6932	0.8745	0.7463	0.161
Mof_C 	C 	0.7032	0.8431	0.8128	0.095
Mof_H 	H 	0.6987	0.8199	0.885	0.159
Mof_C 	C 	0.7471	0.8131	0.7989	0.143
Mof_N 	N 	0.7734	0.8279	0.7588	-0.108
Mof_O 	O 	0.5679	0.9453	0.894	-6.658
Mof_O 	O 	0.5668	0.9674	0.8205	0.272
Mof_O 	O 	0.4427	0.0719	0.8938	-4.026
Mof_O 	O 	0.4631	0.0682	0.8202	-0.089
Mof_C 	C 	0.4259	0.0697	0.8505	0.448
Mof_C 	C 	0.381	0.1016	0.8383	-0.097
Mof_C 	C 	0.3622	0.1006	0.7905	0.03
Mof_C 	C 	0.358	0.1311	0.8728	0.023
Mof_H 	H 	0.3782	0.0818	0.766	-0.08
Mof_C 	C 	0.3198	0.1275	0.7785	-0.13
Mof_C 	C 	0.3161	0.1596	0.8611	-0.093
Mof_H 	H 	0.3708	0.1323	0.9052	0.146
Mof_H 	H 	0.3068	0.1255	0.7463	0.006
Mof_C 	C 	0.2968	0.1569	0.8128	0.038
Mof_H 	H 	0.3013	0.1801	0.885	0.116
Mof_C 	C 	0.2529	0.1869	0.7989	0.096
Mof_N 	N 	0.2266	0.1721	0.7588	-0.154
Mof_O 	O 	0.4321	0.0547	0.894	3.766
Mof_O 	O 	0.4332	0.0326	0.8205	-0.586
Mof_O 	O 	0.4427	0.9281	0.1062	4.018
Mof_O 	O 	0.4631	0.9318	0.1798	-0.449
Mof_C 	C 	0.4259	0.9303	0.1495	0.35
Mof_C 	C 	0.381	0.8984	0.1617	-0.129
Mof_C 	C 	0.3622	0.8994	0.2095	0.074
Mof_C 	C 	0.358	0.8689	0.1272	0.069
Mof_H 	H 	0.3782	0.9182	0.234	0.147
Mof_C 	C 	0.3198	0.8725	0.2215	-0.101
Mof_C 	C 	0.3161	0.8404	0.1389	-0.131
Mof_H 	H 	0.3708	0.8677	0.0948	-0.083
Mof_H 	H 	0.3068	0.8745	0.2537	0.156
Mof_C 	C 	0.2968	0.8431	0.1872	0.059
Mof_H 	H 	0.3013	0.8199	0.115	0.039
Mof_C 	C 	0.2529	0.8131	0.2011	0.096
Mof_N 	N 	0.2266	0.8279	0.2412	-0.123
Mof_O 	O 	0.4321	0.9453	0.106	-4.525
Mof_O 	O 	0.4332	0.9674	0.1795	0.127
Mof_O 	O 	0.5573	0.0719	0.1062	-1.396
Mof_O 	O 	0.5369	0.0682	0.1798	-0.179
Mof_C 	C 	0.5741	0.0697	0.1495	0.483
Mof_C 	C 	0.619	0.1016	0.1617	-0.147
Mof_C 	C 	0.6378	0.1006	0.2095	0.078
Mof_C 	C 	0.642	0.1311	0.1272	0.062
Mof_H 	H 	0.6218	0.0818	0.234	-0.089
Mof_C 	C 	0.6802	0.1275	0.2215	-0.154
Mof_C 	C 	0.6839	0.1596	0.1389	-0.139
Mof_H 	H 	0.6292	0.1323	0.0948	0.014
Mof_H 	H 	0.6932	0.1255	0.2537	0.015
Mof_C 	C 	0.7032	0.1569	0.1872	0.043
Mof_H 	H 	0.6987	0.1801	0.115	0.04
Mof_C 	C 	0.7471	0.1869	0.2011	0.083
Mof_N 	N 	0.7734	0.1721	0.2412	-0.153
Mof_O 	O 	0.5679	0.0547	0.106	1.127
Mof_O 	O 	0.5668	0.0326	0.1795	-0.44
Mof_O 	O 	0.8938	0.5573	0.9281	6.358
Mof_O 	O 	0.8202	0.5369	0.9318	-0.538
Mof_C 	C 	0.8505	0.5741	0.9303	0.334
Mof_C 	C 	0.8383	0.619	0.8984	-0.086
Mof_C 	C 	0.7905	0.6378	0.8994	0.08
Mof_C 	C 	0.8728	0.642	0.8689	0.09
Mof_H 	H 	0.766	0.6218	0.9182	0.144
Mof_C 	C 	0.7785	0.6802	0.8725	-0.09
Mof_C 	C 	0.8611	0.6839	0.8404	-0.091
Mof_H 	H 	0.9052	0.6292	0.8677	0.019
Mof_H 	H 	0.7463	0.6932	0.8745	0.161
Mof_C 	C 	0.8128	0.7032	0.8431	0.095
Mof_H 	H 	0.885	0.6987	0.8199	0.159
Mof_C 	C 	0.7989	0.7471	0.8131	0.143
Mof_N 	N 	0.7588	0.7734	0.8279	-0.108
Mof_O 	O 	0.894	0.5679	0.9453	-6.658
Mof_O 	O 	0.8205	0.5668	0.9674	0.272
Mof_O 	O 	0.8938	0.4427	0.0719	-4.026
Mof_O 	O 	0.8202	0.4631	0.0682	-0.089
Mof_C 	C 	0.8505	0.4259	0.0697	0.448
Mof_C 	C 	0.8383	0.381	0.1016	-0.097
Mof_C 	C 	0.7905	0.3622	0.1006	0.03
Mof_C 	C 	0.8728	0.358	0.1311	0.023
Mof_H 	H 	0.766	0.3782	0.0818	-0.08
Mof_C 	C 	0.7785	0.3198	0.1275	-0.13
Mof_C 	C 	0.8611	0.3161	0.1596	-0.093
Mof_H 	H 	0.9052	0.3708	0.1323	0.146
Mof_H 	H 	0.7463	0.3068	0.1255	0.006
Mof_C 	C 	0.8128	0.2968	0.1569	0.038
Mof_H 	H 	0.885	0.3013	0.1801	0.116
Mof_C 	C 	0.7989	0.2529	0.1869	0.096
Mof_N 	N 	0.7588	0.2266	0.1721	-0.154
Mof_O 	O 	0.894	0.4321	0.0547	3.766
Mof_O 	O 	0.8205	0.4332	0.0326	-0.586
Mof_O 	O 	0.1062	0.4427	0.9281	4.018
Mof_O 	O 	0.1798	0.4631	0.9318	-0.449
Mof_C 	C 	0.1495	0.4259	0.9303	0.35
Mof_C 	C 	0.1617	0.381	0.8984	-0.129
Mof_C 	C 	0.2095	0.3622	0.8994	0.074
Mof_C 	C 	0.1272	0.358	0.8689	0.069
Mof_H 	H 	0.234	0.3782	0.9182	0.147
Mof_C 	C 	0.2215	0.3198	0.8725	-0.101
Mof_C 	C 	0.1389	0.3161	0.8404	-0.131
Mof_H 	H 	0.0948	0.3708	0.8677	-0.083
Mof_H 	H 	0.2537	0.3068	0.8745	0.156
Mof_C 	C 	0.1872	0.2968	0.8431	0.059
Mof_H 	H 	0.115	0.3013	0.8199	0.039
Mof_C 	C 	0.2011	0.2529	0.8131	0.096
Mof_N 	N 	0.2412	0.2266	0.8279	-0.123
Mof_O 	O 	0.106	0.4321	0.9453	-4.525
Mof_O 	O 	0.1795	0.4332	0.9674	0.127
Mof_O 	O 	0.1062	0.5573	0.0719	-1.396
Mof_O 	O 	0.1798	0.5369	0.0682	-0.179
Mof_C 	C 	0.1495	0.5741	0.0697	0.483
Mof_C 	C 	0.1617	0.619	0.1016	-0.147
Mof_C 	C 	0.2095	0.6378	0.1006	0.078
Mof_C 	C 	0.1272	0.642	0.1311	0.062
Mof_H 	H 	0.234	0.6218	0.0818	-0.089
Mof_C 	C 	0.2215	0.6802	0.1275	-0.154
Mof_C 	C 	0.1389	0.6839	0.1596	-0.139
Mof_H 	H 	0.0948	0.6292	0.1323	0.014
Mof_H 	H 	0.2537	0.6932	0.1255	0.015
Mof_C 	C 	0.1872	0.7032	0.1569	0.043
Mof_H 	H 	0.115	0.6987	0.1801	0.04
Mof_C 	C 	0.2011	0.7471	0.1869	0.083
Mof_N 	N 	0.2412	0.7734	0.1721	-0.153
Mof_O 	O 	0.106	0.5679	0.0547	1.127
Mof_O 	O 	0.1795	0.5668	0.0326	-0.44
Mof_O 	O 	0.9281	0.8938	0.5573	6.358
Mof_O 	O 	0.9318	0.8202	0.5369	-0.538
Mof_C 	C 	0.9303	0.8505	0.5741	0.334
Mof_C 	C 	0.8984	0.8383	0.619	-0.086
Mof_C 	C 	0.8994	0.7905	0.6378	0.08
Mof_C 	C 	0.8689	0.8728	0.642	0.09
Mof_H 	H 	0.9182	0.766	0.6218	0.144
Mof_C 	C 	0.8725	0.7785	0.6802	-0.09
Mof_C 	C 	0.8404	0.8611	0.6839	-0.091
Mof_H 	H 	0.8677	0.9052	0.6292	0.019
Mof_H 	H 	0.8745	0.7463	0.6932	0.161
Mof_C 	C 	0.8431	0.8128	0.7032	0.095
Mof_H 	H 	0.8199	0.885	0.6987	0.159
Mof_C 	C 	0.8131	0.7989	0.7471	0.143
Mof_N 	N 	0.8279	0.7588	0.7734	-0.108
Mof_O 	O 	0.9453	0.894	0.5679	-6.658
Mof_O 	O 	0.9674	0.8205	0.5668	0.272
Mof_O 	O 	0.0719	0.8938	0.4427	-4.026
Mof_O 	O 	0.0682	0.8202	0.4631	-0.089
Mof_C 	C 	0.0697	0.8505	0.4259	0.448
Mof_C 	C 	0.1016	0.8383	0.381	-0.097
Mof_C 	C 	0.1006	0.7905	0.3622	0.03
Mof_C 	C 	0.1311	0.8728	0.358	0.023
Mof_H 	H 	0.0818	0.766	0.3782	-0.08
Mof_C 	C 	0.1275	0.7785	0.3198	-0.13
Mof_C 	C 	0.1596	0.8611	0.3161	-0.093
Mof_H 	H 	0.1323	0.9052	0.3708	0.146
Mof_H 	H 	0.1255	0.7463	0.3068	0.006
Mof_C 	C 	0.1569	0.8128	0.2968	0.038
Mof_H 	H 	0.1801	0.885	0.3013	0.116
Mof_C 	C 	0.1869	0.7989	0.2529	0.096
Mof_N 	N 	0.1721	0.7588	0.2266	-0.154
Mof_O 	O 	0.0547	0.894	0.4321	3.766
Mof_O 	O 	0.0326	0.8205	0.4332	-0.586
Mof_O 	O 	0.9281	0.1062	0.4427	4.018
Mof_O 	O 	0.9318	0.1798	0.4631	-0.449
Mof_C 	C 	0.9303	0.1495	0.4259	0.35
Mof_C 	C 	0.8984	0.1617	0.381	-0.129
Mof_C 	C 	0.8994	0.2095	0.3622	0.074
Mof_C 	C 	0.8689	0.1272	0.358	0.069
Mof_H 	H 	0.9182	0.234	0.3782	0.147
Mof_C 	C 	0.8725	0.2215	0.3198	-0.101
Mof_C 	C 	0.8404	0.1389	0.3161	-0.131
Mof_H 	H 	0.8677	0.0948	0.3708	-0.083
Mof_H 	H 	0.8745	0.2537	0.3068	0.156
Mof_C 	C 	0.8431	0.1872	0.2968	0.059
Mof_H 	H 	0.8199	0.115	0.3013	0.039
Mof_C 	C 	0.8131	0.2011	0.2529	0.096
Mof_N 	N 	0.8279	0.2412	0.2266	-0.123
Mof_O 	O 	0.9453	0.106	0.4321	-4.525
Mof_O 	O 	0.9674	0.1795	0.4332	0.127
Mof_O 	O 	0.0719	0.1062	0.5573	-1.396
Mof_O 	O 	0.0682	0.1798	0.5369	-0.179
Mof_C 	C 	0.0697	0.1495	0.5741	0.483
Mof_C 	C 	0.1016	0.1617	0.619	-0.147
Mof_C 	C 	0.1006	0.2095	0.6378	0.078
Mof_C 	C 	0.1311	0.1272	0.642	0.062
Mof_H 	H 	0.0818	0.234	0.6218	-0.089
Mof_C 	C 	0.1275	0.2215	0.6802	-0.154
Mof_C 	C 	0.1596	0.1389	0.6839	-0.139
Mof_H 	H 	0.1323	0.0948	0.6292	0.014
Mof_H 	H 	0.1255	0.2537	0.6932	0.015
Mof_C 	C 	0.1569	0.1872	0.7032	0.043
Mof_H 	H 	0.1801	0.115	0.6987	0.04
Mof_C 	C 	0.1869	0.2011	0.7471	0.083
Mof_N 	N 	0.1721	0.2412	0.7734	-0.153
Mof_O 	O 	0.0547	0.106	0.5679	1.127
Mof_O 	O 	0.0326	0.1795	0.5668	-0.44
Mof_O 	O 	0.4427	0.0719	0.1062	-3.878
Mof_O 	O 	0.4631	0.0682	0.1798	-0.09
Mof_C 	C 	0.4259	0.0697	0.1495	0.474
Mof_C 	C 	0.381	0.1016	0.1617	-0.144
Mof_C 	C 	0.3622	0.1006	0.2095	0.051
Mof_C 	C 	0.358	0.1311	0.1272	0.032
Mof_H 	H 	0.3782	0.0818	0.234	-0.083
Mof_C 	C 	0.3198	0.1275	0.2215	-0.147
Mof_C 	C 	0.3161	0.1596	0.1389	-0.136
Mof_H 	H 	0.3708	0.1323	0.0948	0.029
Mof_H 	H 	0.3068	0.1255	0.2537	0.008
Mof_C 	C 	0.2968	0.1569	0.1872	0.022
Mof_H 	H 	0.3013	0.1801	0.115	0.018
Mof_C 	C 	0.2529	0.1869	0.2011	0.066
Mof_N 	N 	0.2266	0.1721	0.2412	-0.161
Mof_O 	O 	0.4321	0.0547	0.106	3.511
Mof_O 	O 	0.4332	0.0326	0.1795	-0.585
Mof_O 	O 	0.5573	0.9281	0.1062	6.501
Mof_O 	O 	0.5369	0.9318	0.1798	-0.538
Mof_C 	C 	0.5741	0.9303	0.1495	0.36
Mof_C 	C 	0.619	0.8984	0.1617	-0.132
Mof_C 	C 	0.6378	0.8994	0.2095	0.101
Mof_C 	C 	0.642	0.8689	0.1272	0.099
Mof_H 	H 	0.6218	0.9182	0.234	0.141
Mof_C 	C 	0.6802	0.8725	0.2215	-0.107
Mof_C 	C 	0.6839	0.8404	0.1389	-0.134
Mof_H 	H 	0.6292	0.8677	0.0948	-0.098
Mof_H 	H 	0.6932	0.8745	0.2537	0.163
Mof_C 	C 	0.7032	0.8431	0.1872	0.08
Mof_H 	H 	0.6987	0.8199	0.115	0.061
Mof_C 	C 	0.7471	0.8131	0.2011	0.113
Mof_N 	N 	0.7734	0.8279	0.2412	-0.115
Mof_O 	O 	0.5679	0.9453	0.106	-6.909
Mof_O 	O 	0.5668	0.9674	0.1795	0.272
Mof_O 	O 	0.5573	0.0719	0.8938	-1.542
Mof_O 	O 	0.5369	0.0682	0.8202	-0.179
Mof_C 	C 	0.5741	0.0697	0.8505	0.458
Mof_C 	C 	0.619	0.1016	0.8383	-0.1
Mof_C 	C 	0.6378	0.1006	0.7905	0.057
Mof_C 	C 	0.642	0.1311	0.8728	0.053
Mof_H 	H 	0.6218	0.0818	0.766	-0.086
Mof_C 	C 	0.6802	0.1275	0.7785	-0.136
Mof_C 	C 	0.6839	0.1596	0.8611	-0.096
Mof_H 	H 	0.6292	0.1323	0.9052	0.131
Mof_H 	H 	0.6932	0.1255	0.7463	0.013
Mof_C 	C 	0.7032	0.1569	0.8128	0.059
Mof_H 	H 	0.6987	0.1801	0.885	0.138
Mof_C 	C 	0.7471	0.1869	0.7989	0.113
Mof_N 	N 	0.7734	0.1721	0.7588	-0.146
Mof_O 	O 	0.5679	0.0547	0.894	1.381
Mof_O 	O 	0.5668	0.0326	0.8205	-0.441
Mof_O 	O 	0.4427	0.9281	0.8938	3.874
Mof_O 	O 	0.4631	0.9318	0.8202	-0.448
Mof_C 	C 	0.4259	0.9303	0.8505	0.325
Mof_C 	C 	0.381	0.8984	0.8383	-0.083
Mof_C 	C 	0.3622	0.8994	0.7905	0.053
Mof_C 	C 	0.358	0.8689	0.8728	0.06
Mof_H 	H 	0.3782	0.9182	0.766	0.15
Mof_C 	C 	0.3198	0.8725	0.7785	-0.083
Mof_C 	C 	0.3161	0.8404	0.8611	-0.088
Mof_H 	H 	0.3708	0.8677	0.9052	0.034
Mof_H 	H 	0.3068	0.8745	0.7463	0.154
Mof_C 	C 	0.2968	0.8431	0.8128	0.074
Mof_H 	H 	0.3013	0.8199	0.885	0.137
Mof_C 	C 	0.2529	0.8131	0.7989	0.127
Mof_N 	N 	0.2266	0.8279	0.7588	-0.116
Mof_O 	O 	0.4321	0.9453	0.894	-4.273
Mof_O 	O 	0.4332	0.9674	0.8205	0.127
Mof_O 	O 	0.1062	0.4427	0.0719	-3.878
Mof_O 	O 	0.1798	0.4631	0.0682	-0.09
Mof_C 	C 	0.1495	0.4259	0.0697	0.474
Mof_C 	C 	0.1617	0.381	0.1016	-0.144
Mof_C 	C 	0.2095	0.3622	0.1006	0.051
Mof_C 	C 	0.1272	0.358	0.1311	0.032
Mof_H 	H 	0.234	0.3782	0.0818	-0.083
Mof_C 	C 	0.2215	0.3198	0.1275	-0.147
Mof_C 	C 	0.1389	0.3161	0.1596	-0.136
Mof_H 	H 	0.0948	0.3708	0.1323	0.029
Mof_H 	H 	0.2537	0.3068	0.1255	0.008
Mof_C 	C 	0.1872	0.2968	0.1569	0.022
Mof_H 	H 	0.115	0.3013	0.1801	0.018
Mof_C 	C 	0.2011	0.2529	0.1869	0.066
Mof_N 	N 	0.2412	0.2266	0.1721	-0.161
Mof_O 	O 	0.106	0.4321	0.0547	3.511
Mof_O 	O 	0.1795	0.4332	0.0326	-0.585
Mof_O 	O 	0.1062	0.5573	0.9281	6.501
Mof_O 	O 	0.1798	0.5369	0.9318	-0.538
Mof_C 	C 	0.1495	0.5741	0.9303	0.36
Mof_C 	C 	0.1617	0.619	0.8984	-0.132
Mof_C 	C 	0.2095	0.6378	0.8994	0.101
Mof_C 	C 	0.1272	0.642	0.8689	0.099
Mof_H 	H 	0.234	0.6218	0.9182	0.141
Mof_C 	C 	0.2215	0.6802	0.8725	-0.107
Mof_C 	C 	0.1389	0.6839	0.8404	-0.134
Mof_H 	H 	0.0948	0.6292	0.8677	-0.098
Mof_H 	H 	0.2537	0.6932	0.8745	0.163
Mof_C 	C 	0.1872	0.7032	0.8431	0.08
Mof_H 	H 	0.115	0.6987	0.8199	0.061
Mof_C 	C 	0.2011	0.7471	0.8131	0.113
Mof_N 	N 	0.2412	0.7734	0.8279	-0.115
Mof_O 	O 	0.106	0.5679	0.9453	-6.909
Mof_O 	O 	0.1795	0.5668	0.9674	0.272
Mof_O 	O 	0.8938	0.5573	0.0719	-1.542
Mof_O 	O 	0.8202	0.5369	0.0682	-0.179
Mof_C 	C 	0.8505	0.5741	0.0697	0.458
Mof_C 	C 	0.8383	0.619	0.1016	-0.1
Mof_C 	C 	0.7905	0.6378	0.1006	0.057
Mof_C 	C 	0.8728	0.642	0.1311	0.053
Mof_H 	H 	0.766	0.6218	0.0818	-0.086
Mof_C 	C 	0.7785	0.6802	0.1275	-0.136
Mof_C 	C 	0.8611	0.6839	0.1596	-0.096
Mof_H 	H 	0.9052	0.6292	0.1323	0.131
Mof_H 	H 	0.7463	0.6932	0.1255	0.013
Mof_C 	C 	0.8128	0.7032	0.1569	0.059
Mof_H 	H 	0.885	0.6987	0.1801	0.138
Mof_C 	C 	0.7989	0.7471	0.1869	0.113
Mof_N 	N 	0.7588	0.7734	0.1721	-0.146
Mof_O 	O 	0.894	0.5679	0.0547	1.381
Mof_O 	O 	0.8205	0.5668	0.0326	-0.441
Mof_O 	O 	0.8938	0.4427	0.9281	3.874
Mof_O 	O 	0.8202	0.4631	0.9318	-0.448
Mof_C 	C 	0.8505	0.4259	0.9303	0.325
Mof_C 	C 	0.8383	0.381	0.8984	-0.083
Mof_C 	C 	0.7905	0.3622	0.8994	0.053
Mof_C 	C 	0.8728	0.358	0.8689	0.06
Mof_H 	H 	0.766	0.3782	0.9182	0.15
Mof_C 	C 	0.7785	0.3198	0.8725	-0.083
Mof_C 	C 	0.8611	0.3161	0.8404	-0.088
Mof_H 	H 	0.9052	0.3708	0.8677	0.034
Mof_H 	H 	0.7463	0.3068	0.8745	0.154
Mof_C 	C 	0.8128	0.2968	0.8431	0.074
Mof_H 	H 	0.885	0.3013	0.8199	0.137
Mof_C 	C 	0.7989	0.2529	0.8131	0.127
Mof_N 	N 	0.7588	0.2266	0.8279	-0.116
Mof_O 	O 	0.894	0.4321	0.9453	-4.273
Mof_O 	O 	0.8205	0.4332	0.9674	0.127
Mof_O 	O 	0.0719	0.1062	0.4427	-3.878
Mof_O 	O 	0.0682	0.1798	0.4631	-0.09
Mof_C 	C 	0.0697	0.1495	0.4259	0.474
Mof_C 	C 	0.1016	0.1617	0.381	-0.144
Mof_C 	C 	0.1006	0.2095	0.3622	0.051
Mof_C 	C 	0.1311	0.1272	0.358	0.032
Mof_H 	H 	0.0818	0.234	0.3782	-0.083
Mof_C 	C 	0.1275	0.2215	0.3198	-0.147
Mof_C 	C 	0.1596	0.1389	0.3161	-0.136
Mof_H 	H 	0.1323	0.0948	0.3708	0.029
Mof_H 	H 	0.1255	0.2537	0.3068	0.008
Mof_C 	C 	0.1569	0.1872	0.2968	0.022
Mof_H 	H 	0.1801	0.115	0.3013	0.018
Mof_C 	C 	0.1869	0.2011	0.2529	0.066
Mof_N 	N 	0.1721	0.2412	0.2266	-0.161
Mof_O 	O 	0.0547	0.106	0.4321	3.511
Mof_O 	O 	0.0326	0.1795	0.4332	-0.585
Mof_O 	O 	0.9281	0.1062	0.5573	6.501
Mof_O 	O 	0.9318	0.1798	0.5369	-0.538
Mof_C 	C 	0.9303	0.1495	0.5741	0.36
Mof_C 	C 	0.8984	0.1617	0.619	-0.132
Mof_C 	C 	0.8994	0.2095	0.6378	0.101
Mof_C 	C 	0.8689	0.1272	0.642	0.099
Mof_H 	H 	0.9182	0.234	0.6218	0.141
Mof_C 	C 	0.8725	0.2215	0.6802	-0.107
Mof_C 	C 	0.8404	0.1389	0.6839	-0.134
Mof_H 	H 	0.8677	0.0948	0.6292	-0.098
Mof_H 	H 	0.8745	0.2537	0.6932	0.163
Mof_C 	C 	0.8431	0.1872	0.7032	0.08
Mof_H 	H 	0.8199	0.115	0.6987	0.061
Mof_C 	C 	0.8131	0.2011	0.7471	0.113
Mof_N 	N 	0.8279	0.2412	0.7734	-0.115
Mof_O 	O 	0.9453	0.106	0.5679	-6.909
Mof_O 	O 	0.9674	0.1795	0.5668	0.272
Mof_O 	O 	0.0719	0.8938	0.5573	-1.542
Mof_O 	O 	0.0682	0.8202	0.5369	-0.179
Mof_C 	C 	0.0697	0.8505	0.5741	0.458
Mof_C 	C 	0.1016	0.8383	0.619	-0.1
Mof_C 	C 	0.1006	0.7905	0.6378	0.057
Mof_C 	C 	0.1311	0.8728	0.642	0.053
Mof_H 	H 	0.0818	0.766	0.6218	-0.086
Mof_C 	C 	0.1275	0.7785	0.6802	-0.136
Mof_C 	C 	0.1596	0.8611	0.6839	-0.096
Mof_H 	H 	0.1323	0.9052	0.6292	0.131
Mof_H 	H 	0.1255	0.7463	0.6932	0.013
Mof_C 	C 	0.1569	0.8128	0.7032	0.059
Mof_H 	H 	0.1801	0.885	0.6987	0.138
Mof_C 	C 	0.1869	0.7989	0.7471	0.113
Mof_N 	N 	0.1721	0.7588	0.7734	-0.146
Mof_O 	O 	0.0547	0.894	0.5679	1.381
Mof_O 	O 	0.0326	0.8205	0.5668	-0.441
Mof_O 	O 	0.9281	0.8938	0.4427	3.874
Mof_O 	O 	0.9318	0.8202	0.4631	-0.448
Mof_C 	C 	0.9303	0.8505	0.4259	0.325
Mof_C 	C 	0.8984	0.8383	0.381	-0.083
Mof_C 	C 	0.8994	0.7905	0.3622	0.053
Mof_C 	C 	0.8689	0.8728	0.358	0.06
Mof_H 	H 	0.9182	0.766	0.3782	0.15
Mof_C 	C 	0.8725	0.7785	0.3198	-0.083
Mof_C 	C 	0.8404	0.8611	0.3161	-0.088
Mof_H 	H 	0.8677	0.9052	0.3708	0.034
Mof_H 	H 	0.8745	0.7463	0.3068	0.154
Mof_C 	C 	0.8431	0.8128	0.2968	0.074
Mof_H 	H 	0.8199	0.885	0.3013	0.137
Mof_C 	C 	0.8131	0.7989	0.2529	0.127
Mof_N 	N 	0.8279	0.7588	0.2266	-0.116
Mof_O 	O 	0.9453	0.894	0.4321	-4.273
Mof_O 	O 	0.9674	0.8205	0.4332	0.127
Mof_Tb	Tb	0.5	1.05784e-32	0.87297	1.827
Mof_O 	O 	0.5	0	0.9577	-0.173
Mof_Tb	Tb	0.5	0	0.12703	1.813
Mof_O 	O 	0.5	0	0.0423	-0.482
Mof_Tb	Tb	0.87297	0.5	-0	1.827
Mof_O 	O 	0.9577	0.5	-0	-0.173
Mof_Tb	Tb	0.12703	0.5	-0	1.813
Mof_O 	O 	0.0423	0.5	-0	-0.482
Mof_Tb	Tb	1.24531e-32	0.87297	0.5	1.827
Mof_O 	O 	1.8747e-33	0.9577	0.5	-0.173
Mof_Tb	Tb	-3.41449e-33	0.12703	0.5	1.813
Mof_O 	O 	-3.41449e-33	0.0423	0.5	-0.482
Mof_C 	C 	0.5175	0	-0	0.085
Mof_C 	C 	0.4825	0	-0	-0.224
Mof_C 	C 	-0	0.5175	-0	0.085
Mof_C 	C 	-0	0.4825	-0	-0.224
Mof_C 	C 	1.94031e-33	0	0.5175	0.085
Mof_C 	C 	1.80909e-33	0	0.4825	-0.224
_end
