data_functionalizedCrystal
_audit_creation_method	'EQeq! by Chris Wilmer'
_symmetry_space_group_name_H-M	'P1'
_symmetry_Int_Tables_number	1
_symmetry_cell_setting	triclinic
loop_
_symmetry_equiv_pos_as_xyz
  x,y,z
_cell_length_a	9.8792
_cell_length_b	12.0798
_cell_length_c	12.2591
_cell_angle_alpha	109.808
_cell_angle_beta	100.045
_cell_angle_gamma	102.515
loop_
_atom_site_label
_atom_site_type_symbol
_atom_site_fract_x
_atom_site_fract_y
_atom_site_fract_z
_atom_site_charge
Mof_U 	U 	0.8962	0.17411	0.52161	0.019
Mof_U 	U 	0.13682	0.33724	0.98842	0.019
Mof_P 	P 	0.7428	0.3379	0.3662	0.465
Mof_P 	P 	0.0171	0.5425	0.2085	0.408
Mof_P 	P 	0.0355	0.0474	0.7283	0.397
Mof_P 	P 	0.7228	0.7585	0.7794	0.41
Mof_O 	O 	0.6466	0.2306	0.2511	-0.416
Mof_H 	H 	0.5622	0.229	0.2457	0.315
Mof_O 	O 	0.6586	0.3872	0.4525	-0.192
Mof_O 	O 	0.8625	0.2965	0.4216	-0.186
Mof_O 	O 	0.1289	0.5056	0.1429	-0.149
Mof_O 	O 	0.8873	0.5488	0.1244	-0.155
Mof_O 	O 	0.0937	0.6673	0.3091	-0.154
Mof_O 	O 	0.1331	0.1696	0.8259	-0.153
Mof_O 	O 	0.9214	0.0655	0.6396	-0.155
Mof_O 	O 	0.1327	0.9805	0.6639	-0.148
Mof_O 	O 	0.6204	0.8308	0.8226	-0.207
Mof_O 	O 	0.6436	0.628	0.6886	-0.175
Mof_O 	O 	0.8281	0.7586	0.8865	-0.177
Mof_C 	C 	0.8295	0.4567	0.3256	-0.224
Mof_H 	H 	0.7574	0.4708	0.2714	0.141
Mof_H 	H 	0.8703	0.532	0.3975	0.132
Mof_C 	C 	0.9498	0.4314	0.2646	-0.182
Mof_H 	H 	0.9128	0.351	0.1987	0.127
Mof_H 	H 	0.0285	0.4288	0.3225	0.118
Mof_C 	C 	0.9434	0.9558	0.7989	-0.176
Mof_H 	H 	0.0142	0.9367	0.8493	0.121
Mof_H 	H 	0.8958	0.0045	0.8507	0.121
Mof_C 	C 	0.8339	0.8377	0.7107	-0.2
Mof_H 	H 	0.8835	0.7835	0.6678	0.123
Mof_H 	H 	0.7725	0.8557	0.6521	0.132
Mof_U 	U 	0.1038	0.82589	0.47839	0.018
Mof_U 	U 	0.86318	0.66276	0.01158	0.018
Mof_P 	P 	0.2572	0.6621	0.6338	0.464
Mof_P 	P 	0.9829	0.4575	0.7915	0.407
Mof_P 	P 	0.9645	0.9526	0.2717	0.396
Mof_P 	P 	0.2772	0.2415	0.2206	0.409
Mof_O 	O 	0.3534	0.7694	0.7489	-0.416
Mof_H 	H 	0.4378	0.771	0.7543	0.315
Mof_O 	O 	0.3414	0.6128	0.5475	-0.192
Mof_O 	O 	0.1375	0.7035	0.5784	-0.186
Mof_O 	O 	0.8711	0.4944	0.8571	-0.149
Mof_O 	O 	0.1127	0.4512	0.8756	-0.155
Mof_O 	O 	0.9063	0.3327	0.6909	-0.154
Mof_O 	O 	0.8669	0.8304	0.1741	-0.153
Mof_O 	O 	0.0786	0.9345	0.3604	-0.155
Mof_O 	O 	0.8673	0.0195	0.3361	-0.148
Mof_O 	O 	0.3796	0.1692	0.1774	-0.207
Mof_O 	O 	0.3564	0.372	0.3114	-0.175
Mof_O 	O 	0.1719	0.2414	0.1135	-0.177
Mof_C 	C 	0.1705	0.5433	0.6744	-0.224
Mof_H 	H 	0.2426	0.5292	0.7286	0.141
Mof_H 	H 	0.1297	0.468	0.6025	0.132
Mof_C 	C 	0.0502	0.5686	0.7354	-0.182
Mof_H 	H 	0.0872	0.649	0.8013	0.127
Mof_H 	H 	0.9715	0.5712	0.6775	0.118
Mof_C 	C 	0.0566	0.0442	0.2011	-0.176
Mof_H 	H 	0.9858	0.0633	0.1507	0.121
Mof_H 	H 	0.1042	0.9955	0.1493	0.121
Mof_C 	C 	0.1661	0.1623	0.2893	-0.2
Mof_H 	H 	0.1165	0.2165	0.3322	0.123
Mof_H 	H 	0.2275	0.1443	0.3479	0.132
Mof_U 	U 	0.5	0.5	0.5	0.008
_end
