data_functionalizedCrystal
_audit_creation_method	'EQeq! by Chris Wilmer'
_symmetry_space_group_name_H-M	'P1'
_symmetry_Int_Tables_number	1
_symmetry_cell_setting	triclinic
loop_
_symmetry_equiv_pos_as_xyz
  x,y,z
_cell_length_a	35.1608
_cell_length_b	35.1608
_cell_length_c	21.8459
_cell_angle_alpha	90
_cell_angle_beta	90
_cell_angle_gamma	120
loop_
_atom_site_label
_atom_site_type_symbol
_atom_site_fract_x
_atom_site_fract_y
_atom_site_fract_z
_atom_site_charge
Mof_O 	O 	0.36247	0.22047	0.59732	-0.41
Mof_O 	O 	0.38888	0.23383	0.69337	-0.41
Mof_C 	C 	0.38761	0.24483	0.63939	0.372
Mof_C 	C 	0.41926	0.29177	0.62163	-0.134
Mof_C 	C 	0.44676	0.32199	0.66578	0.079
Mof_H 	H 	0.4463	0.3129	0.7059	0.021
Mof_C 	C 	0.47433	0.36489	0.64987	-0.162
Mof_H 	H 	0.4923	0.3846	0.6796	0.102
Mof_C 	C 	0.47616	0.3795	0.59094	0.121
Mof_C 	C 	0.44907	0.34935	0.54638	-0.159
Mof_H 	H 	0.45	0.3584	0.5061	0.09
Mof_C 	C 	0.42094	0.30607	0.56269	0.078
Mof_H 	H 	0.4028	0.2863	0.5331	0.02
Mof_C 	C 	0.50433	0.42647	0.57233	-0.069
Mof_C 	C 	0.48654	0.4459	0.5372	-0.043
Mof_H 	H 	0.4574	0.429	0.525	0.045
Mof_C 	C 	0.6149	0.4253	0.5373	-0.018
Mof_C 	C 	0.5917	0.3808	0.6417	-0.005
Mof_O 	O 	0.02914	0.5538	0.93065	-0.41
Mof_O 	O 	0.05555	0.56716	0.0267	-0.411
Mof_C 	C 	0.05428	0.57816	0.97272	0.372
Mof_C 	C 	0.08593	0.6251	0.95496	-0.134
Mof_C 	C 	0.11343	0.65532	0.99911	0.08
Mof_H 	H 	0.11297	0.64623	0.03923	0.02
Mof_C 	C 	0.141	0.69822	0.9832	-0.161
Mof_H 	H 	0.15897	0.71793	0.01293	0.102
Mof_C 	C 	0.14283	0.71283	0.92427	0.121
Mof_C 	C 	0.11574	0.68268	0.87971	-0.159
Mof_H 	H 	0.11667	0.69173	0.83943	0.09
Mof_C 	C 	0.08761	0.6394	0.89602	0.078
Mof_H 	H 	0.06947	0.61963	0.86643	0.02
Mof_C 	C 	0.171	0.7598	0.90566	-0.069
Mof_C 	C 	0.15321	0.77923	0.87053	-0.043
Mof_H 	H 	0.12407	0.76233	0.85833	0.045
Mof_C 	C 	0.28157	0.75863	0.87063	-0.017
Mof_C 	C 	0.25837	0.71413	0.97503	-0.004
Mof_O 	O 	0.6958	0.88714	0.26399	-0.409
Mof_O 	O 	0.72221	0.9005	0.36004	-0.409
Mof_C 	C 	0.72094	0.9115	0.30606	0.373
Mof_C 	C 	0.75259	0.95844	0.2883	-0.132
Mof_C 	C 	0.78009	0.98866	0.33245	0.079
Mof_H 	H 	0.77963	0.97957	0.37257	0.022
Mof_C 	C 	0.80766	0.03156	0.31654	-0.16
Mof_H 	H 	0.82563	0.05127	0.34627	0.103
Mof_C 	C 	0.80949	0.04617	0.25761	0.121
Mof_C 	C 	0.7824	0.01602	0.21305	-0.158
Mof_H 	H 	0.78333	0.02507	0.17277	0.09
Mof_C 	C 	0.75427	0.97274	0.22936	0.078
Mof_H 	H 	0.73613	0.95297	0.19977	0.022
Mof_C 	C 	0.83766	0.09314	0.239	-0.068
Mof_C 	C 	0.81987	0.11257	0.20387	-0.042
Mof_H 	H 	0.79073	0.09567	0.19167	0.046
Mof_C 	C 	0.94823	0.09197	0.20397	-0.017
Mof_C 	C 	0.92503	0.04747	0.30837	-0.004
Mof_O 	O 	0.77953	0.142	0.59732	-0.409
Mof_O 	O 	0.76617	0.15505	0.69337	-0.41
Mof_C 	C 	0.75517	0.14278	0.63939	0.373
Mof_C 	C 	0.70823	0.12749	0.62163	-0.133
Mof_C 	C 	0.67801	0.12477	0.66578	0.08
Mof_H 	H 	0.6871	0.1334	0.7059	0.022
Mof_C 	C 	0.63511	0.10944	0.64987	-0.161
Mof_H 	H 	0.6154	0.1077	0.6796	0.103
Mof_C 	C 	0.6205	0.09666	0.59094	0.122
Mof_C 	C 	0.65065	0.09972	0.54638	-0.158
Mof_H 	H 	0.6416	0.0916	0.5061	0.091
Mof_C 	C 	0.69393	0.11487	0.56269	0.079
Mof_H 	H 	0.7137	0.1165	0.5331	0.021
Mof_C 	C 	0.57353	0.07786	0.57233	-0.068
Mof_C 	C 	0.5541	0.04064	0.5372	-0.042
Mof_H 	H 	0.571	0.0284	0.525	0.046
Mof_C 	C 	0.5747	0.1896	0.5373	-0.017
Mof_C 	C 	0.6192	0.2109	0.6417	-0.004
Mof_O 	O 	0.4462	0.47533	0.93065	-0.409
Mof_O 	O 	0.43284	0.48838	0.0267	-0.41
Mof_C 	C 	0.42184	0.47611	0.97272	0.373
Mof_C 	C 	0.3749	0.46082	0.95496	-0.133
Mof_C 	C 	0.34468	0.4581	0.99911	0.08
Mof_H 	H 	0.35377	0.46673	0.03923	0.022
Mof_C 	C 	0.30178	0.44277	0.9832	-0.161
Mof_H 	H 	0.28207	0.44103	0.01293	0.103
Mof_C 	C 	0.28717	0.42999	0.92427	0.122
Mof_C 	C 	0.31732	0.43305	0.87971	-0.158
Mof_H 	H 	0.30827	0.42493	0.83943	0.091
Mof_C 	C 	0.3606	0.4482	0.89602	0.079
Mof_H 	H 	0.38037	0.44983	0.86643	0.021
Mof_C 	C 	0.2402	0.41119	0.90566	-0.068
Mof_C 	C 	0.22077	0.37397	0.87053	-0.042
Mof_H 	H 	0.23767	0.36173	0.85833	0.046
Mof_C 	C 	0.24137	0.52293	0.87063	-0.017
Mof_C 	C 	0.28587	0.54423	0.97503	-0.004
Mof_O 	O 	0.11286	0.80867	0.26399	-0.409
Mof_O 	O 	0.0995	0.82172	0.36004	-0.409
Mof_C 	C 	0.0885	0.80945	0.30606	0.373
Mof_C 	C 	0.04156	0.79416	0.2883	-0.132
Mof_C 	C 	0.01134	0.79144	0.33245	0.08
Mof_H 	H 	0.02043	0.80007	0.37257	0.022
Mof_C 	C 	0.96844	0.77611	0.31654	-0.16
Mof_H 	H 	0.94873	0.77437	0.34627	0.103
Mof_C 	C 	0.95383	0.76333	0.25761	0.122
Mof_C 	C 	0.98398	0.76639	0.21305	-0.158
Mof_H 	H 	0.97493	0.75827	0.17277	0.09
Mof_C 	C 	0.02726	0.78154	0.22936	0.078
Mof_H 	H 	0.04703	0.78317	0.19977	0.022
Mof_C 	C 	0.90686	0.74453	0.239	-0.068
Mof_C 	C 	0.88743	0.70731	0.20387	-0.042
Mof_H 	H 	0.90433	0.69507	0.19167	0.046
Mof_C 	C 	0.90803	0.85627	0.20397	-0.017
Mof_C 	C 	0.95253	0.87757	0.30837	-0.004
Mof_O 	O 	0.858	0.63753	0.59732	-0.409
Mof_O 	O 	0.84495	0.61112	0.69337	-0.409
Mof_C 	C 	0.85722	0.61239	0.63939	0.373
Mof_C 	C 	0.87251	0.58074	0.62163	-0.133
Mof_C 	C 	0.87523	0.55324	0.66578	0.08
Mof_H 	H 	0.8666	0.5537	0.7059	0.022
Mof_C 	C 	0.89056	0.52567	0.64987	-0.161
Mof_H 	H 	0.8923	0.5077	0.6796	0.103
Mof_C 	C 	0.90334	0.52384	0.59094	0.122
Mof_C 	C 	0.90028	0.55093	0.54638	-0.158
Mof_H 	H 	0.9084	0.55	0.5061	0.091
Mof_C 	C 	0.88513	0.57906	0.56269	0.079
Mof_H 	H 	0.8835	0.5972	0.5331	0.021
Mof_C 	C 	0.92214	0.49567	0.57233	-0.068
Mof_C 	C 	0.95936	0.51346	0.5372	-0.042
Mof_H 	H 	0.9716	0.5426	0.525	0.046
Mof_C 	C 	0.8104	0.3851	0.5373	-0.017
Mof_C 	C 	0.7891	0.4083	0.6417	-0.004
Mof_O 	O 	0.52467	0.97086	0.93065	-0.409
Mof_O 	O 	0.51162	0.94445	0.0267	-0.41
Mof_C 	C 	0.52389	0.94572	0.97272	0.373
Mof_C 	C 	0.53918	0.91407	0.95496	-0.133
Mof_C 	C 	0.5419	0.88657	0.99911	0.081
Mof_H 	H 	0.53327	0.88703	0.03923	0.021
Mof_C 	C 	0.55723	0.859	0.9832	-0.161
Mof_H 	H 	0.55897	0.84103	0.01293	0.103
Mof_C 	C 	0.57001	0.85717	0.92427	0.122
Mof_C 	C 	0.56695	0.88426	0.87971	-0.159
Mof_H 	H 	0.57507	0.88333	0.83943	0.091
Mof_C 	C 	0.5518	0.91239	0.89602	0.079
Mof_H 	H 	0.55017	0.93053	0.86643	0.021
Mof_C 	C 	0.58881	0.829	0.90566	-0.068
Mof_C 	C 	0.62603	0.84679	0.87053	-0.042
Mof_H 	H 	0.63827	0.87593	0.85833	0.046
Mof_C 	C 	0.47707	0.71843	0.87063	-0.017
Mof_C 	C 	0.45577	0.74163	0.97503	-0.004
Mof_O 	O 	0.19133	0.3042	0.26399	-0.409
Mof_O 	O 	0.17828	0.27779	0.36004	-0.41
Mof_C 	C 	0.19055	0.27906	0.30606	0.373
Mof_C 	C 	0.20584	0.24741	0.2883	-0.133
Mof_C 	C 	0.20856	0.21991	0.33245	0.08
Mof_H 	H 	0.19993	0.22037	0.37257	0.022
Mof_C 	C 	0.22389	0.19234	0.31654	-0.161
Mof_H 	H 	0.22563	0.17437	0.34627	0.103
Mof_C 	C 	0.23667	0.19051	0.25761	0.122
Mof_C 	C 	0.23361	0.2176	0.21305	-0.158
Mof_H 	H 	0.24173	0.21667	0.17277	0.091
Mof_C 	C 	0.21846	0.24573	0.22936	0.079
Mof_H 	H 	0.21683	0.26387	0.19977	0.021
Mof_C 	C 	0.25547	0.16234	0.239	-0.068
Mof_C 	C 	0.29269	0.18013	0.20387	-0.042
Mof_H 	H 	0.30493	0.20927	0.19167	0.046
Mof_C 	C 	0.14373	0.05177	0.20397	-0.017
Mof_C 	C 	0.12243	0.07497	0.30837	-0.004
Mof_O 	O 	0.22047	0.36247	0.40268	-0.409
Mof_O 	O 	0.23383	0.38888	0.30663	-0.409
Mof_C 	C 	0.24483	0.38761	0.36061	0.373
Mof_C 	C 	0.29177	0.41926	0.37837	-0.133
Mof_C 	C 	0.32199	0.44676	0.33422	0.08
Mof_H 	H 	0.3129	0.4463	0.2941	0.022
Mof_C 	C 	0.36489	0.47433	0.35013	-0.161
Mof_H 	H 	0.3846	0.4923	0.3204	0.103
Mof_C 	C 	0.3795	0.47616	0.40906	0.122
Mof_C 	C 	0.34935	0.44907	0.45362	-0.158
Mof_H 	H 	0.3584	0.45	0.4939	0.091
Mof_C 	C 	0.30607	0.42094	0.43731	0.079
Mof_H 	H 	0.2863	0.4028	0.4669	0.021
Mof_C 	C 	0.42647	0.50433	0.42767	-0.068
Mof_C 	C 	0.4459	0.48654	0.4628	-0.042
Mof_H 	H 	0.429	0.4574	0.475	0.046
Mof_C 	C 	0.4253	0.6149	0.4627	-0.017
Mof_C 	C 	0.3808	0.5917	0.3583	-0.004
Mof_O 	O 	0.88714	0.6958	0.73601	-0.409
Mof_O 	O 	0.9005	0.72221	0.63996	-0.409
Mof_C 	C 	0.9115	0.72094	0.69394	0.373
Mof_C 	C 	0.95844	0.75259	0.7117	-0.132
Mof_C 	C 	0.98866	0.78009	0.66755	0.079
Mof_H 	H 	0.97957	0.77963	0.62743	0.022
Mof_C 	C 	0.03156	0.80766	0.68346	-0.16
Mof_H 	H 	0.05127	0.82563	0.65373	0.103
Mof_C 	C 	0.04617	0.80949	0.74239	0.121
Mof_C 	C 	0.01602	0.7824	0.78695	-0.158
Mof_H 	H 	0.02507	0.78333	0.82723	0.09
Mof_C 	C 	0.97274	0.75427	0.77064	0.078
Mof_H 	H 	0.95297	0.73613	0.80023	0.022
Mof_C 	C 	0.09314	0.83766	0.761	-0.068
Mof_C 	C 	0.11257	0.81987	0.79613	-0.042
Mof_H 	H 	0.09567	0.79073	0.80833	0.046
Mof_C 	C 	0.09197	0.94823	0.79603	-0.017
Mof_C 	C 	0.04747	0.92503	0.69163	-0.004
Mof_O 	O 	0.5538	0.02914	0.06935	-0.409
Mof_O 	O 	0.56716	0.05555	0.9733	-0.41
Mof_C 	C 	0.57816	0.05428	0.02728	0.373
Mof_C 	C 	0.6251	0.08593	0.04504	-0.133
Mof_C 	C 	0.65532	0.11343	0.00089	0.081
Mof_H 	H 	0.64623	0.11297	0.96077	0.021
Mof_C 	C 	0.69822	0.141	0.0168	-0.16
Mof_H 	H 	0.71793	0.15897	0.98707	0.103
Mof_C 	C 	0.71283	0.14283	0.07573	0.122
Mof_C 	C 	0.68268	0.11574	0.12029	-0.158
Mof_H 	H 	0.69173	0.11667	0.16057	0.091
Mof_C 	C 	0.6394	0.08761	0.10398	0.079
Mof_H 	H 	0.61963	0.06947	0.13357	0.021
Mof_C 	C 	0.7598	0.171	0.09434	-0.068
Mof_C 	C 	0.77923	0.15321	0.12947	-0.042
Mof_H 	H 	0.76233	0.12407	0.14167	0.046
Mof_C 	C 	0.75863	0.28157	0.12937	-0.017
Mof_C 	C 	0.71413	0.25837	0.02497	-0.004
Mof_O 	O 	0.142	0.77953	0.40268	-0.409
Mof_O 	O 	0.15505	0.76617	0.30663	-0.41
Mof_C 	C 	0.14278	0.75517	0.36061	0.373
Mof_C 	C 	0.12749	0.70823	0.37837	-0.133
Mof_C 	C 	0.12477	0.67801	0.33422	0.08
Mof_H 	H 	0.1334	0.6871	0.2941	0.022
Mof_C 	C 	0.10944	0.63511	0.35013	-0.161
Mof_H 	H 	0.1077	0.6154	0.3204	0.103
Mof_C 	C 	0.09666	0.6205	0.40906	0.122
Mof_C 	C 	0.09972	0.65065	0.45362	-0.158
Mof_H 	H 	0.0916	0.6416	0.4939	0.091
Mof_C 	C 	0.11487	0.69393	0.43731	0.079
Mof_H 	H 	0.1165	0.7137	0.4669	0.021
Mof_C 	C 	0.07786	0.57353	0.42767	-0.068
Mof_C 	C 	0.04064	0.5541	0.4628	-0.042
Mof_H 	H 	0.0284	0.571	0.475	0.046
Mof_C 	C 	0.1896	0.5747	0.4627	-0.017
Mof_C 	C 	0.2109	0.6192	0.3583	-0.004
Mof_O 	O 	0.80867	0.11286	0.73601	-0.409
Mof_O 	O 	0.82172	0.0995	0.63996	-0.409
Mof_C 	C 	0.80945	0.0885	0.69394	0.373
Mof_C 	C 	0.79416	0.04156	0.7117	-0.132
Mof_C 	C 	0.79144	0.01134	0.66755	0.08
Mof_H 	H 	0.80007	0.02043	0.62743	0.022
Mof_C 	C 	0.77611	0.96844	0.68346	-0.16
Mof_H 	H 	0.77437	0.94873	0.65373	0.103
Mof_C 	C 	0.76333	0.95383	0.74239	0.122
Mof_C 	C 	0.76639	0.98398	0.78695	-0.158
Mof_H 	H 	0.75827	0.97493	0.82723	0.09
Mof_C 	C 	0.78154	0.02726	0.77064	0.078
Mof_H 	H 	0.78317	0.04703	0.80023	0.022
Mof_C 	C 	0.74453	0.90686	0.761	-0.068
Mof_C 	C 	0.70731	0.88743	0.79613	-0.042
Mof_H 	H 	0.69507	0.90433	0.80833	0.046
Mof_C 	C 	0.85627	0.90803	0.79603	-0.017
Mof_C 	C 	0.87757	0.95253	0.69163	-0.004
Mof_O 	O 	0.47533	0.4462	0.06935	-0.409
Mof_O 	O 	0.48838	0.43284	0.9733	-0.41
Mof_C 	C 	0.47611	0.42184	0.02728	0.373
Mof_C 	C 	0.46082	0.3749	0.04504	-0.133
Mof_C 	C 	0.4581	0.34468	0.00089	0.08
Mof_H 	H 	0.46673	0.35377	0.96077	0.022
Mof_C 	C 	0.44277	0.30178	0.0168	-0.161
Mof_H 	H 	0.44103	0.28207	0.98707	0.103
Mof_C 	C 	0.42999	0.28717	0.07573	0.122
Mof_C 	C 	0.43305	0.31732	0.12029	-0.158
Mof_H 	H 	0.42493	0.30827	0.16057	0.091
Mof_C 	C 	0.4482	0.3606	0.10398	0.079
Mof_H 	H 	0.44983	0.38037	0.13357	0.021
Mof_C 	C 	0.41119	0.2402	0.09434	-0.068
Mof_C 	C 	0.37397	0.22077	0.12947	-0.042
Mof_H 	H 	0.36173	0.23767	0.14167	0.046
Mof_C 	C 	0.52293	0.24137	0.12937	-0.017
Mof_C 	C 	0.54423	0.28587	0.02497	-0.004
Mof_O 	O 	0.63753	0.858	0.40268	-0.409
Mof_O 	O 	0.61112	0.84495	0.30663	-0.409
Mof_C 	C 	0.61239	0.85722	0.36061	0.373
Mof_C 	C 	0.58074	0.87251	0.37837	-0.133
Mof_C 	C 	0.55324	0.87523	0.33422	0.08
Mof_H 	H 	0.5537	0.8666	0.2941	0.022
Mof_C 	C 	0.52567	0.89056	0.35013	-0.161
Mof_H 	H 	0.5077	0.8923	0.3204	0.103
Mof_C 	C 	0.52384	0.90334	0.40906	0.122
Mof_C 	C 	0.55093	0.90028	0.45362	-0.158
Mof_H 	H 	0.55	0.9084	0.4939	0.091
Mof_C 	C 	0.57906	0.88513	0.43731	0.079
Mof_H 	H 	0.5972	0.8835	0.4669	0.021
Mof_C 	C 	0.49567	0.92214	0.42767	-0.068
Mof_C 	C 	0.51346	0.95936	0.4628	-0.042
Mof_H 	H 	0.5426	0.9716	0.475	0.046
Mof_C 	C 	0.3851	0.8104	0.4627	-0.017
Mof_C 	C 	0.4083	0.7891	0.3583	-0.004
Mof_O 	O 	0.3042	0.19133	0.73601	-0.409
Mof_O 	O 	0.27779	0.17828	0.63996	-0.41
Mof_C 	C 	0.27906	0.19055	0.69394	0.373
Mof_C 	C 	0.24741	0.20584	0.7117	-0.133
Mof_C 	C 	0.21991	0.20856	0.66755	0.08
Mof_H 	H 	0.22037	0.19993	0.62743	0.022
Mof_C 	C 	0.19234	0.22389	0.68346	-0.161
Mof_H 	H 	0.17437	0.22563	0.65373	0.103
Mof_C 	C 	0.19051	0.23667	0.74239	0.122
Mof_C 	C 	0.2176	0.23361	0.78695	-0.158
Mof_H 	H 	0.21667	0.24173	0.82723	0.091
Mof_C 	C 	0.24573	0.21846	0.77064	0.079
Mof_H 	H 	0.26387	0.21683	0.80023	0.021
Mof_C 	C 	0.16234	0.25547	0.761	-0.068
Mof_C 	C 	0.18013	0.29269	0.79613	-0.042
Mof_H 	H 	0.20927	0.30493	0.80833	0.046
Mof_C 	C 	0.05177	0.14373	0.79603	-0.017
Mof_C 	C 	0.07497	0.12243	0.69163	-0.004
Mof_O 	O 	0.97086	0.52467	0.06935	-0.409
Mof_O 	O 	0.94445	0.51162	0.9733	-0.41
Mof_C 	C 	0.94572	0.52389	0.02728	0.373
Mof_C 	C 	0.91407	0.53918	0.04504	-0.133
Mof_C 	C 	0.88657	0.5419	0.00089	0.081
Mof_H 	H 	0.88703	0.53327	0.96077	0.021
Mof_C 	C 	0.859	0.55723	0.0168	-0.161
Mof_H 	H 	0.84103	0.55897	0.98707	0.103
Mof_C 	C 	0.85717	0.57001	0.07573	0.122
Mof_C 	C 	0.88426	0.56695	0.12029	-0.159
Mof_H 	H 	0.88333	0.57507	0.16057	0.091
Mof_C 	C 	0.91239	0.5518	0.10398	0.079
Mof_H 	H 	0.93053	0.55017	0.13357	0.021
Mof_C 	C 	0.829	0.58881	0.09434	-0.068
Mof_C 	C 	0.84679	0.62603	0.12947	-0.042
Mof_H 	H 	0.87593	0.63827	0.14167	0.046
Mof_C 	C 	0.71843	0.47707	0.12937	-0.017
Mof_C 	C 	0.74163	0.45577	0.02497	-0.004
Mof_O 	O 	0.63753	0.77953	0.40268	-0.409
Mof_O 	O 	0.61112	0.76617	0.30663	-0.409
Mof_C 	C 	0.61239	0.75517	0.36061	0.373
Mof_C 	C 	0.58074	0.70823	0.37837	-0.133
Mof_C 	C 	0.55324	0.67801	0.33422	0.08
Mof_H 	H 	0.5537	0.6871	0.2941	0.022
Mof_C 	C 	0.52567	0.63511	0.35013	-0.161
Mof_H 	H 	0.5077	0.6154	0.3204	0.103
Mof_C 	C 	0.52384	0.6205	0.40906	0.122
Mof_C 	C 	0.55093	0.65065	0.45362	-0.158
Mof_H 	H 	0.55	0.6416	0.4939	0.091
Mof_C 	C 	0.57906	0.69393	0.43731	0.079
Mof_H 	H 	0.5972	0.7137	0.4669	0.021
Mof_C 	C 	0.49567	0.57353	0.42767	-0.068
Mof_C 	C 	0.51346	0.5541	0.4628	-0.042
Mof_H 	H 	0.5426	0.571	0.475	0.046
Mof_C 	C 	0.3851	0.5747	0.4627	-0.017
Mof_C 	C 	0.4083	0.6192	0.3583	-0.004
Mof_O 	O 	0.3042	0.11286	0.73601	-0.409
Mof_O 	O 	0.27779	0.0995	0.63996	-0.409
Mof_C 	C 	0.27906	0.0885	0.69394	0.373
Mof_C 	C 	0.24741	0.04156	0.7117	-0.132
Mof_C 	C 	0.21991	0.01134	0.66755	0.079
Mof_H 	H 	0.22037	0.02043	0.62743	0.022
Mof_C 	C 	0.19234	0.96844	0.68346	-0.16
Mof_H 	H 	0.17437	0.94873	0.65373	0.103
Mof_C 	C 	0.19051	0.95383	0.74239	0.121
Mof_C 	C 	0.2176	0.98398	0.78695	-0.158
Mof_H 	H 	0.21667	0.97493	0.82723	0.09
Mof_C 	C 	0.24573	0.02726	0.77064	0.078
Mof_H 	H 	0.26387	0.04703	0.80023	0.022
Mof_C 	C 	0.16234	0.90686	0.761	-0.068
Mof_C 	C 	0.18013	0.88743	0.79613	-0.042
Mof_H 	H 	0.20927	0.90433	0.80833	0.046
Mof_C 	C 	0.05177	0.90803	0.79603	-0.017
Mof_C 	C 	0.07497	0.95253	0.69163	-0.004
Mof_O 	O 	0.97086	0.4462	0.06935	-0.409
Mof_O 	O 	0.94445	0.43284	0.9733	-0.41
Mof_C 	C 	0.94572	0.42184	0.02728	0.373
Mof_C 	C 	0.91407	0.3749	0.04504	-0.133
Mof_C 	C 	0.88657	0.34468	0.00089	0.081
Mof_H 	H 	0.88703	0.35377	0.96077	0.021
Mof_C 	C 	0.859	0.30178	0.0168	-0.16
Mof_H 	H 	0.84103	0.28207	0.98707	0.103
Mof_C 	C 	0.85717	0.28717	0.07573	0.122
Mof_C 	C 	0.88426	0.31732	0.12029	-0.158
Mof_H 	H 	0.88333	0.30827	0.16057	0.091
Mof_C 	C 	0.91239	0.3606	0.10398	0.079
Mof_H 	H 	0.93053	0.38037	0.13357	0.021
Mof_C 	C 	0.829	0.2402	0.09434	-0.068
Mof_C 	C 	0.84679	0.22077	0.12947	-0.042
Mof_H 	H 	0.87593	0.23767	0.14167	0.046
Mof_C 	C 	0.71843	0.24137	0.12937	-0.017
Mof_C 	C 	0.74163	0.28587	0.02497	-0.004
Mof_O 	O 	0.22047	0.858	0.40268	-0.409
Mof_O 	O 	0.23383	0.84495	0.30663	-0.41
Mof_C 	C 	0.24483	0.85722	0.36061	0.373
Mof_C 	C 	0.29177	0.87251	0.37837	-0.133
Mof_C 	C 	0.32199	0.87523	0.33422	0.08
Mof_H 	H 	0.3129	0.8666	0.2941	0.022
Mof_C 	C 	0.36489	0.89056	0.35013	-0.161
Mof_H 	H 	0.3846	0.8923	0.3204	0.103
Mof_C 	C 	0.3795	0.90334	0.40906	0.122
Mof_C 	C 	0.34935	0.90028	0.45362	-0.158
Mof_H 	H 	0.3584	0.9084	0.4939	0.091
Mof_C 	C 	0.30607	0.88513	0.43731	0.079
Mof_H 	H 	0.2863	0.8835	0.4669	0.021
Mof_C 	C 	0.42647	0.92214	0.42767	-0.068
Mof_C 	C 	0.4459	0.95936	0.4628	-0.042
Mof_H 	H 	0.429	0.9716	0.475	0.046
Mof_C 	C 	0.4253	0.8104	0.4627	-0.017
Mof_C 	C 	0.3808	0.7891	0.3583	-0.004
Mof_O 	O 	0.88714	0.19133	0.73601	-0.409
Mof_O 	O 	0.9005	0.17828	0.63996	-0.409
Mof_C 	C 	0.9115	0.19055	0.69394	0.373
Mof_C 	C 	0.95844	0.20584	0.7117	-0.132
Mof_C 	C 	0.98866	0.20856	0.66755	0.08
Mof_H 	H 	0.97957	0.19993	0.62743	0.022
Mof_C 	C 	0.03156	0.22389	0.68346	-0.16
Mof_H 	H 	0.05127	0.22563	0.65373	0.103
Mof_C 	C 	0.04617	0.23667	0.74239	0.122
Mof_C 	C 	0.01602	0.23361	0.78695	-0.158
Mof_H 	H 	0.02507	0.24173	0.82723	0.09
Mof_C 	C 	0.97274	0.21846	0.77064	0.078
Mof_H 	H 	0.95297	0.21683	0.80023	0.022
Mof_C 	C 	0.09314	0.25547	0.761	-0.068
Mof_C 	C 	0.11257	0.29269	0.79613	-0.042
Mof_H 	H 	0.09567	0.30493	0.80833	0.046
Mof_C 	C 	0.09197	0.14373	0.79603	-0.017
Mof_C 	C 	0.04747	0.12243	0.69163	-0.004
Mof_O 	O 	0.5538	0.52467	0.06935	-0.409
Mof_O 	O 	0.56716	0.51162	0.9733	-0.41
Mof_C 	C 	0.57816	0.52389	0.02728	0.373
Mof_C 	C 	0.6251	0.53918	0.04504	-0.133
Mof_C 	C 	0.65532	0.5419	0.00089	0.08
Mof_H 	H 	0.64623	0.53327	0.96077	0.022
Mof_C 	C 	0.69822	0.55723	0.0168	-0.161
Mof_H 	H 	0.71793	0.55897	0.98707	0.103
Mof_C 	C 	0.71283	0.57001	0.07573	0.122
Mof_C 	C 	0.68268	0.56695	0.12029	-0.158
Mof_H 	H 	0.69173	0.57507	0.16057	0.091
Mof_C 	C 	0.6394	0.5518	0.10398	0.079
Mof_H 	H 	0.61963	0.55017	0.13357	0.021
Mof_C 	C 	0.7598	0.58881	0.09434	-0.068
Mof_C 	C 	0.77923	0.62603	0.12947	-0.042
Mof_H 	H 	0.76233	0.63827	0.14167	0.046
Mof_C 	C 	0.75863	0.47707	0.12937	-0.017
Mof_C 	C 	0.71413	0.45577	0.02497	-0.004
Mof_O 	O 	0.142	0.36247	0.40268	-0.409
Mof_O 	O 	0.15505	0.38888	0.30663	-0.409
Mof_C 	C 	0.14278	0.38761	0.36061	0.373
Mof_C 	C 	0.12749	0.41926	0.37837	-0.133
Mof_C 	C 	0.12477	0.44676	0.33422	0.08
Mof_H 	H 	0.1334	0.4463	0.2941	0.022
Mof_C 	C 	0.10944	0.47433	0.35013	-0.161
Mof_H 	H 	0.1077	0.4923	0.3204	0.103
Mof_C 	C 	0.09666	0.47616	0.40906	0.122
Mof_C 	C 	0.09972	0.44907	0.45362	-0.158
Mof_H 	H 	0.0916	0.45	0.4939	0.091
Mof_C 	C 	0.11487	0.42094	0.43731	0.079
Mof_H 	H 	0.1165	0.4028	0.4669	0.021
Mof_C 	C 	0.07786	0.50433	0.42767	-0.068
Mof_C 	C 	0.04064	0.48654	0.4628	-0.042
Mof_H 	H 	0.0284	0.4574	0.475	0.046
Mof_C 	C 	0.1896	0.6149	0.4627	-0.017
Mof_C 	C 	0.2109	0.5917	0.3583	-0.004
Mof_O 	O 	0.80867	0.6958	0.73601	-0.409
Mof_O 	O 	0.82172	0.72221	0.63996	-0.41
Mof_C 	C 	0.80945	0.72094	0.69394	0.373
Mof_C 	C 	0.79416	0.75259	0.7117	-0.133
Mof_C 	C 	0.79144	0.78009	0.66755	0.08
Mof_H 	H 	0.80007	0.77963	0.62743	0.022
Mof_C 	C 	0.77611	0.80766	0.68346	-0.161
Mof_H 	H 	0.77437	0.82563	0.65373	0.103
Mof_C 	C 	0.76333	0.80949	0.74239	0.122
Mof_C 	C 	0.76639	0.7824	0.78695	-0.158
Mof_H 	H 	0.75827	0.78333	0.82723	0.091
Mof_C 	C 	0.78154	0.75427	0.77064	0.079
Mof_H 	H 	0.78317	0.73613	0.80023	0.021
Mof_C 	C 	0.74453	0.83766	0.761	-0.068
Mof_C 	C 	0.70731	0.81987	0.79613	-0.042
Mof_H 	H 	0.69507	0.79073	0.80833	0.046
Mof_C 	C 	0.85627	0.94823	0.79603	-0.017
Mof_C 	C 	0.87757	0.92503	0.69163	-0.004
Mof_O 	O 	0.47533	0.02914	0.06935	-0.409
Mof_O 	O 	0.48838	0.05555	0.9733	-0.41
Mof_C 	C 	0.47611	0.05428	0.02728	0.373
Mof_C 	C 	0.46082	0.08593	0.04504	-0.133
Mof_C 	C 	0.4581	0.11343	0.00089	0.081
Mof_H 	H 	0.46673	0.11297	0.96077	0.021
Mof_C 	C 	0.44277	0.141	0.0168	-0.161
Mof_H 	H 	0.44103	0.15897	0.98707	0.103
Mof_C 	C 	0.42999	0.14283	0.07573	0.122
Mof_C 	C 	0.43305	0.11574	0.12029	-0.159
Mof_H 	H 	0.42493	0.11667	0.16057	0.091
Mof_C 	C 	0.4482	0.08761	0.10398	0.079
Mof_H 	H 	0.44983	0.06947	0.13357	0.021
Mof_C 	C 	0.41119	0.171	0.09434	-0.068
Mof_C 	C 	0.37397	0.15321	0.12947	-0.042
Mof_H 	H 	0.36173	0.12407	0.14167	0.046
Mof_C 	C 	0.52293	0.28157	0.12937	-0.017
Mof_C 	C 	0.54423	0.25837	0.02497	-0.004
Mof_O 	O 	0.77953	0.63753	0.59732	-0.409
Mof_O 	O 	0.76617	0.61112	0.69337	-0.409
Mof_C 	C 	0.75517	0.61239	0.63939	0.373
Mof_C 	C 	0.70823	0.58074	0.62163	-0.133
Mof_C 	C 	0.67801	0.55324	0.66578	0.08
Mof_H 	H 	0.6871	0.5537	0.7059	0.022
Mof_C 	C 	0.63511	0.52567	0.64987	-0.161
Mof_H 	H 	0.6154	0.5077	0.6796	0.103
Mof_C 	C 	0.6205	0.52384	0.59094	0.122
Mof_C 	C 	0.65065	0.55093	0.54638	-0.158
Mof_H 	H 	0.6416	0.55	0.5061	0.091
Mof_C 	C 	0.69393	0.57906	0.56269	0.079
Mof_H 	H 	0.7137	0.5972	0.5331	0.021
Mof_C 	C 	0.57353	0.49567	0.57233	-0.068
Mof_C 	C 	0.5541	0.51346	0.5372	-0.042
Mof_H 	H 	0.571	0.5426	0.525	0.046
Mof_C 	C 	0.5747	0.3851	0.5373	-0.017
Mof_C 	C 	0.6192	0.4083	0.6417	-0.004
Mof_O 	O 	0.4462	0.97086	0.93065	-0.409
Mof_O 	O 	0.43284	0.94445	0.0267	-0.41
Mof_C 	C 	0.42184	0.94572	0.97272	0.373
Mof_C 	C 	0.3749	0.91407	0.95496	-0.133
Mof_C 	C 	0.34468	0.88657	0.99911	0.081
Mof_H 	H 	0.35377	0.88703	0.03923	0.021
Mof_C 	C 	0.30178	0.859	0.9832	-0.16
Mof_H 	H 	0.28207	0.84103	0.01293	0.103
Mof_C 	C 	0.28717	0.85717	0.92427	0.122
Mof_C 	C 	0.31732	0.88426	0.87971	-0.158
Mof_H 	H 	0.30827	0.88333	0.83943	0.091
Mof_C 	C 	0.3606	0.91239	0.89602	0.079
Mof_H 	H 	0.38037	0.93053	0.86643	0.021
Mof_C 	C 	0.2402	0.829	0.90566	-0.068
Mof_C 	C 	0.22077	0.84679	0.87053	-0.042
Mof_H 	H 	0.23767	0.87593	0.85833	0.046
Mof_C 	C 	0.24137	0.71843	0.87063	-0.017
Mof_C 	C 	0.28587	0.74163	0.97503	-0.004
Mof_O 	O 	0.11286	0.3042	0.26399	-0.409
Mof_O 	O 	0.0995	0.27779	0.36004	-0.409
Mof_C 	C 	0.0885	0.27906	0.30606	0.373
Mof_C 	C 	0.04156	0.24741	0.2883	-0.132
Mof_C 	C 	0.01134	0.21991	0.33245	0.079
Mof_H 	H 	0.02043	0.22037	0.37257	0.022
Mof_C 	C 	0.96844	0.19234	0.31654	-0.16
Mof_H 	H 	0.94873	0.17437	0.34627	0.103
Mof_C 	C 	0.95383	0.19051	0.25761	0.121
Mof_C 	C 	0.98398	0.2176	0.21305	-0.158
Mof_H 	H 	0.97493	0.21667	0.17277	0.09
Mof_C 	C 	0.02726	0.24573	0.22936	0.078
Mof_H 	H 	0.04703	0.26387	0.19977	0.022
Mof_C 	C 	0.90686	0.16234	0.239	-0.068
Mof_C 	C 	0.88743	0.18013	0.20387	-0.042
Mof_H 	H 	0.90433	0.20927	0.19167	0.046
Mof_C 	C 	0.90803	0.05177	0.20397	-0.017
Mof_C 	C 	0.95253	0.07497	0.30837	-0.004
Mof_O 	O 	0.858	0.22047	0.59732	-0.409
Mof_O 	O 	0.84495	0.23383	0.69337	-0.41
Mof_C 	C 	0.85722	0.24483	0.63939	0.373
Mof_C 	C 	0.87251	0.29177	0.62163	-0.133
Mof_C 	C 	0.87523	0.32199	0.66578	0.08
Mof_H 	H 	0.8666	0.3129	0.7059	0.022
Mof_C 	C 	0.89056	0.36489	0.64987	-0.161
Mof_H 	H 	0.8923	0.3846	0.6796	0.103
Mof_C 	C 	0.90334	0.3795	0.59094	0.122
Mof_C 	C 	0.90028	0.34935	0.54638	-0.158
Mof_H 	H 	0.9084	0.3584	0.5061	0.091
Mof_C 	C 	0.88513	0.30607	0.56269	0.079
Mof_H 	H 	0.8835	0.2863	0.5331	0.021
Mof_C 	C 	0.92214	0.42647	0.57233	-0.068
Mof_C 	C 	0.95936	0.4459	0.5372	-0.042
Mof_H 	H 	0.9716	0.429	0.525	0.046
Mof_C 	C 	0.8104	0.4253	0.5373	-0.017
Mof_C 	C 	0.7891	0.3808	0.6417	-0.004
Mof_O 	O 	0.52467	0.5538	0.93065	-0.409
Mof_O 	O 	0.51162	0.56716	0.0267	-0.41
Mof_C 	C 	0.52389	0.57816	0.97272	0.373
Mof_C 	C 	0.53918	0.6251	0.95496	-0.133
Mof_C 	C 	0.5419	0.65532	0.99911	0.08
Mof_H 	H 	0.53327	0.64623	0.03923	0.022
Mof_C 	C 	0.55723	0.69822	0.9832	-0.161
Mof_H 	H 	0.55897	0.71793	0.01293	0.103
Mof_C 	C 	0.57001	0.71283	0.92427	0.122
Mof_C 	C 	0.56695	0.68268	0.87971	-0.158
Mof_H 	H 	0.57507	0.69173	0.83943	0.091
Mof_C 	C 	0.5518	0.6394	0.89602	0.079
Mof_H 	H 	0.55017	0.61963	0.86643	0.021
Mof_C 	C 	0.58881	0.7598	0.90566	-0.068
Mof_C 	C 	0.62603	0.77923	0.87053	-0.042
Mof_H 	H 	0.63827	0.76233	0.85833	0.046
Mof_C 	C 	0.47707	0.75863	0.87063	-0.017
Mof_C 	C 	0.45577	0.71413	0.97503	-0.004
Mof_O 	O 	0.19133	0.88714	0.26399	-0.409
Mof_O 	O 	0.17828	0.9005	0.36004	-0.409
Mof_C 	C 	0.19055	0.9115	0.30606	0.373
Mof_C 	C 	0.20584	0.95844	0.2883	-0.132
Mof_C 	C 	0.20856	0.98866	0.33245	0.08
Mof_H 	H 	0.19993	0.97957	0.37257	0.022
Mof_C 	C 	0.22389	0.03156	0.31654	-0.16
Mof_H 	H 	0.22563	0.05127	0.34627	0.103
Mof_C 	C 	0.23667	0.04617	0.25761	0.122
Mof_C 	C 	0.23361	0.01602	0.21305	-0.158
Mof_H 	H 	0.24173	0.02507	0.17277	0.09
Mof_C 	C 	0.21846	0.97274	0.22936	0.078
Mof_H 	H 	0.21683	0.95297	0.19977	0.022
Mof_C 	C 	0.25547	0.09314	0.239	-0.068
Mof_C 	C 	0.29269	0.11257	0.20387	-0.042
Mof_H 	H 	0.30493	0.09567	0.19167	0.046
Mof_C 	C 	0.14373	0.09197	0.20397	-0.017
Mof_C 	C 	0.12243	0.04747	0.30837	-0.004
Mof_O 	O 	0.36247	0.142	0.59732	-0.409
Mof_O 	O 	0.38888	0.15505	0.69337	-0.409
Mof_C 	C 	0.38761	0.14278	0.63939	0.373
Mof_C 	C 	0.41926	0.12749	0.62163	-0.133
Mof_C 	C 	0.44676	0.12477	0.66578	0.08
Mof_H 	H 	0.4463	0.1334	0.7059	0.022
Mof_C 	C 	0.47433	0.10944	0.64987	-0.161
Mof_H 	H 	0.4923	0.1077	0.6796	0.103
Mof_C 	C 	0.47616	0.09666	0.59094	0.122
Mof_C 	C 	0.44907	0.09972	0.54638	-0.158
Mof_H 	H 	0.45	0.0916	0.5061	0.091
Mof_C 	C 	0.42094	0.11487	0.56269	0.079
Mof_H 	H 	0.4028	0.1165	0.5331	0.021
Mof_C 	C 	0.50433	0.07786	0.57233	-0.068
Mof_C 	C 	0.48654	0.04064	0.5372	-0.042
Mof_H 	H 	0.4574	0.0284	0.525	0.046
Mof_C 	C 	0.6149	0.1896	0.5373	-0.017
Mof_C 	C 	0.5917	0.2109	0.6417	-0.004
Mof_O 	O 	0.02914	0.47533	0.93065	-0.409
Mof_O 	O 	0.05555	0.48838	0.0267	-0.41
Mof_C 	C 	0.05428	0.47611	0.97272	0.373
Mof_C 	C 	0.08593	0.46082	0.95496	-0.133
Mof_C 	C 	0.11343	0.4581	0.99911	0.081
Mof_H 	H 	0.11297	0.46673	0.03923	0.021
Mof_C 	C 	0.141	0.44277	0.9832	-0.161
Mof_H 	H 	0.15897	0.44103	0.01293	0.103
Mof_C 	C 	0.14283	0.42999	0.92427	0.122
Mof_C 	C 	0.11574	0.43305	0.87971	-0.159
Mof_H 	H 	0.11667	0.42493	0.83943	0.091
Mof_C 	C 	0.08761	0.4482	0.89602	0.079
Mof_H 	H 	0.06947	0.44983	0.86643	0.021
Mof_C 	C 	0.171	0.41119	0.90566	-0.068
Mof_C 	C 	0.15321	0.37397	0.87053	-0.042
Mof_H 	H 	0.12407	0.36173	0.85833	0.046
Mof_C 	C 	0.28157	0.52293	0.87063	-0.017
Mof_C 	C 	0.25837	0.54423	0.97503	-0.004
Mof_O 	O 	0.6958	0.80867	0.26399	-0.409
Mof_O 	O 	0.72221	0.82172	0.36004	-0.41
Mof_C 	C 	0.72094	0.80945	0.30606	0.373
Mof_C 	C 	0.75259	0.79416	0.2883	-0.133
Mof_C 	C 	0.78009	0.79144	0.33245	0.08
Mof_H 	H 	0.77963	0.80007	0.37257	0.022
Mof_C 	C 	0.80766	0.77611	0.31654	-0.161
Mof_H 	H 	0.82563	0.77437	0.34627	0.103
Mof_C 	C 	0.80949	0.76333	0.25761	0.122
Mof_C 	C 	0.7824	0.76639	0.21305	-0.158
Mof_H 	H 	0.78333	0.75827	0.17277	0.091
Mof_C 	C 	0.75427	0.78154	0.22936	0.079
Mof_H 	H 	0.73613	0.78317	0.19977	0.021
Mof_C 	C 	0.83766	0.74453	0.239	-0.068
Mof_C 	C 	0.81987	0.70731	0.20387	-0.042
Mof_H 	H 	0.79073	0.69507	0.19167	0.046
Mof_C 	C 	0.94823	0.85627	0.20397	-0.017
Mof_C 	C 	0.92503	0.87757	0.30837	-0.004
Mof_Cu	Cu	0.31799	0.159	0.61004	0.906
Mof_Cu	Cu	0.98466	0.49233	0.94337	0.906
Mof_Cu	Cu	0.65132	0.82566	0.27671	0.906
Mof_Cu	Cu	0.841	0.159	0.61004	0.906
Mof_Cu	Cu	0.50767	0.49233	0.94337	0.906
Mof_Cu	Cu	0.17434	0.82566	0.27671	0.906
Mof_Cu	Cu	0.841	0.68201	0.61004	0.906
Mof_Cu	Cu	0.50767	0.01534	0.94337	0.906
Mof_Cu	Cu	0.17434	0.34868	0.27671	0.906
Mof_Cu	Cu	0.159	0.31799	0.38996	0.906
Mof_Cu	Cu	0.82566	0.65132	0.72329	0.906
Mof_Cu	Cu	0.49233	0.98466	0.05663	0.906
Mof_Cu	Cu	0.159	0.841	0.38996	0.906
Mof_Cu	Cu	0.82566	0.17434	0.72329	0.906
Mof_Cu	Cu	0.49233	0.50767	0.05663	0.906
Mof_Cu	Cu	0.68201	0.841	0.38996	0.906
Mof_Cu	Cu	0.34868	0.17434	0.72329	0.906
Mof_Cu	Cu	0.01534	0.50767	0.05663	0.906
Mof_O 	O 	0.56732	0.43268	0.62615	-0.218
Mof_C 	C 	0.51004	0.48996	0.5187	0.007
Mof_C 	C 	0.54845	0.45155	0.5895	0.137
Mof_C 	C 	0.58852	0.41148	0.5943	0.099
Mof_O 	O 	0.23399	0.76601	0.95948	-0.218
Mof_C 	C 	0.17671	0.82329	0.85203	0.007
Mof_C 	C 	0.21512	0.78488	0.92283	0.137
Mof_C 	C 	0.25519	0.74481	0.92763	0.099
Mof_O 	O 	0.90065	0.09935	0.29282	-0.218
Mof_C 	C 	0.84337	0.15663	0.18537	0.007
Mof_C 	C 	0.88178	0.11822	0.25617	0.137
Mof_C 	C 	0.92185	0.07815	0.26097	0.099
Mof_O 	O 	0.56732	0.13464	0.62615	-0.218
Mof_C 	C 	0.51004	0.02008	0.5187	0.007
Mof_C 	C 	0.54845	0.0969	0.5895	0.137
Mof_C 	C 	0.58852	0.17704	0.5943	0.099
Mof_O 	O 	0.23399	0.46797	0.95948	-0.218
Mof_C 	C 	0.17671	0.35341	0.85203	0.007
Mof_C 	C 	0.21512	0.43023	0.92283	0.137
Mof_C 	C 	0.25519	0.51037	0.92763	0.099
Mof_O 	O 	0.90065	0.80131	0.29282	-0.218
Mof_C 	C 	0.84337	0.68675	0.18537	0.007
Mof_C 	C 	0.88178	0.76357	0.25617	0.137
Mof_C 	C 	0.92185	0.84371	0.26097	0.099
Mof_O 	O 	0.86536	0.43268	0.62615	-0.218
Mof_C 	C 	0.97992	0.48996	0.5187	0.007
Mof_C 	C 	0.9031	0.45155	0.5895	0.137
Mof_C 	C 	0.82296	0.41148	0.5943	0.099
Mof_O 	O 	0.53203	0.76601	0.95948	-0.218
Mof_C 	C 	0.64659	0.82329	0.85203	0.007
Mof_C 	C 	0.56977	0.78488	0.92283	0.137
Mof_C 	C 	0.48963	0.74481	0.92763	0.099
Mof_O 	O 	0.19869	0.09935	0.29282	-0.218
Mof_C 	C 	0.31325	0.15663	0.18537	0.007
Mof_C 	C 	0.23643	0.11822	0.25617	0.137
Mof_C 	C 	0.15629	0.07815	0.26097	0.099
Mof_O 	O 	0.43268	0.56732	0.37385	-0.218
Mof_C 	C 	0.48996	0.51004	0.4813	0.007
Mof_C 	C 	0.45155	0.54845	0.4105	0.137
Mof_C 	C 	0.41148	0.58852	0.4057	0.099
Mof_O 	O 	0.09935	0.90065	0.70718	-0.218
Mof_C 	C 	0.15663	0.84337	0.81463	0.007
Mof_C 	C 	0.11822	0.88178	0.74383	0.137
Mof_C 	C 	0.07815	0.92185	0.73903	0.099
Mof_O 	O 	0.76601	0.23399	0.04052	-0.218
Mof_C 	C 	0.82329	0.17671	0.14797	0.007
Mof_C 	C 	0.78488	0.21512	0.07717	0.137
Mof_C 	C 	0.74481	0.25519	0.07237	0.099
Mof_O 	O 	0.13464	0.56732	0.37385	-0.218
Mof_C 	C 	0.02008	0.51004	0.4813	0.007
Mof_C 	C 	0.0969	0.54845	0.4105	0.137
Mof_C 	C 	0.17704	0.58852	0.4057	0.099
Mof_O 	O 	0.80131	0.90065	0.70718	-0.218
Mof_C 	C 	0.68675	0.84337	0.81463	0.007
Mof_C 	C 	0.76357	0.88178	0.74383	0.137
Mof_C 	C 	0.84371	0.92185	0.73903	0.099
Mof_O 	O 	0.46797	0.23399	0.04052	-0.218
Mof_C 	C 	0.35341	0.17671	0.14797	0.007
Mof_C 	C 	0.43023	0.21512	0.07717	0.137
Mof_C 	C 	0.51037	0.25519	0.07237	0.099
Mof_O 	O 	0.43268	0.86536	0.37385	-0.218
Mof_C 	C 	0.48996	0.97992	0.4813	0.007
Mof_C 	C 	0.45155	0.9031	0.4105	0.137
Mof_C 	C 	0.41148	0.82296	0.4057	0.099
Mof_O 	O 	0.09935	0.19869	0.70718	-0.218
Mof_C 	C 	0.15663	0.31325	0.81463	0.007
Mof_C 	C 	0.11822	0.23643	0.74383	0.137
Mof_C 	C 	0.07815	0.15629	0.73903	0.099
Mof_O 	O 	0.76601	0.53203	0.04052	-0.218
Mof_C 	C 	0.82329	0.64659	0.14797	0.007
Mof_C 	C 	0.78488	0.56977	0.07717	0.137
Mof_C 	C 	0.74481	0.48963	0.07237	0.099
_end
