# CIF file generated by openbabel 3.1.0, see https://openbabel.org
data_I
_chemical_name_common 'image0'
_cell_length_a 9.8187
_cell_length_b 17.6398
_cell_length_c 12.0712
_cell_angle_alpha 90
_cell_angle_beta 97.582
_cell_angle_gamma 90
_space_group_name_H-M_alt 'P 1'
_space_group_name_Hall 'P 1'
loop_
    _symmetry_equiv_pos_as_xyz
    x,y,z
loop_
    _atom_site_label
    _atom_site_type_symbol
    _atom_site_fract_x
    _atom_site_fract_y
    _atom_site_fract_z
    _atom_site_occupancy
    C1       C        0.32420    0.08330    0.18580    1.000
    C2       C        0.83530    0.12940    0.21760    1.000
    C3       C        0.57880    0.10810    0.20280    1.000
    H1       H        0.58950    0.06130    0.16590    1.000
    C4       C        0.44930    0.13080    0.22410    1.000
    C5       C        0.69300    0.15350    0.23550    1.000
    C6       C        0.43370    0.19910    0.27960    1.000
    H2       H        0.34610    0.21430    0.29700    1.000
    C7       C        0.67680    0.22300    0.28750    1.000
    H3       H        0.75340    0.25530    0.30800    1.000
    C8       C        0.54720    0.24390    0.30860    1.000
    C9       C        0.61740    0.26690    0.55690    1.000
    H4       H        0.71640    0.26190    0.55450    1.000
    H5       H        0.57190    0.21860    0.53560    1.000
    H6       H        0.60120    0.28050    0.63280    1.000
    C10      C        0.56100    0.32700    0.47790    1.000
    C11      C        0.48540    0.38270    0.32070    1.000
    C12      C        0.44120    0.40250    0.20350    1.000
    C13      C        0.38290    0.37300    0.02210    1.000
    H7       H        0.37740    0.33760    0.96240    1.000
    C14      C        0.34000    0.44650    0.99920    1.000
    H8       H        0.30050    0.46150    0.92640    1.000
    C15      C        0.35720    0.49750    0.08690    1.000
    H9       H        0.33050    0.54890    0.07390    1.000
    N1       N        0.53110    0.31504    0.36480    1.000
    N2       N        0.53420    0.39778    0.50040    1.000
    N3       N        0.48590    0.43318    0.40080    1.000
    N4       N        0.41060    0.47612    0.18960    1.000
    N5       N        0.43190    0.34950    0.12550    1.000
    O1       O        0.33340    0.02942    0.12050    1.000
    O2       O        0.21430    0.10366    0.22100    1.000
    O3       O        0.85090    0.06312    0.18140    1.000
    O4       O        0.93230    0.17290    0.24170    1.000
    Zn1      Zn       0.45128    0.54668    0.34360    1.000
    C16      C        0.17580    0.58330    0.31420    1.000
    C17      C        0.66470    0.62940    0.28240    1.000
    C18      C        0.92120    0.60810    0.29720    1.000
    H10      H        0.91050    0.56130    0.33410    1.000
    C19      C        0.05070    0.63080    0.27590    1.000
    C20      C        0.80700    0.65350    0.26450    1.000
    C21      C        0.06630    0.69910    0.22040    1.000
    H11      H        0.15390    0.71430    0.20300    1.000
    C22      C        0.82320    0.72300    0.21250    1.000
    H12      H        0.74660    0.75530    0.19200    1.000
    C23      C        0.95280    0.74390    0.19140    1.000
    C24      C        0.88260    0.76690    0.94310    1.000
    H13      H        0.78360    0.76190    0.94550    1.000
    H14      H        0.92810    0.71860    0.96440    1.000
    H15      H        0.89880    0.78050    0.86720    1.000
    C25      C        0.93900    0.82700    0.02210    1.000
    C26      C        0.01460    0.88270    0.17930    1.000
    C27      C        0.05880    0.90250    0.29650    1.000
    C28      C        0.11710    0.87300    0.47790    1.000
    H16      H        0.12260    0.83760    0.53760    1.000
    C29      C        0.16000    0.94650    0.50080    1.000
    H17      H        0.19950    0.96150    0.57360    1.000
    C30      C        0.14280    0.99750    0.41310    1.000
    H18      H        0.16950    0.04890    0.42610    1.000
    N6       N        0.96890    0.81504    0.13520    1.000
    N7       N        0.96580    0.89778    0.99960    1.000
    N8       N        0.01410    0.93318    0.09920    1.000
    N9       N        0.08940    0.97612    0.31040    1.000
    N10      N        0.06810    0.84950    0.37450    1.000
    O5       O        0.16660    0.52942    0.37950    1.000
    O6       O        0.28570    0.60366    0.27900    1.000
    O7       O        0.64910    0.56312    0.31860    1.000
    O8       O        0.56770    0.67290    0.25830    1.000
    Zn2      Zn       0.04872    0.04668    0.15640    1.000
    C31      C        0.67580    0.91670    0.81420    1.000
    C32      C        0.16470    0.87060    0.78240    1.000
    C33      C        0.42120    0.89190    0.79720    1.000
    H19      H        0.41050    0.93870    0.83410    1.000
    C34      C        0.55070    0.86920    0.77590    1.000
    C35      C        0.30700    0.84650    0.76450    1.000
    C36      C        0.56630    0.80090    0.72040    1.000
    H20      H        0.65390    0.78570    0.70300    1.000
    C37      C        0.32320    0.77700    0.71250    1.000
    H21      H        0.24660    0.74470    0.69200    1.000
    C38      C        0.45280    0.75610    0.69140    1.000
    C39      C        0.38260    0.73310    0.44310    1.000
    H22      H        0.28360    0.73810    0.44550    1.000
    H23      H        0.42810    0.78140    0.46440    1.000
    H24      H        0.39880    0.71950    0.36720    1.000
    C40      C        0.43900    0.67300    0.52210    1.000
    C41      C        0.51460    0.61730    0.67930    1.000
    C42      C        0.55880    0.59750    0.79650    1.000
    C43      C        0.61710    0.62700    0.97790    1.000
    H25      H        0.62260    0.66240    0.03760    1.000
    C44      C        0.66000    0.55350    0.00080    1.000
    H26      H        0.69950    0.53850    0.07360    1.000
    C45      C        0.64280    0.50250    0.91310    1.000
    H27      H        0.66950    0.45110    0.92610    1.000
    N11      N        0.46890    0.68496    0.63520    1.000
    N12      N        0.46580    0.60222    0.49960    1.000
    N13      N        0.51410    0.56682    0.59920    1.000
    N14      N        0.58940    0.52388    0.81040    1.000
    N15      N        0.56810    0.65050    0.87450    1.000
    O9       O        0.66660    0.97058    0.87950    1.000
    O10      O        0.78570    0.89634    0.77900    1.000
    O11      O        0.14910    0.93688    0.81860    1.000
    O12      O        0.06770    0.82710    0.75830    1.000
    Zn3      Zn       0.54872    0.45332    0.65640    1.000
    C46      C        0.82420    0.41670    0.68580    1.000
    C47      C        0.33530    0.37060    0.71760    1.000
    C48      C        0.07880    0.39190    0.70280    1.000
    H28      H        0.08950    0.43870    0.66590    1.000
    C49      C        0.94930    0.36920    0.72410    1.000
    C50      C        0.19300    0.34650    0.73550    1.000
    C51      C        0.93370    0.30090    0.77960    1.000
    H29      H        0.84610    0.28570    0.79700    1.000
    C52      C        0.17680    0.27700    0.78750    1.000
    H30      H        0.25340    0.24470    0.80800    1.000
    C53      C        0.04720    0.25610    0.80860    1.000
    C54      C        0.11740    0.23310    0.05690    1.000
    H31      H        0.21640    0.23810    0.05450    1.000
    H32      H        0.07190    0.28140    0.03560    1.000
    H33      H        0.10120    0.21950    0.13280    1.000
    C55      C        0.06100    0.17300    0.97790    1.000
    C56      C        0.98540    0.11730    0.82070    1.000
    C57      C        0.94120    0.09750    0.70350    1.000
    C58      C        0.88290    0.12700    0.52210    1.000
    H34      H        0.87740    0.16240    0.46240    1.000
    C59      C        0.84000    0.05350    0.49920    1.000
    H35      H        0.80050    0.03850    0.42640    1.000
    C60      C        0.85720    0.00250    0.58690    1.000
    H36      H        0.83050    0.95110    0.57390    1.000
    N16      N        0.03110    0.18496    0.86480    1.000
    N17      N        0.03420    0.10222    0.00040    1.000
    N18      N        0.98590    0.06682    0.90080    1.000
    N19      N        0.91060    0.02388    0.68960    1.000
    N20      N        0.93190    0.15050    0.62550    1.000
    O13      O        0.83340    0.47058    0.62050    1.000
    O14      O        0.71430    0.39634    0.72100    1.000
    O15      O        0.35090    0.43688    0.68140    1.000
    O16      O        0.43230    0.32710    0.74170    1.000
    Zn4      Zn       0.95128    0.95332    0.84360    1.000
