data_functionalizedCrystal
_audit_creation_method	'EQeq! by Chris Wilmer'
_symmetry_space_group_name_H-M	'P1'
_symmetry_Int_Tables_number	1
_symmetry_cell_setting	triclinic
loop_
_symmetry_equiv_pos_as_xyz
  x,y,z
_cell_length_a	8.7734
_cell_length_b	33.8944
_cell_length_c	8.7281
_cell_angle_alpha	90
_cell_angle_beta	107.797
_cell_angle_gamma	90
loop_
_atom_site_label
_atom_site_type_symbol
_atom_site_fract_x
_atom_site_fract_y
_atom_site_fract_z
_atom_site_charge
Mof_Cu	Cu	0.75056	0.20372	0.48856	0.95
Mof_Cu	Cu	0.74113	0.04579	0.5002	0.949
Mof_O 	O 	0.89244	0.15477	0.61621	-0.26
Mof_O 	O 	0.85556	0.09036	0.6293	-0.289
Mof_O 	O 	0.62154	0.15983	0.36632	-0.288
Mof_O 	O 	0.6149	0.09454	0.34932	-0.258
Mof_O 	O 	0.62403	0.20725	0.65175	-0.27
Mof_O 	O 	0.59784	0.24939	0.83652	-0.251
Mof_O 	O 	0.87777	0.24605	0.62641	-0.292
Mof_O 	O 	0.86507	0.28762	0.8191	-0.282
Mof_O 	O 	0.90992	0.04026	0.38102	-0.272
Mof_O 	O 	0.0915	0.99841	0.3487	-0.254
Mof_O 	O 	0.57251	0.04115	0.61871	-0.278
Mof_O 	O 	0.38116	0.99889	0.6272	-0.291
Mof_C 	C 	0.8202	0.12374	0.5667	0.23
Mof_C 	C 	0.6714	0.1259	0.4131	0.234
Mof_C 	C 	0.8163	0.25898	0.729	0.24
Mof_C 	C 	0.6662	0.23696	0.7424	0.218
Mof_C 	C 	0.0019	0.01076	0.4217	0.231
Mof_C 	C 	0.4866	0.01163	0.5713	0.228
Mof_Cu	Cu	0.24944	0.70372	0.01144	0.946
Mof_Cu	Cu	0.25887	0.54579	0.9998	0.949
Mof_O 	O 	0.10756	0.65477	0.88379	-0.258
Mof_O 	O 	0.14444	0.59036	0.8707	-0.29
Mof_O 	O 	0.37846	0.65983	0.13368	-0.29
Mof_O 	O 	0.3851	0.59454	0.15068	-0.259
Mof_O 	O 	0.37597	0.70725	0.84825	-0.267
Mof_O 	O 	0.40216	0.74939	0.66348	-0.248
Mof_O 	O 	0.12223	0.74605	0.87359	-0.288
Mof_O 	O 	0.13493	0.78762	0.6809	-0.28
Mof_O 	O 	0.09008	0.54026	0.11898	-0.272
Mof_O 	O 	0.9085	0.49841	0.1513	-0.254
Mof_O 	O 	0.42749	0.54115	0.88129	-0.277
Mof_O 	O 	0.61884	0.49889	0.8728	-0.29
Mof_C 	C 	0.1798	0.62374	0.9333	0.235
Mof_C 	C 	0.3286	0.6259	0.0869	0.23
Mof_C 	C 	0.1837	0.75898	0.771	0.241
Mof_C 	C 	0.3338	0.73696	0.7576	0.219
Mof_C 	C 	0.9981	0.51076	0.0783	0.232
Mof_C 	C 	0.5134	0.51163	0.9287	0.229
Mof_Cu	Cu	0.24944	0.79628	0.51144	0.949
Mof_Cu	Cu	0.25887	0.95421	0.4998	0.948
Mof_O 	O 	0.10756	0.84523	0.38379	-0.261
Mof_O 	O 	0.14444	0.90964	0.3707	-0.29
Mof_O 	O 	0.37846	0.84017	0.63368	-0.289
Mof_O 	O 	0.3851	0.90546	0.65068	-0.259
Mof_O 	O 	0.37597	0.79275	0.34825	-0.27
Mof_O 	O 	0.40216	0.75061	0.16348	-0.251
Mof_O 	O 	0.12223	0.75395	0.37359	-0.292
Mof_O 	O 	0.13493	0.71238	0.1809	-0.282
Mof_O 	O 	0.09008	0.95974	0.61898	-0.272
Mof_O 	O 	0.9085	0.00159	0.6513	-0.254
Mof_O 	O 	0.42749	0.95885	0.38129	-0.278
Mof_O 	O 	0.61884	0.00111	0.3728	-0.291
Mof_C 	C 	0.1798	0.87626	0.4333	0.23
Mof_C 	C 	0.3286	0.8741	0.5869	0.234
Mof_C 	C 	0.1837	0.74102	0.271	0.24
Mof_C 	C 	0.3338	0.76304	0.2576	0.218
Mof_C 	C 	0.9981	0.98924	0.5783	0.231
Mof_C 	C 	0.5134	0.98837	0.4287	0.228
Mof_Cu	Cu	0.75056	0.29628	0.98856	0.946
Mof_Cu	Cu	0.74113	0.45421	0.0002	0.949
Mof_O 	O 	0.89244	0.34523	0.11621	-0.258
Mof_O 	O 	0.85556	0.40964	0.1293	-0.29
Mof_O 	O 	0.62154	0.34017	0.86632	-0.29
Mof_O 	O 	0.6149	0.40546	0.84932	-0.259
Mof_O 	O 	0.62403	0.29275	0.15175	-0.267
Mof_O 	O 	0.59784	0.25061	0.33652	-0.248
Mof_O 	O 	0.87777	0.25395	0.12641	-0.288
Mof_O 	O 	0.86507	0.21238	0.3191	-0.28
Mof_O 	O 	0.90992	0.45974	0.88102	-0.272
Mof_O 	O 	0.0915	0.50159	0.8487	-0.254
Mof_O 	O 	0.57251	0.45885	0.11871	-0.277
Mof_O 	O 	0.38116	0.50111	0.1272	-0.29
Mof_C 	C 	0.8202	0.37626	0.0667	0.235
Mof_C 	C 	0.6714	0.3741	0.9131	0.23
Mof_C 	C 	0.8163	0.24102	0.229	0.241
Mof_C 	C 	0.6662	0.26304	0.2424	0.219
Mof_C 	C 	0.0019	0.48924	0.9217	0.232
Mof_C 	C 	0.4866	0.48837	0.0713	0.229
_end
