data_functionalizedCrystal
_audit_creation_method	'EQeq! by Chris Wilmer'
_symmetry_space_group_name_H-M	'P1'
_symmetry_Int_Tables_number	1
_symmetry_cell_setting	triclinic
loop_
_symmetry_equiv_pos_as_xyz
  x,y,z
_cell_length_a	5.6437
_cell_length_b	9.1507
_cell_length_c	12.8357
_cell_angle_alpha	90
_cell_angle_beta	90
_cell_angle_gamma	95.892
loop_
_atom_site_label
_atom_site_type_symbol
_atom_site_fract_x
_atom_site_fract_y
_atom_site_fract_z
_atom_site_charge
Mof_Cu	Cu	0.01236	0.53936	0.11172	0.935
Mof_Cu	Cu	0.98764	0.96064	0.61172	0.982
Mof_Cu	Cu	0.98764	0.46064	0.88828	0.96
Mof_Cu	Cu	0.01236	0.03936	0.38828	0.915
Mof_Cu	Cu	0.5	9.57091e-33	0.5	0.896
Mof_Cu	Cu	0.5	0.5	-0	0.893
Mof_H 	H 	0.777	0.839	0.467	0.433
Mof_H 	H 	0.223	0.661	0.967	0.464
Mof_H 	H 	0.223	0.161	0.533	0.475
Mof_H 	H 	0.777	0.339	0.033	0.443
Mof_C 	C 	0.3667	0.7586	0.21143	0.082
Mof_C 	C 	0.46	0.8605	0.29159	0.088
Mof_C 	C 	0.6939	0.8748	0.24292	0.067
Mof_C 	C 	0.6051	0.7674	0.16248	0.081
Mof_C 	C 	0.6333	0.7414	0.71143	0.099
Mof_C 	C 	0.54	0.6395	0.79159	0.08
Mof_C 	C 	0.3061	0.6252	0.74292	0.074
Mof_C 	C 	0.3949	0.7326	0.66248	0.083
Mof_C 	C 	0.6333	0.2414	0.78857	0.09
Mof_C 	C 	0.54	0.1395	0.70841	0.069
Mof_C 	C 	0.3061	0.1252	0.75708	0.065
Mof_C 	C 	0.3949	0.2326	0.83752	0.073
Mof_C 	C 	0.3667	0.2586	0.28857	0.072
Mof_C 	C 	0.46	0.3605	0.20841	0.078
Mof_C 	C 	0.6939	0.3748	0.25708	0.057
Mof_C 	C 	0.6051	0.2674	0.33752	0.071
Mof_O 	O 	0.1635	0.6946	0.19792	-0.305
Mof_O 	O 	0.362	0.9094	0.37197	-0.322
Mof_O 	O 	0.8916	0.9479	0.25912	-0.262
Mof_O 	O 	0.6952	0.7069	0.08709	-0.331
Mof_O 	O 	0.8059	0.91582	0.4829	-0.847
Mof_O 	O 	0.8365	0.8054	0.69792	-0.288
Mof_O 	O 	0.638	0.5906	0.87197	-0.328
Mof_O 	O 	0.1084	0.5521	0.75912	-0.282
Mof_O 	O 	0.3048	0.7931	0.58709	-0.281
Mof_O 	O 	0.1941	0.58418	0.9829	-0.838
Mof_O 	O 	0.8365	0.3054	0.80208	-0.305
Mof_O 	O 	0.638	0.0906	0.62803	-0.392
Mof_O 	O 	0.1084	0.0521	0.74088	-0.319
Mof_O 	O 	0.3048	0.2931	0.91291	-0.271
Mof_O 	O 	0.1941	0.08418	0.5171	-0.959
Mof_O 	O 	0.1635	0.1946	0.30208	-0.324
Mof_O 	O 	0.362	0.4094	0.12803	-0.389
Mof_O 	O 	0.8916	0.4479	0.24088	-0.298
Mof_O 	O 	0.6952	0.2069	0.41291	-0.324
Mof_O 	O 	0.8059	0.41582	0.0171	-0.96
_end
