# CIF file generated by openbabel 3.1.0, see https://openbabel.org
data_I
_chemical_name_common 'image0'
_cell_length_a 29.6337
_cell_length_b 29.6337
_cell_length_c 3.4913
_cell_angle_alpha 90
_cell_angle_beta 90
_cell_angle_gamma 90
_space_group_name_H-M_alt 'P 1'
_space_group_name_Hall 'P 1'
loop_
    _symmetry_equiv_pos_as_xyz
    x,y,z
loop_
    _atom_site_label
    _atom_site_type_symbol
    _atom_site_fract_x
    _atom_site_fract_y
    _atom_site_fract_z
    _atom_site_occupancy
    N1       N        0.38199    0.27318    0.31190    1.000
    N2       N        0.32940    0.33060    0.46900    1.000
    H1       H        0.34810    0.35130    0.40200    1.000
    H2       H        0.30310    0.33780    0.55300    1.000
    C1       C        0.34173    0.28520    0.44050    1.000
    H3       H        0.33260    0.31500    0.46790    1.000
    N3       N        0.88199    0.77318    0.81190    1.000
    N4       N        0.82940    0.83060    0.96900    1.000
    H4       H        0.84810    0.85130    0.90200    1.000
    H5       H        0.80310    0.83780    0.05300    1.000
    C2       C        0.84173    0.78520    0.94050    1.000
    H6       H        0.83260    0.81500    0.96790    1.000
    N5       N        0.11801    0.72682    0.81190    1.000
    N6       N        0.17060    0.66940    0.96900    1.000
    H7       H        0.15190    0.64870    0.90200    1.000
    H8       H        0.19690    0.66220    0.05300    1.000
    C3       C        0.15827    0.71480    0.94050    1.000
    H9       H        0.16740    0.68500    0.96790    1.000
    N7       N        0.61801    0.22682    0.31190    1.000
    N8       N        0.67060    0.16940    0.46900    1.000
    H10      H        0.65190    0.14870    0.40200    1.000
    H11      H        0.69690    0.16220    0.55300    1.000
    C4       C        0.65827    0.21480    0.44050    1.000
    H12      H        0.66740    0.18500    0.46790    1.000
    N9       N        0.97682    0.13199    0.56190    1.000
    N10      N        0.91940    0.07940    0.71900    1.000
    H13      H        0.89870    0.09810    0.65200    1.000
    H14      H        0.91220    0.05310    0.80300    1.000
    C5       C        0.96480    0.09173    0.69050    1.000
    H15      H        0.93500    0.08260    0.71790    1.000
    N11      N        0.47682    0.63199    0.06190    1.000
    N12      N        0.41940    0.57940    0.21900    1.000
    H16      H        0.39870    0.59810    0.15200    1.000
    H17      H        0.41220    0.55310    0.30300    1.000
    C6       C        0.46480    0.59173    0.19050    1.000
    H18      H        0.43500    0.58260    0.21790    1.000
    N13      N        0.52318    0.86801    0.06190    1.000
    N14      N        0.58060    0.92060    0.21900    1.000
    H19      H        0.60130    0.90190    0.15200    1.000
    H20      H        0.58780    0.94690    0.30300    1.000
    C7       C        0.53520    0.90827    0.19050    1.000
    H21      H        0.56500    0.91740    0.21790    1.000
    N15      N        0.02318    0.36801    0.56190    1.000
    N16      N        0.08060    0.42060    0.71900    1.000
    H22      H        0.10130    0.40190    0.65200    1.000
    H23      H        0.08780    0.44690    0.80300    1.000
    C8       C        0.03520    0.40827    0.69050    1.000
    H24      H        0.06500    0.41740    0.71790    1.000
    N17      N        0.11801    0.27318    0.18810    1.000
    N18      N        0.17060    0.33060    0.03100    1.000
    H25      H        0.15190    0.35130    0.09800    1.000
    H26      H        0.19690    0.33780    0.94700    1.000
    C9       C        0.15827    0.28520    0.05950    1.000
    H27      H        0.16740    0.31500    0.03210    1.000
    N19      N        0.61801    0.77318    0.68810    1.000
    N20      N        0.67060    0.83060    0.53100    1.000
    H28      H        0.65190    0.85130    0.59800    1.000
    H29      H        0.69690    0.83780    0.44700    1.000
    C10      C        0.65827    0.78520    0.55950    1.000
    H30      H        0.66740    0.81500    0.53210    1.000
    N21      N        0.38199    0.72682    0.68810    1.000
    N22      N        0.32940    0.66940    0.53100    1.000
    H31      H        0.34810    0.64870    0.59800    1.000
    H32      H        0.30310    0.66220    0.44700    1.000
    C11      C        0.34173    0.71480    0.55950    1.000
    H33      H        0.33260    0.68500    0.53210    1.000
    N23      N        0.88199    0.22682    0.18810    1.000
    N24      N        0.82940    0.16940    0.03100    1.000
    H34      H        0.84810    0.14870    0.09800    1.000
    H35      H        0.80310    0.16220    0.94700    1.000
    C12      C        0.84173    0.21480    0.05950    1.000
    H36      H        0.83260    0.18500    0.03210    1.000
    N25      N        0.52318    0.13199    0.93810    1.000
    N26      N        0.58060    0.07940    0.78100    1.000
    H37      H        0.60130    0.09810    0.84800    1.000
    H38      H        0.58780    0.05310    0.69700    1.000
    C13      C        0.53520    0.09173    0.80950    1.000
    H39      H        0.56500    0.08260    0.78210    1.000
    N27      N        0.02318    0.63199    0.43810    1.000
    N28      N        0.08060    0.57940    0.28100    1.000
    H40      H        0.10130    0.59810    0.34800    1.000
    H41      H        0.08780    0.55310    0.19700    1.000
    C14      C        0.03520    0.59173    0.30950    1.000
    H42      H        0.06500    0.58260    0.28210    1.000
    N29      N        0.97682    0.86801    0.43810    1.000
    N30      N        0.91940    0.92060    0.28100    1.000
    H43      H        0.89870    0.90190    0.34800    1.000
    H44      H        0.91220    0.94690    0.19700    1.000
    C15      C        0.96480    0.90827    0.30950    1.000
    H45      H        0.93500    0.91740    0.28210    1.000
    N31      N        0.47682    0.36801    0.93810    1.000
    N32      N        0.41940    0.42060    0.78100    1.000
    H46      H        0.39870    0.40190    0.84800    1.000
    H47      H        0.41220    0.44690    0.69700    1.000
    C16      C        0.46480    0.40827    0.80950    1.000
    H48      H        0.43500    0.41740    0.78210    1.000
    N33      N        0.61801    0.72682    0.68810    1.000
    N34      N        0.67060    0.66940    0.53100    1.000
    H49      H        0.65190    0.64870    0.59800    1.000
    H50      H        0.69690    0.66220    0.44700    1.000
    C17      C        0.65827    0.71480    0.55950    1.000
    H51      H        0.66740    0.68500    0.53210    1.000
    N35      N        0.11801    0.22682    0.18810    1.000
    N36      N        0.17060    0.16940    0.03100    1.000
    H52      H        0.15190    0.14870    0.09800    1.000
    H53      H        0.19690    0.16220    0.94700    1.000
    C18      C        0.15827    0.21480    0.05950    1.000
    H54      H        0.16740    0.18500    0.03210    1.000
    N37      N        0.88199    0.27318    0.18810    1.000
    N38      N        0.82940    0.33060    0.03100    1.000
    H55      H        0.84810    0.35130    0.09800    1.000
    H56      H        0.80310    0.33780    0.94700    1.000
    C19      C        0.84173    0.28520    0.05950    1.000
    H57      H        0.83260    0.31500    0.03210    1.000
    N39      N        0.38199    0.77318    0.68810    1.000
    N40      N        0.32940    0.83060    0.53100    1.000
    H58      H        0.34810    0.85130    0.59800    1.000
    H59      H        0.30310    0.83780    0.44700    1.000
    C20      C        0.34173    0.78520    0.55950    1.000
    H60      H        0.33260    0.81500    0.53210    1.000
    N41      N        0.02318    0.86801    0.43810    1.000
    N42      N        0.08060    0.92060    0.28100    1.000
    H61      H        0.10130    0.90190    0.34800    1.000
    H62      H        0.08780    0.94690    0.19700    1.000
    C21      C        0.03520    0.90827    0.30950    1.000
    H63      H        0.06500    0.91740    0.28210    1.000
    N43      N        0.52318    0.36801    0.93810    1.000
    N44      N        0.58060    0.42060    0.78100    1.000
    H64      H        0.60130    0.40190    0.84800    1.000
    H65      H        0.58780    0.44690    0.69700    1.000
    C22      C        0.53520    0.40827    0.80950    1.000
    H66      H        0.56500    0.41740    0.78210    1.000
    N45      N        0.47682    0.13199    0.93810    1.000
    N46      N        0.41940    0.07940    0.78100    1.000
    H67      H        0.39870    0.09810    0.84800    1.000
    H68      H        0.41220    0.05310    0.69700    1.000
    C23      C        0.46480    0.09173    0.80950    1.000
    H69      H        0.43500    0.08260    0.78210    1.000
    N47      N        0.97682    0.63199    0.43810    1.000
    N48      N        0.91940    0.57940    0.28100    1.000
    H70      H        0.89870    0.59810    0.34800    1.000
    H71      H        0.91220    0.55310    0.19700    1.000
    C24      C        0.96480    0.59173    0.30950    1.000
    H72      H        0.93500    0.58260    0.28210    1.000
    N49      N        0.88199    0.72682    0.81190    1.000
    N50      N        0.82940    0.66940    0.96900    1.000
    H73      H        0.84810    0.64870    0.90200    1.000
    H74      H        0.80310    0.66220    0.05300    1.000
    C25      C        0.84173    0.71480    0.94050    1.000
    H75      H        0.83260    0.68500    0.96790    1.000
    N51      N        0.38199    0.22682    0.31190    1.000
    N52      N        0.32940    0.16940    0.46900    1.000
    H76      H        0.34810    0.14870    0.40200    1.000
    H77      H        0.30310    0.16220    0.55300    1.000
    C26      C        0.34173    0.21480    0.44050    1.000
    H78      H        0.33260    0.18500    0.46790    1.000
    N53      N        0.61801    0.27318    0.31190    1.000
    N54      N        0.67060    0.33060    0.46900    1.000
    H79      H        0.65190    0.35130    0.40200    1.000
    H80      H        0.69690    0.33780    0.55300    1.000
    C27      C        0.65827    0.28520    0.44050    1.000
    H81      H        0.66740    0.31500    0.46790    1.000
    N55      N        0.11801    0.77318    0.81190    1.000
    N56      N        0.17060    0.83060    0.96900    1.000
    H82      H        0.15190    0.85130    0.90200    1.000
    H83      H        0.19690    0.83780    0.05300    1.000
    C28      C        0.15827    0.78520    0.94050    1.000
    H84      H        0.16740    0.81500    0.96790    1.000
    N57      N        0.47682    0.86801    0.06190    1.000
    N58      N        0.41940    0.92060    0.21900    1.000
    H85      H        0.39870    0.90190    0.15200    1.000
    H86      H        0.41220    0.94690    0.30300    1.000
    C29      C        0.46480    0.90827    0.19050    1.000
    H87      H        0.43500    0.91740    0.21790    1.000
    N59      N        0.97682    0.36801    0.56190    1.000
    N60      N        0.91940    0.42060    0.71900    1.000
    H88      H        0.89870    0.40190    0.65200    1.000
    H89      H        0.91220    0.44690    0.80300    1.000
    C30      C        0.96480    0.40827    0.69050    1.000
    H90      H        0.93500    0.41740    0.71790    1.000
    N61      N        0.02318    0.13199    0.56190    1.000
    N62      N        0.08060    0.07940    0.71900    1.000
    H91      H        0.10130    0.09810    0.65200    1.000
    H92      H        0.08780    0.05310    0.80300    1.000
    C31      C        0.03520    0.09173    0.69050    1.000
    H93      H        0.06500    0.08260    0.71790    1.000
    N63      N        0.52318    0.63199    0.06190    1.000
    N64      N        0.58060    0.57940    0.21900    1.000
    H94      H        0.60130    0.59810    0.15200    1.000
    H95      H        0.58780    0.55310    0.30300    1.000
    C32      C        0.53520    0.59173    0.19050    1.000
    H96      H        0.56500    0.58260    0.21790    1.000
    Ag1      Ag       0.43868    0.31132    0.12500    1.000
    Ag2      Ag       0.06132    0.68868    0.62500    1.000
    Ag3      Ag       0.93868    0.18868    0.37500    1.000
    Ag4      Ag       0.56132    0.81132    0.87500    1.000
    Ag5      Ag       0.06132    0.31132    0.37500    1.000
    Ag6      Ag       0.43868    0.68868    0.87500    1.000
    Ag7      Ag       0.56132    0.18868    0.12500    1.000
    Ag8      Ag       0.93868    0.81132    0.62500    1.000
    Ag9      Ag       0.56132    0.68868    0.87500    1.000
    Ag10     Ag       0.93868    0.31132    0.37500    1.000
    Ag11     Ag       0.06132    0.81132    0.62500    1.000
    Ag12     Ag       0.43868    0.18868    0.12500    1.000
    Ag13     Ag       0.93868    0.68868    0.62500    1.000
    Ag14     Ag       0.56132    0.31132    0.12500    1.000
    Ag15     Ag       0.43868    0.81132    0.87500    1.000
    Ag16     Ag       0.06132    0.18868    0.37500    1.000
    Ag17     Ag       0.25000    0.25000    0.75000    1.000
    Ag18     Ag       0.25000    0.75000    0.25000    1.000
    Ag19     Ag       0.00000    0.00000    0.00000    1.000
    Ag20     Ag       0.50000    0.50000    0.50000    1.000
    Ag21     Ag       0.50000    0.00000    0.50000    1.000
    Ag22     Ag       0.00000    0.50000    0.00000    1.000
    Ag23     Ag       0.75000    0.25000    0.75000    1.000
    Ag24     Ag       0.75000    0.75000    0.25000    1.000
    N65      N        0.31578    0.25000    0.52620    1.000
    N66      N        0.18422    0.75000    0.02620    1.000
    N67      N        0.00000    0.06578    0.77620    1.000
    N68      N        0.50000    0.56578    0.27620    1.000
    N69      N        0.50000    0.93422    0.27620    1.000
    N70      N        0.00000    0.43422    0.77620    1.000
    N71      N        0.18422    0.25000    0.97380    1.000
    N72      N        0.31578    0.75000    0.47380    1.000
    N73      N        0.81578    0.25000    0.97380    1.000
    N74      N        0.50000    0.06578    0.72380    1.000
    N75      N        0.00000    0.56578    0.22380    1.000
    N76      N        0.00000    0.93422    0.22380    1.000
    N77      N        0.50000    0.43422    0.72380    1.000
    N78      N        0.68422    0.75000    0.47380    1.000
    N79      N        0.81578    0.75000    0.02620    1.000
    N80      N        0.68422    0.25000    0.52620    1.000
