data_functionalizedCrystal
_audit_creation_method	'EQeq! by Chris Wilmer'
_symmetry_space_group_name_H-M	'P1'
_symmetry_Int_Tables_number	1
_symmetry_cell_setting	triclinic
loop_
_symmetry_equiv_pos_as_xyz
  x,y,z
_cell_length_a	17.591
_cell_length_b	22.781
_cell_length_c	19.058
_cell_angle_alpha	90
_cell_angle_beta	93.225
_cell_angle_gamma	90
loop_
_atom_site_label
_atom_site_type_symbol
_atom_site_fract_x
_atom_site_fract_y
_atom_site_fract_z
_atom_site_charge
Mof_N 	N 	0.9917	0.49784	0.31527	-0.118
Mof_N 	N 	0.758	0.30462	0.17088	-0.116
Mof_N 	N 	0.8845	0.3091	0.1887	-0.246
Mof_C 	C 	0.3737	0.3349	0.0517	0.309
Mof_H 	H 	0.3932	0.3547	0.014	-0.069
Mof_N 	N 	0.9028	0.3978	0.09654	-0.134
Mof_C 	C 	0.3453	0.3678	0.1104	-0.428
Mof_H 	H 	0.3484	0.4085	0.1089	0.164
Mof_C 	C 	0.7803	0.25393	0.2064	0.038
Mof_O 	O 	0.53001	0.45006	0.41364	-0.533
Mof_C 	C 	0.9124	0.42187	0.3135	0.062
Mof_C 	C 	0.9372	0.47012	0.3518	0.038
Mof_N 	N 	0.9563	0.26698	0.99454	-0.101
Mof_N 	N 	0.0526	0.434	0.1467	-0.138
Mof_C 	C 	0.643	0.3599	0.2033	0.162
Mof_N 	N 	0.953	0.41986	0.25259	-0.249
Mof_C 	C 	0.1206	0.52619	0.3631	0.152
Mof_C 	C 	0.8225	0.33556	0.1627	0.129
Mof_N 	N 	0.0074	0.3066	0.0924	-0.251
Mof_C 	C 	0.9993	0.46553	0.2565	0.126
Mof_C 	C 	0.6887	0.2306	0.9384	0.183
Mof_H 	H 	0.6458	0.2365	0.9083	-0.024
Mof_C 	C 	0.608	0.17146	0.0197	0.419
Mof_C 	C 	0.7381	0.2062	0.2297	-0.08
Mof_H 	H 	0.6853	0.2047	0.2233	0.048
Mof_N 	N 	0.2108	0.3611	0.24	-0.099
Mof_C 	C 	0.8998	0.2095	0.2489	-0.118
Mof_H 	H 	0.9526	0.2097	0.255	0.055
Mof_C 	C 	0.2512	0.55124	0.391	0.114
Mof_H 	H 	0.2885	0.58	0.3972	-0.017
Mof_O 	O 	0.4696	0.42195	0.5394	-0.577
Mof_C 	C 	0.1972	0.3217	0.2937	0.028
Mof_C 	C 	0.903	0.3621	0.0312	-0.23
Mof_H 	H 	0.8521	0.3474	0.0198	0.099
Mof_H 	H 	0.9174	0.3868	0.9926	0.102
Mof_C 	C 	0.9568	0.31201	0.0393	0.122
Mof_C 	C 	0.758	0.2505	0.9196	-0.275
Mof_H 	H 	0.7613	0.2708	0.8775	0.121
Mof_C 	C 	0.2122	0.4507	0.3984	0.103
Mof_H 	H 	0.2235	0.4117	0.4087	0.01
Mof_O 	O 	0.5121	0.51872	0.33069	-0.468
Mof_C 	C 	0.0119	0.2274	0.0218	-0.005
Mof_C 	C 	0.3168	0.3447	0.1632	0.392
Mof_C 	C 	0.1429	0.3702	0.2038	0.123
Mof_C 	C 	0.9071	0.4838	0.4179	-0.072
Mof_H 	H 	0.9256	0.515	0.4454	0.055
Mof_C 	C 	0.0538	0.4795	0.2025	-0.208
Mof_H 	H 	0.1048	0.4823	0.2246	0.095
Mof_H 	H 	0.041	0.5173	0.1816	0.089
Mof_C 	C 	0.0155	0.4569	0.0791	-0.1
Mof_H 	H 	0.0281	0.4318	0.0404	0.046
Mof_H 	H 	0.0341	0.4961	0.07	0.051
Mof_O 	O 	0.4002	0.1868	0.0027	-0.447
Mof_C 	C 	0.3498	0.4752	0.4239	0.387
Mof_C 	C 	0.1189	0.3101	0.2872	0.065
Mof_C 	C 	0.1383	0.4673	0.3779	-0.194
Mof_H 	H 	0.1001	0.4391	0.3741	0.104
Mof_C 	C 	0.857	0.1633	0.2714	-0.016
Mof_H 	H 	0.8819	0.1318	0.2934	0.02
Mof_C 	C 	0.2849	0.3826	0.2203	-0.299
Mof_H 	H 	0.3202	0.3826	0.2613	0.116
Mof_H 	H 	0.2798	0.4227	0.2036	0.109
Mof_C 	C 	0.8231	0.4002	0.3989	-0.011
Mof_H 	H 	0.7837	0.3776	0.4151	0.04
Mof_C 	C 	0.1006	0.2231	0.1216	-0.15
Mof_H 	H 	0.1208	0.2386	0.1638	0.078
Mof_C 	C 	0.7792	0.1619	0.2626	-0.05
Mof_H 	H 	0.7533	0.1298	0.2795	0.03
Mof_C 	C 	0.8996	0.2579	0.9369	-0.211
Mof_H 	H 	0.9171	0.2272	0.9064	0.094
Mof_H 	H 	0.8944	0.2937	0.9095	0.09
Mof_C 	C 	0.8502	0.449	0.4382	-0.04
Mof_H 	H 	0.8278	0.4576	0.48	0.051
Mof_C 	C 	0.6195	0.3859	0.322	0.114
Mof_H 	H 	0.6284	0.3793	0.3699	-0.001
Mof_C 	C 	0.5356	0.4694	0.3533	0.423
Mof_C 	C 	0.1289	0.4082	0.1406	-0.212
Mof_H 	H 	0.1672	0.4388	0.1395	0.091
Mof_H 	H 	0.1305	0.3851	0.0979	0.083
Mof_C 	C 	0.5937	0.4042	0.1801	-0.213
Mof_H 	H 	0.5833	0.4101	0.1322	0.097
Mof_C 	C 	0.3718	0.2778	0.0518	-0.378
Mof_C 	C 	0.0356	0.173	0.9967	-0.01
Mof_H 	H 	0.0132	0.1558	0.9563	0.037
Mof_C 	C 	0.6541	0.3506	0.2735	-0.209
Mof_H 	H 	0.6855	0.32	0.2895	0.107
Mof_C 	C 	0.0874	0.2712	0.3352	-0.116
Mof_H 	H 	0.0355	0.2631	0.3325	0.058
Mof_C 	C 	0.1341	0.2459	0.385	-0.001
Mof_H 	H 	0.1139	0.2199	0.4167	0.031
Mof_C 	C 	0.5593	0.4404	0.2295	0.126
Mof_H 	H 	0.5278	0.4711	0.2141	-0.013
Mof_C 	C 	0.2456	0.2957	0.3454	-0.063
Mof_H 	H 	0.2976	0.3037	0.3491	0.054
Mof_C 	C 	0.1258	0.1717	0.097	0.038
Mof_H 	H 	0.1654	0.1522	0.1216	0.015
Mof_C 	C 	0.0933	0.1472	0.0351	-0.1
Mof_H 	H 	0.1122	0.1116	0.0197	0.06
Mof_C 	C 	0.3982	0.2405	0.9934	0.48
Mof_C 	C 	0.3376	0.2548	0.1047	0.336
Mof_H 	H 	0.3297	0.2145	0.1051	-0.076
Mof_C 	C 	0.3126	0.288	0.1603	-0.445
Mof_H 	H 	0.2917	0.2683	0.1974	0.186
Mof_C 	C 	0.2123	0.258	0.3901	-0.048
Mof_H 	H 	0.2426	0.2397	0.4252	0.054
Mof_C 	C 	0.8601	0.25608	0.2164	0.058
Mof_C 	C 	0.9302	0.4584	0.085	-0.106
Mof_H 	H 	0.9175	0.4833	0.1239	0.052
Mof_H 	H 	0.9057	0.4743	0.0422	0.052
Mof_C 	C 	0.8266	0.39527	0.1278	-0.215
Mof_H 	H 	0.786	0.3995	0.0915	0.094
Mof_H 	H 	0.8219	0.4263	0.1621	0.088
Mof_C 	C 	0.855	0.3858	0.3363	-0.112
Mof_H 	H 	0.8385	0.3531	0.3104	0.066
Mof_C 	C 	0.2697	0.4934	0.4034	-0.185
Mof_N 	N 	0.0861	0.34123	0.231	-0.247
Mof_C 	C 	0.8234	0.24108	0.9621	0.219
Mof_C 	C 	0.1783	0.5671	0.3697	-0.215
Mof_H 	H 	0.1675	0.6062	0.3595	0.103
Mof_O 	O 	0.365	0.42106	0.4201	-0.434
Mof_C 	C 	0.8144	0.2151	0.0267	-0.277
Mof_H 	H 	0.8566	0.2108	0.0579	0.131
Mof_C 	C 	0.0434	0.2526	0.0822	0.086
Mof_C 	C 	0.7458	0.19563	0.0457	0.173
Mof_H 	H 	0.7417	0.1779	0.0893	-0.022
Mof_O 	O 	0.39783	0.51568	0.44272	-0.509
Mof_C 	C 	0.6816	0.20191	0.0009	-0.233
Mof_O 	O 	0.5563	0.17018	0.96948	-0.434
Mof_O 	O 	0.6043	0.1493	0.07855	-0.475
Mof_C 	C 	0.5721	0.4305	0.2986	-0.204
Mof_C 	C 	0.68	0.321	0.1497	-0.173
Mof_H 	H 	0.6499	0.2856	0.1427	0.086
Mof_H 	H 	0.6797	0.3415	0.1051	0.079
Mof_C 	C 	0.0416	0.5465	0.3387	-0.173
Mof_H 	H 	0.0188	0.5669	0.377	0.086
Mof_H 	H 	0.0455	0.5741	0.3004	0.08
Mof_O 	O 	0.4155	0.2649	0.9387	-0.32
Mof_Ni	Ni	0.98225	0.3609	0.17533	1.062
Mof_Ni	Ni	0.46063	0.37471	0.45041	1.107
Mof_Ni	Ni	0.54115	0.4152	0.61921	1.071
Mof_N 	N 	0.0083	0.99784	0.18473	-0.11
Mof_N 	N 	0.242	0.80462	0.32912	-0.116
Mof_N 	N 	0.1155	0.8091	0.3113	-0.247
Mof_C 	C 	0.6263	0.8349	0.4483	0.276
Mof_H 	H 	0.6068	0.8547	0.486	-0.054
Mof_N 	N 	0.0972	0.8978	0.40346	-0.137
Mof_C 	C 	0.6547	0.8678	0.3896	-0.399
Mof_H 	H 	0.6516	0.9085	0.3911	0.158
Mof_C 	C 	0.2197	0.75393	0.2936	0.037
Mof_O 	O 	0.46999	0.95006	0.08636	-0.536
Mof_C 	C 	0.0876	0.92187	0.1865	0.071
Mof_C 	C 	0.0628	0.97012	0.1482	0.026
Mof_N 	N 	0.0437	0.76698	0.50546	-0.118
Mof_N 	N 	0.9474	0.934	0.3533	-0.14
Mof_C 	C 	0.357	0.8599	0.2967	0.167
Mof_N 	N 	0.047	0.91986	0.24741	-0.249
Mof_C 	C 	0.8794	0.02619	0.1369	0.106
Mof_C 	C 	0.1775	0.83556	0.3373	0.13
Mof_N 	N 	0.9926	0.8066	0.4076	-0.25
Mof_C 	C 	0.0007	0.96553	0.2435	0.121
Mof_C 	C 	0.3113	0.7306	0.5616	0.135
Mof_H 	H 	0.3542	0.7365	0.5917	-0.009
Mof_C 	C 	0.392	0.67146	0.4803	0.419
Mof_C 	C 	0.2619	0.7062	0.2703	-0.079
Mof_H 	H 	0.3147	0.7047	0.2767	0.047
Mof_N 	N 	0.7892	0.8611	0.26	-0.101
Mof_C 	C 	0.1002	0.7095	0.2511	-0.119
Mof_H 	H 	0.0474	0.7097	0.245	0.056
Mof_C 	C 	0.7488	0.05124	0.109	0.059
Mof_H 	H 	0.7115	0.08	0.1028	-0.001
Mof_O 	O 	0.5304	0.92195	0.9606	-0.567
Mof_C 	C 	0.8028	0.8217	0.2063	0.029
Mof_C 	C 	0.097	0.8621	0.4688	-0.213
Mof_H 	H 	0.1479	0.8474	0.4802	0.099
Mof_H 	H 	0.0826	0.8868	0.5074	0.09
Mof_C 	C 	0.0432	0.81201	0.4607	0.131
Mof_C 	C 	0.242	0.7505	0.5804	-0.234
Mof_H 	H 	0.2387	0.7708	0.6225	0.107
Mof_C 	C 	0.7878	0.9507	0.1016	0.065
Mof_H 	H 	0.7765	0.9117	0.0913	0.022
Mof_O 	O 	0.4879	0.01872	0.16931	-0.483
Mof_C 	C 	0.9881	0.7274	0.4782	0.034
Mof_C 	C 	0.6832	0.8447	0.3368	0.366
Mof_C 	C 	0.8571	0.8702	0.2962	0.124
Mof_C 	C 	0.0929	0.9838	0.0821	-0.034
Mof_H 	H 	0.0744	0.015	0.0546	0.032
Mof_C 	C 	0.9462	0.9795	0.2975	-0.174
Mof_H 	H 	0.8952	0.9823	0.2754	0.09
Mof_H 	H 	0.959	0.0173	0.3184	0.066
Mof_C 	C 	0.9845	0.9569	0.4209	-0.102
Mof_H 	H 	0.9719	0.9318	0.4596	0.052
Mof_H 	H 	0.9659	0.9961	0.43	0.061
Mof_O 	O 	0.5998	0.6868	0.4973	-0.428
Mof_C 	C 	0.6502	0.9752	0.0761	0.39
Mof_C 	C 	0.8811	0.8101	0.2128	0.065
Mof_C 	C 	0.8617	0.9673	0.1221	-0.143
Mof_H 	H 	0.8999	0.9391	0.1259	0.086
Mof_C 	C 	0.143	0.6633	0.2286	-0.015
Mof_H 	H 	0.1181	0.6318	0.2066	0.021
Mof_C 	C 	0.7151	0.8826	0.2797	-0.286
Mof_H 	H 	0.6798	0.8826	0.2387	0.113
Mof_H 	H 	0.7202	0.9227	0.2964	0.108
Mof_C 	C 	0.1769	0.9002	0.1011	0.007
Mof_H 	H 	0.2163	0.8776	0.0849	0.032
Mof_C 	C 	0.8994	0.7231	0.3784	-0.118
Mof_H 	H 	0.8792	0.7386	0.3362	0.067
Mof_C 	C 	0.2208	0.6619	0.2374	-0.05
Mof_H 	H 	0.2467	0.6298	0.2205	0.031
Mof_C 	C 	0.1004	0.7579	0.5631	-0.185
Mof_H 	H 	0.0829	0.7272	0.5936	0.086
Mof_H 	H 	0.1056	0.7937	0.5905	0.082
Mof_C 	C 	0.1498	0.949	0.0618	-0.068
Mof_H 	H 	0.1722	0.9576	0.02	0.059
Mof_C 	C 	0.3805	0.8859	0.178	0.12
Mof_H 	H 	0.3716	0.8793	0.1301	-0.005
Mof_C 	C 	0.4644	0.9694	0.1467	0.442
Mof_C 	C 	0.8711	0.9082	0.3594	-0.214
Mof_H 	H 	0.8328	0.9388	0.3605	0.095
Mof_H 	H 	0.8695	0.8851	0.4021	0.086
Mof_C 	C 	0.4063	0.9042	0.3199	-0.217
Mof_H 	H 	0.4167	0.9101	0.3678	0.101
Mof_C 	C 	0.6282	0.7778	0.4482	-0.336
Mof_C 	C 	0.9644	0.673	0.5033	-0.071
Mof_H 	H 	0.9868	0.6558	0.5437	0.056
Mof_C 	C 	0.3459	0.8506	0.2265	-0.215
Mof_H 	H 	0.3145	0.82	0.2105	0.109
Mof_C 	C 	0.9126	0.7712	0.1648	-0.117
Mof_H 	H 	0.9645	0.7631	0.1675	0.057
Mof_C 	C 	0.8659	0.7459	0.115	-0.002
Mof_H 	H 	0.8861	0.7199	0.0833	0.028
Mof_C 	C 	0.4407	0.9404	0.2705	0.134
Mof_H 	H 	0.4722	0.9711	0.2859	-0.011
Mof_C 	C 	0.7544	0.7957	0.1546	-0.064
Mof_H 	H 	0.7024	0.8037	0.1509	0.054
Mof_C 	C 	0.8742	0.6717	0.403	-0.002
Mof_H 	H 	0.8346	0.6522	0.3784	0.031
Mof_C 	C 	0.9067	0.6472	0.4649	-0.045
Mof_H 	H 	0.8878	0.6116	0.4803	0.045
Mof_C 	C 	0.6018	0.7405	0.5066	0.444
Mof_C 	C 	0.6624	0.7548	0.3953	0.301
Mof_H 	H 	0.6703	0.7145	0.3949	-0.063
Mof_C 	C 	0.6874	0.788	0.3397	-0.414
Mof_H 	H 	0.7083	0.7683	0.3026	0.175
Mof_C 	C 	0.7877	0.758	0.1099	-0.048
Mof_H 	H 	0.7574	0.7397	0.0748	0.052
Mof_C 	C 	0.1399	0.75608	0.2836	0.059
Mof_C 	C 	0.0698	0.9584	0.415	-0.106
Mof_H 	H 	0.0825	0.9833	0.3761	0.056
Mof_H 	H 	0.0943	0.9743	0.4578	0.06
Mof_C 	C 	0.1734	0.89527	0.3722	-0.217
Mof_H 	H 	0.214	0.8995	0.4085	0.097
Mof_H 	H 	0.1781	0.9263	0.3379	0.091
Mof_C 	C 	0.145	0.8858	0.1637	-0.125
Mof_H 	H 	0.1615	0.8531	0.1896	0.071
Mof_C 	C 	0.7303	0.9934	0.0966	-0.144
Mof_N 	N 	0.9139	0.84123	0.269	-0.248
Mof_C 	C 	0.1766	0.74108	0.5379	0.173
Mof_C 	C 	0.8217	0.0671	0.1303	-0.173
Mof_H 	H 	0.8325	0.1062	0.1405	0.088
Mof_O 	O 	0.635	0.92106	0.0799	-0.436
Mof_C 	C 	0.1856	0.7151	0.4733	-0.224
Mof_H 	H 	0.1434	0.7108	0.4421	0.115
Mof_C 	C 	0.9566	0.7526	0.4178	0.064
Mof_C 	C 	0.2542	0.69563	0.4543	0.134
Mof_H 	H 	0.2583	0.6779	0.4107	-0.008
Mof_O 	O 	0.60217	0.01568	0.05728	-0.522
Mof_C 	C 	0.3184	0.70191	0.4991	-0.194
Mof_O 	O 	0.4437	0.67018	0.53052	-0.442
Mof_O 	O 	0.3957	0.6493	0.42145	-0.473
Mof_C 	C 	0.4279	0.9305	0.2014	-0.211
Mof_C 	C 	0.32	0.821	0.3503	-0.177
Mof_H 	H 	0.3501	0.7856	0.3573	0.088
Mof_H 	H 	0.3203	0.8415	0.3949	0.082
Mof_C 	C 	0.9584	0.0465	0.1613	-0.167
Mof_H 	H 	0.9812	0.0669	0.123	0.079
Mof_H 	H 	0.9545	0.0741	0.1996	0.075
Mof_O 	O 	0.5845	0.7649	0.5613	-0.314
Mof_Ni	Ni	0.01775	0.8609	0.32467	1.062
Mof_Ni	Ni	0.53937	0.87471	0.04959	1.104
Mof_Ni	Ni	0.45885	0.9152	0.88079	1.072
Mof_N 	N 	0.0083	0.50216	0.68473	-0.119
Mof_N 	N 	0.242	0.69538	0.82912	-0.116
Mof_N 	N 	0.1155	0.6909	0.8113	-0.247
Mof_C 	C 	0.6263	0.6651	0.9483	0.235
Mof_H 	H 	0.6068	0.6453	0.986	-0.038
Mof_N 	N 	0.0972	0.6022	0.90346	-0.139
Mof_C 	C 	0.6547	0.6322	0.8896	-0.36
Mof_H 	H 	0.6516	0.5915	0.8911	0.144
Mof_C 	C 	0.2197	0.74607	0.7936	0.037
Mof_O 	O 	0.46999	0.54994	0.58636	-0.533
Mof_C 	C 	0.0876	0.57813	0.6865	0.062
Mof_C 	C 	0.0628	0.52988	0.6482	0.039
Mof_N 	N 	0.0437	0.73302	0.00546	-0.138
Mof_N 	N 	0.9474	0.566	0.8533	-0.136
Mof_C 	C 	0.357	0.6401	0.7967	0.164
Mof_N 	N 	0.047	0.58014	0.74741	-0.249
Mof_C 	C 	0.8794	0.47381	0.6369	0.152
Mof_C 	C 	0.1775	0.66444	0.8373	0.13
Mof_N 	N 	0.9926	0.6934	0.9076	-0.245
Mof_C 	C 	0.0007	0.53447	0.7435	0.128
Mof_C 	C 	0.3113	0.7694	0.0616	0.088
Mof_H 	H 	0.3542	0.7635	0.0917	0.005
Mof_C 	C 	0.392	0.82854	0.9803	0.421
Mof_C 	C 	0.2619	0.7938	0.7703	-0.079
Mof_H 	H 	0.3147	0.7953	0.7767	0.048
Mof_N 	N 	0.7892	0.6389	0.76	-0.104
Mof_C 	C 	0.1002	0.7905	0.7511	-0.119
Mof_H 	H 	0.0474	0.7903	0.745	0.057
Mof_C 	C 	0.7488	0.44876	0.609	0.114
Mof_H 	H 	0.7115	0.42	0.6028	-0.017
Mof_O 	O 	0.5304	0.57805	0.4606	-0.577
Mof_C 	C 	0.8028	0.6783	0.7063	0.031
Mof_C 	C 	0.097	0.6379	0.9688	-0.196
Mof_H 	H 	0.1479	0.6526	0.9802	0.096
Mof_H 	H 	0.0826	0.6132	0.0074	0.076
Mof_C 	C 	0.0432	0.68799	0.9607	0.135
Mof_C 	C 	0.242	0.7495	0.0804	-0.194
Mof_H 	H 	0.2387	0.7292	0.1225	0.093
Mof_C 	C 	0.7878	0.5493	0.6016	0.103
Mof_H 	H 	0.7765	0.5883	0.5913	0.01
Mof_O 	O 	0.4879	0.48128	0.66931	-0.467
Mof_C 	C 	0.9881	0.7726	0.9782	0.088
Mof_C 	C 	0.6832	0.6553	0.8368	0.33
Mof_C 	C 	0.8571	0.6298	0.7962	0.126
Mof_C 	C 	0.0929	0.5162	0.5821	-0.072
Mof_H 	H 	0.0744	0.485	0.5546	0.056
Mof_C 	C 	0.9462	0.5205	0.7975	-0.21
Mof_H 	H 	0.8952	0.5177	0.7754	0.096
Mof_H 	H 	0.959	0.4827	0.8184	0.09
Mof_C 	C 	0.9845	0.5431	0.9209	-0.106
Mof_H 	H 	0.9719	0.5682	0.9596	0.053
Mof_H 	H 	0.9659	0.5039	0.93	0.057
Mof_O 	O 	0.5998	0.8132	0.9973	-0.406
Mof_C 	C 	0.6502	0.5248	0.5761	0.387
Mof_C 	C 	0.8811	0.6899	0.7128	0.065
Mof_C 	C 	0.8617	0.5327	0.6221	-0.194
Mof_H 	H 	0.8999	0.5609	0.6259	0.104
Mof_C 	C 	0.143	0.8367	0.7286	-0.015
Mof_H 	H 	0.1181	0.8682	0.7066	0.022
Mof_C 	C 	0.7151	0.6174	0.7797	-0.265
Mof_H 	H 	0.6798	0.6174	0.7387	0.107
Mof_H 	H 	0.7202	0.5773	0.7964	0.101
Mof_C 	C 	0.1769	0.5998	0.6011	-0.011
Mof_H 	H 	0.2163	0.6224	0.5849	0.04
Mof_C 	C 	0.8994	0.7769	0.8784	-0.073
Mof_H 	H 	0.8792	0.7614	0.8362	0.053
Mof_C 	C 	0.2208	0.8381	0.7374	-0.051
Mof_H 	H 	0.2467	0.8702	0.7205	0.034
Mof_C 	C 	0.1004	0.7421	0.0631	-0.159
Mof_H 	H 	0.0829	0.7728	0.0936	0.077
Mof_H 	H 	0.1056	0.7063	0.0905	0.073
Mof_C 	C 	0.1498	0.551	0.5618	-0.04
Mof_H 	H 	0.1722	0.5424	0.52	0.051
Mof_C 	C 	0.3805	0.6141	0.678	0.115
Mof_H 	H 	0.3716	0.6207	0.6301	-0.002
Mof_C 	C 	0.4644	0.5306	0.6467	0.423
Mof_C 	C 	0.8711	0.5918	0.8594	-0.216
Mof_H 	H 	0.8328	0.5612	0.8605	0.094
Mof_H 	H 	0.8695	0.6149	0.9021	0.087
Mof_C 	C 	0.4063	0.5958	0.8199	-0.214
Mof_H 	H 	0.4167	0.5899	0.8678	0.1
Mof_C 	C 	0.6282	0.7222	0.9482	-0.286
Mof_C 	C 	0.9644	0.827	0.0033	-0.155
Mof_H 	H 	0.9868	0.8442	0.0437	0.083
Mof_C 	C 	0.3459	0.6494	0.7265	-0.211
Mof_H 	H 	0.3145	0.68	0.7105	0.107
Mof_C 	C 	0.9126	0.7288	0.6648	-0.115
Mof_H 	H 	0.9645	0.7369	0.6675	0.057
Mof_C 	C 	0.8659	0.7541	0.615	-0.002
Mof_H 	H 	0.8861	0.7801	0.5833	0.032
Mof_C 	C 	0.4407	0.5596	0.7705	0.128
Mof_H 	H 	0.4722	0.5289	0.7859	-0.012
Mof_C 	C 	0.7544	0.7043	0.6546	-0.064
Mof_H 	H 	0.7024	0.6963	0.6509	0.055
Mof_C 	C 	0.8742	0.8283	0.903	-0.058
Mof_H 	H 	0.8346	0.8478	0.8784	0.053
Mof_C 	C 	0.9067	0.8528	0.9649	0.032
Mof_H 	H 	0.8878	0.8884	0.9803	0.023
Mof_C 	C 	0.6018	0.7595	0.0066	0.403
Mof_C 	C 	0.6624	0.7452	0.8953	0.257
Mof_H 	H 	0.6703	0.7855	0.8949	-0.046
Mof_C 	C 	0.6874	0.712	0.8397	-0.373
Mof_H 	H 	0.7083	0.7317	0.8026	0.162
Mof_C 	C 	0.7877	0.742	0.6099	-0.045
Mof_H 	H 	0.7574	0.7603	0.5748	0.055
Mof_C 	C 	0.1399	0.74392	0.7836	0.059
Mof_C 	C 	0.0698	0.5416	0.915	-0.101
Mof_H 	H 	0.0825	0.5167	0.8761	0.052
Mof_H 	H 	0.0943	0.5257	0.9578	0.058
Mof_C 	C 	0.1734	0.60473	0.8722	-0.216
Mof_H 	H 	0.214	0.6005	0.9085	0.097
Mof_H 	H 	0.1781	0.5737	0.8379	0.09
Mof_C 	C 	0.145	0.6142	0.6637	-0.112
Mof_H 	H 	0.1615	0.6469	0.6896	0.066
Mof_C 	C 	0.7303	0.5066	0.5966	-0.185
Mof_N 	N 	0.9139	0.65877	0.769	-0.248
Mof_C 	C 	0.1766	0.75892	0.0379	0.129
Mof_C 	C 	0.8217	0.4329	0.6303	-0.215
Mof_H 	H 	0.8325	0.3938	0.6405	0.103
Mof_O 	O 	0.635	0.57894	0.5799	-0.434
Mof_C 	C 	0.1856	0.7849	0.9733	-0.173
Mof_H 	H 	0.1434	0.7892	0.9421	0.098
Mof_C 	C 	0.9566	0.7474	0.9178	0.034
Mof_C 	C 	0.2542	0.80437	0.9543	0.096
Mof_H 	H 	0.2583	0.8221	0.9107	0.005
Mof_O 	O 	0.60217	0.48432	0.55728	-0.509
Mof_C 	C 	0.3184	0.79809	0.9991	-0.156
Mof_O 	O 	0.4437	0.82982	0.03052	-0.451
Mof_O 	O 	0.3957	0.8507	0.92145	-0.471
Mof_C 	C 	0.4279	0.5695	0.7014	-0.204
Mof_C 	C 	0.32	0.679	0.8503	-0.176
Mof_H 	H 	0.3501	0.7144	0.8573	0.088
Mof_H 	H 	0.3203	0.6585	0.8949	0.083
Mof_C 	C 	0.9584	0.4535	0.6613	-0.174
Mof_H 	H 	0.9812	0.4331	0.623	0.086
Mof_H 	H 	0.9545	0.4259	0.6996	0.08
Mof_O 	O 	0.5845	0.7351	0.0613	-0.308
Mof_Ni	Ni	0.01775	0.6391	0.82467	1.062
Mof_Ni	Ni	0.53937	0.62529	0.54959	1.108
Mof_Ni	Ni	0.45885	0.5848	0.38079	1.07
Mof_N 	N 	0.9917	0.00216	0.81527	-0.129
Mof_N 	N 	0.758	0.19538	0.67088	-0.117
Mof_N 	N 	0.8845	0.1909	0.6887	-0.247
Mof_C 	C 	0.3737	0.1651	0.5517	0.272
Mof_H 	H 	0.3932	0.1453	0.514	-0.056
Mof_N 	N 	0.9028	0.1022	0.59654	-0.138
Mof_C 	C 	0.3453	0.1322	0.6104	-0.394
Mof_H 	H 	0.3484	0.0915	0.6089	0.152
Mof_C 	C 	0.7803	0.24607	0.7064	0.037
Mof_O 	O 	0.53001	0.04994	0.91364	-0.528
Mof_C 	C 	0.9124	0.07813	0.8135	0.048
Mof_C 	C 	0.9372	0.02988	0.8518	0.058
Mof_N 	N 	0.9563	0.23302	0.49454	-0.119
Mof_N 	N 	0.0526	0.066	0.6467	-0.135
Mof_C 	C 	0.643	0.1401	0.7033	0.159
Mof_N 	N 	0.953	0.08014	0.75259	-0.248
Mof_C 	C 	0.1206	0.97381	0.8631	0.19
Mof_C 	C 	0.8225	0.16444	0.6627	0.129
Mof_N 	N 	0.0074	0.1934	0.5924	-0.249
Mof_C 	C 	0.9993	0.03447	0.7565	0.129
Mof_C 	C 	0.6887	0.2694	0.4384	0.135
Mof_H 	H 	0.6458	0.2635	0.4083	-0.009
Mof_C 	C 	0.608	0.32854	0.5197	0.419
Mof_C 	C 	0.7381	0.2938	0.7297	-0.079
Mof_H 	H 	0.6853	0.2953	0.7233	0.048
Mof_N 	N 	0.2108	0.1389	0.74	-0.102
Mof_C 	C 	0.8998	0.2905	0.7489	-0.119
Mof_H 	H 	0.9526	0.2903	0.755	0.056
Mof_C 	C 	0.2512	0.94876	0.891	0.161
Mof_H 	H 	0.2885	0.92	0.8972	-0.032
Mof_O 	O 	0.4696	0.07805	0.0394	-0.583
Mof_C 	C 	0.1972	0.1783	0.7937	0.03
Mof_C 	C 	0.903	0.1379	0.5312	-0.21
Mof_H 	H 	0.8521	0.1526	0.5198	0.097
Mof_H 	H 	0.9174	0.1132	0.4926	0.086
Mof_C 	C 	0.9568	0.18799	0.5393	0.128
Mof_C 	C 	0.758	0.2495	0.4196	-0.234
Mof_H 	H 	0.7613	0.2292	0.3775	0.106
Mof_C 	C 	0.2122	0.0493	0.8984	0.135
Mof_H 	H 	0.2235	0.0883	0.9087	0
Mof_O 	O 	0.5121	0.98128	0.83069	-0.449
Mof_C 	C 	0.0119	0.2726	0.5218	0.036
Mof_C 	C 	0.3168	0.1553	0.6632	0.36
Mof_C 	C 	0.1429	0.1298	0.7038	0.124
Mof_C 	C 	0.9071	0.0162	0.9179	-0.131
Mof_H 	H 	0.9256	0.985	0.9454	0.091
Mof_C 	C 	0.0538	0.0205	0.7025	-0.233
Mof_H 	H 	0.1048	0.0177	0.7246	0.099
Mof_H 	H 	0.041	0.9827	0.6816	0.106
Mof_C 	C 	0.0155	0.0431	0.5791	-0.102
Mof_H 	H 	0.0281	0.0682	0.5404	0.048
Mof_H 	H 	0.0341	0.0039	0.57	0.049
Mof_O 	O 	0.4002	0.3132	0.5027	-0.428
Mof_C 	C 	0.3498	0.0248	0.9239	0.381
Mof_C 	C 	0.1189	0.1899	0.7872	0.065
Mof_C 	C 	0.1383	0.0327	0.8779	-0.238
Mof_H 	H 	0.1001	0.0609	0.8741	0.118
Mof_C 	C 	0.857	0.3367	0.7714	-0.015
Mof_H 	H 	0.8819	0.3682	0.7934	0.022
Mof_C 	C 	0.2849	0.1174	0.7203	-0.281
Mof_H 	H 	0.3202	0.1174	0.7613	0.111
Mof_H 	H 	0.2798	0.0773	0.7036	0.103
Mof_C 	C 	0.8231	0.0998	0.8989	-0.039
Mof_H 	H 	0.7837	0.1224	0.9151	0.051
Mof_C 	C 	0.1006	0.2769	0.6216	-0.117
Mof_H 	H 	0.1208	0.2614	0.6638	0.067
Mof_C 	C 	0.7792	0.3381	0.7626	-0.051
Mof_H 	H 	0.7533	0.3702	0.7795	0.033
Mof_C 	C 	0.8996	0.2421	0.4369	-0.184
Mof_H 	H 	0.9171	0.2728	0.4064	0.085
Mof_H 	H 	0.8944	0.2063	0.4095	0.081
Mof_C 	C 	0.8502	0.051	0.9382	0.001
Mof_H 	H 	0.8278	0.0424	0.98	0.036
Mof_C 	C 	0.6195	0.1141	0.822	0.107
Mof_H 	H 	0.6284	0.1207	0.8699	0.001
Mof_C 	C 	0.5356	0.0306	0.8533	0.402
Mof_C 	C 	0.1289	0.0918	0.6406	-0.213
Mof_H 	H 	0.1672	0.0612	0.6395	0.09
Mof_H 	H 	0.1305	0.1149	0.5979	0.084
Mof_C 	C 	0.5937	0.0958	0.6801	-0.209
Mof_H 	H 	0.5833	0.0899	0.6322	0.095
Mof_C 	C 	0.3718	0.2222	0.5518	-0.334
Mof_C 	C 	0.0356	0.327	0.4967	-0.072
Mof_H 	H 	0.0132	0.3442	0.4563	0.057
Mof_C 	C 	0.6541	0.1494	0.7735	-0.205
Mof_H 	H 	0.6855	0.18	0.7895	0.106
Mof_C 	C 	0.0874	0.2288	0.8352	-0.115
Mof_H 	H 	0.0355	0.2369	0.8325	0.057
Mof_C 	C 	0.1341	0.2541	0.885	-0.002
Mof_H 	H 	0.1139	0.2801	0.9167	0.034
Mof_C 	C 	0.5593	0.0596	0.7295	0.12
Mof_H 	H 	0.5278	0.0289	0.7141	-0.014
Mof_C 	C 	0.2456	0.2043	0.8454	-0.063
Mof_H 	H 	0.2976	0.1963	0.8491	0.056
Mof_C 	C 	0.1258	0.3283	0.597	-0.003
Mof_H 	H 	0.1654	0.3478	0.6216	0.032
Mof_C 	C 	0.0933	0.3528	0.5351	-0.044
Mof_H 	H 	0.1122	0.3884	0.5197	0.044
Mof_C 	C 	0.3982	0.2595	0.4934	0.443
Mof_C 	C 	0.3376	0.2452	0.6047	0.297
Mof_H 	H 	0.3297	0.2855	0.6051	-0.062
Mof_C 	C 	0.3126	0.212	0.6603	-0.409
Mof_H 	H 	0.2917	0.2317	0.6974	0.174
Mof_C 	C 	0.2123	0.242	0.8901	-0.045
Mof_H 	H 	0.2426	0.2603	0.9252	0.057
Mof_C 	C 	0.8601	0.24392	0.7164	0.059
Mof_C 	C 	0.9302	0.0416	0.585	-0.103
Mof_H 	H 	0.9175	0.0167	0.6239	0.048
Mof_H 	H 	0.9057	0.0257	0.5422	0.051
Mof_C 	C 	0.8266	0.10473	0.6278	-0.214
Mof_H 	H 	0.786	0.1005	0.5915	0.094
Mof_H 	H 	0.8219	0.0737	0.6621	0.087
Mof_C 	C 	0.855	0.1142	0.8363	-0.092
Mof_H 	H 	0.8385	0.1469	0.8104	0.059
Mof_C 	C 	0.2697	0.0066	0.9034	-0.22
Mof_N 	N 	0.0861	0.15877	0.731	-0.247
Mof_C 	C 	0.8234	0.25892	0.4621	0.173
Mof_C 	C 	0.1783	0.9329	0.8697	-0.25
Mof_H 	H 	0.1675	0.8938	0.8595	0.116
Mof_O 	O 	0.365	0.07894	0.9201	-0.431
Mof_C 	C 	0.8144	0.2849	0.5267	-0.223
Mof_H 	H 	0.8566	0.2892	0.5579	0.114
Mof_C 	C 	0.0434	0.2474	0.5822	0.063
Mof_C 	C 	0.7458	0.30437	0.5457	0.134
Mof_H 	H 	0.7417	0.3221	0.5893	-0.008
Mof_O 	O 	0.39783	0.98432	0.94272	-0.492
Mof_C 	C 	0.6816	0.29809	0.5009	-0.194
Mof_O 	O 	0.5563	0.32982	0.46948	-0.442
Mof_O 	O 	0.6043	0.3507	0.57855	-0.473
Mof_C 	C 	0.5721	0.0695	0.7986	-0.197
Mof_C 	C 	0.68	0.179	0.6497	-0.172
Mof_H 	H 	0.6499	0.2144	0.6427	0.086
Mof_H 	H 	0.6797	0.1585	0.6051	0.08
Mof_C 	C 	0.0416	0.9535	0.8387	-0.178
Mof_H 	H 	0.0188	0.9331	0.877	0.089
Mof_H 	H 	0.0455	0.9259	0.8004	0.083
Mof_O 	O 	0.4155	0.2351	0.4387	-0.316
Mof_Ni	Ni	0.98225	0.1391	0.67533	1.062
Mof_Ni	Ni	0.46063	0.12529	0.95041	1.111
Mof_Ni	Ni	0.54115	0.0848	0.11921	1.069
Mof_Ni	Ni	0.5	0.5	0.5	1.105
Mof_Ni	Ni	0.5	0	-0	1.094
_end
