# CIF file generated by openbabel 3.1.0, see https://openbabel.org
data_I
_chemical_name_common 'image0'
_cell_length_a 10.677
_cell_length_b 18.781
_cell_length_c 21.052
_cell_angle_alpha 90
_cell_angle_beta 102.16
_cell_angle_gamma 90
_space_group_name_H-M_alt 'P 1'
_space_group_name_Hall 'P 1'
loop_
    _symmetry_equiv_pos_as_xyz
    x,y,z
loop_
    _atom_site_label
    _atom_site_type_symbol
    _atom_site_fract_x
    _atom_site_fract_y
    _atom_site_fract_z
    _atom_site_occupancy
    Cu1      Cu       0.65392    0.21683    0.51886    1.000
    Br1      Br       0.86160    0.02930    0.62620    1.000
    Br2      Br       0.09710    0.12220    0.40030    1.000
    Br3      Br       0.74410    0.36935    0.71024    1.000
    O1       O        0.75370    0.23530    0.60700    1.000
    O2       O        0.91620    0.29180    0.57480    1.000
    O3       O        0.76120    0.13270    0.51490    1.000
    O4       O        0.92320    0.18980    0.48220    1.000
    C1       C        0.88500    0.23240    0.73580    1.000
    C2       C        0.95200    0.23040    0.79880    1.000
    C3       C        0.89290    0.31030    0.73060    1.000
    C4       C        0.04140    0.31040    0.70330    1.000
    C5       C        0.93100    0.27120    0.68530    1.000
    C6       C        0.86100    0.26570    0.61720    1.000
    C7       C        0.91890    0.01160    0.54090    1.000
    C8       C        0.94070    0.06500    0.50100    1.000
    C9       C        0.98190    0.94500    0.54110    1.000
    C10      C        0.87080    0.13650    0.49870    1.000
    O5       O        0.25500    0.09500    0.37950    1.000
    N1       N        0.21300    0.21900    0.39100    1.000
    C11      C        0.22300    0.16300    0.37100    1.000
    C12      C        0.09500    0.22360    0.34880    1.000
    C13      C        0.24200    0.27700    0.43200    1.000
    O6       O        0.26700    0.31300    0.40700    1.000
    N2       N        0.21000    0.34700    0.31500    1.000
    C14      C        0.18000    0.28900    0.35800    1.000
    C15      C        0.24200    0.40800    0.28600    1.000
    C16      C        0.09500    0.31700    0.28600    1.000
    C17      C        0.74400    0.98610    0.58300    1.000
    C18      C        0.77700    0.06800    0.74400    1.000
    C19      C        0.68300    0.32300    0.75000    1.000
    C20      C        0.84400    0.04500    0.69500    1.000
    Cu2      Cu       0.15392    0.71683    0.51886    1.000
    Br4      Br       0.36160    0.52930    0.62620    1.000
    Br5      Br       0.59710    0.62220    0.40030    1.000
    Br6      Br       0.24410    0.86935    0.71024    1.000
    O7       O        0.25370    0.73530    0.60700    1.000
    O8       O        0.41620    0.79180    0.57480    1.000
    O9       O        0.26120    0.63270    0.51490    1.000
    O10      O        0.42320    0.68980    0.48220    1.000
    C21      C        0.38500    0.73240    0.73580    1.000
    C22      C        0.45200    0.73040    0.79880    1.000
    C23      C        0.39290    0.81030    0.73060    1.000
    C24      C        0.54140    0.81040    0.70330    1.000
    C25      C        0.43100    0.77120    0.68530    1.000
    C26      C        0.36100    0.76570    0.61720    1.000
    C27      C        0.41890    0.51160    0.54090    1.000
    C28      C        0.44070    0.56500    0.50100    1.000
    C29      C        0.48190    0.44500    0.54110    1.000
    C30      C        0.37080    0.63650    0.49870    1.000
    O11      O        0.75500    0.59500    0.37950    1.000
    N3       N        0.71300    0.71900    0.39100    1.000
    C31      C        0.72300    0.66300    0.37100    1.000
    C32      C        0.59500    0.72360    0.34880    1.000
    C33      C        0.74200    0.77700    0.43200    1.000
    O12      O        0.76700    0.81300    0.40700    1.000
    N4       N        0.71000    0.84700    0.31500    1.000
    C34      C        0.68000    0.78900    0.35800    1.000
    C35      C        0.74200    0.90800    0.28600    1.000
    C36      C        0.59500    0.81700    0.28600    1.000
    C37      C        0.24400    0.48610    0.58300    1.000
    C38      C        0.27700    0.56800    0.74400    1.000
    C39      C        0.18300    0.82300    0.75000    1.000
    C40      C        0.34400    0.54500    0.69500    1.000
    Cu3      Cu       0.34608    0.21683    0.98114    1.000
    Br7      Br       0.13840    0.02930    0.87380    1.000
    Br8      Br       0.90290    0.12220    0.09970    1.000
    Br9      Br       0.25590    0.36935    0.78976    1.000
    O13      O        0.24630    0.23530    0.89300    1.000
    O14      O        0.08380    0.29180    0.92520    1.000
    O15      O        0.23880    0.13270    0.98510    1.000
    O16      O        0.07680    0.18980    0.01780    1.000
    C41      C        0.11500    0.23240    0.76420    1.000
    C42      C        0.04800    0.23040    0.70120    1.000
    C43      C        0.10710    0.31030    0.76940    1.000
    C44      C        0.95860    0.31040    0.79670    1.000
    C45      C        0.06900    0.27120    0.81470    1.000
    C46      C        0.13900    0.26570    0.88280    1.000
    C47      C        0.08110    0.01160    0.95910    1.000
    C48      C        0.05930    0.06500    0.99900    1.000
    C49      C        0.01810    0.94500    0.95890    1.000
    C50      C        0.12920    0.13650    0.00130    1.000
    O17      O        0.74500    0.09500    0.12050    1.000
    N5       N        0.78700    0.21900    0.10900    1.000
    C51      C        0.77700    0.16300    0.12900    1.000
    C52      C        0.90500    0.22360    0.15120    1.000
    C53      C        0.75800    0.27700    0.06800    1.000
    O18      O        0.73300    0.31300    0.09300    1.000
    N6       N        0.79000    0.34700    0.18500    1.000
    C54      C        0.82000    0.28900    0.14200    1.000
    C55      C        0.75800    0.40800    0.21400    1.000
    C56      C        0.90500    0.31700    0.21400    1.000
    C57      C        0.25600    0.98610    0.91700    1.000
    C58      C        0.22300    0.06800    0.75600    1.000
    C59      C        0.31700    0.32300    0.75000    1.000
    C60      C        0.15600    0.04500    0.80500    1.000
    Cu4      Cu       0.84608    0.71683    0.98114    1.000
    Br10     Br       0.63840    0.52930    0.87380    1.000
    Br11     Br       0.40290    0.62220    0.09970    1.000
    Br12     Br       0.75590    0.86935    0.78976    1.000
    O19      O        0.74630    0.73530    0.89300    1.000
    O20      O        0.58380    0.79180    0.92520    1.000
    O21      O        0.73880    0.63270    0.98510    1.000
    O22      O        0.57680    0.68980    0.01780    1.000
    C61      C        0.61500    0.73240    0.76420    1.000
    C62      C        0.54800    0.73040    0.70120    1.000
    C63      C        0.60710    0.81030    0.76940    1.000
    C64      C        0.45860    0.81040    0.79670    1.000
    C65      C        0.56900    0.77120    0.81470    1.000
    C66      C        0.63900    0.76570    0.88280    1.000
    C67      C        0.58110    0.51160    0.95910    1.000
    C68      C        0.55930    0.56500    0.99900    1.000
    C69      C        0.51810    0.44500    0.95890    1.000
    C70      C        0.62920    0.63650    0.00130    1.000
    O23      O        0.24500    0.59500    0.12050    1.000
    N7       N        0.28700    0.71900    0.10900    1.000
    C71      C        0.27700    0.66300    0.12900    1.000
    C72      C        0.40500    0.72360    0.15120    1.000
    C73      C        0.25800    0.77700    0.06800    1.000
    O24      O        0.23300    0.81300    0.09300    1.000
    N8       N        0.29000    0.84700    0.18500    1.000
    C74      C        0.32000    0.78900    0.14200    1.000
    C75      C        0.25800    0.90800    0.21400    1.000
    C76      C        0.40500    0.81700    0.21400    1.000
    C77      C        0.75600    0.48610    0.91700    1.000
    C78      C        0.72300    0.56800    0.75600    1.000
    C79      C        0.81700    0.82300    0.75000    1.000
    C80      C        0.65600    0.54500    0.80500    1.000
    Cu5      Cu       0.34608    0.78317    0.48114    1.000
    Br13     Br       0.13840    0.97070    0.37380    1.000
    Br14     Br       0.90290    0.87780    0.59970    1.000
    Br15     Br       0.25590    0.63065    0.28976    1.000
    O25      O        0.24630    0.76470    0.39300    1.000
    O26      O        0.08380    0.70820    0.42520    1.000
    O27      O        0.23880    0.86730    0.48510    1.000
    O28      O        0.07680    0.81020    0.51780    1.000
    C81      C        0.11500    0.76760    0.26420    1.000
    C82      C        0.04800    0.76960    0.20120    1.000
    C83      C        0.10710    0.68970    0.26940    1.000
    C84      C        0.95860    0.68960    0.29670    1.000
    C85      C        0.06900    0.72880    0.31470    1.000
    C86      C        0.13900    0.73430    0.38280    1.000
    C87      C        0.08110    0.98840    0.45910    1.000
    C88      C        0.05930    0.93500    0.49900    1.000
    C89      C        0.01810    0.05500    0.45890    1.000
    C90      C        0.12920    0.86350    0.50130    1.000
    O29      O        0.74500    0.90500    0.62050    1.000
    N9       N        0.78700    0.78100    0.60900    1.000
    C91      C        0.77700    0.83700    0.62900    1.000
    C92      C        0.90500    0.77640    0.65120    1.000
    C93      C        0.75800    0.72300    0.56800    1.000
    O30      O        0.73300    0.68700    0.59300    1.000
    N10      N        0.79000    0.65300    0.68500    1.000
    C94      C        0.82000    0.71100    0.64200    1.000
    C95      C        0.75800    0.59200    0.71400    1.000
    C96      C        0.90500    0.68300    0.71400    1.000
    C97      C        0.25600    0.01390    0.41700    1.000
    C98      C        0.22300    0.93200    0.25600    1.000
    C99      C        0.31700    0.67700    0.25000    1.000
    C100     C        0.15600    0.95500    0.30500    1.000
    Cu6      Cu       0.84608    0.28317    0.48114    1.000
    Br16     Br       0.63840    0.47070    0.37380    1.000
    Br17     Br       0.40290    0.37780    0.59970    1.000
    Br18     Br       0.75590    0.13065    0.28976    1.000
    O31      O        0.74630    0.26470    0.39300    1.000
    O32      O        0.58380    0.20820    0.42520    1.000
    O33      O        0.73880    0.36730    0.48510    1.000
    O34      O        0.57680    0.31020    0.51780    1.000
    C101     C        0.61500    0.26760    0.26420    1.000
    C102     C        0.54800    0.26960    0.20120    1.000
    C103     C        0.60710    0.18970    0.26940    1.000
    C104     C        0.45860    0.18960    0.29670    1.000
    C105     C        0.56900    0.22880    0.31470    1.000
    C106     C        0.63900    0.23430    0.38280    1.000
    C107     C        0.58110    0.48840    0.45910    1.000
    C108     C        0.55930    0.43500    0.49900    1.000
    C109     C        0.51810    0.55500    0.45890    1.000
    C110     C        0.62920    0.36350    0.50130    1.000
    O35      O        0.24500    0.40500    0.62050    1.000
    N11      N        0.28700    0.28100    0.60900    1.000
    C111     C        0.27700    0.33700    0.62900    1.000
    C112     C        0.40500    0.27640    0.65120    1.000
    C113     C        0.25800    0.22300    0.56800    1.000
    O36      O        0.23300    0.18700    0.59300    1.000
    N12      N        0.29000    0.15300    0.68500    1.000
    C114     C        0.32000    0.21100    0.64200    1.000
    C115     C        0.25800    0.09200    0.71400    1.000
    C116     C        0.40500    0.18300    0.71400    1.000
    C117     C        0.75600    0.51390    0.41700    1.000
    C118     C        0.72300    0.43200    0.25600    1.000
    C119     C        0.81700    0.17700    0.25000    1.000
    C120     C        0.65600    0.45500    0.30500    1.000
    Cu7      Cu       0.65392    0.78317    0.01886    1.000
    Br19     Br       0.86160    0.97070    0.12620    1.000
    Br20     Br       0.09710    0.87780    0.90030    1.000
    Br21     Br       0.74410    0.63065    0.21024    1.000
    O37      O        0.75370    0.76470    0.10700    1.000
    O38      O        0.91620    0.70820    0.07480    1.000
    O39      O        0.76120    0.86730    0.01490    1.000
    O40      O        0.92320    0.81020    0.98220    1.000
    C121     C        0.88500    0.76760    0.23580    1.000
    C122     C        0.95200    0.76960    0.29880    1.000
    C123     C        0.89290    0.68970    0.23060    1.000
    C124     C        0.04140    0.68960    0.20330    1.000
    C125     C        0.93100    0.72880    0.18530    1.000
    C126     C        0.86100    0.73430    0.11720    1.000
    C127     C        0.91890    0.98840    0.04090    1.000
    C128     C        0.94070    0.93500    0.00100    1.000
    C129     C        0.98190    0.05500    0.04110    1.000
    C130     C        0.87080    0.86350    0.99870    1.000
    O41      O        0.25500    0.90500    0.87950    1.000
    N13      N        0.21300    0.78100    0.89100    1.000
    C131     C        0.22300    0.83700    0.87100    1.000
    C132     C        0.09500    0.77640    0.84880    1.000
    C133     C        0.24200    0.72300    0.93200    1.000
    O42      O        0.26700    0.68700    0.90700    1.000
    N14      N        0.21000    0.65300    0.81500    1.000
    C134     C        0.18000    0.71100    0.85800    1.000
    C135     C        0.24200    0.59200    0.78600    1.000
    C136     C        0.09500    0.68300    0.78600    1.000
    C137     C        0.74400    0.01390    0.08300    1.000
    C138     C        0.77700    0.93200    0.24400    1.000
    C139     C        0.68300    0.67700    0.25000    1.000
    C140     C        0.84400    0.95500    0.19500    1.000
    Cu8      Cu       0.15392    0.28317    0.01886    1.000
    Br22     Br       0.36160    0.47070    0.12620    1.000
    Br23     Br       0.59710    0.37780    0.90030    1.000
    Br24     Br       0.24410    0.13065    0.21024    1.000
    O43      O        0.25370    0.26470    0.10700    1.000
    O44      O        0.41620    0.20820    0.07480    1.000
    O45      O        0.26120    0.36730    0.01490    1.000
    O46      O        0.42320    0.31020    0.98220    1.000
    C141     C        0.38500    0.26760    0.23580    1.000
    C142     C        0.45200    0.26960    0.29880    1.000
    C143     C        0.39290    0.18970    0.23060    1.000
    C144     C        0.54140    0.18960    0.20330    1.000
    C145     C        0.43100    0.22880    0.18530    1.000
    C146     C        0.36100    0.23430    0.11720    1.000
    C147     C        0.41890    0.48840    0.04090    1.000
    C148     C        0.44070    0.43500    0.00100    1.000
    C149     C        0.48190    0.55500    0.04110    1.000
    C150     C        0.37080    0.36350    0.99870    1.000
    O47      O        0.75500    0.40500    0.87950    1.000
    N15      N        0.71300    0.28100    0.89100    1.000
    C151     C        0.72300    0.33700    0.87100    1.000
    C152     C        0.59500    0.27640    0.84880    1.000
    C153     C        0.74200    0.22300    0.93200    1.000
    O48      O        0.76700    0.18700    0.90700    1.000
    N16      N        0.71000    0.15300    0.81500    1.000
    C154     C        0.68000    0.21100    0.85800    1.000
    C155     C        0.74200    0.09200    0.78600    1.000
    C156     C        0.59500    0.18300    0.78600    1.000
    C157     C        0.24400    0.51390    0.08300    1.000
    C158     C        0.27700    0.43200    0.24400    1.000
    C159     C        0.18300    0.17700    0.25000    1.000
    C160     C        0.34400    0.45500    0.19500    1.000
