# CIF file generated by openbabel 3.1.0, see https://openbabel.org
data_I
_chemical_name_common 'image0'
_cell_length_a 35.319
_cell_length_b 18.2332
_cell_length_c 23.452
_cell_angle_alpha 90
_cell_angle_beta 120.172
_cell_angle_gamma 90
_space_group_name_H-M_alt 'P 1'
_space_group_name_Hall 'P 1'
loop_
    _symmetry_equiv_pos_as_xyz
    x,y,z
loop_
    _atom_site_label
    _atom_site_type_symbol
    _atom_site_fract_x
    _atom_site_fract_y
    _atom_site_fract_z
    _atom_site_occupancy
    N1       N        0.59120    0.85050    0.91000    1.000
    N2       N        0.11040    0.16590    0.62180    1.000
    O1       O        0.35540    0.84500    0.75630    1.000
    O2       O        0.36480    0.94510    0.71410    1.000
    O3       O        0.35950    0.88100    0.70890    1.000
    O4       O        0.78116    0.91070    0.00950    1.000
    O5       O        0.72624    0.95040    0.91320    1.000
    O6       O        0.68713    0.66100    0.07930    1.000
    O7       O        0.75564    0.70240    0.12000    1.000
    O8       O        0.88167    0.03560    0.45370    1.000
    O9       O        0.88817    0.12160    0.39240    1.000
    O10      O        0.21847    0.96940    0.64520    1.000
    O11      O        0.28268    0.00930    0.72270    1.000
    O12      O        0.29669    0.26850    0.78970    1.000
    O13      O        0.23902    0.34130    0.75310    1.000
    C1       C        0.37890    0.88880    0.75470    1.000
    C2       C        0.42770    0.87710    0.79760    1.000
    C3       C        0.44470    0.81680    0.83870    1.000
    H1       H        0.42420    0.78280    0.83590    1.000
    C4       C        0.48810    0.80020    0.88350    1.000
    H2       H        0.49640    0.76210    0.91390    1.000
    C5       C        0.51760    0.84580    0.87850    1.000
    C6       C        0.50390    0.89960    0.83070    1.000
    H3       H        0.52430    0.92480    0.82420    1.000
    C7       C        0.56710    0.88610    0.88270    1.000
    C8       C        0.45930    0.91610    0.79190    1.000
    H4       H        0.45070    0.95420    0.76160    1.000
    C9       C        0.56580    0.83200    0.92080    1.000
    C10      C        0.74120    0.91300    0.96580    1.000
    C11      C        0.71030    0.86690    0.97680    1.000
    C12      C        0.72660    0.81270    0.02500    1.000
    H5       H        0.75660    0.80570    0.05090    1.000
    C13      C        0.69830    0.76920    0.03450    1.000
    C14      C        0.65330    0.78090    0.99750    1.000
    H6       H        0.63420    0.75210    0.00440    1.000
    C15      C        0.63700    0.83670    0.94970    1.000
    C16      C        0.66500    0.87780    0.93850    1.000
    H7       H        0.65400    0.91310    0.90540    1.000
    C17      C        0.71550    0.70700    0.08240    1.000
    C18      C        0.90330    0.08130    0.44280    1.000
    C19      C        0.95140    0.09060    0.49310    1.000
    C20      C        0.97220    0.04460    0.54510    1.000
    H8       H        0.95650    0.00800    0.55180    1.000
    C21      C        0.01690    0.05200    0.58850    1.000
    H9       H        0.03110    0.01880    0.62300    1.000
    C22      C        0.04030    0.10750    0.58110    1.000
    C23      C        0.01830    0.15460    0.52970    1.000
    H10      H        0.03310    0.19440    0.52540    1.000
    C24      C        0.97480    0.14490    0.48420    1.000
    H11      H        0.96110    0.17520    0.44730    1.000
    C25      C        0.08800    0.11250    0.62460    1.000
    C26      C        0.24310    0.01990    0.68560    1.000
    C27      C        0.22170    0.08920    0.68780    1.000
    C28      C        0.17630    0.09470    0.65520    1.000
    H12      H        0.15920    0.05450    0.63230    1.000
    C29      C        0.15630    0.15960    0.65670    1.000
    C30      C        0.18220    0.22090    0.68870    1.000
    H13      H        0.16910    0.26550    0.68780    1.000
    C31      C        0.22760    0.21490    0.72190    1.000
    C32      C        0.24750    0.14950    0.72130    1.000
    H14      H        0.27790    0.14600    0.74310    1.000
    C33      C        0.25640    0.27860    0.75780    1.000
    Cd1      Cd       0.29150    0.89689    0.68628    1.000
    Cd2      Cd       0.82324    0.95339    0.97106    1.000
    Cd3      Cd       0.68266    0.61959    0.17018    1.000
    H15      H        0.10200    0.06700    0.65000    1.000
    O14      O        0.35490    0.87430    0.79330    1.000
    N3       N        0.09120    0.35050    0.91000    1.000
    N4       N        0.61040    0.66590    0.62180    1.000
    O15      O        0.85540    0.34500    0.75630    1.000
    O16      O        0.86480    0.44510    0.71410    1.000
    O17      O        0.85950    0.38100    0.70890    1.000
    O18      O        0.28116    0.41070    0.00950    1.000
    O19      O        0.22624    0.45040    0.91320    1.000
    O20      O        0.18713    0.16100    0.07930    1.000
    O21      O        0.25564    0.20240    0.12000    1.000
    O22      O        0.38167    0.53560    0.45370    1.000
    O23      O        0.38817    0.62160    0.39240    1.000
    O24      O        0.71847    0.46940    0.64520    1.000
    O25      O        0.78268    0.50930    0.72270    1.000
    O26      O        0.79669    0.76850    0.78970    1.000
    O27      O        0.73902    0.84130    0.75310    1.000
    C34      C        0.87890    0.38880    0.75470    1.000
    C35      C        0.92770    0.37710    0.79760    1.000
    C36      C        0.94470    0.31680    0.83870    1.000
    H16      H        0.92420    0.28280    0.83590    1.000
    C37      C        0.98810    0.30020    0.88350    1.000
    H17      H        0.99640    0.26210    0.91390    1.000
    C38      C        0.01760    0.34580    0.87850    1.000
    C39      C        0.00390    0.39960    0.83070    1.000
    H18      H        0.02430    0.42480    0.82420    1.000
    C40      C        0.06710    0.38610    0.88270    1.000
    C41      C        0.95930    0.41610    0.79190    1.000
    H19      H        0.95070    0.45420    0.76160    1.000
    C42      C        0.06580    0.33200    0.92080    1.000
    C43      C        0.24120    0.41300    0.96580    1.000
    C44      C        0.21030    0.36690    0.97680    1.000
    C45      C        0.22660    0.31270    0.02500    1.000
    H20      H        0.25660    0.30570    0.05090    1.000
    C46      C        0.19830    0.26920    0.03450    1.000
    C47      C        0.15330    0.28090    0.99750    1.000
    H21      H        0.13420    0.25210    0.00440    1.000
    C48      C        0.13700    0.33670    0.94970    1.000
    C49      C        0.16500    0.37780    0.93850    1.000
    H22      H        0.15400    0.41310    0.90540    1.000
    C50      C        0.21550    0.20700    0.08240    1.000
    C51      C        0.40330    0.58130    0.44280    1.000
    C52      C        0.45140    0.59060    0.49310    1.000
    C53      C        0.47220    0.54460    0.54510    1.000
    H23      H        0.45650    0.50800    0.55180    1.000
    C54      C        0.51690    0.55200    0.58850    1.000
    H24      H        0.53110    0.51880    0.62300    1.000
    C55      C        0.54030    0.60750    0.58110    1.000
    C56      C        0.51830    0.65460    0.52970    1.000
    H25      H        0.53310    0.69440    0.52540    1.000
    C57      C        0.47480    0.64490    0.48420    1.000
    H26      H        0.46110    0.67520    0.44730    1.000
    C58      C        0.58800    0.61250    0.62460    1.000
    C59      C        0.74310    0.51990    0.68560    1.000
    C60      C        0.72170    0.58920    0.68780    1.000
    C61      C        0.67630    0.59470    0.65520    1.000
    H27      H        0.65920    0.55450    0.63230    1.000
    C62      C        0.65630    0.65960    0.65670    1.000
    C63      C        0.68220    0.72090    0.68870    1.000
    H28      H        0.66910    0.76550    0.68780    1.000
    C64      C        0.72760    0.71490    0.72190    1.000
    C65      C        0.74750    0.64950    0.72130    1.000
    H29      H        0.77790    0.64600    0.74310    1.000
    C66      C        0.75640    0.77860    0.75780    1.000
    Cd4      Cd       0.79150    0.39689    0.68628    1.000
    Cd5      Cd       0.32324    0.45339    0.97106    1.000
    Cd6      Cd       0.18266    0.11959    0.17018    1.000
    H30      H        0.60200    0.56700    0.65000    1.000
    O28      O        0.85490    0.37430    0.79330    1.000
    N5       N        0.40880    0.85050    0.59000    1.000
    N6       N        0.88960    0.16590    0.87820    1.000
    O29      O        0.64460    0.84500    0.74370    1.000
    O30      O        0.63520    0.94510    0.78590    1.000
    O31      O        0.64050    0.88100    0.79110    1.000
    O32      O        0.21884    0.91070    0.49050    1.000
    O33      O        0.27376    0.95040    0.58680    1.000
    O34      O        0.31287    0.66100    0.42070    1.000
    O35      O        0.24436    0.70240    0.38000    1.000
    O36      O        0.11833    0.03560    0.04630    1.000
    O37      O        0.11183    0.12160    0.10760    1.000
    O38      O        0.78153    0.96940    0.85480    1.000
    O39      O        0.71732    0.00930    0.77730    1.000
    O40      O        0.70331    0.26850    0.71030    1.000
    O41      O        0.76098    0.34130    0.74690    1.000
    C67      C        0.62110    0.88880    0.74530    1.000
    C68      C        0.57230    0.87710    0.70240    1.000
    C69      C        0.55530    0.81680    0.66130    1.000
    H31      H        0.57580    0.78280    0.66410    1.000
    C70      C        0.51190    0.80020    0.61650    1.000
    H32      H        0.50360    0.76210    0.58610    1.000
    C71      C        0.48240    0.84580    0.62150    1.000
    C72      C        0.49610    0.89960    0.66930    1.000
    H33      H        0.47570    0.92480    0.67580    1.000
    C73      C        0.43290    0.88610    0.61730    1.000
    C74      C        0.54070    0.91610    0.70810    1.000
    H34      H        0.54930    0.95420    0.73840    1.000
    C75      C        0.43420    0.83200    0.57920    1.000
    C76      C        0.25880    0.91300    0.53420    1.000
    C77      C        0.28970    0.86690    0.52320    1.000
    C78      C        0.27340    0.81270    0.47500    1.000
    H35      H        0.24340    0.80570    0.44910    1.000
    C79      C        0.30170    0.76920    0.46550    1.000
    C80      C        0.34670    0.78090    0.50250    1.000
    H36      H        0.36580    0.75210    0.49560    1.000
    C81      C        0.36300    0.83670    0.55030    1.000
    C82      C        0.33500    0.87780    0.56150    1.000
    H37      H        0.34600    0.91310    0.59460    1.000
    C83      C        0.28450    0.70700    0.41760    1.000
    C84      C        0.09670    0.08130    0.05720    1.000
    C85      C        0.04860    0.09060    0.00690    1.000
    C86      C        0.02780    0.04460    0.95490    1.000
    H38      H        0.04350    0.00800    0.94820    1.000
    C87      C        0.98310    0.05200    0.91150    1.000
    H39      H        0.96890    0.01880    0.87700    1.000
    C88      C        0.95970    0.10750    0.91890    1.000
    C89      C        0.98170    0.15460    0.97030    1.000
    H40      H        0.96690    0.19440    0.97460    1.000
    C90      C        0.02520    0.14490    0.01580    1.000
    H41      H        0.03890    0.17520    0.05270    1.000
    C91      C        0.91200    0.11250    0.87540    1.000
    C92      C        0.75690    0.01990    0.81440    1.000
    C93      C        0.77830    0.08920    0.81220    1.000
    C94      C        0.82370    0.09470    0.84480    1.000
    H42      H        0.84080    0.05450    0.86770    1.000
    C95      C        0.84370    0.15960    0.84330    1.000
    C96      C        0.81780    0.22090    0.81130    1.000
    H43      H        0.83090    0.26550    0.81220    1.000
    C97      C        0.77240    0.21490    0.77810    1.000
    C98      C        0.75250    0.14950    0.77870    1.000
    H44      H        0.72210    0.14600    0.75690    1.000
    C99      C        0.74360    0.27860    0.74220    1.000
    Cd7      Cd       0.70850    0.89689    0.81372    1.000
    Cd8      Cd       0.17676    0.95339    0.52894    1.000
    Cd9      Cd       0.31734    0.61959    0.32982    1.000
    H45      H        0.89800    0.06700    0.85000    1.000
    O42      O        0.64510    0.87430    0.70670    1.000
    N7       N        0.90880    0.35050    0.59000    1.000
    N8       N        0.38960    0.66590    0.87820    1.000
    O43      O        0.14460    0.34500    0.74370    1.000
    O44      O        0.13520    0.44510    0.78590    1.000
    O45      O        0.14050    0.38100    0.79110    1.000
    O46      O        0.71884    0.41070    0.49050    1.000
    O47      O        0.77376    0.45040    0.58680    1.000
    O48      O        0.81287    0.16100    0.42070    1.000
    O49      O        0.74436    0.20240    0.38000    1.000
    O50      O        0.61833    0.53560    0.04630    1.000
    O51      O        0.61183    0.62160    0.10760    1.000
    O52      O        0.28153    0.46940    0.85480    1.000
    O53      O        0.21732    0.50930    0.77730    1.000
    O54      O        0.20331    0.76850    0.71030    1.000
    O55      O        0.26098    0.84130    0.74690    1.000
    C100     C        0.12110    0.38880    0.74530    1.000
    C101     C        0.07230    0.37710    0.70240    1.000
    C102     C        0.05530    0.31680    0.66130    1.000
    H46      H        0.07580    0.28280    0.66410    1.000
    C103     C        0.01190    0.30020    0.61650    1.000
    H47      H        0.00360    0.26210    0.58610    1.000
    C104     C        0.98240    0.34580    0.62150    1.000
    C105     C        0.99610    0.39960    0.66930    1.000
    H48      H        0.97570    0.42480    0.67580    1.000
    C106     C        0.93290    0.38610    0.61730    1.000
    C107     C        0.04070    0.41610    0.70810    1.000
    H49      H        0.04930    0.45420    0.73840    1.000
    C108     C        0.93420    0.33200    0.57920    1.000
    C109     C        0.75880    0.41300    0.53420    1.000
    C110     C        0.78970    0.36690    0.52320    1.000
    C111     C        0.77340    0.31270    0.47500    1.000
    H50      H        0.74340    0.30570    0.44910    1.000
    C112     C        0.80170    0.26920    0.46550    1.000
    C113     C        0.84670    0.28090    0.50250    1.000
    H51      H        0.86580    0.25210    0.49560    1.000
    C114     C        0.86300    0.33670    0.55030    1.000
    C115     C        0.83500    0.37780    0.56150    1.000
    H52      H        0.84600    0.41310    0.59460    1.000
    C116     C        0.78450    0.20700    0.41760    1.000
    C117     C        0.59670    0.58130    0.05720    1.000
    C118     C        0.54860    0.59060    0.00690    1.000
    C119     C        0.52780    0.54460    0.95490    1.000
    H53      H        0.54350    0.50800    0.94820    1.000
    C120     C        0.48310    0.55200    0.91150    1.000
    H54      H        0.46890    0.51880    0.87700    1.000
    C121     C        0.45970    0.60750    0.91890    1.000
    C122     C        0.48170    0.65460    0.97030    1.000
    H55      H        0.46690    0.69440    0.97460    1.000
    C123     C        0.52520    0.64490    0.01580    1.000
    H56      H        0.53890    0.67520    0.05270    1.000
    C124     C        0.41200    0.61250    0.87540    1.000
    C125     C        0.25690    0.51990    0.81440    1.000
    C126     C        0.27830    0.58920    0.81220    1.000
    C127     C        0.32370    0.59470    0.84480    1.000
    H57      H        0.34080    0.55450    0.86770    1.000
    C128     C        0.34370    0.65960    0.84330    1.000
    C129     C        0.31780    0.72090    0.81130    1.000
    H58      H        0.33090    0.76550    0.81220    1.000
    C130     C        0.27240    0.71490    0.77810    1.000
    C131     C        0.25250    0.64950    0.77870    1.000
    H59      H        0.22210    0.64600    0.75690    1.000
    C132     C        0.24360    0.77860    0.74220    1.000
    Cd10     Cd       0.20850    0.39689    0.81372    1.000
    Cd11     Cd       0.67676    0.45339    0.52894    1.000
    Cd12     Cd       0.81734    0.11959    0.32982    1.000
    H60      H        0.39800    0.56700    0.85000    1.000
    O56      O        0.14510    0.37430    0.70670    1.000
    N9       N        0.40880    0.14950    0.09000    1.000
    N10      N        0.88960    0.83410    0.37820    1.000
    O57      O        0.64460    0.15500    0.24370    1.000
    O58      O        0.63520    0.05490    0.28590    1.000
    O59      O        0.64050    0.11900    0.29110    1.000
    O60      O        0.21884    0.08930    0.99050    1.000
    O61      O        0.27376    0.04960    0.08680    1.000
    O62      O        0.31287    0.33900    0.92070    1.000
    O63      O        0.24436    0.29760    0.88000    1.000
    O64      O        0.11833    0.96440    0.54630    1.000
    O65      O        0.11183    0.87840    0.60760    1.000
    O66      O        0.78153    0.03060    0.35480    1.000
    O67      O        0.71732    0.99070    0.27730    1.000
    O68      O        0.70331    0.73150    0.21030    1.000
    O69      O        0.76098    0.65870    0.24690    1.000
    C133     C        0.62110    0.11120    0.24530    1.000
    C134     C        0.57230    0.12290    0.20240    1.000
    C135     C        0.55530    0.18320    0.16130    1.000
    H61      H        0.57580    0.21720    0.16410    1.000
    C136     C        0.51190    0.19980    0.11650    1.000
    H62      H        0.50360    0.23790    0.08610    1.000
    C137     C        0.48240    0.15420    0.12150    1.000
    C138     C        0.49610    0.10040    0.16930    1.000
    H63      H        0.47570    0.07520    0.17580    1.000
    C139     C        0.43290    0.11390    0.11730    1.000
    C140     C        0.54070    0.08390    0.20810    1.000
    H64      H        0.54930    0.04580    0.23840    1.000
    C141     C        0.43420    0.16800    0.07920    1.000
    C142     C        0.25880    0.08700    0.03420    1.000
    C143     C        0.28970    0.13310    0.02320    1.000
    C144     C        0.27340    0.18730    0.97500    1.000
    H65      H        0.24340    0.19430    0.94910    1.000
    C145     C        0.30170    0.23080    0.96550    1.000
    C146     C        0.34670    0.21910    0.00250    1.000
    H66      H        0.36580    0.24790    0.99560    1.000
    C147     C        0.36300    0.16330    0.05030    1.000
    C148     C        0.33500    0.12220    0.06150    1.000
    H67      H        0.34600    0.08690    0.09460    1.000
    C149     C        0.28450    0.29300    0.91760    1.000
    C150     C        0.09670    0.91870    0.55720    1.000
    C151     C        0.04860    0.90940    0.50690    1.000
    C152     C        0.02780    0.95540    0.45490    1.000
    H68      H        0.04350    0.99200    0.44820    1.000
    C153     C        0.98310    0.94800    0.41150    1.000
    H69      H        0.96890    0.98120    0.37700    1.000
    C154     C        0.95970    0.89250    0.41890    1.000
    C155     C        0.98170    0.84540    0.47030    1.000
    H70      H        0.96690    0.80560    0.47460    1.000
    C156     C        0.02520    0.85510    0.51580    1.000
    H71      H        0.03890    0.82480    0.55270    1.000
    C157     C        0.91200    0.88750    0.37540    1.000
    C158     C        0.75690    0.98010    0.31440    1.000
    C159     C        0.77830    0.91080    0.31220    1.000
    C160     C        0.82370    0.90530    0.34480    1.000
    H72      H        0.84080    0.94550    0.36770    1.000
    C161     C        0.84370    0.84040    0.34330    1.000
    C162     C        0.81780    0.77910    0.31130    1.000
    H73      H        0.83090    0.73450    0.31220    1.000
    C163     C        0.77240    0.78510    0.27810    1.000
    C164     C        0.75250    0.85050    0.27870    1.000
    H74      H        0.72210    0.85400    0.25690    1.000
    C165     C        0.74360    0.72140    0.24220    1.000
    Cd13     Cd       0.70850    0.10311    0.31372    1.000
    Cd14     Cd       0.17676    0.04661    0.02894    1.000
    Cd15     Cd       0.31734    0.38041    0.82982    1.000
    H75      H        0.89800    0.93300    0.35000    1.000
    O70      O        0.64510    0.12570    0.20670    1.000
    N11      N        0.90880    0.64950    0.09000    1.000
    N12      N        0.38960    0.33410    0.37820    1.000
    O71      O        0.14460    0.65500    0.24370    1.000
    O72      O        0.13520    0.55490    0.28590    1.000
    O73      O        0.14050    0.61900    0.29110    1.000
    O74      O        0.71884    0.58930    0.99050    1.000
    O75      O        0.77376    0.54960    0.08680    1.000
    O76      O        0.81287    0.83900    0.92070    1.000
    O77      O        0.74436    0.79760    0.88000    1.000
    O78      O        0.61833    0.46440    0.54630    1.000
    O79      O        0.61183    0.37840    0.60760    1.000
    O80      O        0.28153    0.53060    0.35480    1.000
    O81      O        0.21732    0.49070    0.27730    1.000
    O82      O        0.20331    0.23150    0.21030    1.000
    O83      O        0.26098    0.15870    0.24690    1.000
    C166     C        0.12110    0.61120    0.24530    1.000
    C167     C        0.07230    0.62290    0.20240    1.000
    C168     C        0.05530    0.68320    0.16130    1.000
    H76      H        0.07580    0.71720    0.16410    1.000
    C169     C        0.01190    0.69980    0.11650    1.000
    H77      H        0.00360    0.73790    0.08610    1.000
    C170     C        0.98240    0.65420    0.12150    1.000
    C171     C        0.99610    0.60040    0.16930    1.000
    H78      H        0.97570    0.57520    0.17580    1.000
    C172     C        0.93290    0.61390    0.11730    1.000
    C173     C        0.04070    0.58390    0.20810    1.000
    H79      H        0.04930    0.54580    0.23840    1.000
    C174     C        0.93420    0.66800    0.07920    1.000
    C175     C        0.75880    0.58700    0.03420    1.000
    C176     C        0.78970    0.63310    0.02320    1.000
    C177     C        0.77340    0.68730    0.97500    1.000
    H80      H        0.74340    0.69430    0.94910    1.000
    C178     C        0.80170    0.73080    0.96550    1.000
    C179     C        0.84670    0.71910    0.00250    1.000
    H81      H        0.86580    0.74790    0.99560    1.000
    C180     C        0.86300    0.66330    0.05030    1.000
    C181     C        0.83500    0.62220    0.06150    1.000
    H82      H        0.84600    0.58690    0.09460    1.000
    C182     C        0.78450    0.79300    0.91760    1.000
    C183     C        0.59670    0.41870    0.55720    1.000
    C184     C        0.54860    0.40940    0.50690    1.000
    C185     C        0.52780    0.45540    0.45490    1.000
    H83      H        0.54350    0.49200    0.44820    1.000
    C186     C        0.48310    0.44800    0.41150    1.000
    H84      H        0.46890    0.48120    0.37700    1.000
    C187     C        0.45970    0.39250    0.41890    1.000
    C188     C        0.48170    0.34540    0.47030    1.000
    H85      H        0.46690    0.30560    0.47460    1.000
    C189     C        0.52520    0.35510    0.51580    1.000
    H86      H        0.53890    0.32480    0.55270    1.000
    C190     C        0.41200    0.38750    0.37540    1.000
    C191     C        0.25690    0.48010    0.31440    1.000
    C192     C        0.27830    0.41080    0.31220    1.000
    C193     C        0.32370    0.40530    0.34480    1.000
    H87      H        0.34080    0.44550    0.36770    1.000
    C194     C        0.34370    0.34040    0.34330    1.000
    C195     C        0.31780    0.27910    0.31130    1.000
    H88      H        0.33090    0.23450    0.31220    1.000
    C196     C        0.27240    0.28510    0.27810    1.000
    C197     C        0.25250    0.35050    0.27870    1.000
    H89      H        0.22210    0.35400    0.25690    1.000
    C198     C        0.24360    0.22140    0.24220    1.000
    Cd16     Cd       0.20850    0.60311    0.31372    1.000
    Cd17     Cd       0.67676    0.54661    0.02894    1.000
    Cd18     Cd       0.81734    0.88041    0.82982    1.000
    H90      H        0.39800    0.43300    0.35000    1.000
    O84      O        0.14510    0.62570    0.20670    1.000
    N13      N        0.59120    0.14950    0.41000    1.000
    N14      N        0.11040    0.83410    0.12180    1.000
    O85      O        0.35540    0.15500    0.25630    1.000
    O86      O        0.36480    0.05490    0.21410    1.000
    O87      O        0.35950    0.11900    0.20890    1.000
    O88      O        0.78116    0.08930    0.50950    1.000
    O89      O        0.72624    0.04960    0.41320    1.000
    O90      O        0.68713    0.33900    0.57930    1.000
    O91      O        0.75564    0.29760    0.62000    1.000
    O92      O        0.88167    0.96440    0.95370    1.000
    O93      O        0.88817    0.87840    0.89240    1.000
    O94      O        0.21847    0.03060    0.14520    1.000
    O95      O        0.28268    0.99070    0.22270    1.000
    O96      O        0.29669    0.73150    0.28970    1.000
    O97      O        0.23902    0.65870    0.25310    1.000
    C199     C        0.37890    0.11120    0.25470    1.000
    C200     C        0.42770    0.12290    0.29760    1.000
    C201     C        0.44470    0.18320    0.33870    1.000
    H91      H        0.42420    0.21720    0.33590    1.000
    C202     C        0.48810    0.19980    0.38350    1.000
    H92      H        0.49640    0.23790    0.41390    1.000
    C203     C        0.51760    0.15420    0.37850    1.000
    C204     C        0.50390    0.10040    0.33070    1.000
    H93      H        0.52430    0.07520    0.32420    1.000
    C205     C        0.56710    0.11390    0.38270    1.000
    C206     C        0.45930    0.08390    0.29190    1.000
    H94      H        0.45070    0.04580    0.26160    1.000
    C207     C        0.56580    0.16800    0.42080    1.000
    C208     C        0.74120    0.08700    0.46580    1.000
    C209     C        0.71030    0.13310    0.47680    1.000
    C210     C        0.72660    0.18730    0.52500    1.000
    H95      H        0.75660    0.19430    0.55090    1.000
    C211     C        0.69830    0.23080    0.53450    1.000
    C212     C        0.65330    0.21910    0.49750    1.000
    H96      H        0.63420    0.24790    0.50440    1.000
    C213     C        0.63700    0.16330    0.44970    1.000
    C214     C        0.66500    0.12220    0.43850    1.000
    H97      H        0.65400    0.08690    0.40540    1.000
    C215     C        0.71550    0.29300    0.58240    1.000
    C216     C        0.90330    0.91870    0.94280    1.000
    C217     C        0.95140    0.90940    0.99310    1.000
    C218     C        0.97220    0.95540    0.04510    1.000
    H98      H        0.95650    0.99200    0.05180    1.000
    C219     C        0.01690    0.94800    0.08850    1.000
    H99      H        0.03110    0.98120    0.12300    1.000
    C220     C        0.04030    0.89250    0.08110    1.000
    C221     C        0.01830    0.84540    0.02970    1.000
    H100     H        0.03310    0.80560    0.02540    1.000
    C222     C        0.97480    0.85510    0.98420    1.000
    H101     H        0.96110    0.82480    0.94730    1.000
    C223     C        0.08800    0.88750    0.12460    1.000
    C224     C        0.24310    0.98010    0.18560    1.000
    C225     C        0.22170    0.91080    0.18780    1.000
    C226     C        0.17630    0.90530    0.15520    1.000
    H102     H        0.15920    0.94550    0.13230    1.000
    C227     C        0.15630    0.84040    0.15670    1.000
    C228     C        0.18220    0.77910    0.18870    1.000
    H103     H        0.16910    0.73450    0.18780    1.000
    C229     C        0.22760    0.78510    0.22190    1.000
    C230     C        0.24750    0.85050    0.22130    1.000
    H104     H        0.27790    0.85400    0.24310    1.000
    C231     C        0.25640    0.72140    0.25780    1.000
    Cd19     Cd       0.29150    0.10311    0.18628    1.000
    Cd20     Cd       0.82324    0.04661    0.47106    1.000
    Cd21     Cd       0.68266    0.38041    0.67018    1.000
    H105     H        0.10200    0.93300    0.15000    1.000
    O98      O        0.35490    0.12570    0.29330    1.000
    N15      N        0.09120    0.64950    0.41000    1.000
    N16      N        0.61040    0.33410    0.12180    1.000
    O99      O        0.85540    0.65500    0.25630    1.000
    O100     O        0.86480    0.55490    0.21410    1.000
    O101     O        0.85950    0.61900    0.20890    1.000
    O102     O        0.28116    0.58930    0.50950    1.000
    O103     O        0.22624    0.54960    0.41320    1.000
    O104     O        0.18713    0.83900    0.57930    1.000
    O105     O        0.25564    0.79760    0.62000    1.000
    O106     O        0.38167    0.46440    0.95370    1.000
    O107     O        0.38817    0.37840    0.89240    1.000
    O108     O        0.71847    0.53060    0.14520    1.000
    O109     O        0.78268    0.49070    0.22270    1.000
    O110     O        0.79669    0.23150    0.28970    1.000
    O111     O        0.73902    0.15870    0.25310    1.000
    C232     C        0.87890    0.61120    0.25470    1.000
    C233     C        0.92770    0.62290    0.29760    1.000
    C234     C        0.94470    0.68320    0.33870    1.000
    H106     H        0.92420    0.71720    0.33590    1.000
    C235     C        0.98810    0.69980    0.38350    1.000
    H107     H        0.99640    0.73790    0.41390    1.000
    C236     C        0.01760    0.65420    0.37850    1.000
    C237     C        0.00390    0.60040    0.33070    1.000
    H108     H        0.02430    0.57520    0.32420    1.000
    C238     C        0.06710    0.61390    0.38270    1.000
    C239     C        0.95930    0.58390    0.29190    1.000
    H109     H        0.95070    0.54580    0.26160    1.000
    C240     C        0.06580    0.66800    0.42080    1.000
    C241     C        0.24120    0.58700    0.46580    1.000
    C242     C        0.21030    0.63310    0.47680    1.000
    C243     C        0.22660    0.68730    0.52500    1.000
    H110     H        0.25660    0.69430    0.55090    1.000
    C244     C        0.19830    0.73080    0.53450    1.000
    C245     C        0.15330    0.71910    0.49750    1.000
    H111     H        0.13420    0.74790    0.50440    1.000
    C246     C        0.13700    0.66330    0.44970    1.000
    C247     C        0.16500    0.62220    0.43850    1.000
    H112     H        0.15400    0.58690    0.40540    1.000
    C248     C        0.21550    0.79300    0.58240    1.000
    C249     C        0.40330    0.41870    0.94280    1.000
    C250     C        0.45140    0.40940    0.99310    1.000
    C251     C        0.47220    0.45540    0.04510    1.000
    H113     H        0.45650    0.49200    0.05180    1.000
    C252     C        0.51690    0.44800    0.08850    1.000
    H114     H        0.53110    0.48120    0.12300    1.000
    C253     C        0.54030    0.39250    0.08110    1.000
    C254     C        0.51830    0.34540    0.02970    1.000
    H115     H        0.53310    0.30560    0.02540    1.000
    C255     C        0.47480    0.35510    0.98420    1.000
    H116     H        0.46110    0.32480    0.94730    1.000
    C256     C        0.58800    0.38750    0.12460    1.000
    C257     C        0.74310    0.48010    0.18560    1.000
    C258     C        0.72170    0.41080    0.18780    1.000
    C259     C        0.67630    0.40530    0.15520    1.000
    H117     H        0.65920    0.44550    0.13230    1.000
    C260     C        0.65630    0.34040    0.15670    1.000
    C261     C        0.68220    0.27910    0.18870    1.000
    H118     H        0.66910    0.23450    0.18780    1.000
    C262     C        0.72760    0.28510    0.22190    1.000
    C263     C        0.74750    0.35050    0.22130    1.000
    H119     H        0.77790    0.35400    0.24310    1.000
    C264     C        0.75640    0.22140    0.25780    1.000
    Cd22     Cd       0.79150    0.60311    0.18628    1.000
    Cd23     Cd       0.32324    0.54661    0.47106    1.000
    Cd24     Cd       0.18266    0.88041    0.67018    1.000
    H120     H        0.60200    0.43300    0.15000    1.000
    O112     O        0.85490    0.62570    0.29330    1.000
