# CIF file generated by openbabel 3.1.0, see https://openbabel.org
data_I
_chemical_name_common 'image0'
_cell_length_a 28.159
_cell_length_b 28.159
_cell_length_c 11.9365
_cell_angle_alpha 90
_cell_angle_beta 90
_cell_angle_gamma 120
_space_group_name_H-M_alt 'P 1'
_space_group_name_Hall 'P 1'
loop_
    _symmetry_equiv_pos_as_xyz
    x,y,z
loop_
    _atom_site_label
    _atom_site_type_symbol
    _atom_site_fract_x
    _atom_site_fract_y
    _atom_site_fract_z
    _atom_site_occupancy
    Ag1      Ag       0.58905    0.06801    0.19037    1.000
    C1       C        0.64450    0.03690    0.99090    1.000
    H1       H        0.60990    0.00420    0.98980    1.000
    C2       C        0.76540    0.20040    0.28900    1.000
    H2       H        0.79430    0.22790    0.24540    1.000
    N1       N        0.65090    0.08060    0.04880    1.000
    N2       N        0.73770    0.08360    0.93280    1.000
    C3       C        0.71700    0.16690    0.23950    1.000
    C4       C        0.68340    0.12030    0.39820    1.000
    H3       H        0.65460    0.09100    0.43880    1.000
    C5       C        0.68880    0.03950    0.93210    1.000
    H4       H        0.68340    0.00840    0.89050    1.000
    C6       C        0.70040    0.12600    0.04870    1.000
    N3       N        0.67580    0.12670    0.29430    1.000
    C7       C        0.74250    0.12590    0.98950    1.000
    H5       H        0.77720    0.15860    0.98960    1.000
    C8       C        0.73220    0.15450    0.45290    1.000
    H6       H        0.73650    0.14920    0.53000    1.000
    N4       N        0.77390    0.19610    0.39460    1.000
    C9       C        0.70720    0.17320    0.11570    1.000
    H7       H        0.67390    0.17640    0.10830    1.000
    H8       H        0.73860    0.20730    0.08620    1.000
    Ag2      Ag       0.25572    0.40134    0.52370    1.000
    C10      C        0.31117    0.37023    0.32423    1.000
    H9       H        0.27657    0.33753    0.32313    1.000
    C11      C        0.43207    0.53373    0.62233    1.000
    H10      H        0.46097    0.56123    0.57873    1.000
    N5       N        0.31757    0.41393    0.38213    1.000
    N6       N        0.40437    0.41693    0.26613    1.000
    C12      C        0.38367    0.50023    0.57283    1.000
    C13      C        0.35007    0.45363    0.73153    1.000
    H11      H        0.32127    0.42433    0.77213    1.000
    C14      C        0.35547    0.37283    0.26543    1.000
    H12      H        0.35007    0.34173    0.22383    1.000
    C15      C        0.36707    0.45933    0.38203    1.000
    N7       N        0.34247    0.46003    0.62763    1.000
    C16      C        0.40917    0.45923    0.32283    1.000
    H13      H        0.44387    0.49193    0.32293    1.000
    C17      C        0.39887    0.48783    0.78623    1.000
    H14      H        0.40317    0.48253    0.86333    1.000
    N8       N        0.44057    0.52943    0.72793    1.000
    C18      C        0.37387    0.50653    0.44903    1.000
    H15      H        0.34057    0.50973    0.44163    1.000
    H16      H        0.40527    0.54063    0.41953    1.000
    Ag3      Ag       0.92238    0.73468    0.85704    1.000
    C19      C        0.97783    0.70357    0.65757    1.000
    H17      H        0.94323    0.67087    0.65647    1.000
    C20      C        0.09873    0.86707    0.95567    1.000
    H18      H        0.12763    0.89457    0.91207    1.000
    N9       N        0.98423    0.74727    0.71547    1.000
    N10      N        0.07103    0.75027    0.59947    1.000
    C21      C        0.05033    0.83357    0.90617    1.000
    C22      C        0.01673    0.78697    0.06487    1.000
    H19      H        0.98793    0.75767    0.10547    1.000
    C23      C        0.02213    0.70617    0.59877    1.000
    H20      H        0.01673    0.67507    0.55717    1.000
    C24      C        0.03373    0.79267    0.71537    1.000
    N11      N        0.00913    0.79337    0.96097    1.000
    C25      C        0.07583    0.79257    0.65617    1.000
    H21      H        0.11053    0.82527    0.65627    1.000
    C26      C        0.06553    0.82117    0.11957    1.000
    H22      H        0.06983    0.81587    0.19667    1.000
    N12      N        0.10723    0.86277    0.06127    1.000
    C27      C        0.04053    0.83987    0.78237    1.000
    H23      H        0.00723    0.84307    0.77497    1.000
    H24      H        0.07193    0.87397    0.75287    1.000
    Ag4      Ag       0.93199    0.52104    0.19037    1.000
    C28      C        0.96310    0.60760    0.99090    1.000
    H25      H        0.99580    0.60570    0.98980    1.000
    C29      C        0.79960    0.56500    0.28900    1.000
    H26      H        0.77210    0.56640    0.24540    1.000
    N13      N        0.91940    0.57030    0.04880    1.000
    N14      N        0.91640    0.65410    0.93280    1.000
    C30      C        0.83310    0.55010    0.23950    1.000
    C31      C        0.87970    0.56310    0.39820    1.000
    H27      H        0.90900    0.56360    0.43880    1.000
    C32      C        0.96050    0.64930    0.93210    1.000
    H28      H        0.99160    0.67500    0.89050    1.000
    C33      C        0.87400    0.57440    0.04870    1.000
    N15      N        0.87330    0.54910    0.29430    1.000
    C34      C        0.87410    0.61660    0.98950    1.000
    H29      H        0.84140    0.61860    0.98960    1.000
    C35      C        0.84550    0.57770    0.45290    1.000
    H30      H        0.85080    0.58730    0.53000    1.000
    N16      N        0.80390    0.57780    0.39460    1.000
    C36      C        0.82680    0.53400    0.11570    1.000
    H31      H        0.82360    0.49750    0.10830    1.000
    H32      H        0.79270    0.53130    0.08620    1.000
    Ag5      Ag       0.59866    0.85437    0.52370    1.000
    C37      C        0.62977    0.94093    0.32423    1.000
    H33      H        0.66247    0.93903    0.32313    1.000
    C38      C        0.46627    0.89833    0.62233    1.000
    H34      H        0.43877    0.89973    0.57873    1.000
    N17      N        0.58607    0.90363    0.38213    1.000
    N18      N        0.58307    0.98743    0.26613    1.000
    C39      C        0.49977    0.88343    0.57283    1.000
    C40      C        0.54637    0.89643    0.73153    1.000
    H35      H        0.57567    0.89693    0.77213    1.000
    C41      C        0.62717    0.98263    0.26543    1.000
    H36      H        0.65827    0.00833    0.22383    1.000
    C42      C        0.54067    0.90773    0.38203    1.000
    N19      N        0.53997    0.88243    0.62763    1.000
    C43      C        0.54077    0.94993    0.32283    1.000
    H37      H        0.50807    0.95193    0.32293    1.000
    C44      C        0.51217    0.91103    0.78623    1.000
    H38      H        0.51747    0.92063    0.86333    1.000
    N20      N        0.47057    0.91113    0.72793    1.000
    C45      C        0.49347    0.86733    0.44903    1.000
    H39      H        0.49027    0.83083    0.44163    1.000
    H40      H        0.45937    0.86463    0.41953    1.000
    Ag6      Ag       0.26532    0.18771    0.85704    1.000
    C46      C        0.29643    0.27427    0.65757    1.000
    H41      H        0.32913    0.27237    0.65647    1.000
    C47      C        0.13293    0.23167    0.95567    1.000
    H42      H        0.10543    0.23307    0.91207    1.000
    N21      N        0.25273    0.23697    0.71547    1.000
    N22      N        0.24973    0.32077    0.59947    1.000
    C48      C        0.16643    0.21677    0.90617    1.000
    C49      C        0.21303    0.22977    0.06487    1.000
    H43      H        0.24233    0.23027    0.10547    1.000
    C50      C        0.29383    0.31597    0.59877    1.000
    H44      H        0.32493    0.34167    0.55717    1.000
    C51      C        0.20733    0.24107    0.71537    1.000
    N23      N        0.20663    0.21577    0.96097    1.000
    C52      C        0.20743    0.28327    0.65617    1.000
    H45      H        0.17473    0.28527    0.65627    1.000
    C53      C        0.17883    0.24437    0.11957    1.000
    H46      H        0.18413    0.25397    0.19667    1.000
    N24      N        0.13723    0.24447    0.06127    1.000
    C54      C        0.16013    0.20067    0.78237    1.000
    H47      H        0.15693    0.16417    0.77497    1.000
    H48      H        0.12603    0.19797    0.75287    1.000
    Ag7      Ag       0.47896    0.41095    0.19037    1.000
    C55      C        0.39240    0.35550    0.99090    1.000
    H49      H        0.39430    0.39010    0.98980    1.000
    C56      C        0.43500    0.23460    0.28900    1.000
    H50      H        0.43360    0.20570    0.24540    1.000
    N25      N        0.42970    0.34910    0.04880    1.000
    N26      N        0.34590    0.26230    0.93280    1.000
    C57      C        0.44990    0.28300    0.23950    1.000
    C58      C        0.43690    0.31660    0.39820    1.000
    H51      H        0.43640    0.34540    0.43880    1.000
    C59      C        0.35070    0.31120    0.93210    1.000
    H52      H        0.32500    0.31660    0.89050    1.000
    C60      C        0.42560    0.29960    0.04870    1.000
    N27      N        0.45090    0.32420    0.29430    1.000
    C61      C        0.38340    0.25750    0.98950    1.000
    H53      H        0.38140    0.22280    0.98960    1.000
    C62      C        0.42230    0.26780    0.45290    1.000
    H54      H        0.41270    0.26350    0.53000    1.000
    N28      N        0.42220    0.22610    0.39460    1.000
    C63      C        0.46600    0.29280    0.11570    1.000
    H55      H        0.50250    0.32610    0.10830    1.000
    H56      H        0.46870    0.26140    0.08620    1.000
    Ag8      Ag       0.14563    0.74428    0.52370    1.000
    C64      C        0.05907    0.68883    0.32423    1.000
    H57      H        0.06097    0.72343    0.32313    1.000
    C65      C        0.10167    0.56793    0.62233    1.000
    H58      H        0.10027    0.53903    0.57873    1.000
    N29      N        0.09637    0.68243    0.38213    1.000
    N30      N        0.01257    0.59563    0.26613    1.000
    C66      C        0.11657    0.61633    0.57283    1.000
    C67      C        0.10357    0.64993    0.73153    1.000
    H59      H        0.10307    0.67873    0.77213    1.000
    C68      C        0.01737    0.64453    0.26543    1.000
    H60      H        0.99167    0.64993    0.22383    1.000
    C69      C        0.09227    0.63293    0.38203    1.000
    N31      N        0.11757    0.65753    0.62763    1.000
    C70      C        0.05007    0.59083    0.32283    1.000
    H61      H        0.04807    0.55613    0.32293    1.000
    C71      C        0.08897    0.60113    0.78623    1.000
    H62      H        0.07937    0.59683    0.86333    1.000
    N32      N        0.08887    0.55943    0.72793    1.000
    C72      C        0.13267    0.62613    0.44903    1.000
    H63      H        0.16917    0.65943    0.44163    1.000
    H64      H        0.13537    0.59473    0.41953    1.000
    Ag9      Ag       0.81229    0.07762    0.85704    1.000
    C73      C        0.72573    0.02217    0.65757    1.000
    H65      H        0.72763    0.05677    0.65647    1.000
    C74      C        0.76833    0.90127    0.95567    1.000
    H66      H        0.76693    0.87237    0.91207    1.000
    N33      N        0.76303    0.01577    0.71547    1.000
    N34      N        0.67923    0.92897    0.59947    1.000
    C75      C        0.78323    0.94967    0.90617    1.000
    C76      C        0.77023    0.98327    0.06487    1.000
    H67      H        0.76973    0.01207    0.10547    1.000
    C77      C        0.68403    0.97787    0.59877    1.000
    H68      H        0.65833    0.98327    0.55717    1.000
    C78      C        0.75893    0.96627    0.71537    1.000
    N35      N        0.78423    0.99087    0.96097    1.000
    C79      C        0.71673    0.92417    0.65617    1.000
    H69      H        0.71473    0.88947    0.65627    1.000
    C80      C        0.75563    0.93447    0.11957    1.000
    H70      H        0.74603    0.93017    0.19667    1.000
    N36      N        0.75553    0.89277    0.06127    1.000
    C81      C        0.79933    0.95947    0.78237    1.000
    H71      H        0.83583    0.99277    0.77497    1.000
    H72      H        0.80203    0.92807    0.75287    1.000
    Ag10     Ag       0.41095    0.93199    0.80963    1.000
    C82      C        0.35550    0.96310    0.00910    1.000
    H73      H        0.39010    0.99580    0.01020    1.000
    C83      C        0.23460    0.79960    0.71100    1.000
    H74      H        0.20570    0.77210    0.75460    1.000
    N37      N        0.34910    0.91940    0.95120    1.000
    N38      N        0.26230    0.91640    0.06720    1.000
    C84      C        0.28300    0.83310    0.76050    1.000
    C85      C        0.31660    0.87970    0.60180    1.000
    H75      H        0.34540    0.90900    0.56120    1.000
    C86      C        0.31120    0.96050    0.06790    1.000
    H76      H        0.31660    0.99160    0.10950    1.000
    C87      C        0.29960    0.87400    0.95130    1.000
    N39      N        0.32420    0.87330    0.70570    1.000
    C88      C        0.25750    0.87410    0.01050    1.000
    H77      H        0.22280    0.84140    0.01040    1.000
    C89      C        0.26780    0.84550    0.54710    1.000
    H78      H        0.26350    0.85080    0.47000    1.000
    N40      N        0.22610    0.80390    0.60540    1.000
    C90      C        0.29280    0.82680    0.88430    1.000
    H79      H        0.32610    0.82360    0.89170    1.000
    H80      H        0.26140    0.79270    0.91380    1.000
    Ag11     Ag       0.07762    0.26532    0.14296    1.000
    C91      C        0.02217    0.29643    0.34243    1.000
    H81      H        0.05677    0.32913    0.34353    1.000
    C92      C        0.90127    0.13293    0.04433    1.000
    H82      H        0.87237    0.10543    0.08793    1.000
    N41      N        0.01577    0.25273    0.28453    1.000
    N42      N        0.92897    0.24973    0.40053    1.000
    C93      C        0.94967    0.16643    0.09383    1.000
    C94      C        0.98327    0.21303    0.93513    1.000
    H83      H        0.01207    0.24233    0.89453    1.000
    C95      C        0.97787    0.29383    0.40123    1.000
    H84      H        0.98327    0.32493    0.44283    1.000
    C96      C        0.96627    0.20733    0.28463    1.000
    N43      N        0.99087    0.20663    0.03903    1.000
    C97      C        0.92417    0.20743    0.34383    1.000
    H85      H        0.88947    0.17473    0.34373    1.000
    C98      C        0.93447    0.17883    0.88043    1.000
    H86      H        0.93017    0.18413    0.80333    1.000
    N44      N        0.89277    0.13723    0.93873    1.000
    C99      C        0.95947    0.16013    0.21763    1.000
    H87      H        0.99277    0.15693    0.22503    1.000
    H88      H        0.92807    0.12603    0.24713    1.000
    Ag12     Ag       0.74428    0.59866    0.47630    1.000
    C100     C        0.68883    0.62977    0.67577    1.000
    H89      H        0.72343    0.66247    0.67687    1.000
    C101     C        0.56793    0.46627    0.37767    1.000
    H90      H        0.53903    0.43877    0.42127    1.000
    N45      N        0.68243    0.58607    0.61787    1.000
    N46      N        0.59563    0.58307    0.73387    1.000
    C102     C        0.61633    0.49977    0.42717    1.000
    C103     C        0.64993    0.54637    0.26847    1.000
    H91      H        0.67873    0.57567    0.22787    1.000
    C104     C        0.64453    0.62717    0.73457    1.000
    H92      H        0.64993    0.65827    0.77617    1.000
    C105     C        0.63293    0.54067    0.61797    1.000
    N47      N        0.65753    0.53997    0.37237    1.000
    C106     C        0.59083    0.54077    0.67717    1.000
    H93      H        0.55613    0.50807    0.67707    1.000
    C107     C        0.60113    0.51217    0.21377    1.000
    H94      H        0.59683    0.51747    0.13667    1.000
    N48      N        0.55943    0.47057    0.27207    1.000
    C108     C        0.62613    0.49347    0.55097    1.000
    H95      H        0.65943    0.49027    0.55837    1.000
    H96      H        0.59473    0.45937    0.58047    1.000
    Ag13     Ag       0.06801    0.47896    0.80963    1.000
    C109     C        0.03690    0.39240    0.00910    1.000
    H97      H        0.00420    0.39430    0.01020    1.000
    C110     C        0.20040    0.43500    0.71100    1.000
    H98      H        0.22790    0.43360    0.75460    1.000
    N49      N        0.08060    0.42970    0.95120    1.000
    N50      N        0.08360    0.34590    0.06720    1.000
    C111     C        0.16690    0.44990    0.76050    1.000
    C112     C        0.12030    0.43690    0.60180    1.000
    H99      H        0.09100    0.43640    0.56120    1.000
    C113     C        0.03950    0.35070    0.06790    1.000
    H100     H        0.00840    0.32500    0.10950    1.000
    C114     C        0.12600    0.42560    0.95130    1.000
    N51      N        0.12670    0.45090    0.70570    1.000
    C115     C        0.12590    0.38340    0.01050    1.000
    H101     H        0.15860    0.38140    0.01040    1.000
    C116     C        0.15450    0.42230    0.54710    1.000
    H102     H        0.14920    0.41270    0.47000    1.000
    N52      N        0.19610    0.42220    0.60540    1.000
    C117     C        0.17320    0.46600    0.88430    1.000
    H103     H        0.17640    0.50250    0.89170    1.000
    H104     H        0.20730    0.46870    0.91380    1.000
    Ag14     Ag       0.73468    0.81229    0.14296    1.000
    C118     C        0.70357    0.72573    0.34243    1.000
    H105     H        0.67087    0.72763    0.34353    1.000
    C119     C        0.86707    0.76833    0.04433    1.000
    H106     H        0.89457    0.76693    0.08793    1.000
    N53      N        0.74727    0.76303    0.28453    1.000
    N54      N        0.75027    0.67923    0.40053    1.000
    C120     C        0.83357    0.78323    0.09383    1.000
    C121     C        0.78697    0.77023    0.93513    1.000
    H107     H        0.75767    0.76973    0.89453    1.000
    C122     C        0.70617    0.68403    0.40123    1.000
    H108     H        0.67507    0.65833    0.44283    1.000
    C123     C        0.79267    0.75893    0.28463    1.000
    N55      N        0.79337    0.78423    0.03903    1.000
    C124     C        0.79257    0.71673    0.34383    1.000
    H109     H        0.82527    0.71473    0.34373    1.000
    C125     C        0.82117    0.75563    0.88043    1.000
    H110     H        0.81587    0.74603    0.80333    1.000
    N56      N        0.86277    0.75553    0.93873    1.000
    C126     C        0.83987    0.79933    0.21763    1.000
    H111     H        0.84307    0.83583    0.22503    1.000
    H112     H        0.87397    0.80203    0.24713    1.000
    Ag15     Ag       0.40134    0.14563    0.47630    1.000
    C127     C        0.37023    0.05907    0.67577    1.000
    H113     H        0.33753    0.06097    0.67687    1.000
    C128     C        0.53373    0.10167    0.37767    1.000
    H114     H        0.56123    0.10027    0.42127    1.000
    N57      N        0.41393    0.09637    0.61787    1.000
    N58      N        0.41693    0.01257    0.73387    1.000
    C129     C        0.50023    0.11657    0.42717    1.000
    C130     C        0.45363    0.10357    0.26847    1.000
    H115     H        0.42433    0.10307    0.22787    1.000
    C131     C        0.37283    0.01737    0.73457    1.000
    H116     H        0.34173    0.99167    0.77617    1.000
    C132     C        0.45933    0.09227    0.61797    1.000
    N59      N        0.46003    0.11757    0.37237    1.000
    C133     C        0.45923    0.05007    0.67717    1.000
    H117     H        0.49193    0.04807    0.67707    1.000
    C134     C        0.48783    0.08897    0.21377    1.000
    H118     H        0.48253    0.07937    0.13667    1.000
    N60      N        0.52943    0.08887    0.27207    1.000
    C135     C        0.50653    0.13267    0.55097    1.000
    H119     H        0.50973    0.16917    0.55837    1.000
    H120     H        0.54063    0.13537    0.58047    1.000
    Ag16     Ag       0.52104    0.58905    0.80963    1.000
    C136     C        0.60760    0.64450    0.00910    1.000
    H121     H        0.60570    0.60990    0.01020    1.000
    C137     C        0.56500    0.76540    0.71100    1.000
    H122     H        0.56640    0.79430    0.75460    1.000
    N61      N        0.57030    0.65090    0.95120    1.000
    N62      N        0.65410    0.73770    0.06720    1.000
    C138     C        0.55010    0.71700    0.76050    1.000
    C139     C        0.56310    0.68340    0.60180    1.000
    H123     H        0.56360    0.65460    0.56120    1.000
    C140     C        0.64930    0.68880    0.06790    1.000
    H124     H        0.67500    0.68340    0.10950    1.000
    C141     C        0.57440    0.70040    0.95130    1.000
    N63      N        0.54910    0.67580    0.70570    1.000
    C142     C        0.61660    0.74250    0.01050    1.000
    H125     H        0.61860    0.77720    0.01040    1.000
    C143     C        0.57770    0.73220    0.54710    1.000
    H126     H        0.58730    0.73650    0.47000    1.000
    N64      N        0.57780    0.77390    0.60540    1.000
    C144     C        0.53400    0.70720    0.88430    1.000
    H127     H        0.49750    0.67390    0.89170    1.000
    H128     H        0.53130    0.73860    0.91380    1.000
    Ag17     Ag       0.18771    0.92238    0.14296    1.000
    C145     C        0.27427    0.97783    0.34243    1.000
    H129     H        0.27237    0.94323    0.34353    1.000
    C146     C        0.23167    0.09873    0.04433    1.000
    H130     H        0.23307    0.12763    0.08793    1.000
    N65      N        0.23697    0.98423    0.28453    1.000
    N66      N        0.32077    0.07103    0.40053    1.000
    C147     C        0.21677    0.05033    0.09383    1.000
    C148     C        0.22977    0.01673    0.93513    1.000
    H131     H        0.23027    0.98793    0.89453    1.000
    C149     C        0.31597    0.02213    0.40123    1.000
    H132     H        0.34167    0.01673    0.44283    1.000
    C150     C        0.24107    0.03373    0.28463    1.000
    N67      N        0.21577    0.00913    0.03903    1.000
    C151     C        0.28327    0.07583    0.34383    1.000
    H133     H        0.28527    0.11053    0.34373    1.000
    C152     C        0.24437    0.06553    0.88043    1.000
    H134     H        0.25397    0.06983    0.80333    1.000
    N68      N        0.24447    0.10723    0.93873    1.000
    C153     C        0.20067    0.04053    0.21763    1.000
    H135     H        0.16417    0.00723    0.22503    1.000
    H136     H        0.19797    0.07193    0.24713    1.000
    Ag18     Ag       0.85437    0.25572    0.47630    1.000
    C154     C        0.94093    0.31117    0.67577    1.000
    H137     H        0.93903    0.27657    0.67687    1.000
    C155     C        0.89833    0.43207    0.37767    1.000
    H138     H        0.89973    0.46097    0.42127    1.000
    N69      N        0.90363    0.31757    0.61787    1.000
    N70      N        0.98743    0.40437    0.73387    1.000
    C156     C        0.88343    0.38367    0.42717    1.000
    C157     C        0.89643    0.35007    0.26847    1.000
    H139     H        0.89693    0.32127    0.22787    1.000
    C158     C        0.98263    0.35547    0.73457    1.000
    H140     H        0.00833    0.35007    0.77617    1.000
    C159     C        0.90773    0.36707    0.61797    1.000
    N71      N        0.88243    0.34247    0.37237    1.000
    C160     C        0.94993    0.40917    0.67717    1.000
    H141     H        0.95193    0.44387    0.67707    1.000
    C161     C        0.91103    0.39887    0.21377    1.000
    H142     H        0.92063    0.40317    0.13667    1.000
    N72      N        0.91113    0.44057    0.27207    1.000
    C162     C        0.86733    0.37387    0.55097    1.000
    H143     H        0.83083    0.34057    0.55837    1.000
    H144     H        0.86463    0.40527    0.58047    1.000
