# CIF file generated by openbabel 3.1.0, see https://openbabel.org
data_I
_chemical_name_common 'image0'
_cell_length_a 5.3992
_cell_length_b 11.1408
_cell_length_c 13.6811
_cell_angle_alpha 90.885
_cell_angle_beta 94.25
_cell_angle_gamma 91.825
_space_group_name_H-M_alt 'P 1'
_space_group_name_Hall 'P 1'
loop_
    _symmetry_equiv_pos_as_xyz
    x,y,z
loop_
    _atom_site_label
    _atom_site_type_symbol
    _atom_site_fract_x
    _atom_site_fract_y
    _atom_site_fract_z
    _atom_site_occupancy
    O1       O        0.46740    0.12653    0.43144    1.000
    C1       C        0.43040    0.82680    0.33040    1.000
    H1       H        0.55440    0.83950    0.38280    1.000
    C2       C        0.05120    0.86970    0.25620    1.000
    H2       H        0.90440    0.91460    0.25450    1.000
    C3       C        0.07390    0.78530    0.18190    1.000
    H3       H        0.94340    0.77130    0.13210    1.000
    C4       C        0.47100    0.74270    0.25830    1.000
    H4       H        0.62050    0.69980    0.26120    1.000
    C5       C        0.29050    0.72190    0.18169    1.000
    C6       C        0.33510    0.63300    0.09965    1.000
    C7       C        0.68130    0.13130    0.40281    1.000
    C8       C        0.73010    0.22260    0.32461    1.000
    C9       C        0.93190    0.21780    0.26760    1.000
    H5       H        0.05040    0.15710    0.27740    1.000
    C10      C        0.95740    0.30330    0.19620    1.000
    H6       H        0.09430    0.29810    0.15670    1.000
    C11      C        0.61010    0.39750    0.23670    1.000
    H7       H        0.49870    0.46130    0.22750    1.000
    C12      C        0.56600    0.31490    0.30830    1.000
    H8       H        0.42560    0.32110    0.34580    1.000
    Li1      Li       0.81520    0.51330    0.06430    1.000
    Li2      Li       0.19670    0.01620    0.44250    1.000
    N1       N        0.22420    0.89130    0.32999    1.000
    N2       N        0.80070    0.39270    0.17936    1.000
    O2       O        0.14760    0.58402    0.05404    1.000
    O3       O        0.55550    0.61740    0.08421    1.000
    O4       O        0.85730    0.06688    0.43295    1.000
    O5       O        0.53260    0.87347    0.56856    1.000
    C13      C        0.56960    0.17320    0.66960    1.000
    H9       H        0.44560    0.16050    0.61720    1.000
    C14      C        0.94880    0.13030    0.74380    1.000
    H10      H        0.09560    0.08540    0.74550    1.000
    C15      C        0.92610    0.21470    0.81810    1.000
    H11      H        0.05660    0.22870    0.86790    1.000
    C16      C        0.52900    0.25730    0.74170    1.000
    H12      H        0.37950    0.30020    0.73880    1.000
    C17      C        0.70950    0.27810    0.81831    1.000
    C18      C        0.66490    0.36700    0.90035    1.000
    C19      C        0.31870    0.86870    0.59719    1.000
    C20      C        0.26990    0.77740    0.67539    1.000
    C21      C        0.06810    0.78220    0.73240    1.000
    H13      H        0.94960    0.84290    0.72260    1.000
    C22      C        0.04260    0.69670    0.80380    1.000
    H14      H        0.90570    0.70190    0.84330    1.000
    C23      C        0.38990    0.60250    0.76330    1.000
    H15      H        0.50130    0.53870    0.77250    1.000
    C24      C        0.43400    0.68510    0.69170    1.000
    H16      H        0.57440    0.67890    0.65420    1.000
    Li3      Li       0.18480    0.48670    0.93570    1.000
    Li4      Li       0.80330    0.98380    0.55750    1.000
    N3       N        0.77580    0.10870    0.67001    1.000
    N4       N        0.19930    0.60730    0.82064    1.000
    O6       O        0.85240    0.41598    0.94596    1.000
    O7       O        0.44450    0.38260    0.91579    1.000
    O8       O        0.14270    0.93312    0.56705    1.000
