# CIF file generated by openbabel 3.1.0, see https://openbabel.org
data_I
_chemical_name_common 'image0'
_cell_length_a 16.364
_cell_length_b 16.364
_cell_length_c 41.797
_cell_angle_alpha 90
_cell_angle_beta 90
_cell_angle_gamma 90
_space_group_name_H-M_alt 'P 1'
_space_group_name_Hall 'P 1'
loop_
    _symmetry_equiv_pos_as_xyz
    x,y,z
loop_
    _atom_site_label
    _atom_site_type_symbol
    _atom_site_fract_x
    _atom_site_fract_y
    _atom_site_fract_z
    _atom_site_occupancy
    Cd1      Cd       0.58377    0.93270    0.59714    1.000
    Cd2      Cd       0.07880    0.07380    0.49201    1.000
    C1       C        0.49790    0.97150    0.54240    1.000
    C2       C        0.45720    0.98650    0.51150    1.000
    C3       C        0.50310    0.98630    0.48310    1.000
    H1       H        0.55930    0.97810    0.48440    1.000
    C4       C        0.46900    0.99750    0.45400    1.000
    H2       H        0.50030    0.99410    0.43540    1.000
    C5       C        0.38950    0.01350    0.45250    1.000
    H3       H        0.36610    0.02330    0.43260    1.000
    C6       C        0.33960    0.01630    0.47940    1.000
    C7       C        0.37540    0.00300    0.50950    1.000
    H4       H        0.34370    0.00540    0.52790    1.000
    C8       C        0.25080    0.03330    0.47650    1.000
    C9       C        0.72180    0.83310    0.60130    1.000
    C10      C        0.79540    0.78140    0.59720    1.000
    C11      C        0.85580    0.80610    0.57650    1.000
    H5       H        0.84960    0.85510    0.56550    1.000
    C12      C        0.92600    0.76000    0.57170    1.000
    H6       H        0.96860    0.77920    0.55910    1.000
    C13      C        0.93010    0.68310    0.58660    1.000
    H7       H        0.97410    0.64890    0.58230    1.000
    C14      C        0.87100    0.65730    0.60730    1.000
    C15      C        0.80120    0.70780    0.61270    1.000
    H8       H        0.76010    0.69100    0.62660    1.000
    C16      C        0.87830    0.57890    0.62540    1.000
    C17      C        0.40490    0.88940    0.62250    1.000
    H9       H        0.40530    0.94590    0.62490    1.000
    C18      C        0.33350    0.84830    0.62760    1.000
    H10      H        0.28700    0.87610    0.63420    1.000
    C19      C        0.33140    0.76490    0.62280    1.000
    H11      H        0.28260    0.73640    0.62510    1.000
    C20      C        0.40300    0.72370    0.61440    1.000
    C21      C        0.47470    0.77280    0.61010    1.000
    H12      H        0.52300    0.74710    0.60420    1.000
    C22      C        0.40630    0.63570    0.60780    1.000
    H13      H        0.35970    0.60980    0.61790    1.000
    H14      H        0.45520    0.61350    0.61760    1.000
    C23      C        0.41090    0.52710    0.56580    1.000
    H15      H        0.36170    0.50070    0.57360    1.000
    H16      H        0.45680    0.50350    0.57710    1.000
    C24      C        0.42010    0.50780    0.53030    1.000
    H17      H        0.38500    0.54370    0.51850    1.000
    H18      H        0.40250    0.45270    0.52640    1.000
    C25      C        0.50770    0.51830    0.51970    1.000
    H19      H        0.54170    0.47940    0.53070    1.000
    H20      H        0.52640    0.57190    0.52550    1.000
    N1       N        0.47530    0.85140    0.61400    1.000
    N2       N        0.40640    0.61370    0.57353    1.000
    H21      H        0.36110    0.63390    0.56470    1.000
    H22      H        0.44860    0.63860    0.56430    1.000
    O1       O        0.46880    0.00310    0.56730    1.000
    O2       O        0.56120    0.92710    0.54320    1.000
    O3       O        0.71390    0.89450    0.58240    1.000
    O4       O        0.66960    0.81800    0.62080    1.000
    O5       O        0.21310    0.06170    0.50020    1.000
    O6       O        0.22240    0.02740    0.44880    1.000
    O7       O        0.92080    0.52310    0.61290    1.000
    O8       O        0.84590    0.57190    0.65190    1.000
    O9       O        0.06370    0.93410    0.50240    1.000
    Cd3      Cd       0.41623    0.06730    0.09714    1.000
    Cd4      Cd       0.92120    0.92620    0.99201    1.000
    C26      C        0.50210    0.02850    0.04240    1.000
    C27      C        0.54280    0.01350    0.01150    1.000
    C28      C        0.49690    0.01370    0.98310    1.000
    H23      H        0.44070    0.02190    0.98440    1.000
    C29      C        0.53100    0.00250    0.95400    1.000
    H24      H        0.49970    0.00590    0.93540    1.000
    C30      C        0.61050    0.98650    0.95250    1.000
    H25      H        0.63390    0.97670    0.93260    1.000
    C31      C        0.66040    0.98370    0.97940    1.000
    C32      C        0.62460    0.99700    0.00950    1.000
    H26      H        0.65630    0.99460    0.02790    1.000
    C33      C        0.74920    0.96670    0.97650    1.000
    C34      C        0.27820    0.16690    0.10130    1.000
    C35      C        0.20460    0.21860    0.09720    1.000
    C36      C        0.14420    0.19390    0.07650    1.000
    H27      H        0.15040    0.14490    0.06550    1.000
    C37      C        0.07400    0.24000    0.07170    1.000
    H28      H        0.03140    0.22080    0.05910    1.000
    C38      C        0.06990    0.31690    0.08660    1.000
    H29      H        0.02590    0.35110    0.08230    1.000
    C39      C        0.12900    0.34270    0.10730    1.000
    C40      C        0.19880    0.29220    0.11270    1.000
    H30      H        0.23990    0.30900    0.12660    1.000
    C41      C        0.12170    0.42110    0.12540    1.000
    C42      C        0.59510    0.11060    0.12250    1.000
    H31      H        0.59470    0.05410    0.12490    1.000
    C43      C        0.66650    0.15170    0.12760    1.000
    H32      H        0.71300    0.12390    0.13420    1.000
    C44      C        0.66860    0.23510    0.12280    1.000
    H33      H        0.71740    0.26360    0.12510    1.000
    C45      C        0.59700    0.27630    0.11440    1.000
    C46      C        0.52530    0.22720    0.11010    1.000
    H34      H        0.47700    0.25290    0.10420    1.000
    C47      C        0.59370    0.36430    0.10780    1.000
    H35      H        0.64030    0.39020    0.11790    1.000
    H36      H        0.54480    0.38650    0.11760    1.000
    C48      C        0.58910    0.47290    0.06580    1.000
    H37      H        0.63830    0.49930    0.07360    1.000
    H38      H        0.54320    0.49650    0.07710    1.000
    C49      C        0.57990    0.49220    0.03030    1.000
    H39      H        0.61500    0.45630    0.01850    1.000
    H40      H        0.59750    0.54730    0.02640    1.000
    C50      C        0.49230    0.48170    0.01970    1.000
    H41      H        0.45830    0.52060    0.03070    1.000
    H42      H        0.47360    0.42810    0.02550    1.000
    N3       N        0.52470    0.14860    0.11400    1.000
    N4       N        0.59360    0.38630    0.07353    1.000
    H43      H        0.63890    0.36610    0.06470    1.000
    H44      H        0.55140    0.36140    0.06430    1.000
    O10      O        0.53120    0.99690    0.06730    1.000
    O11      O        0.43880    0.07290    0.04320    1.000
    O12      O        0.28610    0.10550    0.08240    1.000
    O13      O        0.33040    0.18200    0.12080    1.000
    O14      O        0.78690    0.93830    0.00020    1.000
    O15      O        0.77760    0.97260    0.94880    1.000
    O16      O        0.07920    0.47690    0.11290    1.000
    O17      O        0.15410    0.42810    0.15190    1.000
    O18      O        0.93630    0.06590    0.00240    1.000
    Cd5      Cd       0.56730    0.08377    0.84714    1.000
    Cd6      Cd       0.42620    0.57880    0.74201    1.000
    C51      C        0.52850    0.99790    0.79240    1.000
    C52      C        0.51350    0.95720    0.76150    1.000
    C53      C        0.51370    0.00310    0.73310    1.000
    H45      H        0.52190    0.05930    0.73440    1.000
    C54      C        0.50250    0.96900    0.70400    1.000
    H46      H        0.50590    0.00030    0.68540    1.000
    C55      C        0.48650    0.88950    0.70250    1.000
    H47      H        0.47670    0.86610    0.68260    1.000
    C56      C        0.48370    0.83960    0.72940    1.000
    C57      C        0.49700    0.87540    0.75950    1.000
    H48      H        0.49460    0.84370    0.77790    1.000
    C58      C        0.46670    0.75080    0.72650    1.000
    C59      C        0.66690    0.22180    0.85130    1.000
    C60      C        0.71860    0.29540    0.84720    1.000
    C61      C        0.69390    0.35580    0.82650    1.000
    H49      H        0.64490    0.34960    0.81550    1.000
    C62      C        0.74000    0.42600    0.82170    1.000
    H50      H        0.72080    0.46860    0.80910    1.000
    C63      C        0.81690    0.43010    0.83660    1.000
    H51      H        0.85110    0.47410    0.83230    1.000
    C64      C        0.84270    0.37100    0.85730    1.000
    C65      C        0.79220    0.30120    0.86270    1.000
    H52      H        0.80900    0.26010    0.87660    1.000
    C66      C        0.92110    0.37830    0.87540    1.000
    C67      C        0.61060    0.90490    0.87250    1.000
    H53      H        0.55410    0.90530    0.87490    1.000
    C68      C        0.65170    0.83350    0.87760    1.000
    H54      H        0.62390    0.78700    0.88420    1.000
    C69      C        0.73510    0.83140    0.87280    1.000
    H55      H        0.76360    0.78260    0.87510    1.000
    C70      C        0.77630    0.90300    0.86440    1.000
    C71      C        0.72720    0.97470    0.86010    1.000
    H56      H        0.75290    0.02300    0.85420    1.000
    C72      C        0.86430    0.90630    0.85780    1.000
    H57      H        0.89020    0.85970    0.86790    1.000
    H58      H        0.88650    0.95520    0.86760    1.000
    C73      C        0.97290    0.91090    0.81580    1.000
    H59      H        0.99930    0.86170    0.82360    1.000
    H60      H        0.99650    0.95680    0.82710    1.000
    C74      C        0.99220    0.92010    0.78030    1.000
    H61      H        0.95630    0.88500    0.76850    1.000
    H62      H        0.04730    0.90250    0.77640    1.000
    C75      C        0.98170    0.00770    0.76970    1.000
    H63      H        0.02060    0.04170    0.78070    1.000
    H64      H        0.92810    0.02640    0.77550    1.000
    N5       N        0.64860    0.97530    0.86400    1.000
    N6       N        0.88630    0.90640    0.82353    1.000
    H65      H        0.86610    0.86110    0.81470    1.000
    H66      H        0.86140    0.94860    0.81430    1.000
    O19      O        0.49690    0.96880    0.81730    1.000
    O20      O        0.57290    0.06120    0.79320    1.000
    O21      O        0.60550    0.21390    0.83240    1.000
    O22      O        0.68200    0.16960    0.87080    1.000
    O23      O        0.43830    0.71310    0.75020    1.000
    O24      O        0.47260    0.72240    0.69880    1.000
    O25      O        0.97690    0.42080    0.86290    1.000
    O26      O        0.92810    0.34590    0.90190    1.000
    O27      O        0.56590    0.56370    0.75240    1.000
    Cd7      Cd       0.43270    0.91623    0.34714    1.000
    Cd8      Cd       0.57380    0.42120    0.24201    1.000
    C76      C        0.47150    0.00210    0.29240    1.000
    C77      C        0.48650    0.04280    0.26150    1.000
    C78      C        0.48630    0.99690    0.23310    1.000
    H67      H        0.47810    0.94070    0.23440    1.000
    C79      C        0.49750    0.03100    0.20400    1.000
    H68      H        0.49410    0.99970    0.18540    1.000
    C80      C        0.51350    0.11050    0.20250    1.000
    H69      H        0.52330    0.13390    0.18260    1.000
    C81      C        0.51630    0.16040    0.22940    1.000
    C82      C        0.50300    0.12460    0.25950    1.000
    H70      H        0.50540    0.15630    0.27790    1.000
    C83      C        0.53330    0.24920    0.22650    1.000
    C84      C        0.33310    0.77820    0.35130    1.000
    C85      C        0.28140    0.70460    0.34720    1.000
    C86      C        0.30610    0.64420    0.32650    1.000
    H71      H        0.35510    0.65040    0.31550    1.000
    C87      C        0.26000    0.57400    0.32170    1.000
    H72      H        0.27920    0.53140    0.30910    1.000
    C88      C        0.18310    0.56990    0.33660    1.000
    H73      H        0.14890    0.52590    0.33230    1.000
    C89      C        0.15730    0.62900    0.35730    1.000
    C90      C        0.20780    0.69880    0.36270    1.000
    H74      H        0.19100    0.73990    0.37660    1.000
    C91      C        0.07890    0.62170    0.37540    1.000
    C92      C        0.38940    0.09510    0.37250    1.000
    H75      H        0.44590    0.09470    0.37490    1.000
    C93      C        0.34830    0.16650    0.37760    1.000
    H76      H        0.37610    0.21300    0.38420    1.000
    C94      C        0.26490    0.16860    0.37280    1.000
    H77      H        0.23640    0.21740    0.37510    1.000
    C95      C        0.22370    0.09700    0.36440    1.000
    C96      C        0.27280    0.02530    0.36010    1.000
    H78      H        0.24710    0.97700    0.35420    1.000
    C97      C        0.13570    0.09370    0.35780    1.000
    H79      H        0.10980    0.14030    0.36790    1.000
    H80      H        0.11350    0.04480    0.36760    1.000
    C98      C        0.02710    0.08910    0.31580    1.000
    H81      H        0.00070    0.13830    0.32360    1.000
    H82      H        0.00350    0.04320    0.32710    1.000
    C99      C        0.00780    0.07990    0.28030    1.000
    H83      H        0.04370    0.11500    0.26850    1.000
    H84      H        0.95270    0.09750    0.27640    1.000
    C100     C        0.01830    0.99230    0.26970    1.000
    H85      H        0.97940    0.95830    0.28070    1.000
    H86      H        0.07190    0.97360    0.27550    1.000
    N7       N        0.35140    0.02470    0.36400    1.000
    N8       N        0.11370    0.09360    0.32353    1.000
    H87      H        0.13390    0.13890    0.31470    1.000
    H88      H        0.13860    0.05140    0.31430    1.000
    O28      O        0.50310    0.03120    0.31730    1.000
    O29      O        0.42710    0.93880    0.29320    1.000
    O30      O        0.39450    0.78610    0.33240    1.000
    O31      O        0.31800    0.83040    0.37080    1.000
    O32      O        0.56170    0.28690    0.25020    1.000
    O33      O        0.52740    0.27760    0.19880    1.000
    O34      O        0.02310    0.57920    0.36290    1.000
    O35      O        0.07190    0.65410    0.40190    1.000
    O36      O        0.43410    0.43630    0.25240    1.000
    Cd9      Cd       0.91623    0.43270    0.65286    1.000
    Cd10     Cd       0.42120    0.57380    0.75799    1.000
    C101     C        0.00210    0.47150    0.70760    1.000
    C102     C        0.04280    0.48650    0.73850    1.000
    C103     C        0.99690    0.48630    0.76690    1.000
    H89      H        0.94070    0.47810    0.76560    1.000
    C104     C        0.03100    0.49750    0.79600    1.000
    H90      H        0.99970    0.49410    0.81460    1.000
    C105     C        0.11050    0.51350    0.79750    1.000
    H91      H        0.13390    0.52330    0.81740    1.000
    C106     C        0.16040    0.51630    0.77060    1.000
    C107     C        0.12460    0.50300    0.74050    1.000
    H92      H        0.15630    0.50540    0.72210    1.000
    C108     C        0.24920    0.53330    0.77350    1.000
    C109     C        0.77820    0.33310    0.64870    1.000
    C110     C        0.70460    0.28140    0.65280    1.000
    C111     C        0.64420    0.30610    0.67350    1.000
    H93      H        0.65040    0.35510    0.68450    1.000
    C112     C        0.57400    0.26000    0.67830    1.000
    H94      H        0.53140    0.27920    0.69090    1.000
    C113     C        0.56990    0.18310    0.66340    1.000
    H95      H        0.52590    0.14890    0.66770    1.000
    C114     C        0.62900    0.15730    0.64270    1.000
    C115     C        0.69880    0.20780    0.63730    1.000
    H96      H        0.73990    0.19100    0.62340    1.000
    C116     C        0.62170    0.07890    0.62460    1.000
    C117     C        0.09510    0.38940    0.62750    1.000
    H97      H        0.09470    0.44590    0.62510    1.000
    C118     C        0.16650    0.34830    0.62240    1.000
    H98      H        0.21300    0.37610    0.61580    1.000
    C119     C        0.16860    0.26490    0.62720    1.000
    H99      H        0.21740    0.23640    0.62490    1.000
    C120     C        0.09700    0.22370    0.63560    1.000
    C121     C        0.02530    0.27280    0.63990    1.000
    H100     H        0.97700    0.24710    0.64580    1.000
    C122     C        0.09370    0.13570    0.64220    1.000
    H101     H        0.14030    0.10980    0.63210    1.000
    H102     H        0.04480    0.11350    0.63240    1.000
    C123     C        0.08910    0.02710    0.68420    1.000
    H103     H        0.13830    0.00070    0.67640    1.000
    H104     H        0.04320    0.00350    0.67290    1.000
    C124     C        0.07990    0.00780    0.71970    1.000
    H105     H        0.11500    0.04370    0.73150    1.000
    H106     H        0.09750    0.95270    0.72360    1.000
    C125     C        0.99230    0.01830    0.73030    1.000
    H107     H        0.95830    0.97940    0.71930    1.000
    H108     H        0.97360    0.07190    0.72450    1.000
    N9       N        0.02470    0.35140    0.63600    1.000
    N10      N        0.09360    0.11370    0.67647    1.000
    H109     H        0.13890    0.13390    0.68530    1.000
    H110     H        0.05140    0.13860    0.68570    1.000
    O37      O        0.03120    0.50310    0.68270    1.000
    O38      O        0.93880    0.42710    0.70680    1.000
    O39      O        0.78610    0.39450    0.66760    1.000
    O40      O        0.83040    0.31800    0.62920    1.000
    O41      O        0.28690    0.56170    0.74980    1.000
    O42      O        0.27760    0.52740    0.80120    1.000
    O43      O        0.57920    0.02310    0.63710    1.000
    O44      O        0.65410    0.07190    0.59810    1.000
    O45      O        0.43630    0.43410    0.74760    1.000
    Cd11     Cd       0.08377    0.56730    0.15286    1.000
    Cd12     Cd       0.57880    0.42620    0.25799    1.000
    C126     C        0.99790    0.52850    0.20760    1.000
    C127     C        0.95720    0.51350    0.23850    1.000
    C128     C        0.00310    0.51370    0.26690    1.000
    H111     H        0.05930    0.52190    0.26560    1.000
    C129     C        0.96900    0.50250    0.29600    1.000
    H112     H        0.00030    0.50590    0.31460    1.000
    C130     C        0.88950    0.48650    0.29750    1.000
    H113     H        0.86610    0.47670    0.31740    1.000
    C131     C        0.83960    0.48370    0.27060    1.000
    C132     C        0.87540    0.49700    0.24050    1.000
    H114     H        0.84370    0.49460    0.22210    1.000
    C133     C        0.75080    0.46670    0.27350    1.000
    C134     C        0.22180    0.66690    0.14870    1.000
    C135     C        0.29540    0.71860    0.15280    1.000
    C136     C        0.35580    0.69390    0.17350    1.000
    H115     H        0.34960    0.64490    0.18450    1.000
    C137     C        0.42600    0.74000    0.17830    1.000
    H116     H        0.46860    0.72080    0.19090    1.000
    C138     C        0.43010    0.81690    0.16340    1.000
    H117     H        0.47410    0.85110    0.16770    1.000
    C139     C        0.37100    0.84270    0.14270    1.000
    C140     C        0.30120    0.79220    0.13730    1.000
    H118     H        0.26010    0.80900    0.12340    1.000
    C141     C        0.37830    0.92110    0.12460    1.000
    C142     C        0.90490    0.61060    0.12750    1.000
    H119     H        0.90530    0.55410    0.12510    1.000
    C143     C        0.83350    0.65170    0.12240    1.000
    H120     H        0.78700    0.62390    0.11580    1.000
    C144     C        0.83140    0.73510    0.12720    1.000
    H121     H        0.78260    0.76360    0.12490    1.000
    C145     C        0.90300    0.77630    0.13560    1.000
    C146     C        0.97470    0.72720    0.13990    1.000
    H122     H        0.02300    0.75290    0.14580    1.000
    C147     C        0.90630    0.86430    0.14220    1.000
    H123     H        0.85970    0.89020    0.13210    1.000
    H124     H        0.95520    0.88650    0.13240    1.000
    C148     C        0.91090    0.97290    0.18420    1.000
    H125     H        0.86170    0.99930    0.17640    1.000
    H126     H        0.95680    0.99650    0.17290    1.000
    C149     C        0.92010    0.99220    0.21970    1.000
    H127     H        0.88500    0.95630    0.23150    1.000
    H128     H        0.90250    0.04730    0.22360    1.000
    C150     C        0.00770    0.98170    0.23030    1.000
    H129     H        0.04170    0.02060    0.21930    1.000
    H130     H        0.02640    0.92810    0.22450    1.000
    N11      N        0.97530    0.64860    0.13600    1.000
    N12      N        0.90640    0.88630    0.17647    1.000
    H131     H        0.86110    0.86610    0.18530    1.000
    H132     H        0.94860    0.86140    0.18570    1.000
    O46      O        0.96880    0.49690    0.18270    1.000
    O47      O        0.06120    0.57290    0.20680    1.000
    O48      O        0.21390    0.60550    0.16760    1.000
    O49      O        0.16960    0.68200    0.12920    1.000
    O50      O        0.71310    0.43830    0.24980    1.000
    O51      O        0.72240    0.47260    0.30120    1.000
    O52      O        0.42080    0.97690    0.13710    1.000
    O53      O        0.34590    0.92810    0.09810    1.000
    O54      O        0.56370    0.56590    0.24760    1.000
    Cd13     Cd       0.93270    0.58377    0.40286    1.000
    Cd14     Cd       0.07380    0.07880    0.50799    1.000
    C151     C        0.97150    0.49790    0.45760    1.000
    C152     C        0.98650    0.45720    0.48850    1.000
    C153     C        0.98630    0.50310    0.51690    1.000
    H133     H        0.97810    0.55930    0.51560    1.000
    C154     C        0.99750    0.46900    0.54600    1.000
    H134     H        0.99410    0.50030    0.56460    1.000
    C155     C        0.01350    0.38950    0.54750    1.000
    H135     H        0.02330    0.36610    0.56740    1.000
    C156     C        0.01630    0.33960    0.52060    1.000
    C157     C        0.00300    0.37540    0.49050    1.000
    H136     H        0.00540    0.34370    0.47210    1.000
    C158     C        0.03330    0.25080    0.52350    1.000
    C159     C        0.83310    0.72180    0.39870    1.000
    C160     C        0.78140    0.79540    0.40280    1.000
    C161     C        0.80610    0.85580    0.42350    1.000
    H137     H        0.85510    0.84960    0.43450    1.000
    C162     C        0.76000    0.92600    0.42830    1.000
    H138     H        0.77920    0.96860    0.44090    1.000
    C163     C        0.68310    0.93010    0.41340    1.000
    H139     H        0.64890    0.97410    0.41770    1.000
    C164     C        0.65730    0.87100    0.39270    1.000
    C165     C        0.70780    0.80120    0.38730    1.000
    H140     H        0.69100    0.76010    0.37340    1.000
    C166     C        0.57890    0.87830    0.37460    1.000
    C167     C        0.88940    0.40490    0.37750    1.000
    H141     H        0.94590    0.40530    0.37510    1.000
    C168     C        0.84830    0.33350    0.37240    1.000
    H142     H        0.87610    0.28700    0.36580    1.000
    C169     C        0.76490    0.33140    0.37720    1.000
    H143     H        0.73640    0.28260    0.37490    1.000
    C170     C        0.72370    0.40300    0.38560    1.000
    C171     C        0.77280    0.47470    0.38990    1.000
    H144     H        0.74710    0.52300    0.39580    1.000
    C172     C        0.63570    0.40630    0.39220    1.000
    H145     H        0.60980    0.35970    0.38210    1.000
    H146     H        0.61350    0.45520    0.38240    1.000
    C173     C        0.52710    0.41090    0.43420    1.000
    H147     H        0.50070    0.36170    0.42640    1.000
    H148     H        0.50350    0.45680    0.42290    1.000
    C174     C        0.50780    0.42010    0.46970    1.000
    H149     H        0.54370    0.38500    0.48150    1.000
    H150     H        0.45270    0.40250    0.47360    1.000
    C175     C        0.51830    0.50770    0.48030    1.000
    H151     H        0.47940    0.54170    0.46930    1.000
    H152     H        0.57190    0.52640    0.47450    1.000
    N13      N        0.85140    0.47530    0.38600    1.000
    N14      N        0.61370    0.40640    0.42647    1.000
    H153     H        0.63390    0.36110    0.43530    1.000
    H154     H        0.63860    0.44860    0.43570    1.000
    O55      O        0.00310    0.46880    0.43270    1.000
    O56      O        0.92710    0.56120    0.45680    1.000
    O57      O        0.89450    0.71390    0.41760    1.000
    O58      O        0.81800    0.66960    0.37920    1.000
    O59      O        0.06170    0.21310    0.49980    1.000
    O60      O        0.02740    0.22240    0.55120    1.000
    O61      O        0.52310    0.92080    0.38710    1.000
    O62      O        0.57190    0.84590    0.34810    1.000
    O63      O        0.93410    0.06370    0.49760    1.000
    Cd15     Cd       0.06730    0.41623    0.90286    1.000
    Cd16     Cd       0.92620    0.92120    0.00799    1.000
    C176     C        0.02850    0.50210    0.95760    1.000
    C177     C        0.01350    0.54280    0.98850    1.000
    C178     C        0.01370    0.49690    0.01690    1.000
    H155     H        0.02190    0.44070    0.01560    1.000
    C179     C        0.00250    0.53100    0.04600    1.000
    H156     H        0.00590    0.49970    0.06460    1.000
    C180     C        0.98650    0.61050    0.04750    1.000
    H157     H        0.97670    0.63390    0.06740    1.000
    C181     C        0.98370    0.66040    0.02060    1.000
    C182     C        0.99700    0.62460    0.99050    1.000
    H158     H        0.99460    0.65630    0.97210    1.000
    C183     C        0.96670    0.74920    0.02350    1.000
    C184     C        0.16690    0.27820    0.89870    1.000
    C185     C        0.21860    0.20460    0.90280    1.000
    C186     C        0.19390    0.14420    0.92350    1.000
    H159     H        0.14490    0.15040    0.93450    1.000
    C187     C        0.24000    0.07400    0.92830    1.000
    H160     H        0.22080    0.03140    0.94090    1.000
    C188     C        0.31690    0.06990    0.91340    1.000
    H161     H        0.35110    0.02590    0.91770    1.000
    C189     C        0.34270    0.12900    0.89270    1.000
    C190     C        0.29220    0.19880    0.88730    1.000
    H162     H        0.30900    0.23990    0.87340    1.000
    C191     C        0.42110    0.12170    0.87460    1.000
    C192     C        0.11060    0.59510    0.87750    1.000
    H163     H        0.05410    0.59470    0.87510    1.000
    C193     C        0.15170    0.66650    0.87240    1.000
    H164     H        0.12390    0.71300    0.86580    1.000
    C194     C        0.23510    0.66860    0.87720    1.000
    H165     H        0.26360    0.71740    0.87490    1.000
    C195     C        0.27630    0.59700    0.88560    1.000
    C196     C        0.22720    0.52530    0.88990    1.000
    H166     H        0.25290    0.47700    0.89580    1.000
    C197     C        0.36430    0.59370    0.89220    1.000
    H167     H        0.39020    0.64030    0.88210    1.000
    H168     H        0.38650    0.54480    0.88240    1.000
    C198     C        0.47290    0.58910    0.93420    1.000
    H169     H        0.49930    0.63830    0.92640    1.000
    H170     H        0.49650    0.54320    0.92290    1.000
    C199     C        0.49220    0.57990    0.96970    1.000
    H171     H        0.45630    0.61500    0.98150    1.000
    H172     H        0.54730    0.59750    0.97360    1.000
    C200     C        0.48170    0.49230    0.98030    1.000
    H173     H        0.52060    0.45830    0.96930    1.000
    H174     H        0.42810    0.47360    0.97450    1.000
    N15      N        0.14860    0.52470    0.88600    1.000
    N16      N        0.38630    0.59360    0.92647    1.000
    H175     H        0.36610    0.63890    0.93530    1.000
    H176     H        0.36140    0.55140    0.93570    1.000
    O64      O        0.99690    0.53120    0.93270    1.000
    O65      O        0.07290    0.43880    0.95680    1.000
    O66      O        0.10550    0.28610    0.91760    1.000
    O67      O        0.18200    0.33040    0.87920    1.000
    O68      O        0.93830    0.78690    0.99980    1.000
    O69      O        0.97260    0.77760    0.05120    1.000
    O70      O        0.47690    0.07920    0.88710    1.000
    O71      O        0.42810    0.15410    0.84810    1.000
    O72      O        0.06590    0.93630    0.99760    1.000
