data_functionalizedCrystal
_audit_creation_method	'EQeq! by Chris Wilmer'
_symmetry_space_group_name_H-M	'P1'
_symmetry_Int_Tables_number	1
_symmetry_cell_setting	triclinic
loop_
_symmetry_equiv_pos_as_xyz
  x,y,z
_cell_length_a	26.306
_cell_length_b	49.555
_cell_length_c	10.7101
_cell_angle_alpha	90
_cell_angle_beta	90
_cell_angle_gamma	90
loop_
_atom_site_label
_atom_site_type_symbol
_atom_site_fract_x
_atom_site_fract_y
_atom_site_fract_z
_atom_site_charge
Mof_Ag	Ag	0.28576	0.17241	0.01789	0.479
Mof_Ag	Ag	0.39603	0.25721	0.6051	0.539
Mof_Ag	Ag	0.519	0.15621	0.81402	0.568
Mof_P 	P 	0.34624	0.21591	0.81282	0.237
Mof_N 	N 	0.34885	0.18606	0.8723	-0.203
Mof_P 	P 	0.39384	0.16579	0.83328	0.247
Mof_N 	N 	0.40042	0.22522	0.7513	-0.226
Mof_P 	P 	0.45472	0.21117	0.78059	0.235
Mof_N 	N 	0.44835	0.18083	0.8324	-0.226
Mof_N 	N 	0.3238	0.23531	0.9236	-0.186
Mof_H 	H 	0.3026	0.2484	0.904	0.086
Mof_C 	C 	0.3381	0.23154	0.0534	-0.137
Mof_H 	H 	0.3446	0.2495	0.0909	0.05
Mof_H 	H 	0.3702	0.2212	0.0564	0.047
Mof_C 	C 	0.2992	0.21717	0.1315	0.09
Mof_H 	H 	0.3104	0.2095	0.2079	-0.033
Mof_C 	C 	0.2517	0.21448	0.103	-0.372
Mof_H 	H 	0.239	0.2219	0.0273	0.115
Mof_H 	H 	0.2294	0.2051	0.1576	0.107
Mof_N 	N 	0.3929	0.14095	0.932	-0.194
Mof_H 	H 	0.3918	0.1243	0.9038	0.095
Mof_C 	C 	0.3939	0.14569	0.0681	-0.132
Mof_H 	H 	0.4054	0.1644	0.0843	0.039
Mof_H 	H 	0.4189	0.1333	0.1069	0.035
Mof_C 	C 	0.3427	0.14146	0.1284	0.077
Mof_H 	H 	0.3377	0.1501	0.2066	-0.038
Mof_C 	C 	0.3046	0.12752	0.0869	-0.385
Mof_H 	H 	0.3072	0.1184	0.0092	0.124
Mof_H 	H 	0.2741	0.1264	0.1341	0.107
Mof_N 	N 	0.49251	0.22579	0.8811	-0.185
Mof_H 	H 	0.5154	0.2372	0.853	0.088
Mof_C 	C 	0.4902	0.22079	0.0145	-0.143
Mof_H 	H 	0.4622	0.2079	0.0313	0.051
Mof_H 	H 	0.4818	0.2379	0.0574	0.043
Mof_C 	C 	0.5389	0.20958	0.0704	0.084
Mof_H 	H 	0.5394	0.2068	0.1581	-0.046
Mof_C 	C 	0.5807	0.20339	0.0071	-0.462
Mof_H 	H 	0.5818	0.2059	0.9192	0.153
Mof_H 	H 	0.6095	0.1965	0.0498	0.12
Mof_N 	N 	0.304	0.22064	0.7026	-0.207
Mof_H 	H 	0.2754	0.229	0.7199	0.085
Mof_C 	C 	0.3136	0.21104	0.5753	-0.094
Mof_H 	H 	0.2837	0.2007	0.5466	0.037
Mof_H 	H 	0.343	0.1986	0.577	0.039
Mof_C 	C 	0.3243	0.23327	0.4821	0.024
Mof_H 	H 	0.3412	0.2285	0.4068	-0.01
Mof_C 	C 	0.3116	0.25963	0.4988	-0.314
Mof_H 	H 	0.2947	0.2651	0.573	0.101
Mof_H 	H 	0.3195	0.2725	0.4362	0.098
Mof_N 	N 	0.3851	0.15383	0.6937	-0.203
Mof_H 	H 	0.4113	0.1534	0.643	0.084
Mof_C 	C 	0.3359	0.14371	0.6464	-0.083
Mof_H 	H 	0.3381	0.1413	0.5548	0.013
Mof_H 	H 	0.3091	0.1572	0.6638	0.033
Mof_C 	C 	0.3219	0.11747	0.7058	0.023
Mof_H 	H 	0.3457	0.1031	0.7016	-0.018
Mof_C 	C 	0.2785	0.11316	0.7634	-0.357
Mof_H 	H 	0.254	0.1272	0.7691	0.106
Mof_H 	H 	0.2717	0.096	0.7994	0.114
Mof_N 	N 	0.4858	0.21506	0.6489	-0.203
Mof_H 	H 	0.4705	0.2233	0.5866	0.07
Mof_C 	C 	0.5382	0.20527	0.6307	-0.095
Mof_H 	H 	0.559	0.2112	0.7026	0.028
Mof_H 	H 	0.5523	0.2139	0.5549	0.04
Mof_C 	C 	0.5434	0.17507	0.6173	0.026
Mof_H 	H 	0.5165	0.1656	0.5774	-0.019
Mof_C 	C 	0.5827	0.16091	0.6572	-0.352
Mof_H 	H 	0.6103	0.1697	0.6975	0.105
Mof_H 	H 	0.5835	0.1419	0.6456	0.1
Mof_Ag	Ag	0.28576	0.67241	0.51789	0.507
Mof_Ag	Ag	0.39603	0.75721	0.1051	0.515
Mof_Ag	Ag	0.519	0.65621	0.31402	0.55
Mof_P 	P 	0.34624	0.71591	0.31282	0.231
Mof_N 	N 	0.34885	0.68606	0.3723	-0.212
Mof_P 	P 	0.39384	0.66579	0.33328	0.242
Mof_N 	N 	0.40042	0.72522	0.2513	-0.227
Mof_P 	P 	0.45472	0.71117	0.28059	0.232
Mof_N 	N 	0.44835	0.68083	0.3324	-0.228
Mof_N 	N 	0.3238	0.73531	0.4236	-0.198
Mof_H 	H 	0.3026	0.7484	0.404	0.081
Mof_C 	C 	0.3381	0.73154	0.5534	-0.117
Mof_H 	H 	0.3446	0.7495	0.5909	0.048
Mof_H 	H 	0.3702	0.7212	0.5564	0.046
Mof_C 	C 	0.2992	0.71717	0.6315	0.085
Mof_H 	H 	0.3104	0.7095	0.7079	-0.029
Mof_C 	C 	0.2517	0.71448	0.603	-0.372
Mof_H 	H 	0.239	0.7219	0.5273	0.121
Mof_H 	H 	0.2294	0.7051	0.6576	0.109
Mof_N 	N 	0.3929	0.64095	0.432	-0.206
Mof_H 	H 	0.3918	0.6243	0.4038	0.092
Mof_C 	C 	0.3939	0.64569	0.5681	-0.113
Mof_H 	H 	0.4054	0.6644	0.5843	0.039
Mof_H 	H 	0.4189	0.6333	0.6069	0.035
Mof_C 	C 	0.3427	0.64146	0.6284	0.075
Mof_H 	H 	0.3377	0.6501	0.7066	-0.034
Mof_C 	C 	0.3046	0.62752	0.5869	-0.387
Mof_H 	H 	0.3072	0.6184	0.5092	0.133
Mof_H 	H 	0.2741	0.6264	0.6341	0.111
Mof_N 	N 	0.49251	0.72579	0.3811	-0.201
Mof_H 	H 	0.5154	0.7372	0.353	0.086
Mof_C 	C 	0.4902	0.72079	0.5145	-0.09
Mof_H 	H 	0.4622	0.7079	0.5313	0.043
Mof_H 	H 	0.4818	0.7379	0.5574	0.032
Mof_C 	C 	0.5389	0.70958	0.5704	0.023
Mof_H 	H 	0.5394	0.7068	0.6581	-0.023
Mof_C 	C 	0.5807	0.70339	0.5071	-0.359
Mof_H 	H 	0.5818	0.7059	0.4192	0.105
Mof_H 	H 	0.6095	0.6965	0.5498	0.091
Mof_N 	N 	0.304	0.72064	0.2026	-0.206
Mof_H 	H 	0.2754	0.729	0.2199	0.083
Mof_C 	C 	0.3136	0.71104	0.0753	-0.107
Mof_H 	H 	0.2837	0.7007	0.0466	0.034
Mof_H 	H 	0.343	0.6986	0.077	0.039
Mof_C 	C 	0.3243	0.73327	0.9821	0.026
Mof_H 	H 	0.3412	0.7285	0.9068	-0.005
Mof_C 	C 	0.3116	0.75963	0.9988	-0.252
Mof_H 	H 	0.2947	0.7651	0.073	0.068
Mof_H 	H 	0.3195	0.7725	0.9362	0.083
Mof_N 	N 	0.3851	0.65383	0.1937	-0.203
Mof_H 	H 	0.4113	0.6534	0.143	0.081
Mof_C 	C 	0.3359	0.64371	0.1464	-0.08
Mof_H 	H 	0.3381	0.6413	0.0548	0.007
Mof_H 	H 	0.3091	0.6572	0.1638	0.029
Mof_C 	C 	0.3219	0.61747	0.2058	0.018
Mof_H 	H 	0.3457	0.6031	0.2016	-0.019
Mof_C 	C 	0.2785	0.61316	0.2634	-0.35
Mof_H 	H 	0.254	0.6272	0.2691	0.1
Mof_H 	H 	0.2717	0.596	0.2994	0.109
Mof_N 	N 	0.4858	0.71506	0.1489	-0.203
Mof_H 	H 	0.4705	0.7233	0.0866	0.067
Mof_C 	C 	0.5382	0.70527	0.1307	-0.094
Mof_H 	H 	0.559	0.7112	0.2026	0.027
Mof_H 	H 	0.5523	0.7139	0.0549	0.035
Mof_C 	C 	0.5434	0.67507	0.1173	0.023
Mof_H 	H 	0.5165	0.6656	0.0774	-0.022
Mof_C 	C 	0.5827	0.66091	0.1572	-0.349
Mof_H 	H 	0.6103	0.6697	0.1975	0.102
Mof_H 	H 	0.5835	0.6419	0.1456	0.095
Mof_Ag	Ag	0.78576	0.17241	0.51789	0.507
Mof_Ag	Ag	0.89603	0.25721	0.1051	0.516
Mof_Ag	Ag	0.019	0.15621	0.31402	0.55
Mof_P 	P 	0.84624	0.21591	0.31282	0.231
Mof_N 	N 	0.84885	0.18606	0.3723	-0.212
Mof_P 	P 	0.89384	0.16579	0.33328	0.242
Mof_N 	N 	0.90042	0.22522	0.2513	-0.227
Mof_P 	P 	0.95472	0.21117	0.28059	0.232
Mof_N 	N 	0.94835	0.18083	0.3324	-0.228
Mof_N 	N 	0.8238	0.23531	0.4236	-0.198
Mof_H 	H 	0.8026	0.2484	0.404	0.081
Mof_C 	C 	0.8381	0.23154	0.5534	-0.117
Mof_H 	H 	0.8446	0.2495	0.5909	0.048
Mof_H 	H 	0.8702	0.2212	0.5564	0.046
Mof_C 	C 	0.7992	0.21717	0.6315	0.085
Mof_H 	H 	0.8104	0.2095	0.7079	-0.029
Mof_C 	C 	0.7517	0.21448	0.603	-0.372
Mof_H 	H 	0.739	0.2219	0.5273	0.121
Mof_H 	H 	0.7294	0.2051	0.6576	0.109
Mof_N 	N 	0.8929	0.14095	0.432	-0.206
Mof_H 	H 	0.8918	0.1243	0.4038	0.092
Mof_C 	C 	0.8939	0.14569	0.5681	-0.113
Mof_H 	H 	0.9054	0.1644	0.5843	0.039
Mof_H 	H 	0.9189	0.1333	0.6069	0.035
Mof_C 	C 	0.8427	0.14146	0.6284	0.075
Mof_H 	H 	0.8377	0.1501	0.7066	-0.034
Mof_C 	C 	0.8046	0.12752	0.5869	-0.387
Mof_H 	H 	0.8072	0.1184	0.5092	0.133
Mof_H 	H 	0.7741	0.1264	0.6341	0.111
Mof_N 	N 	0.99251	0.22579	0.3811	-0.201
Mof_H 	H 	0.0154	0.2372	0.353	0.087
Mof_C 	C 	0.9902	0.22079	0.5145	-0.09
Mof_H 	H 	0.9622	0.2079	0.5313	0.043
Mof_H 	H 	0.9818	0.2379	0.5574	0.032
Mof_C 	C 	0.0389	0.20958	0.5704	0.023
Mof_H 	H 	0.0394	0.2068	0.6581	-0.023
Mof_C 	C 	0.0807	0.20339	0.5071	-0.359
Mof_H 	H 	0.0818	0.2059	0.4192	0.105
Mof_H 	H 	0.1095	0.1965	0.5498	0.091
Mof_N 	N 	0.804	0.22064	0.2026	-0.206
Mof_H 	H 	0.7754	0.229	0.2199	0.083
Mof_C 	C 	0.8136	0.21104	0.0753	-0.107
Mof_H 	H 	0.7837	0.2007	0.0466	0.034
Mof_H 	H 	0.843	0.1986	0.077	0.039
Mof_C 	C 	0.8243	0.23327	0.9821	0.026
Mof_H 	H 	0.8412	0.2285	0.9068	-0.005
Mof_C 	C 	0.8116	0.25963	0.9988	-0.252
Mof_H 	H 	0.7947	0.2651	0.073	0.068
Mof_H 	H 	0.8195	0.2725	0.9362	0.083
Mof_N 	N 	0.8851	0.15383	0.1937	-0.203
Mof_H 	H 	0.9113	0.1534	0.143	0.081
Mof_C 	C 	0.8359	0.14371	0.1464	-0.08
Mof_H 	H 	0.8381	0.1413	0.0548	0.007
Mof_H 	H 	0.8091	0.1572	0.1638	0.029
Mof_C 	C 	0.8219	0.11747	0.2058	0.018
Mof_H 	H 	0.8457	0.1031	0.2016	-0.019
Mof_C 	C 	0.7785	0.11316	0.2634	-0.35
Mof_H 	H 	0.754	0.1272	0.2691	0.1
Mof_H 	H 	0.7717	0.096	0.2994	0.109
Mof_N 	N 	0.9858	0.21506	0.1489	-0.203
Mof_H 	H 	0.9705	0.2233	0.0866	0.067
Mof_C 	C 	0.0382	0.20527	0.1307	-0.094
Mof_H 	H 	0.059	0.2112	0.2026	0.027
Mof_H 	H 	0.0523	0.2139	0.0549	0.035
Mof_C 	C 	0.0434	0.17507	0.1173	0.023
Mof_H 	H 	0.0165	0.1656	0.0774	-0.022
Mof_C 	C 	0.0827	0.16091	0.1572	-0.349
Mof_H 	H 	0.1103	0.1697	0.1975	0.102
Mof_H 	H 	0.0835	0.1419	0.1456	0.096
Mof_Ag	Ag	0.78576	0.67241	0.01789	0.478
Mof_Ag	Ag	0.89603	0.75721	0.6051	0.538
Mof_Ag	Ag	0.019	0.65621	0.81402	0.567
Mof_P 	P 	0.84624	0.71591	0.81282	0.236
Mof_N 	N 	0.84885	0.68606	0.8723	-0.204
Mof_P 	P 	0.89384	0.66579	0.83328	0.246
Mof_N 	N 	0.90042	0.72522	0.7513	-0.227
Mof_P 	P 	0.95472	0.71117	0.78059	0.234
Mof_N 	N 	0.94835	0.68083	0.8324	-0.226
Mof_N 	N 	0.8238	0.73531	0.9236	-0.186
Mof_H 	H 	0.8026	0.7484	0.904	0.086
Mof_C 	C 	0.8381	0.73154	0.0534	-0.137
Mof_H 	H 	0.8446	0.7495	0.0909	0.05
Mof_H 	H 	0.8702	0.7212	0.0564	0.047
Mof_C 	C 	0.7992	0.71717	0.1315	0.09
Mof_H 	H 	0.8104	0.7095	0.2079	-0.033
Mof_C 	C 	0.7517	0.71448	0.103	-0.372
Mof_H 	H 	0.739	0.7219	0.0273	0.115
Mof_H 	H 	0.7294	0.7051	0.1576	0.107
Mof_N 	N 	0.8929	0.64095	0.932	-0.194
Mof_H 	H 	0.8918	0.6243	0.9038	0.095
Mof_C 	C 	0.8939	0.64569	0.0681	-0.132
Mof_H 	H 	0.9054	0.6644	0.0843	0.039
Mof_H 	H 	0.9189	0.6333	0.1069	0.036
Mof_C 	C 	0.8427	0.64146	0.1284	0.077
Mof_H 	H 	0.8377	0.6501	0.2066	-0.038
Mof_C 	C 	0.8046	0.62752	0.0869	-0.385
Mof_H 	H 	0.8072	0.6184	0.0092	0.124
Mof_H 	H 	0.7741	0.6264	0.1341	0.107
Mof_N 	N 	0.99251	0.72579	0.8811	-0.185
Mof_H 	H 	0.0154	0.7372	0.853	0.088
Mof_C 	C 	0.9902	0.72079	0.0145	-0.143
Mof_H 	H 	0.9622	0.7079	0.0313	0.051
Mof_H 	H 	0.9818	0.7379	0.0574	0.043
Mof_C 	C 	0.0389	0.70958	0.0704	0.083
Mof_H 	H 	0.0394	0.7068	0.1581	-0.046
Mof_C 	C 	0.0807	0.70339	0.0071	-0.462
Mof_H 	H 	0.0818	0.7059	0.9192	0.152
Mof_H 	H 	0.1095	0.6965	0.0498	0.12
Mof_N 	N 	0.804	0.72064	0.7026	-0.207
Mof_H 	H 	0.7754	0.729	0.7199	0.085
Mof_C 	C 	0.8136	0.71104	0.5753	-0.094
Mof_H 	H 	0.7837	0.7007	0.5466	0.037
Mof_H 	H 	0.843	0.6986	0.577	0.039
Mof_C 	C 	0.8243	0.73327	0.4821	0.024
Mof_H 	H 	0.8412	0.7285	0.4068	-0.01
Mof_C 	C 	0.8116	0.75963	0.4988	-0.314
Mof_H 	H 	0.7947	0.7651	0.573	0.101
Mof_H 	H 	0.8195	0.7725	0.4362	0.098
Mof_N 	N 	0.8851	0.65383	0.6937	-0.203
Mof_H 	H 	0.9113	0.6534	0.643	0.084
Mof_C 	C 	0.8359	0.64371	0.6464	-0.083
Mof_H 	H 	0.8381	0.6413	0.5548	0.013
Mof_H 	H 	0.8091	0.6572	0.6638	0.033
Mof_C 	C 	0.8219	0.61747	0.7058	0.023
Mof_H 	H 	0.8457	0.6031	0.7016	-0.018
Mof_C 	C 	0.7785	0.61316	0.7634	-0.357
Mof_H 	H 	0.754	0.6272	0.7691	0.106
Mof_H 	H 	0.7717	0.596	0.7994	0.114
Mof_N 	N 	0.9858	0.71506	0.6489	-0.203
Mof_H 	H 	0.9705	0.7233	0.5866	0.07
Mof_C 	C 	0.0382	0.70527	0.6307	-0.095
Mof_H 	H 	0.059	0.7112	0.7026	0.028
Mof_H 	H 	0.0523	0.7139	0.5549	0.04
Mof_C 	C 	0.0434	0.67507	0.6173	0.026
Mof_H 	H 	0.0165	0.6656	0.5774	-0.019
Mof_C 	C 	0.0827	0.66091	0.6572	-0.352
Mof_H 	H 	0.1103	0.6697	0.6975	0.105
Mof_H 	H 	0.0835	0.6419	0.6456	0.1
Mof_Ag	Ag	0.71424	0.82759	0.01789	0.478
Mof_Ag	Ag	0.60397	0.74279	0.6051	0.538
Mof_Ag	Ag	0.481	0.84379	0.81402	0.567
Mof_P 	P 	0.65376	0.78409	0.81282	0.236
Mof_N 	N 	0.65115	0.81394	0.8723	-0.204
Mof_P 	P 	0.60616	0.83421	0.83328	0.246
Mof_N 	N 	0.59958	0.77478	0.7513	-0.227
Mof_P 	P 	0.54528	0.78883	0.78059	0.234
Mof_N 	N 	0.55165	0.81917	0.8324	-0.226
Mof_N 	N 	0.6762	0.76469	0.9236	-0.186
Mof_H 	H 	0.6974	0.7516	0.904	0.086
Mof_C 	C 	0.6619	0.76846	0.0534	-0.137
Mof_H 	H 	0.6554	0.7505	0.0909	0.05
Mof_H 	H 	0.6298	0.7788	0.0564	0.047
Mof_C 	C 	0.7008	0.78283	0.1315	0.09
Mof_H 	H 	0.6896	0.7905	0.2079	-0.033
Mof_C 	C 	0.7483	0.78552	0.103	-0.372
Mof_H 	H 	0.761	0.7781	0.0273	0.115
Mof_H 	H 	0.7706	0.7949	0.1576	0.107
Mof_N 	N 	0.6071	0.85905	0.932	-0.194
Mof_H 	H 	0.6082	0.8757	0.9038	0.095
Mof_C 	C 	0.6061	0.85431	0.0681	-0.132
Mof_H 	H 	0.5946	0.8356	0.0843	0.039
Mof_H 	H 	0.5811	0.8667	0.1069	0.035
Mof_C 	C 	0.6573	0.85854	0.1284	0.077
Mof_H 	H 	0.6623	0.8499	0.2066	-0.038
Mof_C 	C 	0.6954	0.87248	0.0869	-0.385
Mof_H 	H 	0.6928	0.8816	0.0092	0.124
Mof_H 	H 	0.7259	0.8736	0.1341	0.107
Mof_N 	N 	0.50749	0.77421	0.8811	-0.185
Mof_H 	H 	0.4846	0.7628	0.853	0.088
Mof_C 	C 	0.5098	0.77921	0.0145	-0.143
Mof_H 	H 	0.5378	0.7921	0.0313	0.051
Mof_H 	H 	0.5182	0.7621	0.0574	0.043
Mof_C 	C 	0.4611	0.79042	0.0704	0.084
Mof_H 	H 	0.4606	0.7932	0.1581	-0.046
Mof_C 	C 	0.4193	0.79661	0.0071	-0.462
Mof_H 	H 	0.4182	0.7941	0.9192	0.153
Mof_H 	H 	0.3905	0.8035	0.0498	0.12
Mof_N 	N 	0.696	0.77936	0.7026	-0.207
Mof_H 	H 	0.7246	0.771	0.7199	0.085
Mof_C 	C 	0.6864	0.78896	0.5753	-0.094
Mof_H 	H 	0.7163	0.7993	0.5466	0.037
Mof_H 	H 	0.657	0.8014	0.577	0.039
Mof_C 	C 	0.6757	0.76673	0.4821	0.024
Mof_H 	H 	0.6588	0.7715	0.4068	-0.01
Mof_C 	C 	0.6884	0.74037	0.4988	-0.314
Mof_H 	H 	0.7053	0.7349	0.573	0.101
Mof_H 	H 	0.6805	0.7275	0.4362	0.098
Mof_N 	N 	0.6149	0.84617	0.6937	-0.203
Mof_H 	H 	0.5887	0.8466	0.643	0.084
Mof_C 	C 	0.6641	0.85629	0.6464	-0.083
Mof_H 	H 	0.6619	0.8587	0.5548	0.013
Mof_H 	H 	0.6909	0.8428	0.6638	0.033
Mof_C 	C 	0.6781	0.88253	0.7058	0.023
Mof_H 	H 	0.6543	0.8969	0.7016	-0.018
Mof_C 	C 	0.7215	0.88684	0.7634	-0.357
Mof_H 	H 	0.746	0.8728	0.7691	0.106
Mof_H 	H 	0.7283	0.904	0.7994	0.114
Mof_N 	N 	0.5142	0.78494	0.6489	-0.203
Mof_H 	H 	0.5295	0.7767	0.5866	0.07
Mof_C 	C 	0.4618	0.79473	0.6307	-0.095
Mof_H 	H 	0.441	0.7888	0.7026	0.028
Mof_H 	H 	0.4477	0.7861	0.5549	0.04
Mof_C 	C 	0.4566	0.82493	0.6173	0.026
Mof_H 	H 	0.4835	0.8344	0.5774	-0.019
Mof_C 	C 	0.4173	0.83909	0.6572	-0.352
Mof_H 	H 	0.3897	0.8303	0.6975	0.105
Mof_H 	H 	0.4165	0.8581	0.6456	0.1
Mof_Ag	Ag	0.71424	0.32759	0.51789	0.507
Mof_Ag	Ag	0.60397	0.24279	0.1051	0.515
Mof_Ag	Ag	0.481	0.34379	0.31402	0.55
Mof_P 	P 	0.65376	0.28409	0.31282	0.231
Mof_N 	N 	0.65115	0.31394	0.3723	-0.212
Mof_P 	P 	0.60616	0.33421	0.33328	0.242
Mof_N 	N 	0.59958	0.27478	0.2513	-0.227
Mof_P 	P 	0.54528	0.28883	0.28059	0.232
Mof_N 	N 	0.55165	0.31917	0.3324	-0.228
Mof_N 	N 	0.6762	0.26469	0.4236	-0.198
Mof_H 	H 	0.6974	0.2516	0.404	0.081
Mof_C 	C 	0.6619	0.26846	0.5534	-0.117
Mof_H 	H 	0.6554	0.2505	0.5909	0.048
Mof_H 	H 	0.6298	0.2788	0.5564	0.046
Mof_C 	C 	0.7008	0.28283	0.6315	0.085
Mof_H 	H 	0.6896	0.2905	0.7079	-0.029
Mof_C 	C 	0.7483	0.28552	0.603	-0.372
Mof_H 	H 	0.761	0.2781	0.5273	0.121
Mof_H 	H 	0.7706	0.2949	0.6576	0.109
Mof_N 	N 	0.6071	0.35905	0.432	-0.206
Mof_H 	H 	0.6082	0.3757	0.4038	0.092
Mof_C 	C 	0.6061	0.35431	0.5681	-0.113
Mof_H 	H 	0.5946	0.3356	0.5843	0.039
Mof_H 	H 	0.5811	0.3667	0.6069	0.035
Mof_C 	C 	0.6573	0.35854	0.6284	0.075
Mof_H 	H 	0.6623	0.3499	0.7066	-0.034
Mof_C 	C 	0.6954	0.37248	0.5869	-0.387
Mof_H 	H 	0.6928	0.3816	0.5092	0.133
Mof_H 	H 	0.7259	0.3736	0.6341	0.111
Mof_N 	N 	0.50749	0.27421	0.3811	-0.201
Mof_H 	H 	0.4846	0.2628	0.353	0.086
Mof_C 	C 	0.5098	0.27921	0.5145	-0.09
Mof_H 	H 	0.5378	0.2921	0.5313	0.043
Mof_H 	H 	0.5182	0.2621	0.5574	0.032
Mof_C 	C 	0.4611	0.29042	0.5704	0.023
Mof_H 	H 	0.4606	0.2932	0.6581	-0.023
Mof_C 	C 	0.4193	0.29661	0.5071	-0.359
Mof_H 	H 	0.4182	0.2941	0.4192	0.105
Mof_H 	H 	0.3905	0.3035	0.5498	0.091
Mof_N 	N 	0.696	0.27936	0.2026	-0.206
Mof_H 	H 	0.7246	0.271	0.2199	0.083
Mof_C 	C 	0.6864	0.28896	0.0753	-0.107
Mof_H 	H 	0.7163	0.2993	0.0466	0.034
Mof_H 	H 	0.657	0.3014	0.077	0.039
Mof_C 	C 	0.6757	0.26673	0.9821	0.026
Mof_H 	H 	0.6588	0.2715	0.9068	-0.005
Mof_C 	C 	0.6884	0.24037	0.9988	-0.252
Mof_H 	H 	0.7053	0.2349	0.073	0.068
Mof_H 	H 	0.6805	0.2275	0.9362	0.083
Mof_N 	N 	0.6149	0.34617	0.1937	-0.203
Mof_H 	H 	0.5887	0.3466	0.143	0.081
Mof_C 	C 	0.6641	0.35629	0.1464	-0.08
Mof_H 	H 	0.6619	0.3587	0.0548	0.007
Mof_H 	H 	0.6909	0.3428	0.1638	0.029
Mof_C 	C 	0.6781	0.38253	0.2058	0.018
Mof_H 	H 	0.6543	0.3969	0.2016	-0.019
Mof_C 	C 	0.7215	0.38684	0.2634	-0.35
Mof_H 	H 	0.746	0.3728	0.2691	0.1
Mof_H 	H 	0.7283	0.404	0.2994	0.109
Mof_N 	N 	0.5142	0.28494	0.1489	-0.203
Mof_H 	H 	0.5295	0.2767	0.0866	0.067
Mof_C 	C 	0.4618	0.29473	0.1307	-0.094
Mof_H 	H 	0.441	0.2888	0.2026	0.027
Mof_H 	H 	0.4477	0.2861	0.0549	0.035
Mof_C 	C 	0.4566	0.32493	0.1173	0.023
Mof_H 	H 	0.4835	0.3344	0.0774	-0.022
Mof_C 	C 	0.4173	0.33909	0.1572	-0.349
Mof_H 	H 	0.3897	0.3303	0.1975	0.102
Mof_H 	H 	0.4165	0.3581	0.1456	0.095
Mof_Ag	Ag	0.21424	0.82759	0.51789	0.507
Mof_Ag	Ag	0.10397	0.74279	0.1051	0.516
Mof_Ag	Ag	0.981	0.84379	0.31402	0.55
Mof_P 	P 	0.15376	0.78409	0.31282	0.231
Mof_N 	N 	0.15115	0.81394	0.3723	-0.212
Mof_P 	P 	0.10616	0.83421	0.33328	0.242
Mof_N 	N 	0.09958	0.77478	0.2513	-0.227
Mof_P 	P 	0.04528	0.78883	0.28059	0.232
Mof_N 	N 	0.05165	0.81917	0.3324	-0.228
Mof_N 	N 	0.1762	0.76469	0.4236	-0.198
Mof_H 	H 	0.1974	0.7516	0.404	0.081
Mof_C 	C 	0.1619	0.76846	0.5534	-0.117
Mof_H 	H 	0.1554	0.7505	0.5909	0.048
Mof_H 	H 	0.1298	0.7788	0.5564	0.046
Mof_C 	C 	0.2008	0.78283	0.6315	0.085
Mof_H 	H 	0.1896	0.7905	0.7079	-0.029
Mof_C 	C 	0.2483	0.78552	0.603	-0.372
Mof_H 	H 	0.261	0.7781	0.5273	0.121
Mof_H 	H 	0.2706	0.7949	0.6576	0.109
Mof_N 	N 	0.1071	0.85905	0.432	-0.206
Mof_H 	H 	0.1082	0.8757	0.4038	0.092
Mof_C 	C 	0.1061	0.85431	0.5681	-0.113
Mof_H 	H 	0.0946	0.8356	0.5843	0.039
Mof_H 	H 	0.0811	0.8667	0.6069	0.035
Mof_C 	C 	0.1573	0.85854	0.6284	0.075
Mof_H 	H 	0.1623	0.8499	0.7066	-0.034
Mof_C 	C 	0.1954	0.87248	0.5869	-0.387
Mof_H 	H 	0.1928	0.8816	0.5092	0.133
Mof_H 	H 	0.2259	0.8736	0.6341	0.111
Mof_N 	N 	0.00749	0.77421	0.3811	-0.201
Mof_H 	H 	0.9846	0.7628	0.353	0.087
Mof_C 	C 	0.0098	0.77921	0.5145	-0.09
Mof_H 	H 	0.0378	0.7921	0.5313	0.043
Mof_H 	H 	0.0182	0.7621	0.5574	0.032
Mof_C 	C 	0.9611	0.79042	0.5704	0.023
Mof_H 	H 	0.9606	0.7932	0.6581	-0.023
Mof_C 	C 	0.9193	0.79661	0.5071	-0.359
Mof_H 	H 	0.9182	0.7941	0.4192	0.105
Mof_H 	H 	0.8905	0.8035	0.5498	0.091
Mof_N 	N 	0.196	0.77936	0.2026	-0.206
Mof_H 	H 	0.2246	0.771	0.2199	0.083
Mof_C 	C 	0.1864	0.78896	0.0753	-0.107
Mof_H 	H 	0.2163	0.7993	0.0466	0.034
Mof_H 	H 	0.157	0.8014	0.077	0.039
Mof_C 	C 	0.1757	0.76673	0.9821	0.026
Mof_H 	H 	0.1588	0.7715	0.9068	-0.005
Mof_C 	C 	0.1884	0.74037	0.9988	-0.252
Mof_H 	H 	0.2053	0.7349	0.073	0.068
Mof_H 	H 	0.1805	0.7275	0.9362	0.083
Mof_N 	N 	0.1149	0.84617	0.1937	-0.203
Mof_H 	H 	0.0887	0.8466	0.143	0.081
Mof_C 	C 	0.1641	0.85629	0.1464	-0.08
Mof_H 	H 	0.1619	0.8587	0.0548	0.007
Mof_H 	H 	0.1909	0.8428	0.1638	0.029
Mof_C 	C 	0.1781	0.88253	0.2058	0.018
Mof_H 	H 	0.1543	0.8969	0.2016	-0.019
Mof_C 	C 	0.2215	0.88684	0.2634	-0.35
Mof_H 	H 	0.246	0.8728	0.2691	0.1
Mof_H 	H 	0.2283	0.904	0.2994	0.109
Mof_N 	N 	0.0142	0.78494	0.1489	-0.203
Mof_H 	H 	0.0295	0.7767	0.0866	0.067
Mof_C 	C 	0.9618	0.79473	0.1307	-0.094
Mof_H 	H 	0.941	0.7888	0.2026	0.027
Mof_H 	H 	0.9477	0.7861	0.0549	0.035
Mof_C 	C 	0.9566	0.82493	0.1173	0.023
Mof_H 	H 	0.9835	0.8344	0.0774	-0.022
Mof_C 	C 	0.9173	0.83909	0.1572	-0.349
Mof_H 	H 	0.8897	0.8303	0.1975	0.102
Mof_H 	H 	0.9165	0.8581	0.1456	0.096
Mof_Ag	Ag	0.21424	0.32759	0.01789	0.478
Mof_Ag	Ag	0.10397	0.24279	0.6051	0.538
Mof_Ag	Ag	0.981	0.34379	0.81402	0.567
Mof_P 	P 	0.15376	0.28409	0.81282	0.236
Mof_N 	N 	0.15115	0.31394	0.8723	-0.204
Mof_P 	P 	0.10616	0.33421	0.83328	0.246
Mof_N 	N 	0.09958	0.27478	0.7513	-0.227
Mof_P 	P 	0.04528	0.28883	0.78059	0.234
Mof_N 	N 	0.05165	0.31917	0.8324	-0.226
Mof_N 	N 	0.1762	0.26469	0.9236	-0.186
Mof_H 	H 	0.1974	0.2516	0.904	0.086
Mof_C 	C 	0.1619	0.26846	0.0534	-0.137
Mof_H 	H 	0.1554	0.2505	0.0909	0.05
Mof_H 	H 	0.1298	0.2788	0.0564	0.047
Mof_C 	C 	0.2008	0.28283	0.1315	0.09
Mof_H 	H 	0.1896	0.2905	0.2079	-0.033
Mof_C 	C 	0.2483	0.28552	0.103	-0.372
Mof_H 	H 	0.261	0.2781	0.0273	0.115
Mof_H 	H 	0.2706	0.2949	0.1576	0.107
Mof_N 	N 	0.1071	0.35905	0.932	-0.194
Mof_H 	H 	0.1082	0.3757	0.9038	0.095
Mof_C 	C 	0.1061	0.35431	0.0681	-0.132
Mof_H 	H 	0.0946	0.3356	0.0843	0.039
Mof_H 	H 	0.0811	0.3667	0.1069	0.036
Mof_C 	C 	0.1573	0.35854	0.1284	0.077
Mof_H 	H 	0.1623	0.3499	0.2066	-0.038
Mof_C 	C 	0.1954	0.37248	0.0869	-0.385
Mof_H 	H 	0.1928	0.3816	0.0092	0.124
Mof_H 	H 	0.2259	0.3736	0.1341	0.107
Mof_N 	N 	0.00749	0.27421	0.8811	-0.185
Mof_H 	H 	0.9846	0.2628	0.853	0.088
Mof_C 	C 	0.0098	0.27921	0.0145	-0.143
Mof_H 	H 	0.0378	0.2921	0.0313	0.051
Mof_H 	H 	0.0182	0.2621	0.0574	0.043
Mof_C 	C 	0.9611	0.29042	0.0704	0.083
Mof_H 	H 	0.9606	0.2932	0.1581	-0.046
Mof_C 	C 	0.9193	0.29661	0.0071	-0.462
Mof_H 	H 	0.9182	0.2941	0.9192	0.152
Mof_H 	H 	0.8905	0.3035	0.0498	0.12
Mof_N 	N 	0.196	0.27936	0.7026	-0.207
Mof_H 	H 	0.2246	0.271	0.7199	0.085
Mof_C 	C 	0.1864	0.28896	0.5753	-0.094
Mof_H 	H 	0.2163	0.2993	0.5466	0.037
Mof_H 	H 	0.157	0.3014	0.577	0.039
Mof_C 	C 	0.1757	0.26673	0.4821	0.024
Mof_H 	H 	0.1588	0.2715	0.4068	-0.01
Mof_C 	C 	0.1884	0.24037	0.4988	-0.314
Mof_H 	H 	0.2053	0.2349	0.573	0.101
Mof_H 	H 	0.1805	0.2275	0.4362	0.098
Mof_N 	N 	0.1149	0.34617	0.6937	-0.203
Mof_H 	H 	0.0887	0.3466	0.643	0.084
Mof_C 	C 	0.1641	0.35629	0.6464	-0.083
Mof_H 	H 	0.1619	0.3587	0.5548	0.013
Mof_H 	H 	0.1909	0.3428	0.6638	0.033
Mof_C 	C 	0.1781	0.38253	0.7058	0.023
Mof_H 	H 	0.1543	0.3969	0.7016	-0.018
Mof_C 	C 	0.2215	0.38684	0.7634	-0.357
Mof_H 	H 	0.246	0.3728	0.7691	0.106
Mof_H 	H 	0.2283	0.404	0.7994	0.114
Mof_N 	N 	0.0142	0.28494	0.6489	-0.203
Mof_H 	H 	0.0295	0.2767	0.5866	0.07
Mof_C 	C 	0.9618	0.29473	0.6307	-0.095
Mof_H 	H 	0.941	0.2888	0.7026	0.028
Mof_H 	H 	0.9477	0.2861	0.5549	0.04
Mof_C 	C 	0.9566	0.32493	0.6173	0.026
Mof_H 	H 	0.9835	0.3344	0.5774	-0.019
Mof_C 	C 	0.9173	0.33909	0.6572	-0.352
Mof_H 	H 	0.8897	0.3303	0.6975	0.105
Mof_H 	H 	0.9165	0.3581	0.6456	0.1
Mof_Ag	Ag	0.53576	0.07759	0.26789	0.497
Mof_Ag	Ag	0.64603	0.99279	0.8551	0.555
Mof_Ag	Ag	0.769	0.09379	0.06402	0.523
Mof_P 	P 	0.59624	0.03409	0.06282	0.217
Mof_N 	N 	0.59885	0.06394	0.1223	-0.212
Mof_P 	P 	0.64384	0.08421	0.08328	0.228
Mof_N 	N 	0.65042	0.02478	0.0013	-0.236
Mof_P 	P 	0.70472	0.03883	0.03059	0.218
Mof_N 	N 	0.69835	0.06917	0.0824	-0.227
Mof_N 	N 	0.5738	0.01469	0.1736	-0.198
Mof_H 	H 	0.5526	0.0016	0.154	0.076
Mof_C 	C 	0.5881	0.01846	0.3034	-0.117
Mof_H 	H 	0.5946	0.0005	0.3409	0.047
Mof_H 	H 	0.6202	0.0288	0.3064	0.046
Mof_C 	C 	0.5492	0.03283	0.3815	0.084
Mof_H 	H 	0.5604	0.0405	0.4579	-0.031
Mof_C 	C 	0.5017	0.03552	0.353	-0.369
Mof_H 	H 	0.489	0.0281	0.2773	0.118
Mof_H 	H 	0.4794	0.0449	0.4076	0.107
Mof_N 	N 	0.6429	0.10905	0.182	-0.205
Mof_H 	H 	0.6418	0.1257	0.1538	0.088
Mof_C 	C 	0.6439	0.10431	0.3181	-0.114
Mof_H 	H 	0.6554	0.0856	0.3343	0.039
Mof_H 	H 	0.6689	0.1167	0.3569	0.035
Mof_C 	C 	0.5927	0.10854	0.3784	0.076
Mof_H 	H 	0.5877	0.0999	0.4566	-0.037
Mof_C 	C 	0.5546	0.12248	0.3369	-0.387
Mof_H 	H 	0.5572	0.1316	0.2592	0.132
Mof_H 	H 	0.5241	0.1236	0.3841	0.11
Mof_N 	N 	0.74251	0.02421	0.1311	-0.2
Mof_H 	H 	0.7654	0.0128	0.103	0.08
Mof_C 	C 	0.7402	0.02921	0.2645	-0.091
Mof_H 	H 	0.7122	0.0421	0.2813	0.043
Mof_H 	H 	0.7318	0.0121	0.3074	0.031
Mof_C 	C 	0.7889	0.04042	0.3204	0.021
Mof_H 	H 	0.7894	0.0432	0.4081	-0.025
Mof_C 	C 	0.8307	0.04661	0.2571	-0.354
Mof_H 	H 	0.8318	0.0441	0.1692	0.099
Mof_H 	H 	0.8595	0.0535	0.2998	0.087
Mof_N 	N 	0.554	0.02936	0.9526	-0.198
Mof_H 	H 	0.5254	0.021	0.9699	0.087
Mof_C 	C 	0.5636	0.03896	0.8253	-0.097
Mof_H 	H 	0.5337	0.0493	0.7966	0.038
Mof_H 	H 	0.593	0.0514	0.827	0.043
Mof_C 	C 	0.5743	0.01673	0.7321	0.027
Mof_H 	H 	0.5912	0.0215	0.6568	-0.011
Mof_C 	C 	0.5616	0.99037	0.7488	-0.318
Mof_H 	H 	0.5447	0.9849	0.823	0.103
Mof_H 	H 	0.5695	0.9775	0.6862	0.099
Mof_N 	N 	0.6351	0.09617	0.9437	-0.188
Mof_H 	H 	0.6613	0.0966	0.893	0.087
Mof_C 	C 	0.5859	0.10629	0.8964	-0.12
Mof_H 	H 	0.5881	0.1087	0.8048	0.024
Mof_H 	H 	0.5591	0.0928	0.9138	0.048
Mof_C 	C 	0.5719	0.13253	0.9558	0.101
Mof_H 	H 	0.5957	0.1469	0.9516	-0.037
Mof_C 	C 	0.5285	0.13684	0.0134	-0.455
Mof_H 	H 	0.504	0.1228	0.0191	0.126
Mof_H 	H 	0.5217	0.154	0.0494	0.137
Mof_N 	N 	0.7358	0.03494	0.8989	-0.192
Mof_H 	H 	0.7205	0.0267	0.8366	0.07
Mof_C 	C 	0.7882	0.04473	0.8807	-0.101
Mof_H 	H 	0.809	0.0388	0.9526	0.038
Mof_H 	H 	0.8023	0.0361	0.8049	0.042
Mof_C 	C 	0.7934	0.07493	0.8673	0.04
Mof_H 	H 	0.7665	0.0844	0.8274	-0.019
Mof_C 	C 	0.8327	0.08909	0.9072	-0.354
Mof_H 	H 	0.8603	0.0803	0.9475	0.112
Mof_H 	H 	0.8335	0.1081	0.8956	0.109
Mof_Ag	Ag	0.53576	0.57759	0.76789	0.509
Mof_Ag	Ag	0.64603	0.49279	0.3551	0.531
Mof_Ag	Ag	0.769	0.59379	0.56402	0.552
Mof_P 	P 	0.59624	0.53409	0.56282	0.232
Mof_N 	N 	0.59885	0.56394	0.6223	-0.212
Mof_P 	P 	0.64384	0.58421	0.58328	0.242
Mof_N 	N 	0.65042	0.52478	0.5013	-0.228
Mof_P 	P 	0.70472	0.53883	0.53059	0.232
Mof_N 	N 	0.69835	0.56917	0.5824	-0.228
Mof_N 	N 	0.5738	0.51469	0.6736	-0.198
Mof_H 	H 	0.5526	0.5016	0.654	0.081
Mof_C 	C 	0.5881	0.51846	0.8034	-0.118
Mof_H 	H 	0.5946	0.5005	0.8409	0.05
Mof_H 	H 	0.6202	0.5288	0.8064	0.048
Mof_C 	C 	0.5492	0.53283	0.8815	0.087
Mof_H 	H 	0.5604	0.5405	0.9579	-0.026
Mof_C 	C 	0.5017	0.53552	0.853	-0.373
Mof_H 	H 	0.489	0.5281	0.7773	0.122
Mof_H 	H 	0.4794	0.5449	0.9076	0.112
Mof_N 	N 	0.6429	0.60905	0.682	-0.206
Mof_H 	H 	0.6418	0.6257	0.6538	0.093
Mof_C 	C 	0.6439	0.60431	0.8181	-0.116
Mof_H 	H 	0.6554	0.5856	0.8343	0.041
Mof_H 	H 	0.6689	0.6167	0.8569	0.04
Mof_C 	C 	0.5927	0.60854	0.8784	0.08
Mof_H 	H 	0.5877	0.5999	0.9566	-0.033
Mof_C 	C 	0.5546	0.62248	0.8369	-0.39
Mof_H 	H 	0.5572	0.6316	0.7592	0.135
Mof_H 	H 	0.5241	0.6236	0.8841	0.116
Mof_N 	N 	0.74251	0.52421	0.6311	-0.201
Mof_H 	H 	0.7654	0.5128	0.603	0.086
Mof_C 	C 	0.7402	0.52921	0.7645	-0.091
Mof_H 	H 	0.7122	0.5421	0.7813	0.044
Mof_H 	H 	0.7318	0.5121	0.8074	0.033
Mof_C 	C 	0.7889	0.54042	0.8204	0.023
Mof_H 	H 	0.7894	0.5432	0.9081	-0.021
Mof_C 	C 	0.8307	0.54661	0.7571	-0.362
Mof_H 	H 	0.8318	0.5441	0.6692	0.106
Mof_H 	H 	0.8595	0.5535	0.7998	0.092
Mof_N 	N 	0.554	0.52936	0.4526	-0.207
Mof_H 	H 	0.5254	0.521	0.4699	0.083
Mof_C 	C 	0.5636	0.53896	0.3253	-0.094
Mof_H 	H 	0.5337	0.5493	0.2966	0.034
Mof_H 	H 	0.593	0.5514	0.327	0.038
Mof_C 	C 	0.5743	0.51673	0.2321	0.022
Mof_H 	H 	0.5912	0.5215	0.1568	-0.015
Mof_C 	C 	0.5616	0.49037	0.2488	-0.313
Mof_H 	H 	0.5447	0.4849	0.323	0.099
Mof_H 	H 	0.5695	0.4775	0.1862	0.093
Mof_N 	N 	0.6351	0.59617	0.4437	-0.203
Mof_H 	H 	0.6613	0.5966	0.393	0.083
Mof_C 	C 	0.5859	0.60629	0.3964	-0.08
Mof_H 	H 	0.5881	0.6087	0.3048	0.01
Mof_H 	H 	0.5591	0.5928	0.4138	0.03
Mof_C 	C 	0.5719	0.63253	0.4558	0.019
Mof_H 	H 	0.5957	0.6469	0.4516	-0.017
Mof_C 	C 	0.5285	0.63684	0.5134	-0.355
Mof_H 	H 	0.504	0.6228	0.5191	0.102
Mof_H 	H 	0.5217	0.654	0.5494	0.11
Mof_N 	N 	0.7358	0.53494	0.3989	-0.203
Mof_H 	H 	0.7205	0.5267	0.3366	0.069
Mof_C 	C 	0.7882	0.54473	0.3807	-0.094
Mof_H 	H 	0.809	0.5388	0.4526	0.028
Mof_H 	H 	0.8023	0.5361	0.3049	0.038
Mof_C 	C 	0.7934	0.57493	0.3673	0.025
Mof_H 	H 	0.7665	0.5844	0.3274	-0.02
Mof_C 	C 	0.8327	0.58909	0.4072	-0.35
Mof_H 	H 	0.8603	0.5803	0.4475	0.103
Mof_H 	H 	0.8335	0.6081	0.3956	0.1
Mof_Ag	Ag	0.03576	0.07759	0.76789	0.509
Mof_Ag	Ag	0.14603	0.99279	0.3551	0.531
Mof_Ag	Ag	0.269	0.09379	0.56402	0.552
Mof_P 	P 	0.09624	0.03409	0.56282	0.232
Mof_N 	N 	0.09885	0.06394	0.6223	-0.212
Mof_P 	P 	0.14384	0.08421	0.58328	0.242
Mof_N 	N 	0.15042	0.02478	0.5013	-0.228
Mof_P 	P 	0.20472	0.03883	0.53059	0.232
Mof_N 	N 	0.19835	0.06917	0.5824	-0.228
Mof_N 	N 	0.0738	0.01469	0.6736	-0.198
Mof_H 	H 	0.0526	0.0016	0.654	0.081
Mof_C 	C 	0.0881	0.01846	0.8034	-0.118
Mof_H 	H 	0.0946	0.0005	0.8409	0.05
Mof_H 	H 	0.1202	0.0288	0.8064	0.048
Mof_C 	C 	0.0492	0.03283	0.8815	0.087
Mof_H 	H 	0.0604	0.0405	0.9579	-0.026
Mof_C 	C 	0.0017	0.03552	0.853	-0.372
Mof_H 	H 	0.989	0.0281	0.7773	0.122
Mof_H 	H 	0.9794	0.0449	0.9076	0.112
Mof_N 	N 	0.1429	0.10905	0.682	-0.206
Mof_H 	H 	0.1418	0.1257	0.6538	0.093
Mof_C 	C 	0.1439	0.10431	0.8181	-0.116
Mof_H 	H 	0.1554	0.0856	0.8343	0.041
Mof_H 	H 	0.1689	0.1167	0.8569	0.04
Mof_C 	C 	0.0927	0.10854	0.8784	0.08
Mof_H 	H 	0.0877	0.0999	0.9566	-0.033
Mof_C 	C 	0.0546	0.12248	0.8369	-0.39
Mof_H 	H 	0.0572	0.1316	0.7592	0.135
Mof_H 	H 	0.0241	0.1236	0.8841	0.116
Mof_N 	N 	0.24251	0.02421	0.6311	-0.201
Mof_H 	H 	0.2654	0.0128	0.603	0.086
Mof_C 	C 	0.2402	0.02921	0.7645	-0.091
Mof_H 	H 	0.2122	0.0421	0.7813	0.044
Mof_H 	H 	0.2318	0.0121	0.8074	0.033
Mof_C 	C 	0.2889	0.04042	0.8204	0.023
Mof_H 	H 	0.2894	0.0432	0.9081	-0.021
Mof_C 	C 	0.3307	0.04661	0.7571	-0.362
Mof_H 	H 	0.3318	0.0441	0.6692	0.106
Mof_H 	H 	0.3595	0.0535	0.7998	0.092
Mof_N 	N 	0.054	0.02936	0.4526	-0.207
Mof_H 	H 	0.0254	0.021	0.4699	0.083
Mof_C 	C 	0.0636	0.03896	0.3253	-0.094
Mof_H 	H 	0.0337	0.0493	0.2966	0.034
Mof_H 	H 	0.093	0.0514	0.327	0.038
Mof_C 	C 	0.0743	0.01673	0.2321	0.022
Mof_H 	H 	0.0912	0.0215	0.1568	-0.015
Mof_C 	C 	0.0616	0.99037	0.2488	-0.313
Mof_H 	H 	0.0447	0.9849	0.323	0.099
Mof_H 	H 	0.0695	0.9775	0.1862	0.093
Mof_N 	N 	0.1351	0.09617	0.4437	-0.203
Mof_H 	H 	0.1613	0.0966	0.393	0.083
Mof_C 	C 	0.0859	0.10629	0.3964	-0.08
Mof_H 	H 	0.0881	0.1087	0.3048	0.01
Mof_H 	H 	0.0591	0.0928	0.4138	0.03
Mof_C 	C 	0.0719	0.13253	0.4558	0.019
Mof_H 	H 	0.0957	0.1469	0.4516	-0.017
Mof_C 	C 	0.0285	0.13684	0.5134	-0.355
Mof_H 	H 	0.004	0.1228	0.5191	0.102
Mof_H 	H 	0.0217	0.154	0.5494	0.11
Mof_N 	N 	0.2358	0.03494	0.3989	-0.203
Mof_H 	H 	0.2205	0.0267	0.3366	0.069
Mof_C 	C 	0.2882	0.04473	0.3807	-0.094
Mof_H 	H 	0.309	0.0388	0.4526	0.028
Mof_H 	H 	0.3023	0.0361	0.3049	0.038
Mof_C 	C 	0.2934	0.07493	0.3673	0.025
Mof_H 	H 	0.2665	0.0844	0.3274	-0.02
Mof_C 	C 	0.3327	0.08909	0.4072	-0.35
Mof_H 	H 	0.3603	0.0803	0.4475	0.103
Mof_H 	H 	0.3335	0.1081	0.3956	0.1
Mof_Ag	Ag	0.03576	0.57759	0.26789	0.497
Mof_Ag	Ag	0.14603	0.49279	0.8551	0.555
Mof_Ag	Ag	0.269	0.59379	0.06402	0.523
Mof_P 	P 	0.09624	0.53409	0.06282	0.217
Mof_N 	N 	0.09885	0.56394	0.1223	-0.212
Mof_P 	P 	0.14384	0.58421	0.08328	0.228
Mof_N 	N 	0.15042	0.52478	0.0013	-0.236
Mof_P 	P 	0.20472	0.53883	0.03059	0.218
Mof_N 	N 	0.19835	0.56917	0.0824	-0.227
Mof_N 	N 	0.0738	0.51469	0.1736	-0.198
Mof_H 	H 	0.0526	0.5016	0.154	0.076
Mof_C 	C 	0.0881	0.51846	0.3034	-0.117
Mof_H 	H 	0.0946	0.5005	0.3409	0.047
Mof_H 	H 	0.1202	0.5288	0.3064	0.046
Mof_C 	C 	0.0492	0.53283	0.3815	0.084
Mof_H 	H 	0.0604	0.5405	0.4579	-0.031
Mof_C 	C 	0.0017	0.53552	0.353	-0.369
Mof_H 	H 	0.989	0.5281	0.2773	0.118
Mof_H 	H 	0.9794	0.5449	0.4076	0.107
Mof_N 	N 	0.1429	0.60905	0.182	-0.205
Mof_H 	H 	0.1418	0.6257	0.1538	0.088
Mof_C 	C 	0.1439	0.60431	0.3181	-0.114
Mof_H 	H 	0.1554	0.5856	0.3343	0.039
Mof_H 	H 	0.1689	0.6167	0.3569	0.035
Mof_C 	C 	0.0927	0.60854	0.3784	0.076
Mof_H 	H 	0.0877	0.5999	0.4566	-0.037
Mof_C 	C 	0.0546	0.62248	0.3369	-0.387
Mof_H 	H 	0.0572	0.6316	0.2592	0.132
Mof_H 	H 	0.0241	0.6236	0.3841	0.11
Mof_N 	N 	0.24251	0.52421	0.1311	-0.2
Mof_H 	H 	0.2654	0.5128	0.103	0.08
Mof_C 	C 	0.2402	0.52921	0.2645	-0.091
Mof_H 	H 	0.2122	0.5421	0.2813	0.043
Mof_H 	H 	0.2318	0.5121	0.3074	0.031
Mof_C 	C 	0.2889	0.54042	0.3204	0.021
Mof_H 	H 	0.2894	0.5432	0.4081	-0.025
Mof_C 	C 	0.3307	0.54661	0.2571	-0.354
Mof_H 	H 	0.3318	0.5441	0.1692	0.099
Mof_H 	H 	0.3595	0.5535	0.2998	0.087
Mof_N 	N 	0.054	0.52936	0.9526	-0.198
Mof_H 	H 	0.0254	0.521	0.9699	0.087
Mof_C 	C 	0.0636	0.53896	0.8253	-0.097
Mof_H 	H 	0.0337	0.5493	0.7966	0.038
Mof_H 	H 	0.093	0.5514	0.827	0.043
Mof_C 	C 	0.0743	0.51673	0.7321	0.027
Mof_H 	H 	0.0912	0.5215	0.6568	-0.011
Mof_C 	C 	0.0616	0.49037	0.7488	-0.318
Mof_H 	H 	0.0447	0.4849	0.823	0.103
Mof_H 	H 	0.0695	0.4775	0.6862	0.099
Mof_N 	N 	0.1351	0.59617	0.9437	-0.188
Mof_H 	H 	0.1613	0.5966	0.893	0.087
Mof_C 	C 	0.0859	0.60629	0.8964	-0.12
Mof_H 	H 	0.0881	0.6087	0.8048	0.024
Mof_H 	H 	0.0591	0.5928	0.9138	0.047
Mof_C 	C 	0.0719	0.63253	0.9558	0.101
Mof_H 	H 	0.0957	0.6469	0.9516	-0.037
Mof_C 	C 	0.0285	0.63684	0.0134	-0.455
Mof_H 	H 	0.004	0.6228	0.0191	0.126
Mof_H 	H 	0.0217	0.654	0.0494	0.137
Mof_N 	N 	0.2358	0.53494	0.8989	-0.192
Mof_H 	H 	0.2205	0.5267	0.8366	0.07
Mof_C 	C 	0.2882	0.54473	0.8807	-0.101
Mof_H 	H 	0.309	0.5388	0.9526	0.038
Mof_H 	H 	0.3023	0.5361	0.8049	0.042
Mof_C 	C 	0.2934	0.57493	0.8673	0.04
Mof_H 	H 	0.2665	0.5844	0.8274	-0.019
Mof_C 	C 	0.3327	0.58909	0.9072	-0.354
Mof_H 	H 	0.3603	0.5803	0.9475	0.112
Mof_H 	H 	0.3335	0.6081	0.8956	0.109
Mof_Ag	Ag	0.96424	0.42241	0.26789	0.497
Mof_Ag	Ag	0.85397	0.50721	0.8551	0.555
Mof_Ag	Ag	0.731	0.40621	0.06402	0.523
Mof_P 	P 	0.90376	0.46591	0.06282	0.217
Mof_N 	N 	0.90115	0.43606	0.1223	-0.212
Mof_P 	P 	0.85616	0.41579	0.08328	0.228
Mof_N 	N 	0.84958	0.47522	0.0013	-0.236
Mof_P 	P 	0.79528	0.46117	0.03059	0.218
Mof_N 	N 	0.80165	0.43083	0.0824	-0.227
Mof_N 	N 	0.9262	0.48531	0.1736	-0.198
Mof_H 	H 	0.9474	0.4984	0.154	0.076
Mof_C 	C 	0.9119	0.48154	0.3034	-0.117
Mof_H 	H 	0.9054	0.4995	0.3409	0.047
Mof_H 	H 	0.8798	0.4712	0.3064	0.046
Mof_C 	C 	0.9508	0.46717	0.3815	0.084
Mof_H 	H 	0.9396	0.4595	0.4579	-0.031
Mof_C 	C 	0.9983	0.46448	0.353	-0.369
Mof_H 	H 	0.011	0.4719	0.2773	0.118
Mof_H 	H 	0.0206	0.4551	0.4076	0.107
Mof_N 	N 	0.8571	0.39095	0.182	-0.205
Mof_H 	H 	0.8582	0.3743	0.1538	0.088
Mof_C 	C 	0.8561	0.39569	0.3181	-0.114
Mof_H 	H 	0.8446	0.4144	0.3343	0.039
Mof_H 	H 	0.8311	0.3833	0.3569	0.035
Mof_C 	C 	0.9073	0.39146	0.3784	0.076
Mof_H 	H 	0.9123	0.4001	0.4566	-0.037
Mof_C 	C 	0.9454	0.37752	0.3369	-0.387
Mof_H 	H 	0.9428	0.3684	0.2592	0.132
Mof_H 	H 	0.9759	0.3764	0.3841	0.11
Mof_N 	N 	0.75749	0.47579	0.1311	-0.2
Mof_H 	H 	0.7346	0.4872	0.103	0.08
Mof_C 	C 	0.7598	0.47079	0.2645	-0.091
Mof_H 	H 	0.7878	0.4579	0.2813	0.043
Mof_H 	H 	0.7682	0.4879	0.3074	0.031
Mof_C 	C 	0.7111	0.45958	0.3204	0.021
Mof_H 	H 	0.7106	0.4568	0.4081	-0.025
Mof_C 	C 	0.6693	0.45339	0.2571	-0.354
Mof_H 	H 	0.6682	0.4559	0.1692	0.099
Mof_H 	H 	0.6405	0.4465	0.2998	0.087
Mof_N 	N 	0.946	0.47064	0.9526	-0.198
Mof_H 	H 	0.9746	0.479	0.9699	0.087
Mof_C 	C 	0.9364	0.46104	0.8253	-0.097
Mof_H 	H 	0.9663	0.4507	0.7966	0.038
Mof_H 	H 	0.907	0.4486	0.827	0.043
Mof_C 	C 	0.9257	0.48327	0.7321	0.027
Mof_H 	H 	0.9088	0.4785	0.6568	-0.011
Mof_C 	C 	0.9384	0.50963	0.7488	-0.318
Mof_H 	H 	0.9553	0.5151	0.823	0.103
Mof_H 	H 	0.9305	0.5225	0.6862	0.099
Mof_N 	N 	0.8649	0.40383	0.9437	-0.188
Mof_H 	H 	0.8387	0.4034	0.893	0.087
Mof_C 	C 	0.9141	0.39371	0.8964	-0.12
Mof_H 	H 	0.9119	0.3913	0.8048	0.024
Mof_H 	H 	0.9409	0.4072	0.9138	0.047
Mof_C 	C 	0.9281	0.36747	0.9558	0.101
Mof_H 	H 	0.9043	0.3531	0.9516	-0.037
Mof_C 	C 	0.9715	0.36316	0.0134	-0.455
Mof_H 	H 	0.996	0.3772	0.0191	0.126
Mof_H 	H 	0.9783	0.346	0.0494	0.137
Mof_N 	N 	0.7642	0.46506	0.8989	-0.192
Mof_H 	H 	0.7795	0.4733	0.8366	0.07
Mof_C 	C 	0.7118	0.45527	0.8807	-0.101
Mof_H 	H 	0.691	0.4612	0.9526	0.038
Mof_H 	H 	0.6977	0.4639	0.8049	0.042
Mof_C 	C 	0.7066	0.42507	0.8673	0.04
Mof_H 	H 	0.7335	0.4156	0.8274	-0.019
Mof_C 	C 	0.6673	0.41091	0.9072	-0.354
Mof_H 	H 	0.6397	0.4197	0.9475	0.112
Mof_H 	H 	0.6665	0.3919	0.8956	0.109
Mof_Ag	Ag	0.96424	0.92241	0.76789	0.509
Mof_Ag	Ag	0.85397	0.00721	0.3551	0.531
Mof_Ag	Ag	0.731	0.90621	0.56402	0.552
Mof_P 	P 	0.90376	0.96591	0.56282	0.232
Mof_N 	N 	0.90115	0.93606	0.6223	-0.212
Mof_P 	P 	0.85616	0.91579	0.58328	0.242
Mof_N 	N 	0.84958	0.97522	0.5013	-0.228
Mof_P 	P 	0.79528	0.96117	0.53059	0.232
Mof_N 	N 	0.80165	0.93083	0.5824	-0.228
Mof_N 	N 	0.9262	0.98531	0.6736	-0.198
Mof_H 	H 	0.9474	0.9984	0.654	0.081
Mof_C 	C 	0.9119	0.98154	0.8034	-0.118
Mof_H 	H 	0.9054	0.9995	0.8409	0.05
Mof_H 	H 	0.8798	0.9712	0.8064	0.048
Mof_C 	C 	0.9508	0.96717	0.8815	0.087
Mof_H 	H 	0.9396	0.9595	0.9579	-0.026
Mof_C 	C 	0.9983	0.96448	0.853	-0.372
Mof_H 	H 	0.011	0.9719	0.7773	0.122
Mof_H 	H 	0.0206	0.9551	0.9076	0.112
Mof_N 	N 	0.8571	0.89095	0.682	-0.206
Mof_H 	H 	0.8582	0.8743	0.6538	0.093
Mof_C 	C 	0.8561	0.89569	0.8181	-0.116
Mof_H 	H 	0.8446	0.9144	0.8343	0.041
Mof_H 	H 	0.8311	0.8833	0.8569	0.04
Mof_C 	C 	0.9073	0.89146	0.8784	0.08
Mof_H 	H 	0.9123	0.9001	0.9566	-0.033
Mof_C 	C 	0.9454	0.87752	0.8369	-0.39
Mof_H 	H 	0.9428	0.8684	0.7592	0.135
Mof_H 	H 	0.9759	0.8764	0.8841	0.116
Mof_N 	N 	0.75749	0.97579	0.6311	-0.201
Mof_H 	H 	0.7346	0.9872	0.603	0.086
Mof_C 	C 	0.7598	0.97079	0.7645	-0.091
Mof_H 	H 	0.7878	0.9579	0.7813	0.044
Mof_H 	H 	0.7682	0.9879	0.8074	0.033
Mof_C 	C 	0.7111	0.95958	0.8204	0.023
Mof_H 	H 	0.7106	0.9568	0.9081	-0.021
Mof_C 	C 	0.6693	0.95339	0.7571	-0.362
Mof_H 	H 	0.6682	0.9559	0.6692	0.106
Mof_H 	H 	0.6405	0.9465	0.7998	0.092
Mof_N 	N 	0.946	0.97064	0.4526	-0.207
Mof_H 	H 	0.9746	0.979	0.4699	0.083
Mof_C 	C 	0.9364	0.96104	0.3253	-0.094
Mof_H 	H 	0.9663	0.9507	0.2966	0.034
Mof_H 	H 	0.907	0.9486	0.327	0.038
Mof_C 	C 	0.9257	0.98327	0.2321	0.022
Mof_H 	H 	0.9088	0.9785	0.1568	-0.015
Mof_C 	C 	0.9384	0.00963	0.2488	-0.313
Mof_H 	H 	0.9553	0.0151	0.323	0.099
Mof_H 	H 	0.9305	0.0225	0.1862	0.093
Mof_N 	N 	0.8649	0.90383	0.4437	-0.203
Mof_H 	H 	0.8387	0.9034	0.393	0.083
Mof_C 	C 	0.9141	0.89371	0.3964	-0.08
Mof_H 	H 	0.9119	0.8913	0.3048	0.01
Mof_H 	H 	0.9409	0.9072	0.4138	0.03
Mof_C 	C 	0.9281	0.86747	0.4558	0.019
Mof_H 	H 	0.9043	0.8531	0.4516	-0.017
Mof_C 	C 	0.9715	0.86316	0.5134	-0.355
Mof_H 	H 	0.996	0.8772	0.5191	0.102
Mof_H 	H 	0.9783	0.846	0.5494	0.11
Mof_N 	N 	0.7642	0.96506	0.3989	-0.203
Mof_H 	H 	0.7795	0.9733	0.3366	0.069
Mof_C 	C 	0.7118	0.95527	0.3807	-0.094
Mof_H 	H 	0.691	0.9612	0.4526	0.028
Mof_H 	H 	0.6977	0.9639	0.3049	0.038
Mof_C 	C 	0.7066	0.92507	0.3673	0.025
Mof_H 	H 	0.7335	0.9156	0.3274	-0.02
Mof_C 	C 	0.6673	0.91091	0.4072	-0.35
Mof_H 	H 	0.6397	0.9197	0.4475	0.103
Mof_H 	H 	0.6665	0.8919	0.3956	0.1
Mof_Ag	Ag	0.46424	0.42241	0.76789	0.509
Mof_Ag	Ag	0.35397	0.50721	0.3551	0.531
Mof_Ag	Ag	0.231	0.40621	0.56402	0.552
Mof_P 	P 	0.40376	0.46591	0.56282	0.232
Mof_N 	N 	0.40115	0.43606	0.6223	-0.212
Mof_P 	P 	0.35616	0.41579	0.58328	0.242
Mof_N 	N 	0.34958	0.47522	0.5013	-0.228
Mof_P 	P 	0.29528	0.46117	0.53059	0.232
Mof_N 	N 	0.30165	0.43083	0.5824	-0.228
Mof_N 	N 	0.4262	0.48531	0.6736	-0.198
Mof_H 	H 	0.4474	0.4984	0.654	0.081
Mof_C 	C 	0.4119	0.48154	0.8034	-0.118
Mof_H 	H 	0.4054	0.4995	0.8409	0.05
Mof_H 	H 	0.3798	0.4712	0.8064	0.048
Mof_C 	C 	0.4508	0.46717	0.8815	0.087
Mof_H 	H 	0.4396	0.4595	0.9579	-0.026
Mof_C 	C 	0.4983	0.46448	0.853	-0.373
Mof_H 	H 	0.511	0.4719	0.7773	0.122
Mof_H 	H 	0.5206	0.4551	0.9076	0.112
Mof_N 	N 	0.3571	0.39095	0.682	-0.206
Mof_H 	H 	0.3582	0.3743	0.6538	0.093
Mof_C 	C 	0.3561	0.39569	0.8181	-0.116
Mof_H 	H 	0.3446	0.4144	0.8343	0.041
Mof_H 	H 	0.3311	0.3833	0.8569	0.04
Mof_C 	C 	0.4073	0.39146	0.8784	0.08
Mof_H 	H 	0.4123	0.4001	0.9566	-0.033
Mof_C 	C 	0.4454	0.37752	0.8369	-0.39
Mof_H 	H 	0.4428	0.3684	0.7592	0.135
Mof_H 	H 	0.4759	0.3764	0.8841	0.116
Mof_N 	N 	0.25749	0.47579	0.6311	-0.201
Mof_H 	H 	0.2346	0.4872	0.603	0.086
Mof_C 	C 	0.2598	0.47079	0.7645	-0.091
Mof_H 	H 	0.2878	0.4579	0.7813	0.044
Mof_H 	H 	0.2682	0.4879	0.8074	0.033
Mof_C 	C 	0.2111	0.45958	0.8204	0.023
Mof_H 	H 	0.2106	0.4568	0.9081	-0.021
Mof_C 	C 	0.1693	0.45339	0.7571	-0.362
Mof_H 	H 	0.1682	0.4559	0.6692	0.106
Mof_H 	H 	0.1405	0.4465	0.7998	0.092
Mof_N 	N 	0.446	0.47064	0.4526	-0.207
Mof_H 	H 	0.4746	0.479	0.4699	0.083
Mof_C 	C 	0.4364	0.46104	0.3253	-0.094
Mof_H 	H 	0.4663	0.4507	0.2966	0.034
Mof_H 	H 	0.407	0.4486	0.327	0.038
Mof_C 	C 	0.4257	0.48327	0.2321	0.022
Mof_H 	H 	0.4088	0.4785	0.1568	-0.015
Mof_C 	C 	0.4384	0.50963	0.2488	-0.313
Mof_H 	H 	0.4553	0.5151	0.323	0.099
Mof_H 	H 	0.4305	0.5225	0.1862	0.093
Mof_N 	N 	0.3649	0.40383	0.4437	-0.203
Mof_H 	H 	0.3387	0.4034	0.393	0.083
Mof_C 	C 	0.4141	0.39371	0.3964	-0.08
Mof_H 	H 	0.4119	0.3913	0.3048	0.01
Mof_H 	H 	0.4409	0.4072	0.4138	0.03
Mof_C 	C 	0.4281	0.36747	0.4558	0.019
Mof_H 	H 	0.4043	0.3531	0.4516	-0.017
Mof_C 	C 	0.4715	0.36316	0.5134	-0.355
Mof_H 	H 	0.496	0.3772	0.5191	0.102
Mof_H 	H 	0.4783	0.346	0.5494	0.11
Mof_N 	N 	0.2642	0.46506	0.3989	-0.203
Mof_H 	H 	0.2795	0.4733	0.3366	0.069
Mof_C 	C 	0.2118	0.45527	0.3807	-0.094
Mof_H 	H 	0.191	0.4612	0.4526	0.028
Mof_H 	H 	0.1977	0.4639	0.3049	0.038
Mof_C 	C 	0.2066	0.42507	0.3673	0.025
Mof_H 	H 	0.2335	0.4156	0.3274	-0.02
Mof_C 	C 	0.1673	0.41091	0.4072	-0.35
Mof_H 	H 	0.1397	0.4197	0.4475	0.103
Mof_H 	H 	0.1665	0.3919	0.3956	0.1
Mof_Ag	Ag	0.46424	0.92241	0.26789	0.497
Mof_Ag	Ag	0.35397	0.00721	0.8551	0.555
Mof_Ag	Ag	0.231	0.90621	0.06402	0.523
Mof_P 	P 	0.40376	0.96591	0.06282	0.217
Mof_N 	N 	0.40115	0.93606	0.1223	-0.212
Mof_P 	P 	0.35616	0.91579	0.08328	0.228
Mof_N 	N 	0.34958	0.97522	0.0013	-0.236
Mof_P 	P 	0.29528	0.96117	0.03059	0.218
Mof_N 	N 	0.30165	0.93083	0.0824	-0.227
Mof_N 	N 	0.4262	0.98531	0.1736	-0.198
Mof_H 	H 	0.4474	0.9984	0.154	0.076
Mof_C 	C 	0.4119	0.98154	0.3034	-0.117
Mof_H 	H 	0.4054	0.9995	0.3409	0.047
Mof_H 	H 	0.3798	0.9712	0.3064	0.046
Mof_C 	C 	0.4508	0.96717	0.3815	0.084
Mof_H 	H 	0.4396	0.9595	0.4579	-0.031
Mof_C 	C 	0.4983	0.96448	0.353	-0.369
Mof_H 	H 	0.511	0.9719	0.2773	0.118
Mof_H 	H 	0.5206	0.9551	0.4076	0.107
Mof_N 	N 	0.3571	0.89095	0.182	-0.205
Mof_H 	H 	0.3582	0.8743	0.1538	0.088
Mof_C 	C 	0.3561	0.89569	0.3181	-0.114
Mof_H 	H 	0.3446	0.9144	0.3343	0.039
Mof_H 	H 	0.3311	0.8833	0.3569	0.035
Mof_C 	C 	0.4073	0.89146	0.3784	0.076
Mof_H 	H 	0.4123	0.9001	0.4566	-0.037
Mof_C 	C 	0.4454	0.87752	0.3369	-0.387
Mof_H 	H 	0.4428	0.8684	0.2592	0.132
Mof_H 	H 	0.4759	0.8764	0.3841	0.11
Mof_N 	N 	0.25749	0.97579	0.1311	-0.2
Mof_H 	H 	0.2346	0.9872	0.103	0.08
Mof_C 	C 	0.2598	0.97079	0.2645	-0.091
Mof_H 	H 	0.2878	0.9579	0.2813	0.043
Mof_H 	H 	0.2682	0.9879	0.3074	0.031
Mof_C 	C 	0.2111	0.95958	0.3204	0.021
Mof_H 	H 	0.2106	0.9568	0.4081	-0.025
Mof_C 	C 	0.1693	0.95339	0.2571	-0.354
Mof_H 	H 	0.1682	0.9559	0.1692	0.099
Mof_H 	H 	0.1405	0.9465	0.2998	0.087
Mof_N 	N 	0.446	0.97064	0.9526	-0.198
Mof_H 	H 	0.4746	0.979	0.9699	0.087
Mof_C 	C 	0.4364	0.96104	0.8253	-0.097
Mof_H 	H 	0.4663	0.9507	0.7966	0.038
Mof_H 	H 	0.407	0.9486	0.827	0.043
Mof_C 	C 	0.4257	0.98327	0.7321	0.027
Mof_H 	H 	0.4088	0.9785	0.6568	-0.011
Mof_C 	C 	0.4384	0.00963	0.7488	-0.318
Mof_H 	H 	0.4553	0.0151	0.823	0.103
Mof_H 	H 	0.4305	0.0225	0.6862	0.099
Mof_N 	N 	0.3649	0.90383	0.9437	-0.188
Mof_H 	H 	0.3387	0.9034	0.893	0.087
Mof_C 	C 	0.4141	0.89371	0.8964	-0.12
Mof_H 	H 	0.4119	0.8913	0.8048	0.024
Mof_H 	H 	0.4409	0.9072	0.9138	0.048
Mof_C 	C 	0.4281	0.86747	0.9558	0.101
Mof_H 	H 	0.4043	0.8531	0.9516	-0.037
Mof_C 	C 	0.4715	0.86316	0.0134	-0.455
Mof_H 	H 	0.496	0.8772	0.0191	0.126
Mof_H 	H 	0.4783	0.846	0.0494	0.137
Mof_N 	N 	0.2642	0.96506	0.8989	-0.192
Mof_H 	H 	0.2795	0.9733	0.8366	0.07
Mof_C 	C 	0.2118	0.95527	0.8807	-0.101
Mof_H 	H 	0.191	0.9612	0.9526	0.038
Mof_H 	H 	0.1977	0.9639	0.8049	0.042
Mof_C 	C 	0.2066	0.92507	0.8673	0.04
Mof_H 	H 	0.2335	0.9156	0.8274	-0.019
Mof_C 	C 	0.1673	0.91091	0.9072	-0.354
Mof_H 	H 	0.1397	0.9197	0.9475	0.112
Mof_H 	H 	0.1665	0.8919	0.8956	0.109
_end
