data_functionalizedCrystal
_audit_creation_method	'EQeq! by Chris Wilmer'
_symmetry_space_group_name_H-M	'P1'
_symmetry_Int_Tables_number	1
_symmetry_cell_setting	triclinic
loop_
_symmetry_equiv_pos_as_xyz
  x,y,z
_cell_length_a	11.47
_cell_length_b	7.782
_cell_length_c	6.945
_cell_angle_alpha	90
_cell_angle_beta	105.29
_cell_angle_gamma	90
loop_
_atom_site_label
_atom_site_type_symbol
_atom_site_fract_x
_atom_site_fract_y
_atom_site_fract_z
_atom_site_charge
Mof_N 	N 	0.9442	0.2199	0.1907	-0.045
Mof_C 	C 	0.9635	0.329	0.3071	-0.13
Mof_N 	N 	0.0558	0.2199	0.8093	-0.07
Mof_C 	C 	0.0365	0.329	0.6929	-0.289
Mof_N 	N 	0.0558	0.7801	0.8093	-0.068
Mof_C 	C 	0.0365	0.671	0.6929	-0.287
Mof_N 	N 	0.9442	0.7801	0.1907	-0.041
Mof_C 	C 	0.9635	0.671	0.3071	-0.128
Mof_Cd	Cd	-0	0	-0	0.224
Mof_Ni	Ni	1.43445e-33	0.5	0.5	1.009
Mof_N 	N 	0.1901	0	0.2148	-0.137
Mof_C 	C 	0.2078	0	0.4319	-0.005
Mof_C 	C 	0.3378	-1.05539e-32	0.5499	-0.008
Mof_C 	C 	0.3567	-1.05539e-32	0.7741	-0.008
Mof_C 	C 	0.4878	0	0.8893	0.032
Mof_N 	N 	0.8099	-1.05539e-32	0.7852	-0.08
Mof_C 	C 	0.7922	0	0.5681	0.074
Mof_C 	C 	0.6622	0	0.4501	-0.015
Mof_C 	C 	0.6433	-2.63849e-33	0.2259	0.007
Mof_C 	C 	0.5122	-1.31924e-33	0.1107	-0.035
_end
