data_functionalizedCrystal
_audit_creation_method	'EQeq! by Chris Wilmer'
_symmetry_space_group_name_H-M	'P1'
_symmetry_Int_Tables_number	1
_symmetry_cell_setting	triclinic
loop_
_symmetry_equiv_pos_as_xyz
  x,y,z
_cell_length_a	26.647
_cell_length_b	26.647
_cell_length_c	26.647
_cell_angle_alpha	90
_cell_angle_beta	90
_cell_angle_gamma	90
loop_
_atom_site_label
_atom_site_type_symbol
_atom_site_fract_x
_atom_site_fract_y
_atom_site_fract_z
_atom_site_charge
Mof_O 	O 	0.2426	0.317	0.0531	-0.416
Mof_O 	O 	0.2426	0.817	0.5531	-0.402
Mof_O 	O 	0.7426	0.317	0.5531	-0.404
Mof_O 	O 	0.7426	0.817	0.0531	-0.41
Mof_O 	O 	0.7574	0.683	0.0531	-0.414
Mof_O 	O 	0.7574	0.183	0.5531	-0.406
Mof_O 	O 	0.2574	0.683	0.5531	-0.405
Mof_O 	O 	0.2574	0.183	0.0531	-0.418
Mof_O 	O 	0.7574	0.317	0.9469	-0.374
Mof_O 	O 	0.7574	0.817	0.4469	-0.4
Mof_O 	O 	0.2574	0.317	0.4469	-0.405
Mof_O 	O 	0.2574	0.817	0.9469	-0.372
Mof_O 	O 	0.2426	0.683	0.9469	-0.376
Mof_O 	O 	0.2426	0.183	0.4469	-0.408
Mof_O 	O 	0.7426	0.683	0.4469	-0.404
Mof_O 	O 	0.7426	0.183	0.9469	-0.377
Mof_O 	O 	0.0531	0.2426	0.317	-0.416
Mof_O 	O 	0.0531	0.7426	0.817	-0.41
Mof_O 	O 	0.5531	0.2426	0.817	-0.402
Mof_O 	O 	0.5531	0.7426	0.317	-0.404
Mof_O 	O 	0.0531	0.7574	0.683	-0.414
Mof_O 	O 	0.0531	0.2574	0.183	-0.418
Mof_O 	O 	0.5531	0.7574	0.183	-0.406
Mof_O 	O 	0.5531	0.2574	0.683	-0.405
Mof_O 	O 	0.9469	0.7574	0.317	-0.374
Mof_O 	O 	0.9469	0.2574	0.817	-0.372
Mof_O 	O 	0.4469	0.7574	0.817	-0.4
Mof_O 	O 	0.4469	0.2574	0.317	-0.405
Mof_O 	O 	0.9469	0.2426	0.683	-0.376
Mof_O 	O 	0.9469	0.7426	0.183	-0.377
Mof_O 	O 	0.4469	0.2426	0.183	-0.408
Mof_O 	O 	0.4469	0.7426	0.683	-0.404
Mof_O 	O 	0.317	0.0531	0.2426	-0.416
Mof_O 	O 	0.317	0.5531	0.7426	-0.404
Mof_O 	O 	0.817	0.0531	0.7426	-0.41
Mof_O 	O 	0.817	0.5531	0.2426	-0.402
Mof_O 	O 	0.683	0.0531	0.7574	-0.414
Mof_O 	O 	0.683	0.5531	0.2574	-0.405
Mof_O 	O 	0.183	0.0531	0.2574	-0.418
Mof_O 	O 	0.183	0.5531	0.7574	-0.405
Mof_O 	O 	0.317	0.9469	0.7574	-0.373
Mof_O 	O 	0.317	0.4469	0.2574	-0.404
Mof_O 	O 	0.817	0.9469	0.2574	-0.371
Mof_O 	O 	0.817	0.4469	0.7574	-0.399
Mof_O 	O 	0.683	0.9469	0.2426	-0.375
Mof_O 	O 	0.683	0.4469	0.7426	-0.403
Mof_O 	O 	0.183	0.9469	0.7426	-0.376
Mof_O 	O 	0.183	0.4469	0.2426	-0.407
Mof_O 	O 	0.317	0.2426	0.9469	-0.375
Mof_O 	O 	0.317	0.7426	0.4469	-0.403
Mof_O 	O 	0.817	0.2426	0.4469	-0.401
Mof_O 	O 	0.817	0.7426	0.9469	-0.37
Mof_O 	O 	0.683	0.7574	0.9469	-0.373
Mof_O 	O 	0.683	0.2574	0.4469	-0.404
Mof_O 	O 	0.183	0.7574	0.4469	-0.405
Mof_O 	O 	0.183	0.2574	0.9469	-0.377
Mof_O 	O 	0.317	0.7574	0.0531	-0.413
Mof_O 	O 	0.317	0.2574	0.5531	-0.404
Mof_O 	O 	0.817	0.7574	0.5531	-0.399
Mof_O 	O 	0.817	0.2574	0.0531	-0.41
Mof_O 	O 	0.683	0.2426	0.0531	-0.415
Mof_O 	O 	0.683	0.7426	0.5531	-0.403
Mof_O 	O 	0.183	0.2426	0.5531	-0.407
Mof_O 	O 	0.183	0.7426	0.0531	-0.416
Mof_O 	O 	0.2426	0.0531	0.683	-0.415
Mof_O 	O 	0.2426	0.5531	0.183	-0.407
Mof_O 	O 	0.7426	0.0531	0.183	-0.416
Mof_O 	O 	0.7426	0.5531	0.683	-0.403
Mof_O 	O 	0.7574	0.0531	0.317	-0.413
Mof_O 	O 	0.7574	0.5531	0.817	-0.399
Mof_O 	O 	0.2574	0.0531	0.817	-0.41
Mof_O 	O 	0.2574	0.5531	0.317	-0.404
Mof_O 	O 	0.7574	0.9469	0.683	-0.373
Mof_O 	O 	0.7574	0.4469	0.183	-0.405
Mof_O 	O 	0.2574	0.9469	0.183	-0.377
Mof_O 	O 	0.2574	0.4469	0.683	-0.404
Mof_O 	O 	0.2426	0.9469	0.317	-0.375
Mof_O 	O 	0.2426	0.4469	0.817	-0.401
Mof_O 	O 	0.7426	0.9469	0.817	-0.37
Mof_O 	O 	0.7426	0.4469	0.317	-0.403
Mof_O 	O 	0.0531	0.317	0.7574	-0.413
Mof_O 	O 	0.0531	0.817	0.2574	-0.41
Mof_O 	O 	0.5531	0.317	0.2574	-0.404
Mof_O 	O 	0.5531	0.817	0.7574	-0.399
Mof_O 	O 	0.0531	0.683	0.2426	-0.415
Mof_O 	O 	0.0531	0.183	0.7426	-0.416
Mof_O 	O 	0.5531	0.683	0.7426	-0.403
Mof_O 	O 	0.5531	0.183	0.2426	-0.407
Mof_O 	O 	0.9469	0.317	0.2426	-0.375
Mof_O 	O 	0.9469	0.817	0.7426	-0.37
Mof_O 	O 	0.4469	0.317	0.7426	-0.403
Mof_O 	O 	0.4469	0.817	0.2426	-0.401
Mof_O 	O 	0.9469	0.683	0.7574	-0.373
Mof_O 	O 	0.9469	0.183	0.2574	-0.377
Mof_O 	O 	0.4469	0.683	0.2574	-0.404
Mof_O 	O 	0.4469	0.183	0.7574	-0.405
Mof_O 	O 	0.7574	0.683	0.9469	-0.373
Mof_O 	O 	0.7574	0.183	0.4469	-0.405
Mof_O 	O 	0.2574	0.683	0.4469	-0.404
Mof_O 	O 	0.2574	0.183	0.9469	-0.377
Mof_O 	O 	0.2426	0.317	0.9469	-0.375
Mof_O 	O 	0.2426	0.817	0.4469	-0.401
Mof_O 	O 	0.7426	0.317	0.4469	-0.403
Mof_O 	O 	0.7426	0.817	0.9469	-0.37
Mof_O 	O 	0.2426	0.683	0.0531	-0.415
Mof_O 	O 	0.2426	0.183	0.5531	-0.407
Mof_O 	O 	0.7426	0.683	0.5531	-0.403
Mof_O 	O 	0.7426	0.183	0.0531	-0.416
Mof_O 	O 	0.7574	0.317	0.0531	-0.413
Mof_O 	O 	0.7574	0.817	0.5531	-0.399
Mof_O 	O 	0.2574	0.317	0.5531	-0.404
Mof_O 	O 	0.2574	0.817	0.0531	-0.41
Mof_O 	O 	0.9469	0.7574	0.683	-0.373
Mof_O 	O 	0.9469	0.2574	0.183	-0.377
Mof_O 	O 	0.4469	0.7574	0.183	-0.405
Mof_O 	O 	0.4469	0.2574	0.683	-0.404
Mof_O 	O 	0.9469	0.2426	0.317	-0.375
Mof_O 	O 	0.9469	0.7426	0.817	-0.37
Mof_O 	O 	0.4469	0.2426	0.817	-0.401
Mof_O 	O 	0.4469	0.7426	0.317	-0.403
Mof_O 	O 	0.0531	0.2426	0.683	-0.415
Mof_O 	O 	0.0531	0.7426	0.183	-0.416
Mof_O 	O 	0.5531	0.2426	0.183	-0.407
Mof_O 	O 	0.5531	0.7426	0.683	-0.403
Mof_O 	O 	0.0531	0.7574	0.317	-0.413
Mof_O 	O 	0.0531	0.2574	0.817	-0.41
Mof_O 	O 	0.5531	0.7574	0.817	-0.399
Mof_O 	O 	0.5531	0.2574	0.317	-0.404
Mof_O 	O 	0.683	0.9469	0.7574	-0.373
Mof_O 	O 	0.683	0.4469	0.2574	-0.404
Mof_O 	O 	0.183	0.9469	0.2574	-0.377
Mof_O 	O 	0.183	0.4469	0.7574	-0.405
Mof_O 	O 	0.317	0.9469	0.2426	-0.375
Mof_O 	O 	0.317	0.4469	0.7426	-0.403
Mof_O 	O 	0.817	0.9469	0.7426	-0.37
Mof_O 	O 	0.817	0.4469	0.2426	-0.401
Mof_O 	O 	0.683	0.0531	0.2426	-0.415
Mof_O 	O 	0.683	0.5531	0.7426	-0.403
Mof_O 	O 	0.183	0.0531	0.7426	-0.416
Mof_O 	O 	0.183	0.5531	0.2426	-0.407
Mof_O 	O 	0.317	0.0531	0.7574	-0.413
Mof_O 	O 	0.317	0.5531	0.2574	-0.404
Mof_O 	O 	0.817	0.0531	0.2574	-0.41
Mof_O 	O 	0.817	0.5531	0.7574	-0.399
Mof_O 	O 	0.683	0.7574	0.0531	-0.413
Mof_O 	O 	0.683	0.2574	0.5531	-0.404
Mof_O 	O 	0.183	0.7574	0.5531	-0.405
Mof_O 	O 	0.183	0.2574	0.0531	-0.417
Mof_O 	O 	0.317	0.2426	0.0531	-0.415
Mof_O 	O 	0.317	0.7426	0.5531	-0.403
Mof_O 	O 	0.817	0.2426	0.5531	-0.401
Mof_O 	O 	0.817	0.7426	0.0531	-0.409
Mof_O 	O 	0.683	0.2426	0.9469	-0.375
Mof_O 	O 	0.683	0.7426	0.4469	-0.403
Mof_O 	O 	0.183	0.2426	0.4469	-0.407
Mof_O 	O 	0.183	0.7426	0.9469	-0.376
Mof_O 	O 	0.317	0.7574	0.9469	-0.373
Mof_O 	O 	0.317	0.2574	0.4469	-0.404
Mof_O 	O 	0.817	0.7574	0.4469	-0.399
Mof_O 	O 	0.817	0.2574	0.9469	-0.371
Mof_O 	O 	0.7574	0.9469	0.317	-0.373
Mof_O 	O 	0.7574	0.4469	0.817	-0.399
Mof_O 	O 	0.2574	0.9469	0.817	-0.371
Mof_O 	O 	0.2574	0.4469	0.317	-0.404
Mof_O 	O 	0.2426	0.9469	0.683	-0.375
Mof_O 	O 	0.2426	0.4469	0.183	-0.407
Mof_O 	O 	0.7426	0.9469	0.183	-0.376
Mof_O 	O 	0.7426	0.4469	0.683	-0.403
Mof_O 	O 	0.2426	0.0531	0.317	-0.415
Mof_O 	O 	0.2426	0.5531	0.817	-0.401
Mof_O 	O 	0.7426	0.0531	0.817	-0.409
Mof_O 	O 	0.7426	0.5531	0.317	-0.403
Mof_O 	O 	0.7574	0.0531	0.683	-0.413
Mof_O 	O 	0.7574	0.5531	0.183	-0.405
Mof_O 	O 	0.2574	0.0531	0.183	-0.417
Mof_O 	O 	0.2574	0.5531	0.683	-0.404
Mof_O 	O 	0.9469	0.683	0.2426	-0.375
Mof_O 	O 	0.9469	0.183	0.7426	-0.376
Mof_O 	O 	0.4469	0.683	0.7426	-0.403
Mof_O 	O 	0.4469	0.183	0.2426	-0.407
Mof_O 	O 	0.9469	0.317	0.7574	-0.373
Mof_O 	O 	0.9469	0.817	0.2574	-0.371
Mof_O 	O 	0.4469	0.317	0.2574	-0.404
Mof_O 	O 	0.4469	0.817	0.7574	-0.399
Mof_O 	O 	0.0531	0.683	0.7574	-0.413
Mof_O 	O 	0.0531	0.183	0.2574	-0.417
Mof_O 	O 	0.5531	0.683	0.2574	-0.404
Mof_O 	O 	0.5531	0.183	0.7574	-0.405
Mof_O 	O 	0.0531	0.317	0.2426	-0.415
Mof_O 	O 	0.0531	0.817	0.7426	-0.409
Mof_O 	O 	0.5531	0.317	0.7426	-0.403
Mof_O 	O 	0.5531	0.817	0.2426	-0.401
Mof_Co	Co	0.28976	0.28976	-0	1.167
Mof_Cl	Cl	0.3504	0.3504	-0	-0.385
Mof_Co	Co	0.28976	0.78976	0.5	1.188
Mof_Cl	Cl	0.3504	0.8504	0.5	-0.328
Mof_Co	Co	0.78976	0.28976	0.5	1.188
Mof_Cl	Cl	0.8504	0.3504	0.5	-0.328
Mof_Co	Co	0.78976	0.78976	-0	1.168
Mof_Cl	Cl	0.8504	0.8504	-0	-0.349
Mof_Co	Co	0.71024	0.71024	-0	1.167
Mof_Cl	Cl	0.6496	0.6496	-0	-0.383
Mof_Co	Co	0.71024	0.21024	0.5	1.188
Mof_Cl	Cl	0.6496	0.1496	0.5	-0.353
Mof_Co	Co	0.21024	0.71024	0.5	1.188
Mof_Cl	Cl	0.1496	0.6496	0.5	-0.353
Mof_Co	Co	0.21024	0.21024	-0	1.167
Mof_Cl	Cl	0.1496	0.1496	-0	-0.398
Mof_Co	Co	0.71024	0.28976	-0	1.167
Mof_Cl	Cl	0.6496	0.3504	-0	-0.384
Mof_Co	Co	0.71024	0.78976	0.5	1.188
Mof_Cl	Cl	0.6496	0.8504	0.5	-0.327
Mof_Co	Co	0.21024	0.28976	0.5	1.188
Mof_Cl	Cl	0.1496	0.3504	0.5	-0.354
Mof_Co	Co	0.21024	0.78976	-0	1.168
Mof_Cl	Cl	0.1496	0.8504	-0	-0.374
Mof_Co	Co	0.28976	0.71024	-0	1.167
Mof_Cl	Cl	0.3504	0.6496	-0	-0.384
Mof_Co	Co	0.28976	0.21024	0.5	1.188
Mof_Cl	Cl	0.3504	0.1496	0.5	-0.354
Mof_Co	Co	0.78976	0.71024	0.5	1.188
Mof_Cl	Cl	0.8504	0.6496	0.5	-0.327
Mof_Co	Co	0.78976	0.21024	-0	1.168
Mof_Cl	Cl	0.8504	0.1496	-0	-0.374
Mof_Co	Co	6.42304e-33	0.28976	0.28976	1.167
Mof_Cl	Cl	1.31379e-33	0.3504	0.3504	-0.385
Mof_Co	Co	2.96113e-33	0.78976	0.78976	1.168
Mof_Cl	Cl	3.18849e-33	0.8504	0.8504	-0.349
Mof_Co	Co	0.5	0.28976	0.78976	1.188
Mof_Cl	Cl	0.5	0.3504	0.8504	-0.328
Mof_Co	Co	0.5	0.78976	0.28976	1.188
Mof_Cl	Cl	0.5	0.8504	0.3504	-0.328
Mof_Co	Co	1.33362e-32	0.71024	0.71024	1.167
Mof_Cl	Cl	1.31088e-32	0.6496	0.6496	-0.383
Mof_Co	Co	7.88274e-34	0.21024	0.21024	1.167
Mof_Cl	Cl	1.89506e-33	0.1496	0.1496	-0.398
Mof_Co	Co	0.5	0.71024	0.21024	1.188
Mof_Cl	Cl	0.5	0.6496	0.1496	-0.353
Mof_Co	Co	0.5	0.21024	0.71024	1.188
Mof_Cl	Cl	0.5	0.1496	0.6496	-0.353
Mof_Co	Co	3.75473e-33	0.71024	0.28976	1.167
Mof_Cl	Cl	3.98209e-33	0.6496	0.3504	-0.384
Mof_Co	Co	-7.71209e-33	0.21024	0.78976	1.168
Mof_Cl	Cl	1.38617e-32	0.1496	0.8504	-0.374
Mof_Co	Co	0.5	0.71024	0.78976	1.188
Mof_Cl	Cl	0.5	0.6496	0.8504	-0.327
Mof_Co	Co	0.5	0.21024	0.28976	1.188
Mof_Cl	Cl	0.5	0.1496	0.3504	-0.354
Mof_Co	Co	7.99958e-33	0.28976	0.71024	1.167
Mof_Cl	Cl	2.43561e-33	0.3504	0.6496	-0.384
Mof_Co	Co	-4.54834e-33	0.78976	0.21024	1.168
Mof_Cl	Cl	8.56582e-33	0.8504	0.1496	-0.374
Mof_Co	Co	0.5	0.28976	0.21024	1.188
Mof_Cl	Cl	0.5	0.3504	0.1496	-0.354
Mof_Co	Co	0.5	0.78976	0.71024	1.188
Mof_Cl	Cl	0.5	0.8504	0.6496	-0.327
Mof_Co	Co	0.28976	2.6683e-33	0.28976	1.167
Mof_Cl	Cl	0.3504	0	0.3504	-0.385
Mof_Co	Co	0.28976	0.5	0.78976	1.188
Mof_Cl	Cl	0.3504	0.5	0.8504	-0.328
Mof_Co	Co	0.78976	0	0.78976	1.168
Mof_Cl	Cl	0.8504	0	0.8504	-0.349
Mof_Co	Co	0.78976	0.5	0.28976	1.188
Mof_Cl	Cl	0.8504	0.5	0.3504	-0.328
Mof_Co	Co	0.71024	5.33661e-33	0.71024	1.167
Mof_Cl	Cl	0.6496	5.33661e-33	0.6496	-0.383
Mof_Co	Co	0.71024	0.5	0.21024	1.188
Mof_Cl	Cl	0.6496	0.5	0.1496	-0.353
Mof_Co	Co	0.21024	0	0.21024	1.167
Mof_Cl	Cl	0.1496	1.33415e-33	0.1496	-0.398
Mof_Co	Co	0.21024	0.5	0.71024	1.188
Mof_Cl	Cl	0.1496	0.5	0.6496	-0.353
Mof_Co	Co	0.28976	5.33661e-33	0.71024	1.167
Mof_Cl	Cl	0.3504	5.33661e-33	0.6496	-0.384
Mof_Co	Co	0.28976	0.5	0.21024	1.188
Mof_Cl	Cl	0.3504	0.5	0.1496	-0.354
Mof_Co	Co	0.78976	0	0.21024	1.168
Mof_Cl	Cl	0.8504	1.33415e-33	0.1496	-0.374
Mof_Co	Co	0.78976	0.5	0.71024	1.188
Mof_Cl	Cl	0.8504	0.5	0.6496	-0.327
Mof_Co	Co	0.71024	2.6683e-33	0.28976	1.167
Mof_Cl	Cl	0.6496	0	0.3504	-0.384
Mof_Co	Co	0.71024	0.5	0.78976	1.188
Mof_Cl	Cl	0.6496	0.5	0.8504	-0.327
Mof_Co	Co	0.21024	0	0.78976	1.168
Mof_Cl	Cl	0.1496	0	0.8504	-0.374
Mof_Co	Co	0.21024	0.5	0.28976	1.188
Mof_Cl	Cl	0.1496	0.5	0.3504	-0.354
Mof_C 	C 	0.2024	0.2976	0.069	0.357
Mof_C 	C 	0.1778	0.3222	0.1143	-0.084
Mof_C 	C 	0.2024	0.7976	0.569	0.358
Mof_C 	C 	0.1778	0.8222	0.6143	-0.071
Mof_C 	C 	0.7976	0.7024	0.069	0.356
Mof_C 	C 	0.8222	0.6778	0.1143	-0.073
Mof_C 	C 	0.7976	0.2024	0.569	0.358
Mof_C 	C 	0.8222	0.1778	0.6143	-0.071
Mof_C 	C 	0.2976	0.2024	0.069	0.357
Mof_C 	C 	0.3222	0.1778	0.1143	-0.084
Mof_C 	C 	0.7976	0.2976	0.931	0.351
Mof_C 	C 	0.8222	0.3222	0.8857	-0.055
Mof_C 	C 	0.7976	0.7976	0.431	0.357
Mof_C 	C 	0.8222	0.8222	0.3857	-0.06
Mof_C 	C 	0.2976	0.2976	0.431	0.359
Mof_C 	C 	0.3222	0.3222	0.3857	-0.076
Mof_C 	C 	0.2024	0.7024	0.931	0.352
Mof_C 	C 	0.1778	0.6778	0.8857	-0.065
Mof_C 	C 	0.2024	0.2024	0.431	0.359
Mof_C 	C 	0.1778	0.1778	0.3857	-0.082
Mof_C 	C 	0.069	0.2024	0.2976	0.357
Mof_C 	C 	0.1143	0.1778	0.3222	-0.084
Mof_C 	C 	0.569	0.2024	0.7976	0.358
Mof_C 	C 	0.6143	0.1778	0.8222	-0.071
Mof_C 	C 	0.069	0.7976	0.7024	0.356
Mof_C 	C 	0.1143	0.8222	0.6778	-0.073
Mof_C 	C 	0.069	0.2976	0.2024	0.357
Mof_C 	C 	0.1143	0.3222	0.1778	-0.084
Mof_C 	C 	0.569	0.7976	0.2024	0.358
Mof_C 	C 	0.6143	0.8222	0.1778	-0.071
Mof_C 	C 	0.931	0.7976	0.2976	0.351
Mof_C 	C 	0.8857	0.8222	0.3222	-0.055
Mof_C 	C 	0.431	0.7976	0.7976	0.357
Mof_C 	C 	0.3857	0.8222	0.8222	-0.06
Mof_C 	C 	0.431	0.2976	0.2976	0.359
Mof_C 	C 	0.3857	0.3222	0.3222	-0.076
Mof_C 	C 	0.931	0.2024	0.7024	0.352
Mof_C 	C 	0.8857	0.1778	0.6778	-0.065
Mof_C 	C 	0.431	0.2024	0.2024	0.359
Mof_C 	C 	0.3857	0.1778	0.1778	-0.082
Mof_C 	C 	0.2976	0.069	0.2024	0.357
Mof_C 	C 	0.3222	0.1143	0.1778	-0.084
Mof_C 	C 	0.2976	0.569	0.7024	0.359
Mof_C 	C 	0.3222	0.6143	0.6778	-0.075
Mof_C 	C 	0.7024	0.069	0.7976	0.356
Mof_C 	C 	0.6778	0.1143	0.8222	-0.073
Mof_C 	C 	0.7024	0.569	0.2976	0.359
Mof_C 	C 	0.6778	0.6143	0.3222	-0.075
Mof_C 	C 	0.2024	0.069	0.2976	0.357
Mof_C 	C 	0.1778	0.1143	0.3222	-0.084
Mof_C 	C 	0.2976	0.931	0.7976	0.351
Mof_C 	C 	0.3222	0.8857	0.8222	-0.055
Mof_C 	C 	0.2976	0.431	0.2976	0.359
Mof_C 	C 	0.3222	0.3857	0.3222	-0.076
Mof_C 	C 	0.7024	0.931	0.2024	0.352
Mof_C 	C 	0.6778	0.8857	0.1778	-0.065
Mof_C 	C 	0.7024	0.431	0.7024	0.358
Mof_C 	C 	0.6778	0.3857	0.6778	-0.074
Mof_C 	C 	0.2024	0.431	0.2024	0.359
Mof_C 	C 	0.1778	0.3857	0.1778	-0.082
Mof_C 	C 	0.2976	0.2024	0.931	0.352
Mof_C 	C 	0.3222	0.1778	0.8857	-0.065
Mof_C 	C 	0.2976	0.7024	0.431	0.359
Mof_C 	C 	0.3222	0.6778	0.3857	-0.075
Mof_C 	C 	0.7024	0.7976	0.931	0.351
Mof_C 	C 	0.6778	0.8222	0.8857	-0.054
Mof_C 	C 	0.7024	0.2976	0.431	0.359
Mof_C 	C 	0.6778	0.3222	0.3857	-0.075
Mof_C 	C 	0.2024	0.2976	0.931	0.352
Mof_C 	C 	0.1778	0.3222	0.8857	-0.065
Mof_C 	C 	0.2976	0.7976	0.069	0.356
Mof_C 	C 	0.3222	0.8222	0.1143	-0.074
Mof_C 	C 	0.2976	0.2976	0.569	0.359
Mof_C 	C 	0.3222	0.3222	0.6143	-0.076
Mof_C 	C 	0.7024	0.2024	0.069	0.357
Mof_C 	C 	0.6778	0.1778	0.1143	-0.084
Mof_C 	C 	0.7024	0.7024	0.569	0.358
Mof_C 	C 	0.6778	0.6778	0.6143	-0.074
Mof_C 	C 	0.2024	0.2024	0.569	0.359
Mof_C 	C 	0.1778	0.1778	0.6143	-0.082
Mof_C 	C 	0.2024	0.069	0.7024	0.357
Mof_C 	C 	0.1778	0.1143	0.6778	-0.084
Mof_C 	C 	0.2024	0.569	0.2024	0.359
Mof_C 	C 	0.1778	0.6143	0.1778	-0.082
Mof_C 	C 	0.7976	0.069	0.2976	0.356
Mof_C 	C 	0.8222	0.1143	0.3222	-0.074
Mof_C 	C 	0.7976	0.569	0.7976	0.357
Mof_C 	C 	0.8222	0.6143	0.8222	-0.06
Mof_C 	C 	0.2976	0.569	0.2976	0.359
Mof_C 	C 	0.3222	0.6143	0.3222	-0.076
Mof_C 	C 	0.7976	0.931	0.7024	0.351
Mof_C 	C 	0.8222	0.8857	0.6778	-0.054
Mof_C 	C 	0.7976	0.431	0.2024	0.358
Mof_C 	C 	0.8222	0.3857	0.1778	-0.071
Mof_C 	C 	0.2976	0.931	0.2024	0.352
Mof_C 	C 	0.3222	0.8857	0.1778	-0.065
Mof_C 	C 	0.2024	0.931	0.2976	0.352
Mof_C 	C 	0.1778	0.8857	0.3222	-0.065
Mof_C 	C 	0.2024	0.431	0.7976	0.358
Mof_C 	C 	0.1778	0.3857	0.8222	-0.071
Mof_C 	C 	0.069	0.2976	0.7976	0.356
Mof_C 	C 	0.1143	0.3222	0.8222	-0.074
Mof_C 	C 	0.569	0.2976	0.2976	0.359
Mof_C 	C 	0.6143	0.3222	0.3222	-0.076
Mof_C 	C 	0.069	0.7024	0.2024	0.357
Mof_C 	C 	0.1143	0.6778	0.1778	-0.084
Mof_C 	C 	0.569	0.7024	0.7024	0.358
Mof_C 	C 	0.6143	0.6778	0.6778	-0.074
Mof_C 	C 	0.569	0.2024	0.2024	0.359
Mof_C 	C 	0.6143	0.1778	0.1778	-0.082
Mof_C 	C 	0.931	0.2976	0.2024	0.352
Mof_C 	C 	0.8857	0.3222	0.1778	-0.065
Mof_C 	C 	0.431	0.2976	0.7024	0.359
Mof_C 	C 	0.3857	0.3222	0.6778	-0.075
Mof_C 	C 	0.931	0.7024	0.7976	0.351
Mof_C 	C 	0.8857	0.6778	0.8222	-0.054
Mof_C 	C 	0.931	0.2024	0.2976	0.352
Mof_C 	C 	0.8857	0.1778	0.3222	-0.065
Mof_C 	C 	0.431	0.7024	0.2976	0.359
Mof_C 	C 	0.3857	0.6778	0.3222	-0.075
Mof_C 	C 	0.7976	0.7024	0.931	0.351
Mof_C 	C 	0.8222	0.6778	0.8857	-0.054
Mof_C 	C 	0.7976	0.2024	0.431	0.358
Mof_C 	C 	0.8222	0.1778	0.3857	-0.071
Mof_C 	C 	0.2024	0.7976	0.431	0.358
Mof_C 	C 	0.1778	0.8222	0.3857	-0.071
Mof_C 	C 	0.2024	0.7024	0.069	0.357
Mof_C 	C 	0.1778	0.6778	0.1143	-0.084
Mof_C 	C 	0.7976	0.2976	0.069	0.356
Mof_C 	C 	0.8222	0.3222	0.1143	-0.074
Mof_C 	C 	0.7976	0.7976	0.569	0.357
Mof_C 	C 	0.8222	0.8222	0.6143	-0.06
Mof_C 	C 	0.931	0.7976	0.7024	0.351
Mof_C 	C 	0.8857	0.8222	0.6778	-0.054
Mof_C 	C 	0.431	0.7976	0.2024	0.358
Mof_C 	C 	0.3857	0.8222	0.1778	-0.071
Mof_C 	C 	0.431	0.2024	0.7976	0.358
Mof_C 	C 	0.3857	0.1778	0.8222	-0.071
Mof_C 	C 	0.069	0.2024	0.7024	0.357
Mof_C 	C 	0.1143	0.1778	0.6778	-0.084
Mof_C 	C 	0.069	0.7976	0.2976	0.356
Mof_C 	C 	0.1143	0.8222	0.3222	-0.074
Mof_C 	C 	0.569	0.7976	0.7976	0.357
Mof_C 	C 	0.6143	0.8222	0.8222	-0.06
Mof_C 	C 	0.7024	0.931	0.7976	0.351
Mof_C 	C 	0.6778	0.8857	0.8222	-0.054
Mof_C 	C 	0.7024	0.431	0.2976	0.359
Mof_C 	C 	0.6778	0.3857	0.3222	-0.075
Mof_C 	C 	0.2976	0.431	0.7024	0.359
Mof_C 	C 	0.3222	0.3857	0.6778	-0.075
Mof_C 	C 	0.7024	0.069	0.2024	0.357
Mof_C 	C 	0.6778	0.1143	0.1778	-0.084
Mof_C 	C 	0.7024	0.569	0.7024	0.358
Mof_C 	C 	0.6778	0.6143	0.6778	-0.074
Mof_C 	C 	0.2976	0.069	0.7976	0.356
Mof_C 	C 	0.3222	0.1143	0.8222	-0.074
Mof_C 	C 	0.7024	0.7976	0.069	0.356
Mof_C 	C 	0.6778	0.8222	0.1143	-0.073
Mof_C 	C 	0.7024	0.2976	0.569	0.359
Mof_C 	C 	0.6778	0.3222	0.6143	-0.075
Mof_C 	C 	0.2976	0.7024	0.569	0.359
Mof_C 	C 	0.3222	0.6778	0.6143	-0.075
Mof_C 	C 	0.7024	0.2024	0.931	0.352
Mof_C 	C 	0.6778	0.1778	0.8857	-0.065
Mof_C 	C 	0.7024	0.7024	0.431	0.358
Mof_C 	C 	0.6778	0.6778	0.3857	-0.074
Mof_C 	C 	0.2976	0.7976	0.931	0.351
Mof_C 	C 	0.3222	0.8222	0.8857	-0.055
Mof_C 	C 	0.7976	0.931	0.2976	0.351
Mof_C 	C 	0.8222	0.8857	0.3222	-0.055
Mof_C 	C 	0.7976	0.431	0.7976	0.357
Mof_C 	C 	0.8222	0.3857	0.8222	-0.06
Mof_C 	C 	0.2024	0.931	0.7024	0.352
Mof_C 	C 	0.1778	0.8857	0.6778	-0.065
Mof_C 	C 	0.2024	0.569	0.7976	0.358
Mof_C 	C 	0.1778	0.6143	0.8222	-0.071
Mof_C 	C 	0.7976	0.069	0.7024	0.356
Mof_C 	C 	0.8222	0.1143	0.6778	-0.073
Mof_C 	C 	0.7976	0.569	0.2024	0.358
Mof_C 	C 	0.8222	0.6143	0.1778	-0.071
Mof_C 	C 	0.931	0.7024	0.2024	0.352
Mof_C 	C 	0.8857	0.6778	0.1778	-0.065
Mof_C 	C 	0.431	0.7024	0.7024	0.358
Mof_C 	C 	0.3857	0.6778	0.6778	-0.074
Mof_C 	C 	0.931	0.2976	0.7976	0.351
Mof_C 	C 	0.8857	0.3222	0.8222	-0.055
Mof_C 	C 	0.069	0.7024	0.7976	0.356
Mof_C 	C 	0.1143	0.6778	0.8222	-0.073
Mof_C 	C 	0.569	0.7024	0.2976	0.359
Mof_C 	C 	0.6143	0.6778	0.3222	-0.075
Mof_C 	C 	0.569	0.2976	0.7024	0.359
Mof_C 	C 	0.6143	0.3222	0.6778	-0.075
Mof_C 	C 	0.1984	0.365	0.135	0.032
Mof_H 	H 	0.2263	0.3798	0.1202	0.069
Mof_C 	C 	0.6984	0.365	0.635	0.029
Mof_H 	H 	0.7263	0.3798	0.6202	0.075
Mof_C 	C 	0.8016	0.635	0.135	0.026
Mof_H 	H 	0.7737	0.6202	0.1202	0.073
Mof_C 	C 	0.3016	0.635	0.635	0.029
Mof_H 	H 	0.2737	0.6202	0.6202	0.074
Mof_C 	C 	0.3016	0.135	0.135	0.032
Mof_H 	H 	0.2737	0.1202	0.1202	0.066
Mof_C 	C 	0.8016	0.365	0.865	0.019
Mof_H 	H 	0.7737	0.3798	0.8798	0.085
Mof_C 	C 	0.3016	0.365	0.365	0.031
Mof_H 	H 	0.2737	0.3798	0.3798	0.074
Mof_C 	C 	0.1984	0.635	0.865	0.024
Mof_H 	H 	0.2263	0.6202	0.8798	0.082
Mof_C 	C 	0.1984	0.135	0.365	0.032
Mof_H 	H 	0.2263	0.1202	0.3798	0.069
Mof_C 	C 	0.6984	0.635	0.365	0.029
Mof_H 	H 	0.7263	0.6202	0.3798	0.075
Mof_C 	C 	0.135	0.1984	0.365	0.032
Mof_H 	H 	0.1202	0.2263	0.3798	0.069
Mof_C 	C 	0.135	0.6984	0.865	0.024
Mof_H 	H 	0.1202	0.7263	0.8798	0.08
Mof_C 	C 	0.135	0.8016	0.635	0.026
Mof_H 	H 	0.1202	0.7737	0.6202	0.073
Mof_C 	C 	0.135	0.3016	0.135	0.032
Mof_H 	H 	0.1202	0.2737	0.1202	0.066
Mof_C 	C 	0.865	0.8016	0.365	0.019
Mof_H 	H 	0.8798	0.7737	0.3798	0.085
Mof_C 	C 	0.865	0.3016	0.865	0.017
Mof_H 	H 	0.8798	0.2737	0.8798	0.091
Mof_C 	C 	0.365	0.3016	0.365	0.031
Mof_H 	H 	0.3798	0.2737	0.3798	0.074
Mof_C 	C 	0.865	0.1984	0.635	0.024
Mof_H 	H 	0.8798	0.2263	0.6202	0.082
Mof_C 	C 	0.865	0.6984	0.135	0.024
Mof_H 	H 	0.8798	0.7263	0.1202	0.08
Mof_C 	C 	0.365	0.1984	0.135	0.032
Mof_H 	H 	0.3798	0.2263	0.1202	0.069
Mof_C 	C 	0.365	0.135	0.1984	0.032
Mof_H 	H 	0.3798	0.1202	0.2263	0.069
Mof_C 	C 	0.365	0.635	0.6984	0.029
Mof_H 	H 	0.3798	0.6202	0.7263	0.075
Mof_C 	C 	0.635	0.135	0.8016	0.026
Mof_H 	H 	0.6202	0.1202	0.7737	0.073
Mof_C 	C 	0.635	0.635	0.3016	0.029
Mof_H 	H 	0.6202	0.6202	0.2737	0.074
Mof_C 	C 	0.135	0.135	0.3016	0.032
Mof_H 	H 	0.1202	0.1202	0.2737	0.066
Mof_C 	C 	0.365	0.865	0.8016	0.019
Mof_H 	H 	0.3798	0.8798	0.7737	0.085
Mof_C 	C 	0.365	0.365	0.3016	0.031
Mof_H 	H 	0.3798	0.3798	0.2737	0.074
Mof_C 	C 	0.635	0.865	0.1984	0.024
Mof_H 	H 	0.6202	0.8798	0.2263	0.082
Mof_C 	C 	0.635	0.365	0.6984	0.029
Mof_H 	H 	0.6202	0.3798	0.7263	0.075
Mof_C 	C 	0.135	0.365	0.1984	0.032
Mof_H 	H 	0.1202	0.3798	0.2263	0.069
Mof_C 	C 	0.365	0.1984	0.865	0.025
Mof_H 	H 	0.3798	0.2263	0.8798	0.081
Mof_C 	C 	0.365	0.6984	0.365	0.03
Mof_H 	H 	0.3798	0.7263	0.3798	0.075
Mof_C 	C 	0.635	0.8016	0.865	0.019
Mof_H 	H 	0.6202	0.7737	0.8798	0.085
Mof_C 	C 	0.635	0.3016	0.365	0.03
Mof_H 	H 	0.6202	0.2737	0.3798	0.074
Mof_C 	C 	0.135	0.8016	0.365	0.027
Mof_H 	H 	0.1202	0.7737	0.3798	0.073
Mof_C 	C 	0.365	0.8016	0.135	0.027
Mof_H 	H 	0.3798	0.7737	0.1202	0.073
Mof_C 	C 	0.365	0.3016	0.635	0.03
Mof_H 	H 	0.3798	0.2737	0.6202	0.074
Mof_C 	C 	0.635	0.1984	0.135	0.032
Mof_H 	H 	0.6202	0.2263	0.1202	0.069
Mof_C 	C 	0.635	0.6984	0.635	0.029
Mof_H 	H 	0.6202	0.7263	0.6202	0.075
Mof_C 	C 	0.135	0.6984	0.135	0.032
Mof_H 	H 	0.1202	0.7263	0.1202	0.068
Mof_C 	C 	0.1984	0.135	0.635	0.032
Mof_H 	H 	0.2263	0.1202	0.6202	0.069
Mof_C 	C 	0.6984	0.135	0.135	0.032
Mof_H 	H 	0.7263	0.1202	0.1202	0.068
Mof_C 	C 	0.8016	0.135	0.365	0.027
Mof_H 	H 	0.7737	0.1202	0.3798	0.073
Mof_C 	C 	0.3016	0.135	0.865	0.025
Mof_H 	H 	0.2737	0.1202	0.8798	0.078
Mof_C 	C 	0.8016	0.865	0.635	0.019
Mof_H 	H 	0.7737	0.8798	0.6202	0.085
Mof_C 	C 	0.8016	0.365	0.135	0.027
Mof_H 	H 	0.7737	0.3798	0.1202	0.073
Mof_C 	C 	0.3016	0.865	0.135	0.025
Mof_H 	H 	0.2737	0.8798	0.1202	0.078
Mof_C 	C 	0.1984	0.865	0.365	0.025
Mof_H 	H 	0.2263	0.8798	0.3798	0.081
Mof_C 	C 	0.6984	0.865	0.865	0.016
Mof_H 	H 	0.7263	0.8798	0.8798	0.092
Mof_C 	C 	0.6984	0.365	0.365	0.03
Mof_H 	H 	0.7263	0.3798	0.3798	0.075
Mof_C 	C 	0.135	0.365	0.8016	0.027
Mof_H 	H 	0.1202	0.3798	0.7737	0.073
Mof_C 	C 	0.135	0.865	0.3016	0.025
Mof_H 	H 	0.1202	0.8798	0.2737	0.078
Mof_C 	C 	0.135	0.635	0.1984	0.032
Mof_H 	H 	0.1202	0.6202	0.2263	0.069
Mof_C 	C 	0.135	0.135	0.6984	0.032
Mof_H 	H 	0.1202	0.1202	0.7263	0.068
Mof_C 	C 	0.865	0.365	0.1984	0.025
Mof_H 	H 	0.8798	0.3798	0.2263	0.081
Mof_C 	C 	0.865	0.865	0.6984	0.016
Mof_H 	H 	0.8798	0.8798	0.7263	0.092
Mof_C 	C 	0.365	0.365	0.6984	0.03
Mof_H 	H 	0.3798	0.3798	0.7263	0.075
Mof_C 	C 	0.865	0.635	0.8016	0.019
Mof_H 	H 	0.8798	0.6202	0.7737	0.085
Mof_C 	C 	0.865	0.135	0.3016	0.025
Mof_H 	H 	0.8798	0.1202	0.2737	0.078
Mof_C 	C 	0.365	0.135	0.8016	0.027
Mof_H 	H 	0.3798	0.1202	0.7737	0.073
Mof_C 	C 	0.8016	0.635	0.865	0.019
Mof_H 	H 	0.7737	0.6202	0.8798	0.085
Mof_C 	C 	0.3016	0.635	0.365	0.03
Mof_H 	H 	0.2737	0.6202	0.3798	0.074
Mof_C 	C 	0.1984	0.365	0.865	0.025
Mof_H 	H 	0.2263	0.3798	0.8798	0.081
Mof_C 	C 	0.1984	0.635	0.135	0.032
Mof_H 	H 	0.2263	0.6202	0.1202	0.069
Mof_C 	C 	0.6984	0.635	0.635	0.029
Mof_H 	H 	0.7263	0.6202	0.6202	0.075
Mof_C 	C 	0.3016	0.365	0.635	0.03
Mof_H 	H 	0.2737	0.3798	0.6202	0.074
Mof_C 	C 	0.865	0.8016	0.635	0.019
Mof_H 	H 	0.8798	0.7737	0.6202	0.085
Mof_C 	C 	0.865	0.3016	0.135	0.025
Mof_H 	H 	0.8798	0.2737	0.1202	0.078
Mof_C 	C 	0.865	0.1984	0.365	0.025
Mof_H 	H 	0.8798	0.2263	0.3798	0.081
Mof_C 	C 	0.865	0.6984	0.865	0.016
Mof_H 	H 	0.8798	0.7263	0.8798	0.092
Mof_C 	C 	0.135	0.1984	0.635	0.032
Mof_H 	H 	0.1202	0.2263	0.6202	0.069
Mof_C 	C 	0.135	0.3016	0.865	0.025
Mof_H 	H 	0.1202	0.2737	0.8798	0.078
Mof_C 	C 	0.635	0.865	0.8016	0.019
Mof_H 	H 	0.6202	0.8798	0.7737	0.085
Mof_C 	C 	0.635	0.365	0.3016	0.03
Mof_H 	H 	0.6202	0.3798	0.2737	0.074
Mof_C 	C 	0.365	0.865	0.1984	0.025
Mof_H 	H 	0.3798	0.8798	0.2263	0.081
Mof_C 	C 	0.635	0.135	0.1984	0.032
Mof_H 	H 	0.6202	0.1202	0.2263	0.069
Mof_C 	C 	0.635	0.635	0.6984	0.029
Mof_H 	H 	0.6202	0.6202	0.7263	0.075
Mof_C 	C 	0.365	0.635	0.3016	0.03
Mof_H 	H 	0.3798	0.6202	0.2737	0.074
Mof_C 	C 	0.635	0.8016	0.135	0.026
Mof_H 	H 	0.6202	0.7737	0.1202	0.073
Mof_C 	C 	0.635	0.3016	0.635	0.029
Mof_H 	H 	0.6202	0.2737	0.6202	0.074
Mof_C 	C 	0.365	0.6984	0.635	0.029
Mof_H 	H 	0.3798	0.7263	0.6202	0.075
Mof_C 	C 	0.635	0.1984	0.865	0.024
Mof_H 	H 	0.6202	0.2263	0.8798	0.082
Mof_C 	C 	0.635	0.6984	0.365	0.029
Mof_H 	H 	0.6202	0.7263	0.3798	0.075
Mof_C 	C 	0.365	0.8016	0.865	0.019
Mof_H 	H 	0.3798	0.7737	0.8798	0.085
Mof_C 	C 	0.8016	0.865	0.365	0.019
Mof_H 	H 	0.7737	0.8798	0.3798	0.085
Mof_C 	C 	0.3016	0.865	0.865	0.017
Mof_H 	H 	0.2737	0.8798	0.8798	0.091
Mof_C 	C 	0.1984	0.865	0.635	0.024
Mof_H 	H 	0.2263	0.8798	0.6202	0.082
Mof_C 	C 	0.6984	0.865	0.135	0.024
Mof_H 	H 	0.7263	0.8798	0.1202	0.08
Mof_C 	C 	0.6984	0.135	0.865	0.024
Mof_H 	H 	0.7263	0.1202	0.8798	0.08
Mof_C 	C 	0.8016	0.135	0.635	0.026
Mof_H 	H 	0.7737	0.1202	0.6202	0.073
Mof_C 	C 	0.865	0.635	0.1984	0.024
Mof_H 	H 	0.8798	0.6202	0.2263	0.082
Mof_C 	C 	0.865	0.135	0.6984	0.024
Mof_H 	H 	0.8798	0.1202	0.7263	0.08
Mof_C 	C 	0.865	0.365	0.8016	0.019
Mof_H 	H 	0.8798	0.3798	0.7737	0.085
Mof_C 	C 	0.865	0.865	0.3016	0.017
Mof_H 	H 	0.8798	0.8798	0.2737	0.091
Mof_C 	C 	0.135	0.635	0.8016	0.026
Mof_H 	H 	0.1202	0.6202	0.7737	0.073
Mof_C 	C 	0.135	0.865	0.6984	0.024
Mof_H 	H 	0.1202	0.8798	0.7263	0.08
_end
