# CIF file generated by openbabel 3.1.0, see https://openbabel.org
data_I
_chemical_name_common 'QUQHAM_clean'
_cell_length_a 5.8595
_cell_length_b 11.5382
_cell_length_c 11.5382
_cell_angle_alpha 94.1091
_cell_angle_beta 101.721
_cell_angle_gamma 78.2792
_space_group_name_H-M_alt 'P 1'
_space_group_name_Hall 'P 1'
loop_
    _symmetry_equiv_pos_as_xyz
    x,y,z
loop_
    _atom_site_label
    _atom_site_type_symbol
    _atom_site_fract_x
    _atom_site_fract_y
    _atom_site_fract_z
    _atom_site_occupancy
    Cu1      Cu       0.85151    0.26013    0.99107    1.000
    Cu2      Cu       0.64849    0.99107    0.26013    1.000
    Cu3      Cu       0.14849    0.73987    0.00893    1.000
    Cu4      Cu       0.35151    0.00893    0.73987    1.000
    Cu5      Cu       0.75000    0.99122    0.99122    1.000
    Cu6      Cu       0.25000    0.00878    0.00878    1.000
    H1       H        0.92750    0.09510    0.86150    1.000
    H2       H        0.84180    0.45850    0.73670    1.000
    H3       H        0.16600    0.30520    0.75740    1.000
    H4       H        0.57250    0.86150    0.09510    1.000
    H5       H        0.65820    0.73670    0.45850    1.000
    H6       H        0.33400    0.75740    0.30520    1.000
    H7       H        0.07250    0.90490    0.13850    1.000
    H8       H        0.15820    0.54150    0.26330    1.000
    H9       H        0.83400    0.69480    0.24260    1.000
    H10      H        0.42750    0.13850    0.90490    1.000
    H11      H        0.34180    0.26330    0.54150    1.000
    H12      H        0.66600    0.24260    0.69480    1.000
    C1       C        0.78660    0.66600    0.86160    1.000
    C2       C        0.99530    0.56500    0.86280    1.000
    C3       C        0.97930    0.46430    0.79170    1.000
    C4       C        0.17260    0.37360    0.80480    1.000
    C5       C        0.38030    0.38100    0.88820    1.000
    C6       C        0.39420    0.48911    0.95593    1.000
    C7       C        0.71340    0.86160    0.66600    1.000
    C8       C        0.50470    0.86280    0.56500    1.000
    C9       C        0.52070    0.79170    0.46430    1.000
    C10      C        0.32740    0.80480    0.37360    1.000
    C11      C        0.11970    0.88820    0.38100    1.000
    C12      C        0.10580    0.95593    0.48911    1.000
    C13      C        0.21340    0.33400    0.13840    1.000
    C14      C        0.00470    0.43500    0.13720    1.000
    C15      C        0.02070    0.53570    0.20830    1.000
    C16      C        0.82740    0.62640    0.19520    1.000
    C17      C        0.61970    0.61900    0.11180    1.000
    C18      C        0.60580    0.51089    0.04407    1.000
    C19      C        0.28660    0.13840    0.33400    1.000
    C20      C        0.49530    0.13720    0.43500    1.000
    C21      C        0.47930    0.20830    0.53570    1.000
    C22      C        0.67260    0.19520    0.62640    1.000
    C23      C        0.88030    0.11180    0.61900    1.000
    C24      C        0.89420    0.04407    0.51089    1.000
    N1       N        0.19640    0.57731    0.93973    1.000
    N2       N        0.30360    0.93973    0.57731    1.000
    N3       N        0.80360    0.42269    0.06027    1.000
    N4       N        0.69640    0.06027    0.42269    1.000
    O1       O        0.93320    0.09251    0.93299    1.000
    O2       O        0.82290    0.75292    0.93330    1.000
    O3       O        0.59390    0.65902    0.79692    1.000
    O4       O        0.54700    0.28380    0.89750    1.000
    O5       O        0.56680    0.93299    0.09251    1.000
    O6       O        0.67710    0.93330    0.75292    1.000
    O7       O        0.90610    0.79692    0.65902    1.000
    O8       O        0.95300    0.89750    0.28380    1.000
    O9       O        0.06680    0.90749    0.06701    1.000
    O10      O        0.17710    0.24708    0.06670    1.000
    O11      O        0.40610    0.34098    0.20308    1.000
    O12      O        0.45300    0.71620    0.10250    1.000
    O13      O        0.43320    0.06701    0.90749    1.000
    O14      O        0.32290    0.06670    0.24708    1.000
    O15      O        0.09390    0.20308    0.34098    1.000
    O16      O        0.04700    0.10250    0.71620    1.000
