# CIF file generated by openbabel 3.1.0, see https://openbabel.org
data_I
_chemical_name_common 'image0'
_cell_length_a 22.901
_cell_length_b 22.901
_cell_length_c 22.272
_cell_angle_alpha 90
_cell_angle_beta 90
_cell_angle_gamma 120
_space_group_name_H-M_alt 'P 1'
_space_group_name_Hall 'P 1'
loop_
    _symmetry_equiv_pos_as_xyz
    x,y,z
loop_
    _atom_site_label
    _atom_site_type_symbol
    _atom_site_fract_x
    _atom_site_fract_y
    _atom_site_fract_z
    _atom_site_occupancy
    I1       I        0.76274    0.60953    0.83788    1.000
    I2       I        0.81052    0.44464    0.79101    1.000
    Cu1      Cu       0.71652    0.48121    0.80421    1.000
    Cu2      Cu       0.84155    0.57580    0.77745    1.000
    N1       N        0.65620    0.42140    0.87390    1.000
    N2       N        0.93790    0.62710    0.81160    1.000
    C1       C        0.60430    0.43710    0.88780    1.000
    H1       H        0.57400    0.42580    0.85380    1.000
    H2       H        0.62450    0.48500    0.89550    1.000
    C2       C        0.69730    0.43060    0.92680    1.000
    H3       H        0.71700    0.47660    0.94130    1.000
    H4       H        0.73340    0.42190    0.91700    1.000
    C3       C        0.62170    0.35130    0.85570    1.000
    H5       H        0.65470    0.33740    0.84800    1.000
    H6       H        0.59740    0.34630    0.81870    1.000
    C4       C        0.98580    0.61880    0.77130    1.000
    H7       H        0.98380    0.63430    0.73120    1.000
    H8       H        0.97250    0.57150    0.76890    1.000
    C5       C        0.94190    0.60120    0.87120    1.000
    H9       H        0.92290    0.55280    0.86860    1.000
    H10      H        0.91490    0.60990    0.89940    1.000
    C6       C        0.96300    0.70150    0.81810    1.000
    H11      H        0.93190    0.70820    0.84280    1.000
    H12      H        0.96520    0.72100    0.77890    1.000
    I3       I        0.39047    0.15321    0.17121    1.000
    I4       I        0.55536    0.36588    0.12434    1.000
    Cu3      Cu       0.51879    0.23531    0.13754    1.000
    Cu4      Cu       0.42420    0.26575    0.11078    1.000
    N3       N        0.57860    0.23480    0.20723    1.000
    N4       N        0.37290    0.31080    0.14493    1.000
    C7       C        0.56290    0.16720    0.22113    1.000
    H13      H        0.57420    0.14820    0.18713    1.000
    H14      H        0.51500    0.13950    0.22883    1.000
    C8       C        0.56940    0.26670    0.26013    1.000
    H15      H        0.52340    0.24040    0.27463    1.000
    H16      H        0.57810    0.31150    0.25033    1.000
    C9       C        0.64870    0.27040    0.18903    1.000
    H17      H        0.66260    0.31730    0.18133    1.000
    H18      H        0.65370    0.25110    0.15203    1.000
    C10      C        0.38120    0.36700    0.10463    1.000
    H19      H        0.36570    0.34950    0.06453    1.000
    H20      H        0.42850    0.40100    0.10223    1.000
    C11      C        0.39880    0.34070    0.20453    1.000
    H21      H        0.44720    0.37010    0.20193    1.000
    H22      H        0.39010    0.30500    0.23273    1.000
    C12      C        0.29850    0.26150    0.15143    1.000
    H23      H        0.29180    0.22370    0.17613    1.000
    H24      H        0.27900    0.24420    0.11223    1.000
    I5       I        0.84679    0.23726    0.50455    1.000
    I6       I        0.63412    0.18948    0.45768    1.000
    Cu5      Cu       0.76469    0.28348    0.47088    1.000
    Cu6      Cu       0.73425    0.15845    0.44412    1.000
    N5       N        0.76520    0.34380    0.54057    1.000
    N6       N        0.68920    0.06210    0.47827    1.000
    C13      C        0.83280    0.39570    0.55447    1.000
    H25      H        0.85180    0.42600    0.52047    1.000
    H26      H        0.86050    0.37550    0.56217    1.000
    C14      C        0.73330    0.30270    0.59347    1.000
    H27      H        0.75960    0.28300    0.60797    1.000
    H28      H        0.68850    0.26660    0.58367    1.000
    C15      C        0.72960    0.37830    0.52237    1.000
    H29      H        0.68270    0.34530    0.51467    1.000
    H30      H        0.74890    0.40260    0.48537    1.000
    C16      C        0.63300    0.01420    0.43797    1.000
    H31      H        0.65050    0.01620    0.39787    1.000
    H32      H        0.59900    0.02750    0.43557    1.000
    C17      C        0.65930    0.05810    0.53787    1.000
    H33      H        0.62990    0.07710    0.53527    1.000
    H34      H        0.69500    0.08510    0.56607    1.000
    C18      C        0.73850    0.03700    0.48477    1.000
    H35      H        0.77630    0.06810    0.50947    1.000
    H36      H        0.75580    0.03480    0.44557    1.000
    I7       I        0.23726    0.39047    0.33788    1.000
    I8       I        0.18948    0.55536    0.29101    1.000
    Cu7      Cu       0.28348    0.51879    0.30421    1.000
    Cu8      Cu       0.15845    0.42420    0.27745    1.000
    N7       N        0.34380    0.57860    0.37390    1.000
    N8       N        0.06210    0.37290    0.31160    1.000
    C19      C        0.39570    0.56290    0.38780    1.000
    H37      H        0.42600    0.57420    0.35380    1.000
    H38      H        0.37550    0.51500    0.39550    1.000
    C20      C        0.30270    0.56940    0.42680    1.000
    H39      H        0.28300    0.52340    0.44130    1.000
    H40      H        0.26660    0.57810    0.41700    1.000
    C21      C        0.37830    0.64870    0.35570    1.000
    H41      H        0.34530    0.66260    0.34800    1.000
    H42      H        0.40260    0.65370    0.31870    1.000
    C22      C        0.01420    0.38120    0.27130    1.000
    H43      H        0.01620    0.36570    0.23120    1.000
    H44      H        0.02750    0.42850    0.26890    1.000
    C23      C        0.05810    0.39880    0.37120    1.000
    H45      H        0.07710    0.44720    0.36860    1.000
    H46      H        0.08510    0.39010    0.39940    1.000
    C24      C        0.03700    0.29850    0.31810    1.000
    H47      H        0.06810    0.29180    0.34280    1.000
    H48      H        0.03480    0.27900    0.27890    1.000
    I9       I        0.60953    0.84679    0.67121    1.000
    I10      I        0.44464    0.63412    0.62434    1.000
    Cu9      Cu       0.48121    0.76469    0.63754    1.000
    Cu10     Cu       0.57580    0.73425    0.61078    1.000
    N9       N        0.42140    0.76520    0.70723    1.000
    N10      N        0.62710    0.68920    0.64493    1.000
    C25      C        0.43710    0.83280    0.72113    1.000
    H49      H        0.42580    0.85180    0.68713    1.000
    H50      H        0.48500    0.86050    0.72883    1.000
    C26      C        0.43060    0.73330    0.76013    1.000
    H51      H        0.47660    0.75960    0.77463    1.000
    H52      H        0.42190    0.68850    0.75033    1.000
    C27      C        0.35130    0.72960    0.68903    1.000
    H53      H        0.33740    0.68270    0.68133    1.000
    H54      H        0.34630    0.74890    0.65203    1.000
    C28      C        0.61880    0.63300    0.60463    1.000
    H55      H        0.63430    0.65050    0.56453    1.000
    H56      H        0.57150    0.59900    0.60223    1.000
    C29      C        0.60120    0.65930    0.70453    1.000
    H57      H        0.55280    0.62990    0.70193    1.000
    H58      H        0.60990    0.69500    0.73273    1.000
    C30      C        0.70150    0.73850    0.65143    1.000
    H59      H        0.70820    0.77630    0.67613    1.000
    H60      H        0.72100    0.75580    0.61223    1.000
    I11      I        0.15321    0.76274    0.00455    1.000
    I12      I        0.36588    0.81052    0.95768    1.000
    Cu11     Cu       0.23531    0.71652    0.97088    1.000
    Cu12     Cu       0.26575    0.84155    0.94412    1.000
    N11      N        0.23480    0.65620    0.04057    1.000
    N12      N        0.31080    0.93790    0.97827    1.000
    C31      C        0.16720    0.60430    0.05447    1.000
    H61      H        0.14820    0.57400    0.02047    1.000
    H62      H        0.13950    0.62450    0.06217    1.000
    C32      C        0.26670    0.69730    0.09347    1.000
    H63      H        0.24040    0.71700    0.10797    1.000
    H64      H        0.31150    0.73340    0.08367    1.000
    C33      C        0.27040    0.62170    0.02237    1.000
    H65      H        0.31730    0.65470    0.01467    1.000
    H66      H        0.25110    0.59740    0.98537    1.000
    C34      C        0.36700    0.98580    0.93797    1.000
    H67      H        0.34950    0.98380    0.89787    1.000
    H68      H        0.40100    0.97250    0.93557    1.000
    C35      C        0.34070    0.94190    0.03787    1.000
    H69      H        0.37010    0.92290    0.03527    1.000
    H70      H        0.30500    0.91490    0.06607    1.000
    C36      C        0.26150    0.96300    0.98477    1.000
    H71      H        0.22370    0.93190    0.00947    1.000
    H72      H        0.24420    0.96520    0.94557    1.000
    I13      I        0.60953    0.76274    0.49545    1.000
    I14      I        0.44464    0.81052    0.54232    1.000
    Cu13     Cu       0.48121    0.71652    0.52912    1.000
    Cu14     Cu       0.57580    0.84155    0.55588    1.000
    N13      N        0.42140    0.65620    0.45943    1.000
    N14      N        0.62710    0.93790    0.52173    1.000
    C37      C        0.43710    0.60430    0.44553    1.000
    H73      H        0.42580    0.57400    0.47953    1.000
    H74      H        0.48500    0.62450    0.43783    1.000
    C38      C        0.43060    0.69730    0.40653    1.000
    H75      H        0.47660    0.71700    0.39203    1.000
    H76      H        0.42190    0.73340    0.41633    1.000
    C39      C        0.35130    0.62170    0.47763    1.000
    H77      H        0.33740    0.65470    0.48533    1.000
    H78      H        0.34630    0.59740    0.51463    1.000
    C40      C        0.61880    0.98580    0.56203    1.000
    H79      H        0.63430    0.98380    0.60213    1.000
    H80      H        0.57150    0.97250    0.56443    1.000
    C41      C        0.60120    0.94190    0.46213    1.000
    H81      H        0.55280    0.92290    0.46473    1.000
    H82      H        0.60990    0.91490    0.43393    1.000
    C42      C        0.70150    0.96300    0.51523    1.000
    H83      H        0.70820    0.93190    0.49053    1.000
    H84      H        0.72100    0.96520    0.55443    1.000
    I15      I        0.15321    0.39047    0.16212    1.000
    I16      I        0.36588    0.55536    0.20899    1.000
    Cu15     Cu       0.23531    0.51879    0.19579    1.000
    Cu16     Cu       0.26575    0.42420    0.22255    1.000
    N15      N        0.23480    0.57860    0.12610    1.000
    N16      N        0.31080    0.37290    0.18840    1.000
    C43      C        0.16720    0.56290    0.11220    1.000
    H85      H        0.14820    0.57420    0.14620    1.000
    H86      H        0.13950    0.51500    0.10450    1.000
    C44      C        0.26670    0.56940    0.07320    1.000
    H87      H        0.24040    0.52340    0.05870    1.000
    H88      H        0.31150    0.57810    0.08300    1.000
    C45      C        0.27040    0.64870    0.14430    1.000
    H89      H        0.31730    0.66260    0.15200    1.000
    H90      H        0.25110    0.65370    0.18130    1.000
    C46      C        0.36700    0.38120    0.22870    1.000
    H91      H        0.34950    0.36570    0.26880    1.000
    H92      H        0.40100    0.42850    0.23110    1.000
    C47      C        0.34070    0.39880    0.12880    1.000
    H93      H        0.37010    0.44720    0.13140    1.000
    H94      H        0.30500    0.39010    0.10060    1.000
    C48      C        0.26150    0.29850    0.18190    1.000
    H95      H        0.22370    0.29180    0.15720    1.000
    H96      H        0.24420    0.27900    0.22110    1.000
    I17      I        0.23726    0.84679    0.82879    1.000
    I18      I        0.18948    0.63412    0.87566    1.000
    Cu17     Cu       0.28348    0.76469    0.86246    1.000
    Cu18     Cu       0.15845    0.73425    0.88922    1.000
    N17      N        0.34380    0.76520    0.79277    1.000
    N18      N        0.06210    0.68920    0.85507    1.000
    C49      C        0.39570    0.83280    0.77887    1.000
    H97      H        0.42600    0.85180    0.81287    1.000
    H98      H        0.37550    0.86050    0.77117    1.000
    C50      C        0.30270    0.73330    0.73987    1.000
    H99      H        0.28300    0.75960    0.72537    1.000
    H100     H        0.26660    0.68850    0.74967    1.000
    C51      C        0.37830    0.72960    0.81097    1.000
    H101     H        0.34530    0.68270    0.81867    1.000
    H102     H        0.40260    0.74890    0.84797    1.000
    C52      C        0.01420    0.63300    0.89537    1.000
    H103     H        0.01620    0.65050    0.93547    1.000
    H104     H        0.02750    0.59900    0.89777    1.000
    C53      C        0.05810    0.65930    0.79547    1.000
    H105     H        0.07710    0.62990    0.79807    1.000
    H106     H        0.08510    0.69500    0.76727    1.000
    C54      C        0.03700    0.73850    0.84857    1.000
    H107     H        0.06810    0.77630    0.82387    1.000
    H108     H        0.03480    0.75580    0.88777    1.000
    I19      I        0.39047    0.23726    0.99545    1.000
    I20      I        0.55536    0.18948    0.04232    1.000
    Cu19     Cu       0.51879    0.28348    0.02912    1.000
    Cu20     Cu       0.42420    0.15845    0.05588    1.000
    N19      N        0.57860    0.34380    0.95943    1.000
    N20      N        0.37290    0.06210    0.02173    1.000
    C55      C        0.56290    0.39570    0.94553    1.000
    H109     H        0.57420    0.42600    0.97953    1.000
    H110     H        0.51500    0.37550    0.93783    1.000
    C56      C        0.56940    0.30270    0.90653    1.000
    H111     H        0.52340    0.28300    0.89203    1.000
    H112     H        0.57810    0.26660    0.91633    1.000
    C57      C        0.64870    0.37830    0.97763    1.000
    H113     H        0.66260    0.34530    0.98533    1.000
    H114     H        0.65370    0.40260    0.01463    1.000
    C58      C        0.38120    0.01420    0.06203    1.000
    H115     H        0.36570    0.01620    0.10213    1.000
    H116     H        0.42850    0.02750    0.06443    1.000
    C59      C        0.39880    0.05810    0.96213    1.000
    H117     H        0.44720    0.07710    0.96473    1.000
    H118     H        0.39010    0.08510    0.93393    1.000
    C60      C        0.29850    0.03700    0.01523    1.000
    H119     H        0.29180    0.06810    0.99053    1.000
    H120     H        0.27900    0.03480    0.05443    1.000
    I21      I        0.84679    0.60953    0.66212    1.000
    I22      I        0.63412    0.44464    0.70899    1.000
    Cu21     Cu       0.76469    0.48121    0.69579    1.000
    Cu22     Cu       0.73425    0.57580    0.72255    1.000
    N21      N        0.76520    0.42140    0.62610    1.000
    N22      N        0.68920    0.62710    0.68840    1.000
    C61      C        0.83280    0.43710    0.61220    1.000
    H121     H        0.85180    0.42580    0.64620    1.000
    H122     H        0.86050    0.48500    0.60450    1.000
    C62      C        0.73330    0.43060    0.57320    1.000
    H123     H        0.75960    0.47660    0.55870    1.000
    H124     H        0.68850    0.42190    0.58300    1.000
    C63      C        0.72960    0.35130    0.64430    1.000
    H125     H        0.68270    0.33740    0.65200    1.000
    H126     H        0.74890    0.34630    0.68130    1.000
    C64      C        0.63300    0.61880    0.72870    1.000
    H127     H        0.65050    0.63430    0.76880    1.000
    H128     H        0.59900    0.57150    0.73110    1.000
    C65      C        0.65930    0.60120    0.62880    1.000
    H129     H        0.62990    0.55280    0.63140    1.000
    H130     H        0.69500    0.60990    0.60060    1.000
    C66      C        0.73850    0.70150    0.68190    1.000
    H131     H        0.77630    0.70820    0.65720    1.000
    H132     H        0.75580    0.72100    0.72110    1.000
    I23      I        0.76274    0.15321    0.32879    1.000
    I24      I        0.81052    0.36588    0.37566    1.000
    Cu23     Cu       0.71652    0.23531    0.36246    1.000
    Cu24     Cu       0.84155    0.26575    0.38922    1.000
    N23      N        0.65620    0.23480    0.29277    1.000
    N24      N        0.93790    0.31080    0.35507    1.000
    C67      C        0.60430    0.16720    0.27887    1.000
    H133     H        0.57400    0.14820    0.31287    1.000
    H134     H        0.62450    0.13950    0.27117    1.000
    C68      C        0.69730    0.26670    0.23987    1.000
    H135     H        0.71700    0.24040    0.22537    1.000
    H136     H        0.73340    0.31150    0.24967    1.000
    C69      C        0.62170    0.27040    0.31097    1.000
    H137     H        0.65470    0.31730    0.31867    1.000
    H138     H        0.59740    0.25110    0.34797    1.000
    C70      C        0.98580    0.36700    0.39537    1.000
    H139     H        0.98380    0.34950    0.43547    1.000
    H140     H        0.97250    0.40100    0.39777    1.000
    C71      C        0.94190    0.34070    0.29547    1.000
    H141     H        0.92290    0.37010    0.29807    1.000
    H142     H        0.91490    0.30500    0.26727    1.000
    C72      C        0.96300    0.26150    0.34857    1.000
    H143     H        0.93190    0.22370    0.32387    1.000
    H144     H        0.96520    0.24420    0.38777    1.000
    Cu25     Cu       0.13645    0.21976    0.39233    1.000
    N25      N        0.22510    0.14540    0.28290    1.000
    N26      N        0.19430    0.20400    0.34340    1.000
    C73      C        0.10650    0.12140    0.27340    1.000
    C74      C        0.06960    0.04980    0.27060    1.000
    H145     H        0.09010    0.02590    0.28400    1.000
    C75      C        0.17620    0.15700    0.29880    1.000
    C76      C        0.27860    0.18820    0.31880    1.000
    C77      C        0.25800    0.22370    0.35540    1.000
    C78      C        0.30310    0.27140    0.39560    1.000
    H146     H        0.28930    0.29510    0.42000    1.000
    C79      C        0.36880    0.28360    0.39920    1.000
    H147     H        0.39900    0.31550    0.42610    1.000
    C80      C        0.38950    0.24810    0.36260    1.000
    H148     H        0.43350    0.25620    0.36510    1.000
    C81      C        0.34440    0.20040    0.32250    1.000
    H149     H        0.35820    0.17660    0.29800    1.000
    Cu26     Cu       0.78024    0.91669    0.72566    1.000
    N27      N        0.85460    0.07970    0.61623    1.000
    N28      N        0.79600    0.99030    0.67673    1.000
    C82      C        0.87860    0.98510    0.60673    1.000
    C83      C        0.95020    0.01980    0.60393    1.000
    H150     H        0.97410    0.06420    0.61733    1.000
    C84      C        0.84300    0.01920    0.63213    1.000
    C85      C        0.81180    0.09040    0.65213    1.000
    C86      C        0.77630    0.03430    0.68873    1.000
    C87      C        0.72860    0.03170    0.72893    1.000
    H151     H        0.70490    0.99420    0.75333    1.000
    C88      C        0.71640    0.08520    0.73253    1.000
    H152     H        0.68450    0.08350    0.75943    1.000
    C89      C        0.75190    0.14140    0.69593    1.000
    H153     H        0.74380    0.17730    0.69843    1.000
    C90      C        0.79960    0.14400    0.65583    1.000
    H154     H        0.82340    0.18160    0.63133    1.000
    Cu27     Cu       0.08331    0.86355    0.05900    1.000
    N29      N        0.92030    0.77490    0.94957    1.000
    N30      N        0.00970    0.80570    0.01007    1.000
    C91      C        0.01490    0.89350    0.94007    1.000
    C92      C        0.98020    0.93040    0.93727    1.000
    H155     H        0.93580    0.90990    0.95067    1.000
    C93      C        0.98080    0.82380    0.96547    1.000
    C94      C        0.90960    0.72140    0.98547    1.000
    C95      C        0.96570    0.74200    0.02207    1.000
    C96      C        0.96830    0.69690    0.06227    1.000
    H156     H        0.00580    0.71070    0.08667    1.000
    C97      C        0.91480    0.63120    0.06587    1.000
    H157     H        0.91650    0.60100    0.09277    1.000
    C98      C        0.85860    0.61050    0.02927    1.000
    H158     H        0.82270    0.56650    0.03177    1.000
    C99      C        0.85600    0.65560    0.98917    1.000
    H159     H        0.81840    0.64180    0.96467    1.000
    Cu28     Cu       0.86355    0.78024    0.89233    1.000
    N31      N        0.77490    0.85460    0.78290    1.000
    N32      N        0.80570    0.79600    0.84340    1.000
    C100     C        0.89350    0.87860    0.77340    1.000
    C101     C        0.93040    0.95020    0.77060    1.000
    H160     H        0.90990    0.97410    0.78400    1.000
    C102     C        0.82380    0.84300    0.79880    1.000
    C103     C        0.72140    0.81180    0.81880    1.000
    C104     C        0.74200    0.77630    0.85540    1.000
    C105     C        0.69690    0.72860    0.89560    1.000
    H161     H        0.71070    0.70490    0.92000    1.000
    C106     C        0.63120    0.71640    0.89920    1.000
    H162     H        0.60100    0.68450    0.92610    1.000
    C107     C        0.61050    0.75190    0.86260    1.000
    H163     H        0.56650    0.74380    0.86510    1.000
    C108     C        0.65560    0.79960    0.82250    1.000
    H164     H        0.64180    0.82340    0.79800    1.000
    Cu29     Cu       0.21976    0.08331    0.22566    1.000
    N33      N        0.14540    0.92030    0.11623    1.000
    N34      N        0.20400    0.00970    0.17673    1.000
    C109     C        0.12140    0.01490    0.10673    1.000
    C110     C        0.04980    0.98020    0.10393    1.000
    H165     H        0.02590    0.93580    0.11733    1.000
    C111     C        0.15700    0.98080    0.13213    1.000
    C112     C        0.18820    0.90960    0.15213    1.000
    C113     C        0.22370    0.96570    0.18873    1.000
    C114     C        0.27140    0.96830    0.22893    1.000
    H166     H        0.29510    0.00580    0.25333    1.000
    C115     C        0.28360    0.91480    0.23253    1.000
    H167     H        0.31550    0.91650    0.25943    1.000
    C116     C        0.24810    0.85860    0.19593    1.000
    H168     H        0.25620    0.82270    0.19843    1.000
    C117     C        0.20040    0.85600    0.15583    1.000
    H169     H        0.17660    0.81840    0.13133    1.000
    Cu30     Cu       0.91669    0.13645    0.55900    1.000
    N35      N        0.07970    0.22510    0.44957    1.000
    N36      N        0.99030    0.19430    0.51007    1.000
    C118     C        0.98510    0.10650    0.44007    1.000
    C119     C        0.01980    0.06960    0.43727    1.000
    H170     H        0.06420    0.09010    0.45067    1.000
    C120     C        0.01920    0.17620    0.46547    1.000
    C121     C        0.09040    0.27860    0.48547    1.000
    C122     C        0.03430    0.25800    0.52207    1.000
    C123     C        0.03170    0.30310    0.56227    1.000
    H171     H        0.99420    0.28930    0.58667    1.000
    C124     C        0.08520    0.36880    0.56587    1.000
    H172     H        0.08350    0.39900    0.59277    1.000
    C125     C        0.14140    0.38950    0.52927    1.000
    H173     H        0.17730    0.43350    0.53177    1.000
    C126     C        0.14400    0.34440    0.48917    1.000
    H174     H        0.18160    0.35820    0.46467    1.000
    Cu31     Cu       0.21976    0.13645    0.94100    1.000
    N37      N        0.14540    0.22510    0.05043    1.000
    N38      N        0.20400    0.19430    0.98993    1.000
    C127     C        0.12140    0.10650    0.05993    1.000
    C128     C        0.04980    0.06960    0.06273    1.000
    H175     H        0.02590    0.09010    0.04933    1.000
    C129     C        0.15700    0.17620    0.03453    1.000
    C130     C        0.18820    0.27860    0.01453    1.000
    C131     C        0.22370    0.25800    0.97793    1.000
    C132     C        0.27140    0.30310    0.93773    1.000
    H176     H        0.29510    0.28930    0.91333    1.000
    C133     C        0.28360    0.36880    0.93413    1.000
    H177     H        0.31550    0.39900    0.90723    1.000
    C134     C        0.24810    0.38950    0.97073    1.000
    H178     H        0.25620    0.43350    0.96823    1.000
    C135     C        0.20040    0.34440    0.01083    1.000
    H179     H        0.17660    0.35820    0.03533    1.000
    Cu32     Cu       0.91669    0.78024    0.60767    1.000
    N39      N        0.07970    0.85460    0.71710    1.000
    N40      N        0.99030    0.79600    0.65660    1.000
    C136     C        0.98510    0.87860    0.72660    1.000
    C137     C        0.01980    0.95020    0.72940    1.000
    H180     H        0.06420    0.97410    0.71600    1.000
    C138     C        0.01920    0.84300    0.70120    1.000
    C139     C        0.09040    0.81180    0.68120    1.000
    C140     C        0.03430    0.77630    0.64460    1.000
    C141     C        0.03170    0.72860    0.60440    1.000
    H181     H        0.99420    0.70490    0.58000    1.000
    C142     C        0.08520    0.71640    0.60080    1.000
    H182     H        0.08350    0.68450    0.57390    1.000
    C143     C        0.14140    0.75190    0.63740    1.000
    H183     H        0.17730    0.74380    0.63490    1.000
    C144     C        0.14400    0.79960    0.67750    1.000
    H184     H        0.18160    0.82340    0.70200    1.000
    Cu33     Cu       0.86355    0.08331    0.27434    1.000
    N41      N        0.77490    0.92030    0.38377    1.000
    N42      N        0.80570    0.00970    0.32327    1.000
    C145     C        0.89350    0.01490    0.39327    1.000
    C146     C        0.93040    0.98020    0.39607    1.000
    H185     H        0.90990    0.93580    0.38267    1.000
    C147     C        0.82380    0.98080    0.36787    1.000
    C148     C        0.72140    0.90960    0.34787    1.000
    C149     C        0.74200    0.96570    0.31127    1.000
    C150     C        0.69690    0.96830    0.27107    1.000
    H186     H        0.71070    0.00580    0.24667    1.000
    C151     C        0.63120    0.91480    0.26747    1.000
    H187     H        0.60100    0.91650    0.24057    1.000
    C152     C        0.61050    0.85860    0.30407    1.000
    H188     H        0.56650    0.82270    0.30157    1.000
    C153     C        0.65560    0.85600    0.34417    1.000
    H189     H        0.64180    0.81840    0.36867    1.000
    Cu34     Cu       0.78024    0.86355    0.44100    1.000
    N43      N        0.85460    0.77490    0.55043    1.000
    N44      N        0.79600    0.80570    0.48993    1.000
    C154     C        0.87860    0.89350    0.55993    1.000
    C155     C        0.95020    0.93040    0.56273    1.000
    H190     H        0.97410    0.90990    0.54933    1.000
    C156     C        0.84300    0.82380    0.53453    1.000
    C157     C        0.81180    0.72140    0.51453    1.000
    C158     C        0.77630    0.74200    0.47793    1.000
    C159     C        0.72860    0.69690    0.43773    1.000
    H191     H        0.70490    0.71070    0.41333    1.000
    C160     C        0.71640    0.63120    0.43413    1.000
    H192     H        0.68450    0.60100    0.40723    1.000
    C161     C        0.75190    0.61050    0.47073    1.000
    H193     H        0.74380    0.56650    0.46823    1.000
    C162     C        0.79960    0.65560    0.51083    1.000
    H194     H        0.82340    0.64180    0.53533    1.000
    Cu35     Cu       0.08331    0.21976    0.10767    1.000
    N45      N        0.92030    0.14540    0.21710    1.000
    N46      N        0.00970    0.20400    0.15660    1.000
    C163     C        0.01490    0.12140    0.22660    1.000
    C164     C        0.98020    0.04980    0.22940    1.000
    H195     H        0.93580    0.02590    0.21600    1.000
    C165     C        0.98080    0.15700    0.20120    1.000
    C166     C        0.90960    0.18820    0.18120    1.000
    C167     C        0.96570    0.22370    0.14460    1.000
    C168     C        0.96830    0.27140    0.10440    1.000
    H196     H        0.00580    0.29510    0.08000    1.000
    C169     C        0.91480    0.28360    0.10080    1.000
    H197     H        0.91650    0.31550    0.07390    1.000
    C170     C        0.85860    0.24810    0.13740    1.000
    H198     H        0.82270    0.25620    0.13490    1.000
    C171     C        0.85600    0.20040    0.17750    1.000
    H199     H        0.81840    0.17660    0.20200    1.000
    Cu36     Cu       0.13645    0.91669    0.77434    1.000
    N47      N        0.22510    0.07970    0.88377    1.000
    N48      N        0.19430    0.99030    0.82327    1.000
    C172     C        0.10650    0.98510    0.89327    1.000
    C173     C        0.06960    0.01980    0.89607    1.000
    H200     H        0.09010    0.06420    0.88267    1.000
    C174     C        0.17620    0.01920    0.86787    1.000
    C175     C        0.27860    0.09040    0.84787    1.000
    C176     C        0.25800    0.03430    0.81127    1.000
    C177     C        0.30310    0.03170    0.77107    1.000
    H201     H        0.28930    0.99420    0.74667    1.000
    C178     C        0.36880    0.08520    0.76747    1.000
    H202     H        0.39900    0.08350    0.74057    1.000
    C179     C        0.38950    0.14140    0.80407    1.000
    H203     H        0.43350    0.17730    0.80157    1.000
    C180     C        0.34440    0.14400    0.84417    1.000
    H204     H        0.35820    0.18160    0.86867    1.000
    C181     C        0.07685    0.15370    0.25000    1.000
    H205     H        0.10030    0.20060    0.25000    1.000
    C182     C        0.00810    0.01620    0.25000    1.000
    H206     H        0.98465    0.96930    0.25000    1.000
    C183     C        0.84630    0.92315    0.58333    1.000
    H207     H        0.79940    0.89970    0.58333    1.000
    C184     C        0.98380    0.99190    0.58333    1.000
    H208     H        0.03070    0.01535    0.58333    1.000
    C185     C        0.07685    0.92315    0.91667    1.000
    H209     H        0.10030    0.89970    0.91667    1.000
    C186     C        0.00810    0.99190    0.91667    1.000
    H210     H        0.98465    0.01535    0.91667    1.000
    C187     C        0.92315    0.84630    0.75000    1.000
    H211     H        0.89970    0.79940    0.75000    1.000
    C188     C        0.99190    0.98380    0.75000    1.000
    H212     H        0.01535    0.03070    0.75000    1.000
    C189     C        0.15370    0.07685    0.08333    1.000
    H213     H        0.20060    0.10030    0.08333    1.000
    C190     C        0.01620    0.00810    0.08333    1.000
    H214     H        0.96930    0.98465    0.08333    1.000
    C191     C        0.92315    0.07685    0.41667    1.000
    H215     H        0.89970    0.10030    0.41667    1.000
    C192     C        0.99190    0.00810    0.41667    1.000
    H216     H        0.01535    0.98465    0.41667    1.000
