data_functionalizedCrystal
_audit_creation_method	'EQeq! by Chris Wilmer'
_symmetry_space_group_name_H-M	'P1'
_symmetry_Int_Tables_number	1
_symmetry_cell_setting	triclinic
loop_
_symmetry_equiv_pos_as_xyz
  x,y,z
_cell_length_a	13.736
_cell_length_b	13.736
_cell_length_c	14.0301
_cell_angle_alpha	108.112
_cell_angle_beta	113.534
_cell_angle_gamma	105.94
loop_
_atom_site_label
_atom_site_type_symbol
_atom_site_fract_x
_atom_site_fract_y
_atom_site_fract_z
_atom_site_charge
Mof_Li	Li	0.3372	0.652	0.5774	4.826
Mof_Li	Li	0.1802	0.748	0.3228	6.163
Mof_Li	Li	0.9252	0.8574	0.1772	5.788
Mof_Li	Li	0.0748	0.1426	0.8228	5.788
Mof_Li	Li	0.4254	0.2402	0.0774	4.847
Mof_Li	Li	0.8198	0.252	0.6772	6.164
Mof_Li	Li	0.6628	0.348	0.4226	4.827
Mof_Li	Li	0.5746	0.7598	0.9226	4.847
Mof_Zr	Zr	0.6256	0.752	0.3736	3.197
Mof_Zr	Zr	0.1216	0.748	0.8736	3.195
Mof_Zr	Zr	0.3744	0.248	0.6264	3.197
Mof_Zr	Zr	0.8784	0.252	0.1264	3.195
Mof_C 	C 	0.86	0.2796	0.9102	0.432
Mof_C 	C 	0.8451	0.0098	0.0837	0.572
Mof_C 	C 	0.0449	0.7634	0.0527	0.638
Mof_C 	C 	0.6795	0.261	0.1707	0.511
Mof_C 	C 	0.5903	0.5088	0.3293	0.509
Mof_C 	C 	0.9599	0.4867	0.7184	0.611
Mof_C 	C 	0.4877	0.2442	0.4761	0.335
Mof_C 	C 	0.5123	0.7558	0.5239	0.335
Mof_C 	C 	0.7893	0.0078	0.5527	0.681
Mof_C 	C 	0.7785	0.282	0.2899	0.386
Mof_C 	C 	0.2107	0.9922	0.4473	0.681
Mof_C 	C 	0.4097	0.4912	0.6707	0.509
Mof_C 	C 	0.1306	0.0502	0.4102	0.344
Mof_C 	C 	0.8776	0.5387	0.6675	0.371
Mof_C 	C 	0.4921	0.4886	0.2101	0.388
Mof_C 	C 	0.3712	0.2101	0.8325	0.386
Mof_C 	C 	0.1549	0.9902	0.9163	0.572
Mof_C 	C 	0.2683	0.2415	0.7816	0.565
Mof_C 	C 	0.3205	0.739	0.8293	0.511
Mof_C 	C 	0.2215	0.718	0.7101	0.386
Mof_C 	C 	0.5739	0.2386	0.5837	0.593
Mof_C 	C 	0.7317	0.7585	0.2184	0.565
Mof_C 	C 	0.0401	0.5133	0.2816	0.611
Mof_C 	C 	0.2681	0.0116	0.0239	0.312
Mof_C 	C 	0.6288	0.7899	0.1675	0.386
Mof_C 	C 	0.9551	0.2366	0.9473	0.638
Mof_C 	C 	0.8694	0.9498	0.5898	0.344
Mof_C 	C 	0.5079	0.5114	0.7899	0.388
Mof_C 	C 	0.1224	0.4613	0.3325	0.371
Mof_C 	C 	0.4261	0.7614	0.4163	0.593
Mof_C 	C 	0.14	0.7204	0.0898	0.432
Mof_C 	C 	0.7319	0.9884	0.9761	0.312
Mof_O 	O 	0.3441	0.3836	0.5913	-0.732
Mof_O 	O 	0.9312	0.651	0.7228	-0.636
Mof_O 	O 	0.3884	0.2332	0.4708	-0.678
Mof_O 	O 	0.1373	0.073	0.9137	-1.698
Mof_O 	O 	0.4255	0.3916	0.1227	-1.306
Mof_O 	O 	0.2	0.2403	0.8183	-1.671
Mof_O 	O 	0.5846	0.2579	0.1587	-1.449
Mof_O 	O 	0.922	0.3817	0.6817	-1.745
Mof_O 	O 	0.0688	0.349	0.2772	-0.636
Mof_O 	O 	0.7727	0.4779	0.5844	-1.275
Mof_O 	O 	0.6869	0.9371	0.4556	-0.861
Mof_O 	O 	0.4884	0.5833	0.2143	-0.677
Mof_O 	O 	0.5992	0.4259	0.3413	-1.443
Mof_O 	O 	0.8627	0.927	0.0863	-1.698
Mof_O 	O 	0.7077	0.2472	0.0913	-0.741
Mof_O 	O 	0.5132	0.2565	0.4041	-1.295
Mof_O 	O 	0.0681	0.5642	0.8009	-0.802
Mof_O 	O 	0.131	0.7259	0.7143	-0.679
Mof_O 	O 	0.4868	0.7435	0.5959	-1.295
Mof_O 	O 	0.5718	0.7916	0.2228	-0.641
Mof_O 	O 	0.078	0.6183	0.3183	-1.745
Mof_O 	O 	0.5116	0.4167	0.7857	-0.677
Mof_O 	O 	0.3407	0.7764	0.4137	-1.769
Mof_O 	O 	0.1734	0.8881	0.3869	-1.863
Mof_O 	O 	0.6116	0.7668	0.5292	-0.678
Mof_O 	O 	0.6559	0.6164	0.4087	-0.732
Mof_O 	O 	0.4554	0.7506	0.3378	-0.776
Mof_O 	O 	0.0872	0.8824	0.8378	-0.771
Mof_O 	O 	0.9815	0.2313	0.0444	-0.862
Mof_O 	O 	0.3131	0.0629	0.5444	-0.861
Mof_O 	O 	0.8132	0.8382	0.5272	-0.625
Mof_O 	O 	0.2624	0.9176	0.0292	-0.642
Mof_O 	O 	0.3935	0.1883	0.9156	-1.276
Mof_O 	O 	0.4154	0.7421	0.8413	-1.449
Mof_O 	O 	0.6065	0.8117	0.0844	-1.276
Mof_O 	O 	0.7367	0.7328	0.3009	-0.778
Mof_O 	O 	0.0243	0.9938	0.3299	-1.421
Mof_O 	O 	0.2633	0.2672	0.6991	-0.778
Mof_O 	O 	0.8	0.7597	0.1817	-1.671
Mof_O 	O 	0.8266	0.1119	0.6131	-1.863
Mof_O 	O 	0.9757	0.0062	0.6701	-1.421
Mof_O 	O 	0.2311	0.6972	0.6227	-1.307
Mof_O 	O 	0.9128	0.1176	0.1622	-0.771
Mof_O 	O 	0.2273	0.5221	0.4156	-1.275
Mof_O 	O 	0.0012	0.7865	0.1131	-1.765
Mof_O 	O 	0.7376	0.0824	0.9708	-0.642
Mof_O 	O 	0.0185	0.7687	0.9556	-0.862
Mof_O 	O 	0.2923	0.7528	0.9087	-0.741
Mof_O 	O 	0.7689	0.3028	0.3773	-1.307
Mof_O 	O 	0.4008	0.5741	0.6587	-1.443
Mof_O 	O 	0.3524	0.1091	0.0959	-1.292
Mof_O 	O 	0.869	0.2741	0.2857	-0.679
Mof_O 	O 	0.1639	0.6944	0.1701	-1.546
Mof_O 	O 	0.5446	0.2494	0.6622	-0.776
Mof_O 	O 	0.6476	0.8909	0.9041	-1.292
Mof_O 	O 	0.5745	0.6084	0.8773	-1.306
Mof_O 	O 	0.8361	0.3056	0.8299	-1.546
Mof_O 	O 	0.1868	0.1618	0.4728	-0.625
Mof_O 	O 	0.189	0.714	0.0272	-0.629
Mof_O 	O 	0.9319	0.4358	0.1991	-0.802
Mof_O 	O 	0.4282	0.2084	0.7772	-0.641
Mof_O 	O 	0.811	0.286	0.9728	-0.629
Mof_O 	O 	0.6593	0.2236	0.5863	-1.769
Mof_O 	O 	0.9988	0.2135	0.8869	-1.765
_end
