# CIF file generated by openbabel 3.1.0, see https://openbabel.org
data_I
_chemical_name_common 'JIYXUL_clean'
_cell_length_a 12.5898
_cell_length_b 14.9339
_cell_length_c 19.739
_cell_angle_alpha 111.35
_cell_angle_beta 101.661
_cell_angle_gamma 93.977
_space_group_name_H-M_alt 'P 1'
_space_group_name_Hall 'P 1'
loop_
    _symmetry_equiv_pos_as_xyz
    x,y,z
loop_
    _atom_site_label
    _atom_site_type_symbol
    _atom_site_fract_x
    _atom_site_fract_y
    _atom_site_fract_z
    _atom_site_occupancy
    Na1      Na       0.89430    0.41030    0.42140    1.000
    Na2      Na       0.02190    0.02680    0.42640    1.000
    Na3      Na       0.62130    0.10840    0.38720    1.000
    Na4      Na       0.83050    0.42550    0.13640    1.000
    Na5      Na       0.35690    0.46180    0.95280    1.000
    Na6      Na       0.05710    0.14530    0.75820    1.000
    Na7      Na       0.10570    0.58970    0.57860    1.000
    Na8      Na       0.97810    0.97320    0.57360    1.000
    Na9      Na       0.37870    0.89160    0.61280    1.000
    Na10     Na       0.16950    0.57450    0.86360    1.000
    Na11     Na       0.64310    0.53820    0.04720    1.000
    Na12     Na       0.94290    0.85470    0.24180    1.000
    Na13     Na       0.50000    0.00000    0.50000    1.000
    Fe1      Fe       0.34663    0.35335    0.48166    1.000
    Fe2      Fe       0.79497    0.31641    0.56353    1.000
    Fe3      Fe       0.65337    0.64665    0.51834    1.000
    Fe4      Fe       0.20503    0.68359    0.43647    1.000
    Sb1      Sb       0.40051    0.49158    0.35593    1.000
    Sb2      Sb       0.59949    0.50842    0.64407    1.000
    W1       W        0.60529    0.37471    0.41946    1.000
    W2       W        0.45745    0.22825    0.24635    1.000
    W3       W        0.64618    0.41071    0.26783    1.000
    W4       W        0.59635    0.66472    0.34157    1.000
    W5       W        0.45035    0.52270    0.17065    1.000
    W6       W        0.33286    0.68093    0.29261    1.000
    W7       W        0.12020    0.47793    0.26567    1.000
    W8       W        0.23922    0.31884    0.14597    1.000
    W9       W        0.19416    0.28243    0.29355    1.000
    W10      W        0.39471    0.62529    0.58054    1.000
    W11      W        0.54255    0.77175    0.75365    1.000
    W12      W        0.35382    0.58929    0.73217    1.000
    W13      W        0.40365    0.33528    0.65843    1.000
    W14      W        0.54965    0.47730    0.82935    1.000
    W15      W        0.66714    0.31907    0.70739    1.000
    W16      W        0.87980    0.52207    0.73433    1.000
    W17      W        0.76078    0.68116    0.85403    1.000
    W18      W        0.80584    0.71757    0.70645    1.000
    C1       C        0.15370    0.23430    0.47750    1.000
    C2       C        0.23050    0.16380    0.44240    1.000
    C3       C        0.91780    0.18140    0.60260    1.000
    C4       C        0.85220    0.12570    0.52070    1.000
    C5       C        0.84630    0.76570    0.52250    1.000
    C6       C        0.76950    0.83620    0.55760    1.000
    C7       C        0.08220    0.81860    0.39740    1.000
    C8       C        0.14780    0.87430    0.47930    1.000
    O1       O        0.70010    0.33300    0.47670    1.000
    O2       O        0.48090    0.35910    0.44740    1.000
    O3       O        0.63890    0.50420    0.46630    1.000
    O4       O        0.70440    0.38400    0.35220    1.000
    O5       O        0.55260    0.23980    0.33540    1.000
    O6       O        0.50230    0.39640    0.32210    1.000
    O7       O        0.32900    0.22950    0.28360    1.000
    O8       O        0.57720    0.27580    0.21500    1.000
    O9       O        0.36890    0.27280    0.17270    1.000
    O10      O        0.75670    0.40210    0.22840    1.000
    O11      O        0.66390    0.54620    0.32290    1.000
    O12      O        0.53710    0.43420    0.19340    1.000
    O13      O        0.42820    0.34310    0.57360    1.000
    O14      O        0.48410    0.74540    0.33080    1.000
    O15      O        0.57470    0.62220    0.23210    1.000
    O16      O        0.43350    0.56170    0.29170    1.000
    O17      O        0.46700    0.51320    0.08340    1.000
    O18      O        0.32280    0.42920    0.14140    1.000
    O19      O        0.36380    0.62630    0.19190    1.000
    O20      O        0.67670    0.30360    0.61210    1.000
    O21      O        0.20830    0.57930    0.25270    1.000
    O22      O        0.98950    0.50470    0.24370    1.000
    O23      O        0.83310    0.45200    0.63210    1.000
    O24      O        0.12280    0.39630    0.16290    1.000
    O25      O        0.08120    0.36090    0.28230    1.000
    O26      O        0.27410    0.40770    0.27260    1.000
    O27      O        0.16860    0.23650    0.18360    1.000
    O28      O        0.25950    0.35970    0.38940    1.000
    O29      O        0.31840    0.20410    0.43700    1.000
    O30      O        0.19680    0.32460    0.50420    1.000
    O31      O        0.90180    0.26910    0.63110    1.000
    O32      O        0.78110    0.17230    0.49660    1.000
    O33      O        0.92920    0.33780    0.51820    1.000
    O34      O        0.86860    0.04370    0.48520    1.000
    O35      O        0.20070    0.07540    0.42140    1.000
    O36      O        0.06160    0.20250    0.47820    1.000
    O37      O        0.97790    0.13880    0.63330    1.000
    O38      O        0.91180    0.54190    0.54020    1.000
    O39      O        0.62420    0.95560    0.41660    1.000
    O40      O        0.66670    0.37710    0.03830    1.000
    O41      O        0.75890    0.57910    0.16940    1.000
    O42      O        0.52590    0.15230    0.48590    1.000
    O43      O        0.96510    0.02820    0.30350    1.000
    O44      O        0.29990    0.66700    0.52330    1.000
    O45      O        0.51910    0.64090    0.55260    1.000
    O46      O        0.36110    0.49580    0.53370    1.000
    O47      O        0.29560    0.61600    0.64780    1.000
    O48      O        0.44740    0.76020    0.66460    1.000
    O49      O        0.49770    0.60360    0.67790    1.000
    O50      O        0.67100    0.77050    0.71640    1.000
    O51      O        0.42280    0.72420    0.78500    1.000
    O52      O        0.63110    0.72720    0.82730    1.000
    O53      O        0.24330    0.59790    0.77160    1.000
    O54      O        0.33610    0.45380    0.67710    1.000
    O55      O        0.46290    0.56580    0.80660    1.000
    O56      O        0.57180    0.65690    0.42640    1.000
    O57      O        0.51590    0.25460    0.66920    1.000
    O58      O        0.42530    0.37780    0.76790    1.000
    O59      O        0.56650    0.43830    0.70830    1.000
    O60      O        0.53300    0.48680    0.91660    1.000
    O61      O        0.67720    0.57080    0.85860    1.000
    O62      O        0.63620    0.37370    0.80810    1.000
    O63      O        0.32330    0.69640    0.38790    1.000
    O64      O        0.79170    0.42070    0.74730    1.000
    O65      O        0.01050    0.49530    0.75630    1.000
    O66      O        0.16690    0.54800    0.36790    1.000
    O67      O        0.87720    0.60370    0.83710    1.000
    O68      O        0.91880    0.63910    0.71770    1.000
    O69      O        0.72590    0.59230    0.72740    1.000
    O70      O        0.83140    0.76350    0.81640    1.000
    O71      O        0.74050    0.64030    0.61060    1.000
    O72      O        0.68160    0.79590    0.56300    1.000
    O73      O        0.80320    0.67540    0.49580    1.000
    O74      O        0.09820    0.73090    0.36890    1.000
    O75      O        0.21890    0.82770    0.50340    1.000
    O76      O        0.07080    0.66220    0.48180    1.000
    O77      O        0.13140    0.95630    0.51480    1.000
    O78      O        0.79930    0.92460    0.57860    1.000
    O79      O        0.93840    0.79750    0.52180    1.000
    O80      O        0.02210    0.86120    0.36670    1.000
    O81      O        0.08820    0.45810    0.45980    1.000
    O82      O        0.37580    0.04440    0.58340    1.000
    O83      O        0.33330    0.62290    0.96170    1.000
    O84      O        0.24110    0.42090    0.83060    1.000
    O85      O        0.47410    0.84770    0.51410    1.000
    O86      O        0.03490    0.97180    0.69650    1.000
