# CIF file generated by openbabel 3.1.0, see https://openbabel.org
data_I
_chemical_name_common 'image0'
_cell_length_a 15.3979
_cell_length_b 11.5941
_cell_length_c 12.5879
_cell_angle_alpha 90
_cell_angle_beta 93.862
_cell_angle_gamma 90
_space_group_name_H-M_alt 'P 1'
_space_group_name_Hall 'P 1'
loop_
    _symmetry_equiv_pos_as_xyz
    x,y,z
loop_
    _atom_site_label
    _atom_site_type_symbol
    _atom_site_fract_x
    _atom_site_fract_y
    _atom_site_fract_z
    _atom_site_occupancy
    Cd1      Cd       0.10975    0.39774    0.03623    1.000
    S1       S        0.14295    0.22092    0.16692    1.000
    Cl1      Cl       0.15480    0.55733    0.17138    1.000
    Cl2      Cl       0.04705    0.26417    0.88531    1.000
    Cl3      Cl       0.05136    0.57822    0.89636    1.000
    N1       N        0.25970    0.10860    0.04080    1.000
    C1       C        0.21260    0.15730    0.09220    1.000
    Cd2      Cd       0.60976    0.89774    0.03623    1.000
    S2       S        0.64295    0.72092    0.16692    1.000
    Cl4      Cl       0.65480    0.05733    0.17138    1.000
    Cl5      Cl       0.54705    0.76417    0.88531    1.000
    Cl6      Cl       0.55136    0.07822    0.89636    1.000
    N2       N        0.75970    0.60860    0.04080    1.000
    C2       C        0.71260    0.65730    0.09220    1.000
    Cd3      Cd       0.89024    0.39774    0.46377    1.000
    S3       S        0.85705    0.22092    0.33308    1.000
    Cl7      Cl       0.84520    0.55733    0.32862    1.000
    Cl8      Cl       0.95295    0.26417    0.61469    1.000
    Cl9      Cl       0.94864    0.57822    0.60364    1.000
    N3       N        0.74030    0.10860    0.45920    1.000
    C3       C        0.78740    0.15730    0.40780    1.000
    Cd4      Cd       0.39025    0.89774    0.46377    1.000
    S4       S        0.35705    0.72092    0.33308    1.000
    Cl10     Cl       0.34520    0.05733    0.32862    1.000
    Cl11     Cl       0.45295    0.76417    0.61469    1.000
    Cl12     Cl       0.44864    0.07822    0.60364    1.000
    N4       N        0.24030    0.60860    0.45920    1.000
    C4       C        0.28740    0.65730    0.40780    1.000
    Cd5      Cd       0.89024    0.60226    0.96377    1.000
    S5       S        0.85705    0.77908    0.83308    1.000
    Cl13     Cl       0.84520    0.44267    0.82862    1.000
    Cl14     Cl       0.95295    0.73583    0.11469    1.000
    Cl15     Cl       0.94864    0.42178    0.10364    1.000
    N5       N        0.74030    0.89140    0.95920    1.000
    C5       C        0.78740    0.84270    0.90780    1.000
    Cd6      Cd       0.39025    0.10226    0.96377    1.000
    S6       S        0.35705    0.27908    0.83308    1.000
    Cl16     Cl       0.34520    0.94267    0.82862    1.000
    Cl17     Cl       0.45295    0.23583    0.11469    1.000
    Cl18     Cl       0.44864    0.92178    0.10364    1.000
    N6       N        0.24030    0.39140    0.95920    1.000
    C6       C        0.28740    0.34270    0.90780    1.000
    Cd7      Cd       0.10975    0.60226    0.53623    1.000
    S7       S        0.14295    0.77908    0.66692    1.000
    Cl19     Cl       0.15480    0.44267    0.67138    1.000
    Cl20     Cl       0.04705    0.73583    0.38531    1.000
    Cl21     Cl       0.05136    0.42178    0.39636    1.000
    N7       N        0.25970    0.89140    0.54080    1.000
    C7       C        0.21260    0.84270    0.59220    1.000
    Cd8      Cd       0.60976    0.10226    0.53623    1.000
    S8       S        0.64295    0.27908    0.66692    1.000
    Cl22     Cl       0.65480    0.94267    0.67138    1.000
    Cl23     Cl       0.54705    0.23583    0.38531    1.000
    Cl24     Cl       0.55136    0.92178    0.39636    1.000
    N8       N        0.75970    0.39140    0.54080    1.000
    C8       C        0.71260    0.34270    0.59220    1.000
    Cd9      Cd       0.00000    0.57600    0.25000    1.000
    Cd10     Cd       0.50000    0.07600    0.25000    1.000
    Cd11     Cd       0.00000    0.42400    0.75000    1.000
    Cd12     Cd       0.50000    0.92400    0.75000    1.000
