# CIF file generated by openbabel 3.1.0, see https://openbabel.org
data_I
_chemical_name_common 'image0'
_cell_length_a 7.8046
_cell_length_b 21.3806
_cell_length_c 19.8173
_cell_angle_alpha 90
_cell_angle_beta 98.582
_cell_angle_gamma 90
_space_group_name_H-M_alt 'P 1'
_space_group_name_Hall 'P 1'
loop_
    _symmetry_equiv_pos_as_xyz
    x,y,z
loop_
    _atom_site_label
    _atom_site_type_symbol
    _atom_site_fract_x
    _atom_site_fract_y
    _atom_site_fract_z
    _atom_site_occupancy
    La1      La       0.98845    0.22323    0.25543    1.000
    O1       O        0.12770    0.11590    0.23480    1.000
    H1       H        0.20540    0.10050    0.26480    1.000
    H2       H        0.07100    0.11620    0.19470    1.000
    O2       O        0.82470    0.17280    0.14660    1.000
    O3       O        0.69850    0.25990    0.17330    1.000
    C1       C        0.71530    0.21490    0.13140    1.000
    C2       C        0.60230    0.21540    0.06360    1.000
    C3       C        0.55410    0.15870    0.03220    1.000
    C4       C        0.54910    0.27100    0.03250    1.000
    O4       O        0.31320    0.21040    0.32410    1.000
    O5       O        0.09600    0.18080    0.37540    1.000
    C5       C        0.25680    0.18950    0.37670    1.000
    C6       C        0.38070    0.17760    0.44060    1.000
    C7       C        0.32120    0.17310    0.50390    1.000
    C8       C        0.55610    0.17640    0.43760    1.000
    H3       H        0.59340    0.17790    0.39520    1.000
    O6       O        0.22890    0.33320    0.28610    1.000
    O7       O        0.97900    0.33870    0.21720    1.000
    C9       C        0.10690    0.36520    0.25090    1.000
    C10      C        0.11970    0.43460    0.25070    1.000
    C11      C        0.23720    0.46640    0.29830    1.000
    C12      C        0.00450    0.46790    0.20190    1.000
    N1       N        0.15000    0.16140    0.51090    1.000
    N2       N        0.35400    0.44140    0.35170    1.000
    N3       N        0.63600    0.10030    0.05250    1.000
    N4       N        0.87900    0.43900    0.15900    1.000
    N5       N        0.60200    0.32600    0.05700    1.000
    La2      La       0.48845    0.72323    0.25543    1.000
    O8       O        0.62770    0.61590    0.23480    1.000
    H4       H        0.70540    0.60050    0.26480    1.000
    H5       H        0.57100    0.61620    0.19470    1.000
    O9       O        0.32470    0.67280    0.14660    1.000
    O10      O        0.19850    0.75990    0.17330    1.000
    C13      C        0.21530    0.71490    0.13140    1.000
    C14      C        0.10230    0.71540    0.06360    1.000
    C15      C        0.05410    0.65870    0.03220    1.000
    C16      C        0.04910    0.77100    0.03250    1.000
    O11      O        0.81320    0.71040    0.32410    1.000
    O12      O        0.59600    0.68080    0.37540    1.000
    C17      C        0.75680    0.68950    0.37670    1.000
    C18      C        0.88070    0.67760    0.44060    1.000
    C19      C        0.82120    0.67310    0.50390    1.000
    C20      C        0.05610    0.67640    0.43760    1.000
    H6       H        0.09340    0.67790    0.39520    1.000
    O13      O        0.72890    0.83320    0.28610    1.000
    O14      O        0.47900    0.83870    0.21720    1.000
    C21      C        0.60690    0.86520    0.25090    1.000
    C22      C        0.61970    0.93460    0.25070    1.000
    C23      C        0.73720    0.96640    0.29830    1.000
    C24      C        0.50450    0.96790    0.20190    1.000
    N6       N        0.65000    0.66140    0.51090    1.000
    N7       N        0.85400    0.94140    0.35170    1.000
    N8       N        0.13600    0.60030    0.05250    1.000
    N9       N        0.37900    0.93900    0.15900    1.000
    N10      N        0.10200    0.82600    0.05700    1.000
    La3      La       0.01155    0.22323    0.74457    1.000
    O15      O        0.87230    0.11590    0.76520    1.000
    H7       H        0.79460    0.10050    0.73520    1.000
    H8       H        0.92900    0.11620    0.80530    1.000
    O16      O        0.17530    0.17280    0.85340    1.000
    O17      O        0.30150    0.25990    0.82670    1.000
    C25      C        0.28470    0.21490    0.86860    1.000
    C26      C        0.39770    0.21540    0.93640    1.000
    C27      C        0.44590    0.15870    0.96780    1.000
    C28      C        0.45090    0.27100    0.96750    1.000
    O18      O        0.68680    0.21040    0.67590    1.000
    O19      O        0.90400    0.18080    0.62460    1.000
    C29      C        0.74320    0.18950    0.62330    1.000
    C30      C        0.61930    0.17760    0.55940    1.000
    C31      C        0.67880    0.17310    0.49610    1.000
    C32      C        0.44390    0.17640    0.56240    1.000
    H9       H        0.40660    0.17790    0.60480    1.000
    O20      O        0.77110    0.33320    0.71390    1.000
    O21      O        0.02100    0.33870    0.78280    1.000
    C33      C        0.89310    0.36520    0.74910    1.000
    C34      C        0.88030    0.43460    0.74930    1.000
    C35      C        0.76280    0.46640    0.70170    1.000
    C36      C        0.99550    0.46790    0.79810    1.000
    N11      N        0.85000    0.16140    0.48910    1.000
    N12      N        0.64600    0.44140    0.64830    1.000
    N13      N        0.36400    0.10030    0.94750    1.000
    N14      N        0.12100    0.43900    0.84100    1.000
    N15      N        0.39800    0.32600    0.94300    1.000
    La4      La       0.51155    0.72323    0.74457    1.000
    O22      O        0.37230    0.61590    0.76520    1.000
    H10      H        0.29460    0.60050    0.73520    1.000
    H11      H        0.42900    0.61620    0.80530    1.000
    O23      O        0.67530    0.67280    0.85340    1.000
    O24      O        0.80150    0.75990    0.82670    1.000
    C37      C        0.78470    0.71490    0.86860    1.000
    C38      C        0.89770    0.71540    0.93640    1.000
    C39      C        0.94590    0.65870    0.96780    1.000
    C40      C        0.95090    0.77100    0.96750    1.000
    O25      O        0.18680    0.71040    0.67590    1.000
    O26      O        0.40400    0.68080    0.62460    1.000
    C41      C        0.24320    0.68950    0.62330    1.000
    C42      C        0.11930    0.67760    0.55940    1.000
    C43      C        0.17880    0.67310    0.49610    1.000
    C44      C        0.94390    0.67640    0.56240    1.000
    H12      H        0.90660    0.67790    0.60480    1.000
    O27      O        0.27110    0.83320    0.71390    1.000
    O28      O        0.52100    0.83870    0.78280    1.000
    C45      C        0.39310    0.86520    0.74910    1.000
    C46      C        0.38030    0.93460    0.74930    1.000
    C47      C        0.26280    0.96640    0.70170    1.000
    C48      C        0.49550    0.96790    0.79810    1.000
    N16      N        0.35000    0.66140    0.48910    1.000
    N17      N        0.14600    0.94140    0.64830    1.000
    N18      N        0.86400    0.60030    0.94750    1.000
    N19      N        0.62100    0.93900    0.84100    1.000
    N20      N        0.89800    0.82600    0.94300    1.000
    La5      La       0.01155    0.77677    0.74457    1.000
    O29      O        0.87230    0.88410    0.76520    1.000
    H13      H        0.79460    0.89950    0.73520    1.000
    H14      H        0.92900    0.88380    0.80530    1.000
    O30      O        0.17530    0.82720    0.85340    1.000
    O31      O        0.30150    0.74010    0.82670    1.000
    C49      C        0.28470    0.78510    0.86860    1.000
    C50      C        0.39770    0.78460    0.93640    1.000
    C51      C        0.44590    0.84130    0.96780    1.000
    C52      C        0.45090    0.72900    0.96750    1.000
    O32      O        0.68680    0.78960    0.67590    1.000
    O33      O        0.90400    0.81920    0.62460    1.000
    C53      C        0.74320    0.81050    0.62330    1.000
    C54      C        0.61930    0.82240    0.55940    1.000
    C55      C        0.67880    0.82690    0.49610    1.000
    C56      C        0.44390    0.82360    0.56240    1.000
    H15      H        0.40660    0.82210    0.60480    1.000
    O34      O        0.77110    0.66680    0.71390    1.000
    O35      O        0.02100    0.66130    0.78280    1.000
    C57      C        0.89310    0.63480    0.74910    1.000
    C58      C        0.88030    0.56540    0.74930    1.000
    C59      C        0.76280    0.53360    0.70170    1.000
    C60      C        0.99550    0.53210    0.79810    1.000
    N21      N        0.85000    0.83860    0.48910    1.000
    N22      N        0.64600    0.55860    0.64830    1.000
    N23      N        0.36400    0.89970    0.94750    1.000
    N24      N        0.12100    0.56100    0.84100    1.000
    N25      N        0.39800    0.67400    0.94300    1.000
    La6      La       0.51155    0.27677    0.74457    1.000
    O36      O        0.37230    0.38410    0.76520    1.000
    H16      H        0.29460    0.39950    0.73520    1.000
    H17      H        0.42900    0.38380    0.80530    1.000
    O37      O        0.67530    0.32720    0.85340    1.000
    O38      O        0.80150    0.24010    0.82670    1.000
    C61      C        0.78470    0.28510    0.86860    1.000
    C62      C        0.89770    0.28460    0.93640    1.000
    C63      C        0.94590    0.34130    0.96780    1.000
    C64      C        0.95090    0.22900    0.96750    1.000
    O39      O        0.18680    0.28960    0.67590    1.000
    O40      O        0.40400    0.31920    0.62460    1.000
    C65      C        0.24320    0.31050    0.62330    1.000
    C66      C        0.11930    0.32240    0.55940    1.000
    C67      C        0.17880    0.32690    0.49610    1.000
    C68      C        0.94390    0.32360    0.56240    1.000
    H18      H        0.90660    0.32210    0.60480    1.000
    O41      O        0.27110    0.16680    0.71390    1.000
    O42      O        0.52100    0.16130    0.78280    1.000
    C69      C        0.39310    0.13480    0.74910    1.000
    C70      C        0.38030    0.06540    0.74930    1.000
    C71      C        0.26280    0.03360    0.70170    1.000
    C72      C        0.49550    0.03210    0.79810    1.000
    N26      N        0.35000    0.33860    0.48910    1.000
    N27      N        0.14600    0.05860    0.64830    1.000
    N28      N        0.86400    0.39970    0.94750    1.000
    N29      N        0.62100    0.06100    0.84100    1.000
    N30      N        0.89800    0.17400    0.94300    1.000
    La7      La       0.98845    0.77677    0.25543    1.000
    O43      O        0.12770    0.88410    0.23480    1.000
    H19      H        0.20540    0.89950    0.26480    1.000
    H20      H        0.07100    0.88380    0.19470    1.000
    O44      O        0.82470    0.82720    0.14660    1.000
    O45      O        0.69850    0.74010    0.17330    1.000
    C73      C        0.71530    0.78510    0.13140    1.000
    C74      C        0.60230    0.78460    0.06360    1.000
    C75      C        0.55410    0.84130    0.03220    1.000
    C76      C        0.54910    0.72900    0.03250    1.000
    O46      O        0.31320    0.78960    0.32410    1.000
    O47      O        0.09600    0.81920    0.37540    1.000
    C77      C        0.25680    0.81050    0.37670    1.000
    C78      C        0.38070    0.82240    0.44060    1.000
    C79      C        0.32120    0.82690    0.50390    1.000
    C80      C        0.55610    0.82360    0.43760    1.000
    H21      H        0.59340    0.82210    0.39520    1.000
    O48      O        0.22890    0.66680    0.28610    1.000
    O49      O        0.97900    0.66130    0.21720    1.000
    C81      C        0.10690    0.63480    0.25090    1.000
    C82      C        0.11970    0.56540    0.25070    1.000
    C83      C        0.23720    0.53360    0.29830    1.000
    C84      C        0.00450    0.53210    0.20190    1.000
    N31      N        0.15000    0.83860    0.51090    1.000
    N32      N        0.35400    0.55860    0.35170    1.000
    N33      N        0.63600    0.89970    0.05250    1.000
    N34      N        0.87900    0.56100    0.15900    1.000
    N35      N        0.60200    0.67400    0.05700    1.000
    La8      La       0.48845    0.27677    0.25543    1.000
    O50      O        0.62770    0.38410    0.23480    1.000
    H22      H        0.70540    0.39950    0.26480    1.000
    H23      H        0.57100    0.38380    0.19470    1.000
    O51      O        0.32470    0.32720    0.14660    1.000
    O52      O        0.19850    0.24010    0.17330    1.000
    C85      C        0.21530    0.28510    0.13140    1.000
    C86      C        0.10230    0.28460    0.06360    1.000
    C87      C        0.05410    0.34130    0.03220    1.000
    C88      C        0.04910    0.22900    0.03250    1.000
    O53      O        0.81320    0.28960    0.32410    1.000
    O54      O        0.59600    0.31920    0.37540    1.000
    C89      C        0.75680    0.31050    0.37670    1.000
    C90      C        0.88070    0.32240    0.44060    1.000
    C91      C        0.82120    0.32690    0.50390    1.000
    C92      C        0.05610    0.32360    0.43760    1.000
    H24      H        0.09340    0.32210    0.39520    1.000
    O55      O        0.72890    0.16680    0.28610    1.000
    O56      O        0.47900    0.16130    0.21720    1.000
    C93      C        0.60690    0.13480    0.25090    1.000
    C94      C        0.61970    0.06540    0.25070    1.000
    C95      C        0.73720    0.03360    0.29830    1.000
    C96      C        0.50450    0.03210    0.20190    1.000
    N36      N        0.65000    0.33860    0.51090    1.000
    N37      N        0.85400    0.05860    0.35170    1.000
    N38      N        0.13600    0.39970    0.05250    1.000
    N39      N        0.37900    0.06100    0.15900    1.000
    N40      N        0.10200    0.17400    0.05700    1.000
