data_functionalizedCrystal
_audit_creation_method	'EQeq! by Chris Wilmer'
_symmetry_space_group_name_H-M	'P1'
_symmetry_Int_Tables_number	1
_symmetry_cell_setting	triclinic
loop_
_symmetry_equiv_pos_as_xyz
  x,y,z
_cell_length_a	18.7269
_cell_length_b	18.7269
_cell_length_c	18.7269
_cell_angle_alpha	60
_cell_angle_beta	60
_cell_angle_gamma	60
loop_
_atom_site_label
_atom_site_type_symbol
_atom_site_fract_x
_atom_site_fract_y
_atom_site_fract_z
_atom_site_charge
Mof_Ca	Ca	0.5	0.5	0.5	1.614
Mof_Ca	Ca	1.22405e-17	-2.44809e-17	0.5	0.989
Mof_Ca	Ca	4.89618e-17	0.5	-0	0.99
Mof_Ca	Ca	6.12023e-17	0.5	0.5	1.3
Mof_Ca	Ca	0.5	0.5	-0	1.308
Mof_Ca	Ca	-0	0	-0	0.681
Mof_Ca	Ca	0.5	-2.44809e-17	0.5	1.308
Mof_Ca	Ca	0.5	0	-0	0.998
Mof_Er	Er	0.75	0.25	0.25	2.053
Mof_Er	Er	0.75	0.25	0.75	2.065
Mof_Er	Er	0.75	0.75	0.25	2.065
Mof_Er	Er	0.25	0.25	0.25	2.039
Mof_Er	Er	0.25	0.75	0.75	2.064
Mof_Er	Er	0.25	0.75	0.25	2.051
Mof_Er	Er	0.25	0.25	0.75	2.051
Mof_Er	Er	0.75	0.75	0.75	2.076
Mof_H 	H 	0.5166	0.4154	0.3448	0.1
Mof_H 	H 	0.5763	0.4737	0.2949	0.097
Mof_H 	H 	0.9154	0.0166	0.7232	0.091
Mof_H 	H 	0.9737	0.0763	0.6551	0.13
Mof_H 	H 	0.8448	0.7232	0.0166	0.066
Mof_H 	H 	0.7949	0.6551	0.0763	0.067
Mof_H 	H 	0.2232	0.3448	0.4154	0.1
Mof_H 	H 	0.1551	0.2949	0.4737	0.081
Mof_H 	H 	0.5166	0.3448	0.7232	0.107
Mof_H 	H 	0.5763	0.2949	0.6551	0.098
Mof_H 	H 	0.9154	0.7232	0.3448	0.154
Mof_H 	H 	0.9737	0.6551	0.2949	0.167
Mof_H 	H 	0.8448	0.0166	0.4154	0.06
Mof_H 	H 	0.7949	0.0763	0.4737	0.066
Mof_H 	H 	0.2232	0.4154	0.0166	0.035
Mof_H 	H 	0.1551	0.4737	0.0763	0.042
Mof_H 	H 	0.5166	0.7232	0.4154	0.108
Mof_H 	H 	0.5763	0.6551	0.4737	0.103
Mof_H 	H 	0.9154	0.3448	0.0166	0.083
Mof_H 	H 	0.9737	0.2949	0.0763	0.124
Mof_H 	H 	0.8448	0.4154	0.7232	0.13
Mof_H 	H 	0.7949	0.4737	0.6551	0.109
Mof_H 	H 	0.2232	0.0166	0.3448	0.033
Mof_H 	H 	0.1551	0.0763	0.2949	0.036
Mof_H 	H 	0.5846	0.4834	0.1552	0.085
Mof_H 	H 	0.5263	0.4237	0.2051	0.101
Mof_H 	H 	0.9834	0.0846	0.7768	0.133
Mof_H 	H 	0.9237	0.0263	0.8449	0.113
Mof_H 	H 	0.2768	0.1552	0.4834	0.078
Mof_H 	H 	0.3449	0.2051	0.4237	0.099
Mof_H 	H 	0.6552	0.7768	0.0846	0.065
Mof_H 	H 	0.7051	0.8449	0.0263	0.069
Mof_H 	H 	0.6552	0.4834	0.7768	0.107
Mof_H 	H 	0.7051	0.4237	0.8449	0.127
Mof_H 	H 	0.2768	0.0846	0.1552	0.033
Mof_H 	H 	0.3449	0.0263	0.2051	0.037
Mof_H 	H 	0.9834	0.1552	0.0846	0.112
Mof_H 	H 	0.9237	0.2051	0.0263	0.092
Mof_H 	H 	0.5846	0.7768	0.4834	0.105
Mof_H 	H 	0.5263	0.8449	0.4237	0.122
Mof_H 	H 	0.2768	0.4834	0.0846	0.053
Mof_H 	H 	0.3449	0.4237	0.0263	0.037
Mof_H 	H 	0.6552	0.0846	0.4834	0.062
Mof_H 	H 	0.7051	0.0263	0.4237	0.046
Mof_H 	H 	0.5846	0.1552	0.7768	0.088
Mof_H 	H 	0.5263	0.2051	0.8449	0.123
Mof_H 	H 	0.9834	0.7768	0.1552	0.157
Mof_H 	H 	0.9237	0.8449	0.2051	0.172
Mof_H 	H 	0.4834	0.5846	0.6552	0.104
Mof_H 	H 	0.4237	0.5263	0.7051	0.106
Mof_H 	H 	0.0846	0.9834	0.2768	0.122
Mof_H 	H 	0.0263	0.9237	0.3449	0.088
Mof_H 	H 	0.1552	0.2768	0.9834	0.148
Mof_H 	H 	0.2051	0.3449	0.9237	0.15
Mof_H 	H 	0.7768	0.6552	0.5846	0.106
Mof_H 	H 	0.8449	0.7051	0.5263	0.128
Mof_H 	H 	0.4834	0.6552	0.2768	0.098
Mof_H 	H 	0.4237	0.7051	0.3449	0.104
Mof_H 	H 	0.0846	0.2768	0.6552	0.053
Mof_H 	H 	0.0263	0.3449	0.7051	0.043
Mof_H 	H 	0.1552	0.9834	0.5846	0.153
Mof_H 	H 	0.2051	0.9237	0.5263	0.151
Mof_H 	H 	0.7768	0.5846	0.9834	0.171
Mof_H 	H 	0.8449	0.5263	0.9237	0.17
Mof_H 	H 	0.4834	0.2768	0.5846	0.097
Mof_H 	H 	0.4237	0.3449	0.5263	0.099
Mof_H 	H 	0.0846	0.6552	0.9834	0.129
Mof_H 	H 	0.0263	0.7051	0.9237	0.094
Mof_H 	H 	0.1552	0.5846	0.2768	0.077
Mof_H 	H 	0.2051	0.5263	0.3449	0.099
Mof_H 	H 	0.7768	0.9834	0.6552	0.172
Mof_H 	H 	0.8449	0.9237	0.7051	0.173
Mof_H 	H 	0.4154	0.5166	0.8448	0.123
Mof_H 	H 	0.4737	0.5763	0.7949	0.108
Mof_H 	H 	0.0166	0.9154	0.2232	0.081
Mof_H 	H 	0.0763	0.9737	0.1551	0.112
Mof_H 	H 	0.7232	0.8448	0.5166	0.129
Mof_H 	H 	0.6551	0.7949	0.5763	0.109
Mof_H 	H 	0.3448	0.2232	0.9154	0.147
Mof_H 	H 	0.2949	0.1551	0.9737	0.15
Mof_H 	H 	0.3448	0.5166	0.2232	0.1
Mof_H 	H 	0.2949	0.5763	0.1551	0.082
Mof_H 	H 	0.7232	0.9154	0.8448	0.171
Mof_H 	H 	0.6551	0.9737	0.7949	0.173
Mof_H 	H 	0.0166	0.8448	0.9154	0.103
Mof_H 	H 	0.0763	0.7949	0.9737	0.131
Mof_H 	H 	0.4154	0.2232	0.5166	0.101
Mof_H 	H 	0.4737	0.1551	0.5763	0.087
Mof_H 	H 	0.7232	0.5166	0.9154	0.153
Mof_H 	H 	0.6551	0.5763	0.9737	0.17
Mof_H 	H 	0.3448	0.9154	0.5166	0.147
Mof_H 	H 	0.2949	0.9737	0.5763	0.165
Mof_H 	H 	0.4154	0.8448	0.2232	0.124
Mof_H 	H 	0.4737	0.7949	0.1551	0.093
Mof_H 	H 	0.0166	0.2232	0.8448	0.056
Mof_H 	H 	0.0763	0.1551	0.7949	0.049
Mof_C 	C 	0.5767	0.41414	0.31806	-0.238
Mof_C 	C 	0.6212	0.35952	0.38508	0.475
Mof_C 	C 	0.91414	0.0767	0.6911	-0.233
Mof_C 	C 	0.85952	0.1212	0.6342	0.451
Mof_C 	C 	0.81806	0.6911	0.0767	-0.179
Mof_C 	C 	0.88508	0.6342	0.1212	0.423
Mof_C 	C 	0.1911	0.31806	0.41414	-0.229
Mof_C 	C 	0.1342	0.38508	0.35952	0.459
Mof_C 	C 	0.5767	0.31806	0.6911	-0.242
Mof_C 	C 	0.6212	0.38508	0.6342	0.478
Mof_C 	C 	0.91414	0.6911	0.31806	-0.289
Mof_C 	C 	0.85952	0.6342	0.38508	0.491
Mof_C 	C 	0.81806	0.0767	0.41414	-0.175
Mof_C 	C 	0.88508	0.1212	0.35952	0.419
Mof_C 	C 	0.1911	0.41414	0.0767	-0.172
Mof_C 	C 	0.1342	0.35952	0.1212	0.417
Mof_C 	C 	0.5767	0.6911	0.41414	-0.246
Mof_C 	C 	0.6212	0.6342	0.35952	0.48
Mof_C 	C 	0.91414	0.31806	0.0767	-0.224
Mof_C 	C 	0.85952	0.38508	0.1212	0.446
Mof_C 	C 	0.81806	0.41414	0.6911	-0.239
Mof_C 	C 	0.88508	0.35952	0.6342	0.465
Mof_C 	C 	0.1911	0.0767	0.31806	-0.167
Mof_C 	C 	0.1342	0.1212	0.38508	0.415
Mof_C 	C 	0.58586	0.4233	0.18194	-0.235
Mof_C 	C 	0.64048	0.3788	0.11492	0.461
Mof_C 	C 	0.9233	0.08586	0.8089	-0.222
Mof_C 	C 	0.8788	0.14048	0.8658	0.436
Mof_C 	C 	0.3089	0.18194	0.4233	-0.23
Mof_C 	C 	0.3658	0.11492	0.3788	0.458
Mof_C 	C 	0.68194	0.8089	0.08586	-0.179
Mof_C 	C 	0.61492	0.8658	0.14048	0.423
Mof_C 	C 	0.68194	0.4233	0.8089	-0.239
Mof_C 	C 	0.61492	0.3788	0.8658	0.464
Mof_C 	C 	0.3089	0.08586	0.18194	-0.166
Mof_C 	C 	0.3658	0.14048	0.11492	0.416
Mof_C 	C 	0.9233	0.18194	0.08586	-0.22
Mof_C 	C 	0.8788	0.11492	0.14048	0.434
Mof_C 	C 	0.58586	0.8089	0.4233	-0.236
Mof_C 	C 	0.64048	0.8658	0.3788	0.463
Mof_C 	C 	0.3089	0.4233	0.08586	-0.176
Mof_C 	C 	0.3658	0.3788	0.14048	0.431
Mof_C 	C 	0.68194	0.08586	0.4233	-0.186
Mof_C 	C 	0.61492	0.14048	0.3788	0.437
Mof_C 	C 	0.58586	0.18194	0.8089	-0.228
Mof_C 	C 	0.64048	0.11492	0.8658	0.448
Mof_C 	C 	0.9233	0.8089	0.18194	-0.274
Mof_C 	C 	0.8788	0.8658	0.11492	0.462
Mof_C 	C 	0.4233	0.58586	0.68194	-0.246
Mof_C 	C 	0.3788	0.64048	0.61492	0.479
Mof_C 	C 	0.08586	0.9233	0.3089	-0.221
Mof_C 	C 	0.14048	0.8788	0.3658	0.446
Mof_C 	C 	0.18194	0.3089	0.9233	-0.276
Mof_C 	C 	0.11492	0.3658	0.8788	0.473
Mof_C 	C 	0.8089	0.68194	0.58586	-0.239
Mof_C 	C 	0.8658	0.61492	0.64048	0.465
Mof_C 	C 	0.4233	0.68194	0.3089	-0.242
Mof_C 	C 	0.3788	0.61492	0.3658	0.476
Mof_C 	C 	0.08586	0.3089	0.68194	-0.178
Mof_C 	C 	0.14048	0.3658	0.61492	0.433
Mof_C 	C 	0.18194	0.9233	0.58586	-0.28
Mof_C 	C 	0.11492	0.8788	0.64048	0.476
Mof_C 	C 	0.8089	0.58586	0.9233	-0.28
Mof_C 	C 	0.8658	0.64048	0.8788	0.476
Mof_C 	C 	0.4233	0.3089	0.58586	-0.238
Mof_C 	C 	0.3788	0.3658	0.64048	0.474
Mof_C 	C 	0.08586	0.68194	0.9233	-0.229
Mof_C 	C 	0.14048	0.61492	0.8788	0.451
Mof_C 	C 	0.18194	0.58586	0.3089	-0.229
Mof_C 	C 	0.11492	0.64048	0.3658	0.459
Mof_C 	C 	0.8089	0.9233	0.68194	-0.281
Mof_C 	C 	0.8658	0.8788	0.61492	0.477
Mof_C 	C 	0.41414	0.5767	0.81806	-0.235
Mof_C 	C 	0.35952	0.6212	0.88508	0.464
Mof_C 	C 	0.0767	0.91414	0.1911	-0.218
Mof_C 	C 	0.1212	0.85952	0.1342	0.432
Mof_C 	C 	0.6911	0.81806	0.5767	-0.239
Mof_C 	C 	0.6342	0.88508	0.6212	0.466
Mof_C 	C 	0.31806	0.1911	0.91414	-0.276
Mof_C 	C 	0.38508	0.1342	0.85952	0.473
Mof_C 	C 	0.31806	0.5767	0.1911	-0.229
Mof_C 	C 	0.38508	0.6212	0.1342	0.46
Mof_C 	C 	0.6911	0.91414	0.81806	-0.281
Mof_C 	C 	0.6342	0.85952	0.88508	0.477
Mof_C 	C 	0.0767	0.81806	0.91414	-0.218
Mof_C 	C 	0.1212	0.88508	0.85952	0.433
Mof_C 	C 	0.41414	0.1911	0.5767	-0.234
Mof_C 	C 	0.35952	0.1342	0.6212	0.462
Mof_C 	C 	0.6911	0.5767	0.91414	-0.291
Mof_C 	C 	0.6342	0.6212	0.85952	0.493
Mof_C 	C 	0.31806	0.91414	0.5767	-0.284
Mof_C 	C 	0.38508	0.85952	0.6212	0.489
Mof_C 	C 	0.41414	0.81806	0.1911	-0.227
Mof_C 	C 	0.35952	0.88508	0.1342	0.448
Mof_C 	C 	0.0767	0.1911	0.81806	-0.164
Mof_C 	C 	0.1212	0.1342	0.88508	0.404
Mof_O 	O 	0.68759	0.29479	0.37181	-0.459
Mof_O 	O 	0.59022	0.3806	0.4508	-0.467
Mof_O 	O 	0.79479	0.18759	0.64581	-0.456
Mof_O 	O 	0.8806	0.09022	0.57838	-0.389
Mof_O 	O 	0.87181	0.64581	0.18759	-0.428
Mof_O 	O 	0.9508	0.57838	0.09022	-0.342
Mof_O 	O 	0.14581	0.37181	0.29479	-0.481
Mof_O 	O 	0.07838	0.4508	0.3806	-0.482
Mof_O 	O 	0.68759	0.37181	0.64581	-0.46
Mof_O 	O 	0.59022	0.4508	0.57838	-0.466
Mof_O 	O 	0.79479	0.64581	0.37181	-0.46
Mof_O 	O 	0.8806	0.57838	0.4508	-0.395
Mof_O 	O 	0.87181	0.18759	0.29479	-0.427
Mof_O 	O 	0.9508	0.09022	0.3806	-0.342
Mof_O 	O 	0.14581	0.29479	0.18759	-0.477
Mof_O 	O 	0.07838	0.3806	0.09022	-0.479
Mof_O 	O 	0.68759	0.64581	0.29479	-0.461
Mof_O 	O 	0.59022	0.57838	0.3806	-0.468
Mof_O 	O 	0.79479	0.37181	0.18759	-0.454
Mof_O 	O 	0.8806	0.4508	0.09022	-0.389
Mof_O 	O 	0.87181	0.29479	0.64581	-0.433
Mof_O 	O 	0.9508	0.3806	0.57838	-0.348
Mof_O 	O 	0.14581	0.18759	0.37181	-0.476
Mof_O 	O 	0.07838	0.09022	0.4508	-0.477
Mof_O 	O 	0.70521	0.31241	0.12819	-0.482
Mof_O 	O 	0.6194	0.40978	0.0492	-0.495
Mof_O 	O 	0.81241	0.20521	0.85419	-0.42
Mof_O 	O 	0.90978	0.1194	0.92162	-0.257
Mof_O 	O 	0.35419	0.12819	0.31241	-0.483
Mof_O 	O 	0.42162	0.0492	0.40978	-0.497
Mof_O 	O 	0.62819	0.85419	0.20521	-0.427
Mof_O 	O 	0.5492	0.92162	0.1194	-0.344
Mof_O 	O 	0.62819	0.31241	0.85419	-0.436
Mof_O 	O 	0.5492	0.40978	0.92162	-0.367
Mof_O 	O 	0.35419	0.20521	0.12819	-0.473
Mof_O 	O 	0.42162	0.1194	0.0492	-0.476
Mof_O 	O 	0.81241	0.12819	0.20521	-0.467
Mof_O 	O 	0.90978	0.0492	0.1194	-0.385
Mof_O 	O 	0.70521	0.85419	0.31241	-0.434
Mof_O 	O 	0.6194	0.92162	0.40978	-0.365
Mof_O 	O 	0.35419	0.31241	0.20521	-0.457
Mof_O 	O 	0.42162	0.40978	0.1194	-0.45
Mof_O 	O 	0.62819	0.20521	0.31241	-0.46
Mof_O 	O 	0.5492	0.1194	0.40978	-0.451
Mof_O 	O 	0.70521	0.12819	0.85419	-0.45
Mof_O 	O 	0.6194	0.0492	0.92162	-0.387
Mof_O 	O 	0.81241	0.85419	0.12819	-0.444
Mof_O 	O 	0.90978	0.92162	0.0492	-0.302
Mof_O 	O 	0.31241	0.70521	0.62819	-0.465
Mof_O 	O 	0.40978	0.6194	0.5492	-0.468
Mof_O 	O 	0.20521	0.81241	0.35419	-0.447
Mof_O 	O 	0.1194	0.90978	0.42162	-0.359
Mof_O 	O 	0.12819	0.35419	0.81241	-0.473
Mof_O 	O 	0.0492	0.42162	0.90978	-0.406
Mof_O 	O 	0.85419	0.62819	0.70521	-0.432
Mof_O 	O 	0.92162	0.5492	0.6194	-0.362
Mof_O 	O 	0.31241	0.62819	0.35419	-0.465
Mof_O 	O 	0.40978	0.5492	0.42162	-0.47
Mof_O 	O 	0.20521	0.35419	0.62819	-0.455
Mof_O 	O 	0.1194	0.42162	0.5492	-0.448
Mof_O 	O 	0.12819	0.81241	0.70521	-0.473
Mof_O 	O 	0.0492	0.90978	0.6194	-0.405
Mof_O 	O 	0.85419	0.70521	0.81241	-0.426
Mof_O 	O 	0.92162	0.6194	0.90978	-0.279
Mof_O 	O 	0.31241	0.35419	0.70521	-0.462
Mof_O 	O 	0.40978	0.42162	0.6194	-0.467
Mof_O 	O 	0.20521	0.62819	0.81241	-0.45
Mof_O 	O 	0.1194	0.5492	0.90978	-0.36
Mof_O 	O 	0.12819	0.70521	0.35419	-0.479
Mof_O 	O 	0.0492	0.6194	0.42162	-0.493
Mof_O 	O 	0.85419	0.81241	0.62819	-0.427
Mof_O 	O 	0.92162	0.90978	0.5492	-0.28
Mof_O 	O 	0.29479	0.68759	0.87181	-0.429
Mof_O 	O 	0.3806	0.59022	0.9508	-0.349
Mof_O 	O 	0.18759	0.79479	0.14581	-0.471
Mof_O 	O 	0.09022	0.8806	0.07838	-0.403
Mof_O 	O 	0.64581	0.87181	0.68759	-0.43
Mof_O 	O 	0.57838	0.9508	0.59022	-0.349
Mof_O 	O 	0.37181	0.14581	0.79479	-0.475
Mof_O 	O 	0.4508	0.07838	0.8806	-0.406
Mof_O 	O 	0.37181	0.68759	0.14581	-0.475
Mof_O 	O 	0.4508	0.59022	0.07838	-0.477
Mof_O 	O 	0.64581	0.79479	0.87181	-0.43
Mof_O 	O 	0.57838	0.8806	0.9508	-0.283
Mof_O 	O 	0.18759	0.87181	0.79479	-0.423
Mof_O 	O 	0.09022	0.9508	0.8806	-0.274
Mof_O 	O 	0.29479	0.14581	0.68759	-0.477
Mof_O 	O 	0.3806	0.07838	0.59022	-0.479
Mof_O 	O 	0.64581	0.68759	0.79479	-0.457
Mof_O 	O 	0.57838	0.59022	0.8806	-0.395
Mof_O 	O 	0.37181	0.79479	0.68759	-0.455
Mof_O 	O 	0.4508	0.8806	0.59022	-0.394
Mof_O 	O 	0.29479	0.87181	0.14581	-0.449
Mof_O 	O 	0.3806	0.9508	0.07838	-0.361
Mof_O 	O 	0.18759	0.14581	0.87181	-0.444
Mof_O 	O 	0.09022	0.07838	0.9508	-0.356
Mof_O 	O 	0.62036	0.37964	0.25	-0.236
Mof_O 	O 	0.87964	0.12036	0.75	-0.231
Mof_O 	O 	0.75	0.75	0.12036	-0.258
Mof_O 	O 	0.25	0.25	0.37964	-0.241
Mof_O 	O 	0.62036	0.25	0.75	-0.233
Mof_O 	O 	0.87964	0.75	0.25	-0.204
Mof_O 	O 	0.75	0.12036	0.37964	-0.26
Mof_O 	O 	0.25	0.37964	0.12036	-0.269
Mof_O 	O 	0.62036	0.75	0.37964	-0.228
Mof_O 	O 	0.87964	0.25	0.12036	-0.239
Mof_O 	O 	0.75	0.37964	0.75	-0.225
Mof_O 	O 	0.25	0.12036	0.25	-0.275
Mof_O 	O 	0.37964	0.62036	0.75	-0.228
Mof_O 	O 	0.12036	0.87964	0.25	-0.24
Mof_O 	O 	0.25	0.25	0.87964	-0.211
Mof_O 	O 	0.75	0.75	0.62036	-0.226
Mof_O 	O 	0.37964	0.75	0.25	-0.232
Mof_O 	O 	0.12036	0.25	0.75	-0.267
Mof_O 	O 	0.25	0.87964	0.62036	-0.207
Mof_O 	O 	0.75	0.62036	0.87964	-0.2
Mof_O 	O 	0.37964	0.25	0.62036	-0.235
Mof_O 	O 	0.12036	0.75	0.87964	-0.232
Mof_O 	O 	0.25	0.62036	0.25	-0.241
Mof_O 	O 	0.75	0.87964	0.75	-0.198
_end
