data_functionalizedCrystal
_audit_creation_method	'EQeq! by Chris Wilmer'
_symmetry_space_group_name_H-M	'P1'
_symmetry_Int_Tables_number	1
_symmetry_cell_setting	triclinic
loop_
_symmetry_equiv_pos_as_xyz
  x,y,z
_cell_length_a	22.8823
_cell_length_b	18.4474
_cell_length_c	9.6823
_cell_angle_alpha	90
_cell_angle_beta	95.477
_cell_angle_gamma	90
loop_
_atom_site_label
_atom_site_type_symbol
_atom_site_fract_x
_atom_site_fract_y
_atom_site_fract_z
_atom_site_charge
Mof_Zn	Zn	0.08458	0.03345	0.01854	1.219
Mof_O 	O 	0.04195	0.0429	0.18154	-0.466
Mof_O 	O 	0.96696	0.94331	0.14327	-0.446
Mof_O 	O 	0.1351	0.11851	0.05198	-0.438
Mof_O 	O 	0.18616	0.07622	0.8861	-0.31
Mof_O 	O 	0.27764	0.06813	0.13	-0.248
Mof_O 	O 	0.35022	0.09485	0.0014	-0.236
Mof_C 	C 	0.19009	0.25528	0.9704	0.001
Mof_C 	C 	0.21521	0.18758	0.9927	-0.054
Mof_C 	C 	0.27596	0.18255	0.0245	-0.046
Mof_C 	C 	0.17675	0.121	0.9743	0.333
Mof_C 	C 	0.30501	0.11027	0.0504	0.292
Mof_C 	C 	0.1499	0.91346	0.8997	0.08
Mof_C 	C 	0.16711	0.84381	0.8786	-0.112
Mof_C 	C 	0.15465	0.78921	0.9696	0.047
Mof_C 	C 	0.12601	0.80993	0.083	-0.108
Mof_C 	C 	0.10988	0.88137	0.0986	0.067
Mof_C 	C 	0.17034	0.7125	0.9478	0.068
Mof_C 	C 	0.2056	0.69134	0.8478	-0.13
Mof_C 	C 	0.21811	0.61923	0.8275	0.113
Mof_C 	C 	0.165	0.587	0.0011	0.114
Mof_C 	C 	0.1504	0.65789	0.0271	-0.131
Mof_N 	N 	0.12038	0.93288	0.0075	-0.263
Mof_N 	N 	0.19759	0.56777	0.9027	-0.215
Mof_H 	H 	0.1453	0.2582	0.9469	0.046
Mof_H 	H 	0.1597	0.95	0.8356	0.001
Mof_H 	H 	0.188	0.8326	0.7999	0.087
Mof_H 	H 	0.1172	0.7744	0.1501	0.068
Mof_H 	H 	0.09	0.8949	0.1792	0.003
Mof_H 	H 	0.2223	0.7279	0.7906	0.082
Mof_H 	H 	0.2427	0.6062	0.7549	0.026
Mof_H 	H 	0.1518	0.5486	0.0616	0.024
Mof_H 	H 	0.1277	0.6696	0.1048	0.078
Mof_H 	H 	0.2057	0.5199	0.8878	0.168
Mof_Zn	Zn	0.58458	0.53345	0.01854	1.222
Mof_O 	O 	0.54195	0.5429	0.18154	-0.461
Mof_O 	O 	0.46696	0.44331	0.14327	-0.471
Mof_O 	O 	0.6351	0.61851	0.05198	-0.432
Mof_O 	O 	0.68616	0.57622	0.8861	-0.311
Mof_O 	O 	0.77764	0.56813	0.13	-0.246
Mof_O 	O 	0.85022	0.59485	0.0014	-0.23
Mof_C 	C 	0.69009	0.75528	0.9704	0.002
Mof_C 	C 	0.71521	0.68758	0.9927	-0.057
Mof_C 	C 	0.77596	0.68255	0.0245	-0.041
Mof_C 	C 	0.67675	0.621	0.9743	0.33
Mof_C 	C 	0.80501	0.61027	0.0504	0.29
Mof_C 	C 	0.6499	0.41346	0.8997	0.083
Mof_C 	C 	0.66711	0.34381	0.8786	-0.113
Mof_C 	C 	0.65465	0.28921	0.9696	0.05
Mof_C 	C 	0.62601	0.30993	0.083	-0.109
Mof_C 	C 	0.60988	0.38137	0.0986	0.071
Mof_C 	C 	0.67034	0.2125	0.9478	0.07
Mof_C 	C 	0.7056	0.19134	0.8478	-0.13
Mof_C 	C 	0.71811	0.11923	0.8275	0.114
Mof_C 	C 	0.665	0.087	0.0011	0.116
Mof_C 	C 	0.6504	0.15789	0.0271	-0.13
Mof_N 	N 	0.62038	0.43288	0.0075	-0.263
Mof_N 	N 	0.69759	0.06777	0.9027	-0.215
Mof_H 	H 	0.6453	0.7582	0.9469	0.047
Mof_H 	H 	0.6597	0.45	0.8356	0.001
Mof_H 	H 	0.688	0.3326	0.7999	0.088
Mof_H 	H 	0.6172	0.2744	0.1501	0.071
Mof_H 	H 	0.59	0.3949	0.1792	0.005
Mof_H 	H 	0.7223	0.2279	0.7906	0.082
Mof_H 	H 	0.7427	0.1062	0.7549	0.026
Mof_H 	H 	0.6518	0.0486	0.0616	0.026
Mof_H 	H 	0.6277	0.1696	0.1048	0.081
Mof_H 	H 	0.7057	0.0199	0.8878	0.169
Mof_Zn	Zn	0.91542	0.03345	0.48146	1.223
Mof_O 	O 	0.95805	0.0429	0.31846	-0.438
Mof_O 	O 	0.03304	0.94331	0.35673	-0.475
Mof_O 	O 	0.8649	0.11851	0.44802	-0.431
Mof_O 	O 	0.81384	0.07622	0.6139	-0.31
Mof_O 	O 	0.72236	0.06813	0.37	-0.247
Mof_O 	O 	0.64978	0.09485	0.4986	-0.236
Mof_C 	C 	0.80991	0.25528	0.5296	-0.001
Mof_C 	C 	0.78479	0.18758	0.5073	-0.053
Mof_C 	C 	0.72404	0.18255	0.4755	-0.045
Mof_C 	C 	0.82325	0.121	0.5257	0.33
Mof_C 	C 	0.69499	0.11027	0.4496	0.292
Mof_C 	C 	0.8501	0.91346	0.6003	0.084
Mof_C 	C 	0.83289	0.84381	0.6214	-0.113
Mof_C 	C 	0.84535	0.78921	0.5304	0.052
Mof_C 	C 	0.87399	0.80993	0.417	-0.108
Mof_C 	C 	0.89012	0.88137	0.4014	0.074
Mof_C 	C 	0.82966	0.7125	0.5522	0.071
Mof_C 	C 	0.7944	0.69134	0.6522	-0.129
Mof_C 	C 	0.78189	0.61923	0.6725	0.115
Mof_C 	C 	0.835	0.587	0.4989	0.118
Mof_C 	C 	0.8496	0.65789	0.4729	-0.129
Mof_N 	N 	0.87962	0.93288	0.4925	-0.262
Mof_N 	N 	0.80241	0.56777	0.5973	-0.215
Mof_H 	H 	0.8547	0.2582	0.5531	0.051
Mof_H 	H 	0.8403	0.95	0.6644	0
Mof_H 	H 	0.812	0.8326	0.7001	0.088
Mof_H 	H 	0.8828	0.7744	0.3499	0.074
Mof_H 	H 	0.91	0.8949	0.3208	0.008
Mof_H 	H 	0.7777	0.7279	0.7094	0.082
Mof_H 	H 	0.7573	0.6062	0.7451	0.026
Mof_H 	H 	0.8482	0.5486	0.4384	0.028
Mof_H 	H 	0.8723	0.6696	0.3952	0.083
Mof_H 	H 	0.7943	0.5199	0.6122	0.169
Mof_Zn	Zn	0.41542	0.53345	0.48146	1.222
Mof_O 	O 	0.45805	0.5429	0.31846	-0.461
Mof_O 	O 	0.53304	0.44331	0.35673	-0.471
Mof_O 	O 	0.3649	0.61851	0.44802	-0.433
Mof_O 	O 	0.31384	0.57622	0.6139	-0.31
Mof_O 	O 	0.22236	0.56813	0.37	-0.248
Mof_O 	O 	0.14978	0.59485	0.4986	-0.24
Mof_C 	C 	0.30991	0.75528	0.5296	-0
Mof_C 	C 	0.28479	0.68758	0.5073	-0.054
Mof_C 	C 	0.22404	0.68255	0.4755	-0.046
Mof_C 	C 	0.32325	0.621	0.5257	0.33
Mof_C 	C 	0.19499	0.61027	0.4496	0.292
Mof_C 	C 	0.3501	0.41346	0.6003	0.083
Mof_C 	C 	0.33289	0.34381	0.6214	-0.113
Mof_C 	C 	0.34535	0.28921	0.5304	0.05
Mof_C 	C 	0.37399	0.30993	0.417	-0.109
Mof_C 	C 	0.39012	0.38137	0.4014	0.071
Mof_C 	C 	0.32966	0.2125	0.5522	0.07
Mof_C 	C 	0.2944	0.19134	0.6522	-0.129
Mof_C 	C 	0.28189	0.11923	0.6725	0.114
Mof_C 	C 	0.335	0.087	0.4989	0.117
Mof_C 	C 	0.3496	0.15789	0.4729	-0.13
Mof_N 	N 	0.37962	0.43288	0.4925	-0.263
Mof_N 	N 	0.30241	0.06777	0.5973	-0.215
Mof_H 	H 	0.3547	0.7582	0.5531	0.048
Mof_H 	H 	0.3403	0.45	0.6644	0.001
Mof_H 	H 	0.312	0.3326	0.7001	0.088
Mof_H 	H 	0.3828	0.2744	0.3499	0.071
Mof_H 	H 	0.41	0.3949	0.3208	0.005
Mof_H 	H 	0.2777	0.2279	0.7094	0.082
Mof_H 	H 	0.2573	0.1062	0.7451	0.027
Mof_H 	H 	0.3482	0.0486	0.4384	0.026
Mof_H 	H 	0.3723	0.1696	0.3952	0.081
Mof_H 	H 	0.2943	0.0199	0.6122	0.169
Mof_Zn	Zn	0.91542	0.96655	0.98146	1.222
Mof_O 	O 	0.95805	0.9571	0.81846	-0.439
Mof_O 	O 	0.03304	0.05669	0.85673	-0.475
Mof_O 	O 	0.8649	0.88149	0.94802	-0.433
Mof_O 	O 	0.81384	0.92378	0.1139	-0.31
Mof_O 	O 	0.72236	0.93187	0.87	-0.248
Mof_O 	O 	0.64978	0.90515	0.9986	-0.236
Mof_C 	C 	0.80991	0.74472	0.0296	-0.002
Mof_C 	C 	0.78479	0.81242	0.0073	-0.051
Mof_C 	C 	0.72404	0.81745	0.9755	-0.048
Mof_C 	C 	0.82325	0.879	0.0257	0.332
Mof_C 	C 	0.69499	0.88973	0.9496	0.292
Mof_C 	C 	0.8501	0.08654	0.1003	0.084
Mof_C 	C 	0.83289	0.15619	0.1214	-0.112
Mof_C 	C 	0.84535	0.21079	0.0304	0.051
Mof_C 	C 	0.87399	0.19007	0.917	-0.108
Mof_C 	C 	0.89012	0.11863	0.9014	0.074
Mof_C 	C 	0.82966	0.2875	0.0522	0.071
Mof_C 	C 	0.7944	0.30866	0.1522	-0.129
Mof_C 	C 	0.78189	0.38077	0.1725	0.115
Mof_C 	C 	0.835	0.413	0.9989	0.118
Mof_C 	C 	0.8496	0.34211	0.9729	-0.129
Mof_N 	N 	0.87962	0.06712	0.9925	-0.261
Mof_N 	N 	0.80241	0.43223	0.0973	-0.215
Mof_H 	H 	0.8547	0.7418	0.0531	0.052
Mof_H 	H 	0.8403	0.05	0.1644	0
Mof_H 	H 	0.812	0.1674	0.2001	0.088
Mof_H 	H 	0.8828	0.2256	0.8499	0.074
Mof_H 	H 	0.91	0.1051	0.8208	0.008
Mof_H 	H 	0.7777	0.2721	0.2094	0.082
Mof_H 	H 	0.7573	0.3938	0.2451	0.026
Mof_H 	H 	0.8482	0.4514	0.9384	0.028
Mof_H 	H 	0.8723	0.3304	0.8952	0.083
Mof_H 	H 	0.7943	0.4801	0.1122	0.169
Mof_Zn	Zn	0.41542	0.46655	0.98146	1.222
Mof_O 	O 	0.45805	0.4571	0.81846	-0.461
Mof_O 	O 	0.53304	0.55669	0.85673	-0.471
Mof_O 	O 	0.3649	0.38149	0.94802	-0.432
Mof_O 	O 	0.31384	0.42378	0.1139	-0.31
Mof_O 	O 	0.22236	0.43187	0.87	-0.248
Mof_O 	O 	0.14978	0.40515	0.9986	-0.24
Mof_C 	C 	0.30991	0.24472	0.0296	0.001
Mof_C 	C 	0.28479	0.31242	0.0073	-0.055
Mof_C 	C 	0.22404	0.31745	0.9755	-0.044
Mof_C 	C 	0.32325	0.379	0.0257	0.33
Mof_C 	C 	0.19499	0.38973	0.9496	0.292
Mof_C 	C 	0.3501	0.58654	0.1003	0.083
Mof_C 	C 	0.33289	0.65619	0.1214	-0.113
Mof_C 	C 	0.34535	0.71079	0.0304	0.051
Mof_C 	C 	0.37399	0.69007	0.917	-0.11
Mof_C 	C 	0.39012	0.61863	0.9014	0.072
Mof_C 	C 	0.32966	0.7875	0.0522	0.071
Mof_C 	C 	0.2944	0.80866	0.1522	-0.13
Mof_C 	C 	0.28189	0.88077	0.1725	0.115
Mof_C 	C 	0.335	0.913	0.9989	0.116
Mof_C 	C 	0.3496	0.84211	0.9729	-0.131
Mof_N 	N 	0.37962	0.56712	0.9925	-0.263
Mof_N 	N 	0.30241	0.93223	0.0973	-0.215
Mof_H 	H 	0.3547	0.2418	0.0531	0.048
Mof_H 	H 	0.3403	0.55	0.1644	0
Mof_H 	H 	0.312	0.6674	0.2001	0.088
Mof_H 	H 	0.3828	0.7256	0.8499	0.072
Mof_H 	H 	0.41	0.6051	0.8208	0.005
Mof_H 	H 	0.2777	0.7721	0.2094	0.082
Mof_H 	H 	0.2573	0.8938	0.2451	0.026
Mof_H 	H 	0.3482	0.9514	0.9384	0.026
Mof_H 	H 	0.3723	0.8304	0.8952	0.081
Mof_H 	H 	0.2943	0.9801	0.1122	0.169
Mof_Zn	Zn	0.08458	0.96655	0.51854	1.221
Mof_O 	O 	0.04195	0.9571	0.68154	-0.465
Mof_O 	O 	0.96696	0.05669	0.64327	-0.446
Mof_O 	O 	0.1351	0.88149	0.55198	-0.436
Mof_O 	O 	0.18616	0.92378	0.3861	-0.31
Mof_O 	O 	0.27764	0.93187	0.63	-0.247
Mof_O 	O 	0.35022	0.90515	0.5014	-0.235
Mof_C 	C 	0.19009	0.74472	0.4704	0.001
Mof_C 	C 	0.21521	0.81242	0.4927	-0.056
Mof_C 	C 	0.27596	0.81745	0.5245	-0.044
Mof_C 	C 	0.17675	0.879	0.4743	0.331
Mof_C 	C 	0.30501	0.88973	0.5504	0.291
Mof_C 	C 	0.1499	0.08654	0.3997	0.081
Mof_C 	C 	0.16711	0.15619	0.3786	-0.113
Mof_C 	C 	0.15465	0.21079	0.4696	0.048
Mof_C 	C 	0.12601	0.19007	0.583	-0.11
Mof_C 	C 	0.10988	0.11863	0.5986	0.068
Mof_C 	C 	0.17034	0.2875	0.4478	0.068
Mof_C 	C 	0.2056	0.30866	0.3478	-0.13
Mof_C 	C 	0.21811	0.38077	0.3275	0.113
Mof_C 	C 	0.165	0.413	0.5011	0.114
Mof_C 	C 	0.1504	0.34211	0.5271	-0.131
Mof_N 	N 	0.12038	0.06712	0.5075	-0.264
Mof_N 	N 	0.19759	0.43223	0.4027	-0.215
Mof_H 	H 	0.1453	0.7418	0.4469	0.045
Mof_H 	H 	0.1597	0.05	0.3356	0.001
Mof_H 	H 	0.188	0.1674	0.2999	0.087
Mof_H 	H 	0.1172	0.2256	0.6501	0.069
Mof_H 	H 	0.09	0.1051	0.6792	0.003
Mof_H 	H 	0.2223	0.2721	0.2906	0.082
Mof_H 	H 	0.2427	0.3938	0.2549	0.026
Mof_H 	H 	0.1518	0.4514	0.5616	0.024
Mof_H 	H 	0.1277	0.3304	0.6048	0.078
Mof_H 	H 	0.2057	0.4801	0.3878	0.168
Mof_Zn	Zn	0.58458	0.46655	0.51854	1.222
Mof_O 	O 	0.54195	0.4571	0.68154	-0.461
Mof_O 	O 	0.46696	0.55669	0.64327	-0.471
Mof_O 	O 	0.6351	0.38149	0.55198	-0.433
Mof_O 	O 	0.68616	0.42378	0.3861	-0.311
Mof_O 	O 	0.77764	0.43187	0.63	-0.246
Mof_O 	O 	0.85022	0.40515	0.5014	-0.231
Mof_C 	C 	0.69009	0.24472	0.4704	0.001
Mof_C 	C 	0.71521	0.31242	0.4927	-0.055
Mof_C 	C 	0.77596	0.31745	0.5245	-0.043
Mof_C 	C 	0.67675	0.379	0.4743	0.331
Mof_C 	C 	0.80501	0.38973	0.5504	0.29
Mof_C 	C 	0.6499	0.58654	0.3997	0.083
Mof_C 	C 	0.66711	0.65619	0.3786	-0.113
Mof_C 	C 	0.65465	0.71079	0.4696	0.05
Mof_C 	C 	0.62601	0.69007	0.583	-0.109
Mof_C 	C 	0.60988	0.61863	0.5986	0.071
Mof_C 	C 	0.67034	0.7875	0.4478	0.069
Mof_C 	C 	0.7056	0.80866	0.3478	-0.129
Mof_C 	C 	0.71811	0.88077	0.3275	0.114
Mof_C 	C 	0.665	0.913	0.5011	0.116
Mof_C 	C 	0.6504	0.84211	0.5271	-0.13
Mof_N 	N 	0.62038	0.56712	0.5075	-0.263
Mof_N 	N 	0.69759	0.93223	0.4027	-0.215
Mof_H 	H 	0.6453	0.2418	0.4469	0.048
Mof_H 	H 	0.6597	0.55	0.3356	0.001
Mof_H 	H 	0.688	0.6674	0.2999	0.088
Mof_H 	H 	0.6172	0.7256	0.6501	0.071
Mof_H 	H 	0.59	0.6051	0.6792	0.005
Mof_H 	H 	0.7223	0.7721	0.2906	0.082
Mof_H 	H 	0.7427	0.8938	0.2549	0.026
Mof_H 	H 	0.6518	0.9514	0.5616	0.026
Mof_H 	H 	0.6277	0.8304	0.6048	0.081
Mof_H 	H 	0.7057	0.9801	0.3878	0.169
Mof_P 	P 	1.74648e-18	0.99243	0.25	0.504
Mof_P 	P 	0.5	0.49243	0.25	0.545
Mof_P 	P 	6.98593e-18	0.00757	0.75	0.505
Mof_P 	P 	0.5	0.50757	0.75	0.545
_end
