# CIF file generated by openbabel 3.1.0, see https://openbabel.org
data_I
_chemical_name_common 'image0'
_cell_length_a 27.625
_cell_length_b 9.9064
_cell_length_c 15.5403
_cell_angle_alpha 90
_cell_angle_beta 119.742
_cell_angle_gamma 90
_space_group_name_H-M_alt 'P 1'
_space_group_name_Hall 'P 1'
loop_
    _symmetry_equiv_pos_as_xyz
    x,y,z
loop_
    _atom_site_label
    _atom_site_type_symbol
    _atom_site_fract_x
    _atom_site_fract_y
    _atom_site_fract_z
    _atom_site_occupancy
    Co1      Co       0.20951    0.13713    0.46752    1.000
    O1       O        0.23585    0.39080    0.38510    1.000
    O2       O        0.16830    0.23510    0.33570    1.000
    O3       O        0.23294    0.57710    0.06980    1.000
    O4       O        0.16759    0.73680    0.01310    1.000
    N1       N        0.01251    0.47570    0.04240    1.000
    N2       N        0.16190    0.96840    0.44670    1.000
    C1       C        0.15740    0.55150    0.09750    1.000
    C2       C        0.18710    0.48010    0.18610    1.000
    H1       H        0.22590    0.48050    0.21960    1.000
    C3       C        0.09950    0.55380    0.04830    1.000
    H2       H        0.07960    0.60450    0.99080    1.000
    C4       C        0.19030    0.33850    0.32240    1.000
    C5       C        0.15880    0.40880    0.22430    1.000
    C6       C        0.10090    0.40550    0.17410    1.000
    H3       H        0.08180    0.35540    0.19850    1.000
    C7       C        0.07190    0.47890    0.08660    1.000
    C8       C        0.18850    0.62880    0.05670    1.000
    N3       N        0.10900    0.78950    0.38890    1.000
    C9       C        0.14350    0.87870    0.37840    1.000
    C10      C        0.14210    0.93650    0.50860    1.000
    H4       H        0.14870    0.98470    0.56480    1.000
    C11      C        0.11130    0.82270    0.47470    1.000
    H5       H        0.09460    0.77590    0.50510    1.000
    C12      C        0.16490    0.86080    0.30300    1.000
    H6       H        0.17470    0.94840    0.28830    1.000
    H7       H        0.13520    0.82360    0.24170    1.000
    C13      C        0.21840    0.76270    0.34540    1.000
    H8       H        0.24640    0.79390    0.40950    1.000
    H9       H        0.23320    0.76320    0.30100    1.000
    H10      H        0.20760    0.67250    0.35100    1.000
    C14      C        0.03190    0.62470    0.31250    1.000
    C15      C        0.09420    0.64930    0.33380    1.000
    C16      C        0.00750    0.72770    0.29090    1.000
    C17      C        0.94160    0.70100    0.19130    1.000
    H11      H        0.94860    0.63920    0.15050    1.000
    H12      H        0.92390    0.64710    0.22010    1.000
    H13      H        0.01310    0.56040    0.25890    1.000
    H14      H        0.03280    0.58790    0.37110    1.000
    H15      H        0.02720    0.79340    0.27350    1.000
    H16      H        0.00480    0.76250    0.34670    1.000
    H17      H        0.11920    0.57880    0.37560    1.000
    H18      H        0.09550    0.65400    0.27270    1.000
    Co2      Co       0.70951    0.63713    0.46752    1.000
    O5       O        0.73585    0.89080    0.38510    1.000
    O6       O        0.66830    0.73510    0.33570    1.000
    O7       O        0.73294    0.07710    0.06980    1.000
    O8       O        0.66759    0.23680    0.01310    1.000
    N4       N        0.51251    0.97570    0.04240    1.000
    N5       N        0.66190    0.46840    0.44670    1.000
    C18      C        0.65740    0.05150    0.09750    1.000
    C19      C        0.68710    0.98010    0.18610    1.000
    H19      H        0.72590    0.98050    0.21960    1.000
    C20      C        0.59950    0.05380    0.04830    1.000
    H20      H        0.57960    0.10450    0.99080    1.000
    C21      C        0.69030    0.83850    0.32240    1.000
    C22      C        0.65880    0.90880    0.22430    1.000
    C23      C        0.60090    0.90550    0.17410    1.000
    H21      H        0.58180    0.85540    0.19850    1.000
    C24      C        0.57190    0.97890    0.08660    1.000
    C25      C        0.68850    0.12880    0.05670    1.000
    N6       N        0.60900    0.28950    0.38890    1.000
    C26      C        0.64350    0.37870    0.37840    1.000
    C27      C        0.64210    0.43650    0.50860    1.000
    H22      H        0.64870    0.48470    0.56480    1.000
    C28      C        0.61130    0.32270    0.47470    1.000
    H23      H        0.59460    0.27590    0.50510    1.000
    C29      C        0.66490    0.36080    0.30300    1.000
    H24      H        0.67470    0.44840    0.28830    1.000
    H25      H        0.63520    0.32360    0.24170    1.000
    C30      C        0.71840    0.26270    0.34540    1.000
    H26      H        0.74640    0.29390    0.40950    1.000
    H27      H        0.73320    0.26320    0.30100    1.000
    H28      H        0.70760    0.17250    0.35100    1.000
    C31      C        0.53190    0.12470    0.31250    1.000
    C32      C        0.59420    0.14930    0.33380    1.000
    C33      C        0.50750    0.22770    0.29090    1.000
    C34      C        0.44160    0.20100    0.19130    1.000
    H29      H        0.44860    0.13920    0.15050    1.000
    H30      H        0.42390    0.14710    0.22010    1.000
    H31      H        0.51310    0.06040    0.25890    1.000
    H32      H        0.53280    0.08790    0.37110    1.000
    H33      H        0.52720    0.29340    0.27350    1.000
    H34      H        0.50480    0.26250    0.34670    1.000
    H35      H        0.61920    0.07880    0.37560    1.000
    H36      H        0.59550    0.15400    0.27270    1.000
    Co3      Co       0.79049    0.13713    0.03248    1.000
    O9       O        0.76415    0.39080    0.11490    1.000
    O10      O        0.83170    0.23510    0.16430    1.000
    O11      O        0.76706    0.57710    0.43020    1.000
    O12      O        0.83241    0.73680    0.48690    1.000
    N7       N        0.98749    0.47570    0.45760    1.000
    N8       N        0.83810    0.96840    0.05330    1.000
    C35      C        0.84260    0.55150    0.40250    1.000
    C36      C        0.81290    0.48010    0.31390    1.000
    H37      H        0.77410    0.48050    0.28040    1.000
    C37      C        0.90050    0.55380    0.45170    1.000
    H38      H        0.92040    0.60450    0.50920    1.000
    C38      C        0.80970    0.33850    0.17760    1.000
    C39      C        0.84120    0.40880    0.27570    1.000
    C40      C        0.89910    0.40550    0.32590    1.000
    H39      H        0.91820    0.35540    0.30150    1.000
    C41      C        0.92810    0.47890    0.41340    1.000
    C42      C        0.81150    0.62880    0.44330    1.000
    N9       N        0.89100    0.78950    0.11110    1.000
    C43      C        0.85650    0.87870    0.12160    1.000
    C44      C        0.85790    0.93650    0.99140    1.000
    H40      H        0.85130    0.98470    0.93520    1.000
    C45      C        0.88870    0.82270    0.02530    1.000
    H41      H        0.90540    0.77590    0.99490    1.000
    C46      C        0.83510    0.86080    0.19700    1.000
    H42      H        0.82530    0.94840    0.21170    1.000
    H43      H        0.86480    0.82360    0.25830    1.000
    C47      C        0.78160    0.76270    0.15460    1.000
    H44      H        0.75360    0.79390    0.09050    1.000
    H45      H        0.76680    0.76320    0.19900    1.000
    H46      H        0.79240    0.67250    0.14900    1.000
    C48      C        0.96810    0.62470    0.18750    1.000
    C49      C        0.90580    0.64930    0.16620    1.000
    C50      C        0.99250    0.72770    0.20910    1.000
    C51      C        0.05840    0.70100    0.30870    1.000
    H47      H        0.05140    0.63920    0.34950    1.000
    H48      H        0.07610    0.64710    0.27990    1.000
    H49      H        0.98690    0.56040    0.24110    1.000
    H50      H        0.96720    0.58790    0.12890    1.000
    H51      H        0.97280    0.79340    0.22650    1.000
    H52      H        0.99520    0.76250    0.15330    1.000
    H53      H        0.88080    0.57880    0.12440    1.000
    H54      H        0.90450    0.65400    0.22730    1.000
    Co4      Co       0.29049    0.63713    0.03248    1.000
    O13      O        0.26415    0.89080    0.11490    1.000
    O14      O        0.33170    0.73510    0.16430    1.000
    O15      O        0.26706    0.07710    0.43020    1.000
    O16      O        0.33241    0.23680    0.48690    1.000
    N10      N        0.48749    0.97570    0.45760    1.000
    N11      N        0.33810    0.46840    0.05330    1.000
    C52      C        0.34260    0.05150    0.40250    1.000
    C53      C        0.31290    0.98010    0.31390    1.000
    H55      H        0.27410    0.98050    0.28040    1.000
    C54      C        0.40050    0.05380    0.45170    1.000
    H56      H        0.42040    0.10450    0.50920    1.000
    C55      C        0.30970    0.83850    0.17760    1.000
    C56      C        0.34120    0.90880    0.27570    1.000
    C57      C        0.39910    0.90550    0.32590    1.000
    H57      H        0.41820    0.85540    0.30150    1.000
    C58      C        0.42810    0.97890    0.41340    1.000
    C59      C        0.31150    0.12880    0.44330    1.000
    N12      N        0.39100    0.28950    0.11110    1.000
    C60      C        0.35650    0.37870    0.12160    1.000
    C61      C        0.35790    0.43650    0.99140    1.000
    H58      H        0.35130    0.48470    0.93520    1.000
    C62      C        0.38870    0.32270    0.02530    1.000
    H59      H        0.40540    0.27590    0.99490    1.000
    C63      C        0.33510    0.36080    0.19700    1.000
    H60      H        0.32530    0.44840    0.21170    1.000
    H61      H        0.36480    0.32360    0.25830    1.000
    C64      C        0.28160    0.26270    0.15460    1.000
    H62      H        0.25360    0.29390    0.09050    1.000
    H63      H        0.26680    0.26320    0.19900    1.000
    H64      H        0.29240    0.17250    0.14900    1.000
    C65      C        0.46810    0.12470    0.18750    1.000
    C66      C        0.40580    0.14930    0.16620    1.000
    C67      C        0.49250    0.22770    0.20910    1.000
    C68      C        0.55840    0.20100    0.30870    1.000
    H65      H        0.55140    0.13920    0.34950    1.000
    H66      H        0.57610    0.14710    0.27990    1.000
    H67      H        0.48690    0.06040    0.24110    1.000
    H68      H        0.46720    0.08790    0.12890    1.000
    H69      H        0.47280    0.29340    0.22650    1.000
    H70      H        0.49520    0.26250    0.15330    1.000
    H71      H        0.38080    0.07880    0.12440    1.000
    H72      H        0.40450    0.15400    0.22730    1.000
    Co5      Co       0.79049    0.86287    0.53248    1.000
    O17      O        0.76415    0.60920    0.61490    1.000
    O18      O        0.83170    0.76490    0.66430    1.000
    O19      O        0.76706    0.42290    0.93020    1.000
    O20      O        0.83241    0.26320    0.98690    1.000
    N13      N        0.98749    0.52430    0.95760    1.000
    N14      N        0.83810    0.03160    0.55330    1.000
    C69      C        0.84260    0.44850    0.90250    1.000
    C70      C        0.81290    0.51990    0.81390    1.000
    H73      H        0.77410    0.51950    0.78040    1.000
    C71      C        0.90050    0.44620    0.95170    1.000
    H74      H        0.92040    0.39550    0.00920    1.000
    C72      C        0.80970    0.66150    0.67760    1.000
    C73      C        0.84120    0.59120    0.77570    1.000
    C74      C        0.89910    0.59450    0.82590    1.000
    H75      H        0.91820    0.64460    0.80150    1.000
    C75      C        0.92810    0.52110    0.91340    1.000
    C76      C        0.81150    0.37120    0.94330    1.000
    N15      N        0.89100    0.21050    0.61110    1.000
    C77      C        0.85650    0.12130    0.62160    1.000
    C78      C        0.85790    0.06350    0.49140    1.000
    H76      H        0.85130    0.01530    0.43520    1.000
    C79      C        0.88870    0.17730    0.52530    1.000
    H77      H        0.90540    0.22410    0.49490    1.000
    C80      C        0.83510    0.13920    0.69700    1.000
    H78      H        0.82530    0.05160    0.71170    1.000
    H79      H        0.86480    0.17640    0.75830    1.000
    C81      C        0.78160    0.23730    0.65460    1.000
    H80      H        0.75360    0.20610    0.59050    1.000
    H81      H        0.76680    0.23680    0.69900    1.000
    H82      H        0.79240    0.32750    0.64900    1.000
    C82      C        0.96810    0.37530    0.68750    1.000
    C83      C        0.90580    0.35070    0.66620    1.000
    C84      C        0.99250    0.27230    0.70910    1.000
    C85      C        0.05840    0.29900    0.80870    1.000
    H83      H        0.05140    0.36080    0.84950    1.000
    H84      H        0.07610    0.35290    0.77990    1.000
    H85      H        0.98690    0.43960    0.74110    1.000
    H86      H        0.96720    0.41210    0.62890    1.000
    H87      H        0.97280    0.20660    0.72650    1.000
    H88      H        0.99520    0.23750    0.65330    1.000
    H89      H        0.88080    0.42120    0.62440    1.000
    H90      H        0.90450    0.34600    0.72730    1.000
    Co6      Co       0.29049    0.36287    0.53248    1.000
    O21      O        0.26415    0.10920    0.61490    1.000
    O22      O        0.33170    0.26490    0.66430    1.000
    O23      O        0.26706    0.92290    0.93020    1.000
    O24      O        0.33241    0.76320    0.98690    1.000
    N16      N        0.48749    0.02430    0.95760    1.000
    N17      N        0.33810    0.53160    0.55330    1.000
    C86      C        0.34260    0.94850    0.90250    1.000
    C87      C        0.31290    0.01990    0.81390    1.000
    H91      H        0.27410    0.01950    0.78040    1.000
    C88      C        0.40050    0.94620    0.95170    1.000
    H92      H        0.42040    0.89550    0.00920    1.000
    C89      C        0.30970    0.16150    0.67760    1.000
    C90      C        0.34120    0.09120    0.77570    1.000
    C91      C        0.39910    0.09450    0.82590    1.000
    H93      H        0.41820    0.14460    0.80150    1.000
    C92      C        0.42810    0.02110    0.91340    1.000
    C93      C        0.31150    0.87120    0.94330    1.000
    N18      N        0.39100    0.71050    0.61110    1.000
    C94      C        0.35650    0.62130    0.62160    1.000
    C95      C        0.35790    0.56350    0.49140    1.000
    H94      H        0.35130    0.51530    0.43520    1.000
    C96      C        0.38870    0.67730    0.52530    1.000
    H95      H        0.40540    0.72410    0.49490    1.000
    C97      C        0.33510    0.63920    0.69700    1.000
    H96      H        0.32530    0.55160    0.71170    1.000
    H97      H        0.36480    0.67640    0.75830    1.000
    C98      C        0.28160    0.73730    0.65460    1.000
    H98      H        0.25360    0.70610    0.59050    1.000
    H99      H        0.26680    0.73680    0.69900    1.000
    H100     H        0.29240    0.82750    0.64900    1.000
    C99      C        0.46810    0.87530    0.68750    1.000
    C100     C        0.40580    0.85070    0.66620    1.000
    C101     C        0.49250    0.77230    0.70910    1.000
    C102     C        0.55840    0.79900    0.80870    1.000
    H101     H        0.55140    0.86080    0.84950    1.000
    H102     H        0.57610    0.85290    0.77990    1.000
    H103     H        0.48690    0.93960    0.74110    1.000
    H104     H        0.46720    0.91210    0.62890    1.000
    H105     H        0.47280    0.70660    0.72650    1.000
    H106     H        0.49520    0.73750    0.65330    1.000
    H107     H        0.38080    0.92120    0.62440    1.000
    H108     H        0.40450    0.84600    0.72730    1.000
    Co7      Co       0.20951    0.86287    0.96752    1.000
    O25      O        0.23585    0.60920    0.88510    1.000
    O26      O        0.16830    0.76490    0.83570    1.000
    O27      O        0.23294    0.42290    0.56980    1.000
    O28      O        0.16759    0.26320    0.51310    1.000
    N19      N        0.01251    0.52430    0.54240    1.000
    N20      N        0.16190    0.03160    0.94670    1.000
    C103     C        0.15740    0.44850    0.59750    1.000
    C104     C        0.18710    0.51990    0.68610    1.000
    H109     H        0.22590    0.51950    0.71960    1.000
    C105     C        0.09950    0.44620    0.54830    1.000
    H110     H        0.07960    0.39550    0.49080    1.000
    C106     C        0.19030    0.66150    0.82240    1.000
    C107     C        0.15880    0.59120    0.72430    1.000
    C108     C        0.10090    0.59450    0.67410    1.000
    H111     H        0.08180    0.64460    0.69850    1.000
    C109     C        0.07190    0.52110    0.58660    1.000
    C110     C        0.18850    0.37120    0.55670    1.000
    N21      N        0.10900    0.21050    0.88890    1.000
    C111     C        0.14350    0.12130    0.87840    1.000
    C112     C        0.14210    0.06350    0.00860    1.000
    H112     H        0.14870    0.01530    0.06480    1.000
    C113     C        0.11130    0.17730    0.97470    1.000
    H113     H        0.09460    0.22410    0.00510    1.000
    C114     C        0.16490    0.13920    0.80300    1.000
    H114     H        0.17470    0.05160    0.78830    1.000
    H115     H        0.13520    0.17640    0.74170    1.000
    C115     C        0.21840    0.23730    0.84540    1.000
    H116     H        0.24640    0.20610    0.90950    1.000
    H117     H        0.23320    0.23680    0.80100    1.000
    H118     H        0.20760    0.32750    0.85100    1.000
    C116     C        0.03190    0.37530    0.81250    1.000
    C117     C        0.09420    0.35070    0.83380    1.000
    C118     C        0.00750    0.27230    0.79090    1.000
    C119     C        0.94160    0.29900    0.69130    1.000
    H119     H        0.94860    0.36080    0.65050    1.000
    H120     H        0.92390    0.35290    0.72010    1.000
    H121     H        0.01310    0.43960    0.75890    1.000
    H122     H        0.03280    0.41210    0.87110    1.000
    H123     H        0.02720    0.20660    0.77350    1.000
    H124     H        0.00480    0.23750    0.84670    1.000
    H125     H        0.11920    0.42120    0.87560    1.000
    H126     H        0.09550    0.34600    0.77270    1.000
    Co8      Co       0.70951    0.36287    0.96752    1.000
    O29      O        0.73585    0.10920    0.88510    1.000
    O30      O        0.66830    0.26490    0.83570    1.000
    O31      O        0.73294    0.92290    0.56980    1.000
    O32      O        0.66759    0.76320    0.51310    1.000
    N22      N        0.51251    0.02430    0.54240    1.000
    N23      N        0.66190    0.53160    0.94670    1.000
    C120     C        0.65740    0.94850    0.59750    1.000
    C121     C        0.68710    0.01990    0.68610    1.000
    H127     H        0.72590    0.01950    0.71960    1.000
    C122     C        0.59950    0.94620    0.54830    1.000
    H128     H        0.57960    0.89550    0.49080    1.000
    C123     C        0.69030    0.16150    0.82240    1.000
    C124     C        0.65880    0.09120    0.72430    1.000
    C125     C        0.60090    0.09450    0.67410    1.000
    H129     H        0.58180    0.14460    0.69850    1.000
    C126     C        0.57190    0.02110    0.58660    1.000
    C127     C        0.68850    0.87120    0.55670    1.000
    N24      N        0.60900    0.71050    0.88890    1.000
    C128     C        0.64350    0.62130    0.87840    1.000
    C129     C        0.64210    0.56350    0.00860    1.000
    H130     H        0.64870    0.51530    0.06480    1.000
    C130     C        0.61130    0.67730    0.97470    1.000
    H131     H        0.59460    0.72410    0.00510    1.000
    C131     C        0.66490    0.63920    0.80300    1.000
    H132     H        0.67470    0.55160    0.78830    1.000
    H133     H        0.63520    0.67640    0.74170    1.000
    C132     C        0.71840    0.73730    0.84540    1.000
    H134     H        0.74640    0.70610    0.90950    1.000
    H135     H        0.73320    0.73680    0.80100    1.000
    H136     H        0.70760    0.82750    0.85100    1.000
    C133     C        0.53190    0.87530    0.81250    1.000
    C134     C        0.59420    0.85070    0.83380    1.000
    C135     C        0.50750    0.77230    0.79090    1.000
    C136     C        0.44160    0.79900    0.69130    1.000
    H137     H        0.44860    0.86080    0.65050    1.000
    H138     H        0.42390    0.85290    0.72010    1.000
    H139     H        0.51310    0.93960    0.75890    1.000
    H140     H        0.53280    0.91210    0.87110    1.000
    H141     H        0.52720    0.70660    0.77350    1.000
    H142     H        0.50480    0.73750    0.84670    1.000
    H143     H        0.61920    0.92120    0.87560    1.000
    H144     H        0.59550    0.84600    0.77270    1.000
