data_functionalizedCrystal
_audit_creation_method	'EQeq! by Chris Wilmer'
_symmetry_space_group_name_H-M	'P1'
_symmetry_Int_Tables_number	1
_symmetry_cell_setting	triclinic
loop_
_symmetry_equiv_pos_as_xyz
  x,y,z
_cell_length_a	16.791
_cell_length_b	14.107
_cell_length_c	12.228
_cell_angle_alpha	90
_cell_angle_beta	119.02
_cell_angle_gamma	90
loop_
_atom_site_label
_atom_site_type_symbol
_atom_site_fract_x
_atom_site_fract_y
_atom_site_fract_z
_atom_site_charge
Mof_Co	Co	0.09662	0.16872	0.89762	1.16
Mof_C 	C 	0.4234	0.7858	0.8221	0.413
Mof_C 	C 	0.3988	0.8598	0.8891	-0.077
Mof_C 	C 	0.316	0.9079	0.833	0.024
Mof_H 	H 	0.2733	0.8958	0.7502	0.041
Mof_C 	C 	0.2977	0.974	0.9017	-0.012
Mof_C 	C 	0.3613	0.993	0.0258	-0.128
Mof_H 	H 	0.3487	0.0379	0.0709	0.102
Mof_C 	C 	0.4436	0.9446	0.0818	0.167
Mof_C 	C 	0.4609	0.8782	0.0128	-0.011
Mof_H 	H 	0.5157	0.8451	0.0505	0.104
Mof_C 	C 	0.2064	0.0222	0.8475	0.323
Mof_O 	O 	0.48824	0.732	0.8922	-0.455
Mof_O 	O 	0.38117	0.77881	0.7061	-0.412
Mof_O 	O 	0.13965	0.9868	0.7559	-0.292
Mof_O 	O 	0.2037	0.09694	0.9019	-0.427
Mof_O 	O 	0.50036	0.93346	0.20424	-1.749
Mof_H 	H 	0.0344	0.0413	0.7362	0.342
Mof_C 	C 	0.5175	0.9823	0.2116	2.693
Mof_H 	H 	0.5783	0.9685	0.2254	-0.541
Mof_H 	H 	0.5116	0.0502	0.2183	-0.794
Mof_Co	Co	0.59662	0.66872	0.89762	1.157
Mof_C 	C 	0.9234	0.2858	0.8221	0.414
Mof_C 	C 	0.8988	0.3598	0.8891	-0.082
Mof_C 	C 	0.816	0.4079	0.833	0.044
Mof_H 	H 	0.7733	0.3958	0.7502	0.031
Mof_C 	C 	0.7977	0.474	0.9017	-0.059
Mof_C 	C 	0.8613	0.493	0.0258	-0.064
Mof_H 	H 	0.8487	0.5379	0.0709	0.067
Mof_C 	C 	0.9436	0.4446	0.0818	0.104
Mof_C 	C 	0.9609	0.3782	0.0128	-0.051
Mof_H 	H 	0.0157	0.3451	0.0505	0.153
Mof_C 	C 	0.7064	0.5222	0.8475	0.355
Mof_O 	O 	0.98824	0.232	0.8922	-0.482
Mof_O 	O 	0.88117	0.27881	0.7061	-0.42
Mof_O 	O 	0.63965	0.4868	0.7559	-0.317
Mof_O 	O 	0.7037	0.59694	0.9019	-0.433
Mof_O 	O 	0.00036	0.43346	0.20424	-1.753
Mof_H 	H 	0.5344	0.5413	0.7362	0.356
Mof_C 	C 	0.0175	0.4823	0.2116	2.834
Mof_H 	H 	0.0783	0.4685	0.2254	-0.574
Mof_H 	H 	0.0116	0.5502	0.2183	-0.814
Mof_Co	Co	0.90338	0.16872	0.60238	1.142
Mof_C 	C 	0.5766	0.7858	0.6779	0.425
Mof_C 	C 	0.6012	0.8598	0.6109	-0.11
Mof_C 	C 	0.684	0.9079	0.667	0.058
Mof_H 	H 	0.7267	0.8958	0.7498	0.027
Mof_C 	C 	0.7023	0.974	0.5983	-0.063
Mof_C 	C 	0.6387	0.993	0.4742	-0.071
Mof_H 	H 	0.6513	0.0379	0.4291	0.076
Mof_C 	C 	0.5564	0.9446	0.4182	0.134
Mof_C 	C 	0.5391	0.8782	0.4872	0.028
Mof_H 	H 	0.4843	0.8451	0.4495	0.093
Mof_C 	C 	0.7936	0.0222	0.6525	0.351
Mof_O 	O 	0.51176	0.732	0.6078	-0.46
Mof_O 	O 	0.61883	0.77881	0.7939	-0.415
Mof_O 	O 	0.86035	0.9868	0.7441	-0.317
Mof_O 	O 	0.7963	0.09694	0.5981	-0.436
Mof_O 	O 	0.49964	0.93346	0.29576	-1.736
Mof_H 	H 	0.9656	0.0413	0.7638	0.308
Mof_C 	C 	0.4825	0.9823	0.2884	2.695
Mof_H 	H 	0.4217	0.9685	0.2746	-0.542
Mof_H 	H 	0.4884	0.0502	0.2817	-0.796
Mof_Co	Co	0.40338	0.66872	0.60238	1.156
Mof_C 	C 	0.0766	0.2858	0.6779	0.436
Mof_C 	C 	0.1012	0.3598	0.6109	-0.132
Mof_C 	C 	0.184	0.4079	0.667	0.071
Mof_H 	H 	0.2267	0.3958	0.7498	0.023
Mof_C 	C 	0.2023	0.474	0.5983	-0.065
Mof_C 	C 	0.1387	0.493	0.4742	-0.078
Mof_H 	H 	0.1513	0.5379	0.4291	0.083
Mof_C 	C 	0.0564	0.4446	0.4182	0.171
Mof_C 	C 	0.0391	0.3782	0.4872	0.1
Mof_H 	H 	0.9843	0.3451	0.4495	0.042
Mof_C 	C 	0.2936	0.5222	0.6525	0.358
Mof_O 	O 	0.01176	0.232	0.6078	-0.441
Mof_O 	O 	0.11883	0.27881	0.7939	-0.413
Mof_O 	O 	0.36035	0.4868	0.7441	-0.318
Mof_O 	O 	0.2963	0.59694	0.5981	-0.433
Mof_O 	O 	0.99964	0.43346	0.29576	-1.822
Mof_H 	H 	0.4656	0.5413	0.7638	0.356
Mof_C 	C 	0.9825	0.4823	0.2884	2.72
Mof_H 	H 	0.9217	0.4685	0.2746	-0.544
Mof_H 	H 	0.9884	0.5502	0.2817	-0.832
Mof_O 	O 	-4.48857e-17	0.07962	0.75	-0.85
Mof_O 	O 	0.5	0.57962	0.75	-0.917
Mof_Co	Co	0.90338	0.83128	0.10238	1.138
Mof_C 	C 	0.5766	0.2142	0.1779	0.417
Mof_C 	C 	0.6012	0.1402	0.1109	-0.085
Mof_C 	C 	0.684	0.0921	0.167	0.032
Mof_H 	H 	0.7267	0.1042	0.2498	0.035
Mof_C 	C 	0.7023	0.026	0.0983	-0.024
Mof_C 	C 	0.6387	0.007	0.9742	-0.118
Mof_H 	H 	0.6513	0.9621	0.9291	0.099
Mof_C 	C 	0.5564	0.0554	0.9182	0.16
Mof_C 	C 	0.5391	0.1218	0.9872	-0.002
Mof_H 	H 	0.4843	0.1549	0.9495	0.102
Mof_C 	C 	0.7936	0.9778	0.1525	0.328
Mof_O 	O 	0.51176	0.268	0.1078	-0.457
Mof_O 	O 	0.61883	0.22119	0.2939	-0.414
Mof_O 	O 	0.86035	0.0132	0.2441	-0.308
Mof_O 	O 	0.7963	0.90306	0.0981	-0.434
Mof_O 	O 	0.49964	0.06654	0.79576	-1.745
Mof_H 	H 	0.9656	0.9587	0.2638	0.297
Mof_C 	C 	0.4825	0.0177	0.7884	2.69
Mof_H 	H 	0.4217	0.0315	0.7746	-0.54
Mof_H 	H 	0.4884	0.9498	0.7817	-0.793
Mof_Co	Co	0.40338	0.33128	0.10238	1.156
Mof_C 	C 	0.0766	0.7142	0.1779	0.435
Mof_C 	C 	0.1012	0.6402	0.1109	-0.129
Mof_C 	C 	0.184	0.5921	0.167	0.069
Mof_H 	H 	0.2267	0.6042	0.2498	0.024
Mof_C 	C 	0.2023	0.526	0.0983	-0.063
Mof_C 	C 	0.1387	0.507	0.9742	-0.08
Mof_H 	H 	0.1513	0.4621	0.9291	0.083
Mof_C 	C 	0.0564	0.5554	0.9182	0.169
Mof_C 	C 	0.0391	0.6218	0.9872	0.093
Mof_H 	H 	0.9843	0.6549	0.9495	0.048
Mof_C 	C 	0.2936	0.4778	0.1525	0.357
Mof_O 	O 	0.01176	0.768	0.1078	-0.44
Mof_O 	O 	0.11883	0.72119	0.2939	-0.411
Mof_O 	O 	0.36035	0.5132	0.2441	-0.317
Mof_O 	O 	0.2963	0.40306	0.0981	-0.431
Mof_O 	O 	0.99964	0.56654	0.79576	-1.819
Mof_H 	H 	0.4656	0.4587	0.2638	0.356
Mof_C 	C 	0.9825	0.5177	0.7884	2.723
Mof_H 	H 	0.9217	0.5315	0.7746	-0.544
Mof_H 	H 	0.9884	0.4498	0.7817	-0.83
Mof_Co	Co	0.09662	0.83128	0.39762	1.164
Mof_C 	C 	0.4234	0.2142	0.3221	0.425
Mof_C 	C 	0.3988	0.1402	0.3891	-0.107
Mof_C 	C 	0.316	0.0921	0.333	0.056
Mof_H 	H 	0.2733	0.1042	0.2502	0.031
Mof_C 	C 	0.2977	0.026	0.4017	-0.058
Mof_C 	C 	0.3613	0.007	0.5258	-0.074
Mof_H 	H 	0.3487	0.9621	0.5709	0.078
Mof_C 	C 	0.4436	0.0554	0.5818	0.136
Mof_C 	C 	0.4609	0.1218	0.5128	0.027
Mof_H 	H 	0.5157	0.1549	0.5505	0.094
Mof_C 	C 	0.2064	0.9778	0.3475	0.349
Mof_O 	O 	0.48824	0.268	0.3922	-0.46
Mof_O 	O 	0.38117	0.22119	0.2061	-0.414
Mof_O 	O 	0.13965	0.0132	0.2559	-0.302
Mof_O 	O 	0.2037	0.90306	0.4019	-0.43
Mof_O 	O 	0.50036	0.06654	0.70424	-1.734
Mof_H 	H 	0.0344	0.9587	0.2362	0.34
Mof_C 	C 	0.5175	0.0177	0.7116	2.69
Mof_H 	H 	0.5783	0.0315	0.7254	-0.541
Mof_H 	H 	0.5116	0.9498	0.7183	-0.795
Mof_Co	Co	0.59662	0.33128	0.39762	1.156
Mof_C 	C 	0.9234	0.7142	0.3221	0.418
Mof_C 	C 	0.8988	0.6402	0.3891	-0.091
Mof_C 	C 	0.816	0.5921	0.333	0.052
Mof_H 	H 	0.7733	0.6042	0.2502	0.028
Mof_C 	C 	0.7977	0.526	0.4017	-0.069
Mof_C 	C 	0.8613	0.507	0.5258	-0.055
Mof_H 	H 	0.8487	0.4621	0.5709	0.066
Mof_C 	C 	0.9436	0.5554	0.5818	0.102
Mof_C 	C 	0.9609	0.6218	0.5128	-0.04
Mof_H 	H 	0.0157	0.6549	0.5505	0.148
Mof_C 	C 	0.7064	0.4778	0.3475	0.358
Mof_O 	O 	0.98824	0.768	0.3922	-0.486
Mof_O 	O 	0.88117	0.72119	0.2061	-0.423
Mof_O 	O 	0.63965	0.5132	0.2559	-0.319
Mof_O 	O 	0.7037	0.40306	0.4019	-0.435
Mof_O 	O 	0.00036	0.56654	0.70424	-1.754
Mof_H 	H 	0.5344	0.4587	0.2362	0.355
Mof_C 	C 	0.0175	0.5177	0.7116	2.828
Mof_H 	H 	0.0783	0.5315	0.7254	-0.572
Mof_H 	H 	0.0116	0.4498	0.7183	-0.815
Mof_O 	O 	1.01377e-33	0.92038	0.25	-0.836
Mof_O 	O 	0.5	0.42038	0.25	-0.917
_end
