data_functionalizedCrystal
_audit_creation_method	'EQeq! by Chris Wilmer'
_symmetry_space_group_name_H-M	'P1'
_symmetry_Int_Tables_number	1
_symmetry_cell_setting	triclinic
loop_
_symmetry_equiv_pos_as_xyz
  x,y,z
_cell_length_a	21.3111
_cell_length_b	20.9858
_cell_length_c	17.9319
_cell_angle_alpha	90
_cell_angle_beta	96.387
_cell_angle_gamma	90
loop_
_atom_site_label
_atom_site_type_symbol
_atom_site_fract_x
_atom_site_fract_y
_atom_site_fract_z
_atom_site_charge
Mof_W 	W 	0.71508	0.01981	0.99674	0.257
Mof_Cu	Cu	0.81869	0.08978	0.97362	0.828
Mof_Cu	Cu	0.73681	0.0474	0.14348	0.83
Mof_Cu	Cu	0.78545	0.91166	0.01649	0.838
Mof_S 	S 	0.74013	0.11735	0.0457	-0.48
Mof_S 	S 	0.71353	0.94878	0.09107	-0.48
Mof_S 	S 	0.79084	0.98982	0.92639	-0.455
Mof_Br	Br	0.88303	0.86398	0.07607	-0.418
Mof_C 	C 	0.8299	0.2102	0.8815	0.07
Mof_H 	H 	0.8441	0.2295	0.9282	-0.01
Mof_C 	C 	0.8216	0.2476	0.8185	-0.124
Mof_H 	H 	0.8294	0.2921	0.8223	0.066
Mof_C 	C 	0.8019	0.2209	0.7496	0.052
Mof_C 	C 	0.7915	0.1567	0.7476	-0.117
Mof_H 	H 	0.7787	0.1363	0.7011	0.064
Mof_C 	C 	0.7998	0.1214	0.8132	0.058
Mof_H 	H 	0.7917	0.0768	0.8106	-0.009
Mof_C 	C 	0.7886	0.2596	0.6808	0.058
Mof_C 	C 	0.8252	0.3114	0.6652	-0.133
Mof_H 	H 	0.8627	0.3214	0.6968	0.081
Mof_C 	C 	0.8062	0.3485	0.6028	0.082
Mof_H 	H 	0.8319	0.3838	0.5931	-0.021
Mof_C 	C 	0.7213	0.2867	0.5707	0.064
Mof_H 	H 	0.6846	0.2774	0.5374	0.007
Mof_C 	C 	0.7359	0.2468	0.6299	-0.132
Mof_H 	H 	0.7104	0.2105	0.6365	0.069
Mof_C 	C 	0.1802	0.1033	0.2291	0.065
Mof_H 	H 	0.2131	0.1337	0.2287	-0.008
Mof_C 	C 	0.1268	0.1118	0.1797	-0.127
Mof_H 	H 	0.1233	0.1474	0.1469	0.07
Mof_C 	C 	0.078	0.0679	0.1782	0.051
Mof_C 	C 	0.0867	0.0176	0.2272	-0.124
Mof_H 	H 	0.0549	0.9859	0.2273	0.073
Mof_C 	C 	0.1404	0.0125	0.2757	0.065
Mof_H 	H 	0.1438	0.9777	0.3098	-0.022
Mof_C 	C 	0.0201	0.0755	0.125	0.05
Mof_C 	C 	0.996	0.1335	0.1015	-0.124
Mof_H 	H 	0.0184	0.1712	0.1173	0.071
Mof_C 	C 	0.9399	0.1381	0.0556	0.079
Mof_H 	H 	0.9244	0.1793	0.0416	-0.014
Mof_C 	C 	0.9301	0.0313	0.0504	0.067
Mof_H 	H 	0.9074	0.9945	0.0321	-0.03
Mof_C 	C 	0.9871	0.0226	0.0978	-0.118
Mof_H 	H 	0.0022	0.981	0.1106	0.075
Mof_C 	C 	0.6436	0.0389	0.2598	0.062
Mof_H 	H 	0.6786	0.023	0.2917	-0.012
Mof_C 	C 	0.5839	0.0376	0.2848	-0.124
Mof_H 	H 	0.579	0.0231	0.334	0.059
Mof_C 	C 	0.532	0.0575	0.2376	0.048
Mof_C 	C 	0.5419	0.0791	0.167	-0.124
Mof_H 	H 	0.5074	0.0921	0.1322	0.068
Mof_C 	C 	0.603	0.0816	0.1479	0.061
Mof_H 	H 	0.6095	0.0983	0.1001	-0.016
Mof_N 	N 	0.8186	0.1472	0.8797	-0.231
Mof_N 	N 	0.7553	0.3383	0.5563	-0.222
Mof_N 	N 	0.189	0.054	0.2783	-0.247
Mof_N 	N 	0.9068	0.0878	0.03	-0.248
Mof_N 	N 	0.6531	0.0618	0.1927	-0.227
Mof_W 	W 	0.21508	0.51981	0.99674	0.266
Mof_Cu	Cu	0.31869	0.58978	0.97362	0.831
Mof_Cu	Cu	0.23681	0.5474	0.14348	0.831
Mof_Cu	Cu	0.28545	0.41166	0.01649	0.84
Mof_S 	S 	0.24013	0.61735	0.0457	-0.483
Mof_S 	S 	0.21353	0.44878	0.09107	-0.479
Mof_S 	S 	0.29084	0.48982	0.92639	-0.458
Mof_Br	Br	0.38303	0.36398	0.07607	-0.415
Mof_C 	C 	0.3299	0.7102	0.8815	0.07
Mof_H 	H 	0.3441	0.7295	0.9282	-0.009
Mof_C 	C 	0.3216	0.7476	0.8185	-0.124
Mof_H 	H 	0.3294	0.7921	0.8223	0.066
Mof_C 	C 	0.3019	0.7209	0.7496	0.052
Mof_C 	C 	0.2915	0.6567	0.7476	-0.117
Mof_H 	H 	0.2787	0.6363	0.7011	0.064
Mof_C 	C 	0.2998	0.6214	0.8132	0.058
Mof_H 	H 	0.2917	0.5768	0.8106	-0.008
Mof_C 	C 	0.2886	0.7596	0.6808	0.058
Mof_C 	C 	0.3252	0.8114	0.6652	-0.133
Mof_H 	H 	0.3627	0.8214	0.6968	0.081
Mof_C 	C 	0.3062	0.8485	0.6028	0.083
Mof_H 	H 	0.3319	0.8838	0.5931	-0.021
Mof_C 	C 	0.2213	0.7867	0.5707	0.064
Mof_H 	H 	0.1846	0.7774	0.5374	0.007
Mof_C 	C 	0.2359	0.7468	0.6299	-0.132
Mof_H 	H 	0.2104	0.7105	0.6365	0.069
Mof_C 	C 	0.6802	0.6033	0.2291	0.064
Mof_H 	H 	0.7131	0.6337	0.2287	-0.008
Mof_C 	C 	0.6268	0.6118	0.1797	-0.126
Mof_H 	H 	0.6233	0.6474	0.1469	0.07
Mof_C 	C 	0.578	0.5679	0.1782	0.049
Mof_C 	C 	0.5867	0.5176	0.2272	-0.125
Mof_H 	H 	0.5549	0.4859	0.2273	0.075
Mof_C 	C 	0.6404	0.5125	0.2757	0.064
Mof_H 	H 	0.6438	0.4777	0.3098	-0.021
Mof_C 	C 	0.5201	0.5755	0.125	0.056
Mof_C 	C 	0.496	0.6335	0.1015	-0.13
Mof_H 	H 	0.5184	0.6712	0.1173	0.073
Mof_C 	C 	0.4399	0.6381	0.0556	0.081
Mof_H 	H 	0.4244	0.6793	0.0416	-0.016
Mof_C 	C 	0.4301	0.5313	0.0504	0.065
Mof_H 	H 	0.4074	0.4945	0.0321	-0.027
Mof_C 	C 	0.4871	0.5226	0.0978	-0.125
Mof_H 	H 	0.5022	0.481	0.1106	0.08
Mof_C 	C 	0.1436	0.5389	0.2598	0.062
Mof_H 	H 	0.1786	0.523	0.2917	-0.012
Mof_C 	C 	0.0839	0.5376	0.2848	-0.123
Mof_H 	H 	0.079	0.5231	0.334	0.058
Mof_C 	C 	0.032	0.5575	0.2376	0.046
Mof_C 	C 	0.0419	0.5791	0.167	-0.124
Mof_H 	H 	0.0074	0.5921	0.1322	0.067
Mof_C 	C 	0.103	0.5816	0.1479	0.06
Mof_H 	H 	0.1095	0.5983	0.1001	-0.016
Mof_N 	N 	0.3186	0.6472	0.8797	-0.23
Mof_N 	N 	0.2553	0.8383	0.5563	-0.222
Mof_N 	N 	0.689	0.554	0.2783	-0.247
Mof_N 	N 	0.4068	0.5878	0.03	-0.249
Mof_N 	N 	0.1531	0.5618	0.1927	-0.227
Mof_W 	W 	0.28492	0.01981	0.50326	0.263
Mof_Cu	Cu	0.18131	0.08978	0.52638	0.83
Mof_Cu	Cu	0.26319	0.0474	0.35652	0.831
Mof_Cu	Cu	0.21455	0.91166	0.48351	0.84
Mof_S 	S 	0.25987	0.11735	0.4543	-0.483
Mof_S 	S 	0.28647	0.94878	0.40893	-0.479
Mof_S 	S 	0.20916	0.98982	0.57361	-0.458
Mof_Br	Br	0.11697	0.86398	0.42393	-0.416
Mof_C 	C 	0.1701	0.2102	0.6185	0.07
Mof_H 	H 	0.1559	0.2295	0.5718	-0.009
Mof_C 	C 	0.1784	0.2476	0.6815	-0.124
Mof_H 	H 	0.1706	0.2921	0.6777	0.066
Mof_C 	C 	0.1981	0.2209	0.7504	0.052
Mof_C 	C 	0.2085	0.1567	0.7524	-0.117
Mof_H 	H 	0.2213	0.1363	0.7989	0.063
Mof_C 	C 	0.2002	0.1214	0.6868	0.058
Mof_H 	H 	0.2083	0.0768	0.6894	-0.009
Mof_C 	C 	0.2114	0.2596	0.8192	0.058
Mof_C 	C 	0.1748	0.3114	0.8348	-0.133
Mof_H 	H 	0.1373	0.3214	0.8032	0.081
Mof_C 	C 	0.1938	0.3485	0.8972	0.082
Mof_H 	H 	0.1681	0.3838	0.9069	-0.021
Mof_C 	C 	0.2787	0.2867	0.9293	0.064
Mof_H 	H 	0.3154	0.2774	0.9626	0.007
Mof_C 	C 	0.2641	0.2468	0.8701	-0.132
Mof_H 	H 	0.2896	0.2105	0.8635	0.069
Mof_C 	C 	0.8198	0.1033	0.2709	0.064
Mof_H 	H 	0.7869	0.1337	0.2713	-0.008
Mof_C 	C 	0.8732	0.1118	0.3203	-0.125
Mof_H 	H 	0.8767	0.1474	0.3531	0.07
Mof_C 	C 	0.922	0.0679	0.3218	0.048
Mof_C 	C 	0.9133	0.0176	0.2728	-0.123
Mof_H 	H 	0.9451	0.9859	0.2727	0.073
Mof_C 	C 	0.8596	0.0125	0.2243	0.066
Mof_H 	H 	0.8562	0.9777	0.1902	-0.023
Mof_C 	C 	0.9799	0.0755	0.375	0.057
Mof_C 	C 	0.004	0.1335	0.3985	-0.131
Mof_H 	H 	0.9816	0.1712	0.3827	0.073
Mof_C 	C 	0.0601	0.1381	0.4444	0.082
Mof_H 	H 	0.0756	0.1793	0.4584	-0.016
Mof_C 	C 	0.0699	0.0313	0.4496	0.066
Mof_H 	H 	0.0926	0.9945	0.4679	-0.028
Mof_C 	C 	0.0129	0.0226	0.4022	-0.126
Mof_H 	H 	0.9978	0.981	0.3894	0.079
Mof_C 	C 	0.3564	0.0389	0.2402	0.062
Mof_H 	H 	0.3214	0.023	0.2083	-0.012
Mof_C 	C 	0.4161	0.0376	0.2152	-0.124
Mof_H 	H 	0.421	0.0231	0.166	0.059
Mof_C 	C 	0.468	0.0575	0.2624	0.048
Mof_C 	C 	0.4581	0.0791	0.333	-0.124
Mof_H 	H 	0.4926	0.0921	0.3678	0.068
Mof_C 	C 	0.397	0.0816	0.3521	0.06
Mof_H 	H 	0.3905	0.0983	0.3999	-0.016
Mof_N 	N 	0.1814	0.1472	0.6203	-0.23
Mof_N 	N 	0.2447	0.3383	0.9437	-0.222
Mof_N 	N 	0.811	0.054	0.2217	-0.247
Mof_N 	N 	0.0932	0.0878	0.47	-0.249
Mof_N 	N 	0.3469	0.0618	0.3073	-0.227
Mof_W 	W 	0.78492	0.51981	0.50326	0.264
Mof_Cu	Cu	0.68131	0.58978	0.52638	0.831
Mof_Cu	Cu	0.76319	0.5474	0.35652	0.831
Mof_Cu	Cu	0.71455	0.41166	0.48351	0.84
Mof_S 	S 	0.75987	0.61735	0.4543	-0.483
Mof_S 	S 	0.78647	0.44878	0.40893	-0.479
Mof_S 	S 	0.70916	0.48982	0.57361	-0.458
Mof_Br	Br	0.61697	0.36398	0.42393	-0.416
Mof_C 	C 	0.6701	0.7102	0.6185	0.07
Mof_H 	H 	0.6559	0.7295	0.5718	-0.009
Mof_C 	C 	0.6784	0.7476	0.6815	-0.124
Mof_H 	H 	0.6706	0.7921	0.6777	0.066
Mof_C 	C 	0.6981	0.7209	0.7504	0.052
Mof_C 	C 	0.7085	0.6567	0.7524	-0.117
Mof_H 	H 	0.7213	0.6363	0.7989	0.064
Mof_C 	C 	0.7002	0.6214	0.6868	0.058
Mof_H 	H 	0.7083	0.5768	0.6894	-0.008
Mof_C 	C 	0.7114	0.7596	0.8192	0.058
Mof_C 	C 	0.6748	0.8114	0.8348	-0.133
Mof_H 	H 	0.6373	0.8214	0.8032	0.081
Mof_C 	C 	0.6938	0.8485	0.8972	0.082
Mof_H 	H 	0.6681	0.8838	0.9069	-0.02
Mof_C 	C 	0.7787	0.7867	0.9293	0.064
Mof_H 	H 	0.8154	0.7774	0.9626	0.008
Mof_C 	C 	0.7641	0.7468	0.8701	-0.132
Mof_H 	H 	0.7896	0.7105	0.8635	0.069
Mof_C 	C 	0.3198	0.6033	0.2709	0.064
Mof_H 	H 	0.2869	0.6337	0.2713	-0.008
Mof_C 	C 	0.3732	0.6118	0.3203	-0.126
Mof_H 	H 	0.3767	0.6474	0.3531	0.07
Mof_C 	C 	0.422	0.5679	0.3218	0.049
Mof_C 	C 	0.4133	0.5176	0.2728	-0.125
Mof_H 	H 	0.4451	0.4859	0.2727	0.075
Mof_C 	C 	0.3596	0.5125	0.2243	0.064
Mof_H 	H 	0.3562	0.4777	0.1902	-0.021
Mof_C 	C 	0.4799	0.5755	0.375	0.056
Mof_C 	C 	0.504	0.6335	0.3985	-0.129
Mof_H 	H 	0.4816	0.6712	0.3827	0.073
Mof_C 	C 	0.5601	0.6381	0.4444	0.081
Mof_H 	H 	0.5756	0.6793	0.4584	-0.016
Mof_C 	C 	0.5699	0.5313	0.4496	0.065
Mof_H 	H 	0.5926	0.4945	0.4679	-0.027
Mof_C 	C 	0.5129	0.5226	0.4022	-0.125
Mof_H 	H 	0.4978	0.481	0.3894	0.08
Mof_C 	C 	0.8564	0.5389	0.2402	0.062
Mof_H 	H 	0.8214	0.523	0.2083	-0.012
Mof_C 	C 	0.9161	0.5376	0.2152	-0.124
Mof_H 	H 	0.921	0.5231	0.166	0.059
Mof_C 	C 	0.968	0.5575	0.2624	0.048
Mof_C 	C 	0.9581	0.5791	0.333	-0.124
Mof_H 	H 	0.9926	0.5921	0.3678	0.068
Mof_C 	C 	0.897	0.5816	0.3521	0.06
Mof_H 	H 	0.8905	0.5983	0.3999	-0.017
Mof_N 	N 	0.6814	0.6472	0.6203	-0.23
Mof_N 	N 	0.7447	0.8383	0.9437	-0.221
Mof_N 	N 	0.311	0.554	0.2217	-0.247
Mof_N 	N 	0.5932	0.5878	0.47	-0.249
Mof_N 	N 	0.8469	0.5618	0.3073	-0.227
Mof_W 	W 	0.28492	0.98019	0.00326	0.258
Mof_Cu	Cu	0.18131	0.91022	0.02638	0.829
Mof_Cu	Cu	0.26319	0.9526	0.85652	0.831
Mof_Cu	Cu	0.21455	0.08834	0.98351	0.839
Mof_S 	S 	0.25987	0.88265	0.9543	-0.479
Mof_S 	S 	0.28647	0.05122	0.90893	-0.479
Mof_S 	S 	0.20916	0.01018	0.07361	-0.454
Mof_Br	Br	0.11697	0.13602	0.92393	-0.417
Mof_C 	C 	0.1701	0.7898	0.1185	0.07
Mof_H 	H 	0.1559	0.7705	0.0718	-0.01
Mof_C 	C 	0.1784	0.7524	0.1815	-0.124
Mof_H 	H 	0.1706	0.7079	0.1777	0.066
Mof_C 	C 	0.1981	0.7791	0.2504	0.052
Mof_C 	C 	0.2085	0.8433	0.2524	-0.117
Mof_H 	H 	0.2213	0.8637	0.2989	0.064
Mof_C 	C 	0.2002	0.8786	0.1868	0.058
Mof_H 	H 	0.2083	0.9232	0.1894	-0.009
Mof_C 	C 	0.2114	0.7404	0.3192	0.058
Mof_C 	C 	0.1748	0.6886	0.3348	-0.133
Mof_H 	H 	0.1373	0.6786	0.3032	0.081
Mof_C 	C 	0.1938	0.6515	0.3972	0.082
Mof_H 	H 	0.1681	0.6162	0.4069	-0.021
Mof_C 	C 	0.2787	0.7133	0.4293	0.064
Mof_H 	H 	0.3154	0.7226	0.4626	0.007
Mof_C 	C 	0.2641	0.7532	0.3701	-0.132
Mof_H 	H 	0.2896	0.7895	0.3635	0.069
Mof_C 	C 	0.8198	0.8967	0.7709	0.065
Mof_H 	H 	0.7869	0.8663	0.7713	-0.008
Mof_C 	C 	0.8732	0.8882	0.8203	-0.127
Mof_H 	H 	0.8767	0.8526	0.8531	0.07
Mof_C 	C 	0.922	0.9321	0.8218	0.051
Mof_C 	C 	0.9133	0.9824	0.7728	-0.124
Mof_H 	H 	0.9451	0.0141	0.7727	0.073
Mof_C 	C 	0.8596	0.9875	0.7243	0.065
Mof_H 	H 	0.8562	0.0223	0.6902	-0.022
Mof_C 	C 	0.9799	0.9245	0.875	0.05
Mof_C 	C 	0.004	0.8665	0.8985	-0.124
Mof_H 	H 	0.9816	0.8288	0.8827	0.071
Mof_C 	C 	0.0601	0.8619	0.9444	0.079
Mof_H 	H 	0.0756	0.8207	0.9584	-0.014
Mof_C 	C 	0.0699	0.9687	0.9496	0.067
Mof_H 	H 	0.0926	0.0055	0.9679	-0.03
Mof_C 	C 	0.0129	0.9774	0.9022	-0.118
Mof_H 	H 	0.9978	0.019	0.8894	0.075
Mof_C 	C 	0.3564	0.9611	0.7402	0.062
Mof_H 	H 	0.3214	0.977	0.7083	-0.012
Mof_C 	C 	0.4161	0.9624	0.7152	-0.124
Mof_H 	H 	0.421	0.9769	0.666	0.059
Mof_C 	C 	0.468	0.9425	0.7624	0.048
Mof_C 	C 	0.4581	0.9209	0.833	-0.124
Mof_H 	H 	0.4926	0.9079	0.8678	0.068
Mof_C 	C 	0.397	0.9184	0.8521	0.061
Mof_H 	H 	0.3905	0.9017	0.8999	-0.016
Mof_N 	N 	0.1814	0.8528	0.1203	-0.231
Mof_N 	N 	0.2447	0.6617	0.4437	-0.222
Mof_N 	N 	0.811	0.946	0.7217	-0.247
Mof_N 	N 	0.0932	0.9122	0.97	-0.248
Mof_N 	N 	0.3469	0.9382	0.8073	-0.227
Mof_W 	W 	0.78492	0.48019	0.00326	0.266
Mof_Cu	Cu	0.68131	0.41022	0.02638	0.831
Mof_Cu	Cu	0.76319	0.4526	0.85652	0.831
Mof_Cu	Cu	0.71455	0.58834	0.98351	0.84
Mof_S 	S 	0.75987	0.38265	0.9543	-0.483
Mof_S 	S 	0.78647	0.55122	0.90893	-0.479
Mof_S 	S 	0.70916	0.51018	0.07361	-0.458
Mof_Br	Br	0.61697	0.63602	0.92393	-0.415
Mof_C 	C 	0.6701	0.2898	0.1185	0.07
Mof_H 	H 	0.6559	0.2705	0.0718	-0.009
Mof_C 	C 	0.6784	0.2524	0.1815	-0.124
Mof_H 	H 	0.6706	0.2079	0.1777	0.066
Mof_C 	C 	0.6981	0.2791	0.2504	0.052
Mof_C 	C 	0.7085	0.3433	0.2524	-0.117
Mof_H 	H 	0.7213	0.3637	0.2989	0.064
Mof_C 	C 	0.7002	0.3786	0.1868	0.058
Mof_H 	H 	0.7083	0.4232	0.1894	-0.008
Mof_C 	C 	0.7114	0.2404	0.3192	0.058
Mof_C 	C 	0.6748	0.1886	0.3348	-0.133
Mof_H 	H 	0.6373	0.1786	0.3032	0.081
Mof_C 	C 	0.6938	0.1515	0.3972	0.083
Mof_H 	H 	0.6681	0.1162	0.4069	-0.021
Mof_C 	C 	0.7787	0.2133	0.4293	0.064
Mof_H 	H 	0.8154	0.2226	0.4626	0.007
Mof_C 	C 	0.7641	0.2532	0.3701	-0.132
Mof_H 	H 	0.7896	0.2895	0.3635	0.069
Mof_C 	C 	0.3198	0.3967	0.7709	0.064
Mof_H 	H 	0.2869	0.3663	0.7713	-0.008
Mof_C 	C 	0.3732	0.3882	0.8203	-0.126
Mof_H 	H 	0.3767	0.3526	0.8531	0.07
Mof_C 	C 	0.422	0.4321	0.8218	0.049
Mof_C 	C 	0.4133	0.4824	0.7728	-0.125
Mof_H 	H 	0.4451	0.5141	0.7727	0.075
Mof_C 	C 	0.3596	0.4875	0.7243	0.064
Mof_H 	H 	0.3562	0.5223	0.6902	-0.021
Mof_C 	C 	0.4799	0.4245	0.875	0.056
Mof_C 	C 	0.504	0.3665	0.8985	-0.13
Mof_H 	H 	0.4816	0.3288	0.8827	0.073
Mof_C 	C 	0.5601	0.3619	0.9444	0.081
Mof_H 	H 	0.5756	0.3207	0.9584	-0.016
Mof_C 	C 	0.5699	0.4687	0.9496	0.065
Mof_H 	H 	0.5926	0.5055	0.9679	-0.027
Mof_C 	C 	0.5129	0.4774	0.9022	-0.125
Mof_H 	H 	0.4978	0.519	0.8894	0.08
Mof_C 	C 	0.8564	0.4611	0.7402	0.062
Mof_H 	H 	0.8214	0.477	0.7083	-0.012
Mof_C 	C 	0.9161	0.4624	0.7152	-0.123
Mof_H 	H 	0.921	0.4769	0.666	0.058
Mof_C 	C 	0.968	0.4425	0.7624	0.046
Mof_C 	C 	0.9581	0.4209	0.833	-0.124
Mof_H 	H 	0.9926	0.4079	0.8678	0.067
Mof_C 	C 	0.897	0.4184	0.8521	0.06
Mof_H 	H 	0.8905	0.4017	0.8999	-0.016
Mof_N 	N 	0.6814	0.3528	0.1203	-0.23
Mof_N 	N 	0.7447	0.1617	0.4437	-0.222
Mof_N 	N 	0.311	0.446	0.7217	-0.247
Mof_N 	N 	0.5932	0.4122	0.97	-0.249
Mof_N 	N 	0.8469	0.4382	0.8073	-0.227
Mof_W 	W 	0.71508	0.98019	0.49674	0.263
Mof_Cu	Cu	0.81869	0.91022	0.47362	0.83
Mof_Cu	Cu	0.73681	0.9526	0.64348	0.831
Mof_Cu	Cu	0.78545	0.08834	0.51649	0.84
Mof_S 	S 	0.74013	0.88265	0.5457	-0.483
Mof_S 	S 	0.71353	0.05122	0.59107	-0.479
Mof_S 	S 	0.79084	0.01018	0.42639	-0.458
Mof_Br	Br	0.88303	0.13602	0.57607	-0.416
Mof_C 	C 	0.8299	0.7898	0.3815	0.07
Mof_H 	H 	0.8441	0.7705	0.4282	-0.009
Mof_C 	C 	0.8216	0.7524	0.3185	-0.124
Mof_H 	H 	0.8294	0.7079	0.3223	0.066
Mof_C 	C 	0.8019	0.7791	0.2496	0.052
Mof_C 	C 	0.7915	0.8433	0.2476	-0.117
Mof_H 	H 	0.7787	0.8637	0.2011	0.063
Mof_C 	C 	0.7998	0.8786	0.3132	0.058
Mof_H 	H 	0.7917	0.9232	0.3106	-0.009
Mof_C 	C 	0.7886	0.7404	0.1808	0.058
Mof_C 	C 	0.8252	0.6886	0.1652	-0.133
Mof_H 	H 	0.8627	0.6786	0.1968	0.081
Mof_C 	C 	0.8062	0.6515	0.1028	0.082
Mof_H 	H 	0.8319	0.6162	0.0931	-0.021
Mof_C 	C 	0.7213	0.7133	0.0707	0.064
Mof_H 	H 	0.6846	0.7226	0.0374	0.007
Mof_C 	C 	0.7359	0.7532	0.1299	-0.132
Mof_H 	H 	0.7104	0.7895	0.1365	0.069
Mof_C 	C 	0.1802	0.8967	0.7291	0.064
Mof_H 	H 	0.2131	0.8663	0.7287	-0.008
Mof_C 	C 	0.1268	0.8882	0.6797	-0.125
Mof_H 	H 	0.1233	0.8526	0.6469	0.07
Mof_C 	C 	0.078	0.9321	0.6782	0.048
Mof_C 	C 	0.0867	0.9824	0.7272	-0.123
Mof_H 	H 	0.0549	0.0141	0.7273	0.073
Mof_C 	C 	0.1404	0.9875	0.7757	0.066
Mof_H 	H 	0.1438	0.0223	0.8098	-0.023
Mof_C 	C 	0.0201	0.9245	0.625	0.057
Mof_C 	C 	0.996	0.8665	0.6015	-0.131
Mof_H 	H 	0.0184	0.8288	0.6173	0.073
Mof_C 	C 	0.9399	0.8619	0.5556	0.082
Mof_H 	H 	0.9244	0.8207	0.5416	-0.016
Mof_C 	C 	0.9301	0.9687	0.5504	0.066
Mof_H 	H 	0.9074	0.0055	0.5321	-0.028
Mof_C 	C 	0.9871	0.9774	0.5978	-0.126
Mof_H 	H 	0.0022	0.019	0.6106	0.079
Mof_C 	C 	0.6436	0.9611	0.7598	0.062
Mof_H 	H 	0.6786	0.977	0.7917	-0.012
Mof_C 	C 	0.5839	0.9624	0.7848	-0.124
Mof_H 	H 	0.579	0.9769	0.834	0.059
Mof_C 	C 	0.532	0.9425	0.7376	0.048
Mof_C 	C 	0.5419	0.9209	0.667	-0.124
Mof_H 	H 	0.5074	0.9079	0.6322	0.068
Mof_C 	C 	0.603	0.9184	0.6479	0.06
Mof_H 	H 	0.6095	0.9017	0.6001	-0.016
Mof_N 	N 	0.8186	0.8528	0.3797	-0.23
Mof_N 	N 	0.7553	0.6617	0.0563	-0.222
Mof_N 	N 	0.189	0.946	0.7783	-0.247
Mof_N 	N 	0.9068	0.9122	0.53	-0.249
Mof_N 	N 	0.6531	0.9382	0.6927	-0.227
Mof_W 	W 	0.21508	0.48019	0.49674	0.264
Mof_Cu	Cu	0.31869	0.41022	0.47362	0.831
Mof_Cu	Cu	0.23681	0.4526	0.64348	0.831
Mof_Cu	Cu	0.28545	0.58834	0.51649	0.84
Mof_S 	S 	0.24013	0.38265	0.5457	-0.483
Mof_S 	S 	0.21353	0.55122	0.59107	-0.479
Mof_S 	S 	0.29084	0.51018	0.42639	-0.458
Mof_Br	Br	0.38303	0.63602	0.57607	-0.416
Mof_C 	C 	0.3299	0.2898	0.3815	0.07
Mof_H 	H 	0.3441	0.2705	0.4282	-0.009
Mof_C 	C 	0.3216	0.2524	0.3185	-0.124
Mof_H 	H 	0.3294	0.2079	0.3223	0.066
Mof_C 	C 	0.3019	0.2791	0.2496	0.052
Mof_C 	C 	0.2915	0.3433	0.2476	-0.117
Mof_H 	H 	0.2787	0.3637	0.2011	0.064
Mof_C 	C 	0.2998	0.3786	0.3132	0.058
Mof_H 	H 	0.2917	0.4232	0.3106	-0.008
Mof_C 	C 	0.2886	0.2404	0.1808	0.058
Mof_C 	C 	0.3252	0.1886	0.1652	-0.133
Mof_H 	H 	0.3627	0.1786	0.1968	0.081
Mof_C 	C 	0.3062	0.1515	0.1028	0.082
Mof_H 	H 	0.3319	0.1162	0.0931	-0.02
Mof_C 	C 	0.2213	0.2133	0.0707	0.064
Mof_H 	H 	0.1846	0.2226	0.0374	0.008
Mof_C 	C 	0.2359	0.2532	0.1299	-0.132
Mof_H 	H 	0.2104	0.2895	0.1365	0.069
Mof_C 	C 	0.6802	0.3967	0.7291	0.064
Mof_H 	H 	0.7131	0.3663	0.7287	-0.008
Mof_C 	C 	0.6268	0.3882	0.6797	-0.126
Mof_H 	H 	0.6233	0.3526	0.6469	0.07
Mof_C 	C 	0.578	0.4321	0.6782	0.049
Mof_C 	C 	0.5867	0.4824	0.7272	-0.125
Mof_H 	H 	0.5549	0.5141	0.7273	0.075
Mof_C 	C 	0.6404	0.4875	0.7757	0.064
Mof_H 	H 	0.6438	0.5223	0.8098	-0.021
Mof_C 	C 	0.5201	0.4245	0.625	0.056
Mof_C 	C 	0.496	0.3665	0.6015	-0.129
Mof_H 	H 	0.5184	0.3288	0.6173	0.073
Mof_C 	C 	0.4399	0.3619	0.5556	0.081
Mof_H 	H 	0.4244	0.3207	0.5416	-0.016
Mof_C 	C 	0.4301	0.4687	0.5504	0.065
Mof_H 	H 	0.4074	0.5055	0.5321	-0.027
Mof_C 	C 	0.4871	0.4774	0.5978	-0.125
Mof_H 	H 	0.5022	0.519	0.6106	0.08
Mof_C 	C 	0.1436	0.4611	0.7598	0.062
Mof_H 	H 	0.1786	0.477	0.7917	-0.012
Mof_C 	C 	0.0839	0.4624	0.7848	-0.124
Mof_H 	H 	0.079	0.4769	0.834	0.059
Mof_C 	C 	0.032	0.4425	0.7376	0.048
Mof_C 	C 	0.0419	0.4209	0.667	-0.124
Mof_H 	H 	0.0074	0.4079	0.6322	0.068
Mof_C 	C 	0.103	0.4184	0.6479	0.06
Mof_H 	H 	0.1095	0.4017	0.6001	-0.017
Mof_N 	N 	0.3186	0.3528	0.3797	-0.23
Mof_N 	N 	0.2553	0.1617	0.0563	-0.221
Mof_N 	N 	0.689	0.446	0.7783	-0.247
Mof_N 	N 	0.4068	0.4122	0.53	-0.249
Mof_N 	N 	0.1531	0.4382	0.6927	-0.227
_end
