data_functionalizedCrystal
_audit_creation_method	'EQeq! by Chris Wilmer'
_symmetry_space_group_name_H-M	'P1'
_symmetry_Int_Tables_number	1
_symmetry_cell_setting	triclinic
loop_
_symmetry_equiv_pos_as_xyz
  x,y,z
_cell_length_a	22.3608
_cell_length_b	22.3608
_cell_length_c	22.3608
_cell_angle_alpha	109.471
_cell_angle_beta	109.471
_cell_angle_gamma	109.471
loop_
_atom_site_label
_atom_site_type_symbol
_atom_site_fract_x
_atom_site_fract_y
_atom_site_fract_z
_atom_site_charge
Mof_Zn	Zn	0.5384	0.5384	0.0384	1.215
Mof_Zn	Zn	0.5	0.3048	0.5	1.196
Mof_Zn	Zn	-1.32089e-17	0.5	0.3048	1.188
Mof_Zn	Zn	0.5	0.4616	0.5	1.221
Mof_Zn	Zn	0.8048	0	-0	1.177
Mof_Zn	Zn	0.9616	0	-0	1.209
Mof_Zn	Zn	0.0384	0.0384	0.5384	1.21
Mof_Zn	Zn	2.64178e-17	0.5	0.4616	1.211
Mof_Zn	Zn	-2.64178e-17	0.5	0.8048	1.184
Mof_Zn	Zn	0.5	0.8048	0.5	1.196
Mof_Zn	Zn	0.5	0.9616	0.5	1.226
Mof_Zn	Zn	0.4616	0	-0	1.203
Mof_Zn	Zn	0.3048	0	-0	1.177
Mof_Zn	Zn	-2.64178e-17	0.5	0.9616	1.218
Mof_Zn	Zn	0.6952	0.6952	0.1952	1.196
Mof_Zn	Zn	0.1952	0.1952	0.6952	1.195
Mof_H 	H 	0.8139	0.5637	0.5218	0.116
Mof_H 	H 	0.4639	0.4958	0.6777	-0.033
Mof_H 	H 	0.2502	0.9581	0.4363	0.101
Mof_H 	H 	0.9238	0.4733	0.0699	0.105
Mof_H 	H 	0.0762	0.5495	0.6461	0.035
Mof_H 	H 	0.3231	0.0861	0.6794	-0.042
Mof_H 	H 	0.7498	0.7079	0.6861	0.111
Mof_H 	H 	0.8652	0.4046	0.5082	0.069
Mof_H 	H 	0.7862	0.3223	0.8181	-0.025
Mof_H 	H 	0.9381	0.0509	0.8868	0.1
Mof_H 	H 	0.9958	0.9639	0.1777	-0.102
Mof_H 	H 	0.3509	0.6136	0.9695	0.122
Mof_H 	H 	0.6461	0.0495	0.0762	0.043
Mof_H 	H 	0.9242	0.0889	0.5575	0.115
Mof_H 	H 	0.857	0.8964	0.4918	0.068
Mof_H 	H 	0.5314	0.9425	0.3667	0.09
Mof_H 	H 	0.4681	0.5042	0.1819	-0.035
Mof_H 	H 	0.9686	0.3353	0.4111	0.122
Mof_H 	H 	0.4046	0.0082	0.3652	-0.009
Mof_H 	H 	0.8814	0.6441	0.0305	0.145
Mof_H 	H 	0.3206	0.9067	0.1437	0.005
Mof_H 	H 	0.1437	0.4067	0.3206	-0.04
Mof_H 	H 	0.4387	0.5019	0.8518	0.05
Mof_H 	H 	0.143	0.0394	0.1348	0.066
Mof_H 	H 	0.3559	0.8864	0.2373	0.088
Mof_H 	H 	0.9695	0.1136	0.3509	0.164
Mof_H 	H 	0.4238	0.0699	0.4733	0.086
Mof_H 	H 	0.5632	0.0613	0.4131	0.049
Mof_H 	H 	0.4381	0.8868	0.0509	0.092
Mof_H 	H 	0.9491	0.3359	0.8872	0.08
Mof_H 	H 	0.8359	0.4491	0.3872	0.101
Mof_H 	H 	0.0575	0.9242	0.5889	0.134
Mof_H 	H 	0.4067	0.8206	0.6437	-0.069
Mof_H 	H 	0.4487	0.6128	0.0619	0.096
Mof_H 	H 	0.0019	0.9387	0.3518	-0.035
Mof_H 	H 	0.5575	0.5889	0.9242	0.115
Mof_H 	H 	0.5613	0.0632	0.9131	0.037
Mof_H 	H 	0.9981	0.9368	0.8499	0.135
Mof_H 	H 	0.737	0.9139	0.5933	-0.028
Mof_H 	H 	0.6482	0.0869	0.1501	0.061
Mof_H 	H 	0.4131	0.5613	0.5632	0.049
Mof_H 	H 	0.3757	0.9338	0.3645	0.012
Mof_H 	H 	0.0042	0.9681	0.6819	0.049
Mof_H 	H 	0.0112	0.6355	0.5693	0.068
Mof_H 	H 	0.5954	0.6036	0.4606	0.066
Mof_H 	H 	0.4363	0.4581	0.2502	0.11
Mof_H 	H 	0.4958	0.1777	0.9639	-0.116
Mof_H 	H 	0.3181	0.7862	0.8223	-0.028
Mof_H 	H 	0.5889	0.4242	0.0575	0.13
Mof_H 	H 	0.9918	0.857	0.3964	0.157
Mof_H 	H 	0.9046	0.3652	0.0082	-0.025
Mof_H 	H 	0.7138	0.5319	0.5361	-0.031
Mof_H 	H 	0.9782	0.7921	0.5419	0.227
Mof_H 	H 	0.0758	0.1647	0.1333	0.097
Mof_H 	H 	0.0314	0.3667	0.9425	0.07
Mof_H 	H 	0.5394	0.643	0.6348	0.066
Mof_H 	H 	0.9368	0.3499	0.4981	0.046
Mof_H 	H 	0.5699	0.9238	0.9733	0.045
Mof_H 	H 	0.8872	0.8359	0.9491	0.083
Mof_H 	H 	0.2498	0.6861	0.7079	0.11
Mof_H 	H 	0.0513	0.1132	0.1641	0.085
Mof_H 	H 	0.8563	0.263	0.6769	-0.028
Mof_H 	H 	0.3518	0.4387	0.0019	-0.037
Mof_H 	H 	0.1132	0.6641	0.5513	0.098
Mof_H 	H 	0.9034	0.8539	0.4301	0.04
Mof_H 	H 	0.5112	0.5693	0.6355	0.061
Mof_H 	H 	0.5762	0.6461	0.5495	0.04
Mof_H 	H 	0.0861	0.1794	0.8231	-0.009
Mof_H 	H 	0.0581	0.1243	0.9888	0.053
Mof_H 	H 	0.4606	0.1036	0.5954	0.066
Mof_H 	H 	0.4491	0.8872	0.3359	0.077
Mof_H 	H 	0.5042	0.6819	0.9681	0.07
Mof_H 	H 	0.9307	0.9419	0.5662	0.074
Mof_H 	H 	0.0662	0.9307	0.4419	0.128
Mof_H 	H 	0.0267	0.4505	0.0966	0.04
Mof_H 	H 	0.8645	0.3757	0.4338	0.065
Mof_H 	H 	0.5218	0.0637	0.8139	0.172
Mof_H 	H 	0.6861	0.2079	0.7498	0.109
Mof_H 	H 	0.3645	0.4338	0.3757	0.06
Mof_H 	H 	0.8559	0.2373	0.8864	0.125
Mof_H 	H 	0.0632	0.4131	0.0613	0.051
Mof_H 	H 	0.7921	0.0419	0.4782	0.123
Mof_H 	H 	0.1769	0.8563	0.763	-0.032
Mof_H 	H 	0.5319	0.0361	0.2138	0.035
Mof_H 	H 	0.3139	0.5218	0.5637	0.112
Mof_H 	H 	0.1461	0.0762	0.0495	0.041
Mof_H 	H 	0.8518	0.0019	0.4387	-0.019
Mof_H 	H 	0.6128	0.5619	0.9487	0.113
Mof_H 	H 	0.5267	0.0966	0.4505	0.04
Mof_H 	H 	0.5581	0.9888	0.1243	0.055
Mof_H 	H 	0.8499	0.4368	0.9981	0.136
Mof_H 	H 	0.7079	0.1861	0.2498	0.107
Mof_H 	H 	0.5966	0.0267	0.9505	0.029
Mof_H 	H 	0.9425	0.8667	0.0314	0.077
Mof_H 	H 	0.0305	0.1441	0.8814	0.11
Mof_H 	H 	0.8223	0.2862	0.3181	-0.029
Mof_H 	H 	0.0218	0.8139	0.0637	0.076
Mof_H 	H 	0.763	0.3563	0.1769	-0.035
Mof_H 	H 	0.9111	0.9686	0.8353	0.118
Mof_H 	H 	0.5619	0.4487	0.1128	0.128
Mof_H 	H 	0.8964	0.9918	0.357	0.138
Mof_H 	H 	0.0361	0.7138	0.0319	-0.049
Mof_H 	H 	0.2373	0.3864	0.3559	0.13
Mof_H 	H 	0.4034	0.4301	0.8539	0.042
Mof_H 	H 	0.3667	0.4425	0.5314	0.108
Mof_H 	H 	0.1036	0.0954	0.9606	0.053
Mof_H 	H 	0.5662	0.4419	0.9307	0.072
Mof_H 	H 	0.5513	0.1641	0.1132	0.097
Mof_H 	H 	0.3652	0.5082	0.4046	0.065
Mof_H 	H 	0.6441	0.5305	0.3814	0.131
Mof_H 	H 	0.9387	0.8518	0.5019	0.05
Mof_H 	H 	0.4425	0.0314	0.8667	0.104
Mof_H 	H 	0.7502	0.4363	0.9581	0.099
Mof_H 	H 	0.5419	0.2921	0.9782	0.23
Mof_H 	H 	0.6819	0.4681	0.0042	-0.027
Mof_H 	H 	0.0082	0.8652	0.9046	-0.023
Mof_H 	H 	0.5637	0.0218	0.3139	0.015
Mof_H 	H 	0.5693	0.1355	0.0112	0.066
Mof_H 	H 	0.0889	0.0575	0.4242	0.125
Mof_H 	H 	0.1333	0.6647	0.0758	0.097
Mof_H 	H 	0.0966	0.9505	0.0267	0.032
Mof_H 	H 	0.9639	0.6777	0.4958	-0.112
Mof_H 	H 	0.8864	0.7373	0.8559	0.125
Mof_H 	H 	0.1501	0.5869	0.6482	0.051
Mof_H 	H 	0.9139	0.0933	0.237	-0.07
Mof_H 	H 	0.6243	0.5581	0.4888	0.061
Mof_H 	H 	0.2862	0.8181	0.3223	-0.027
Mof_H 	H 	0.5082	0.9046	0.8652	0.072
Mof_H 	H 	0.4368	0.4981	0.3499	0.048
Mof_H 	H 	0.5495	0.1461	0.5762	0.037
Mof_H 	H 	0.0637	0.3139	0.0218	0.071
Mof_H 	H 	0.1647	0.6333	0.5758	0.108
Mof_H 	H 	0.9487	0.0619	0.6128	0.109
Mof_H 	H 	0.0495	0.5762	0.1461	0.044
Mof_H 	H 	0.3359	0.3872	0.4491	0.099
Mof_H 	H 	0.6136	0.4695	0.8509	0.137
Mof_H 	H 	0.2627	0.6186	0.1491	0.124
Mof_H 	H 	0.4139	0.237	0.0933	-0.091
Mof_H 	H 	0.3539	0.4034	0.9301	-0.02
Mof_H 	H 	0.9067	0.6437	0.8206	-0.025
Mof_H 	H 	0.3353	0.9111	0.4686	0.107
Mof_H 	H 	0.2138	0.5361	0.5319	-0.032
Mof_H 	H 	0.1186	0.7627	0.6491	0.125
Mof_H 	H 	0.6355	0.0693	0.5112	0.052
Mof_H 	H 	0.6647	0.5758	0.6333	0.108
Mof_H 	H 	0.6491	0.2627	0.1186	0.124
Mof_H 	H 	0.6437	0.3206	0.4067	-0.036
Mof_H 	H 	0.0319	0.2138	0.0361	-0.052
Mof_H 	H 	0.3872	0.9491	0.8359	0.109
Mof_H 	H 	0.3223	0.3181	0.2862	-0.03
Mof_H 	H 	0.0933	0.737	0.4139	-0.088
Mof_H 	H 	0.9301	0.9034	0.3539	-0.019
Mof_H 	H 	0.4338	0.8757	0.8645	0.064
Mof_H 	H 	0.1243	0.4888	0.5581	0.061
Mof_H 	H 	0.7373	0.3559	0.3864	0.132
Mof_H 	H 	0.1355	0.5112	0.0693	0.046
Mof_H 	H 	0.1348	0.5394	0.143	0.057
Mof_H 	H 	0.8667	0.5314	0.4425	0.112
Mof_H 	H 	0.3814	0.0305	0.6441	0.139
Mof_H 	H 	0.0699	0.9733	0.9238	0.105
Mof_H 	H 	0.2921	0.4782	0.0419	0.122
Mof_H 	H 	0.9581	0.9363	0.7502	0.045
Mof_H 	H 	0.8509	0.9695	0.6136	0.129
Mof_H 	H 	0.6348	0.143	0.5394	0.062
Mof_H 	H 	0.8353	0.4686	0.9111	0.108
Mof_H 	H 	0.0419	0.9782	0.2921	0.216
Mof_H 	H 	0.0693	0.0112	0.1355	0.053
Mof_H 	H 	0.0613	0.9131	0.0632	0.04
Mof_H 	H 	0.5869	0.1482	0.6501	0.048
Mof_H 	H 	0.4242	0.5575	0.0889	0.108
Mof_H 	H 	0.4686	0.4111	0.3353	0.107
Mof_H 	H 	0.6036	0.9606	0.0954	0.052
Mof_H 	H 	0.6333	0.0758	0.6647	0.102
Mof_H 	H 	0.4505	0.5966	0.5267	0.04
Mof_H 	H 	0.1819	0.0042	0.4681	-0.032
Mof_H 	H 	0.8757	0.3645	0.9338	-0.002
Mof_H 	H 	0.3964	0.357	0.9918	0.155
Mof_H 	H 	0.8231	0.6794	0.0861	-0.041
Mof_H 	H 	0.0394	0.6348	0.643	0.076
Mof_H 	H 	0.5019	0.3518	0.9387	0.048
Mof_H 	H 	0.1777	0.4639	0.9958	-0.037
Mof_H 	H 	0.9419	0.0662	0.4307	0.111
Mof_H 	H 	0.7627	0.1491	0.6186	0.126
Mof_H 	H 	0.3864	0.8559	0.7373	0.167
Mof_H 	H 	0.1641	0.6132	0.0513	0.086
Mof_H 	H 	0.6777	0.9958	0.4639	-0.036
Mof_H 	H 	0.1482	0.1501	0.0869	0.061
Mof_H 	H 	0.8206	0.1437	0.9067	-0.028
Mof_H 	H 	0.9888	0.6243	0.0581	0.053
Mof_H 	H 	0.6769	0.763	0.8563	-0.028
Mof_H 	H 	0.357	0.4918	0.8964	0.063
Mof_H 	H 	0.1491	0.1186	0.2627	0.121
Mof_H 	H 	0.6794	0.5861	0.3231	-0.034
Mof_H 	H 	0.0619	0.1128	0.4487	0.118
Mof_H 	H 	0.3499	0.9981	0.4368	0.117
Mof_H 	H 	0.9606	0.5954	0.1036	0.057
Mof_H 	H 	0.9131	0.5632	0.5613	0.037
Mof_H 	H 	0.9505	0.5267	0.5966	0.031
Mof_H 	H 	0.4981	0.8499	0.9368	0.046
Mof_H 	H 	0.1128	0.9487	0.5619	0.137
Mof_H 	H 	0.4419	0.4307	0.0662	0.121
Mof_H 	H 	0.4918	0.3964	0.857	0.069
Mof_H 	H 	0.4695	0.3509	0.1136	0.184
Mof_H 	H 	0.8539	0.9301	0.4034	-0.005
Mof_H 	H 	0.0509	0.3868	0.4381	0.09
Mof_H 	H 	0.3563	0.6769	0.263	-0.032
Mof_H 	H 	0.4782	0.5419	0.7921	0.113
Mof_H 	H 	0.0869	0.6501	0.1482	0.059
Mof_H 	H 	0.3868	0.9381	0.5509	0.103
Mof_H 	H 	0.5861	0.8231	0.1794	0.011
Mof_H 	H 	0.5509	0.4381	0.3868	0.099
Mof_H 	H 	0.1794	0.3231	0.5861	0.01
Mof_H 	H 	0.4733	0.5699	0.4238	0.039
Mof_H 	H 	0.4301	0.3539	0.9034	0.037
Mof_H 	H 	0.9733	0.4238	0.5699	0.041
Mof_H 	H 	0.1441	0.3814	0.5305	0.084
Mof_H 	H 	0.6132	0.5513	0.6641	0.1
Mof_H 	H 	0.8868	0.5509	0.9381	0.106
Mof_H 	H 	0.9681	0.1819	0.5042	0.072
Mof_H 	H 	0.6641	0.0513	0.6132	0.089
Mof_H 	H 	0.5361	0.0319	0.7138	-0.11
Mof_H 	H 	0.643	0.1348	0.0394	0.074
Mof_H 	H 	0.6501	0.6482	0.5869	0.05
Mof_H 	H 	0.2079	0.2498	0.1861	0.105
Mof_H 	H 	0.1861	0.7498	0.2079	0.106
Mof_H 	H 	0.4581	0.7502	0.9363	0.039
Mof_H 	H 	0.263	0.1769	0.3563	-0.036
Mof_H 	H 	0.9338	0.8645	0.8757	0
Mof_H 	H 	0.5305	0.8814	0.1441	0.09
Mof_H 	H 	0.6186	0.6491	0.7627	0.13
Mof_H 	H 	0.0954	0.4606	0.6036	0.06
Mof_H 	H 	0.4111	0.8353	0.9686	0.119
Mof_H 	H 	0.1136	0.8509	0.4695	0.186
Mof_H 	H 	0.4307	0.5662	0.9419	0.062
Mof_H 	H 	0.9363	0.2502	0.4581	0.034
Mof_H 	H 	0.237	0.5933	0.9139	-0.028
Mof_H 	H 	0.5758	0.1333	0.1647	0.104
Mof_H 	H 	0.5933	0.4139	0.737	-0.037
Mof_H 	H 	0.4888	0.0581	0.6243	0.06
Mof_H 	H 	0.8181	0.8223	0.7862	-0.024
Mof_C 	C 	0.3972	0.8014	0.3856	0.499
Mof_C 	C 	0.6325	0.5864	0.6497	-0.255
Mof_C 	C 	0.5633	0.5461	0.9136	-0.267
Mof_C 	C 	0.3948	0.4853	0.4127	-0.124
Mof_C 	C 	0.5045	0.511	0.2233	0.166
Mof_C 	C 	0.7666	0.1844	0.6588	-0.293
Mof_C 	C 	0.5444	0.0621	0.4465	-0.096
Mof_C 	C 	0.6052	0.0905	0.5179	-0.115
Mof_C 	C 	0.0036	0.7813	0.5183	-0.537
Mof_C 	C 	0.4539	0.8675	0.0172	-0.235
Mof_C 	C 	0.6628	0.2151	0.1759	0.225
Mof_C 	C 	0.0256	0.1078	0.8412	-0.258
Mof_C 	C 	0.1939	0.8237	0.7524	0.194
Mof_C 	C 	0.8702	0.1763	0.9287	0.186
Mof_C 	C 	0.0633	0.9136	0.5461	-0.36
Mof_C 	C 	0.4935	0.489	0.7123	0.172
Mof_C 	C 	0.5842	0.6986	0.0958	0.456
Mof_C 	C 	0.9415	0.0713	0.2476	0.306
Mof_C 	C 	0.2767	0.7812	0.7877	0.161
Mof_C 	C 	0.7767	0.7877	0.7812	0.161
Mof_C 	C 	0.6986	0.5958	0.0842	0.497
Mof_C 	C 	0.6144	0.9158	0.5116	0.506
Mof_C 	C 	0.0864	0.1325	0.1497	-0.247
Mof_C 	C 	0.3844	0.4379	0.9823	0.138
Mof_C 	C 	0.6763	0.3702	0.4287	0.204
Mof_C 	C 	0.3014	0.8972	0.8856	0.494
Mof_C 	C 	0.5177	0.9021	0.9556	-0.042
Mof_C 	C 	0.0979	0.5535	0.6156	-0.082
Mof_C 	C 	0.4821	0.0726	0.5873	-0.136
Mof_C 	C 	0.0172	0.3675	0.4539	-0.239
Mof_C 	C 	0.4964	0.0147	0.7777	-0.44
Mof_C 	C 	0.8856	0.3972	0.3014	0.496
Mof_C 	C 	0.0147	0.2777	0.9964	-0.224
Mof_C 	C 	0.9539	0.0172	0.8675	-0.237
Mof_C 	C 	0.8675	0.5172	0.9539	-0.248
Mof_C 	C 	0.8372	0.0131	0.5523	0.213
Mof_C 	C 	0.0116	0.6144	0.4158	0.508
Mof_C 	C 	0.8237	0.2524	0.6939	0.192
Mof_C 	C 	0.4744	0.3156	0.0822	-0.476
Mof_C 	C 	0.489	0.2123	0.9935	0.435
Mof_C 	C 	0.922	0.1659	0.9733	-0.22
Mof_C 	C 	0.2877	0.2767	0.2812	0.16
Mof_C 	C 	0.2777	0.4964	0.5147	-0.266
Mof_C 	C 	0.578	0.5513	0.2439	-0.253
Mof_C 	C 	0.4274	0.4095	0.0147	-0.342
Mof_C 	C 	0.7813	0.0183	0.5036	-0.304
Mof_C 	C 	0.9487	0.0267	0.1926	-0.377
Mof_C 	C 	0.9095	0.9274	0.5147	-0.125
Mof_C 	C 	0.5905	0.1052	0.0179	-0.181
Mof_C 	C 	0.4608	0.9477	0.2849	0.105
Mof_C 	C 	0.2666	0.6588	0.1844	-0.294
Mof_C 	C 	0.8061	0.6298	0.0585	0.219
Mof_C 	C 	0.9828	0.3503	0.9367	-0.171
Mof_C 	C 	0.0444	0.4465	0.0621	-0.132
Mof_C 	C 	0.511	0.7233	0.0045	-0.07
Mof_C 	C 	0.0392	0.3241	0.4869	0.082
Mof_C 	C 	0.8241	0.5392	0.9869	0.264
Mof_C 	C 	0.0958	0.1986	0.5842	0.453
Mof_C 	C 	0.4178	0.8922	0.7334	-0.41
Mof_C 	C 	0.7812	0.2877	0.7767	0.159
Mof_C 	C 	0.5585	0.8061	0.1298	0.074
Mof_C 	C 	0.763	0.4853	0.9817	-0.219
Mof_C 	C 	0.4817	0.763	0.9853	-0.041
Mof_C 	C 	0.5621	0.0444	0.9465	-0.034
Mof_C 	C 	0.2561	0.8341	0.8074	-0.245
Mof_C 	C 	0.9556	0.4021	0.5177	-0.042
Mof_C 	C 	0.8844	0.9823	0.4379	0.093
Mof_C 	C 	0.1298	0.3061	0.5585	0.066
Mof_C 	C 	0.5513	0.7439	0.078	-0.133
Mof_C 	C 	0.9608	0.2849	0.9477	0.224
Mof_C 	C 	0.9964	0.7777	0.0147	-0.223
Mof_C 	C 	0.4828	0.9367	0.3503	-0.176
Mof_C 	C 	0.4136	0.5633	0.0461	-0.264
Mof_C 	C 	0.0585	0.1298	0.8061	0.121
Mof_C 	C 	0.5116	0.4158	0.6144	0.503
Mof_C 	C 	0.0822	0.8156	0.4744	-0.473
Mof_C 	C 	0.4287	0.8702	0.6763	0.303
Mof_C 	C 	0.9869	0.0392	0.8241	0.157
Mof_C 	C 	0.4853	0.9127	0.8948	-0.134
Mof_C 	C 	0.5958	0.5842	0.1986	0.501
Mof_C 	C 	0.1759	0.7151	0.6628	0.226
Mof_C 	C 	0.6497	0.0864	0.6325	-0.248
Mof_C 	C 	0.9817	0.9853	0.763	-0.05
Mof_C 	C 	0.4127	0.9853	0.3948	0.052
Mof_C 	C 	0.9042	0.1028	0.9884	0.545
Mof_C 	C 	0.3074	0.2561	0.3341	-0.248
Mof_C 	C 	0.2123	0.4935	0.989	0.217
Mof_C 	C 	0.5147	0.4274	0.9095	-0.137
Mof_C 	C 	0.1986	0.0842	0.5958	0.498
Mof_C 	C 	0.4823	0.3844	0.9379	-0.05
Mof_C 	C 	0.3061	0.0585	0.6298	0.214
Mof_C 	C 	0.0183	0.0036	0.2813	-0.527
Mof_C 	C 	0.3412	0.0256	0.6078	-0.348
Mof_C 	C 	0.1763	0.4287	0.3702	0.204
Mof_C 	C 	0.5131	0.3372	0.0523	0.389
Mof_C 	C 	0.989	0.9935	0.2123	0.427
Mof_C 	C 	0.011	0.0045	0.7233	-0.062
Mof_C 	C 	0.4556	0.5177	0.4021	-0.076
Mof_C 	C 	0.5713	0.4415	0.7476	0.208
Mof_C 	C 	0.0842	0.0958	0.6986	0.463
Mof_C 	C 	0.4853	0.4817	0.263	-0.265
Mof_C 	C 	0.2812	0.7767	0.2877	0.16
Mof_C 	C 	0.4733	0.922	0.6659	-0.344
Mof_C 	C 	0.1078	0.3412	0.5256	-0.165
Mof_C 	C 	0.9853	0.8948	0.9127	0.094
Mof_C 	C 	0.5179	0.5905	0.6052	-0.125
Mof_C 	C 	0.1325	0.6497	0.5864	-0.257
Mof_C 	C 	0.237	0.7223	0.7187	-0.26
Mof_C 	C 	0.9733	0.6659	0.922	-0.217
Mof_C 	C 	0.6156	0.0535	0.0979	-0.134
Mof_C 	C 	0.4158	0.1144	0.0116	0.508
Mof_C 	C 	0.5267	0.4487	0.6926	-0.255
Mof_C 	C 	0.0873	0.4821	0.5726	-0.12
Mof_C 	C 	0.8014	0.8856	0.8972	0.493
Mof_C 	C 	0.3237	0.6939	0.2524	0.192
Mof_C 	C 	0.4465	0.5621	0.5444	-0.076
Mof_C 	C 	0.0179	0.6052	0.5905	-0.183
Mof_C 	C 	0.422	0.9733	0.1659	-0.128
Mof_C 	C 	0.5036	0.5183	0.7813	-0.27
Mof_C 	C 	0.2813	0.5036	0.0183	-0.308
Mof_C 	C 	0.9821	0.5873	0.0726	-0.083
Mof_C 	C 	0.7877	0.2812	0.2767	0.161
Mof_C 	C 	0.0177	0.9556	0.9021	-0.273
Mof_C 	C 	0.5822	0.4744	0.8156	-0.312
Mof_C 	C 	0.9853	0.263	0.4817	-0.028
Mof_C 	C 	0.7849	0.4608	0.4477	0.233
Mof_C 	C 	0.9477	0.7849	0.9608	0.224
Mof_C 	C 	0.1628	0.1759	0.2151	0.219
Mof_C 	C 	0.078	0.2439	0.5513	-0.13
Mof_C 	C 	0.7151	0.1628	0.6759	0.221
Mof_C 	C 	0.9178	0.7334	0.8922	-0.275
Mof_C 	C 	0.1156	0.0979	0.0535	-0.134
Mof_C 	C 	0.0513	0.078	0.7439	-0.162
Mof_C 	C 	0.0147	0.9095	0.4274	-0.346
Mof_C 	C 	0.2849	0.4477	0.4608	0.232
Mof_C 	C 	0.8948	0.4127	0.4853	-0.135
Mof_C 	C 	0.6588	0.6844	0.7666	-0.297
Mof_C 	C 	0.5183	0.2813	0.0036	-0.546
Mof_C 	C 	0.8972	0.3856	0.8014	0.496
Mof_C 	C 	0.4415	0.2476	0.0713	0.354
Mof_C 	C 	0.4884	0.9042	0.6028	0.537
Mof_C 	C 	0.0267	0.6926	0.4487	-0.403
Mof_C 	C 	0.7223	0.2187	0.737	-0.255
Mof_C 	C 	0.6926	0.9487	0.5267	-0.255
Mof_C 	C 	0.0131	0.0523	0.3372	0.323
Mof_C 	C 	0.5392	0.4869	0.3241	0.23
Mof_C 	C 	0.0045	0.2233	0.511	-0.084
Mof_C 	C 	0.4042	0.9884	0.1028	0.499
Mof_C 	C 	0.8156	0.9744	0.5822	-0.268
Mof_C 	C 	0.2524	0.1939	0.3237	0.192
Mof_C 	C 	0.7561	0.8074	0.8341	-0.24
Mof_C 	C 	0.2151	0.6759	0.1628	0.219
Mof_C 	C 	0.8341	0.3074	0.7561	-0.241
Mof_C 	C 	0.4869	0.8241	0.0392	0.09
Mof_C 	C 	0.7233	0.5045	0.011	0.115
Mof_C 	C 	0.5256	0.8412	0.1078	-0.171
Mof_C 	C 	0.4477	0.9608	0.7849	0.343
Mof_C 	C 	0.3702	0.9287	0.1763	0.081
Mof_C 	C 	0.0713	0.7476	0.4415	0.351
Mof_C 	C 	0.3503	0.4367	0.4828	-0.257
Mof_C 	C 	0.1926	0.5267	0.9487	-0.255
Mof_C 	C 	0.2223	0.737	0.2187	-0.255
Mof_C 	C 	0.0905	0.0179	0.1052	-0.155
Mof_C 	C 	0.0726	0.0873	0.9821	-0.075
Mof_C 	C 	0.7777	0.5147	0.4964	-0.266
Mof_C 	C 	0.5461	0.4136	0.0633	-0.358
Mof_C 	C 	0.0461	0.0633	0.4136	-0.342
Mof_C 	C 	0.1497	0.6325	0.0864	-0.246
Mof_C 	C 	0.2334	0.4178	0.3922	-0.308
Mof_C 	C 	0.1844	0.1588	0.2666	-0.296
Mof_C 	C 	0.3241	0.9869	0.5392	0.256
Mof_C 	C 	0.5726	0.9821	0.0873	-0.068
Mof_C 	C 	0.263	0.9817	0.4853	-0.232
Mof_C 	C 	0.5147	0.9964	0.2777	-0.038
Mof_C 	C 	0.1028	0.4884	0.4042	0.503
Mof_C 	C 	0.6659	0.422	0.4733	-0.253
Mof_C 	C 	0.5172	0.4539	0.3675	-0.256
Mof_C 	C 	0.9744	0.0822	0.3156	-0.387
Mof_C 	C 	0.0535	0.5979	0.1156	-0.124
Mof_C 	C 	0.7439	0.578	0.0513	-0.25
Mof_C 	C 	0.2187	0.237	0.2223	-0.258
Mof_C 	C 	0.1588	0.7666	0.6844	-0.299
Mof_C 	C 	0.0065	0.7188	0.9955	0.145
Mof_C 	C 	0.5065	0.9955	0.7188	0.355
Mof_C 	C 	0.9935	0.7123	0.489	0.425
Mof_C 	C 	0.9021	0.4556	0.0177	-0.292
Mof_C 	C 	0.737	0.7187	0.7223	-0.257
Mof_C 	C 	0.7188	0.4955	0.5065	0.17
Mof_C 	C 	0.3675	0.9539	0.5172	-0.251
Mof_C 	C 	0.3372	0.5523	0.0131	0.2
Mof_C 	C 	0.6844	0.2666	0.1588	-0.299
Mof_C 	C 	0.9127	0.3948	0.9853	0.099
Mof_C 	C 	0.9136	0.0461	0.5633	-0.272
Mof_C 	C 	0.5979	0.6156	0.5535	-0.076
Mof_C 	C 	0.9287	0.6763	0.8702	0.185
Mof_C 	C 	0.2439	0.0513	0.578	-0.254
Mof_C 	C 	0.5535	0.1156	0.5979	-0.071
Mof_C 	C 	0.5864	0.1497	0.1325	-0.256
Mof_C 	C 	0.3341	0.7561	0.3074	-0.245
Mof_C 	C 	0.8412	0.6078	0.0256	-0.36
Mof_C 	C 	0.7524	0.3237	0.1939	0.194
Mof_C 	C 	0.3156	0.5822	0.9744	-0.254
Mof_C 	C 	0.7334	0.3922	0.4178	-0.307
Mof_C 	C 	0.4379	0.4823	0.8844	-0.081
Mof_C 	C 	0.9955	0.2188	0.0065	0.151
Mof_C 	C 	0.7476	0.9415	0.5713	0.194
Mof_C 	C 	0.2233	0.011	0.5045	0.127
Mof_C 	C 	0.7187	0.2223	0.237	-0.26
Mof_C 	C 	0.4367	0.9828	0.8503	-0.274
Mof_C 	C 	0.0621	0.9465	0.0444	-0.074
Mof_C 	C 	0.5523	0.5131	0.8372	0.24
Mof_C 	C 	0.1659	0.4733	0.422	-0.255
Mof_C 	C 	0.6298	0.5585	0.3061	0.201
Mof_C 	C 	0.6939	0.7524	0.8237	0.194
Mof_C 	C 	0.8074	0.3341	0.2561	-0.246
Mof_C 	C 	0.2188	0.5065	0.4955	0.17
Mof_C 	C 	0.9379	0.8844	0.4823	-0.055
Mof_C 	C 	0.3922	0.9178	0.2334	-0.17
Mof_C 	C 	0.5873	0.5726	0.4821	-0.124
Mof_C 	C 	0.7123	0.989	0.4935	0.212
Mof_C 	C 	0.6028	0.4042	0.4884	0.502
Mof_C 	C 	0.9884	0.6028	0.9042	0.54
Mof_C 	C 	0.6759	0.6628	0.7151	0.226
Mof_C 	C 	0.9274	0.0147	0.4095	-0.288
Mof_C 	C 	0.8503	0.4828	0.4367	-0.259
Mof_C 	C 	0.9158	0.0116	0.1144	0.51
Mof_C 	C 	0.6078	0.5256	0.3412	-0.305
Mof_C 	C 	0.4021	0.0177	0.4556	-0.249
Mof_C 	C 	0.8922	0.2334	0.9178	-0.276
Mof_C 	C 	0.4095	0.5147	0.9274	-0.11
Mof_C 	C 	0.4955	0.0065	0.2188	-0.046
Mof_C 	C 	0.9465	0.5444	0.5621	-0.016
Mof_C 	C 	0.1052	0.5179	0.0905	-0.101
Mof_C 	C 	0.9367	0.8503	0.9828	-0.178
Mof_C 	C 	0.4487	0.1926	0.0267	-0.409
Mof_C 	C 	0.9823	0.9379	0.3844	0.153
Mof_C 	C 	0.1144	0.5116	0.9158	0.508
Mof_C 	C 	0.0523	0.8372	0.5131	0.387
Mof_C 	C 	0.2476	0.5713	0.9415	0.188
Mof_C 	C 	0.3856	0.3014	0.3972	0.5
Mof_N 	N 	0.9828	0.4135	0.9909	-0.146
Mof_N 	N 	0.5693	0.5774	0.5865	-0.146
Mof_N 	N 	0.0081	0.0172	0.9307	-0.148
Mof_N 	N 	0.9307	0.5172	0.0081	-0.136
Mof_N 	N 	0.0091	0.9226	0.4919	-0.12
Mof_N 	N 	0.9135	0.4828	0.4909	-0.147
Mof_N 	N 	0.0172	0.4307	0.5081	-0.167
Mof_N 	N 	0.5081	0.9307	0.0172	-0.167
Mof_N 	N 	0.0865	0.5693	0.0774	-0.152
Mof_N 	N 	0.0774	0.0693	0.0865	-0.147
Mof_N 	N 	0.4226	0.5091	0.9919	-0.158
Mof_N 	N 	0.5091	0.4919	0.9226	-0.137
Mof_N 	N 	0.4909	0.9828	0.9135	-0.133
Mof_N 	N 	0.4828	0.9909	0.4135	-0.163
Mof_N 	N 	0.5865	0.0774	0.5693	-0.153
Mof_N 	N 	0.4135	0.4909	0.4828	-0.146
Mof_N 	N 	0.9909	0.9135	0.9828	-0.15
Mof_N 	N 	0.9919	0.0091	0.4226	-0.141
Mof_N 	N 	0.5774	0.0865	0.0693	-0.139
Mof_N 	N 	0.0693	0.5865	0.5774	-0.142
Mof_N 	N 	0.9226	0.9919	0.5091	-0.147
Mof_N 	N 	0.4307	0.0081	0.5172	-0.136
Mof_N 	N 	0.5172	0.5081	0.4307	-0.146
Mof_N 	N 	0.4919	0.4226	0.0091	-0.126
Mof_O 	O 	0.4271	0.3582	0.4085	-0.544
Mof_O 	O 	0.4305	0.7679	0.3978	-0.536
Mof_O 	O 	0.2321	0.1299	0.6626	-0.538
Mof_O 	O 	0.5503	0.5689	0.1418	-0.547
Mof_O 	O 	0.6022	0.8701	0.5327	-0.534
Mof_O 	O 	0.5689	0.6418	0.0503	-0.543
Mof_O 	O 	0.0186	0.5915	0.9497	-0.569
Mof_O 	O 	0.8582	0.9271	0.9085	-0.52
Mof_O 	O 	0.8374	0.0695	0.9673	-0.538
Mof_O 	O 	0.1299	0.1626	0.7321	-0.53
Mof_O 	O 	0.4085	0.8582	0.4271	-0.541
Mof_O 	O 	0.9085	0.4271	0.8582	-0.529
Mof_O 	O 	0.3701	0.1022	0.0327	-0.551
Mof_O 	O 	0.0327	0.6022	0.3701	-0.544
Mof_O 	O 	0.4497	0.0186	0.0915	-0.57
Mof_O 	O 	0.0915	0.5186	0.4497	-0.549
Mof_O 	O 	0.6299	0.7321	0.1626	-0.525
Mof_O 	O 	0.6418	0.5503	0.0689	-0.551
Mof_O 	O 	0.0729	0.4814	0.9311	-0.546
Mof_O 	O 	0.1022	0.5327	0.8701	-0.542
Mof_O 	O 	0.9271	0.4085	0.3582	-0.53
Mof_O 	O 	0.3374	0.9673	0.0695	-0.534
Mof_O 	O 	0.9311	0.9814	0.0729	-0.52
Mof_O 	O 	0.9814	0.5729	0.4311	-0.516
Mof_O 	O 	0.0503	0.1418	0.5689	-0.545
Mof_O 	O 	0.1418	0.0689	0.5503	-0.553
Mof_O 	O 	0.9305	0.3978	0.7679	-0.521
Mof_O 	O 	0.3582	0.9085	0.9271	-0.524
Mof_O 	O 	0.5729	0.9311	0.4814	-0.538
Mof_O 	O 	0.1626	0.2321	0.6299	-0.527
Mof_O 	O 	0.4311	0.0729	0.9814	-0.52
Mof_O 	O 	0.5915	0.4497	0.5186	-0.544
Mof_O 	O 	0.5327	0.3701	0.6022	-0.537
Mof_O 	O 	0.2679	0.9305	0.8978	-0.517
Mof_O 	O 	0.3978	0.2679	0.4305	-0.538
Mof_O 	O 	0.7679	0.8978	0.9305	-0.512
Mof_O 	O 	0.8701	0.0327	0.1022	-0.548
Mof_O 	O 	0.0689	0.0503	0.6418	-0.55
Mof_O 	O 	0.6626	0.6299	0.2321	-0.535
Mof_O 	O 	0.0695	0.4673	0.3374	-0.546
Mof_O 	O 	0.9673	0.5695	0.8374	-0.532
Mof_O 	O 	0.7321	0.6626	0.1299	-0.535
Mof_O 	O 	0.4814	0.4311	0.5729	-0.544
Mof_O 	O 	0.5186	0.9497	0.5915	-0.544
Mof_O 	O 	0.9497	0.0915	0.0186	-0.575
Mof_O 	O 	0.5695	0.3374	0.4673	-0.538
Mof_O 	O 	0.4673	0.8374	0.5695	-0.543
Mof_O 	O 	0.8978	0.4305	0.2679	-0.526
_end
