data_functionalizedCrystal
_audit_creation_method	'EQeq! by Chris Wilmer'
_symmetry_space_group_name_H-M	'P1'
_symmetry_Int_Tables_number	1
_symmetry_cell_setting	triclinic
loop_
_symmetry_equiv_pos_as_xyz
  x,y,z
_cell_length_a	5.2515
_cell_length_b	15.1973
_cell_length_c	17.5701
_cell_angle_alpha	90
_cell_angle_beta	91.459
_cell_angle_gamma	90
loop_
_atom_site_label
_atom_site_type_symbol
_atom_site_fract_x
_atom_site_fract_y
_atom_site_fract_z
_atom_site_charge
Mof_Zn	Zn	0.1977	0.4035	0.459	1.223
Mof_Zn	Zn	0.1065	0.2558	0.1864	1.2
Mof_Zn	Zn	0.2935	0.1007	0.4882	1.217
Mof_Zn	Zn	0.7901	0.2318	0.4488	1.214
Mof_P 	P 	0.2782	0.2407	0.3585	0.538
Mof_P 	P 	0.282	0.6138	0.4418	0.562
Mof_P 	P 	0.2774	0.409	0.0843	0.549
Mof_O 	O 	0.234	0.3383	0.3649	-0.516
Mof_O 	O 	0.1779	0.523	0.4246	-0.498
Mof_O 	O 	0.5659	0.6183	0.4577	-0.542
Mof_O 	O 	0.1398	0.6493	0.5122	-0.65
Mof_O 	O 	0.1689	0.2041	0.2839	-0.469
Mof_O 	O 	0.2146	0.3744	0.1633	-0.469
Mof_O 	O 	0.2115	0.6721	0.3737	-0.491
Mof_O 	O 	0.1802	0.5024	0.0781	-0.511
Mof_O 	O 	0.1346	0.3534	0.0221	-0.669
Mof_O 	O 	0.5642	0.4004	0.0726	-0.519
Mof_O 	O 	0.1355	0.1947	0.4254	-0.657
Mof_O 	O 	0.5575	0.2137	0.3662	-0.51
Mof_Zn	Zn	0.3023	0.9035	0.041	1.22
Mof_Zn	Zn	0.3935	0.7558	0.3136	1.2
Mof_Zn	Zn	0.2065	0.6007	0.0118	1.217
Mof_Zn	Zn	0.7099	0.7318	0.0512	1.214
Mof_P 	P 	0.2218	0.7407	0.1415	0.536
Mof_P 	P 	0.218	0.1138	0.0582	0.564
Mof_P 	P 	0.2226	0.909	0.4157	0.546
Mof_O 	O 	0.266	0.8383	0.1351	-0.518
Mof_O 	O 	0.3221	0.023	0.0754	-0.495
Mof_O 	O 	0.9341	0.1183	0.0423	-0.538
Mof_O 	O 	0.3602	0.1493	0.9878	-0.653
Mof_O 	O 	0.3311	0.7041	0.2161	-0.47
Mof_O 	O 	0.2854	0.8744	0.3367	-0.47
Mof_O 	O 	0.2885	0.1721	0.1263	-0.49
Mof_O 	O 	0.3198	0.0024	0.4219	-0.51
Mof_O 	O 	0.3654	0.8534	0.4779	-0.67
Mof_O 	O 	0.9358	0.9004	0.4274	-0.519
Mof_O 	O 	0.3645	0.6947	0.0746	-0.658
Mof_O 	O 	0.9425	0.7137	0.1338	-0.508
Mof_Zn	Zn	0.8023	0.5965	0.541	1.223
Mof_Zn	Zn	0.8935	0.7442	0.8136	1.2
Mof_Zn	Zn	0.7065	0.8993	0.5118	1.217
Mof_Zn	Zn	0.2099	0.7682	0.5512	1.214
Mof_P 	P 	0.7218	0.7593	0.6415	0.538
Mof_P 	P 	0.718	0.3862	0.5582	0.562
Mof_P 	P 	0.7226	0.591	0.9157	0.549
Mof_O 	O 	0.766	0.6617	0.6351	-0.516
Mof_O 	O 	0.8221	0.477	0.5754	-0.498
Mof_O 	O 	0.4341	0.3817	0.5423	-0.542
Mof_O 	O 	0.8602	0.3507	0.4878	-0.65
Mof_O 	O 	0.8311	0.7959	0.7161	-0.469
Mof_O 	O 	0.7854	0.6256	0.8367	-0.469
Mof_O 	O 	0.7885	0.3279	0.6263	-0.491
Mof_O 	O 	0.8198	0.4976	0.9219	-0.511
Mof_O 	O 	0.8654	0.6466	0.9779	-0.669
Mof_O 	O 	0.4358	0.5996	0.9274	-0.519
Mof_O 	O 	0.8645	0.8053	0.5746	-0.657
Mof_O 	O 	0.4425	0.7863	0.6338	-0.51
Mof_Zn	Zn	0.6977	0.0965	0.959	1.22
Mof_Zn	Zn	0.6065	0.2442	0.6864	1.2
Mof_Zn	Zn	0.7935	0.3993	0.9882	1.217
Mof_Zn	Zn	0.2901	0.2682	0.9488	1.214
Mof_P 	P 	0.7782	0.2593	0.8585	0.536
Mof_P 	P 	0.782	0.8862	0.9418	0.564
Mof_P 	P 	0.7774	0.091	0.5843	0.546
Mof_O 	O 	0.734	0.1617	0.8649	-0.518
Mof_O 	O 	0.6779	0.977	0.9246	-0.495
Mof_O 	O 	0.0659	0.8817	0.9577	-0.538
Mof_O 	O 	0.6398	0.8507	0.0122	-0.653
Mof_O 	O 	0.6689	0.2959	0.7839	-0.47
Mof_O 	O 	0.7146	0.1256	0.6633	-0.47
Mof_O 	O 	0.7115	0.8279	0.8737	-0.49
Mof_O 	O 	0.6802	0.9976	0.5781	-0.51
Mof_O 	O 	0.6346	0.1466	0.5221	-0.67
Mof_O 	O 	0.0642	0.0996	0.5726	-0.519
Mof_O 	O 	0.6355	0.3053	0.9254	-0.658
Mof_O 	O 	0.0575	0.2863	0.8662	-0.508
_end
