data_functionalizedCrystal
_audit_creation_method	'EQeq! by Chris Wilmer'
_symmetry_space_group_name_H-M	'P1'
_symmetry_Int_Tables_number	1
_symmetry_cell_setting	triclinic
loop_
_symmetry_equiv_pos_as_xyz
  x,y,z
_cell_length_a	9.54
_cell_length_b	19.812
_cell_length_c	11.151
_cell_angle_alpha	90
_cell_angle_beta	113.684
_cell_angle_gamma	90
loop_
_atom_site_label
_atom_site_type_symbol
_atom_site_fract_x
_atom_site_fract_y
_atom_site_fract_z
_atom_site_charge
Mof_O 	O 	0.6549	0.9274	0.006	-0.394
Mof_O 	O 	0.7407	0.8909	0.2095	-0.276
Mof_O 	O 	0.0497	0.7495	0.3311	-0.449
Mof_O 	O 	0.0614	0.8469	0.2369	-0.264
Mof_C 	C 	0.6344	0.792	0.9273	0.139
Mof_H 	H 	0.5558	0.8209	0.8776	0.017
Mof_C 	C 	0.7437	0.8161	0.048	-0.167
Mof_C 	C 	0.8632	0.7713	0.121	0.06
Mof_C 	C 	0.7138	0.8834	0.0916	0.38
Mof_C 	C 	0.002	0.7922	0.2368	0.262
Mof_O 	O 	0.1549	0.4274	0.006	-0.432
Mof_O 	O 	0.2407	0.3909	0.2095	-0.306
Mof_O 	O 	0.5497	0.2495	0.3311	-0.447
Mof_O 	O 	0.5614	0.3469	0.2369	-0.268
Mof_C 	C 	0.1344	0.292	0.9273	0.158
Mof_H 	H 	0.0558	0.3209	0.8776	-0.004
Mof_C 	C 	0.2437	0.3161	0.048	-0.18
Mof_C 	C 	0.3632	0.2713	0.121	0.026
Mof_C 	C 	0.2138	0.3834	0.0916	0.382
Mof_C 	C 	0.502	0.2922	0.2368	0.299
Mof_O 	O 	0.3451	0.9274	0.994	-0.328
Mof_O 	O 	0.2593	0.8909	0.7905	-0.257
Mof_O 	O 	0.9503	0.7495	0.6689	-0.448
Mof_O 	O 	0.9386	0.8469	0.7631	-0.26
Mof_C 	C 	0.3656	0.792	0.0727	-0.148
Mof_H 	H 	0.4442	0.8209	0.1224	0.09
Mof_C 	C 	0.2563	0.8161	0.952	0.075
Mof_C 	C 	0.1368	0.7713	0.879	-0.165
Mof_C 	C 	0.2862	0.8834	0.9084	0.299
Mof_C 	C 	0.998	0.7922	0.7632	0.393
Mof_O 	O 	0.8451	0.4274	0.994	-0.338
Mof_O 	O 	0.7593	0.3909	0.7905	-0.259
Mof_O 	O 	0.4503	0.2495	0.6689	-0.461
Mof_O 	O 	0.4386	0.3469	0.7631	-0.277
Mof_C 	C 	0.8656	0.292	0.0727	-0.159
Mof_H 	H 	0.9442	0.3209	0.1224	0.104
Mof_C 	C 	0.7563	0.3161	0.952	0.075
Mof_C 	C 	0.6368	0.2713	0.879	-0.133
Mof_C 	C 	0.7862	0.3834	0.9084	0.307
Mof_C 	C 	0.498	0.2922	0.7632	0.361
Mof_O 	O 	0.3451	0.0726	0.994	-0.368
Mof_O 	O 	0.2593	0.1091	0.7905	-0.285
Mof_O 	O 	0.9503	0.2505	0.6689	-0.453
Mof_O 	O 	0.9386	0.1531	0.7631	-0.281
Mof_C 	C 	0.3656	0.208	0.0727	-0.149
Mof_H 	H 	0.4442	0.1791	0.1224	0.085
Mof_C 	C 	0.2563	0.1839	0.952	0.071
Mof_C 	C 	0.1368	0.2287	0.879	-0.167
Mof_C 	C 	0.2862	0.1166	0.9084	0.306
Mof_C 	C 	0.998	0.2078	0.7632	0.396
Mof_O 	O 	0.8451	0.5726	0.994	-0.339
Mof_O 	O 	0.7593	0.6091	0.7905	-0.259
Mof_O 	O 	0.4503	0.7505	0.6689	-0.454
Mof_O 	O 	0.4386	0.6531	0.7631	-0.276
Mof_C 	C 	0.8656	0.708	0.0727	-0.154
Mof_H 	H 	0.9442	0.6791	0.1224	0.103
Mof_C 	C 	0.7563	0.6839	0.952	0.07
Mof_C 	C 	0.6368	0.7287	0.879	-0.126
Mof_C 	C 	0.7862	0.6166	0.9084	0.309
Mof_C 	C 	0.498	0.7078	0.7632	0.358
Mof_O 	O 	0.6549	0.0726	0.006	-0.44
Mof_O 	O 	0.7407	0.1091	0.2095	-0.307
Mof_O 	O 	0.0497	0.2505	0.3311	-0.453
Mof_O 	O 	0.0614	0.1531	0.2369	-0.285
Mof_C 	C 	0.6344	0.208	0.9273	0.149
Mof_H 	H 	0.5558	0.1791	0.8776	0.01
Mof_C 	C 	0.7437	0.1839	0.048	-0.181
Mof_C 	C 	0.8632	0.2287	0.121	0.062
Mof_C 	C 	0.7138	0.1166	0.0916	0.391
Mof_C 	C 	0.002	0.2078	0.2368	0.264
Mof_O 	O 	0.1549	0.5726	0.006	-0.432
Mof_O 	O 	0.2407	0.6091	0.2095	-0.306
Mof_O 	O 	0.5497	0.7505	0.3311	-0.441
Mof_O 	O 	0.5614	0.6531	0.2369	-0.268
Mof_C 	C 	0.1344	0.708	0.9273	0.154
Mof_H 	H 	0.0558	0.6791	0.8776	-0.003
Mof_C 	C 	0.2437	0.6839	0.048	-0.178
Mof_C 	C 	0.3632	0.7287	0.121	0.027
Mof_C 	C 	0.2138	0.6166	0.0916	0.382
Mof_C 	C 	0.502	0.7078	0.2368	0.297
Mof_Ni	Ni	1.30789e-32	0.5	-0	1.067
Mof_Ni	Ni	0.5	0	-0	1.055
Mof_Ni	Ni	0.25	0.75	0.5	1.009
Mof_Ni	Ni	0.75	0.75	0.5	1.016
Mof_Ni	Ni	0.75	0.25	0.5	1.012
Mof_Ni	Ni	0.25	0.25	0.5	1.005
_end
