data_functionalizedCrystal
_audit_creation_method	'EQeq! by Chris Wilmer'
_symmetry_space_group_name_H-M	'P1'
_symmetry_Int_Tables_number	1
_symmetry_cell_setting	triclinic
loop_
_symmetry_equiv_pos_as_xyz
  x,y,z
_cell_length_a	8.9575
_cell_length_b	19.685
_cell_length_c	25.063
_cell_angle_alpha	90
_cell_angle_beta	96.015
_cell_angle_gamma	90
loop_
_atom_site_label
_atom_site_type_symbol
_atom_site_fract_x
_atom_site_fract_y
_atom_site_fract_z
_atom_site_charge
Mof_C 	C 	0.39	0.2489	0.98242	0.102
Mof_H 	H 	0.3057	0.2272	0.993	-0.01
Mof_C 	C 	0.4983	0.2102	0.9624	-0.187
Mof_H 	H 	0.4873	0.1633	0.9604	0.099
Mof_C 	C 	0.6238	0.2405	0.94514	0.134
Mof_C 	C 	0.6332	0.3112	0.94987	-0.187
Mof_H 	H 	0.7153	0.3345	0.9391	0.104
Mof_C 	C 	0.5189	0.3457	0.9708	0.118
Mof_H 	H 	0.526	0.3928	0.9733	-0.02
Mof_C 	C 	0.7406	0.1993	0.92336	-0.088
Mof_C 	C 	0.7034	0.1381	0.8978	0.049
Mof_H 	H 	0.6035	0.1245	0.8925	0.013
Mof_C 	C 	0.8131	0.0973	0.8801	-0.175
Mof_H 	H 	0.7859	0.0563	0.8634	0.092
Mof_C 	C 	0.9605	0.1157	0.88646	0.153
Mof_C 	C 	0.9988	0.1779	0.9093	-0.17
Mof_H 	H 	0.0982	0.1923	0.9124	0.093
Mof_C 	C 	0.8891	0.2188	0.92758	0.051
Mof_H 	H 	0.9163	0.2606	0.9431	0.013
Mof_C 	C 	0.0458	0.0449	0.8167	0.153
Mof_C 	C 	0.0701	0.9777	0.80587	-0.178
Mof_H 	H 	0.1102	0.9493	0.8333	0.092
Mof_C 	C 	0.0362	0.9516	0.75497	0.055
Mof_H 	H 	0.0537	0.9058	0.749	0.007
Mof_C 	C 	0.977	0.9918	0.71266	-0.095
Mof_C 	C 	0.9499	0.06	0.72403	0.05
Mof_H 	H 	0.9073	0.0884	0.6969	0.014
Mof_C 	C 	0.9856	0.0857	0.7749	-0.17
Mof_H 	H 	0.9687	0.1315	0.7813	0.094
Mof_C 	C 	0.9359	0.964	0.65902	0.135
Mof_C 	C 	0.896	0.8962	0.65077	-0.188
Mof_H 	H 	0.8999	0.8666	0.6798	0.095
Mof_C 	C 	0.8512	0.8728	0.6004	0.108
Mof_H 	H 	0.8231	0.8275	0.5962	-0.029
Mof_C 	C 	0.8872	0.9759	0.56314	0.114
Mof_H 	H 	0.8858	0.0038	0.5331	0.002
Mof_C 	C 	0.9329	0.0031	0.61317	-0.183
Mof_H 	H 	0.9619	0.0484	0.6159	0.112
Mof_C 	C 	0.1939	0.0509	0.90538	0.133
Mof_C 	C 	0.1798	0.0485	0.95993	-0.14
Mof_H 	H 	0.0881	0.0591	0.9722	0.083
Mof_C 	C 	0.2998	0.0309	0.99618	-0.002
Mof_H 	H 	0.2887	0.0327	0.0326	0.03
Mof_C 	C 	0.4356	0.0105	0.98042	-0.015
Mof_C 	C 	0.4456	0.0099	0.92529	-0.004
Mof_H 	H 	0.5341	0.9952	0.9127	0.032
Mof_C 	C 	0.3275	0.0304	0.88882	-0.145
Mof_H 	H 	0.3392	0.0304	0.8524	0.085
Mof_C 	C 	0.0017	0.3097	0.04741	0.362
Mof_C 	C 	0.8743	0.271	0.06844	-0.125
Mof_C 	C 	0.7499	0.3048	0.08485	0.059
Mof_H 	H 	0.7439	0.3519	0.082	0.025
Mof_C 	C 	0.6365	0.2696	0.1051	-0.133
Mof_H 	H 	0.5532	0.2929	0.1149	0.088
Mof_C 	C 	0.6444	0.1997	0.11111	0.063
Mof_C 	C 	0.7651	0.1666	0.09272	-0.131
Mof_H 	H 	0.7697	0.1195	0.0946	0.077
Mof_C 	C 	0.8782	0.2012	0.07191	0.058
Mof_H 	H 	0.9582	0.1774	0.06	0.023
Mof_C 	C 	0.5273	0.1621	0.13677	0.027
Mof_C 	C 	0.3781	0.1623	0.1169	-0.096
Mof_H 	H 	0.3472	0.187	0.0861	0.072
Mof_C 	C 	0.2733	0.126	0.1423	0.017
Mof_H 	H 	0.1731	0.1262	0.1281	0.024
Mof_C 	C 	0.315	0.0901	0.1875	-0.096
Mof_H 	H 	0.2439	0.0649	0.2034	0.063
Mof_C 	C 	0.4623	0.0907	0.21025	0.017
Mof_C 	C 	0.568	0.1254	0.18395	-0.094
Mof_H 	H 	0.6682	0.1243	0.198	0.062
Mof_C 	C 	0.5085	0.0552	0.26166	0.09
Mof_C 	C 	0.4492	0.9957	0.2745	-0.17
Mof_H 	H 	0.3753	0.9762	0.2505	0.09
Mof_C 	C 	0.4936	0.9621	0.3222	0.114
Mof_H 	H 	0.4525	0.9199	0.3287	0.001
Mof_C 	C 	0.6582	0.0508	0.3473	0.107
Mof_H 	H 	0.7307	0.0703	0.3718	0.005
Mof_C 	C 	0.6158	0.0837	0.2997	-0.163
Mof_H 	H 	0.6589	0.1253	0.2928	0.087
Mof_C 	C 	0.596	0.9899	0.3593	-0.193
Mof_C 	C 	0.6507	0.9539	0.4096	0.446
Mof_N 	N 	0.0736	0.0725	0.86876	-0.182
Mof_N 	N 	0.4003	0.31628	0.98739	-0.265
Mof_N 	N 	0.8458	0.91238	0.5565	-0.273
Mof_O 	O 	0.1111	0.2802	0.03463	-0.43
Mof_O 	O 	0.9911	0.3717	0.043	-0.394
Mof_O 	O 	0.653	0.8918	0.4093	-0.46
Mof_O 	O 	0.7154	0.9806	0.4467	-0.419
Mof_Zn	Zn	0.22643	0.37169	0.01777	1.21
Mof_C 	C 	0.61	0.7489	0.51758	0.103
Mof_H 	H 	0.6943	0.7272	0.507	-0.009
Mof_C 	C 	0.5017	0.7102	0.5376	-0.185
Mof_H 	H 	0.5127	0.6633	0.5396	0.1
Mof_C 	C 	0.3762	0.7405	0.55486	0.134
Mof_C 	C 	0.3668	0.8112	0.55013	-0.186
Mof_H 	H 	0.2847	0.8345	0.5609	0.104
Mof_C 	C 	0.4811	0.8457	0.5292	0.118
Mof_H 	H 	0.474	0.8928	0.5267	-0.02
Mof_C 	C 	0.2594	0.6993	0.57664	-0.087
Mof_C 	C 	0.2966	0.6381	0.6022	0.047
Mof_H 	H 	0.3965	0.6245	0.6075	0.013
Mof_C 	C 	0.1869	0.5973	0.6199	-0.174
Mof_H 	H 	0.2141	0.5563	0.6366	0.092
Mof_C 	C 	0.0395	0.6157	0.61354	0.152
Mof_C 	C 	0.0012	0.6779	0.5907	-0.167
Mof_H 	H 	0.9018	0.6923	0.5876	0.092
Mof_C 	C 	0.1109	0.7188	0.57242	0.049
Mof_H 	H 	0.0837	0.7606	0.5569	0.014
Mof_C 	C 	0.9542	0.5449	0.6833	0.152
Mof_C 	C 	0.9299	0.4777	0.69413	-0.176
Mof_H 	H 	0.8898	0.4493	0.6667	0.091
Mof_C 	C 	0.9638	0.4516	0.74503	0.049
Mof_H 	H 	0.9463	0.4058	0.751	0.009
Mof_C 	C 	0.023	0.4918	0.78734	-0.09
Mof_C 	C 	0.0501	0.56	0.77597	0.046
Mof_H 	H 	0.0927	0.5884	0.8031	0.015
Mof_C 	C 	0.0144	0.5857	0.7251	-0.168
Mof_H 	H 	0.0313	0.6315	0.7187	0.093
Mof_C 	C 	0.0641	0.464	0.84098	0.138
Mof_C 	C 	0.104	0.3962	0.84923	-0.189
Mof_H 	H 	0.1001	0.3666	0.8202	0.096
Mof_C 	C 	0.1488	0.3728	0.8996	0.109
Mof_H 	H 	0.1769	0.3275	0.9038	-0.029
Mof_C 	C 	0.1128	0.4759	0.93686	0.121
Mof_H 	H 	0.1142	0.5038	0.9669	-0.001
Mof_C 	C 	0.0671	0.5031	0.88683	-0.19
Mof_H 	H 	0.0381	0.5484	0.8841	0.114
Mof_C 	C 	0.8061	0.5509	0.59462	0.132
Mof_C 	C 	0.8202	0.5485	0.54007	-0.137
Mof_H 	H 	0.9119	0.5591	0.5278	0.082
Mof_C 	C 	0.7002	0.5309	0.50382	-0.005
Mof_H 	H 	0.7113	0.5327	0.4674	0.032
Mof_C 	C 	0.5644	0.5105	0.51958	-0.014
Mof_C 	C 	0.5544	0.5099	0.57471	-0.006
Mof_H 	H 	0.4659	0.4952	0.5873	0.033
Mof_C 	C 	0.6725	0.5304	0.61118	-0.143
Mof_H 	H 	0.6608	0.5304	0.6476	0.084
Mof_C 	C 	0.9983	0.8097	0.45259	0.364
Mof_C 	C 	0.1257	0.771	0.43156	-0.126
Mof_C 	C 	0.2501	0.8048	0.41515	0.06
Mof_H 	H 	0.2561	0.8519	0.418	0.024
Mof_C 	C 	0.3635	0.7696	0.3949	-0.133
Mof_H 	H 	0.4468	0.7929	0.3851	0.089
Mof_C 	C 	0.3556	0.6997	0.38889	0.064
Mof_C 	C 	0.2349	0.6666	0.40728	-0.131
Mof_H 	H 	0.2303	0.6195	0.4054	0.077
Mof_C 	C 	0.1218	0.7012	0.42809	0.059
Mof_H 	H 	0.0418	0.6774	0.44	0.022
Mof_C 	C 	0.4727	0.6621	0.36323	0.026
Mof_C 	C 	0.6219	0.6623	0.3831	-0.096
Mof_H 	H 	0.6528	0.687	0.4139	0.072
Mof_C 	C 	0.7267	0.626	0.3577	0.017
Mof_H 	H 	0.8269	0.6262	0.3719	0.024
Mof_C 	C 	0.685	0.5901	0.3125	-0.095
Mof_H 	H 	0.7561	0.5649	0.2966	0.064
Mof_C 	C 	0.5377	0.5907	0.28975	0.017
Mof_C 	C 	0.432	0.6254	0.31605	-0.093
Mof_H 	H 	0.3318	0.6243	0.302	0.062
Mof_C 	C 	0.4915	0.5552	0.23834	0.091
Mof_C 	C 	0.5508	0.4957	0.2255	-0.17
Mof_H 	H 	0.6247	0.4762	0.2495	0.09
Mof_C 	C 	0.5064	0.4621	0.1778	0.114
Mof_H 	H 	0.5475	0.4199	0.1713	0.001
Mof_C 	C 	0.3418	0.5508	0.1527	0.107
Mof_H 	H 	0.2693	0.5703	0.1282	0.005
Mof_C 	C 	0.3842	0.5837	0.2003	-0.163
Mof_H 	H 	0.3411	0.6253	0.2072	0.087
Mof_C 	C 	0.404	0.4899	0.1407	-0.193
Mof_C 	C 	0.3493	0.4539	0.0904	0.445
Mof_N 	N 	0.9264	0.5725	0.63124	-0.182
Mof_N 	N 	0.5997	0.81628	0.51261	-0.265
Mof_N 	N 	0.1542	0.41238	0.9435	-0.274
Mof_O 	O 	0.8889	0.7802	0.46537	-0.429
Mof_O 	O 	0.0089	0.8717	0.457	-0.395
Mof_O 	O 	0.347	0.3918	0.0907	-0.46
Mof_O 	O 	0.2846	0.4806	0.0533	-0.419
Mof_Zn	Zn	0.77357	0.87169	0.48223	1.21
Mof_C 	C 	0.61	0.7511	0.01758	0.103
Mof_H 	H 	0.6943	0.7728	0.007	-0.009
Mof_C 	C 	0.5017	0.7898	0.0376	-0.186
Mof_H 	H 	0.5127	0.8367	0.0396	0.1
Mof_C 	C 	0.3762	0.7595	0.05486	0.135
Mof_C 	C 	0.3668	0.6888	0.05013	-0.186
Mof_H 	H 	0.2847	0.6655	0.0609	0.104
Mof_C 	C 	0.4811	0.6543	0.0292	0.118
Mof_H 	H 	0.474	0.6072	0.0267	-0.02
Mof_C 	C 	0.2594	0.8007	0.07664	-0.088
Mof_C 	C 	0.2966	0.8619	0.1022	0.049
Mof_H 	H 	0.3965	0.8755	0.1075	0.013
Mof_C 	C 	0.1869	0.9027	0.1199	-0.175
Mof_H 	H 	0.2141	0.9437	0.1366	0.092
Mof_C 	C 	0.0395	0.8843	0.11354	0.153
Mof_C 	C 	0.0012	0.8221	0.0907	-0.17
Mof_H 	H 	0.9018	0.8077	0.0876	0.093
Mof_C 	C 	0.1109	0.7812	0.07242	0.051
Mof_H 	H 	0.0837	0.7394	0.0569	0.013
Mof_C 	C 	0.9542	0.9551	0.1833	0.153
Mof_C 	C 	0.9299	0.0223	0.19413	-0.178
Mof_H 	H 	0.8898	0.0507	0.1667	0.092
Mof_C 	C 	0.9638	0.0484	0.24503	0.055
Mof_H 	H 	0.9463	0.0942	0.251	0.007
Mof_C 	C 	0.023	0.0082	0.28734	-0.095
Mof_C 	C 	0.0501	0.94	0.27597	0.05
Mof_H 	H 	0.0927	0.9116	0.3031	0.014
Mof_C 	C 	0.0144	0.9143	0.2251	-0.17
Mof_H 	H 	0.0313	0.8685	0.2187	0.094
Mof_C 	C 	0.0641	0.036	0.34098	0.135
Mof_C 	C 	0.104	0.1038	0.34923	-0.188
Mof_H 	H 	0.1001	0.1334	0.3202	0.095
Mof_C 	C 	0.1488	0.1272	0.3996	0.108
Mof_H 	H 	0.1769	0.1725	0.4038	-0.029
Mof_C 	C 	0.1128	0.0241	0.43686	0.114
Mof_H 	H 	0.1142	0.9962	0.4669	0.002
Mof_C 	C 	0.0671	0.9969	0.38683	-0.183
Mof_H 	H 	0.0381	0.9516	0.3841	0.112
Mof_C 	C 	0.8061	0.9491	0.09462	0.133
Mof_C 	C 	0.8202	0.9515	0.04007	-0.14
Mof_H 	H 	0.9119	0.9409	0.0278	0.083
Mof_C 	C 	0.7002	0.9691	0.00382	-0.002
Mof_H 	H 	0.7113	0.9673	0.9674	0.03
Mof_C 	C 	0.5644	0.9895	0.01958	-0.015
Mof_C 	C 	0.5544	0.9901	0.07471	-0.004
Mof_H 	H 	0.4659	0.0048	0.0873	0.032
Mof_C 	C 	0.6725	0.9696	0.11118	-0.145
Mof_H 	H 	0.6608	0.9696	0.1476	0.085
Mof_C 	C 	0.9983	0.6903	0.95259	0.362
Mof_C 	C 	0.1257	0.729	0.93156	-0.125
Mof_C 	C 	0.2501	0.6952	0.91515	0.059
Mof_H 	H 	0.2561	0.6481	0.918	0.025
Mof_C 	C 	0.3635	0.7304	0.8949	-0.133
Mof_H 	H 	0.4468	0.7071	0.8851	0.088
Mof_C 	C 	0.3556	0.8003	0.88889	0.063
Mof_C 	C 	0.2349	0.8334	0.90728	-0.131
Mof_H 	H 	0.2303	0.8805	0.9054	0.077
Mof_C 	C 	0.1218	0.7988	0.92809	0.058
Mof_H 	H 	0.0418	0.8226	0.94	0.023
Mof_C 	C 	0.4727	0.8379	0.86323	0.027
Mof_C 	C 	0.6219	0.8377	0.8831	-0.096
Mof_H 	H 	0.6528	0.813	0.9139	0.072
Mof_C 	C 	0.7267	0.874	0.8577	0.017
Mof_H 	H 	0.8269	0.8738	0.8719	0.024
Mof_C 	C 	0.685	0.9099	0.8125	-0.096
Mof_H 	H 	0.7561	0.9351	0.7966	0.063
Mof_C 	C 	0.5377	0.9093	0.78975	0.017
Mof_C 	C 	0.432	0.8746	0.81605	-0.094
Mof_H 	H 	0.3318	0.8757	0.802	0.062
Mof_C 	C 	0.4915	0.9448	0.73834	0.09
Mof_C 	C 	0.5508	0.0043	0.7255	-0.17
Mof_H 	H 	0.6247	0.0238	0.7495	0.09
Mof_C 	C 	0.5064	0.0379	0.6778	0.114
Mof_H 	H 	0.5475	0.0801	0.6713	0.001
Mof_C 	C 	0.3418	0.9492	0.6527	0.107
Mof_H 	H 	0.2693	0.9297	0.6282	0.005
Mof_C 	C 	0.3842	0.9163	0.7003	-0.163
Mof_H 	H 	0.3411	0.8747	0.7072	0.087
Mof_C 	C 	0.404	0.0101	0.6407	-0.193
Mof_C 	C 	0.3493	0.0461	0.5904	0.446
Mof_N 	N 	0.9264	0.9275	0.13124	-0.182
Mof_N 	N 	0.5997	0.68372	0.01261	-0.265
Mof_N 	N 	0.1542	0.08762	0.4435	-0.273
Mof_O 	O 	0.8889	0.7198	0.96537	-0.43
Mof_O 	O 	0.0089	0.6283	0.957	-0.394
Mof_O 	O 	0.347	0.1082	0.5907	-0.46
Mof_O 	O 	0.2846	0.0194	0.5533	-0.419
Mof_Zn	Zn	0.77357	0.62831	0.98223	1.21
Mof_C 	C 	0.39	0.2511	0.48242	0.103
Mof_H 	H 	0.3057	0.2728	0.493	-0.009
Mof_C 	C 	0.4983	0.2898	0.4624	-0.185
Mof_H 	H 	0.4873	0.3367	0.4604	0.1
Mof_C 	C 	0.6238	0.2595	0.44514	0.134
Mof_C 	C 	0.6332	0.1888	0.44987	-0.186
Mof_H 	H 	0.7153	0.1655	0.4391	0.104
Mof_C 	C 	0.5189	0.1543	0.4708	0.118
Mof_H 	H 	0.526	0.1072	0.4733	-0.02
Mof_C 	C 	0.7406	0.3007	0.42336	-0.087
Mof_C 	C 	0.7034	0.3619	0.3978	0.047
Mof_H 	H 	0.6035	0.3755	0.3925	0.013
Mof_C 	C 	0.8131	0.4027	0.3801	-0.174
Mof_H 	H 	0.7859	0.4437	0.3634	0.092
Mof_C 	C 	0.9605	0.3843	0.38646	0.152
Mof_C 	C 	0.9988	0.3221	0.4093	-0.167
Mof_H 	H 	0.0982	0.3077	0.4124	0.092
Mof_C 	C 	0.8891	0.2812	0.42758	0.049
Mof_H 	H 	0.9163	0.2394	0.4431	0.014
Mof_C 	C 	0.0458	0.4551	0.3167	0.152
Mof_C 	C 	0.0701	0.5223	0.30587	-0.176
Mof_H 	H 	0.1102	0.5507	0.3333	0.091
Mof_C 	C 	0.0362	0.5484	0.25497	0.049
Mof_H 	H 	0.0537	0.5942	0.249	0.009
Mof_C 	C 	0.977	0.5082	0.21266	-0.09
Mof_C 	C 	0.9499	0.44	0.22403	0.046
Mof_H 	H 	0.9073	0.4116	0.1969	0.015
Mof_C 	C 	0.9856	0.4143	0.2749	-0.168
Mof_H 	H 	0.9687	0.3685	0.2813	0.093
Mof_C 	C 	0.9359	0.536	0.15902	0.138
Mof_C 	C 	0.896	0.6038	0.15077	-0.189
Mof_H 	H 	0.8999	0.6334	0.1798	0.096
Mof_C 	C 	0.8512	0.6272	0.1004	0.109
Mof_H 	H 	0.8231	0.6725	0.0962	-0.029
Mof_C 	C 	0.8872	0.5241	0.06314	0.121
Mof_H 	H 	0.8858	0.4962	0.0331	-0.001
Mof_C 	C 	0.9329	0.4969	0.11317	-0.19
Mof_H 	H 	0.9619	0.4516	0.1159	0.114
Mof_C 	C 	0.1939	0.4491	0.40538	0.132
Mof_C 	C 	0.1798	0.4515	0.45993	-0.137
Mof_H 	H 	0.0881	0.4409	0.4722	0.082
Mof_C 	C 	0.2998	0.4691	0.49618	-0.005
Mof_H 	H 	0.2887	0.4673	0.5326	0.032
Mof_C 	C 	0.4356	0.4895	0.48042	-0.014
Mof_C 	C 	0.4456	0.4901	0.42529	-0.006
Mof_H 	H 	0.5341	0.5048	0.4127	0.033
Mof_C 	C 	0.3275	0.4696	0.38882	-0.143
Mof_H 	H 	0.3392	0.4696	0.3524	0.084
Mof_C 	C 	0.0017	0.1903	0.54741	0.364
Mof_C 	C 	0.8743	0.229	0.56844	-0.126
Mof_C 	C 	0.7499	0.1952	0.58485	0.06
Mof_H 	H 	0.7439	0.1481	0.582	0.024
Mof_C 	C 	0.6365	0.2304	0.6051	-0.133
Mof_H 	H 	0.5532	0.2071	0.6149	0.089
Mof_C 	C 	0.6444	0.3003	0.61111	0.064
Mof_C 	C 	0.7651	0.3334	0.59272	-0.131
Mof_H 	H 	0.7697	0.3805	0.5946	0.077
Mof_C 	C 	0.8782	0.2988	0.57191	0.059
Mof_H 	H 	0.9582	0.3226	0.56	0.022
Mof_C 	C 	0.5273	0.3379	0.63677	0.026
Mof_C 	C 	0.3781	0.3377	0.6169	-0.096
Mof_H 	H 	0.3472	0.313	0.5861	0.072
Mof_C 	C 	0.2733	0.374	0.6423	0.017
Mof_H 	H 	0.1731	0.3738	0.6281	0.024
Mof_C 	C 	0.315	0.4099	0.6875	-0.095
Mof_H 	H 	0.2439	0.4351	0.7034	0.064
Mof_C 	C 	0.4623	0.4093	0.71025	0.017
Mof_C 	C 	0.568	0.3746	0.68395	-0.093
Mof_H 	H 	0.6682	0.3757	0.698	0.062
Mof_C 	C 	0.5085	0.4448	0.76166	0.091
Mof_C 	C 	0.4492	0.5043	0.7745	-0.17
Mof_H 	H 	0.3753	0.5238	0.7505	0.09
Mof_C 	C 	0.4936	0.5379	0.8222	0.114
Mof_H 	H 	0.4525	0.5801	0.8287	0.001
Mof_C 	C 	0.6582	0.4492	0.8473	0.107
Mof_H 	H 	0.7307	0.4297	0.8718	0.005
Mof_C 	C 	0.6158	0.4163	0.7997	-0.163
Mof_H 	H 	0.6589	0.3747	0.7928	0.087
Mof_C 	C 	0.596	0.5101	0.8593	-0.193
Mof_C 	C 	0.6507	0.5461	0.9096	0.445
Mof_N 	N 	0.0736	0.4275	0.36876	-0.182
Mof_N 	N 	0.4003	0.18372	0.48739	-0.265
Mof_N 	N 	0.8458	0.58762	0.0565	-0.274
Mof_O 	O 	0.1111	0.2198	0.53463	-0.429
Mof_O 	O 	0.9911	0.1283	0.543	-0.395
Mof_O 	O 	0.653	0.6082	0.9093	-0.46
Mof_O 	O 	0.7154	0.5194	0.9467	-0.419
Mof_Zn	Zn	0.22643	0.12831	0.51777	1.21
_end
