data_functionalizedCrystal
_audit_creation_method	'EQeq! by Chris Wilmer'
_symmetry_space_group_name_H-M	'P1'
_symmetry_Int_Tables_number	1
_symmetry_cell_setting	triclinic
loop_
_symmetry_equiv_pos_as_xyz
  x,y,z
_cell_length_a	10.9825
_cell_length_b	11.6012
_cell_length_c	16.8578
_cell_angle_alpha	90
_cell_angle_beta	90
_cell_angle_gamma	94.758
loop_
_atom_site_label
_atom_site_type_symbol
_atom_site_fract_x
_atom_site_fract_y
_atom_site_fract_z
_atom_site_charge
Mof_Cd	Cd	0.83751	0.75514	0.74592	0.363
Mof_Cd	Cd	0.66249	0.24486	0.24592	0.362
Mof_Cd	Cd	0.16249	0.24486	0.25408	0.363
Mof_Cd	Cd	0.33751	0.75514	0.75408	0.362
Mof_H 	H 	0.2484	0.0378	0.1563	0.012
Mof_H 	H 	0.2605	0.9485	0.0357	0.087
Mof_H 	H 	0.0491	0.181	0.9455	0.092
Mof_H 	H 	0.0524	0.2691	0.0673	0.011
Mof_H 	H 	0.0119	0.2337	0.4263	0.014
Mof_H 	H 	0.9972	0.3291	0.545	0.09
Mof_H 	H 	0.2973	0.5282	0.4853	0.082
Mof_H 	H 	0.302	0.4284	0.3687	0.011
Mof_H 	H 	0.2516	0.9622	0.6563	0.013
Mof_H 	H 	0.2395	0.0515	0.5357	0.087
Mof_H 	H 	0.4509	0.819	0.4455	0.091
Mof_H 	H 	0.4476	0.7309	0.5673	0.011
Mof_H 	H 	0.4881	0.7663	0.9263	0.014
Mof_H 	H 	0.5028	0.6709	0.045	0.091
Mof_H 	H 	0.2027	0.4718	0.9853	0.083
Mof_H 	H 	0.198	0.5716	0.8687	0.011
Mof_H 	H 	0.7516	0.9622	0.8437	0.013
Mof_H 	H 	0.7395	0.0515	0.9643	0.088
Mof_H 	H 	0.9509	0.819	0.0545	0.092
Mof_H 	H 	0.9476	0.7309	0.9327	0.011
Mof_H 	H 	0.9881	0.7663	0.5737	0.014
Mof_H 	H 	0.0028	0.6709	0.455	0.09
Mof_H 	H 	0.7027	0.4718	0.5147	0.082
Mof_H 	H 	0.698	0.5716	0.6313	0.011
Mof_H 	H 	0.7484	0.0378	0.3437	0.013
Mof_H 	H 	0.7605	0.9485	0.4643	0.087
Mof_H 	H 	0.5491	0.181	0.5545	0.091
Mof_H 	H 	0.5524	0.2691	0.4327	0.011
Mof_H 	H 	0.5119	0.2337	0.0737	0.014
Mof_H 	H 	0.4972	0.3291	0.955	0.091
Mof_H 	H 	0.7973	0.5282	0.0147	0.083
Mof_H 	H 	0.802	0.4284	0.1313	0.011
Mof_C 	C 	0.2101	0.0684	0.1128	0.087
Mof_C 	C 	0.2161	0.0129	0.04094	-0.127
Mof_C 	C 	0.1553	0.0544	0.97677	0.052
Mof_C 	C 	0.0921	0.1513	0.98728	-0.121
Mof_C 	C 	0.094	0.2031	0.06088	0.085
Mof_C 	C 	0.1567	0.9915	0.90168	0.15
Mof_C 	C 	0.097	0.9298	0.78651	0.164
Mof_C 	C 	0.0698	0.2944	0.4383	0.081
Mof_C 	C 	0.06	0.3514	0.50984	-0.113
Mof_C 	C 	0.1446	0.4415	0.52818	0.043
Mof_C 	C 	0.2372	0.4691	0.4744	-0.119
Mof_C 	C 	0.2396	0.4081	0.4046	0.084
Mof_C 	C 	0.1408	0.5088	0.60131	0.158
Mof_C 	C 	0.0718	0.5725	0.71098	0.167
Mof_C 	C 	0.2899	0.9316	0.6128	0.085
Mof_C 	C 	0.2839	0.9871	0.54094	-0.123
Mof_C 	C 	0.3447	0.9456	0.47677	0.047
Mof_C 	C 	0.4079	0.8487	0.48728	-0.12
Mof_C 	C 	0.406	0.7969	0.56088	0.085
Mof_C 	C 	0.3433	0.0085	0.40168	0.155
Mof_C 	C 	0.403	0.0702	0.28651	0.166
Mof_C 	C 	0.4302	0.7056	0.9383	0.081
Mof_C 	C 	0.44	0.6486	0.00984	-0.114
Mof_C 	C 	0.3554	0.5585	0.02818	0.043
Mof_C 	C 	0.2628	0.5309	0.9744	-0.119
Mof_C 	C 	0.2604	0.5919	0.9046	0.084
Mof_C 	C 	0.3592	0.4912	0.10131	0.158
Mof_C 	C 	0.4282	0.4275	0.21098	0.167
Mof_C 	C 	0.7899	0.9316	0.8872	0.087
Mof_C 	C 	0.7839	0.9871	0.95906	-0.127
Mof_C 	C 	0.8447	0.9456	0.02323	0.052
Mof_C 	C 	0.9079	0.8487	0.01272	-0.121
Mof_C 	C 	0.906	0.7969	0.93912	0.085
Mof_C 	C 	0.8433	0.0085	0.09832	0.15
Mof_C 	C 	0.903	0.0702	0.21349	0.164
Mof_C 	C 	0.9302	0.7056	0.5617	0.081
Mof_C 	C 	0.94	0.6486	0.49016	-0.113
Mof_C 	C 	0.8554	0.5585	0.47182	0.043
Mof_C 	C 	0.7628	0.5309	0.5256	-0.119
Mof_C 	C 	0.7604	0.5919	0.5954	0.084
Mof_C 	C 	0.8592	0.4912	0.39869	0.158
Mof_C 	C 	0.9282	0.4275	0.28902	0.167
Mof_C 	C 	0.7101	0.0684	0.3872	0.085
Mof_C 	C 	0.7161	0.0129	0.45906	-0.123
Mof_C 	C 	0.6553	0.0544	0.52323	0.047
Mof_C 	C 	0.5921	0.1513	0.51272	-0.12
Mof_C 	C 	0.594	0.2031	0.43912	0.085
Mof_C 	C 	0.6567	0.9915	0.59832	0.155
Mof_C 	C 	0.597	0.9298	0.71349	0.166
Mof_C 	C 	0.5698	0.2944	0.0617	0.081
Mof_C 	C 	0.56	0.3514	0.99016	-0.114
Mof_C 	C 	0.6446	0.4415	0.97182	0.043
Mof_C 	C 	0.7372	0.4691	0.0256	-0.119
Mof_C 	C 	0.7396	0.4081	0.0954	0.084
Mof_C 	C 	0.6408	0.5088	0.89869	0.158
Mof_C 	C 	0.5718	0.5725	0.78902	0.167
Mof_S 	S 	0.00862	0.91892	0.70375	-0.067
Mof_S 	S 	0.97381	0.58048	0.78834	-0.061
Mof_S 	S 	0.49138	0.08108	0.20375	-0.067
Mof_S 	S 	0.52619	0.41952	0.28834	-0.061
Mof_S 	S 	0.99138	0.08108	0.29625	-0.067
Mof_S 	S 	0.02619	0.41952	0.21166	-0.061
Mof_S 	S 	0.50862	0.91892	0.79625	-0.067
Mof_S 	S 	0.47381	0.58048	0.71166	-0.061
Mof_N 	N 	0.1522	0.1637	0.12331	-0.149
Mof_N 	N 	0.2297	0.9151	0.88245	-0.106
Mof_N 	N 	0.1917	0.8753	0.80722	-0.128
Mof_N 	N 	0.158	0.3221	0.38564	-0.149
Mof_N 	N 	0.2222	0.5861	0.62531	-0.108
Mof_N 	N 	0.1787	0.6274	0.69701	-0.127
Mof_N 	N 	0.3478	0.8363	0.62331	-0.149
Mof_N 	N 	0.2703	0.0849	0.38245	-0.106
Mof_N 	N 	0.3083	0.1247	0.30722	-0.128
Mof_N 	N 	0.342	0.6779	0.88564	-0.149
Mof_N 	N 	0.2778	0.4139	0.12531	-0.109
Mof_N 	N 	0.3213	0.3726	0.19701	-0.127
Mof_N 	N 	0.8478	0.8363	0.87669	-0.149
Mof_N 	N 	0.7703	0.0849	0.11755	-0.106
Mof_N 	N 	0.8083	0.1247	0.19278	-0.128
Mof_N 	N 	0.842	0.6779	0.61436	-0.149
Mof_N 	N 	0.7778	0.4139	0.37469	-0.108
Mof_N 	N 	0.8213	0.3726	0.30299	-0.127
Mof_N 	N 	0.6522	0.1637	0.37669	-0.149
Mof_N 	N 	0.7297	0.9151	0.61755	-0.106
Mof_N 	N 	0.6917	0.8753	0.69278	-0.128
Mof_N 	N 	0.658	0.3221	0.11436	-0.149
Mof_N 	N 	0.7222	0.5861	0.87469	-0.109
Mof_N 	N 	0.6787	0.6274	0.80299	-0.127
Mof_O 	O 	0.07173	0.00787	0.84508	-0.228
Mof_O 	O 	0.04341	0.49406	0.65078	-0.231
Mof_O 	O 	0.42827	0.99213	0.34508	-0.231
Mof_O 	O 	0.45659	0.50594	0.15078	-0.231
Mof_O 	O 	0.92827	0.99213	0.15492	-0.228
Mof_O 	O 	0.95659	0.50594	0.34922	-0.231
Mof_O 	O 	0.57173	0.00787	0.65492	-0.231
Mof_O 	O 	0.54341	0.49406	0.84922	-0.231
_end
