# CIF file generated by openbabel 3.1.0, see https://openbabel.org
data_I
_chemical_name_common 'image0'
_cell_length_a 10.021
_cell_length_b 8.286
_cell_length_c 11.856
_cell_angle_alpha 90
_cell_angle_beta 103.13
_cell_angle_gamma 90
_space_group_name_H-M_alt 'P 1'
_space_group_name_Hall 'P 1'
loop_
    _symmetry_equiv_pos_as_xyz
    x,y,z
loop_
    _atom_site_label
    _atom_site_type_symbol
    _atom_site_fract_x
    _atom_site_fract_y
    _atom_site_fract_z
    _atom_site_occupancy
    Zn1      Zn       0.67730    0.53030    0.47040    1.000
    Zn2      Zn       0.62190    0.05210    0.42960    1.000
    Zn3      Zn       0.92680    0.32540    0.16320    1.000
    Zn4      Zn       0.66370    0.94220    0.78580    1.000
    P1       P        0.64560    0.34440    0.24040    1.000
    P2       P        0.58280    0.25650    0.62580    1.000
    P3       P        0.92700    0.09540    0.95500    1.000
    P4       P        0.82690    0.82870    0.60290    1.000
    O1       O        0.70580    0.48970    0.31730    1.000
    O2       O        0.82980    0.67430    0.53020    1.000
    O3       O        0.68730    0.33860    0.56910    1.000
    O4       O        0.50960    0.12370    0.54030    1.000
    O5       O        0.65000    0.19110    0.31090    1.000
    O6       O        0.47790    0.36850    0.65530    1.000
    O7       O        0.79630    0.97780    0.52310    1.000
    O8       O        0.73020    0.31880    0.14710    1.000
    O9       O        0.96890    0.85670    0.68200    1.000
    O10      O        0.97120    0.13360    0.08190    1.000
    O11      O        0.04820    0.03960    0.90470    1.000
    O12      O        0.71650    0.80420    0.67260    1.000
    O13      O        0.50130    0.38330    0.17200    1.000
    O14      O        0.65890    0.17410    0.73900    1.000
    O15      O        0.80800    0.97420    0.93110    1.000
    O16      O        0.87400    0.26010    0.89350    1.000
    H1       H        0.80980    0.29380    0.91900    1.000
    Zn5      Zn       0.32270    0.03030    0.52960    1.000
    Zn6      Zn       0.37810    0.55210    0.57040    1.000
    Zn7      Zn       0.07320    0.82540    0.83680    1.000
    Zn8      Zn       0.33630    0.44220    0.21420    1.000
    P5       P        0.35440    0.84440    0.75960    1.000
    P6       P        0.41720    0.75650    0.37420    1.000
    P7       P        0.07300    0.59540    0.04500    1.000
    P8       P        0.17310    0.32870    0.39710    1.000
    O17      O        0.29420    0.98970    0.68270    1.000
    O18      O        0.17020    0.17430    0.46980    1.000
    O19      O        0.31270    0.83860    0.43090    1.000
    O20      O        0.49040    0.62370    0.45970    1.000
    O21      O        0.35000    0.69110    0.68910    1.000
    O22      O        0.52210    0.86850    0.34470    1.000
    O23      O        0.20370    0.47780    0.47690    1.000
    O24      O        0.26980    0.81880    0.85290    1.000
    O25      O        0.03110    0.35670    0.31800    1.000
    O26      O        0.02880    0.63360    0.91810    1.000
    O27      O        0.95180    0.53960    0.09530    1.000
    O28      O        0.28350    0.30420    0.32740    1.000
    O29      O        0.49870    0.88330    0.82800    1.000
    O30      O        0.34110    0.67410    0.26100    1.000
    O31      O        0.19200    0.47420    0.06890    1.000
    O32      O        0.12600    0.76010    0.10650    1.000
    H2       H        0.19020    0.79380    0.08100    1.000
