data_functionalizedCrystal
_audit_creation_method	'EQeq! by Chris Wilmer'
_symmetry_space_group_name_H-M	'P1'
_symmetry_Int_Tables_number	1
_symmetry_cell_setting	triclinic
loop_
_symmetry_equiv_pos_as_xyz
  x,y,z
_cell_length_a	45.0964
_cell_length_b	45.0964
_cell_length_c	45.0964
_cell_angle_alpha	60
_cell_angle_beta	60
_cell_angle_gamma	60
loop_
_atom_site_label
_atom_site_type_symbol
_atom_site_fract_x
_atom_site_fract_y
_atom_site_fract_z
_atom_site_charge
Mof_S 	S 	0.42847	0.49475	0.16691	-0.062
Mof_S 	S 	0.28788	0.45312	0.06076	-0.061
Mof_N 	N 	0.32926	0.38178	0.17068	-0.228
Mof_N 	N 	0.36211	0.54873	0.07949	-0.15
Mof_N 	N 	0.34488	0.58472	0.02666	-0.152
Mof_C 	C 	0.35338	0.58044	0.05302	0.133
Mof_N 	N 	0.38093	0.42125	0.12683	-0.227
Mof_N 	N 	0.34163	0.41087	0.09357	-0.266
Mof_C 	C 	0.35552	0.61218	0.05282	-0.048
Mof_C 	C 	0.36288	0.60922	0.08078	0.034
Mof_H 	H 	0.3655	0.5867	0.1001	0.014
Mof_N 	N 	0.35011	0.52235	0.05395	-0.151
Mof_C 	C 	0.34561	0.58265	0.96499	0.034
Mof_H 	H 	0.3529	0.6001	0.9631	0.012
Mof_C 	C 	0.32659	0.35393	0.20221	0.038
Mof_H 	H 	0.3456	0.3312	0.2028	0.012
Mof_N 	N 	0.3666	0.6363	0.08208	-0.227
Mof_C 	C 	0.33254	0.56068	0.93886	0.062
Mof_H 	H 	0.331	0.562	0.918	-0.002
Mof_C 	C 	0.34371	0.55465	0.02839	0.132
Mof_C 	C 	0.29782	0.3566	0.23366	-0.052
Mof_N 	N 	0.40747	0.56963	0.13181	-0.259
Mof_N 	N 	0.26629	0.32707	0.29535	-0.152
Mof_N 	N 	0.34451	0.58441	0.93505	-0.225
Mof_C 	C 	0.29689	0.32495	0.26715	0.133
Mof_C 	C 	0.33674	0.55668	0.99868	-0.048
Mof_C 	C 	0.35258	0.64452	0.02424	0.004
Mof_H 	H 	0.3476	0.6474	0.0046	0.037
Mof_C 	C 	0.41662	0.53822	0.14524	0.097
Mof_C 	C 	0.32465	0.53145	0.00217	0.005
Mof_H 	H 	0.3184	0.5132	0.0248	0.037
Mof_C 	C 	0.37217	0.45445	0.10333	0.039
Mof_H 	H 	0.3672	0.4574	0.0836	0.011
Mof_C 	C 	0.32224	0.53404	0.97146	-0.101
Mof_H 	H 	0.3137	0.5179	0.9727	0.065
Mof_C 	C 	0.36981	0.48543	0.10591	-0.05
Mof_C 	C 	0.38917	0.41673	0.15411	0.051
Mof_H 	H 	0.3951	0.3931	0.1713	0.004
Mof_C 	C 	0.32008	0.42774	0.07992	0.104
Mof_C 	C 	0.35692	0.673	0.02426	-0.096
Mof_H 	H 	0.3553	0.6955	0.0047	0.062
Mof_C 	C 	0.38925	0.44541	0.15803	-0.092
Mof_H 	H 	0.3956	0.4414	0.1772	0.063
Mof_C 	C 	0.26989	0.38983	0.23313	0.006
Mof_H 	H 	0.2496	0.3924	0.2544	0.037
Mof_C 	C 	0.30204	0.4138	0.17078	0.055
Mof_H 	H 	0.3036	0.4338	0.1488	0.001
Mof_C 	C 	0.36371	0.66747	0.05377	0.055
Mof_H 	H 	0.3665	0.6869	0.0539	-0.001
Mof_C 	C 	0.37965	0.48057	0.13309	0.002
Mof_H 	H 	0.3799	0.5005	0.1349	0.039
Mof_C 	C 	0.35991	0.52059	0.07871	0.132
Mof_C 	C 	0.27205	0.41917	0.20099	-0.099
Mof_H 	H 	0.2535	0.4421	0.1999	0.066
Mof_S 	S 	0.49475	0.42847	0.90987	-0.062
Mof_S 	S 	0.45312	0.28788	0.19824	-0.061
Mof_N 	N 	0.38178	0.32926	0.11828	-0.228
Mof_N 	N 	0.54873	0.36211	0.00967	-0.15
Mof_N 	N 	0.58472	0.34488	0.04374	-0.152
Mof_C 	C 	0.58044	0.35338	0.01316	0.132
Mof_N 	N 	0.42125	0.38093	0.07099	-0.227
Mof_N 	N 	0.41087	0.34163	0.15393	-0.266
Mof_C 	C 	0.61218	0.35552	0.97948	-0.048
Mof_C 	C 	0.60922	0.36288	0.94712	0.034
Mof_H 	H 	0.5867	0.3655	0.9477	0.014
Mof_N 	N 	0.52235	0.35011	0.07359	-0.151
Mof_C 	C 	0.58265	0.34561	0.10675	0.035
Mof_H 	H 	0.6001	0.3529	0.0839	0.011
Mof_C 	C 	0.35393	0.32659	0.11727	0.038
Mof_H 	H 	0.3312	0.3456	0.1204	0.012
Mof_N 	N 	0.6363	0.3666	0.91502	-0.227
Mof_C 	C 	0.56068	0.33254	0.16792	0.063
Mof_H 	H 	0.562	0.331	0.189	-0.002
Mof_C 	C 	0.55465	0.34371	0.07325	0.133
Mof_C 	C 	0.3566	0.29782	0.11192	-0.052
Mof_N 	N 	0.56963	0.40747	0.89109	-0.259
Mof_N 	N 	0.32707	0.26629	0.11129	-0.152
Mof_N 	N 	0.58441	0.34451	0.13603	-0.226
Mof_C 	C 	0.32495	0.29689	0.11101	0.133
Mof_C 	C 	0.55668	0.33674	0.1079	-0.049
Mof_C 	C 	0.64452	0.35258	0.97866	0.005
Mof_H 	H 	0.6474	0.3476	0.0004	0.037
Mof_C 	C 	0.53822	0.41662	0.89992	0.097
Mof_C 	C 	0.53145	0.32465	0.14173	0.006
Mof_H 	H 	0.5132	0.3184	0.1436	0.037
Mof_C 	C 	0.45445	0.37217	0.07005	0.039
Mof_H 	H 	0.4574	0.3672	0.0918	0.011
Mof_C 	C 	0.53404	0.32224	0.17226	-0.102
Mof_H 	H 	0.5179	0.3137	0.1957	0.065
Mof_C 	C 	0.48543	0.36981	0.03885	-0.05
Mof_C 	C 	0.41673	0.38917	0.03999	0.051
Mof_H 	H 	0.3931	0.3951	0.0405	0.004
Mof_C 	C 	0.42774	0.32008	0.17226	0.104
Mof_C 	C 	0.673	0.35692	0.94582	-0.096
Mof_H 	H 	0.6955	0.3553	0.9445	0.063
Mof_C 	C 	0.44541	0.38925	0.00731	-0.093
Mof_H 	H 	0.4414	0.3956	0.9858	0.064
Mof_C 	C 	0.38983	0.26989	0.10715	0.006
Mof_H 	H 	0.3924	0.2496	0.1036	0.037
Mof_C 	C 	0.4138	0.30204	0.11338	0.055
Mof_H 	H 	0.4338	0.3036	0.1138	0.001
Mof_C 	C 	0.66747	0.36371	0.91505	0.055
Mof_H 	H 	0.6869	0.3665	0.8927	-0.001
Mof_C 	C 	0.48057	0.37965	0.00669	0.002
Mof_H 	H 	0.5005	0.3799	0.9847	0.039
Mof_C 	C 	0.52059	0.35991	0.04079	0.132
Mof_C 	C 	0.41917	0.27205	0.10779	-0.098
Mof_H 	H 	0.4421	0.2535	0.1045	0.067
Mof_S 	S 	0.16691	0.90987	0.42847	-0.061
Mof_S 	S 	0.06076	0.19824	0.28788	-0.06
Mof_N 	N 	0.17068	0.11828	0.32926	-0.227
Mof_N 	N 	0.07949	0.00967	0.36211	-0.149
Mof_N 	N 	0.02666	0.04374	0.34488	-0.151
Mof_C 	C 	0.05302	0.01316	0.35338	0.133
Mof_N 	N 	0.12683	0.07099	0.38093	-0.226
Mof_N 	N 	0.09357	0.15393	0.34163	-0.265
Mof_C 	C 	0.05282	0.97948	0.35552	-0.047
Mof_C 	C 	0.08078	0.94712	0.36288	0.035
Mof_H 	H 	0.1001	0.9477	0.3655	0.015
Mof_N 	N 	0.05395	0.07359	0.35011	-0.15
Mof_C 	C 	0.96499	0.10675	0.34561	0.035
Mof_H 	H 	0.9631	0.0839	0.3529	0.013
Mof_C 	C 	0.20221	0.11727	0.32659	0.039
Mof_H 	H 	0.2028	0.1204	0.3456	0.013
Mof_N 	N 	0.08208	0.91502	0.3666	-0.226
Mof_C 	C 	0.93886	0.16792	0.33254	0.063
Mof_H 	H 	0.918	0.189	0.331	-0.001
Mof_C 	C 	0.02839	0.07325	0.34371	0.133
Mof_C 	C 	0.23366	0.11192	0.29782	-0.051
Mof_N 	N 	0.13181	0.89109	0.40747	-0.258
Mof_N 	N 	0.29535	0.11129	0.26629	-0.151
Mof_N 	N 	0.93505	0.13603	0.34451	-0.224
Mof_C 	C 	0.26715	0.11101	0.29689	0.134
Mof_C 	C 	0.99868	0.1079	0.33674	-0.047
Mof_C 	C 	0.02424	0.97866	0.35258	0.006
Mof_H 	H 	0.0046	0.0004	0.3476	0.038
Mof_C 	C 	0.14524	0.89992	0.41662	0.098
Mof_C 	C 	0.00217	0.14173	0.32465	0.006
Mof_H 	H 	0.0248	0.1436	0.3184	0.038
Mof_C 	C 	0.10333	0.07005	0.37217	0.04
Mof_H 	H 	0.0836	0.0918	0.3672	0.012
Mof_C 	C 	0.97146	0.17226	0.32224	-0.1
Mof_H 	H 	0.9727	0.1957	0.3137	0.066
Mof_C 	C 	0.10591	0.03885	0.36981	-0.049
Mof_C 	C 	0.15411	0.03999	0.38917	0.052
Mof_H 	H 	0.1713	0.0405	0.3951	0.005
Mof_C 	C 	0.07992	0.17226	0.32008	0.105
Mof_C 	C 	0.02426	0.94582	0.35692	-0.095
Mof_H 	H 	0.0047	0.9445	0.3553	0.063
Mof_C 	C 	0.15803	0.00731	0.38925	-0.092
Mof_H 	H 	0.1772	0.9858	0.3956	0.065
Mof_C 	C 	0.23313	0.10715	0.26989	0.007
Mof_H 	H 	0.2544	0.1036	0.2496	0.038
Mof_C 	C 	0.17078	0.11338	0.30204	0.056
Mof_H 	H 	0.1488	0.1138	0.3036	0.002
Mof_C 	C 	0.05377	0.91505	0.36371	0.056
Mof_H 	H 	0.0539	0.8927	0.3665	-0
Mof_C 	C 	0.13309	0.00669	0.37965	0.003
Mof_H 	H 	0.1349	0.9847	0.3799	0.04
Mof_C 	C 	0.07871	0.04079	0.35991	0.132
Mof_C 	C 	0.20099	0.10779	0.27205	-0.098
Mof_H 	H 	0.1999	0.1045	0.2535	0.067
Mof_S 	S 	0.90987	0.16691	0.49475	-0.061
Mof_S 	S 	0.19824	0.06076	0.45312	-0.06
Mof_N 	N 	0.11828	0.17068	0.38178	-0.227
Mof_N 	N 	0.00967	0.07949	0.54873	-0.149
Mof_N 	N 	0.04374	0.02666	0.58472	-0.151
Mof_C 	C 	0.01316	0.05302	0.58044	0.133
Mof_N 	N 	0.07099	0.12683	0.42125	-0.226
Mof_N 	N 	0.15393	0.09357	0.41087	-0.265
Mof_C 	C 	0.97948	0.05282	0.61218	-0.047
Mof_C 	C 	0.94712	0.08078	0.60922	0.035
Mof_H 	H 	0.9477	0.1001	0.5867	0.015
Mof_N 	N 	0.07359	0.05395	0.52235	-0.15
Mof_C 	C 	0.10675	0.96499	0.58265	0.035
Mof_H 	H 	0.0839	0.9631	0.6001	0.013
Mof_C 	C 	0.11727	0.20221	0.35393	0.039
Mof_H 	H 	0.1204	0.2028	0.3312	0.013
Mof_N 	N 	0.91502	0.08208	0.6363	-0.226
Mof_C 	C 	0.16792	0.93886	0.56068	0.063
Mof_H 	H 	0.189	0.918	0.562	-0.001
Mof_C 	C 	0.07325	0.02839	0.55465	0.133
Mof_C 	C 	0.11192	0.23366	0.3566	-0.051
Mof_N 	N 	0.89109	0.13181	0.56963	-0.258
Mof_N 	N 	0.11129	0.29535	0.32707	-0.151
Mof_N 	N 	0.13603	0.93505	0.58441	-0.224
Mof_C 	C 	0.11101	0.26715	0.32495	0.134
Mof_C 	C 	0.1079	0.99868	0.55668	-0.047
Mof_C 	C 	0.97866	0.02424	0.64452	0.006
Mof_H 	H 	0.0004	0.0046	0.6474	0.038
Mof_C 	C 	0.89992	0.14524	0.53822	0.098
Mof_C 	C 	0.14173	0.00217	0.53145	0.006
Mof_H 	H 	0.1436	0.0248	0.5132	0.038
Mof_C 	C 	0.07005	0.10333	0.45445	0.04
Mof_H 	H 	0.0918	0.0836	0.4574	0.012
Mof_C 	C 	0.17226	0.97146	0.53404	-0.1
Mof_H 	H 	0.1957	0.9727	0.5179	0.066
Mof_C 	C 	0.03885	0.10591	0.48543	-0.049
Mof_C 	C 	0.03999	0.15411	0.41673	0.052
Mof_H 	H 	0.0405	0.1713	0.3931	0.005
Mof_C 	C 	0.17226	0.07992	0.42774	0.105
Mof_C 	C 	0.94582	0.02426	0.673	-0.095
Mof_H 	H 	0.9445	0.0047	0.6955	0.063
Mof_C 	C 	0.00731	0.15803	0.44541	-0.092
Mof_H 	H 	0.9858	0.1772	0.4414	0.065
Mof_C 	C 	0.10715	0.23313	0.38983	0.007
Mof_H 	H 	0.1036	0.2544	0.3924	0.038
Mof_C 	C 	0.11338	0.17078	0.4138	0.056
Mof_H 	H 	0.1138	0.1488	0.4338	0.002
Mof_C 	C 	0.91505	0.05377	0.66747	0.056
Mof_H 	H 	0.8927	0.0539	0.6869	-0
Mof_C 	C 	0.00669	0.13309	0.48057	0.003
Mof_H 	H 	0.9847	0.1349	0.5005	0.04
Mof_C 	C 	0.04079	0.07871	0.52059	0.132
Mof_C 	C 	0.10779	0.20099	0.41917	-0.098
Mof_H 	H 	0.1045	0.1999	0.4421	0.067
Mof_S 	S 	0.16691	0.42847	0.49475	-0.061
Mof_S 	S 	0.06076	0.28788	0.45312	-0.06
Mof_N 	N 	0.17068	0.32926	0.38178	-0.227
Mof_N 	N 	0.07949	0.36211	0.54873	-0.149
Mof_N 	N 	0.02666	0.34488	0.58472	-0.151
Mof_C 	C 	0.05302	0.35338	0.58044	0.134
Mof_N 	N 	0.12683	0.38093	0.42125	-0.226
Mof_N 	N 	0.09357	0.34163	0.41087	-0.265
Mof_C 	C 	0.05282	0.35552	0.61218	-0.047
Mof_C 	C 	0.08078	0.36288	0.60922	0.035
Mof_H 	H 	0.1001	0.3655	0.5867	0.015
Mof_N 	N 	0.05395	0.35011	0.52235	-0.15
Mof_C 	C 	0.96499	0.34561	0.58265	0.035
Mof_H 	H 	0.9631	0.3529	0.6001	0.013
Mof_C 	C 	0.20221	0.32659	0.35393	0.039
Mof_H 	H 	0.2028	0.3456	0.3312	0.013
Mof_N 	N 	0.08208	0.3666	0.6363	-0.226
Mof_C 	C 	0.93886	0.33254	0.56068	0.063
Mof_H 	H 	0.918	0.331	0.562	-0.001
Mof_C 	C 	0.02839	0.34371	0.55465	0.133
Mof_C 	C 	0.23366	0.29782	0.3566	-0.051
Mof_N 	N 	0.13181	0.40747	0.56963	-0.258
Mof_N 	N 	0.29535	0.26629	0.32707	-0.151
Mof_N 	N 	0.93505	0.34451	0.58441	-0.224
Mof_C 	C 	0.26715	0.29689	0.32495	0.134
Mof_C 	C 	0.99868	0.33674	0.55668	-0.047
Mof_C 	C 	0.02424	0.35258	0.64452	0.005
Mof_H 	H 	0.0046	0.3476	0.6474	0.038
Mof_C 	C 	0.14524	0.41662	0.53822	0.098
Mof_C 	C 	0.00217	0.32465	0.53145	0.006
Mof_H 	H 	0.0248	0.3184	0.5132	0.038
Mof_C 	C 	0.10333	0.37217	0.45445	0.04
Mof_H 	H 	0.0836	0.3672	0.4574	0.012
Mof_C 	C 	0.97146	0.32224	0.53404	-0.1
Mof_H 	H 	0.9727	0.3137	0.5179	0.066
Mof_C 	C 	0.10591	0.36981	0.48543	-0.049
Mof_C 	C 	0.15411	0.38917	0.41673	0.052
Mof_H 	H 	0.1713	0.3951	0.3931	0.005
Mof_C 	C 	0.07992	0.32008	0.42774	0.105
Mof_C 	C 	0.02426	0.35692	0.673	-0.095
Mof_H 	H 	0.0047	0.3553	0.6955	0.063
Mof_C 	C 	0.15803	0.38925	0.44541	-0.091
Mof_H 	H 	0.1772	0.3956	0.4414	0.064
Mof_C 	C 	0.23313	0.26989	0.38983	0.007
Mof_H 	H 	0.2544	0.2496	0.3924	0.038
Mof_C 	C 	0.17078	0.30204	0.4138	0.056
Mof_H 	H 	0.1488	0.3036	0.4338	0.002
Mof_C 	C 	0.05377	0.36371	0.66747	0.056
Mof_H 	H 	0.0539	0.3665	0.6869	-0
Mof_C 	C 	0.13309	0.37965	0.48057	0.003
Mof_H 	H 	0.1349	0.3799	0.5005	0.04
Mof_C 	C 	0.07871	0.35991	0.52059	0.133
Mof_C 	C 	0.20099	0.27205	0.41917	-0.098
Mof_H 	H 	0.1999	0.2535	0.4421	0.067
Mof_S 	S 	0.90987	0.49475	0.42847	-0.061
Mof_S 	S 	0.19824	0.45312	0.28788	-0.06
Mof_N 	N 	0.11828	0.38178	0.32926	-0.227
Mof_N 	N 	0.00967	0.54873	0.36211	-0.149
Mof_N 	N 	0.04374	0.58472	0.34488	-0.151
Mof_C 	C 	0.01316	0.58044	0.35338	0.133
Mof_N 	N 	0.07099	0.42125	0.38093	-0.226
Mof_N 	N 	0.15393	0.41087	0.34163	-0.265
Mof_C 	C 	0.97948	0.61218	0.35552	-0.047
Mof_C 	C 	0.94712	0.60922	0.36288	0.035
Mof_H 	H 	0.9477	0.5867	0.3655	0.015
Mof_N 	N 	0.07359	0.52235	0.35011	-0.15
Mof_C 	C 	0.10675	0.58265	0.34561	0.036
Mof_H 	H 	0.0839	0.6001	0.3529	0.012
Mof_C 	C 	0.11727	0.35393	0.32659	0.039
Mof_H 	H 	0.1204	0.3312	0.3456	0.013
Mof_N 	N 	0.91502	0.6363	0.3666	-0.226
Mof_C 	C 	0.16792	0.56068	0.33254	0.064
Mof_H 	H 	0.189	0.562	0.331	-0.001
Mof_C 	C 	0.07325	0.55465	0.34371	0.134
Mof_C 	C 	0.11192	0.3566	0.29782	-0.051
Mof_N 	N 	0.89109	0.56963	0.40747	-0.258
Mof_N 	N 	0.11129	0.32707	0.26629	-0.151
Mof_N 	N 	0.13603	0.58441	0.34451	-0.225
Mof_C 	C 	0.11101	0.32495	0.29689	0.134
Mof_C 	C 	0.1079	0.55668	0.33674	-0.048
Mof_C 	C 	0.97866	0.64452	0.35258	0.006
Mof_H 	H 	0.0004	0.6474	0.3476	0.038
Mof_C 	C 	0.89992	0.53822	0.41662	0.098
Mof_C 	C 	0.14173	0.53145	0.32465	0.007
Mof_H 	H 	0.1436	0.5132	0.3184	0.038
Mof_C 	C 	0.07005	0.45445	0.37217	0.04
Mof_H 	H 	0.0918	0.4574	0.3672	0.012
Mof_C 	C 	0.17226	0.53404	0.32224	-0.101
Mof_H 	H 	0.1957	0.5179	0.3137	0.066
Mof_C 	C 	0.03885	0.48543	0.36981	-0.049
Mof_C 	C 	0.03999	0.41673	0.38917	0.052
Mof_H 	H 	0.0405	0.3931	0.3951	0.005
Mof_C 	C 	0.17226	0.42774	0.32008	0.105
Mof_C 	C 	0.94582	0.673	0.35692	-0.095
Mof_H 	H 	0.9445	0.6955	0.3553	0.064
Mof_C 	C 	0.00731	0.44541	0.38925	-0.092
Mof_H 	H 	0.9858	0.4414	0.3956	0.065
Mof_C 	C 	0.10715	0.38983	0.26989	0.007
Mof_H 	H 	0.1036	0.3924	0.2496	0.038
Mof_C 	C 	0.11338	0.4138	0.30204	0.056
Mof_H 	H 	0.1138	0.4338	0.3036	0.002
Mof_C 	C 	0.91505	0.66747	0.36371	0.056
Mof_H 	H 	0.8927	0.6869	0.3665	-0
Mof_C 	C 	0.00669	0.48057	0.37965	0.003
Mof_H 	H 	0.9847	0.5005	0.3799	0.04
Mof_C 	C 	0.04079	0.52059	0.35991	0.132
Mof_C 	C 	0.10779	0.41917	0.27205	-0.098
Mof_H 	H 	0.1045	0.4421	0.2535	0.067
Mof_S 	S 	0.42847	0.16691	0.90987	-0.061
Mof_S 	S 	0.28788	0.06076	0.19824	-0.06
Mof_N 	N 	0.32926	0.17068	0.11828	-0.227
Mof_N 	N 	0.36211	0.07949	0.00967	-0.149
Mof_N 	N 	0.34488	0.02666	0.04374	-0.151
Mof_C 	C 	0.35338	0.05302	0.01316	0.133
Mof_N 	N 	0.38093	0.12683	0.07099	-0.226
Mof_N 	N 	0.34163	0.09357	0.15393	-0.265
Mof_C 	C 	0.35552	0.05282	0.97948	-0.047
Mof_C 	C 	0.36288	0.08078	0.94712	0.035
Mof_H 	H 	0.3655	0.1001	0.9477	0.015
Mof_N 	N 	0.35011	0.05395	0.07359	-0.15
Mof_C 	C 	0.34561	0.96499	0.10675	0.035
Mof_H 	H 	0.3529	0.9631	0.0839	0.013
Mof_C 	C 	0.32659	0.20221	0.11727	0.039
Mof_H 	H 	0.3456	0.2028	0.1204	0.013
Mof_N 	N 	0.3666	0.08208	0.91502	-0.226
Mof_C 	C 	0.33254	0.93886	0.16792	0.063
Mof_H 	H 	0.331	0.918	0.189	-0.001
Mof_C 	C 	0.34371	0.02839	0.07325	0.133
Mof_C 	C 	0.29782	0.23366	0.11192	-0.051
Mof_N 	N 	0.40747	0.13181	0.89109	-0.258
Mof_N 	N 	0.26629	0.29535	0.11129	-0.151
Mof_N 	N 	0.34451	0.93505	0.13603	-0.224
Mof_C 	C 	0.29689	0.26715	0.11101	0.134
Mof_C 	C 	0.33674	0.99868	0.1079	-0.047
Mof_C 	C 	0.35258	0.02424	0.97866	0.006
Mof_H 	H 	0.3476	0.0046	0.0004	0.038
Mof_C 	C 	0.41662	0.14524	0.89992	0.098
Mof_C 	C 	0.32465	0.00217	0.14173	0.006
Mof_H 	H 	0.3184	0.0248	0.1436	0.038
Mof_C 	C 	0.37217	0.10333	0.07005	0.04
Mof_H 	H 	0.3672	0.0836	0.0918	0.012
Mof_C 	C 	0.32224	0.97146	0.17226	-0.1
Mof_H 	H 	0.3137	0.9727	0.1957	0.066
Mof_C 	C 	0.36981	0.10591	0.03885	-0.049
Mof_C 	C 	0.38917	0.15411	0.03999	0.052
Mof_H 	H 	0.3951	0.1713	0.0405	0.005
Mof_C 	C 	0.32008	0.07992	0.17226	0.105
Mof_C 	C 	0.35692	0.02426	0.94582	-0.095
Mof_H 	H 	0.3553	0.0047	0.9445	0.063
Mof_C 	C 	0.38925	0.15803	0.00731	-0.092
Mof_H 	H 	0.3956	0.1772	0.9858	0.065
Mof_C 	C 	0.26989	0.23313	0.10715	0.007
Mof_H 	H 	0.2496	0.2544	0.1036	0.038
Mof_C 	C 	0.30204	0.17078	0.11338	0.056
Mof_H 	H 	0.3036	0.1488	0.1138	0.002
Mof_C 	C 	0.36371	0.05377	0.91505	0.056
Mof_H 	H 	0.3665	0.0539	0.8927	-0
Mof_C 	C 	0.37965	0.13309	0.00669	0.003
Mof_H 	H 	0.3799	0.1349	0.9847	0.04
Mof_C 	C 	0.35991	0.07871	0.04079	0.132
Mof_C 	C 	0.27205	0.20099	0.10779	-0.098
Mof_H 	H 	0.2535	0.1999	0.1045	0.067
Mof_S 	S 	0.49475	0.90987	0.16691	-0.061
Mof_S 	S 	0.45312	0.19824	0.06076	-0.06
Mof_N 	N 	0.38178	0.11828	0.17068	-0.227
Mof_N 	N 	0.54873	0.00967	0.07949	-0.149
Mof_N 	N 	0.58472	0.04374	0.02666	-0.151
Mof_C 	C 	0.58044	0.01316	0.05302	0.133
Mof_N 	N 	0.42125	0.07099	0.12683	-0.226
Mof_N 	N 	0.41087	0.15393	0.09357	-0.265
Mof_C 	C 	0.61218	0.97948	0.05282	-0.047
Mof_C 	C 	0.60922	0.94712	0.08078	0.035
Mof_H 	H 	0.5867	0.9477	0.1001	0.015
Mof_N 	N 	0.52235	0.07359	0.05395	-0.15
Mof_C 	C 	0.58265	0.10675	0.96499	0.035
Mof_H 	H 	0.6001	0.0839	0.9631	0.013
Mof_C 	C 	0.35393	0.11727	0.20221	0.039
Mof_H 	H 	0.3312	0.1204	0.2028	0.013
Mof_N 	N 	0.6363	0.91502	0.08208	-0.226
Mof_C 	C 	0.56068	0.16792	0.93886	0.063
Mof_H 	H 	0.562	0.189	0.918	-0.001
Mof_C 	C 	0.55465	0.07325	0.02839	0.133
Mof_C 	C 	0.3566	0.11192	0.23366	-0.051
Mof_N 	N 	0.56963	0.89109	0.13181	-0.258
Mof_N 	N 	0.32707	0.11129	0.29535	-0.151
Mof_N 	N 	0.58441	0.13603	0.93505	-0.224
Mof_C 	C 	0.32495	0.11101	0.26715	0.134
Mof_C 	C 	0.55668	0.1079	0.99868	-0.047
Mof_C 	C 	0.64452	0.97866	0.02424	0.006
Mof_H 	H 	0.6474	0.0004	0.0046	0.038
Mof_C 	C 	0.53822	0.89992	0.14524	0.098
Mof_C 	C 	0.53145	0.14173	0.00217	0.006
Mof_H 	H 	0.5132	0.1436	0.0248	0.038
Mof_C 	C 	0.45445	0.07005	0.10333	0.04
Mof_H 	H 	0.4574	0.0918	0.0836	0.012
Mof_C 	C 	0.53404	0.17226	0.97146	-0.1
Mof_H 	H 	0.5179	0.1957	0.9727	0.066
Mof_C 	C 	0.48543	0.03885	0.10591	-0.049
Mof_C 	C 	0.41673	0.03999	0.15411	0.052
Mof_H 	H 	0.3931	0.0405	0.1713	0.005
Mof_C 	C 	0.42774	0.17226	0.07992	0.105
Mof_C 	C 	0.673	0.94582	0.02426	-0.095
Mof_H 	H 	0.6955	0.9445	0.0047	0.063
Mof_C 	C 	0.44541	0.00731	0.15803	-0.092
Mof_H 	H 	0.4414	0.9858	0.1772	0.065
Mof_C 	C 	0.38983	0.10715	0.23313	0.007
Mof_H 	H 	0.3924	0.1036	0.2544	0.038
Mof_C 	C 	0.4138	0.11338	0.17078	0.056
Mof_H 	H 	0.4338	0.1138	0.1488	0.002
Mof_C 	C 	0.66747	0.91505	0.05377	0.056
Mof_H 	H 	0.6869	0.8927	0.0539	-0
Mof_C 	C 	0.48057	0.00669	0.13309	0.003
Mof_H 	H 	0.5005	0.9847	0.1349	0.04
Mof_C 	C 	0.52059	0.04079	0.07871	0.132
Mof_C 	C 	0.41917	0.10779	0.20099	-0.098
Mof_H 	H 	0.4421	0.1045	0.1999	0.067
Mof_S 	S 	0.49475	0.16691	0.42847	-0.061
Mof_S 	S 	0.45312	0.06076	0.28788	-0.06
Mof_N 	N 	0.38178	0.17068	0.32926	-0.227
Mof_N 	N 	0.54873	0.07949	0.36211	-0.149
Mof_N 	N 	0.58472	0.02666	0.34488	-0.151
Mof_C 	C 	0.58044	0.05302	0.35338	0.134
Mof_N 	N 	0.42125	0.12683	0.38093	-0.226
Mof_N 	N 	0.41087	0.09357	0.34163	-0.265
Mof_C 	C 	0.61218	0.05282	0.35552	-0.047
Mof_C 	C 	0.60922	0.08078	0.36288	0.035
Mof_H 	H 	0.5867	0.1001	0.3655	0.015
Mof_N 	N 	0.52235	0.05395	0.35011	-0.15
Mof_C 	C 	0.58265	0.96499	0.34561	0.035
Mof_H 	H 	0.6001	0.9631	0.3529	0.013
Mof_C 	C 	0.35393	0.20221	0.32659	0.039
Mof_H 	H 	0.3312	0.2028	0.3456	0.013
Mof_N 	N 	0.6363	0.08208	0.3666	-0.226
Mof_C 	C 	0.56068	0.93886	0.33254	0.063
Mof_H 	H 	0.562	0.918	0.331	-0.001
Mof_C 	C 	0.55465	0.02839	0.34371	0.133
Mof_C 	C 	0.3566	0.23366	0.29782	-0.051
Mof_N 	N 	0.56963	0.13181	0.40747	-0.258
Mof_N 	N 	0.32707	0.29535	0.26629	-0.151
Mof_N 	N 	0.58441	0.93505	0.34451	-0.224
Mof_C 	C 	0.32495	0.26715	0.29689	0.134
Mof_C 	C 	0.55668	0.99868	0.33674	-0.047
Mof_C 	C 	0.64452	0.02424	0.35258	0.005
Mof_H 	H 	0.6474	0.0046	0.3476	0.038
Mof_C 	C 	0.53822	0.14524	0.41662	0.098
Mof_C 	C 	0.53145	0.00217	0.32465	0.006
Mof_H 	H 	0.5132	0.0248	0.3184	0.038
Mof_C 	C 	0.45445	0.10333	0.37217	0.04
Mof_H 	H 	0.4574	0.0836	0.3672	0.012
Mof_C 	C 	0.53404	0.97146	0.32224	-0.1
Mof_H 	H 	0.5179	0.9727	0.3137	0.066
Mof_C 	C 	0.48543	0.10591	0.36981	-0.049
Mof_C 	C 	0.41673	0.15411	0.38917	0.052
Mof_H 	H 	0.3931	0.1713	0.3951	0.005
Mof_C 	C 	0.42774	0.07992	0.32008	0.105
Mof_C 	C 	0.673	0.02426	0.35692	-0.095
Mof_H 	H 	0.6955	0.0047	0.3553	0.063
Mof_C 	C 	0.44541	0.15803	0.38925	-0.091
Mof_H 	H 	0.4414	0.1772	0.3956	0.064
Mof_C 	C 	0.38983	0.23313	0.26989	0.007
Mof_H 	H 	0.3924	0.2544	0.2496	0.038
Mof_C 	C 	0.4138	0.17078	0.30204	0.056
Mof_H 	H 	0.4338	0.1488	0.3036	0.002
Mof_C 	C 	0.66747	0.05377	0.36371	0.056
Mof_H 	H 	0.6869	0.0539	0.3665	-0
Mof_C 	C 	0.48057	0.13309	0.37965	0.003
Mof_H 	H 	0.5005	0.1349	0.3799	0.04
Mof_C 	C 	0.52059	0.07871	0.35991	0.133
Mof_C 	C 	0.41917	0.20099	0.27205	-0.098
Mof_H 	H 	0.4421	0.1999	0.2535	0.067
Mof_S 	S 	0.42847	0.90987	0.49475	-0.061
Mof_S 	S 	0.28788	0.19824	0.45312	-0.06
Mof_N 	N 	0.32926	0.11828	0.38178	-0.227
Mof_N 	N 	0.36211	0.00967	0.54873	-0.149
Mof_N 	N 	0.34488	0.04374	0.58472	-0.151
Mof_C 	C 	0.35338	0.01316	0.58044	0.133
Mof_N 	N 	0.38093	0.07099	0.42125	-0.226
Mof_N 	N 	0.34163	0.15393	0.41087	-0.265
Mof_C 	C 	0.35552	0.97948	0.61218	-0.047
Mof_C 	C 	0.36288	0.94712	0.60922	0.035
Mof_H 	H 	0.3655	0.9477	0.5867	0.015
Mof_N 	N 	0.35011	0.07359	0.52235	-0.15
Mof_C 	C 	0.34561	0.10675	0.58265	0.036
Mof_H 	H 	0.3529	0.0839	0.6001	0.012
Mof_C 	C 	0.32659	0.11727	0.35393	0.039
Mof_H 	H 	0.3456	0.1204	0.3312	0.013
Mof_N 	N 	0.3666	0.91502	0.6363	-0.226
Mof_C 	C 	0.33254	0.16792	0.56068	0.064
Mof_H 	H 	0.331	0.189	0.562	-0.001
Mof_C 	C 	0.34371	0.07325	0.55465	0.134
Mof_C 	C 	0.29782	0.11192	0.3566	-0.051
Mof_N 	N 	0.40747	0.89109	0.56963	-0.258
Mof_N 	N 	0.26629	0.11129	0.32707	-0.151
Mof_N 	N 	0.34451	0.13603	0.58441	-0.225
Mof_C 	C 	0.29689	0.11101	0.32495	0.134
Mof_C 	C 	0.33674	0.1079	0.55668	-0.048
Mof_C 	C 	0.35258	0.97866	0.64452	0.006
Mof_H 	H 	0.3476	0.0004	0.6474	0.038
Mof_C 	C 	0.41662	0.89992	0.53822	0.098
Mof_C 	C 	0.32465	0.14173	0.53145	0.007
Mof_H 	H 	0.3184	0.1436	0.5132	0.038
Mof_C 	C 	0.37217	0.07005	0.45445	0.04
Mof_H 	H 	0.3672	0.0918	0.4574	0.012
Mof_C 	C 	0.32224	0.17226	0.53404	-0.101
Mof_H 	H 	0.3137	0.1957	0.5179	0.066
Mof_C 	C 	0.36981	0.03885	0.48543	-0.049
Mof_C 	C 	0.38917	0.03999	0.41673	0.052
Mof_H 	H 	0.3951	0.0405	0.3931	0.005
Mof_C 	C 	0.32008	0.17226	0.42774	0.105
Mof_C 	C 	0.35692	0.94582	0.673	-0.095
Mof_H 	H 	0.3553	0.9445	0.6955	0.064
Mof_C 	C 	0.38925	0.00731	0.44541	-0.092
Mof_H 	H 	0.3956	0.9858	0.4414	0.065
Mof_C 	C 	0.26989	0.10715	0.38983	0.007
Mof_H 	H 	0.2496	0.1036	0.3924	0.038
Mof_C 	C 	0.30204	0.11338	0.4138	0.056
Mof_H 	H 	0.3036	0.1138	0.4338	0.002
Mof_C 	C 	0.36371	0.91505	0.66747	0.056
Mof_H 	H 	0.3665	0.8927	0.6869	-0
Mof_C 	C 	0.37965	0.00669	0.48057	0.003
Mof_H 	H 	0.3799	0.9847	0.5005	0.04
Mof_C 	C 	0.35991	0.04079	0.52059	0.132
Mof_C 	C 	0.27205	0.10779	0.41917	-0.098
Mof_H 	H 	0.2535	0.1045	0.4421	0.067
Mof_S 	S 	0.90987	0.42847	0.16691	-0.061
Mof_S 	S 	0.19824	0.28788	0.06076	-0.06
Mof_N 	N 	0.11828	0.32926	0.17068	-0.227
Mof_N 	N 	0.00967	0.36211	0.07949	-0.149
Mof_N 	N 	0.04374	0.34488	0.02666	-0.151
Mof_C 	C 	0.01316	0.35338	0.05302	0.133
Mof_N 	N 	0.07099	0.38093	0.12683	-0.226
Mof_N 	N 	0.15393	0.34163	0.09357	-0.265
Mof_C 	C 	0.97948	0.35552	0.05282	-0.047
Mof_C 	C 	0.94712	0.36288	0.08078	0.035
Mof_H 	H 	0.9477	0.3655	0.1001	0.015
Mof_N 	N 	0.07359	0.35011	0.05395	-0.15
Mof_C 	C 	0.10675	0.34561	0.96499	0.035
Mof_H 	H 	0.0839	0.3529	0.9631	0.013
Mof_C 	C 	0.11727	0.32659	0.20221	0.039
Mof_H 	H 	0.1204	0.3456	0.2028	0.013
Mof_N 	N 	0.91502	0.3666	0.08208	-0.226
Mof_C 	C 	0.16792	0.33254	0.93886	0.063
Mof_H 	H 	0.189	0.331	0.918	-0.001
Mof_C 	C 	0.07325	0.34371	0.02839	0.133
Mof_C 	C 	0.11192	0.29782	0.23366	-0.051
Mof_N 	N 	0.89109	0.40747	0.13181	-0.258
Mof_N 	N 	0.11129	0.26629	0.29535	-0.151
Mof_N 	N 	0.13603	0.34451	0.93505	-0.224
Mof_C 	C 	0.11101	0.29689	0.26715	0.134
Mof_C 	C 	0.1079	0.33674	0.99868	-0.047
Mof_C 	C 	0.97866	0.35258	0.02424	0.006
Mof_H 	H 	0.0004	0.3476	0.0046	0.038
Mof_C 	C 	0.89992	0.41662	0.14524	0.098
Mof_C 	C 	0.14173	0.32465	0.00217	0.006
Mof_H 	H 	0.1436	0.3184	0.0248	0.038
Mof_C 	C 	0.07005	0.37217	0.10333	0.04
Mof_H 	H 	0.0918	0.3672	0.0836	0.012
Mof_C 	C 	0.17226	0.32224	0.97146	-0.1
Mof_H 	H 	0.1957	0.3137	0.9727	0.066
Mof_C 	C 	0.03885	0.36981	0.10591	-0.049
Mof_C 	C 	0.03999	0.38917	0.15411	0.052
Mof_H 	H 	0.0405	0.3951	0.1713	0.005
Mof_C 	C 	0.17226	0.32008	0.07992	0.105
Mof_C 	C 	0.94582	0.35692	0.02426	-0.095
Mof_H 	H 	0.9445	0.3553	0.0047	0.063
Mof_C 	C 	0.00731	0.38925	0.15803	-0.092
Mof_H 	H 	0.9858	0.3956	0.1772	0.065
Mof_C 	C 	0.10715	0.26989	0.23313	0.007
Mof_H 	H 	0.1036	0.2496	0.2544	0.038
Mof_C 	C 	0.11338	0.30204	0.17078	0.056
Mof_H 	H 	0.1138	0.3036	0.1488	0.002
Mof_C 	C 	0.91505	0.36371	0.05377	0.056
Mof_H 	H 	0.8927	0.3665	0.0539	-0
Mof_C 	C 	0.00669	0.37965	0.13309	0.003
Mof_H 	H 	0.9847	0.3799	0.1349	0.04
Mof_C 	C 	0.04079	0.35991	0.07871	0.132
Mof_C 	C 	0.10779	0.27205	0.20099	-0.098
Mof_H 	H 	0.1045	0.2535	0.1999	0.067
Mof_S 	S 	0.16691	0.49475	0.90987	-0.061
Mof_S 	S 	0.06076	0.45312	0.19824	-0.06
Mof_N 	N 	0.17068	0.38178	0.11828	-0.227
Mof_N 	N 	0.07949	0.54873	0.00967	-0.149
Mof_N 	N 	0.02666	0.58472	0.04374	-0.151
Mof_C 	C 	0.05302	0.58044	0.01316	0.133
Mof_N 	N 	0.12683	0.42125	0.07099	-0.226
Mof_N 	N 	0.09357	0.41087	0.15393	-0.265
Mof_C 	C 	0.05282	0.61218	0.97948	-0.047
Mof_C 	C 	0.08078	0.60922	0.94712	0.035
Mof_H 	H 	0.1001	0.5867	0.9477	0.015
Mof_N 	N 	0.05395	0.52235	0.07359	-0.15
Mof_C 	C 	0.96499	0.58265	0.10675	0.035
Mof_H 	H 	0.9631	0.6001	0.0839	0.013
Mof_C 	C 	0.20221	0.35393	0.11727	0.039
Mof_H 	H 	0.2028	0.3312	0.1204	0.013
Mof_N 	N 	0.08208	0.6363	0.91502	-0.226
Mof_C 	C 	0.93886	0.56068	0.16792	0.063
Mof_H 	H 	0.918	0.562	0.189	-0.001
Mof_C 	C 	0.02839	0.55465	0.07325	0.133
Mof_C 	C 	0.23366	0.3566	0.11192	-0.051
Mof_N 	N 	0.13181	0.56963	0.89109	-0.258
Mof_N 	N 	0.29535	0.32707	0.11129	-0.151
Mof_N 	N 	0.93505	0.58441	0.13603	-0.224
Mof_C 	C 	0.26715	0.32495	0.11101	0.134
Mof_C 	C 	0.99868	0.55668	0.1079	-0.047
Mof_C 	C 	0.02424	0.64452	0.97866	0.006
Mof_H 	H 	0.0046	0.6474	0.0004	0.038
Mof_C 	C 	0.14524	0.53822	0.89992	0.098
Mof_C 	C 	0.00217	0.53145	0.14173	0.006
Mof_H 	H 	0.0248	0.5132	0.1436	0.038
Mof_C 	C 	0.10333	0.45445	0.07005	0.04
Mof_H 	H 	0.0836	0.4574	0.0918	0.012
Mof_C 	C 	0.97146	0.53404	0.17226	-0.1
Mof_H 	H 	0.9727	0.5179	0.1957	0.066
Mof_C 	C 	0.10591	0.48543	0.03885	-0.049
Mof_C 	C 	0.15411	0.41673	0.03999	0.052
Mof_H 	H 	0.1713	0.3931	0.0405	0.005
Mof_C 	C 	0.07992	0.42774	0.17226	0.105
Mof_C 	C 	0.02426	0.673	0.94582	-0.095
Mof_H 	H 	0.0047	0.6955	0.9445	0.063
Mof_C 	C 	0.15803	0.44541	0.00731	-0.092
Mof_H 	H 	0.1772	0.4414	0.9858	0.065
Mof_C 	C 	0.23313	0.38983	0.10715	0.007
Mof_H 	H 	0.2544	0.3924	0.1036	0.038
Mof_C 	C 	0.17078	0.4138	0.11338	0.056
Mof_H 	H 	0.1488	0.4338	0.1138	0.002
Mof_C 	C 	0.05377	0.66747	0.91505	0.056
Mof_H 	H 	0.0539	0.6869	0.8927	-0
Mof_C 	C 	0.13309	0.48057	0.00669	0.003
Mof_H 	H 	0.1349	0.5005	0.9847	0.04
Mof_C 	C 	0.07871	0.52059	0.04079	0.132
Mof_C 	C 	0.20099	0.41917	0.10779	-0.098
Mof_H 	H 	0.1999	0.4421	0.1045	0.067
Mof_S 	S 	0.82153	0.75525	0.34013	-0.061
Mof_S 	S 	0.96212	0.79688	0.05176	-0.06
Mof_N 	N 	0.92074	0.86822	0.13172	-0.227
Mof_N 	N 	0.88789	0.70127	0.24033	-0.149
Mof_N 	N 	0.90512	0.66528	0.20626	-0.151
Mof_C 	C 	0.89662	0.66956	0.23684	0.134
Mof_N 	N 	0.86907	0.82875	0.17901	-0.226
Mof_N 	N 	0.90837	0.83913	0.09607	-0.265
Mof_C 	C 	0.89448	0.63782	0.27052	-0.047
Mof_C 	C 	0.88712	0.64078	0.30288	0.035
Mof_H 	H 	0.8845	0.6633	0.3023	0.015
Mof_N 	N 	0.89989	0.72765	0.17641	-0.15
Mof_C 	C 	0.90439	0.66735	0.14325	0.036
Mof_H 	H 	0.8971	0.6499	0.1661	0.013
Mof_C 	C 	0.92341	0.89607	0.13273	0.039
Mof_H 	H 	0.9044	0.9188	0.1296	0.012
Mof_N 	N 	0.8834	0.6137	0.33498	-0.226
Mof_C 	C 	0.91746	0.68932	0.08208	0.064
Mof_H 	H 	0.919	0.688	0.061	-0.001
Mof_C 	C 	0.90629	0.69535	0.17675	0.134
Mof_C 	C 	0.95218	0.8934	0.13808	-0.051
Mof_N 	N 	0.84253	0.68037	0.35891	-0.258
Mof_N 	N 	0.98371	0.92293	0.13871	-0.151
Mof_N 	N 	0.90549	0.66559	0.11397	-0.225
Mof_C 	C 	0.95311	0.92505	0.13899	0.134
Mof_C 	C 	0.91326	0.69332	0.1421	-0.048
Mof_C 	C 	0.89742	0.60548	0.27134	0.005
Mof_H 	H 	0.9024	0.6026	0.2496	0.038
Mof_C 	C 	0.83338	0.71178	0.35008	0.098
Mof_C 	C 	0.92535	0.71855	0.10827	0.007
Mof_H 	H 	0.9316	0.7368	0.1064	0.038
Mof_C 	C 	0.87783	0.79555	0.17995	0.04
Mof_H 	H 	0.8828	0.7926	0.1582	0.012
Mof_C 	C 	0.92776	0.71596	0.07774	-0.101
Mof_H 	H 	0.9363	0.7321	0.0543	0.066
Mof_C 	C 	0.88019	0.76457	0.21115	-0.049
Mof_C 	C 	0.86083	0.83327	0.21001	0.052
Mof_H 	H 	0.8549	0.8569	0.2095	0.005
Mof_C 	C 	0.92992	0.82226	0.07774	0.105
Mof_C 	C 	0.89308	0.577	0.30418	-0.095
Mof_H 	H 	0.8947	0.5545	0.3055	0.063
Mof_C 	C 	0.86075	0.80459	0.24269	-0.091
Mof_H 	H 	0.8544	0.8086	0.2642	0.064
Mof_C 	C 	0.98011	0.86017	0.14285	0.008
Mof_H 	H 	0.0004	0.8576	0.1464	0.038
Mof_C 	C 	0.94796	0.8362	0.13662	0.057
Mof_H 	H 	0.9464	0.8162	0.1362	0.002
Mof_C 	C 	0.88629	0.58253	0.33495	0.056
Mof_H 	H 	0.8835	0.5631	0.3573	-0
Mof_C 	C 	0.87035	0.76943	0.24331	0.003
Mof_H 	H 	0.8701	0.7495	0.2653	0.04
Mof_C 	C 	0.89009	0.72941	0.20921	0.133
Mof_C 	C 	0.97795	0.83083	0.14221	-0.098
Mof_H 	H 	0.9965	0.8079	0.1455	0.067
Mof_S 	S 	0.75525	0.82153	0.08309	-0.061
Mof_S 	S 	0.79688	0.96212	0.18924	-0.06
Mof_N 	N 	0.86822	0.92074	0.07932	-0.227
Mof_N 	N 	0.70127	0.88789	0.17051	-0.149
Mof_N 	N 	0.66528	0.90512	0.22334	-0.151
Mof_C 	C 	0.66956	0.89662	0.19698	0.134
Mof_N 	N 	0.82875	0.86907	0.12317	-0.226
Mof_N 	N 	0.83913	0.90837	0.15643	-0.265
Mof_C 	C 	0.63782	0.89448	0.19718	-0.047
Mof_C 	C 	0.64078	0.88712	0.16922	0.035
Mof_H 	H 	0.6633	0.8845	0.1499	0.015
Mof_N 	N 	0.72765	0.89989	0.19605	-0.15
Mof_C 	C 	0.66735	0.90439	0.28501	0.036
Mof_H 	H 	0.6499	0.8971	0.2869	0.013
Mof_C 	C 	0.89607	0.92341	0.04779	0.039
Mof_H 	H 	0.9188	0.9044	0.0472	0.012
Mof_N 	N 	0.6137	0.8834	0.16792	-0.226
Mof_C 	C 	0.68932	0.91746	0.31114	0.064
Mof_H 	H 	0.688	0.919	0.332	-0.001
Mof_C 	C 	0.69535	0.90629	0.22161	0.134
Mof_C 	C 	0.8934	0.95218	0.01634	-0.051
Mof_N 	N 	0.68037	0.84253	0.11819	-0.258
Mof_N 	N 	0.92293	0.98371	0.95465	-0.151
Mof_N 	N 	0.66559	0.90549	0.31495	-0.225
Mof_C 	C 	0.92505	0.95311	0.98285	0.134
Mof_C 	C 	0.69332	0.91326	0.25132	-0.048
Mof_C 	C 	0.60548	0.89742	0.22576	0.005
Mof_H 	H 	0.6026	0.9024	0.2454	0.038
Mof_C 	C 	0.71178	0.83338	0.10476	0.098
Mof_C 	C 	0.71855	0.92535	0.24783	0.007
Mof_H 	H 	0.7368	0.9316	0.2252	0.038
Mof_C 	C 	0.79555	0.87783	0.14667	0.04
Mof_H 	H 	0.7926	0.8828	0.1664	0.012
Mof_C 	C 	0.71596	0.92776	0.27854	-0.101
Mof_H 	H 	0.7321	0.9363	0.2773	0.066
Mof_C 	C 	0.76457	0.88019	0.14409	-0.049
Mof_C 	C 	0.83327	0.86083	0.09589	0.052
Mof_H 	H 	0.8569	0.8549	0.0787	0.005
Mof_C 	C 	0.82226	0.92992	0.17008	0.105
Mof_C 	C 	0.577	0.89308	0.22574	-0.095
Mof_H 	H 	0.5545	0.8947	0.2453	0.063
Mof_C 	C 	0.80459	0.86075	0.09197	-0.091
Mof_H 	H 	0.8086	0.8544	0.0728	0.064
Mof_C 	C 	0.86017	0.98011	0.01687	0.007
Mof_H 	H 	0.8576	0.0004	0.9956	0.038
Mof_C 	C 	0.8362	0.94796	0.07922	0.057
Mof_H 	H 	0.8162	0.9464	0.1012	0.002
Mof_C 	C 	0.58253	0.88629	0.19623	0.056
Mof_H 	H 	0.5631	0.8835	0.1961	-0
Mof_C 	C 	0.76943	0.87035	0.11691	0.003
Mof_H 	H 	0.7495	0.8701	0.1151	0.04
Mof_C 	C 	0.72941	0.89009	0.17129	0.133
Mof_C 	C 	0.83083	0.97795	0.04901	-0.098
Mof_H 	H 	0.8079	0.9965	0.0501	0.067
Mof_S 	S 	0.08309	0.34013	0.75525	-0.061
Mof_S 	S 	0.18924	0.05176	0.79688	-0.06
Mof_N 	N 	0.07932	0.13172	0.86822	-0.227
Mof_N 	N 	0.17051	0.24033	0.70127	-0.149
Mof_N 	N 	0.22334	0.20626	0.66528	-0.151
Mof_C 	C 	0.19698	0.23684	0.66956	0.134
Mof_N 	N 	0.12317	0.17901	0.82875	-0.226
Mof_N 	N 	0.15643	0.09607	0.83913	-0.265
Mof_C 	C 	0.19718	0.27052	0.63782	-0.047
Mof_C 	C 	0.16922	0.30288	0.64078	0.035
Mof_H 	H 	0.1499	0.3023	0.6633	0.015
Mof_N 	N 	0.19605	0.17641	0.72765	-0.15
Mof_C 	C 	0.28501	0.14325	0.66735	0.036
Mof_H 	H 	0.2869	0.1661	0.6499	0.013
Mof_C 	C 	0.04779	0.13273	0.89607	0.039
Mof_H 	H 	0.0472	0.1296	0.9188	0.012
Mof_N 	N 	0.16792	0.33498	0.6137	-0.226
Mof_C 	C 	0.31114	0.08208	0.68932	0.064
Mof_H 	H 	0.332	0.061	0.688	-0.001
Mof_C 	C 	0.22161	0.17675	0.69535	0.134
Mof_C 	C 	0.01634	0.13808	0.8934	-0.051
Mof_N 	N 	0.11819	0.35891	0.68037	-0.258
Mof_N 	N 	0.95465	0.13871	0.92293	-0.151
Mof_N 	N 	0.31495	0.11397	0.66559	-0.225
Mof_C 	C 	0.98285	0.13899	0.92505	0.134
Mof_C 	C 	0.25132	0.1421	0.69332	-0.048
Mof_C 	C 	0.22576	0.27134	0.60548	0.005
Mof_H 	H 	0.2454	0.2496	0.6026	0.038
Mof_C 	C 	0.10476	0.35008	0.71178	0.098
Mof_C 	C 	0.24783	0.10827	0.71855	0.007
Mof_H 	H 	0.2252	0.1064	0.7368	0.038
Mof_C 	C 	0.14667	0.17995	0.79555	0.04
Mof_H 	H 	0.1664	0.1582	0.7926	0.012
Mof_C 	C 	0.27854	0.07774	0.71596	-0.101
Mof_H 	H 	0.2773	0.0543	0.7321	0.066
Mof_C 	C 	0.14409	0.21115	0.76457	-0.049
Mof_C 	C 	0.09589	0.21001	0.83327	0.052
Mof_H 	H 	0.0787	0.2095	0.8569	0.005
Mof_C 	C 	0.17008	0.07774	0.82226	0.105
Mof_C 	C 	0.22574	0.30418	0.577	-0.095
Mof_H 	H 	0.2453	0.3055	0.5545	0.063
Mof_C 	C 	0.09197	0.24269	0.80459	-0.091
Mof_H 	H 	0.0728	0.2642	0.8086	0.064
Mof_C 	C 	0.01687	0.14285	0.86017	0.006
Mof_H 	H 	0.9956	0.1464	0.8576	0.039
Mof_C 	C 	0.07922	0.13662	0.8362	0.056
Mof_H 	H 	0.1012	0.1362	0.8162	0.002
Mof_C 	C 	0.19623	0.33495	0.58253	0.056
Mof_H 	H 	0.1961	0.3573	0.5631	-0
Mof_C 	C 	0.11691	0.24331	0.76943	0.003
Mof_H 	H 	0.1151	0.2653	0.7495	0.04
Mof_C 	C 	0.17129	0.20921	0.72941	0.133
Mof_C 	C 	0.04901	0.14221	0.83083	-0.097
Mof_H 	H 	0.0501	0.1455	0.8079	0.067
Mof_S 	S 	0.34013	0.08309	0.82153	-0.061
Mof_S 	S 	0.05176	0.18924	0.96212	-0.06
Mof_N 	N 	0.13172	0.07932	0.92074	-0.227
Mof_N 	N 	0.24033	0.17051	0.88789	-0.149
Mof_N 	N 	0.20626	0.22334	0.90512	-0.151
Mof_C 	C 	0.23684	0.19698	0.89662	0.134
Mof_N 	N 	0.17901	0.12317	0.86907	-0.226
Mof_N 	N 	0.09607	0.15643	0.90837	-0.265
Mof_C 	C 	0.27052	0.19718	0.89448	-0.047
Mof_C 	C 	0.30288	0.16922	0.88712	0.035
Mof_H 	H 	0.3023	0.1499	0.8845	0.015
Mof_N 	N 	0.17641	0.19605	0.89989	-0.15
Mof_C 	C 	0.14325	0.28501	0.90439	0.036
Mof_H 	H 	0.1661	0.2869	0.8971	0.013
Mof_C 	C 	0.13273	0.04779	0.92341	0.039
Mof_H 	H 	0.1296	0.0472	0.9044	0.012
Mof_N 	N 	0.33498	0.16792	0.8834	-0.226
Mof_C 	C 	0.08208	0.31114	0.91746	0.064
Mof_H 	H 	0.061	0.332	0.919	-0.001
Mof_C 	C 	0.17675	0.22161	0.90629	0.134
Mof_C 	C 	0.13808	0.01634	0.95218	-0.051
Mof_N 	N 	0.35891	0.11819	0.84253	-0.258
Mof_N 	N 	0.13871	0.95465	0.98371	-0.151
Mof_N 	N 	0.11397	0.31495	0.90549	-0.225
Mof_C 	C 	0.13899	0.98285	0.95311	0.134
Mof_C 	C 	0.1421	0.25132	0.91326	-0.048
Mof_C 	C 	0.27134	0.22576	0.89742	0.005
Mof_H 	H 	0.2496	0.2454	0.9024	0.038
Mof_C 	C 	0.35008	0.10476	0.83338	0.098
Mof_C 	C 	0.10827	0.24783	0.92535	0.007
Mof_H 	H 	0.1064	0.2252	0.9316	0.038
Mof_C 	C 	0.17995	0.14667	0.87783	0.04
Mof_H 	H 	0.1582	0.1664	0.8828	0.012
Mof_C 	C 	0.07774	0.27854	0.92776	-0.101
Mof_H 	H 	0.0543	0.2773	0.9363	0.066
Mof_C 	C 	0.21115	0.14409	0.88019	-0.049
Mof_C 	C 	0.21001	0.09589	0.86083	0.052
Mof_H 	H 	0.2095	0.0787	0.8549	0.005
Mof_C 	C 	0.07774	0.17008	0.92992	0.105
Mof_C 	C 	0.30418	0.22574	0.89308	-0.095
Mof_H 	H 	0.3055	0.2453	0.8947	0.063
Mof_C 	C 	0.24269	0.09197	0.86075	-0.091
Mof_H 	H 	0.2642	0.0728	0.8544	0.064
Mof_C 	C 	0.14285	0.01687	0.98011	0.007
Mof_H 	H 	0.1464	0.9956	0.0004	0.038
Mof_C 	C 	0.13662	0.07922	0.94796	0.057
Mof_H 	H 	0.1362	0.1012	0.9464	0.002
Mof_C 	C 	0.33495	0.19623	0.88629	0.056
Mof_H 	H 	0.3573	0.1961	0.8835	-0
Mof_C 	C 	0.24331	0.11691	0.87035	0.003
Mof_H 	H 	0.2653	0.1151	0.8701	0.04
Mof_C 	C 	0.20921	0.17129	0.89009	0.133
Mof_C 	C 	0.14221	0.04901	0.97795	-0.098
Mof_H 	H 	0.1455	0.0501	0.9965	0.067
Mof_S 	S 	0.08309	0.82153	0.34013	-0.061
Mof_S 	S 	0.18924	0.96212	0.05176	-0.06
Mof_N 	N 	0.07932	0.92074	0.13172	-0.227
Mof_N 	N 	0.17051	0.88789	0.24033	-0.149
Mof_N 	N 	0.22334	0.90512	0.20626	-0.151
Mof_C 	C 	0.19698	0.89662	0.23684	0.134
Mof_N 	N 	0.12317	0.86907	0.17901	-0.226
Mof_N 	N 	0.15643	0.90837	0.09607	-0.265
Mof_C 	C 	0.19718	0.89448	0.27052	-0.047
Mof_C 	C 	0.16922	0.88712	0.30288	0.035
Mof_H 	H 	0.1499	0.8845	0.3023	0.015
Mof_N 	N 	0.19605	0.89989	0.17641	-0.15
Mof_C 	C 	0.28501	0.90439	0.14325	0.036
Mof_H 	H 	0.2869	0.8971	0.1661	0.013
Mof_C 	C 	0.04779	0.92341	0.13273	0.039
Mof_H 	H 	0.0472	0.9044	0.1296	0.012
Mof_N 	N 	0.16792	0.8834	0.33498	-0.226
Mof_C 	C 	0.31114	0.91746	0.08208	0.064
Mof_H 	H 	0.332	0.919	0.061	-0.001
Mof_C 	C 	0.22161	0.90629	0.17675	0.134
Mof_C 	C 	0.01634	0.95218	0.13808	-0.051
Mof_N 	N 	0.11819	0.84253	0.35891	-0.258
Mof_N 	N 	0.95465	0.98371	0.13871	-0.151
Mof_N 	N 	0.31495	0.90549	0.11397	-0.225
Mof_C 	C 	0.98285	0.95311	0.13899	0.134
Mof_C 	C 	0.25132	0.91326	0.1421	-0.048
Mof_C 	C 	0.22576	0.89742	0.27134	0.005
Mof_H 	H 	0.2454	0.9024	0.2496	0.038
Mof_C 	C 	0.10476	0.83338	0.35008	0.098
Mof_C 	C 	0.24783	0.92535	0.10827	0.007
Mof_H 	H 	0.2252	0.9316	0.1064	0.038
Mof_C 	C 	0.14667	0.87783	0.17995	0.04
Mof_H 	H 	0.1664	0.8828	0.1582	0.012
Mof_C 	C 	0.27854	0.92776	0.07774	-0.101
Mof_H 	H 	0.2773	0.9363	0.0543	0.066
Mof_C 	C 	0.14409	0.88019	0.21115	-0.049
Mof_C 	C 	0.09589	0.86083	0.21001	0.052
Mof_H 	H 	0.0787	0.8549	0.2095	0.005
Mof_C 	C 	0.17008	0.92992	0.07774	0.105
Mof_C 	C 	0.22574	0.89308	0.30418	-0.095
Mof_H 	H 	0.2453	0.8947	0.3055	0.063
Mof_C 	C 	0.09197	0.86075	0.24269	-0.091
Mof_H 	H 	0.0728	0.8544	0.2642	0.064
Mof_C 	C 	0.01687	0.98011	0.14285	0.007
Mof_H 	H 	0.9956	0.0004	0.1464	0.038
Mof_C 	C 	0.07922	0.94796	0.13662	0.057
Mof_H 	H 	0.1012	0.9464	0.1362	0.002
Mof_C 	C 	0.19623	0.88629	0.33495	0.056
Mof_H 	H 	0.1961	0.8835	0.3573	-0
Mof_C 	C 	0.11691	0.87035	0.24331	0.003
Mof_H 	H 	0.1151	0.8701	0.2653	0.04
Mof_C 	C 	0.17129	0.89009	0.20921	0.133
Mof_C 	C 	0.04901	0.97795	0.14221	-0.098
Mof_H 	H 	0.0501	0.9965	0.1455	0.067
Mof_S 	S 	0.34013	0.75525	0.08309	-0.061
Mof_S 	S 	0.05176	0.79688	0.18924	-0.06
Mof_N 	N 	0.13172	0.86822	0.07932	-0.227
Mof_N 	N 	0.24033	0.70127	0.17051	-0.149
Mof_N 	N 	0.20626	0.66528	0.22334	-0.151
Mof_C 	C 	0.23684	0.66956	0.19698	0.134
Mof_N 	N 	0.17901	0.82875	0.12317	-0.226
Mof_N 	N 	0.09607	0.83913	0.15643	-0.265
Mof_C 	C 	0.27052	0.63782	0.19718	-0.047
Mof_C 	C 	0.30288	0.64078	0.16922	0.035
Mof_H 	H 	0.3023	0.6633	0.1499	0.015
Mof_N 	N 	0.17641	0.72765	0.19605	-0.15
Mof_C 	C 	0.14325	0.66735	0.28501	0.036
Mof_H 	H 	0.1661	0.6499	0.2869	0.013
Mof_C 	C 	0.13273	0.89607	0.04779	0.039
Mof_H 	H 	0.1296	0.9188	0.0472	0.012
Mof_N 	N 	0.33498	0.6137	0.16792	-0.226
Mof_C 	C 	0.08208	0.68932	0.31114	0.064
Mof_H 	H 	0.061	0.688	0.332	-0.001
Mof_C 	C 	0.17675	0.69535	0.22161	0.134
Mof_C 	C 	0.13808	0.8934	0.01634	-0.051
Mof_N 	N 	0.35891	0.68037	0.11819	-0.258
Mof_N 	N 	0.13871	0.92293	0.95465	-0.151
Mof_N 	N 	0.11397	0.66559	0.31495	-0.225
Mof_C 	C 	0.13899	0.92505	0.98285	0.134
Mof_C 	C 	0.1421	0.69332	0.25132	-0.048
Mof_C 	C 	0.27134	0.60548	0.22576	0.005
Mof_H 	H 	0.2496	0.6026	0.2454	0.038
Mof_C 	C 	0.35008	0.71178	0.10476	0.098
Mof_C 	C 	0.10827	0.71855	0.24783	0.007
Mof_H 	H 	0.1064	0.7368	0.2252	0.038
Mof_C 	C 	0.17995	0.79555	0.14667	0.04
Mof_H 	H 	0.1582	0.7926	0.1664	0.012
Mof_C 	C 	0.07774	0.71596	0.27854	-0.101
Mof_H 	H 	0.0543	0.7321	0.2773	0.066
Mof_C 	C 	0.21115	0.76457	0.14409	-0.049
Mof_C 	C 	0.21001	0.83327	0.09589	0.052
Mof_H 	H 	0.2095	0.8569	0.0787	0.005
Mof_C 	C 	0.07774	0.82226	0.17008	0.105
Mof_C 	C 	0.30418	0.577	0.22574	-0.095
Mof_H 	H 	0.3055	0.5545	0.2453	0.063
Mof_C 	C 	0.24269	0.80459	0.09197	-0.091
Mof_H 	H 	0.2642	0.8086	0.0728	0.064
Mof_C 	C 	0.14285	0.86017	0.01687	0.006
Mof_H 	H 	0.1464	0.8576	0.9956	0.039
Mof_C 	C 	0.13662	0.8362	0.07922	0.056
Mof_H 	H 	0.1362	0.8162	0.1012	0.002
Mof_C 	C 	0.33495	0.58253	0.19623	0.056
Mof_H 	H 	0.3573	0.5631	0.1961	-0
Mof_C 	C 	0.24331	0.76943	0.11691	0.003
Mof_H 	H 	0.2653	0.7495	0.1151	0.04
Mof_C 	C 	0.20921	0.72941	0.17129	0.133
Mof_C 	C 	0.14221	0.83083	0.04901	-0.097
Mof_H 	H 	0.1455	0.8079	0.0501	0.067
Mof_S 	S 	0.82153	0.08309	0.75525	-0.061
Mof_S 	S 	0.96212	0.18924	0.79688	-0.06
Mof_N 	N 	0.92074	0.07932	0.86822	-0.227
Mof_N 	N 	0.88789	0.17051	0.70127	-0.149
Mof_N 	N 	0.90512	0.22334	0.66528	-0.151
Mof_C 	C 	0.89662	0.19698	0.66956	0.134
Mof_N 	N 	0.86907	0.12317	0.82875	-0.226
Mof_N 	N 	0.90837	0.15643	0.83913	-0.265
Mof_C 	C 	0.89448	0.19718	0.63782	-0.047
Mof_C 	C 	0.88712	0.16922	0.64078	0.035
Mof_H 	H 	0.8845	0.1499	0.6633	0.015
Mof_N 	N 	0.89989	0.19605	0.72765	-0.15
Mof_C 	C 	0.90439	0.28501	0.66735	0.036
Mof_H 	H 	0.8971	0.2869	0.6499	0.013
Mof_C 	C 	0.92341	0.04779	0.89607	0.039
Mof_H 	H 	0.9044	0.0472	0.9188	0.012
Mof_N 	N 	0.8834	0.16792	0.6137	-0.226
Mof_C 	C 	0.91746	0.31114	0.68932	0.064
Mof_H 	H 	0.919	0.332	0.688	-0.001
Mof_C 	C 	0.90629	0.22161	0.69535	0.134
Mof_C 	C 	0.95218	0.01634	0.8934	-0.051
Mof_N 	N 	0.84253	0.11819	0.68037	-0.258
Mof_N 	N 	0.98371	0.95465	0.92293	-0.151
Mof_N 	N 	0.90549	0.31495	0.66559	-0.225
Mof_C 	C 	0.95311	0.98285	0.92505	0.134
Mof_C 	C 	0.91326	0.25132	0.69332	-0.048
Mof_C 	C 	0.89742	0.22576	0.60548	0.005
Mof_H 	H 	0.9024	0.2454	0.6026	0.038
Mof_C 	C 	0.83338	0.10476	0.71178	0.098
Mof_C 	C 	0.92535	0.24783	0.71855	0.007
Mof_H 	H 	0.9316	0.2252	0.7368	0.038
Mof_C 	C 	0.87783	0.14667	0.79555	0.04
Mof_H 	H 	0.8828	0.1664	0.7926	0.012
Mof_C 	C 	0.92776	0.27854	0.71596	-0.101
Mof_H 	H 	0.9363	0.2773	0.7321	0.066
Mof_C 	C 	0.88019	0.14409	0.76457	-0.049
Mof_C 	C 	0.86083	0.09589	0.83327	0.052
Mof_H 	H 	0.8549	0.0787	0.8569	0.005
Mof_C 	C 	0.92992	0.17008	0.82226	0.105
Mof_C 	C 	0.89308	0.22574	0.577	-0.095
Mof_H 	H 	0.8947	0.2453	0.5545	0.063
Mof_C 	C 	0.86075	0.09197	0.80459	-0.091
Mof_H 	H 	0.8544	0.0728	0.8086	0.064
Mof_C 	C 	0.98011	0.01687	0.86017	0.007
Mof_H 	H 	0.0004	0.9956	0.8576	0.038
Mof_C 	C 	0.94796	0.07922	0.8362	0.057
Mof_H 	H 	0.9464	0.1012	0.8162	0.002
Mof_C 	C 	0.88629	0.19623	0.58253	0.056
Mof_H 	H 	0.8835	0.1961	0.5631	-0
Mof_C 	C 	0.87035	0.11691	0.76943	0.003
Mof_H 	H 	0.8701	0.1151	0.7495	0.04
Mof_C 	C 	0.89009	0.17129	0.72941	0.133
Mof_C 	C 	0.97795	0.04901	0.83083	-0.098
Mof_H 	H 	0.9965	0.0501	0.8079	0.067
Mof_S 	S 	0.75525	0.34013	0.82153	-0.061
Mof_S 	S 	0.79688	0.05176	0.96212	-0.06
Mof_N 	N 	0.86822	0.13172	0.92074	-0.227
Mof_N 	N 	0.70127	0.24033	0.88789	-0.149
Mof_N 	N 	0.66528	0.20626	0.90512	-0.151
Mof_C 	C 	0.66956	0.23684	0.89662	0.134
Mof_N 	N 	0.82875	0.17901	0.86907	-0.226
Mof_N 	N 	0.83913	0.09607	0.90837	-0.265
Mof_C 	C 	0.63782	0.27052	0.89448	-0.047
Mof_C 	C 	0.64078	0.30288	0.88712	0.035
Mof_H 	H 	0.6633	0.3023	0.8845	0.015
Mof_N 	N 	0.72765	0.17641	0.89989	-0.15
Mof_C 	C 	0.66735	0.14325	0.90439	0.036
Mof_H 	H 	0.6499	0.1661	0.8971	0.013
Mof_C 	C 	0.89607	0.13273	0.92341	0.039
Mof_H 	H 	0.9188	0.1296	0.9044	0.012
Mof_N 	N 	0.6137	0.33498	0.8834	-0.226
Mof_C 	C 	0.68932	0.08208	0.91746	0.064
Mof_H 	H 	0.688	0.061	0.919	-0.001
Mof_C 	C 	0.69535	0.17675	0.90629	0.134
Mof_C 	C 	0.8934	0.13808	0.95218	-0.051
Mof_N 	N 	0.68037	0.35891	0.84253	-0.258
Mof_N 	N 	0.92293	0.13871	0.98371	-0.151
Mof_N 	N 	0.66559	0.11397	0.90549	-0.225
Mof_C 	C 	0.92505	0.13899	0.95311	0.134
Mof_C 	C 	0.69332	0.1421	0.91326	-0.048
Mof_C 	C 	0.60548	0.27134	0.89742	0.005
Mof_H 	H 	0.6026	0.2496	0.9024	0.038
Mof_C 	C 	0.71178	0.35008	0.83338	0.098
Mof_C 	C 	0.71855	0.10827	0.92535	0.007
Mof_H 	H 	0.7368	0.1064	0.9316	0.038
Mof_C 	C 	0.79555	0.17995	0.87783	0.04
Mof_H 	H 	0.7926	0.1582	0.8828	0.012
Mof_C 	C 	0.71596	0.07774	0.92776	-0.101
Mof_H 	H 	0.7321	0.0543	0.9363	0.066
Mof_C 	C 	0.76457	0.21115	0.88019	-0.049
Mof_C 	C 	0.83327	0.21001	0.86083	0.052
Mof_H 	H 	0.8569	0.2095	0.8549	0.005
Mof_C 	C 	0.82226	0.07774	0.92992	0.105
Mof_C 	C 	0.577	0.30418	0.89308	-0.095
Mof_H 	H 	0.5545	0.3055	0.8947	0.063
Mof_C 	C 	0.80459	0.24269	0.86075	-0.091
Mof_H 	H 	0.8086	0.2642	0.8544	0.064
Mof_C 	C 	0.86017	0.14285	0.98011	0.008
Mof_H 	H 	0.8576	0.1464	0.0004	0.038
Mof_C 	C 	0.8362	0.13662	0.94796	0.057
Mof_H 	H 	0.8162	0.1362	0.9464	0.002
Mof_C 	C 	0.58253	0.33495	0.88629	0.056
Mof_H 	H 	0.5631	0.3573	0.8835	-0
Mof_C 	C 	0.76943	0.24331	0.87035	0.003
Mof_H 	H 	0.7495	0.2653	0.8701	0.04
Mof_C 	C 	0.72941	0.20921	0.89009	0.133
Mof_C 	C 	0.83083	0.14221	0.97795	-0.098
Mof_H 	H 	0.8079	0.1455	0.9965	0.067
Mof_S 	S 	0.75525	0.08309	0.34013	-0.061
Mof_S 	S 	0.79688	0.18924	0.05176	-0.06
Mof_N 	N 	0.86822	0.07932	0.13172	-0.227
Mof_N 	N 	0.70127	0.17051	0.24033	-0.149
Mof_N 	N 	0.66528	0.22334	0.20626	-0.151
Mof_C 	C 	0.66956	0.19698	0.23684	0.134
Mof_N 	N 	0.82875	0.12317	0.17901	-0.226
Mof_N 	N 	0.83913	0.15643	0.09607	-0.265
Mof_C 	C 	0.63782	0.19718	0.27052	-0.047
Mof_C 	C 	0.64078	0.16922	0.30288	0.035
Mof_H 	H 	0.6633	0.1499	0.3023	0.015
Mof_N 	N 	0.72765	0.19605	0.17641	-0.15
Mof_C 	C 	0.66735	0.28501	0.14325	0.036
Mof_H 	H 	0.6499	0.2869	0.1661	0.013
Mof_C 	C 	0.89607	0.04779	0.13273	0.039
Mof_H 	H 	0.9188	0.0472	0.1296	0.012
Mof_N 	N 	0.6137	0.16792	0.33498	-0.226
Mof_C 	C 	0.68932	0.31114	0.08208	0.064
Mof_H 	H 	0.688	0.332	0.061	-0.001
Mof_C 	C 	0.69535	0.22161	0.17675	0.134
Mof_C 	C 	0.8934	0.01634	0.13808	-0.051
Mof_N 	N 	0.68037	0.11819	0.35891	-0.258
Mof_N 	N 	0.92293	0.95465	0.13871	-0.151
Mof_N 	N 	0.66559	0.31495	0.11397	-0.225
Mof_C 	C 	0.92505	0.98285	0.13899	0.134
Mof_C 	C 	0.69332	0.25132	0.1421	-0.048
Mof_C 	C 	0.60548	0.22576	0.27134	0.005
Mof_H 	H 	0.6026	0.2454	0.2496	0.038
Mof_C 	C 	0.71178	0.10476	0.35008	0.098
Mof_C 	C 	0.71855	0.24783	0.10827	0.007
Mof_H 	H 	0.7368	0.2252	0.1064	0.038
Mof_C 	C 	0.79555	0.14667	0.17995	0.04
Mof_H 	H 	0.7926	0.1664	0.1582	0.012
Mof_C 	C 	0.71596	0.27854	0.07774	-0.101
Mof_H 	H 	0.7321	0.2773	0.0543	0.066
Mof_C 	C 	0.76457	0.14409	0.21115	-0.049
Mof_C 	C 	0.83327	0.09589	0.21001	0.052
Mof_H 	H 	0.8569	0.0787	0.2095	0.005
Mof_C 	C 	0.82226	0.17008	0.07774	0.105
Mof_C 	C 	0.577	0.22574	0.30418	-0.095
Mof_H 	H 	0.5545	0.2453	0.3055	0.063
Mof_C 	C 	0.80459	0.09197	0.24269	-0.091
Mof_H 	H 	0.8086	0.0728	0.2642	0.064
Mof_C 	C 	0.86017	0.01687	0.14285	0.006
Mof_H 	H 	0.8576	0.9956	0.1464	0.039
Mof_C 	C 	0.8362	0.07922	0.13662	0.056
Mof_H 	H 	0.8162	0.1012	0.1362	0.002
Mof_C 	C 	0.58253	0.19623	0.33495	0.056
Mof_H 	H 	0.5631	0.1961	0.3573	-0
Mof_C 	C 	0.76943	0.11691	0.24331	0.003
Mof_H 	H 	0.7495	0.1151	0.2653	0.04
Mof_C 	C 	0.72941	0.17129	0.20921	0.133
Mof_C 	C 	0.83083	0.04901	0.14221	-0.097
Mof_H 	H 	0.8079	0.0501	0.1455	0.067
Mof_S 	S 	0.82153	0.34013	0.08309	-0.061
Mof_S 	S 	0.96212	0.05176	0.18924	-0.06
Mof_N 	N 	0.92074	0.13172	0.07932	-0.227
Mof_N 	N 	0.88789	0.24033	0.17051	-0.149
Mof_N 	N 	0.90512	0.20626	0.22334	-0.151
Mof_C 	C 	0.89662	0.23684	0.19698	0.134
Mof_N 	N 	0.86907	0.17901	0.12317	-0.226
Mof_N 	N 	0.90837	0.09607	0.15643	-0.265
Mof_C 	C 	0.89448	0.27052	0.19718	-0.047
Mof_C 	C 	0.88712	0.30288	0.16922	0.035
Mof_H 	H 	0.8845	0.3023	0.1499	0.015
Mof_N 	N 	0.89989	0.17641	0.19605	-0.15
Mof_C 	C 	0.90439	0.14325	0.28501	0.036
Mof_H 	H 	0.8971	0.1661	0.2869	0.013
Mof_C 	C 	0.92341	0.13273	0.04779	0.039
Mof_H 	H 	0.9044	0.1296	0.0472	0.012
Mof_N 	N 	0.8834	0.33498	0.16792	-0.226
Mof_C 	C 	0.91746	0.08208	0.31114	0.064
Mof_H 	H 	0.919	0.061	0.332	-0.001
Mof_C 	C 	0.90629	0.17675	0.22161	0.134
Mof_C 	C 	0.95218	0.13808	0.01634	-0.051
Mof_N 	N 	0.84253	0.35891	0.11819	-0.258
Mof_N 	N 	0.98371	0.13871	0.95465	-0.151
Mof_N 	N 	0.90549	0.11397	0.31495	-0.225
Mof_C 	C 	0.95311	0.13899	0.98285	0.134
Mof_C 	C 	0.91326	0.1421	0.25132	-0.048
Mof_C 	C 	0.89742	0.27134	0.22576	0.005
Mof_H 	H 	0.9024	0.2496	0.2454	0.038
Mof_C 	C 	0.83338	0.35008	0.10476	0.098
Mof_C 	C 	0.92535	0.10827	0.24783	0.007
Mof_H 	H 	0.9316	0.1064	0.2252	0.038
Mof_C 	C 	0.87783	0.17995	0.14667	0.04
Mof_H 	H 	0.8828	0.1582	0.1664	0.012
Mof_C 	C 	0.92776	0.07774	0.27854	-0.101
Mof_H 	H 	0.9363	0.0543	0.2773	0.066
Mof_C 	C 	0.88019	0.21115	0.14409	-0.049
Mof_C 	C 	0.86083	0.21001	0.09589	0.052
Mof_H 	H 	0.8549	0.2095	0.0787	0.005
Mof_C 	C 	0.92992	0.07774	0.17008	0.105
Mof_C 	C 	0.89308	0.30418	0.22574	-0.095
Mof_H 	H 	0.8947	0.3055	0.2453	0.063
Mof_C 	C 	0.86075	0.24269	0.09197	-0.091
Mof_H 	H 	0.8544	0.2642	0.0728	0.064
Mof_C 	C 	0.98011	0.14285	0.01687	0.007
Mof_H 	H 	0.0004	0.1464	0.9956	0.038
Mof_C 	C 	0.94796	0.13662	0.07922	0.057
Mof_H 	H 	0.9464	0.1362	0.1012	0.002
Mof_C 	C 	0.88629	0.33495	0.19623	0.056
Mof_H 	H 	0.8835	0.3573	0.1961	-0
Mof_C 	C 	0.87035	0.24331	0.11691	0.003
Mof_H 	H 	0.8701	0.2653	0.1151	0.04
Mof_C 	C 	0.89009	0.20921	0.17129	0.133
Mof_C 	C 	0.97795	0.14221	0.04901	-0.098
Mof_H 	H 	0.9965	0.1455	0.0501	0.067
Mof_S 	S 	0.34013	0.82153	0.75525	-0.061
Mof_S 	S 	0.05176	0.96212	0.79688	-0.06
Mof_N 	N 	0.13172	0.92074	0.86822	-0.227
Mof_N 	N 	0.24033	0.88789	0.70127	-0.149
Mof_N 	N 	0.20626	0.90512	0.66528	-0.151
Mof_C 	C 	0.23684	0.89662	0.66956	0.134
Mof_N 	N 	0.17901	0.86907	0.82875	-0.226
Mof_N 	N 	0.09607	0.90837	0.83913	-0.265
Mof_C 	C 	0.27052	0.89448	0.63782	-0.047
Mof_C 	C 	0.30288	0.88712	0.64078	0.035
Mof_H 	H 	0.3023	0.8845	0.6633	0.015
Mof_N 	N 	0.17641	0.89989	0.72765	-0.15
Mof_C 	C 	0.14325	0.90439	0.66735	0.036
Mof_H 	H 	0.1661	0.8971	0.6499	0.013
Mof_C 	C 	0.13273	0.92341	0.89607	0.039
Mof_H 	H 	0.1296	0.9044	0.9188	0.012
Mof_N 	N 	0.33498	0.8834	0.6137	-0.226
Mof_C 	C 	0.08208	0.91746	0.68932	0.064
Mof_H 	H 	0.061	0.919	0.688	-0.001
Mof_C 	C 	0.17675	0.90629	0.69535	0.134
Mof_C 	C 	0.13808	0.95218	0.8934	-0.051
Mof_N 	N 	0.35891	0.84253	0.68037	-0.258
Mof_N 	N 	0.13871	0.98371	0.92293	-0.151
Mof_N 	N 	0.11397	0.90549	0.66559	-0.225
Mof_C 	C 	0.13899	0.95311	0.92505	0.134
Mof_C 	C 	0.1421	0.91326	0.69332	-0.048
Mof_C 	C 	0.27134	0.89742	0.60548	0.005
Mof_H 	H 	0.2496	0.9024	0.6026	0.038
Mof_C 	C 	0.35008	0.83338	0.71178	0.098
Mof_C 	C 	0.10827	0.92535	0.71855	0.007
Mof_H 	H 	0.1064	0.9316	0.7368	0.038
Mof_C 	C 	0.17995	0.87783	0.79555	0.04
Mof_H 	H 	0.1582	0.8828	0.7926	0.012
Mof_C 	C 	0.07774	0.92776	0.71596	-0.101
Mof_H 	H 	0.0543	0.9363	0.7321	0.066
Mof_C 	C 	0.21115	0.88019	0.76457	-0.049
Mof_C 	C 	0.21001	0.86083	0.83327	0.052
Mof_H 	H 	0.2095	0.8549	0.8569	0.005
Mof_C 	C 	0.07774	0.92992	0.82226	0.105
Mof_C 	C 	0.30418	0.89308	0.577	-0.095
Mof_H 	H 	0.3055	0.8947	0.5545	0.063
Mof_C 	C 	0.24269	0.86075	0.80459	-0.091
Mof_H 	H 	0.2642	0.8544	0.8086	0.064
Mof_C 	C 	0.14285	0.98011	0.86017	0.008
Mof_H 	H 	0.1464	0.0004	0.8576	0.038
Mof_C 	C 	0.13662	0.94796	0.8362	0.057
Mof_H 	H 	0.1362	0.9464	0.8162	0.002
Mof_C 	C 	0.33495	0.88629	0.58253	0.056
Mof_H 	H 	0.3573	0.8835	0.5631	-0
Mof_C 	C 	0.24331	0.87035	0.76943	0.003
Mof_H 	H 	0.2653	0.8701	0.7495	0.04
Mof_C 	C 	0.20921	0.89009	0.72941	0.133
Mof_C 	C 	0.14221	0.97795	0.83083	-0.098
Mof_H 	H 	0.1455	0.9965	0.8079	0.067
Mof_S 	S 	0.08309	0.75525	0.82153	-0.061
Mof_S 	S 	0.18924	0.79688	0.96212	-0.06
Mof_N 	N 	0.07932	0.86822	0.92074	-0.227
Mof_N 	N 	0.17051	0.70127	0.88789	-0.149
Mof_N 	N 	0.22334	0.66528	0.90512	-0.151
Mof_C 	C 	0.19698	0.66956	0.89662	0.134
Mof_N 	N 	0.12317	0.82875	0.86907	-0.226
Mof_N 	N 	0.15643	0.83913	0.90837	-0.265
Mof_C 	C 	0.19718	0.63782	0.89448	-0.047
Mof_C 	C 	0.16922	0.64078	0.88712	0.035
Mof_H 	H 	0.1499	0.6633	0.8845	0.015
Mof_N 	N 	0.19605	0.72765	0.89989	-0.15
Mof_C 	C 	0.28501	0.66735	0.90439	0.036
Mof_H 	H 	0.2869	0.6499	0.8971	0.013
Mof_C 	C 	0.04779	0.89607	0.92341	0.039
Mof_H 	H 	0.0472	0.9188	0.9044	0.012
Mof_N 	N 	0.16792	0.6137	0.8834	-0.226
Mof_C 	C 	0.31114	0.68932	0.91746	0.064
Mof_H 	H 	0.332	0.688	0.919	-0.001
Mof_C 	C 	0.22161	0.69535	0.90629	0.134
Mof_C 	C 	0.01634	0.8934	0.95218	-0.051
Mof_N 	N 	0.11819	0.68037	0.84253	-0.258
Mof_N 	N 	0.95465	0.92293	0.98371	-0.151
Mof_N 	N 	0.31495	0.66559	0.90549	-0.225
Mof_C 	C 	0.98285	0.92505	0.95311	0.134
Mof_C 	C 	0.25132	0.69332	0.91326	-0.048
Mof_C 	C 	0.22576	0.60548	0.89742	0.005
Mof_H 	H 	0.2454	0.6026	0.9024	0.038
Mof_C 	C 	0.10476	0.71178	0.83338	0.098
Mof_C 	C 	0.24783	0.71855	0.92535	0.007
Mof_H 	H 	0.2252	0.7368	0.9316	0.038
Mof_C 	C 	0.14667	0.79555	0.87783	0.04
Mof_H 	H 	0.1664	0.7926	0.8828	0.012
Mof_C 	C 	0.27854	0.71596	0.92776	-0.101
Mof_H 	H 	0.2773	0.7321	0.9363	0.066
Mof_C 	C 	0.14409	0.76457	0.88019	-0.049
Mof_C 	C 	0.09589	0.83327	0.86083	0.052
Mof_H 	H 	0.0787	0.8569	0.8549	0.005
Mof_C 	C 	0.17008	0.82226	0.92992	0.105
Mof_C 	C 	0.22574	0.577	0.89308	-0.095
Mof_H 	H 	0.2453	0.5545	0.8947	0.063
Mof_C 	C 	0.09197	0.80459	0.86075	-0.091
Mof_H 	H 	0.0728	0.8086	0.8544	0.064
Mof_C 	C 	0.01687	0.86017	0.98011	0.007
Mof_H 	H 	0.9956	0.8576	0.0004	0.038
Mof_C 	C 	0.07922	0.8362	0.94796	0.057
Mof_H 	H 	0.1012	0.8162	0.9464	0.002
Mof_C 	C 	0.19623	0.58253	0.88629	0.056
Mof_H 	H 	0.1961	0.5631	0.8835	-0
Mof_C 	C 	0.11691	0.76943	0.87035	0.003
Mof_H 	H 	0.1151	0.7495	0.8701	0.04
Mof_C 	C 	0.17129	0.72941	0.89009	0.133
Mof_C 	C 	0.04901	0.83083	0.97795	-0.098
Mof_H 	H 	0.0501	0.8079	0.9965	0.067
Mof_S 	S 	0.32153	0.25525	0.58309	-0.061
Mof_S 	S 	0.46212	0.29688	0.68924	-0.06
Mof_N 	N 	0.42074	0.36822	0.57932	-0.227
Mof_N 	N 	0.38789	0.20127	0.67051	-0.149
Mof_N 	N 	0.40512	0.16528	0.72334	-0.151
Mof_C 	C 	0.39662	0.16956	0.69698	0.134
Mof_N 	N 	0.36907	0.32875	0.62317	-0.226
Mof_N 	N 	0.40837	0.33913	0.65643	-0.265
Mof_C 	C 	0.39448	0.13782	0.69718	-0.047
Mof_C 	C 	0.38712	0.14078	0.66922	0.035
Mof_H 	H 	0.3845	0.1633	0.6499	0.015
Mof_N 	N 	0.39989	0.22765	0.69605	-0.15
Mof_C 	C 	0.40439	0.16735	0.78501	0.036
Mof_H 	H 	0.3971	0.1499	0.7869	0.012
Mof_C 	C 	0.42341	0.39607	0.54779	0.039
Mof_H 	H 	0.4044	0.4188	0.5472	0.013
Mof_N 	N 	0.3834	0.1137	0.66792	-0.226
Mof_C 	C 	0.41746	0.18932	0.81114	0.064
Mof_H 	H 	0.419	0.188	0.832	-0.001
Mof_C 	C 	0.40629	0.19535	0.72161	0.134
Mof_C 	C 	0.45218	0.3934	0.51634	-0.051
Mof_N 	N 	0.34253	0.18037	0.61819	-0.258
Mof_N 	N 	0.48371	0.42293	0.45465	-0.151
Mof_N 	N 	0.40549	0.16559	0.81495	-0.225
Mof_C 	C 	0.45311	0.42505	0.48285	0.134
Mof_C 	C 	0.41326	0.19332	0.75132	-0.048
Mof_C 	C 	0.39742	0.10548	0.72576	0.005
Mof_H 	H 	0.4024	0.1026	0.7454	0.038
Mof_C 	C 	0.33338	0.21178	0.60476	0.098
Mof_C 	C 	0.42535	0.21855	0.74783	0.007
Mof_H 	H 	0.4316	0.2368	0.7252	0.038
Mof_C 	C 	0.37783	0.29555	0.64667	0.04
Mof_H 	H 	0.3828	0.2926	0.6664	0.012
Mof_C 	C 	0.42776	0.21596	0.77854	-0.101
Mof_H 	H 	0.4363	0.2321	0.7773	0.066
Mof_C 	C 	0.38019	0.26457	0.64409	-0.049
Mof_C 	C 	0.36083	0.33327	0.59589	0.052
Mof_H 	H 	0.3549	0.3569	0.5787	0.005
Mof_C 	C 	0.42992	0.32226	0.67008	0.105
Mof_C 	C 	0.39308	0.077	0.72574	-0.095
Mof_H 	H 	0.3947	0.0545	0.7453	0.063
Mof_C 	C 	0.36075	0.30459	0.59197	-0.091
Mof_H 	H 	0.3544	0.3086	0.5728	0.064
Mof_C 	C 	0.48011	0.36017	0.51687	0.007
Mof_H 	H 	0.5004	0.3576	0.4956	0.038
Mof_C 	C 	0.44796	0.3362	0.57922	0.056
Mof_H 	H 	0.4464	0.3162	0.6012	0.002
Mof_C 	C 	0.38629	0.08253	0.69623	0.056
Mof_H 	H 	0.3835	0.0631	0.6961	-0
Mof_C 	C 	0.37035	0.26943	0.61691	0.003
Mof_H 	H 	0.3701	0.2495	0.6151	0.04
Mof_C 	C 	0.39009	0.22941	0.67129	0.133
Mof_C 	C 	0.47795	0.33083	0.54901	-0.098
Mof_H 	H 	0.4965	0.3079	0.5501	0.067
Mof_S 	S 	0.25525	0.32153	0.84013	-0.061
Mof_S 	S 	0.29688	0.46212	0.55176	-0.06
Mof_N 	N 	0.36822	0.42074	0.63172	-0.227
Mof_N 	N 	0.20127	0.38789	0.74033	-0.149
Mof_N 	N 	0.16528	0.40512	0.70626	-0.151
Mof_C 	C 	0.16956	0.39662	0.73684	0.134
Mof_N 	N 	0.32875	0.36907	0.67901	-0.226
Mof_N 	N 	0.33913	0.40837	0.59607	-0.265
Mof_C 	C 	0.13782	0.39448	0.77052	-0.047
Mof_C 	C 	0.14078	0.38712	0.80288	0.035
Mof_H 	H 	0.1633	0.3845	0.8023	0.015
Mof_N 	N 	0.22765	0.39989	0.67641	-0.15
Mof_C 	C 	0.16735	0.40439	0.64325	0.036
Mof_H 	H 	0.1499	0.3971	0.6661	0.012
Mof_C 	C 	0.39607	0.42341	0.63273	0.039
Mof_H 	H 	0.4188	0.4044	0.6296	0.013
Mof_N 	N 	0.1137	0.3834	0.83498	-0.226
Mof_C 	C 	0.18932	0.41746	0.58208	0.064
Mof_H 	H 	0.188	0.419	0.561	-0.001
Mof_C 	C 	0.19535	0.40629	0.67675	0.134
Mof_C 	C 	0.3934	0.45218	0.63808	-0.051
Mof_N 	N 	0.18037	0.34253	0.85891	-0.258
Mof_N 	N 	0.42293	0.48371	0.63871	-0.151
Mof_N 	N 	0.16559	0.40549	0.61397	-0.225
Mof_C 	C 	0.42505	0.45311	0.63899	0.134
Mof_C 	C 	0.19332	0.41326	0.6421	-0.048
Mof_C 	C 	0.10548	0.39742	0.77134	0.005
Mof_H 	H 	0.1026	0.4024	0.7496	0.038
Mof_C 	C 	0.21178	0.33338	0.85008	0.098
Mof_C 	C 	0.21855	0.42535	0.60827	0.007
Mof_H 	H 	0.2368	0.4316	0.6064	0.038
Mof_C 	C 	0.29555	0.37783	0.67995	0.04
Mof_H 	H 	0.2926	0.3828	0.6582	0.012
Mof_C 	C 	0.21596	0.42776	0.57774	-0.101
Mof_H 	H 	0.2321	0.4363	0.5543	0.066
Mof_C 	C 	0.26457	0.38019	0.71115	-0.049
Mof_C 	C 	0.33327	0.36083	0.71001	0.052
Mof_H 	H 	0.3569	0.3549	0.7095	0.005
Mof_C 	C 	0.32226	0.42992	0.57774	0.105
Mof_C 	C 	0.077	0.39308	0.80418	-0.095
Mof_H 	H 	0.0545	0.3947	0.8055	0.063
Mof_C 	C 	0.30459	0.36075	0.74269	-0.091
Mof_H 	H 	0.3086	0.3544	0.7642	0.064
Mof_C 	C 	0.36017	0.48011	0.64285	0.007
Mof_H 	H 	0.3576	0.5004	0.6464	0.038
Mof_C 	C 	0.3362	0.44796	0.63662	0.056
Mof_H 	H 	0.3162	0.4464	0.6362	0.002
Mof_C 	C 	0.08253	0.38629	0.83495	0.056
Mof_H 	H 	0.0631	0.3835	0.8573	-0
Mof_C 	C 	0.26943	0.37035	0.74331	0.003
Mof_H 	H 	0.2495	0.3701	0.7653	0.04
Mof_C 	C 	0.22941	0.39009	0.70921	0.133
Mof_C 	C 	0.33083	0.47795	0.64221	-0.098
Mof_H 	H 	0.3079	0.4965	0.6455	0.067
Mof_S 	S 	0.58309	0.84013	0.32153	-0.061
Mof_S 	S 	0.68924	0.55176	0.46212	-0.06
Mof_N 	N 	0.57932	0.63172	0.42074	-0.227
Mof_N 	N 	0.67051	0.74033	0.38789	-0.149
Mof_N 	N 	0.72334	0.70626	0.40512	-0.151
Mof_C 	C 	0.69698	0.73684	0.39662	0.134
Mof_N 	N 	0.62317	0.67901	0.36907	-0.226
Mof_N 	N 	0.65643	0.59607	0.40837	-0.265
Mof_C 	C 	0.69718	0.77052	0.39448	-0.047
Mof_C 	C 	0.66922	0.80288	0.38712	0.035
Mof_H 	H 	0.6499	0.8023	0.3845	0.015
Mof_N 	N 	0.69605	0.67641	0.39989	-0.15
Mof_C 	C 	0.78501	0.64325	0.40439	0.036
Mof_H 	H 	0.7869	0.6661	0.3971	0.012
Mof_C 	C 	0.54779	0.63273	0.42341	0.039
Mof_H 	H 	0.5472	0.6296	0.4044	0.013
Mof_N 	N 	0.66792	0.83498	0.3834	-0.226
Mof_C 	C 	0.81114	0.58208	0.41746	0.064
Mof_H 	H 	0.832	0.561	0.419	-0.001
Mof_C 	C 	0.72161	0.67675	0.40629	0.134
Mof_C 	C 	0.51634	0.63808	0.45218	-0.051
Mof_N 	N 	0.61819	0.85891	0.34253	-0.258
Mof_N 	N 	0.45465	0.63871	0.48371	-0.151
Mof_N 	N 	0.81495	0.61397	0.40549	-0.225
Mof_C 	C 	0.48285	0.63899	0.45311	0.134
Mof_C 	C 	0.75132	0.6421	0.41326	-0.048
Mof_C 	C 	0.72576	0.77134	0.39742	0.005
Mof_H 	H 	0.7454	0.7496	0.4024	0.038
Mof_C 	C 	0.60476	0.85008	0.33338	0.098
Mof_C 	C 	0.74783	0.60827	0.42535	0.007
Mof_H 	H 	0.7252	0.6064	0.4316	0.038
Mof_C 	C 	0.64667	0.67995	0.37783	0.04
Mof_H 	H 	0.6664	0.6582	0.3828	0.012
Mof_C 	C 	0.77854	0.57774	0.42776	-0.101
Mof_H 	H 	0.7773	0.5543	0.4363	0.066
Mof_C 	C 	0.64409	0.71115	0.38019	-0.049
Mof_C 	C 	0.59589	0.71001	0.36083	0.052
Mof_H 	H 	0.5787	0.7095	0.3549	0.005
Mof_C 	C 	0.67008	0.57774	0.42992	0.105
Mof_C 	C 	0.72574	0.80418	0.39308	-0.095
Mof_H 	H 	0.7453	0.8055	0.3947	0.063
Mof_C 	C 	0.59197	0.74269	0.36075	-0.091
Mof_H 	H 	0.5728	0.7642	0.3544	0.064
Mof_C 	C 	0.51687	0.64285	0.48011	0.007
Mof_H 	H 	0.4956	0.6464	0.5004	0.038
Mof_C 	C 	0.57922	0.63662	0.44796	0.056
Mof_H 	H 	0.6012	0.6362	0.4464	0.002
Mof_C 	C 	0.69623	0.83495	0.38629	0.056
Mof_H 	H 	0.6961	0.8573	0.3835	-0
Mof_C 	C 	0.61691	0.74331	0.37035	0.003
Mof_H 	H 	0.6151	0.7653	0.3701	0.04
Mof_C 	C 	0.67129	0.70921	0.39009	0.133
Mof_C 	C 	0.54901	0.64221	0.47795	-0.098
Mof_H 	H 	0.5501	0.6455	0.4965	0.067
Mof_S 	S 	0.84013	0.58309	0.25525	-0.061
Mof_S 	S 	0.55176	0.68924	0.29688	-0.06
Mof_N 	N 	0.63172	0.57932	0.36822	-0.227
Mof_N 	N 	0.74033	0.67051	0.20127	-0.149
Mof_N 	N 	0.70626	0.72334	0.16528	-0.151
Mof_C 	C 	0.73684	0.69698	0.16956	0.134
Mof_N 	N 	0.67901	0.62317	0.32875	-0.226
Mof_N 	N 	0.59607	0.65643	0.33913	-0.265
Mof_C 	C 	0.77052	0.69718	0.13782	-0.047
Mof_C 	C 	0.80288	0.66922	0.14078	0.035
Mof_H 	H 	0.8023	0.6499	0.1633	0.015
Mof_N 	N 	0.67641	0.69605	0.22765	-0.15
Mof_C 	C 	0.64325	0.78501	0.16735	0.036
Mof_H 	H 	0.6661	0.7869	0.1499	0.012
Mof_C 	C 	0.63273	0.54779	0.39607	0.039
Mof_H 	H 	0.6296	0.5472	0.4188	0.013
Mof_N 	N 	0.83498	0.66792	0.1137	-0.226
Mof_C 	C 	0.58208	0.81114	0.18932	0.064
Mof_H 	H 	0.561	0.832	0.188	-0.001
Mof_C 	C 	0.67675	0.72161	0.19535	0.134
Mof_C 	C 	0.63808	0.51634	0.3934	-0.051
Mof_N 	N 	0.85891	0.61819	0.18037	-0.258
Mof_N 	N 	0.63871	0.45465	0.42293	-0.151
Mof_N 	N 	0.61397	0.81495	0.16559	-0.225
Mof_C 	C 	0.63899	0.48285	0.42505	0.134
Mof_C 	C 	0.6421	0.75132	0.19332	-0.048
Mof_C 	C 	0.77134	0.72576	0.10548	0.005
Mof_H 	H 	0.7496	0.7454	0.1026	0.038
Mof_C 	C 	0.85008	0.60476	0.21178	0.098
Mof_C 	C 	0.60827	0.74783	0.21855	0.007
Mof_H 	H 	0.6064	0.7252	0.2368	0.038
Mof_C 	C 	0.67995	0.64667	0.29555	0.04
Mof_H 	H 	0.6582	0.6664	0.2926	0.012
Mof_C 	C 	0.57774	0.77854	0.21596	-0.101
Mof_H 	H 	0.5543	0.7773	0.2321	0.066
Mof_C 	C 	0.71115	0.64409	0.26457	-0.049
Mof_C 	C 	0.71001	0.59589	0.33327	0.052
Mof_H 	H 	0.7095	0.5787	0.3569	0.005
Mof_C 	C 	0.57774	0.67008	0.32226	0.105
Mof_C 	C 	0.80418	0.72574	0.077	-0.095
Mof_H 	H 	0.8055	0.7453	0.0545	0.063
Mof_C 	C 	0.74269	0.59197	0.30459	-0.091
Mof_H 	H 	0.7642	0.5728	0.3086	0.064
Mof_C 	C 	0.64285	0.51687	0.36017	0.007
Mof_H 	H 	0.6464	0.4956	0.3576	0.038
Mof_C 	C 	0.63662	0.57922	0.3362	0.056
Mof_H 	H 	0.6362	0.6012	0.3162	0.002
Mof_C 	C 	0.83495	0.69623	0.08253	0.056
Mof_H 	H 	0.8573	0.6961	0.0631	-0
Mof_C 	C 	0.74331	0.61691	0.26943	0.003
Mof_H 	H 	0.7653	0.6151	0.2495	0.04
Mof_C 	C 	0.70921	0.67129	0.22941	0.133
Mof_C 	C 	0.64221	0.54901	0.33083	-0.098
Mof_H 	H 	0.6455	0.5501	0.3079	0.067
Mof_S 	S 	0.58309	0.32153	0.25525	-0.061
Mof_S 	S 	0.68924	0.46212	0.29688	-0.06
Mof_N 	N 	0.57932	0.42074	0.36822	-0.227
Mof_N 	N 	0.67051	0.38789	0.20127	-0.149
Mof_N 	N 	0.72334	0.40512	0.16528	-0.151
Mof_C 	C 	0.69698	0.39662	0.16956	0.134
Mof_N 	N 	0.62317	0.36907	0.32875	-0.226
Mof_N 	N 	0.65643	0.40837	0.33913	-0.265
Mof_C 	C 	0.69718	0.39448	0.13782	-0.047
Mof_C 	C 	0.66922	0.38712	0.14078	0.035
Mof_H 	H 	0.6499	0.3845	0.1633	0.015
Mof_N 	N 	0.69605	0.39989	0.22765	-0.15
Mof_C 	C 	0.78501	0.40439	0.16735	0.036
Mof_H 	H 	0.7869	0.3971	0.1499	0.012
Mof_C 	C 	0.54779	0.42341	0.39607	0.039
Mof_H 	H 	0.5472	0.4044	0.4188	0.013
Mof_N 	N 	0.66792	0.3834	0.1137	-0.226
Mof_C 	C 	0.81114	0.41746	0.18932	0.064
Mof_H 	H 	0.832	0.419	0.188	-0.001
Mof_C 	C 	0.72161	0.40629	0.19535	0.134
Mof_C 	C 	0.51634	0.45218	0.3934	-0.051
Mof_N 	N 	0.61819	0.34253	0.18037	-0.258
Mof_N 	N 	0.45465	0.48371	0.42293	-0.151
Mof_N 	N 	0.81495	0.40549	0.16559	-0.225
Mof_C 	C 	0.48285	0.45311	0.42505	0.134
Mof_C 	C 	0.75132	0.41326	0.19332	-0.048
Mof_C 	C 	0.72576	0.39742	0.10548	0.005
Mof_H 	H 	0.7454	0.4024	0.1026	0.038
Mof_C 	C 	0.60476	0.33338	0.21178	0.098
Mof_C 	C 	0.74783	0.42535	0.21855	0.007
Mof_H 	H 	0.7252	0.4316	0.2368	0.038
Mof_C 	C 	0.64667	0.37783	0.29555	0.04
Mof_H 	H 	0.6664	0.3828	0.2926	0.012
Mof_C 	C 	0.77854	0.42776	0.21596	-0.101
Mof_H 	H 	0.7773	0.4363	0.2321	0.066
Mof_C 	C 	0.64409	0.38019	0.26457	-0.049
Mof_C 	C 	0.59589	0.36083	0.33327	0.052
Mof_H 	H 	0.5787	0.3549	0.3569	0.005
Mof_C 	C 	0.67008	0.42992	0.32226	0.105
Mof_C 	C 	0.72574	0.39308	0.077	-0.095
Mof_H 	H 	0.7453	0.3947	0.0545	0.063
Mof_C 	C 	0.59197	0.36075	0.30459	-0.091
Mof_H 	H 	0.5728	0.3544	0.3086	0.064
Mof_C 	C 	0.51687	0.48011	0.36017	0.007
Mof_H 	H 	0.4956	0.5004	0.3576	0.038
Mof_C 	C 	0.57922	0.44796	0.3362	0.056
Mof_H 	H 	0.6012	0.4464	0.3162	0.002
Mof_C 	C 	0.69623	0.38629	0.08253	0.056
Mof_H 	H 	0.6961	0.3835	0.0631	-0
Mof_C 	C 	0.61691	0.37035	0.26943	0.003
Mof_H 	H 	0.6151	0.3701	0.2495	0.04
Mof_C 	C 	0.67129	0.39009	0.22941	0.133
Mof_C 	C 	0.54901	0.47795	0.33083	-0.098
Mof_H 	H 	0.5501	0.4965	0.3079	0.067
Mof_S 	S 	0.84013	0.25525	0.32153	-0.061
Mof_S 	S 	0.55176	0.29688	0.46212	-0.06
Mof_N 	N 	0.63172	0.36822	0.42074	-0.227
Mof_N 	N 	0.74033	0.20127	0.38789	-0.149
Mof_N 	N 	0.70626	0.16528	0.40512	-0.151
Mof_C 	C 	0.73684	0.16956	0.39662	0.134
Mof_N 	N 	0.67901	0.32875	0.36907	-0.226
Mof_N 	N 	0.59607	0.33913	0.40837	-0.265
Mof_C 	C 	0.77052	0.13782	0.39448	-0.047
Mof_C 	C 	0.80288	0.14078	0.38712	0.035
Mof_H 	H 	0.8023	0.1633	0.3845	0.015
Mof_N 	N 	0.67641	0.22765	0.39989	-0.15
Mof_C 	C 	0.64325	0.16735	0.40439	0.036
Mof_H 	H 	0.6661	0.1499	0.3971	0.012
Mof_C 	C 	0.63273	0.39607	0.42341	0.039
Mof_H 	H 	0.6296	0.4188	0.4044	0.013
Mof_N 	N 	0.83498	0.1137	0.3834	-0.226
Mof_C 	C 	0.58208	0.18932	0.41746	0.064
Mof_H 	H 	0.561	0.188	0.419	-0.001
Mof_C 	C 	0.67675	0.19535	0.40629	0.134
Mof_C 	C 	0.63808	0.3934	0.45218	-0.051
Mof_N 	N 	0.85891	0.18037	0.34253	-0.258
Mof_N 	N 	0.63871	0.42293	0.48371	-0.151
Mof_N 	N 	0.61397	0.16559	0.40549	-0.225
Mof_C 	C 	0.63899	0.42505	0.45311	0.134
Mof_C 	C 	0.6421	0.19332	0.41326	-0.048
Mof_C 	C 	0.77134	0.10548	0.39742	0.005
Mof_H 	H 	0.7496	0.1026	0.4024	0.038
Mof_C 	C 	0.85008	0.21178	0.33338	0.098
Mof_C 	C 	0.60827	0.21855	0.42535	0.007
Mof_H 	H 	0.6064	0.2368	0.4316	0.038
Mof_C 	C 	0.67995	0.29555	0.37783	0.04
Mof_H 	H 	0.6582	0.2926	0.3828	0.012
Mof_C 	C 	0.57774	0.21596	0.42776	-0.101
Mof_H 	H 	0.5543	0.2321	0.4363	0.066
Mof_C 	C 	0.71115	0.26457	0.38019	-0.049
Mof_C 	C 	0.71001	0.33327	0.36083	0.052
Mof_H 	H 	0.7095	0.3569	0.3549	0.005
Mof_C 	C 	0.57774	0.32226	0.42992	0.105
Mof_C 	C 	0.80418	0.077	0.39308	-0.095
Mof_H 	H 	0.8055	0.0545	0.3947	0.063
Mof_C 	C 	0.74269	0.30459	0.36075	-0.091
Mof_H 	H 	0.7642	0.3086	0.3544	0.064
Mof_C 	C 	0.64285	0.36017	0.48011	0.007
Mof_H 	H 	0.6464	0.3576	0.5004	0.038
Mof_C 	C 	0.63662	0.3362	0.44796	0.056
Mof_H 	H 	0.6362	0.3162	0.4464	0.002
Mof_C 	C 	0.83495	0.08253	0.38629	0.056
Mof_H 	H 	0.8573	0.0631	0.3835	-0
Mof_C 	C 	0.74331	0.26943	0.37035	0.003
Mof_H 	H 	0.7653	0.2495	0.3701	0.04
Mof_C 	C 	0.70921	0.22941	0.39009	0.133
Mof_C 	C 	0.64221	0.33083	0.47795	-0.098
Mof_H 	H 	0.6455	0.3079	0.4965	0.067
Mof_S 	S 	0.32153	0.58309	0.84013	-0.061
Mof_S 	S 	0.46212	0.68924	0.55176	-0.06
Mof_N 	N 	0.42074	0.57932	0.63172	-0.227
Mof_N 	N 	0.38789	0.67051	0.74033	-0.149
Mof_N 	N 	0.40512	0.72334	0.70626	-0.151
Mof_C 	C 	0.39662	0.69698	0.73684	0.134
Mof_N 	N 	0.36907	0.62317	0.67901	-0.226
Mof_N 	N 	0.40837	0.65643	0.59607	-0.265
Mof_C 	C 	0.39448	0.69718	0.77052	-0.047
Mof_C 	C 	0.38712	0.66922	0.80288	0.035
Mof_H 	H 	0.3845	0.6499	0.8023	0.015
Mof_N 	N 	0.39989	0.69605	0.67641	-0.15
Mof_C 	C 	0.40439	0.78501	0.64325	0.036
Mof_H 	H 	0.3971	0.7869	0.6661	0.012
Mof_C 	C 	0.42341	0.54779	0.63273	0.039
Mof_H 	H 	0.4044	0.5472	0.6296	0.013
Mof_N 	N 	0.3834	0.66792	0.83498	-0.226
Mof_C 	C 	0.41746	0.81114	0.58208	0.064
Mof_H 	H 	0.419	0.832	0.561	-0.001
Mof_C 	C 	0.40629	0.72161	0.67675	0.134
Mof_C 	C 	0.45218	0.51634	0.63808	-0.051
Mof_N 	N 	0.34253	0.61819	0.85891	-0.258
Mof_N 	N 	0.48371	0.45465	0.63871	-0.151
Mof_N 	N 	0.40549	0.81495	0.61397	-0.225
Mof_C 	C 	0.45311	0.48285	0.63899	0.134
Mof_C 	C 	0.41326	0.75132	0.6421	-0.048
Mof_C 	C 	0.39742	0.72576	0.77134	0.005
Mof_H 	H 	0.4024	0.7454	0.7496	0.038
Mof_C 	C 	0.33338	0.60476	0.85008	0.098
Mof_C 	C 	0.42535	0.74783	0.60827	0.007
Mof_H 	H 	0.4316	0.7252	0.6064	0.038
Mof_C 	C 	0.37783	0.64667	0.67995	0.04
Mof_H 	H 	0.3828	0.6664	0.6582	0.012
Mof_C 	C 	0.42776	0.77854	0.57774	-0.101
Mof_H 	H 	0.4363	0.7773	0.5543	0.066
Mof_C 	C 	0.38019	0.64409	0.71115	-0.049
Mof_C 	C 	0.36083	0.59589	0.71001	0.052
Mof_H 	H 	0.3549	0.5787	0.7095	0.005
Mof_C 	C 	0.42992	0.67008	0.57774	0.105
Mof_C 	C 	0.39308	0.72574	0.80418	-0.095
Mof_H 	H 	0.3947	0.7453	0.8055	0.063
Mof_C 	C 	0.36075	0.59197	0.74269	-0.091
Mof_H 	H 	0.3544	0.5728	0.7642	0.064
Mof_C 	C 	0.48011	0.51687	0.64285	0.007
Mof_H 	H 	0.5004	0.4956	0.6464	0.038
Mof_C 	C 	0.44796	0.57922	0.63662	0.056
Mof_H 	H 	0.4464	0.6012	0.6362	0.002
Mof_C 	C 	0.38629	0.69623	0.83495	0.056
Mof_H 	H 	0.3835	0.6961	0.8573	-0
Mof_C 	C 	0.37035	0.61691	0.74331	0.003
Mof_H 	H 	0.3701	0.6151	0.7653	0.04
Mof_C 	C 	0.39009	0.67129	0.70921	0.133
Mof_C 	C 	0.47795	0.54901	0.64221	-0.098
Mof_H 	H 	0.4965	0.5501	0.6455	0.067
Mof_S 	S 	0.25525	0.84013	0.58309	-0.061
Mof_S 	S 	0.29688	0.55176	0.68924	-0.06
Mof_N 	N 	0.36822	0.63172	0.57932	-0.227
Mof_N 	N 	0.20127	0.74033	0.67051	-0.149
Mof_N 	N 	0.16528	0.70626	0.72334	-0.151
Mof_C 	C 	0.16956	0.73684	0.69698	0.134
Mof_N 	N 	0.32875	0.67901	0.62317	-0.226
Mof_N 	N 	0.33913	0.59607	0.65643	-0.265
Mof_C 	C 	0.13782	0.77052	0.69718	-0.047
Mof_C 	C 	0.14078	0.80288	0.66922	0.035
Mof_H 	H 	0.1633	0.8023	0.6499	0.015
Mof_N 	N 	0.22765	0.67641	0.69605	-0.15
Mof_C 	C 	0.16735	0.64325	0.78501	0.036
Mof_H 	H 	0.1499	0.6661	0.7869	0.012
Mof_C 	C 	0.39607	0.63273	0.54779	0.039
Mof_H 	H 	0.4188	0.6296	0.5472	0.013
Mof_N 	N 	0.1137	0.83498	0.66792	-0.226
Mof_C 	C 	0.18932	0.58208	0.81114	0.064
Mof_H 	H 	0.188	0.561	0.832	-0.001
Mof_C 	C 	0.19535	0.67675	0.72161	0.134
Mof_C 	C 	0.3934	0.63808	0.51634	-0.051
Mof_N 	N 	0.18037	0.85891	0.61819	-0.258
Mof_N 	N 	0.42293	0.63871	0.45465	-0.151
Mof_N 	N 	0.16559	0.61397	0.81495	-0.225
Mof_C 	C 	0.42505	0.63899	0.48285	0.134
Mof_C 	C 	0.19332	0.6421	0.75132	-0.048
Mof_C 	C 	0.10548	0.77134	0.72576	0.005
Mof_H 	H 	0.1026	0.7496	0.7454	0.038
Mof_C 	C 	0.21178	0.85008	0.60476	0.098
Mof_C 	C 	0.21855	0.60827	0.74783	0.007
Mof_H 	H 	0.2368	0.6064	0.7252	0.038
Mof_C 	C 	0.29555	0.67995	0.64667	0.04
Mof_H 	H 	0.2926	0.6582	0.6664	0.012
Mof_C 	C 	0.21596	0.57774	0.77854	-0.101
Mof_H 	H 	0.2321	0.5543	0.7773	0.066
Mof_C 	C 	0.26457	0.71115	0.64409	-0.049
Mof_C 	C 	0.33327	0.71001	0.59589	0.052
Mof_H 	H 	0.3569	0.7095	0.5787	0.005
Mof_C 	C 	0.32226	0.57774	0.67008	0.105
Mof_C 	C 	0.077	0.80418	0.72574	-0.095
Mof_H 	H 	0.0545	0.8055	0.7453	0.063
Mof_C 	C 	0.30459	0.74269	0.59197	-0.091
Mof_H 	H 	0.3086	0.7642	0.5728	0.064
Mof_C 	C 	0.36017	0.64285	0.51687	0.007
Mof_H 	H 	0.3576	0.6464	0.4956	0.038
Mof_C 	C 	0.3362	0.63662	0.57922	0.056
Mof_H 	H 	0.3162	0.6362	0.6012	0.002
Mof_C 	C 	0.08253	0.83495	0.69623	0.056
Mof_H 	H 	0.0631	0.8573	0.6961	-0
Mof_C 	C 	0.26943	0.74331	0.61691	0.003
Mof_H 	H 	0.2495	0.7653	0.6151	0.04
Mof_C 	C 	0.22941	0.70921	0.67129	0.133
Mof_C 	C 	0.33083	0.64221	0.54901	-0.098
Mof_H 	H 	0.3079	0.6455	0.5501	0.067
Mof_S 	S 	0.25525	0.58309	0.32153	-0.061
Mof_S 	S 	0.29688	0.68924	0.46212	-0.06
Mof_N 	N 	0.36822	0.57932	0.42074	-0.227
Mof_N 	N 	0.20127	0.67051	0.38789	-0.149
Mof_N 	N 	0.16528	0.72334	0.40512	-0.151
Mof_C 	C 	0.16956	0.69698	0.39662	0.134
Mof_N 	N 	0.32875	0.62317	0.36907	-0.226
Mof_N 	N 	0.33913	0.65643	0.40837	-0.265
Mof_C 	C 	0.13782	0.69718	0.39448	-0.047
Mof_C 	C 	0.14078	0.66922	0.38712	0.035
Mof_H 	H 	0.1633	0.6499	0.3845	0.015
Mof_N 	N 	0.22765	0.69605	0.39989	-0.15
Mof_C 	C 	0.16735	0.78501	0.40439	0.036
Mof_H 	H 	0.1499	0.7869	0.3971	0.012
Mof_C 	C 	0.39607	0.54779	0.42341	0.039
Mof_H 	H 	0.4188	0.5472	0.4044	0.013
Mof_N 	N 	0.1137	0.66792	0.3834	-0.226
Mof_C 	C 	0.18932	0.81114	0.41746	0.064
Mof_H 	H 	0.188	0.832	0.419	-0.001
Mof_C 	C 	0.19535	0.72161	0.40629	0.134
Mof_C 	C 	0.3934	0.51634	0.45218	-0.051
Mof_N 	N 	0.18037	0.61819	0.34253	-0.258
Mof_N 	N 	0.42293	0.45465	0.48371	-0.151
Mof_N 	N 	0.16559	0.81495	0.40549	-0.225
Mof_C 	C 	0.42505	0.48285	0.45311	0.134
Mof_C 	C 	0.19332	0.75132	0.41326	-0.048
Mof_C 	C 	0.10548	0.72576	0.39742	0.005
Mof_H 	H 	0.1026	0.7454	0.4024	0.038
Mof_C 	C 	0.21178	0.60476	0.33338	0.098
Mof_C 	C 	0.21855	0.74783	0.42535	0.007
Mof_H 	H 	0.2368	0.7252	0.4316	0.038
Mof_C 	C 	0.29555	0.64667	0.37783	0.04
Mof_H 	H 	0.2926	0.6664	0.3828	0.012
Mof_C 	C 	0.21596	0.77854	0.42776	-0.101
Mof_H 	H 	0.2321	0.7773	0.4363	0.066
Mof_C 	C 	0.26457	0.64409	0.38019	-0.049
Mof_C 	C 	0.33327	0.59589	0.36083	0.052
Mof_H 	H 	0.3569	0.5787	0.3549	0.005
Mof_C 	C 	0.32226	0.67008	0.42992	0.105
Mof_C 	C 	0.077	0.72574	0.39308	-0.095
Mof_H 	H 	0.0545	0.7453	0.3947	0.063
Mof_C 	C 	0.30459	0.59197	0.36075	-0.091
Mof_H 	H 	0.3086	0.5728	0.3544	0.064
Mof_C 	C 	0.36017	0.51687	0.48011	0.007
Mof_H 	H 	0.3576	0.4956	0.5004	0.038
Mof_C 	C 	0.3362	0.57922	0.44796	0.056
Mof_H 	H 	0.3162	0.6012	0.4464	0.002
Mof_C 	C 	0.08253	0.69623	0.38629	0.056
Mof_H 	H 	0.0631	0.6961	0.3835	-0
Mof_C 	C 	0.26943	0.61691	0.37035	0.003
Mof_H 	H 	0.2495	0.6151	0.3701	0.04
Mof_C 	C 	0.22941	0.67129	0.39009	0.133
Mof_C 	C 	0.33083	0.54901	0.47795	-0.098
Mof_H 	H 	0.3079	0.5501	0.4965	0.067
Mof_S 	S 	0.32153	0.84013	0.25525	-0.061
Mof_S 	S 	0.46212	0.55176	0.29688	-0.06
Mof_N 	N 	0.42074	0.63172	0.36822	-0.227
Mof_N 	N 	0.38789	0.74033	0.20127	-0.149
Mof_N 	N 	0.40512	0.70626	0.16528	-0.151
Mof_C 	C 	0.39662	0.73684	0.16956	0.134
Mof_N 	N 	0.36907	0.67901	0.32875	-0.226
Mof_N 	N 	0.40837	0.59607	0.33913	-0.265
Mof_C 	C 	0.39448	0.77052	0.13782	-0.047
Mof_C 	C 	0.38712	0.80288	0.14078	0.035
Mof_H 	H 	0.3845	0.8023	0.1633	0.015
Mof_N 	N 	0.39989	0.67641	0.22765	-0.15
Mof_C 	C 	0.40439	0.64325	0.16735	0.036
Mof_H 	H 	0.3971	0.6661	0.1499	0.012
Mof_C 	C 	0.42341	0.63273	0.39607	0.039
Mof_H 	H 	0.4044	0.6296	0.4188	0.013
Mof_N 	N 	0.3834	0.83498	0.1137	-0.226
Mof_C 	C 	0.41746	0.58208	0.18932	0.064
Mof_H 	H 	0.419	0.561	0.188	-0.001
Mof_C 	C 	0.40629	0.67675	0.19535	0.134
Mof_C 	C 	0.45218	0.63808	0.3934	-0.051
Mof_N 	N 	0.34253	0.85891	0.18037	-0.258
Mof_N 	N 	0.48371	0.63871	0.42293	-0.151
Mof_N 	N 	0.40549	0.61397	0.16559	-0.225
Mof_C 	C 	0.45311	0.63899	0.42505	0.134
Mof_C 	C 	0.41326	0.6421	0.19332	-0.048
Mof_C 	C 	0.39742	0.77134	0.10548	0.005
Mof_H 	H 	0.4024	0.7496	0.1026	0.038
Mof_C 	C 	0.33338	0.85008	0.21178	0.098
Mof_C 	C 	0.42535	0.60827	0.21855	0.007
Mof_H 	H 	0.4316	0.6064	0.2368	0.038
Mof_C 	C 	0.37783	0.67995	0.29555	0.04
Mof_H 	H 	0.3828	0.6582	0.2926	0.012
Mof_C 	C 	0.42776	0.57774	0.21596	-0.101
Mof_H 	H 	0.4363	0.5543	0.2321	0.066
Mof_C 	C 	0.38019	0.71115	0.26457	-0.049
Mof_C 	C 	0.36083	0.71001	0.33327	0.052
Mof_H 	H 	0.3549	0.7095	0.3569	0.005
Mof_C 	C 	0.42992	0.57774	0.32226	0.105
Mof_C 	C 	0.39308	0.80418	0.077	-0.095
Mof_H 	H 	0.3947	0.8055	0.0545	0.063
Mof_C 	C 	0.36075	0.74269	0.30459	-0.091
Mof_H 	H 	0.3544	0.7642	0.3086	0.064
Mof_C 	C 	0.48011	0.64285	0.36017	0.007
Mof_H 	H 	0.5004	0.6464	0.3576	0.038
Mof_C 	C 	0.44796	0.63662	0.3362	0.056
Mof_H 	H 	0.4464	0.6362	0.3162	0.002
Mof_C 	C 	0.38629	0.83495	0.08253	0.056
Mof_H 	H 	0.3835	0.8573	0.0631	-0
Mof_C 	C 	0.37035	0.74331	0.26943	0.003
Mof_H 	H 	0.3701	0.7653	0.2495	0.04
Mof_C 	C 	0.39009	0.70921	0.22941	0.133
Mof_C 	C 	0.47795	0.64221	0.33083	-0.098
Mof_H 	H 	0.4965	0.6455	0.3079	0.067
Mof_S 	S 	0.84013	0.32153	0.58309	-0.061
Mof_S 	S 	0.55176	0.46212	0.68924	-0.06
Mof_N 	N 	0.63172	0.42074	0.57932	-0.227
Mof_N 	N 	0.74033	0.38789	0.67051	-0.149
Mof_N 	N 	0.70626	0.40512	0.72334	-0.151
Mof_C 	C 	0.73684	0.39662	0.69698	0.134
Mof_N 	N 	0.67901	0.36907	0.62317	-0.226
Mof_N 	N 	0.59607	0.40837	0.65643	-0.265
Mof_C 	C 	0.77052	0.39448	0.69718	-0.047
Mof_C 	C 	0.80288	0.38712	0.66922	0.035
Mof_H 	H 	0.8023	0.3845	0.6499	0.015
Mof_N 	N 	0.67641	0.39989	0.69605	-0.15
Mof_C 	C 	0.64325	0.40439	0.78501	0.036
Mof_H 	H 	0.6661	0.3971	0.7869	0.012
Mof_C 	C 	0.63273	0.42341	0.54779	0.039
Mof_H 	H 	0.6296	0.4044	0.5472	0.013
Mof_N 	N 	0.83498	0.3834	0.66792	-0.226
Mof_C 	C 	0.58208	0.41746	0.81114	0.064
Mof_H 	H 	0.561	0.419	0.832	-0.001
Mof_C 	C 	0.67675	0.40629	0.72161	0.134
Mof_C 	C 	0.63808	0.45218	0.51634	-0.051
Mof_N 	N 	0.85891	0.34253	0.61819	-0.258
Mof_N 	N 	0.63871	0.48371	0.45465	-0.151
Mof_N 	N 	0.61397	0.40549	0.81495	-0.225
Mof_C 	C 	0.63899	0.45311	0.48285	0.134
Mof_C 	C 	0.6421	0.41326	0.75132	-0.048
Mof_C 	C 	0.77134	0.39742	0.72576	0.005
Mof_H 	H 	0.7496	0.4024	0.7454	0.038
Mof_C 	C 	0.85008	0.33338	0.60476	0.098
Mof_C 	C 	0.60827	0.42535	0.74783	0.007
Mof_H 	H 	0.6064	0.4316	0.7252	0.038
Mof_C 	C 	0.67995	0.37783	0.64667	0.04
Mof_H 	H 	0.6582	0.3828	0.6664	0.012
Mof_C 	C 	0.57774	0.42776	0.77854	-0.101
Mof_H 	H 	0.5543	0.4363	0.7773	0.066
Mof_C 	C 	0.71115	0.38019	0.64409	-0.049
Mof_C 	C 	0.71001	0.36083	0.59589	0.052
Mof_H 	H 	0.7095	0.3549	0.5787	0.005
Mof_C 	C 	0.57774	0.42992	0.67008	0.105
Mof_C 	C 	0.80418	0.39308	0.72574	-0.095
Mof_H 	H 	0.8055	0.3947	0.7453	0.063
Mof_C 	C 	0.74269	0.36075	0.59197	-0.091
Mof_H 	H 	0.7642	0.3544	0.5728	0.064
Mof_C 	C 	0.64285	0.48011	0.51687	0.007
Mof_H 	H 	0.6464	0.5004	0.4956	0.038
Mof_C 	C 	0.63662	0.44796	0.57922	0.056
Mof_H 	H 	0.6362	0.4464	0.6012	0.002
Mof_C 	C 	0.83495	0.38629	0.69623	0.056
Mof_H 	H 	0.8573	0.3835	0.6961	-0
Mof_C 	C 	0.74331	0.37035	0.61691	0.003
Mof_H 	H 	0.7653	0.3701	0.6151	0.04
Mof_C 	C 	0.70921	0.39009	0.67129	0.133
Mof_C 	C 	0.64221	0.47795	0.54901	-0.098
Mof_H 	H 	0.6455	0.4965	0.5501	0.067
Mof_S 	S 	0.58309	0.25525	0.84013	-0.061
Mof_S 	S 	0.68924	0.29688	0.55176	-0.06
Mof_N 	N 	0.57932	0.36822	0.63172	-0.227
Mof_N 	N 	0.67051	0.20127	0.74033	-0.149
Mof_N 	N 	0.72334	0.16528	0.70626	-0.151
Mof_C 	C 	0.69698	0.16956	0.73684	0.134
Mof_N 	N 	0.62317	0.32875	0.67901	-0.226
Mof_N 	N 	0.65643	0.33913	0.59607	-0.265
Mof_C 	C 	0.69718	0.13782	0.77052	-0.047
Mof_C 	C 	0.66922	0.14078	0.80288	0.035
Mof_H 	H 	0.6499	0.1633	0.8023	0.015
Mof_N 	N 	0.69605	0.22765	0.67641	-0.15
Mof_C 	C 	0.78501	0.16735	0.64325	0.036
Mof_H 	H 	0.7869	0.1499	0.6661	0.012
Mof_C 	C 	0.54779	0.39607	0.63273	0.039
Mof_H 	H 	0.5472	0.4188	0.6296	0.013
Mof_N 	N 	0.66792	0.1137	0.83498	-0.226
Mof_C 	C 	0.81114	0.18932	0.58208	0.064
Mof_H 	H 	0.832	0.188	0.561	-0.001
Mof_C 	C 	0.72161	0.19535	0.67675	0.134
Mof_C 	C 	0.51634	0.3934	0.63808	-0.051
Mof_N 	N 	0.61819	0.18037	0.85891	-0.258
Mof_N 	N 	0.45465	0.42293	0.63871	-0.151
Mof_N 	N 	0.81495	0.16559	0.61397	-0.225
Mof_C 	C 	0.48285	0.42505	0.63899	0.134
Mof_C 	C 	0.75132	0.19332	0.6421	-0.048
Mof_C 	C 	0.72576	0.10548	0.77134	0.005
Mof_H 	H 	0.7454	0.1026	0.7496	0.038
Mof_C 	C 	0.60476	0.21178	0.85008	0.098
Mof_C 	C 	0.74783	0.21855	0.60827	0.007
Mof_H 	H 	0.7252	0.2368	0.6064	0.038
Mof_C 	C 	0.64667	0.29555	0.67995	0.04
Mof_H 	H 	0.6664	0.2926	0.6582	0.012
Mof_C 	C 	0.77854	0.21596	0.57774	-0.101
Mof_H 	H 	0.7773	0.2321	0.5543	0.066
Mof_C 	C 	0.64409	0.26457	0.71115	-0.049
Mof_C 	C 	0.59589	0.33327	0.71001	0.052
Mof_H 	H 	0.5787	0.3569	0.7095	0.005
Mof_C 	C 	0.67008	0.32226	0.57774	0.105
Mof_C 	C 	0.72574	0.077	0.80418	-0.095
Mof_H 	H 	0.7453	0.0545	0.8055	0.063
Mof_C 	C 	0.59197	0.30459	0.74269	-0.091
Mof_H 	H 	0.5728	0.3086	0.7642	0.064
Mof_C 	C 	0.51687	0.36017	0.64285	0.007
Mof_H 	H 	0.4956	0.3576	0.6464	0.038
Mof_C 	C 	0.57922	0.3362	0.63662	0.056
Mof_H 	H 	0.6012	0.3162	0.6362	0.002
Mof_C 	C 	0.69623	0.08253	0.83495	0.056
Mof_H 	H 	0.6961	0.0631	0.8573	-0
Mof_C 	C 	0.61691	0.26943	0.74331	0.003
Mof_H 	H 	0.6151	0.2495	0.7653	0.04
Mof_C 	C 	0.67129	0.22941	0.70921	0.133
Mof_C 	C 	0.54901	0.33083	0.64221	-0.098
Mof_H 	H 	0.5501	0.3079	0.6455	0.067
Mof_S 	S 	0.92847	0.99475	0.40987	-0.06
Mof_S 	S 	0.78788	0.95312	0.69824	-0.06
Mof_N 	N 	0.82926	0.88178	0.61828	-0.227
Mof_N 	N 	0.86211	0.04873	0.50967	-0.149
Mof_N 	N 	0.84488	0.08472	0.54374	-0.151
Mof_C 	C 	0.85338	0.08044	0.51316	0.134
Mof_N 	N 	0.88093	0.92125	0.57099	-0.226
Mof_N 	N 	0.84163	0.91087	0.65393	-0.265
Mof_C 	C 	0.85552	0.11218	0.47948	-0.047
Mof_C 	C 	0.86288	0.10922	0.44712	0.035
Mof_H 	H 	0.8655	0.0867	0.4477	0.015
Mof_N 	N 	0.85011	0.02235	0.57359	-0.15
Mof_C 	C 	0.84561	0.08265	0.60675	0.036
Mof_H 	H 	0.8529	0.1001	0.5839	0.012
Mof_C 	C 	0.82659	0.85393	0.61727	0.039
Mof_H 	H 	0.8456	0.8312	0.6204	0.013
Mof_N 	N 	0.8666	0.1363	0.41502	-0.226
Mof_C 	C 	0.83254	0.06068	0.66792	0.064
Mof_H 	H 	0.831	0.062	0.689	-0.001
Mof_C 	C 	0.84371	0.05465	0.57325	0.134
Mof_C 	C 	0.79782	0.8566	0.61192	-0.051
Mof_N 	N 	0.90747	0.06963	0.39109	-0.258
Mof_N 	N 	0.76629	0.82707	0.61129	-0.151
Mof_N 	N 	0.84451	0.08441	0.63603	-0.225
Mof_C 	C 	0.79689	0.82495	0.61101	0.134
Mof_C 	C 	0.83674	0.05668	0.6079	-0.048
Mof_C 	C 	0.85258	0.14452	0.47866	0.005
Mof_H 	H 	0.8476	0.1474	0.5004	0.038
Mof_C 	C 	0.91662	0.03822	0.39992	0.097
Mof_C 	C 	0.82465	0.03145	0.64173	0.007
Mof_H 	H 	0.8184	0.0132	0.6436	0.037
Mof_C 	C 	0.87217	0.95445	0.57005	0.04
Mof_H 	H 	0.8672	0.9574	0.5918	0.012
Mof_C 	C 	0.82224	0.03404	0.67226	-0.101
Mof_H 	H 	0.8137	0.0179	0.6957	0.066
Mof_C 	C 	0.86981	0.98543	0.53885	-0.049
Mof_C 	C 	0.88917	0.91673	0.53999	0.052
Mof_H 	H 	0.8951	0.8931	0.5405	0.005
Mof_C 	C 	0.82008	0.92774	0.67226	0.105
Mof_C 	C 	0.85692	0.173	0.44582	-0.095
Mof_H 	H 	0.8553	0.1955	0.4445	0.063
Mof_C 	C 	0.88925	0.94541	0.50731	-0.092
Mof_H 	H 	0.8956	0.9414	0.4858	0.064
Mof_C 	C 	0.76989	0.88983	0.60715	0.007
Mof_H 	H 	0.7496	0.8924	0.6036	0.038
Mof_C 	C 	0.80204	0.9138	0.61338	0.056
Mof_H 	H 	0.8036	0.9338	0.6138	0.002
Mof_C 	C 	0.86371	0.16747	0.41505	0.056
Mof_H 	H 	0.8665	0.1869	0.3927	-0
Mof_C 	C 	0.87965	0.98057	0.50669	0.004
Mof_H 	H 	0.8799	0.0005	0.4847	0.039
Mof_C 	C 	0.85991	0.02059	0.54079	0.132
Mof_C 	C 	0.77205	0.91917	0.60779	-0.098
Mof_H 	H 	0.7535	0.9421	0.6045	0.067
Mof_S 	S 	0.99475	0.92847	0.66691	-0.06
Mof_S 	S 	0.95312	0.78788	0.56076	-0.06
Mof_N 	N 	0.88178	0.82926	0.67068	-0.227
Mof_N 	N 	0.04873	0.86211	0.57949	-0.149
Mof_N 	N 	0.08472	0.84488	0.52666	-0.151
Mof_C 	C 	0.08044	0.85338	0.55302	0.134
Mof_N 	N 	0.92125	0.88093	0.62683	-0.226
Mof_N 	N 	0.91087	0.84163	0.59357	-0.265
Mof_C 	C 	0.11218	0.85552	0.55282	-0.047
Mof_C 	C 	0.10922	0.86288	0.58078	0.035
Mof_H 	H 	0.0867	0.8655	0.6001	0.015
Mof_N 	N 	0.02235	0.85011	0.55395	-0.15
Mof_C 	C 	0.08265	0.84561	0.46499	0.036
Mof_H 	H 	0.1001	0.8529	0.4631	0.012
Mof_C 	C 	0.85393	0.82659	0.70221	0.039
Mof_H 	H 	0.8312	0.8456	0.7028	0.013
Mof_N 	N 	0.1363	0.8666	0.58208	-0.226
Mof_C 	C 	0.06068	0.83254	0.43886	0.064
Mof_H 	H 	0.062	0.831	0.418	-0.001
Mof_C 	C 	0.05465	0.84371	0.52839	0.134
Mof_C 	C 	0.8566	0.79782	0.73366	-0.051
Mof_N 	N 	0.06963	0.90747	0.63181	-0.258
Mof_N 	N 	0.82707	0.76629	0.79535	-0.151
Mof_N 	N 	0.08441	0.84451	0.43505	-0.225
Mof_C 	C 	0.82495	0.79689	0.76715	0.134
Mof_C 	C 	0.05668	0.83674	0.49868	-0.048
Mof_C 	C 	0.14452	0.85258	0.52424	0.005
Mof_H 	H 	0.1474	0.8476	0.5046	0.038
Mof_C 	C 	0.03822	0.91662	0.64524	0.097
Mof_C 	C 	0.03145	0.82465	0.50217	0.007
Mof_H 	H 	0.0132	0.8184	0.5248	0.037
Mof_C 	C 	0.95445	0.87217	0.60333	0.04
Mof_H 	H 	0.9574	0.8672	0.5836	0.012
Mof_C 	C 	0.03404	0.82224	0.47146	-0.101
Mof_H 	H 	0.0179	0.8137	0.4727	0.066
Mof_C 	C 	0.98543	0.86981	0.60591	-0.049
Mof_C 	C 	0.91673	0.88917	0.65411	0.052
Mof_H 	H 	0.8931	0.8951	0.6713	0.005
Mof_C 	C 	0.92774	0.82008	0.57992	0.105
Mof_C 	C 	0.173	0.85692	0.52426	-0.095
Mof_H 	H 	0.1955	0.8553	0.5047	0.063
Mof_C 	C 	0.94541	0.88925	0.65803	-0.092
Mof_H 	H 	0.9414	0.8956	0.6772	0.064
Mof_C 	C 	0.88983	0.76989	0.73313	0.007
Mof_H 	H 	0.8924	0.7496	0.7544	0.038
Mof_C 	C 	0.9138	0.80204	0.67078	0.057
Mof_H 	H 	0.9338	0.8036	0.6488	0.002
Mof_C 	C 	0.16747	0.86371	0.55377	0.056
Mof_H 	H 	0.1869	0.8665	0.5539	-0
Mof_C 	C 	0.98057	0.87965	0.63309	0.004
Mof_H 	H 	0.0005	0.8799	0.6349	0.039
Mof_C 	C 	0.02059	0.85991	0.57871	0.132
Mof_C 	C 	0.91917	0.77205	0.70099	-0.098
Mof_H 	H 	0.9421	0.7535	0.6999	0.067
Mof_S 	S 	0.66691	0.40987	0.99475	-0.061
Mof_S 	S 	0.56076	0.69824	0.95312	-0.06
Mof_N 	N 	0.67068	0.61828	0.88178	-0.227
Mof_N 	N 	0.57949	0.50967	0.04873	-0.149
Mof_N 	N 	0.52666	0.54374	0.08472	-0.151
Mof_C 	C 	0.55302	0.51316	0.08044	0.134
Mof_N 	N 	0.62683	0.57099	0.92125	-0.226
Mof_N 	N 	0.59357	0.65393	0.91087	-0.265
Mof_C 	C 	0.55282	0.47948	0.11218	-0.047
Mof_C 	C 	0.58078	0.44712	0.10922	0.035
Mof_H 	H 	0.6001	0.4477	0.0867	0.015
Mof_N 	N 	0.55395	0.57359	0.02235	-0.15
Mof_C 	C 	0.46499	0.60675	0.08265	0.036
Mof_H 	H 	0.4631	0.5839	0.1001	0.012
Mof_C 	C 	0.70221	0.61727	0.85393	0.039
Mof_H 	H 	0.7028	0.6204	0.8312	0.013
Mof_N 	N 	0.58208	0.41502	0.1363	-0.226
Mof_C 	C 	0.43886	0.66792	0.06068	0.064
Mof_H 	H 	0.418	0.689	0.062	-0.001
Mof_C 	C 	0.52839	0.57325	0.05465	0.134
Mof_C 	C 	0.73366	0.61192	0.8566	-0.051
Mof_N 	N 	0.63181	0.39109	0.06963	-0.258
Mof_N 	N 	0.79535	0.61129	0.82707	-0.151
Mof_N 	N 	0.43505	0.63603	0.08441	-0.225
Mof_C 	C 	0.76715	0.61101	0.82495	0.134
Mof_C 	C 	0.49868	0.6079	0.05668	-0.048
Mof_C 	C 	0.52424	0.47866	0.14452	0.005
Mof_H 	H 	0.5046	0.5004	0.1474	0.038
Mof_C 	C 	0.64524	0.39992	0.03822	0.097
Mof_C 	C 	0.50217	0.64173	0.03145	0.007
Mof_H 	H 	0.5248	0.6436	0.0132	0.037
Mof_C 	C 	0.60333	0.57005	0.95445	0.04
Mof_H 	H 	0.5836	0.5918	0.9574	0.012
Mof_C 	C 	0.47146	0.67226	0.03404	-0.101
Mof_H 	H 	0.4727	0.6957	0.0179	0.066
Mof_C 	C 	0.60591	0.53885	0.98543	-0.049
Mof_C 	C 	0.65411	0.53999	0.91673	0.052
Mof_H 	H 	0.6713	0.5405	0.8931	0.005
Mof_C 	C 	0.57992	0.67226	0.92774	0.105
Mof_C 	C 	0.52426	0.44582	0.173	-0.095
Mof_H 	H 	0.5047	0.4445	0.1955	0.063
Mof_C 	C 	0.65803	0.50731	0.94541	-0.092
Mof_H 	H 	0.6772	0.4858	0.9414	0.064
Mof_C 	C 	0.73313	0.60715	0.88983	0.007
Mof_H 	H 	0.7544	0.6036	0.8924	0.038
Mof_C 	C 	0.67078	0.61338	0.9138	0.056
Mof_H 	H 	0.6488	0.6138	0.9338	0.002
Mof_C 	C 	0.55377	0.41505	0.16747	0.056
Mof_H 	H 	0.5539	0.3927	0.1869	-0
Mof_C 	C 	0.63309	0.50669	0.98057	0.004
Mof_H 	H 	0.6349	0.4847	0.0005	0.039
Mof_C 	C 	0.57871	0.54079	0.02059	0.132
Mof_C 	C 	0.70099	0.60779	0.91917	-0.098
Mof_H 	H 	0.6999	0.6045	0.9421	0.067
Mof_S 	S 	0.40987	0.66691	0.92847	-0.061
Mof_S 	S 	0.69824	0.56076	0.78788	-0.06
Mof_N 	N 	0.61828	0.67068	0.82926	-0.227
Mof_N 	N 	0.50967	0.57949	0.86211	-0.149
Mof_N 	N 	0.54374	0.52666	0.84488	-0.151
Mof_C 	C 	0.51316	0.55302	0.85338	0.134
Mof_N 	N 	0.57099	0.62683	0.88093	-0.226
Mof_N 	N 	0.65393	0.59357	0.84163	-0.265
Mof_C 	C 	0.47948	0.55282	0.85552	-0.047
Mof_C 	C 	0.44712	0.58078	0.86288	0.035
Mof_H 	H 	0.4477	0.6001	0.8655	0.015
Mof_N 	N 	0.57359	0.55395	0.85011	-0.15
Mof_C 	C 	0.60675	0.46499	0.84561	0.036
Mof_H 	H 	0.5839	0.4631	0.8529	0.013
Mof_C 	C 	0.61727	0.70221	0.82659	0.039
Mof_H 	H 	0.6204	0.7028	0.8456	0.013
Mof_N 	N 	0.41502	0.58208	0.8666	-0.226
Mof_C 	C 	0.66792	0.43886	0.83254	0.064
Mof_H 	H 	0.689	0.418	0.831	-0.001
Mof_C 	C 	0.57325	0.52839	0.84371	0.134
Mof_C 	C 	0.61192	0.73366	0.79782	-0.051
Mof_N 	N 	0.39109	0.63181	0.90747	-0.258
Mof_N 	N 	0.61129	0.79535	0.76629	-0.151
Mof_N 	N 	0.63603	0.43505	0.84451	-0.225
Mof_C 	C 	0.61101	0.76715	0.79689	0.134
Mof_C 	C 	0.6079	0.49868	0.83674	-0.048
Mof_C 	C 	0.47866	0.52424	0.85258	0.005
Mof_H 	H 	0.5004	0.5046	0.8476	0.038
Mof_C 	C 	0.39992	0.64524	0.91662	0.098
Mof_C 	C 	0.64173	0.50217	0.82465	0.007
Mof_H 	H 	0.6436	0.5248	0.8184	0.038
Mof_C 	C 	0.57005	0.60333	0.87217	0.04
Mof_H 	H 	0.5918	0.5836	0.8672	0.012
Mof_C 	C 	0.67226	0.47146	0.82224	-0.101
Mof_H 	H 	0.6957	0.4727	0.8137	0.066
Mof_C 	C 	0.53885	0.60591	0.86981	-0.049
Mof_C 	C 	0.53999	0.65411	0.88917	0.052
Mof_H 	H 	0.5405	0.6713	0.8951	0.005
Mof_C 	C 	0.67226	0.57992	0.82008	0.105
Mof_C 	C 	0.44582	0.52426	0.85692	-0.095
Mof_H 	H 	0.4445	0.5047	0.8553	0.063
Mof_C 	C 	0.50731	0.65803	0.88925	-0.091
Mof_H 	H 	0.4858	0.6772	0.8956	0.064
Mof_C 	C 	0.60715	0.73313	0.76989	0.007
Mof_H 	H 	0.6036	0.7544	0.7496	0.038
Mof_C 	C 	0.61338	0.67078	0.80204	0.056
Mof_H 	H 	0.6138	0.6488	0.8036	0.002
Mof_C 	C 	0.41505	0.55377	0.86371	0.056
Mof_H 	H 	0.3927	0.5539	0.8665	-0
Mof_C 	C 	0.50669	0.63309	0.87965	0.003
Mof_H 	H 	0.4847	0.6349	0.8799	0.04
Mof_C 	C 	0.54079	0.57871	0.85991	0.133
Mof_C 	C 	0.60779	0.70099	0.77205	-0.098
Mof_H 	H 	0.6045	0.6999	0.7535	0.067
Mof_S 	S 	0.66691	0.92847	0.40987	-0.061
Mof_S 	S 	0.56076	0.78788	0.69824	-0.06
Mof_N 	N 	0.67068	0.82926	0.61828	-0.227
Mof_N 	N 	0.57949	0.86211	0.50967	-0.149
Mof_N 	N 	0.52666	0.84488	0.54374	-0.151
Mof_C 	C 	0.55302	0.85338	0.51316	0.134
Mof_N 	N 	0.62683	0.88093	0.57099	-0.226
Mof_N 	N 	0.59357	0.84163	0.65393	-0.265
Mof_C 	C 	0.55282	0.85552	0.47948	-0.047
Mof_C 	C 	0.58078	0.86288	0.44712	0.035
Mof_H 	H 	0.6001	0.8655	0.4477	0.015
Mof_N 	N 	0.55395	0.85011	0.57359	-0.15
Mof_C 	C 	0.46499	0.84561	0.60675	0.036
Mof_H 	H 	0.4631	0.8529	0.5839	0.013
Mof_C 	C 	0.70221	0.82659	0.61727	0.039
Mof_H 	H 	0.7028	0.8456	0.6204	0.013
Mof_N 	N 	0.58208	0.8666	0.41502	-0.226
Mof_C 	C 	0.43886	0.83254	0.66792	0.064
Mof_H 	H 	0.418	0.831	0.689	-0.001
Mof_C 	C 	0.52839	0.84371	0.57325	0.134
Mof_C 	C 	0.73366	0.79782	0.61192	-0.051
Mof_N 	N 	0.63181	0.90747	0.39109	-0.258
Mof_N 	N 	0.79535	0.76629	0.61129	-0.151
Mof_N 	N 	0.43505	0.84451	0.63603	-0.225
Mof_C 	C 	0.76715	0.79689	0.61101	0.134
Mof_C 	C 	0.49868	0.83674	0.6079	-0.048
Mof_C 	C 	0.52424	0.85258	0.47866	0.005
Mof_H 	H 	0.5046	0.8476	0.5004	0.038
Mof_C 	C 	0.64524	0.91662	0.39992	0.098
Mof_C 	C 	0.50217	0.82465	0.64173	0.007
Mof_H 	H 	0.5248	0.8184	0.6436	0.038
Mof_C 	C 	0.60333	0.87217	0.57005	0.04
Mof_H 	H 	0.5836	0.8672	0.5918	0.012
Mof_C 	C 	0.47146	0.82224	0.67226	-0.101
Mof_H 	H 	0.4727	0.8137	0.6957	0.066
Mof_C 	C 	0.60591	0.86981	0.53885	-0.049
Mof_C 	C 	0.65411	0.88917	0.53999	0.052
Mof_H 	H 	0.6713	0.8951	0.5405	0.005
Mof_C 	C 	0.57992	0.82008	0.67226	0.105
Mof_C 	C 	0.52426	0.85692	0.44582	-0.095
Mof_H 	H 	0.5047	0.8553	0.4445	0.063
Mof_C 	C 	0.65803	0.88925	0.50731	-0.091
Mof_H 	H 	0.6772	0.8956	0.4858	0.064
Mof_C 	C 	0.73313	0.76989	0.60715	0.007
Mof_H 	H 	0.7544	0.7496	0.6036	0.038
Mof_C 	C 	0.67078	0.80204	0.61338	0.056
Mof_H 	H 	0.6488	0.8036	0.6138	0.002
Mof_C 	C 	0.55377	0.86371	0.41505	0.056
Mof_H 	H 	0.5539	0.8665	0.3927	-0
Mof_C 	C 	0.63309	0.87965	0.50669	0.003
Mof_H 	H 	0.6349	0.8799	0.4847	0.04
Mof_C 	C 	0.57871	0.85991	0.54079	0.133
Mof_C 	C 	0.70099	0.77205	0.60779	-0.098
Mof_H 	H 	0.6999	0.7535	0.6045	0.067
Mof_S 	S 	0.40987	0.99475	0.66691	-0.061
Mof_S 	S 	0.69824	0.95312	0.56076	-0.06
Mof_N 	N 	0.61828	0.88178	0.67068	-0.227
Mof_N 	N 	0.50967	0.04873	0.57949	-0.149
Mof_N 	N 	0.54374	0.08472	0.52666	-0.151
Mof_C 	C 	0.51316	0.08044	0.55302	0.134
Mof_N 	N 	0.57099	0.92125	0.62683	-0.226
Mof_N 	N 	0.65393	0.91087	0.59357	-0.265
Mof_C 	C 	0.47948	0.11218	0.55282	-0.047
Mof_C 	C 	0.44712	0.10922	0.58078	0.035
Mof_H 	H 	0.4477	0.0867	0.6001	0.015
Mof_N 	N 	0.57359	0.02235	0.55395	-0.15
Mof_C 	C 	0.60675	0.08265	0.46499	0.036
Mof_H 	H 	0.5839	0.1001	0.4631	0.012
Mof_C 	C 	0.61727	0.85393	0.70221	0.039
Mof_H 	H 	0.6204	0.8312	0.7028	0.013
Mof_N 	N 	0.41502	0.1363	0.58208	-0.226
Mof_C 	C 	0.66792	0.06068	0.43886	0.064
Mof_H 	H 	0.689	0.062	0.418	-0.001
Mof_C 	C 	0.57325	0.05465	0.52839	0.134
Mof_C 	C 	0.61192	0.8566	0.73366	-0.051
Mof_N 	N 	0.39109	0.06963	0.63181	-0.258
Mof_N 	N 	0.61129	0.82707	0.79535	-0.151
Mof_N 	N 	0.63603	0.08441	0.43505	-0.225
Mof_C 	C 	0.61101	0.82495	0.76715	0.134
Mof_C 	C 	0.6079	0.05668	0.49868	-0.048
Mof_C 	C 	0.47866	0.14452	0.52424	0.005
Mof_H 	H 	0.5004	0.1474	0.5046	0.038
Mof_C 	C 	0.39992	0.03822	0.64524	0.097
Mof_C 	C 	0.64173	0.03145	0.50217	0.007
Mof_H 	H 	0.6436	0.0132	0.5248	0.037
Mof_C 	C 	0.57005	0.95445	0.60333	0.04
Mof_H 	H 	0.5918	0.9574	0.5836	0.012
Mof_C 	C 	0.67226	0.03404	0.47146	-0.101
Mof_H 	H 	0.6957	0.0179	0.4727	0.066
Mof_C 	C 	0.53885	0.98543	0.60591	-0.049
Mof_C 	C 	0.53999	0.91673	0.65411	0.052
Mof_H 	H 	0.5405	0.8931	0.6713	0.005
Mof_C 	C 	0.67226	0.92774	0.57992	0.105
Mof_C 	C 	0.44582	0.173	0.52426	-0.095
Mof_H 	H 	0.4445	0.1955	0.5047	0.063
Mof_C 	C 	0.50731	0.94541	0.65803	-0.092
Mof_H 	H 	0.4858	0.9414	0.6772	0.064
Mof_C 	C 	0.60715	0.88983	0.73313	0.007
Mof_H 	H 	0.6036	0.8924	0.7544	0.038
Mof_C 	C 	0.61338	0.9138	0.67078	0.056
Mof_H 	H 	0.6138	0.9338	0.6488	0.002
Mof_C 	C 	0.41505	0.16747	0.55377	0.056
Mof_H 	H 	0.3927	0.1869	0.5539	-0
Mof_C 	C 	0.50669	0.98057	0.63309	0.004
Mof_H 	H 	0.4847	0.0005	0.6349	0.039
Mof_C 	C 	0.54079	0.02059	0.57871	0.132
Mof_C 	C 	0.60779	0.91917	0.70099	-0.098
Mof_H 	H 	0.6045	0.9421	0.6999	0.067
Mof_S 	S 	0.92847	0.66691	0.99475	-0.06
Mof_S 	S 	0.78788	0.56076	0.95312	-0.06
Mof_N 	N 	0.82926	0.67068	0.88178	-0.227
Mof_N 	N 	0.86211	0.57949	0.04873	-0.149
Mof_N 	N 	0.84488	0.52666	0.08472	-0.151
Mof_C 	C 	0.85338	0.55302	0.08044	0.134
Mof_N 	N 	0.88093	0.62683	0.92125	-0.226
Mof_N 	N 	0.84163	0.59357	0.91087	-0.265
Mof_C 	C 	0.85552	0.55282	0.11218	-0.047
Mof_C 	C 	0.86288	0.58078	0.10922	0.035
Mof_H 	H 	0.8655	0.6001	0.0867	0.015
Mof_N 	N 	0.85011	0.55395	0.02235	-0.15
Mof_C 	C 	0.84561	0.46499	0.08265	0.036
Mof_H 	H 	0.8529	0.4631	0.1001	0.012
Mof_C 	C 	0.82659	0.70221	0.85393	0.039
Mof_H 	H 	0.8456	0.7028	0.8312	0.013
Mof_N 	N 	0.8666	0.58208	0.1363	-0.226
Mof_C 	C 	0.83254	0.43886	0.06068	0.064
Mof_H 	H 	0.831	0.418	0.062	-0.001
Mof_C 	C 	0.84371	0.52839	0.05465	0.134
Mof_C 	C 	0.79782	0.73366	0.8566	-0.051
Mof_N 	N 	0.90747	0.63181	0.06963	-0.258
Mof_N 	N 	0.76629	0.79535	0.82707	-0.151
Mof_N 	N 	0.84451	0.43505	0.08441	-0.225
Mof_C 	C 	0.79689	0.76715	0.82495	0.134
Mof_C 	C 	0.83674	0.49868	0.05668	-0.048
Mof_C 	C 	0.85258	0.52424	0.14452	0.005
Mof_H 	H 	0.8476	0.5046	0.1474	0.038
Mof_C 	C 	0.91662	0.64524	0.03822	0.097
Mof_C 	C 	0.82465	0.50217	0.03145	0.007
Mof_H 	H 	0.8184	0.5248	0.0132	0.037
Mof_C 	C 	0.87217	0.60333	0.95445	0.04
Mof_H 	H 	0.8672	0.5836	0.9574	0.012
Mof_C 	C 	0.82224	0.47146	0.03404	-0.101
Mof_H 	H 	0.8137	0.4727	0.0179	0.066
Mof_C 	C 	0.86981	0.60591	0.98543	-0.049
Mof_C 	C 	0.88917	0.65411	0.91673	0.052
Mof_H 	H 	0.8951	0.6713	0.8931	0.005
Mof_C 	C 	0.82008	0.57992	0.92774	0.105
Mof_C 	C 	0.85692	0.52426	0.173	-0.095
Mof_H 	H 	0.8553	0.5047	0.1955	0.063
Mof_C 	C 	0.88925	0.65803	0.94541	-0.092
Mof_H 	H 	0.8956	0.6772	0.9414	0.064
Mof_C 	C 	0.76989	0.73313	0.88983	0.007
Mof_H 	H 	0.7496	0.7544	0.8924	0.038
Mof_C 	C 	0.80204	0.67078	0.9138	0.057
Mof_H 	H 	0.8036	0.6488	0.9338	0.002
Mof_C 	C 	0.86371	0.55377	0.16747	0.056
Mof_H 	H 	0.8665	0.5539	0.1869	-0
Mof_C 	C 	0.87965	0.63309	0.98057	0.004
Mof_H 	H 	0.8799	0.6349	0.0005	0.039
Mof_C 	C 	0.85991	0.57871	0.02059	0.132
Mof_C 	C 	0.77205	0.70099	0.91917	-0.098
Mof_H 	H 	0.7535	0.6999	0.9421	0.067
Mof_S 	S 	0.99475	0.40987	0.92847	-0.06
Mof_S 	S 	0.95312	0.69824	0.78788	-0.06
Mof_N 	N 	0.88178	0.61828	0.82926	-0.227
Mof_N 	N 	0.04873	0.50967	0.86211	-0.149
Mof_N 	N 	0.08472	0.54374	0.84488	-0.151
Mof_C 	C 	0.08044	0.51316	0.85338	0.134
Mof_N 	N 	0.92125	0.57099	0.88093	-0.226
Mof_N 	N 	0.91087	0.65393	0.84163	-0.265
Mof_C 	C 	0.11218	0.47948	0.85552	-0.047
Mof_C 	C 	0.10922	0.44712	0.86288	0.035
Mof_H 	H 	0.0867	0.4477	0.8655	0.015
Mof_N 	N 	0.02235	0.57359	0.85011	-0.15
Mof_C 	C 	0.08265	0.60675	0.84561	0.036
Mof_H 	H 	0.1001	0.5839	0.8529	0.012
Mof_C 	C 	0.85393	0.61727	0.82659	0.039
Mof_H 	H 	0.8312	0.6204	0.8456	0.013
Mof_N 	N 	0.1363	0.41502	0.8666	-0.226
Mof_C 	C 	0.06068	0.66792	0.83254	0.064
Mof_H 	H 	0.062	0.689	0.831	-0.001
Mof_C 	C 	0.05465	0.57325	0.84371	0.134
Mof_C 	C 	0.8566	0.61192	0.79782	-0.051
Mof_N 	N 	0.06963	0.39109	0.90747	-0.258
Mof_N 	N 	0.82707	0.61129	0.76629	-0.151
Mof_N 	N 	0.08441	0.63603	0.84451	-0.225
Mof_C 	C 	0.82495	0.61101	0.79689	0.134
Mof_C 	C 	0.05668	0.6079	0.83674	-0.048
Mof_C 	C 	0.14452	0.47866	0.85258	0.005
Mof_H 	H 	0.1474	0.5004	0.8476	0.038
Mof_C 	C 	0.03822	0.39992	0.91662	0.097
Mof_C 	C 	0.03145	0.64173	0.82465	0.007
Mof_H 	H 	0.0132	0.6436	0.8184	0.037
Mof_C 	C 	0.95445	0.57005	0.87217	0.04
Mof_H 	H 	0.9574	0.5918	0.8672	0.012
Mof_C 	C 	0.03404	0.67226	0.82224	-0.101
Mof_H 	H 	0.0179	0.6957	0.8137	0.066
Mof_C 	C 	0.98543	0.53885	0.86981	-0.049
Mof_C 	C 	0.91673	0.53999	0.88917	0.052
Mof_H 	H 	0.8931	0.5405	0.8951	0.005
Mof_C 	C 	0.92774	0.67226	0.82008	0.105
Mof_C 	C 	0.173	0.44582	0.85692	-0.095
Mof_H 	H 	0.1955	0.4445	0.8553	0.063
Mof_C 	C 	0.94541	0.50731	0.88925	-0.092
Mof_H 	H 	0.9414	0.4858	0.8956	0.064
Mof_C 	C 	0.88983	0.60715	0.76989	0.007
Mof_H 	H 	0.8924	0.6036	0.7496	0.038
Mof_C 	C 	0.9138	0.61338	0.80204	0.056
Mof_H 	H 	0.9338	0.6138	0.8036	0.002
Mof_C 	C 	0.16747	0.41505	0.86371	0.056
Mof_H 	H 	0.1869	0.3927	0.8665	-0
Mof_C 	C 	0.98057	0.50669	0.87965	0.004
Mof_H 	H 	0.0005	0.4847	0.8799	0.039
Mof_C 	C 	0.02059	0.54079	0.85991	0.132
Mof_C 	C 	0.91917	0.60779	0.77205	-0.098
Mof_H 	H 	0.9421	0.6045	0.7535	0.067
Mof_S 	S 	0.99475	0.66691	0.40987	-0.061
Mof_S 	S 	0.95312	0.56076	0.69824	-0.06
Mof_N 	N 	0.88178	0.67068	0.61828	-0.227
Mof_N 	N 	0.04873	0.57949	0.50967	-0.149
Mof_N 	N 	0.08472	0.52666	0.54374	-0.151
Mof_C 	C 	0.08044	0.55302	0.51316	0.134
Mof_N 	N 	0.92125	0.62683	0.57099	-0.226
Mof_N 	N 	0.91087	0.59357	0.65393	-0.265
Mof_C 	C 	0.11218	0.55282	0.47948	-0.047
Mof_C 	C 	0.10922	0.58078	0.44712	0.035
Mof_H 	H 	0.0867	0.6001	0.4477	0.015
Mof_N 	N 	0.02235	0.55395	0.57359	-0.15
Mof_C 	C 	0.08265	0.46499	0.60675	0.036
Mof_H 	H 	0.1001	0.4631	0.5839	0.012
Mof_C 	C 	0.85393	0.70221	0.61727	0.039
Mof_H 	H 	0.8312	0.7028	0.6204	0.013
Mof_N 	N 	0.1363	0.58208	0.41502	-0.226
Mof_C 	C 	0.06068	0.43886	0.66792	0.064
Mof_H 	H 	0.062	0.418	0.689	-0.001
Mof_C 	C 	0.05465	0.52839	0.57325	0.134
Mof_C 	C 	0.8566	0.73366	0.61192	-0.051
Mof_N 	N 	0.06963	0.63181	0.39109	-0.258
Mof_N 	N 	0.82707	0.79535	0.61129	-0.151
Mof_N 	N 	0.08441	0.43505	0.63603	-0.225
Mof_C 	C 	0.82495	0.76715	0.61101	0.134
Mof_C 	C 	0.05668	0.49868	0.6079	-0.048
Mof_C 	C 	0.14452	0.52424	0.47866	0.005
Mof_H 	H 	0.1474	0.5046	0.5004	0.038
Mof_C 	C 	0.03822	0.64524	0.39992	0.097
Mof_C 	C 	0.03145	0.50217	0.64173	0.007
Mof_H 	H 	0.0132	0.5248	0.6436	0.037
Mof_C 	C 	0.95445	0.60333	0.57005	0.04
Mof_H 	H 	0.9574	0.5836	0.5918	0.012
Mof_C 	C 	0.03404	0.47146	0.67226	-0.101
Mof_H 	H 	0.0179	0.4727	0.6957	0.066
Mof_C 	C 	0.98543	0.60591	0.53885	-0.049
Mof_C 	C 	0.91673	0.65411	0.53999	0.052
Mof_H 	H 	0.8931	0.6713	0.5405	0.005
Mof_C 	C 	0.92774	0.57992	0.67226	0.105
Mof_C 	C 	0.173	0.52426	0.44582	-0.095
Mof_H 	H 	0.1955	0.5047	0.4445	0.063
Mof_C 	C 	0.94541	0.65803	0.50731	-0.092
Mof_H 	H 	0.9414	0.6772	0.4858	0.064
Mof_C 	C 	0.88983	0.73313	0.60715	0.007
Mof_H 	H 	0.8924	0.7544	0.6036	0.038
Mof_C 	C 	0.9138	0.67078	0.61338	0.056
Mof_H 	H 	0.9338	0.6488	0.6138	0.002
Mof_C 	C 	0.16747	0.55377	0.41505	0.056
Mof_H 	H 	0.1869	0.5539	0.3927	-0
Mof_C 	C 	0.98057	0.63309	0.50669	0.004
Mof_H 	H 	0.0005	0.6349	0.4847	0.039
Mof_C 	C 	0.02059	0.57871	0.54079	0.132
Mof_C 	C 	0.91917	0.70099	0.60779	-0.098
Mof_H 	H 	0.9421	0.6999	0.6045	0.067
Mof_S 	S 	0.92847	0.40987	0.66691	-0.061
Mof_S 	S 	0.78788	0.69824	0.56076	-0.06
Mof_N 	N 	0.82926	0.61828	0.67068	-0.227
Mof_N 	N 	0.86211	0.50967	0.57949	-0.149
Mof_N 	N 	0.84488	0.54374	0.52666	-0.151
Mof_C 	C 	0.85338	0.51316	0.55302	0.134
Mof_N 	N 	0.88093	0.57099	0.62683	-0.226
Mof_N 	N 	0.84163	0.65393	0.59357	-0.265
Mof_C 	C 	0.85552	0.47948	0.55282	-0.047
Mof_C 	C 	0.86288	0.44712	0.58078	0.035
Mof_H 	H 	0.8655	0.4477	0.6001	0.015
Mof_N 	N 	0.85011	0.57359	0.55395	-0.15
Mof_C 	C 	0.84561	0.60675	0.46499	0.036
Mof_H 	H 	0.8529	0.5839	0.4631	0.013
Mof_C 	C 	0.82659	0.61727	0.70221	0.039
Mof_H 	H 	0.8456	0.6204	0.7028	0.013
Mof_N 	N 	0.8666	0.41502	0.58208	-0.226
Mof_C 	C 	0.83254	0.66792	0.43886	0.064
Mof_H 	H 	0.831	0.689	0.418	-0.001
Mof_C 	C 	0.84371	0.57325	0.52839	0.134
Mof_C 	C 	0.79782	0.61192	0.73366	-0.051
Mof_N 	N 	0.90747	0.39109	0.63181	-0.258
Mof_N 	N 	0.76629	0.61129	0.79535	-0.151
Mof_N 	N 	0.84451	0.63603	0.43505	-0.225
Mof_C 	C 	0.79689	0.61101	0.76715	0.134
Mof_C 	C 	0.83674	0.6079	0.49868	-0.048
Mof_C 	C 	0.85258	0.47866	0.52424	0.005
Mof_H 	H 	0.8476	0.5004	0.5046	0.038
Mof_C 	C 	0.91662	0.39992	0.64524	0.098
Mof_C 	C 	0.82465	0.64173	0.50217	0.007
Mof_H 	H 	0.8184	0.6436	0.5248	0.038
Mof_C 	C 	0.87217	0.57005	0.60333	0.04
Mof_H 	H 	0.8672	0.5918	0.5836	0.012
Mof_C 	C 	0.82224	0.67226	0.47146	-0.101
Mof_H 	H 	0.8137	0.6957	0.4727	0.066
Mof_C 	C 	0.86981	0.53885	0.60591	-0.049
Mof_C 	C 	0.88917	0.53999	0.65411	0.052
Mof_H 	H 	0.8951	0.5405	0.6713	0.005
Mof_C 	C 	0.82008	0.67226	0.57992	0.105
Mof_C 	C 	0.85692	0.44582	0.52426	-0.095
Mof_H 	H 	0.8553	0.4445	0.5047	0.063
Mof_C 	C 	0.88925	0.50731	0.65803	-0.091
Mof_H 	H 	0.8956	0.4858	0.6772	0.064
Mof_C 	C 	0.76989	0.60715	0.73313	0.007
Mof_H 	H 	0.7496	0.6036	0.7544	0.038
Mof_C 	C 	0.80204	0.61338	0.67078	0.056
Mof_H 	H 	0.8036	0.6138	0.6488	0.002
Mof_C 	C 	0.86371	0.41505	0.55377	0.056
Mof_H 	H 	0.8665	0.3927	0.5539	-0
Mof_C 	C 	0.87965	0.50669	0.63309	0.003
Mof_H 	H 	0.8799	0.4847	0.6349	0.04
Mof_C 	C 	0.85991	0.54079	0.57871	0.133
Mof_C 	C 	0.77205	0.60779	0.70099	-0.098
Mof_H 	H 	0.7535	0.6045	0.6999	0.067
Mof_S 	S 	0.40987	0.92847	0.99475	-0.06
Mof_S 	S 	0.69824	0.78788	0.95312	-0.06
Mof_N 	N 	0.61828	0.82926	0.88178	-0.227
Mof_N 	N 	0.50967	0.86211	0.04873	-0.149
Mof_N 	N 	0.54374	0.84488	0.08472	-0.151
Mof_C 	C 	0.51316	0.85338	0.08044	0.134
Mof_N 	N 	0.57099	0.88093	0.92125	-0.226
Mof_N 	N 	0.65393	0.84163	0.91087	-0.265
Mof_C 	C 	0.47948	0.85552	0.11218	-0.047
Mof_C 	C 	0.44712	0.86288	0.10922	0.035
Mof_H 	H 	0.4477	0.8655	0.0867	0.015
Mof_N 	N 	0.57359	0.85011	0.02235	-0.15
Mof_C 	C 	0.60675	0.84561	0.08265	0.036
Mof_H 	H 	0.5839	0.8529	0.1001	0.012
Mof_C 	C 	0.61727	0.82659	0.85393	0.039
Mof_H 	H 	0.6204	0.8456	0.8312	0.013
Mof_N 	N 	0.41502	0.8666	0.1363	-0.226
Mof_C 	C 	0.66792	0.83254	0.06068	0.064
Mof_H 	H 	0.689	0.831	0.062	-0.001
Mof_C 	C 	0.57325	0.84371	0.05465	0.134
Mof_C 	C 	0.61192	0.79782	0.8566	-0.051
Mof_N 	N 	0.39109	0.90747	0.06963	-0.258
Mof_N 	N 	0.61129	0.76629	0.82707	-0.151
Mof_N 	N 	0.63603	0.84451	0.08441	-0.225
Mof_C 	C 	0.61101	0.79689	0.82495	0.134
Mof_C 	C 	0.6079	0.83674	0.05668	-0.048
Mof_C 	C 	0.47866	0.85258	0.14452	0.005
Mof_H 	H 	0.5004	0.8476	0.1474	0.038
Mof_C 	C 	0.39992	0.91662	0.03822	0.097
Mof_C 	C 	0.64173	0.82465	0.03145	0.007
Mof_H 	H 	0.6436	0.8184	0.0132	0.037
Mof_C 	C 	0.57005	0.87217	0.95445	0.04
Mof_H 	H 	0.5918	0.8672	0.9574	0.012
Mof_C 	C 	0.67226	0.82224	0.03404	-0.101
Mof_H 	H 	0.6957	0.8137	0.0179	0.066
Mof_C 	C 	0.53885	0.86981	0.98543	-0.049
Mof_C 	C 	0.53999	0.88917	0.91673	0.052
Mof_H 	H 	0.5405	0.8951	0.8931	0.005
Mof_C 	C 	0.67226	0.82008	0.92774	0.105
Mof_C 	C 	0.44582	0.85692	0.173	-0.095
Mof_H 	H 	0.4445	0.8553	0.1955	0.063
Mof_C 	C 	0.50731	0.88925	0.94541	-0.092
Mof_H 	H 	0.4858	0.8956	0.9414	0.064
Mof_C 	C 	0.60715	0.76989	0.88983	0.007
Mof_H 	H 	0.6036	0.7496	0.8924	0.038
Mof_C 	C 	0.61338	0.80204	0.9138	0.056
Mof_H 	H 	0.6138	0.8036	0.9338	0.002
Mof_C 	C 	0.41505	0.86371	0.16747	0.056
Mof_H 	H 	0.3927	0.8665	0.1869	-0
Mof_C 	C 	0.50669	0.87965	0.98057	0.004
Mof_H 	H 	0.4847	0.8799	0.0005	0.039
Mof_C 	C 	0.54079	0.85991	0.02059	0.132
Mof_C 	C 	0.60779	0.77205	0.91917	-0.098
Mof_H 	H 	0.6045	0.7535	0.9421	0.067
Mof_S 	S 	0.66691	0.99475	0.92847	-0.06
Mof_S 	S 	0.56076	0.95312	0.78788	-0.06
Mof_N 	N 	0.67068	0.88178	0.82926	-0.227
Mof_N 	N 	0.57949	0.04873	0.86211	-0.149
Mof_N 	N 	0.52666	0.08472	0.84488	-0.151
Mof_C 	C 	0.55302	0.08044	0.85338	0.134
Mof_N 	N 	0.62683	0.92125	0.88093	-0.226
Mof_N 	N 	0.59357	0.91087	0.84163	-0.265
Mof_C 	C 	0.55282	0.11218	0.85552	-0.047
Mof_C 	C 	0.58078	0.10922	0.86288	0.035
Mof_H 	H 	0.6001	0.0867	0.8655	0.015
Mof_N 	N 	0.55395	0.02235	0.85011	-0.15
Mof_C 	C 	0.46499	0.08265	0.84561	0.036
Mof_H 	H 	0.4631	0.1001	0.8529	0.012
Mof_C 	C 	0.70221	0.85393	0.82659	0.039
Mof_H 	H 	0.7028	0.8312	0.8456	0.013
Mof_N 	N 	0.58208	0.1363	0.8666	-0.226
Mof_C 	C 	0.43886	0.06068	0.83254	0.064
Mof_H 	H 	0.418	0.062	0.831	-0.001
Mof_C 	C 	0.52839	0.05465	0.84371	0.134
Mof_C 	C 	0.73366	0.8566	0.79782	-0.051
Mof_N 	N 	0.63181	0.06963	0.90747	-0.258
Mof_N 	N 	0.79535	0.82707	0.76629	-0.151
Mof_N 	N 	0.43505	0.08441	0.84451	-0.225
Mof_C 	C 	0.76715	0.82495	0.79689	0.134
Mof_C 	C 	0.49868	0.05668	0.83674	-0.048
Mof_C 	C 	0.52424	0.14452	0.85258	0.005
Mof_H 	H 	0.5046	0.1474	0.8476	0.038
Mof_C 	C 	0.64524	0.03822	0.91662	0.097
Mof_C 	C 	0.50217	0.03145	0.82465	0.007
Mof_H 	H 	0.5248	0.0132	0.8184	0.037
Mof_C 	C 	0.60333	0.95445	0.87217	0.04
Mof_H 	H 	0.5836	0.9574	0.8672	0.012
Mof_C 	C 	0.47146	0.03404	0.82224	-0.101
Mof_H 	H 	0.4727	0.0179	0.8137	0.066
Mof_C 	C 	0.60591	0.98543	0.86981	-0.049
Mof_C 	C 	0.65411	0.91673	0.88917	0.052
Mof_H 	H 	0.6713	0.8931	0.8951	0.005
Mof_C 	C 	0.57992	0.92774	0.82008	0.105
Mof_C 	C 	0.52426	0.173	0.85692	-0.095
Mof_H 	H 	0.5047	0.1955	0.8553	0.063
Mof_C 	C 	0.65803	0.94541	0.88925	-0.092
Mof_H 	H 	0.6772	0.9414	0.8956	0.064
Mof_C 	C 	0.73313	0.88983	0.76989	0.007
Mof_H 	H 	0.7544	0.8924	0.7496	0.038
Mof_C 	C 	0.67078	0.9138	0.80204	0.057
Mof_H 	H 	0.6488	0.9338	0.8036	0.002
Mof_C 	C 	0.55377	0.16747	0.86371	0.056
Mof_H 	H 	0.5539	0.1869	0.8665	-0
Mof_C 	C 	0.63309	0.98057	0.87965	0.004
Mof_H 	H 	0.6349	0.0005	0.8799	0.039
Mof_C 	C 	0.57871	0.02059	0.85991	0.132
Mof_C 	C 	0.70099	0.91917	0.77205	-0.098
Mof_H 	H 	0.6999	0.9421	0.7535	0.067
Mof_Co	Co	0.38416	0.625	0.125	1.119
Mof_Co	Co	0.625	0.38416	0.86584	1.119
Mof_Co	Co	0.125	0.86584	0.38416	1.119
Mof_Co	Co	0.86584	0.125	0.625	1.119
Mof_Co	Co	0.125	0.38416	0.625	1.119
Mof_Co	Co	0.86584	0.625	0.38416	1.119
Mof_Co	Co	0.38416	0.125	0.86584	1.119
Mof_Co	Co	0.625	0.86584	0.125	1.119
Mof_Co	Co	0.625	0.125	0.38416	1.119
Mof_Co	Co	0.38416	0.86584	0.625	1.119
Mof_Co	Co	0.86584	0.38416	0.125	1.119
Mof_Co	Co	0.125	0.625	0.86584	1.119
Mof_Co	Co	0.36584	0.125	0.625	1.119
Mof_Co	Co	0.125	0.36584	0.88416	1.119
Mof_Co	Co	0.625	0.88416	0.36584	1.119
Mof_Co	Co	0.88416	0.625	0.125	1.119
Mof_Co	Co	0.625	0.36584	0.125	1.119
Mof_Co	Co	0.88416	0.125	0.36584	1.119
Mof_Co	Co	0.36584	0.625	0.88416	1.119
Mof_Co	Co	0.125	0.88416	0.625	1.119
Mof_Co	Co	0.125	0.625	0.36584	1.119
Mof_Co	Co	0.36584	0.88416	0.125	1.119
Mof_Co	Co	0.88416	0.36584	0.625	1.119
Mof_Co	Co	0.625	0.125	0.88416	1.119
Mof_Co	Co	0.37733	0.37733	0.12267	1.124
Mof_Co	Co	0.12267	0.12267	0.37733	1.124
Mof_Co	Co	0.12267	0.37733	0.37733	1.124
Mof_Co	Co	0.37733	0.12267	0.12267	1.124
Mof_Co	Co	0.37733	0.12267	0.37733	1.124
Mof_Co	Co	0.12267	0.37733	0.12267	1.124
Mof_Co	Co	0.87267	0.87267	0.12733	1.124
Mof_Co	Co	0.12733	0.12733	0.87267	1.124
Mof_Co	Co	0.12733	0.87267	0.12733	1.124
Mof_Co	Co	0.87267	0.12733	0.87267	1.124
Mof_Co	Co	0.87267	0.12733	0.12733	1.124
Mof_Co	Co	0.12733	0.87267	0.87267	1.124
Mof_Co	Co	0.37267	0.37267	0.62733	1.124
Mof_Co	Co	0.62733	0.62733	0.37267	1.124
Mof_Co	Co	0.62733	0.37267	0.37267	1.124
Mof_Co	Co	0.37267	0.62733	0.62733	1.124
Mof_Co	Co	0.37267	0.62733	0.37267	1.124
Mof_Co	Co	0.62733	0.37267	0.62733	1.124
Mof_Co	Co	0.87733	0.87733	0.62267	1.124
Mof_Co	Co	0.62267	0.62267	0.87733	1.124
Mof_Co	Co	0.62267	0.87733	0.62267	1.124
Mof_Co	Co	0.87733	0.62267	0.87733	1.124
Mof_Co	Co	0.87733	0.62267	0.62267	1.124
Mof_Co	Co	0.62267	0.87733	0.87733	1.124
_end
