# CIF file generated by openbabel 3.1.0, see https://openbabel.org
data_I
_chemical_name_common 'image0'
_cell_length_a 13.9921
_cell_length_b 13.9921
_cell_length_c 25.705
_cell_angle_alpha 90
_cell_angle_beta 90
_cell_angle_gamma 120
_space_group_name_H-M_alt 'P 1'
_space_group_name_Hall 'P 1'
loop_
    _symmetry_equiv_pos_as_xyz
    x,y,z
loop_
    _atom_site_label
    _atom_site_type_symbol
    _atom_site_fract_x
    _atom_site_fract_y
    _atom_site_fract_z
    _atom_site_occupancy
    O1       O        0.15000    0.12010    0.44972    1.000
    C1       C        0.24930    0.18160    0.43700    1.000
    C2       C        0.32550    0.27330    0.47190    1.000
    H1       H        0.38350    0.33040    0.45160    1.000
    H2       H        0.35680    0.24580    0.49700    1.000
    H3       H        0.28540    0.30250    0.48960    1.000
    N1       N        0.28800    0.16830    0.39340    1.000
    H4       H        0.35950    0.21000    0.38450    1.000
    C3       C        0.22280    0.07960    0.35630    1.000
    H5       H        0.24980    0.10500    0.32140    1.000
    H6       H        0.14640    0.06190    0.35780    1.000
    C4       C        0.22910    0.97630    0.36770    1.000
    H7       H        0.30590    0.99500    0.36830    1.000
    H8       H        0.19810    0.94850    0.40180    1.000
    C5       C        0.16800    0.88730    0.32790    1.000
    H9       H        0.20200    0.91450    0.29420    1.000
    H10      H        0.09270    0.87280    0.32580    1.000
    O2       O        0.81667    0.45343    0.78305    1.000
    C6       C        0.91597    0.51493    0.77033    1.000
    C7       C        0.99217    0.60663    0.80523    1.000
    H11      H        0.05017    0.66373    0.78493    1.000
    H12      H        0.02347    0.57913    0.83033    1.000
    H13      H        0.95207    0.63583    0.82293    1.000
    N2       N        0.95467    0.50163    0.72673    1.000
    H14      H        0.02617    0.54333    0.71783    1.000
    C8       C        0.88947    0.41293    0.68963    1.000
    H15      H        0.91647    0.43833    0.65473    1.000
    H16      H        0.81307    0.39523    0.69113    1.000
    C9       C        0.89577    0.30963    0.70103    1.000
    H17      H        0.97257    0.32833    0.70163    1.000
    H18      H        0.86477    0.28183    0.73513    1.000
    C10      C        0.83467    0.22063    0.66123    1.000
    H19      H        0.86867    0.24783    0.62753    1.000
    H20      H        0.75937    0.20613    0.65913    1.000
    O3       O        0.48333    0.78677    0.11639    1.000
    C11      C        0.58263    0.84827    0.10367    1.000
    C12      C        0.65883    0.93997    0.13857    1.000
    H21      H        0.71683    0.99707    0.11827    1.000
    H22      H        0.69013    0.91247    0.16367    1.000
    H23      H        0.61873    0.96917    0.15627    1.000
    N3       N        0.62133    0.83497    0.06007    1.000
    H24      H        0.69283    0.87667    0.05117    1.000
    C13      C        0.55613    0.74627    0.02297    1.000
    H25      H        0.58313    0.77167    0.98807    1.000
    H26      H        0.47973    0.72857    0.02447    1.000
    C14      C        0.56243    0.64297    0.03437    1.000
    H27      H        0.63923    0.66167    0.03497    1.000
    H28      H        0.53143    0.61517    0.06847    1.000
    C15      C        0.50133    0.55397    0.99457    1.000
    H29      H        0.53533    0.58117    0.96087    1.000
    H30      H        0.42603    0.53947    0.99247    1.000
    O4       O        0.87990    0.02990    0.44972    1.000
    C16      C        0.81840    0.06770    0.43700    1.000
    C17      C        0.72670    0.05220    0.47190    1.000
    H31      H        0.66960    0.05310    0.45160    1.000
    H32      H        0.75420    0.11100    0.49700    1.000
    H33      H        0.69750    0.98290    0.48960    1.000
    N4       N        0.83170    0.11970    0.39340    1.000
    H34      H        0.79000    0.14950    0.38450    1.000
    C18      C        0.92040    0.14320    0.35630    1.000
    H35      H        0.89500    0.14480    0.32140    1.000
    H36      H        0.93810    0.08450    0.35780    1.000
    C19      C        0.02370    0.25280    0.36770    1.000
    H37      H        0.00500    0.31090    0.36830    1.000
    H38      H        0.05150    0.24960    0.40180    1.000
    C20      C        0.11270    0.28070    0.32790    1.000
    H39      H        0.08550    0.28750    0.29420    1.000
    H40      H        0.12720    0.21990    0.32580    1.000
    O5       O        0.54657    0.36323    0.78305    1.000
    C21      C        0.48507    0.40103    0.77033    1.000
    C22      C        0.39337    0.38553    0.80523    1.000
    H41      H        0.33627    0.38643    0.78493    1.000
    H42      H        0.42087    0.44433    0.83033    1.000
    H43      H        0.36417    0.31623    0.82293    1.000
    N5       N        0.49837    0.45303    0.72673    1.000
    H44      H        0.45667    0.48283    0.71783    1.000
    C23      C        0.58707    0.47653    0.68963    1.000
    H45      H        0.56167    0.47813    0.65473    1.000
    H46      H        0.60477    0.41783    0.69113    1.000
    C24      C        0.69037    0.58613    0.70103    1.000
    H47      H        0.67167    0.64423    0.70163    1.000
    H48      H        0.71817    0.58293    0.73513    1.000
    C25      C        0.77937    0.61403    0.66123    1.000
    H49      H        0.75217    0.62083    0.62753    1.000
    H50      H        0.79387    0.55323    0.65913    1.000
    O6       O        0.21323    0.69657    0.11639    1.000
    C26      C        0.15173    0.73437    0.10367    1.000
    C27      C        0.06003    0.71887    0.13857    1.000
    H51      H        0.00293    0.71977    0.11827    1.000
    H52      H        0.08753    0.77767    0.16367    1.000
    H53      H        0.03083    0.64957    0.15627    1.000
    N6       N        0.16503    0.78637    0.06007    1.000
    H54      H        0.12333    0.81617    0.05117    1.000
    C28      C        0.25373    0.80987    0.02297    1.000
    H55      H        0.22833    0.81147    0.98807    1.000
    H56      H        0.27143    0.75117    0.02447    1.000
    C29      C        0.35703    0.91947    0.03437    1.000
    H57      H        0.33833    0.97757    0.03497    1.000
    H58      H        0.38483    0.91627    0.06847    1.000
    C30      C        0.44603    0.94737    0.99457    1.000
    H59      H        0.41883    0.95417    0.96087    1.000
    H60      H        0.46053    0.88657    0.99247    1.000
    O7       O        0.97010    0.85000    0.44972    1.000
    C31      C        0.93230    0.75070    0.43700    1.000
    C32      C        0.94780    0.67450    0.47190    1.000
    H61      H        0.94690    0.61650    0.45160    1.000
    H62      H        0.88900    0.64320    0.49700    1.000
    H63      H        0.01710    0.71460    0.48960    1.000
    N7       N        0.88030    0.71200    0.39340    1.000
    H64      H        0.85050    0.64050    0.38450    1.000
    C33      C        0.85680    0.77720    0.35630    1.000
    H65      H        0.85520    0.75020    0.32140    1.000
    H66      H        0.91550    0.85360    0.35780    1.000
    C34      C        0.74720    0.77090    0.36770    1.000
    H67      H        0.68910    0.69410    0.36830    1.000
    H68      H        0.75040    0.80190    0.40180    1.000
    C35      C        0.71930    0.83200    0.32790    1.000
    H69      H        0.71250    0.79800    0.29420    1.000
    H70      H        0.78010    0.90730    0.32580    1.000
    O8       O        0.63677    0.18333    0.78305    1.000
    C36      C        0.59897    0.08403    0.77033    1.000
    C37      C        0.61447    0.00783    0.80523    1.000
    H71      H        0.61357    0.94983    0.78493    1.000
    H72      H        0.55567    0.97653    0.83033    1.000
    H73      H        0.68377    0.04793    0.82293    1.000
    N8       N        0.54697    0.04533    0.72673    1.000
    H74      H        0.51717    0.97383    0.71783    1.000
    C38      C        0.52347    0.11053    0.68963    1.000
    H75      H        0.52187    0.08353    0.65473    1.000
    H76      H        0.58217    0.18693    0.69113    1.000
    C39      C        0.41387    0.10423    0.70103    1.000
    H77      H        0.35577    0.02743    0.70163    1.000
    H78      H        0.41707    0.13523    0.73513    1.000
    C40      C        0.38597    0.16533    0.66123    1.000
    H79      H        0.37917    0.13133    0.62753    1.000
    H80      H        0.44677    0.24063    0.65913    1.000
    O9       O        0.30343    0.51667    0.11639    1.000
    C41      C        0.26563    0.41737    0.10367    1.000
    C42      C        0.28113    0.34117    0.13857    1.000
    H81      H        0.28023    0.28317    0.11827    1.000
    H82      H        0.22233    0.30987    0.16367    1.000
    H83      H        0.35043    0.38127    0.15627    1.000
    N9       N        0.21363    0.37867    0.06007    1.000
    H84      H        0.18383    0.30717    0.05117    1.000
    C43      C        0.19013    0.44387    0.02297    1.000
    H85      H        0.18853    0.41687    0.98807    1.000
    H86      H        0.24883    0.52027    0.02447    1.000
    C44      C        0.08053    0.43757    0.03437    1.000
    H87      H        0.02243    0.36077    0.03497    1.000
    H88      H        0.08373    0.46857    0.06847    1.000
    C45      C        0.05263    0.49867    0.99457    1.000
    H89      H        0.04583    0.46467    0.96087    1.000
    H90      H        0.11343    0.57397    0.99247    1.000
    O10      O        0.85000    0.87990    0.55028    1.000
    C46      C        0.75070    0.81840    0.56300    1.000
    C47      C        0.67450    0.72670    0.52810    1.000
    H91      H        0.61650    0.66960    0.54840    1.000
    H92      H        0.64320    0.75420    0.50300    1.000
    H93      H        0.71460    0.69750    0.51040    1.000
    N10      N        0.71200    0.83170    0.60660    1.000
    H94      H        0.64050    0.79000    0.61550    1.000
    C48      C        0.77720    0.92040    0.64370    1.000
    H95      H        0.75020    0.89500    0.67860    1.000
    H96      H        0.85360    0.93810    0.64220    1.000
    C49      C        0.77090    0.02370    0.63230    1.000
    H97      H        0.69410    0.00500    0.63170    1.000
    H98      H        0.80190    0.05150    0.59820    1.000
    C50      C        0.83200    0.11270    0.67210    1.000
    H99      H        0.79800    0.08550    0.70580    1.000
    H100     H        0.90730    0.12720    0.67420    1.000
    O11      O        0.51667    0.21323    0.88361    1.000
    C51      C        0.41737    0.15173    0.89633    1.000
    C52      C        0.34117    0.06003    0.86143    1.000
    H101     H        0.28317    0.00293    0.88173    1.000
    H102     H        0.30987    0.08753    0.83633    1.000
    H103     H        0.38127    0.03083    0.84373    1.000
    N11      N        0.37867    0.16503    0.93993    1.000
    H104     H        0.30717    0.12333    0.94883    1.000
    C53      C        0.44387    0.25373    0.97703    1.000
    H105     H        0.41687    0.22833    0.01193    1.000
    H106     H        0.52027    0.27143    0.97553    1.000
    C54      C        0.43757    0.35703    0.96563    1.000
    H107     H        0.36077    0.33833    0.96503    1.000
    H108     H        0.46857    0.38483    0.93153    1.000
    C55      C        0.49867    0.44603    0.00543    1.000
    H109     H        0.46467    0.41883    0.03913    1.000
    H110     H        0.57397    0.46053    0.00753    1.000
    O12      O        0.18333    0.54657    0.21695    1.000
    C56      C        0.08403    0.48507    0.22967    1.000
    C57      C        0.00783    0.39337    0.19477    1.000
    H111     H        0.94983    0.33627    0.21507    1.000
    H112     H        0.97653    0.42087    0.16967    1.000
    H113     H        0.04793    0.36417    0.17707    1.000
    N12      N        0.04533    0.49837    0.27327    1.000
    H114     H        0.97383    0.45667    0.28217    1.000
    C58      C        0.11053    0.58707    0.31037    1.000
    H115     H        0.08353    0.56167    0.34527    1.000
    H116     H        0.18693    0.60477    0.30887    1.000
    C59      C        0.10423    0.69037    0.29897    1.000
    H117     H        0.02743    0.67167    0.29837    1.000
    H118     H        0.13523    0.71817    0.26487    1.000
    C60      C        0.16533    0.77937    0.33877    1.000
    H119     H        0.13133    0.75217    0.37247    1.000
    H120     H        0.24063    0.79387    0.34087    1.000
    O13      O        0.12010    0.97010    0.55028    1.000
    C61      C        0.18160    0.93230    0.56300    1.000
    C62      C        0.27330    0.94780    0.52810    1.000
    H121     H        0.33040    0.94690    0.54840    1.000
    H122     H        0.24580    0.88900    0.50300    1.000
    H123     H        0.30250    0.01710    0.51040    1.000
    N13      N        0.16830    0.88030    0.60660    1.000
    H124     H        0.21000    0.85050    0.61550    1.000
    C63      C        0.07960    0.85680    0.64370    1.000
    H125     H        0.10500    0.85520    0.67860    1.000
    H126     H        0.06190    0.91550    0.64220    1.000
    C64      C        0.97630    0.74720    0.63230    1.000
    H127     H        0.99500    0.68910    0.63170    1.000
    H128     H        0.94850    0.75040    0.59820    1.000
    C65      C        0.88730    0.71930    0.67210    1.000
    H129     H        0.91450    0.71250    0.70580    1.000
    H130     H        0.87280    0.78010    0.67420    1.000
    O14      O        0.78677    0.30343    0.88361    1.000
    C66      C        0.84827    0.26563    0.89633    1.000
    C67      C        0.93997    0.28113    0.86143    1.000
    H131     H        0.99707    0.28023    0.88173    1.000
    H132     H        0.91247    0.22233    0.83633    1.000
    H133     H        0.96917    0.35043    0.84373    1.000
    N14      N        0.83497    0.21363    0.93993    1.000
    H134     H        0.87667    0.18383    0.94883    1.000
    C68      C        0.74627    0.19013    0.97703    1.000
    H135     H        0.77167    0.18853    0.01193    1.000
    H136     H        0.72857    0.24883    0.97553    1.000
    C69      C        0.64297    0.08053    0.96563    1.000
    H137     H        0.66167    0.02243    0.96503    1.000
    H138     H        0.61517    0.08373    0.93153    1.000
    C70      C        0.55397    0.05263    0.00543    1.000
    H139     H        0.58117    0.04583    0.03913    1.000
    H140     H        0.53947    0.11343    0.00753    1.000
    O15      O        0.45343    0.63677    0.21695    1.000
    C71      C        0.51493    0.59897    0.22967    1.000
    C72      C        0.60663    0.61447    0.19477    1.000
    H141     H        0.66373    0.61357    0.21507    1.000
    H142     H        0.57913    0.55567    0.16967    1.000
    H143     H        0.63583    0.68377    0.17707    1.000
    N15      N        0.50163    0.54697    0.27327    1.000
    H144     H        0.54333    0.51717    0.28217    1.000
    C73      C        0.41293    0.52347    0.31037    1.000
    H145     H        0.43833    0.52187    0.34527    1.000
    H146     H        0.39523    0.58217    0.30887    1.000
    C74      C        0.30963    0.41387    0.29897    1.000
    H147     H        0.32833    0.35577    0.29837    1.000
    H148     H        0.28183    0.41707    0.26487    1.000
    C75      C        0.22063    0.38597    0.33877    1.000
    H149     H        0.24783    0.37917    0.37247    1.000
    H150     H        0.20613    0.44677    0.34087    1.000
    O16      O        0.02990    0.15000    0.55028    1.000
    C76      C        0.06770    0.24930    0.56300    1.000
    C77      C        0.05220    0.32550    0.52810    1.000
    H151     H        0.05310    0.38350    0.54840    1.000
    H152     H        0.11100    0.35680    0.50300    1.000
    H153     H        0.98290    0.28540    0.51040    1.000
    N16      N        0.11970    0.28800    0.60660    1.000
    H154     H        0.14950    0.35950    0.61550    1.000
    C78      C        0.14320    0.22280    0.64370    1.000
    H155     H        0.14480    0.24980    0.67860    1.000
    H156     H        0.08450    0.14640    0.64220    1.000
    C79      C        0.25280    0.22910    0.63230    1.000
    H157     H        0.31090    0.30590    0.63170    1.000
    H158     H        0.24960    0.19810    0.59820    1.000
    C80      C        0.28070    0.16800    0.67210    1.000
    H159     H        0.28750    0.20200    0.70580    1.000
    H160     H        0.21990    0.09270    0.67420    1.000
    O17      O        0.69657    0.48333    0.88361    1.000
    C81      C        0.73437    0.58263    0.89633    1.000
    C82      C        0.71887    0.65883    0.86143    1.000
    H161     H        0.71977    0.71683    0.88173    1.000
    H162     H        0.77767    0.69013    0.83633    1.000
    H163     H        0.64957    0.61873    0.84373    1.000
    N17      N        0.78637    0.62133    0.93993    1.000
    H164     H        0.81617    0.69283    0.94883    1.000
    C83      C        0.80987    0.55613    0.97703    1.000
    H165     H        0.81147    0.58313    0.01193    1.000
    H166     H        0.75117    0.47973    0.97553    1.000
    C84      C        0.91947    0.56243    0.96563    1.000
    H167     H        0.97757    0.63923    0.96503    1.000
    H168     H        0.91627    0.53143    0.93153    1.000
    C85      C        0.94737    0.50133    0.00543    1.000
    H169     H        0.95417    0.53533    0.03913    1.000
    H170     H        0.88657    0.42603    0.00753    1.000
    O18      O        0.36323    0.81667    0.21695    1.000
    C86      C        0.40103    0.91597    0.22967    1.000
    C87      C        0.38553    0.99217    0.19477    1.000
    H171     H        0.38643    0.05017    0.21507    1.000
    H172     H        0.44433    0.02347    0.16967    1.000
    H173     H        0.31623    0.95207    0.17707    1.000
    N18      N        0.45303    0.95467    0.27327    1.000
    H174     H        0.48283    0.02617    0.28217    1.000
    C88      C        0.47653    0.88947    0.31037    1.000
    H175     H        0.47813    0.91647    0.34527    1.000
    H176     H        0.41783    0.81307    0.30887    1.000
    C89      C        0.58613    0.89577    0.29897    1.000
    H177     H        0.64423    0.97257    0.29837    1.000
    H178     H        0.58293    0.86477    0.26487    1.000
    C90      C        0.61403    0.83467    0.33877    1.000
    H179     H        0.62083    0.86867    0.37247    1.000
    H180     H        0.55323    0.75937    0.34087    1.000
    Nd1      Nd       0.00000    0.00000    0.50000    1.000
    Nd2      Nd       0.66667    0.33333    0.83333    1.000
    Nd3      Nd       0.33333    0.66667    0.16667    1.000
