data_functionalizedCrystal
_audit_creation_method	'EQeq! by Chris Wilmer'
_symmetry_space_group_name_H-M	'P1'
_symmetry_Int_Tables_number	1
_symmetry_cell_setting	triclinic
loop_
_symmetry_equiv_pos_as_xyz
  x,y,z
_cell_length_a	10.327
_cell_length_b	26.237
_cell_length_c	27.756
_cell_angle_alpha	90
_cell_angle_beta	93.83
_cell_angle_gamma	90
loop_
_atom_site_label
_atom_site_type_symbol
_atom_site_fract_x
_atom_site_fract_y
_atom_site_fract_z
_atom_site_charge
Mof_Zn	Zn	0.1818	0.76753	0.33672	1.221
Mof_O 	O 	0.0405	0.80457	0.36387	-0.937
Mof_O 	O 	0.3022	0.83548	0.33288	-0.446
Mof_O 	O 	0.3108	0.7451	0.38713	-0.478
Mof_O 	O 	0.088	0.69412	0.33786	-0.459
Mof_O 	O 	0.1877	0.75894	0.26649	-0.455
Mof_Zn	Zn	0.88719	0.77326	0.33262	1.218
Mof_Zn	Zn	0.05457	0.79983	0.43261	1.218
Mof_Zn	Zn	0.04111	0.87264	0.33656	1.215
Mof_C 	C 	0.2926	0.87824	0.31289	0.34
Mof_C 	C 	0.3143	0.75369	0.43105	0.396
Mof_O 	O 	0.7592	0.8237	0.30962	-0.477
Mof_O 	O 	0.8907	0.70771	0.30199	-0.47
Mof_O 	O 	0.7849	0.75318	0.39038	-0.48
Mof_O 	O 	0.2195	0.76708	0.45508	-0.489
Mof_O 	O 	0.0559	0.86875	0.46252	-0.51
Mof_O 	O 	0.9017	0.76816	0.45928	-0.48
Mof_O 	O 	0.186	0.90404	0.30647	-0.449
Mof_O 	O 	0.0416	0.91755	0.39772	-0.481
Mof_O 	O 	0.8724	0.89784	0.30829	-0.469
Mof_C 	C 	0.414	0.90324	0.29691	-0.08
Mof_C 	C 	0.444	0.74665	0.4594	-0.106
Mof_C 	C 	0.0416	0.9087	0.44196	0.434
Mof_C 	C 	0.5311	0.87712	0.30512	0.024
Mof_C 	C 	0.4123	0.95273	0.27647	-0.008
Mof_C 	C 	0.4527	0.7403	0.50982	0.01
Mof_C 	C 	0.5564	0.74998	0.4351	0.045
Mof_C 	C 	0.0194	0.9569	0.4718	-0.117
Mof_H 	H 	0.5328	0.8443	0.3187	0.052
Mof_C 	C 	0.645	0.90036	0.29302	-0.092
Mof_C 	C 	0.5262	0.97482	0.2651	-0.03
Mof_H 	H 	0.3334	0.9703	0.2708	0.051
Mof_H 	H 	0.3766	0.7374	0.5264	0.041
Mof_C 	C 	0.5701	0.73838	0.53471	-0.041
Mof_C 	C 	0.6775	0.75018	0.46177	-0.113
Mof_H 	H 	0.5521	0.7521	0.4012	0.045
Mof_C 	C 	0.0967	0.963	0.5165	0.04
Mof_C 	C 	0.9246	0.9934	0.4553	0.046
Mof_C 	C 	0.6418	0.94856	0.27381	-0.002
Mof_C 	C 	0.7695	0.87165	0.30436	0.369
Mof_C 	C 	0.5249	0.02623	0.24391	0.077
Mof_C 	C 	0.6843	0.7444	0.51082	0.014
Mof_C 	C 	0.578	0.733	0.58914	0.087
Mof_C 	C 	0.7969	0.75715	0.43435	0.399
Mof_C 	C 	0.2167	0.924	0.5397	-0.059
Mof_C 	C 	0.8241	0.9894	0.406	-0.073
Mof_H 	H 	0.72	0.9641	0.2664	0.046
Mof_C 	C 	0.6251	0.0607	0.25265	-0.125
Mof_C 	C 	0.42	0.0439	0.21327	-0.125
Mof_H 	H 	0.7653	0.7445	0.5284	0.042
Mof_C 	C 	0.4904	0.7014	0.61061	-0.129
Mof_C 	C 	0.6688	0.7602	0.6176	-0.137
Mof_C 	C 	0.3067	0.9343	0.5835	-0.039
Mof_H 	H 	0.227	0.8928	0.5238	0.066
Mof_H 	H 	0.8324	0.9602	0.3869	0.067
Mof_C 	C 	0.7298	0.0233	0.392	-0.009
Mof_H 	H 	0.698	0.0503	0.2723	0.077
Mof_C 	C 	0.6239	0.1097	0.23399	0.055
Mof_C 	C 	0.4158	0.0929	0.19536	0.058
Mof_H 	H 	0.3509	0.0216	0.2048	0.079
Mof_H 	H 	0.4252	0.6841	0.5918	0.08
Mof_C 	C 	0.5015	0.6958	0.6613	0.055
Mof_C 	C 	0.6761	0.7544	0.66769	0.068
Mof_H 	H 	0.7257	0.7826	0.6032	0.083
Mof_H 	H 	0.3656	0.9057	0.5887	0.048
Mof_H 	H 	0.6852	0.0108	0.3625	0.038
Mof_H 	H 	0.6953	0.1315	0.2403	0.033
Mof_C 	C 	0.5153	0.12624	0.2057	-0.122
Mof_H 	H 	0.3432	0.1036	0.1757	0.029
Mof_H 	H 	0.4471	0.6729	0.6763	0.03
Mof_C 	C 	0.5922	0.724	0.68924	-0.129
Mof_H 	H 	0.7405	0.7719	0.6866	0.029
Mof_C 	C 	0.5096	0.17977	0.18654	0.375
Mof_C 	C 	0.5962	0.7162	0.74322	0.385
Mof_O 	O 	0.5133	0.6921	0.76142	-0.465
Mof_Zn	Zn	0.3182	0.26753	0.16328	1.22
Mof_O 	O 	0.4595	0.30457	0.13613	-0.938
Mof_O 	O 	0.1978	0.33548	0.16712	-0.446
Mof_O 	O 	0.1892	0.2451	0.11287	-0.478
Mof_O 	O 	0.412	0.19412	0.16214	-0.459
Mof_O 	O 	0.3123	0.25894	0.23351	-0.454
Mof_Zn	Zn	0.61281	0.27326	0.16738	1.218
Mof_Zn	Zn	0.44543	0.29983	0.06739	1.218
Mof_Zn	Zn	0.45889	0.37264	0.16344	1.215
Mof_C 	C 	0.2074	0.37824	0.18711	0.34
Mof_C 	C 	0.1857	0.25369	0.06895	0.395
Mof_O 	O 	0.7408	0.3237	0.19038	-0.477
Mof_O 	O 	0.6093	0.20771	0.19801	-0.47
Mof_O 	O 	0.7151	0.25318	0.10962	-0.48
Mof_O 	O 	0.2805	0.26708	0.04492	-0.489
Mof_O 	O 	0.4441	0.36875	0.03748	-0.51
Mof_O 	O 	0.5983	0.26816	0.04072	-0.48
Mof_O 	O 	0.314	0.40404	0.19353	-0.449
Mof_O 	O 	0.4584	0.41755	0.10228	-0.481
Mof_O 	O 	0.6276	0.39784	0.19171	-0.469
Mof_C 	C 	0.086	0.40324	0.20309	-0.08
Mof_C 	C 	0.056	0.24665	0.0406	-0.105
Mof_C 	C 	0.4584	0.4087	0.05804	0.434
Mof_C 	C 	0.9689	0.37712	0.19488	0.023
Mof_C 	C 	0.0877	0.45273	0.22353	-0.008
Mof_C 	C 	0.0473	0.2403	0.99018	0.009
Mof_C 	C 	0.9436	0.24998	0.0649	0.044
Mof_C 	C 	0.4806	0.4569	0.0282	-0.117
Mof_H 	H 	0.9672	0.3443	0.1813	0.052
Mof_C 	C 	0.855	0.40036	0.20698	-0.092
Mof_C 	C 	0.9738	0.47482	0.2349	-0.031
Mof_H 	H 	0.1666	0.4703	0.2292	0.051
Mof_H 	H 	0.1234	0.2374	0.9736	0.041
Mof_C 	C 	0.9299	0.23838	0.96529	-0.041
Mof_C 	C 	0.8225	0.25018	0.03823	-0.113
Mof_H 	H 	0.9479	0.2521	0.0988	0.045
Mof_C 	C 	0.4033	0.463	0.9835	0.04
Mof_C 	C 	0.5754	0.4934	0.0447	0.046
Mof_C 	C 	0.8582	0.44856	0.22619	-0.002
Mof_C 	C 	0.7305	0.37165	0.19564	0.369
Mof_C 	C 	0.9751	0.52623	0.25609	0.077
Mof_C 	C 	0.8157	0.2444	0.98918	0.014
Mof_C 	C 	0.922	0.233	0.91086	0.087
Mof_C 	C 	0.7031	0.25715	0.06565	0.399
Mof_C 	C 	0.2833	0.424	0.9603	-0.059
Mof_C 	C 	0.6759	0.4894	0.094	-0.073
Mof_H 	H 	0.78	0.4641	0.2336	0.046
Mof_C 	C 	0.8749	0.5607	0.24735	-0.125
Mof_C 	C 	0.08	0.5439	0.28673	-0.125
Mof_H 	H 	0.7347	0.2445	0.9716	0.042
Mof_C 	C 	0.0096	0.2014	0.88939	-0.13
Mof_C 	C 	0.8312	0.2602	0.8824	-0.138
Mof_C 	C 	0.1933	0.4343	0.9165	-0.04
Mof_H 	H 	0.273	0.3928	0.9762	0.066
Mof_H 	H 	0.6676	0.4602	0.1131	0.067
Mof_C 	C 	0.7702	0.5233	0.108	-0.009
Mof_H 	H 	0.802	0.5503	0.2277	0.077
Mof_C 	C 	0.8761	0.6097	0.26601	0.055
Mof_C 	C 	0.0842	0.5929	0.30464	0.059
Mof_H 	H 	0.1491	0.5216	0.2952	0.079
Mof_H 	H 	0.0748	0.1841	0.9082	0.08
Mof_C 	C 	0.9985	0.1958	0.8387	0.055
Mof_C 	C 	0.8239	0.2544	0.83231	0.068
Mof_H 	H 	0.7743	0.2826	0.8968	0.083
Mof_H 	H 	0.1344	0.4057	0.9113	0.048
Mof_H 	H 	0.8148	0.5108	0.1375	0.038
Mof_H 	H 	0.8047	0.6315	0.2597	0.033
Mof_C 	C 	0.9847	0.62624	0.2943	-0.122
Mof_H 	H 	0.1568	0.6036	0.3243	0.029
Mof_H 	H 	0.0529	0.1729	0.8237	0.03
Mof_C 	C 	0.9078	0.224	0.81076	-0.129
Mof_H 	H 	0.7595	0.2719	0.8134	0.029
Mof_C 	C 	0.9904	0.67977	0.31346	0.375
Mof_C 	C 	0.9038	0.2162	0.75678	0.385
Mof_O 	O 	0.9867	0.1921	0.73858	-0.465
Mof_Zn	Zn	0.8182	0.23247	0.66328	1.22
Mof_O 	O 	0.9595	0.19543	0.63613	-0.938
Mof_O 	O 	0.6978	0.16452	0.66712	-0.446
Mof_O 	O 	0.6892	0.2549	0.61287	-0.478
Mof_O 	O 	0.912	0.30588	0.66214	-0.459
Mof_O 	O 	0.8123	0.24106	0.73351	-0.455
Mof_Zn	Zn	0.11281	0.22674	0.66738	1.218
Mof_Zn	Zn	0.94543	0.20017	0.56739	1.218
Mof_Zn	Zn	0.95889	0.12736	0.66344	1.215
Mof_C 	C 	0.7074	0.12176	0.68711	0.34
Mof_C 	C 	0.6857	0.24631	0.56895	0.396
Mof_O 	O 	0.2408	0.1763	0.69038	-0.477
Mof_O 	O 	0.1093	0.29229	0.69801	-0.47
Mof_O 	O 	0.2151	0.24682	0.60962	-0.48
Mof_O 	O 	0.7805	0.23292	0.54492	-0.489
Mof_O 	O 	0.9441	0.13125	0.53748	-0.51
Mof_O 	O 	0.0983	0.23184	0.54072	-0.48
Mof_O 	O 	0.814	0.09596	0.69353	-0.449
Mof_O 	O 	0.9584	0.08245	0.60228	-0.481
Mof_O 	O 	0.1276	0.10216	0.69171	-0.469
Mof_C 	C 	0.586	0.09676	0.70309	-0.08
Mof_C 	C 	0.556	0.25335	0.5406	-0.106
Mof_C 	C 	0.9584	0.0913	0.55804	0.434
Mof_C 	C 	0.4689	0.12288	0.69488	0.024
Mof_C 	C 	0.5877	0.04727	0.72353	-0.008
Mof_C 	C 	0.5473	0.2597	0.49018	0.01
Mof_C 	C 	0.4436	0.25002	0.5649	0.045
Mof_C 	C 	0.9806	0.0431	0.5282	-0.117
Mof_H 	H 	0.4672	0.1557	0.6813	0.052
Mof_C 	C 	0.355	0.09964	0.70698	-0.092
Mof_C 	C 	0.4738	0.02518	0.7349	-0.03
Mof_H 	H 	0.6666	0.0297	0.7292	0.051
Mof_H 	H 	0.6234	0.2626	0.4736	0.041
Mof_C 	C 	0.4299	0.26162	0.46529	-0.041
Mof_C 	C 	0.3225	0.24982	0.53823	-0.113
Mof_H 	H 	0.4479	0.2479	0.5988	0.045
Mof_C 	C 	0.9033	0.037	0.4835	0.04
Mof_C 	C 	0.0754	0.0066	0.5447	0.046
Mof_C 	C 	0.3582	0.05144	0.72619	-0.002
Mof_C 	C 	0.2305	0.12835	0.69564	0.369
Mof_C 	C 	0.4751	0.97377	0.75609	0.077
Mof_C 	C 	0.3157	0.2556	0.48918	0.014
Mof_C 	C 	0.422	0.267	0.41086	0.087
Mof_C 	C 	0.2031	0.24285	0.56565	0.399
Mof_C 	C 	0.7833	0.076	0.4603	-0.059
Mof_C 	C 	0.1759	0.0106	0.594	-0.073
Mof_H 	H 	0.28	0.0359	0.7336	0.046
Mof_C 	C 	0.3749	0.9393	0.74735	-0.125
Mof_C 	C 	0.58	0.9561	0.78673	-0.125
Mof_H 	H 	0.2347	0.2555	0.4716	0.042
Mof_C 	C 	0.5096	0.2986	0.38939	-0.129
Mof_C 	C 	0.3312	0.2398	0.3824	-0.137
Mof_C 	C 	0.6933	0.0657	0.4165	-0.039
Mof_H 	H 	0.773	0.1072	0.4762	0.066
Mof_H 	H 	0.1676	0.0398	0.6131	0.067
Mof_C 	C 	0.2702	0.9767	0.608	-0.009
Mof_H 	H 	0.302	0.9497	0.7277	0.077
Mof_C 	C 	0.3761	0.8903	0.76601	0.055
Mof_C 	C 	0.5842	0.9071	0.80464	0.058
Mof_H 	H 	0.6491	0.9784	0.7952	0.079
Mof_H 	H 	0.5748	0.3159	0.4082	0.08
Mof_C 	C 	0.4985	0.3042	0.3387	0.055
Mof_C 	C 	0.3239	0.2456	0.33231	0.068
Mof_H 	H 	0.2743	0.2174	0.3968	0.083
Mof_H 	H 	0.6344	0.0943	0.4113	0.048
Mof_H 	H 	0.3148	0.9892	0.6375	0.038
Mof_H 	H 	0.3047	0.8685	0.7597	0.033
Mof_C 	C 	0.4847	0.87376	0.7943	-0.122
Mof_H 	H 	0.6568	0.8964	0.8243	0.029
Mof_H 	H 	0.5529	0.3271	0.3237	0.03
Mof_C 	C 	0.4078	0.276	0.31076	-0.129
Mof_H 	H 	0.2595	0.2281	0.3134	0.029
Mof_C 	C 	0.4904	0.82023	0.81346	0.375
Mof_C 	C 	0.4038	0.2838	0.25678	0.385
Mof_O 	O 	0.4867	0.3079	0.23858	-0.465
Mof_Zn	Zn	0.6818	0.73247	0.83672	1.22
Mof_O 	O 	0.5405	0.69543	0.86387	-0.938
Mof_O 	O 	0.8022	0.66452	0.83288	-0.446
Mof_O 	O 	0.8108	0.7549	0.88713	-0.478
Mof_O 	O 	0.588	0.80588	0.83786	-0.459
Mof_O 	O 	0.6877	0.74106	0.76649	-0.454
Mof_Zn	Zn	0.38719	0.72674	0.83262	1.218
Mof_Zn	Zn	0.55457	0.70017	0.93261	1.218
Mof_Zn	Zn	0.54111	0.62736	0.83656	1.215
Mof_C 	C 	0.7926	0.62176	0.81289	0.34
Mof_C 	C 	0.8143	0.74631	0.93105	0.395
Mof_O 	O 	0.2592	0.6763	0.80962	-0.477
Mof_O 	O 	0.3907	0.79229	0.80199	-0.47
Mof_O 	O 	0.2849	0.74682	0.89038	-0.48
Mof_O 	O 	0.7195	0.73292	0.95508	-0.489
Mof_O 	O 	0.5559	0.63125	0.96252	-0.51
Mof_O 	O 	0.4017	0.73184	0.95928	-0.48
Mof_O 	O 	0.686	0.59596	0.80647	-0.449
Mof_O 	O 	0.5416	0.58245	0.89772	-0.481
Mof_O 	O 	0.3724	0.60216	0.80829	-0.469
Mof_C 	C 	0.914	0.59676	0.79691	-0.08
Mof_C 	C 	0.944	0.75335	0.9594	-0.105
Mof_C 	C 	0.5416	0.5913	0.94196	0.434
Mof_C 	C 	0.0311	0.62288	0.80512	0.023
Mof_C 	C 	0.9123	0.54727	0.77647	-0.008
Mof_C 	C 	0.9527	0.7597	0.00982	0.009
Mof_C 	C 	0.0564	0.75002	0.9351	0.044
Mof_C 	C 	0.5194	0.5431	0.9718	-0.117
Mof_H 	H 	0.0328	0.6557	0.8187	0.052
Mof_C 	C 	0.145	0.59964	0.79302	-0.092
Mof_C 	C 	0.0262	0.52518	0.7651	-0.031
Mof_H 	H 	0.8334	0.5297	0.7708	0.051
Mof_H 	H 	0.8766	0.7626	0.0264	0.041
Mof_C 	C 	0.0701	0.76162	0.03471	-0.041
Mof_C 	C 	0.1775	0.74982	0.96177	-0.113
Mof_H 	H 	0.0521	0.7479	0.9012	0.045
Mof_C 	C 	0.5967	0.537	0.0165	0.04
Mof_C 	C 	0.4246	0.5066	0.9553	0.046
Mof_C 	C 	0.1418	0.55144	0.77381	-0.002
Mof_C 	C 	0.2695	0.62835	0.80436	0.369
Mof_C 	C 	0.0249	0.47377	0.74391	0.077
Mof_C 	C 	0.1843	0.7556	0.01082	0.014
Mof_C 	C 	0.078	0.767	0.08914	0.087
Mof_C 	C 	0.2969	0.74285	0.93435	0.399
Mof_C 	C 	0.7167	0.576	0.0397	-0.059
Mof_C 	C 	0.3241	0.5106	0.906	-0.073
Mof_H 	H 	0.22	0.5359	0.7664	0.046
Mof_C 	C 	0.1251	0.4393	0.75265	-0.125
Mof_C 	C 	0.92	0.4561	0.71327	-0.125
Mof_H 	H 	0.2653	0.7555	0.0284	0.042
Mof_C 	C 	0.9904	0.7986	0.11061	-0.13
Mof_C 	C 	0.1688	0.7398	0.1176	-0.138
Mof_C 	C 	0.8067	0.5657	0.0835	-0.04
Mof_H 	H 	0.727	0.6072	0.0238	0.066
Mof_H 	H 	0.3324	0.5398	0.8869	0.067
Mof_C 	C 	0.2298	0.4767	0.892	-0.009
Mof_H 	H 	0.198	0.4497	0.7723	0.077
Mof_C 	C 	0.1239	0.3903	0.73399	0.055
Mof_C 	C 	0.9158	0.4071	0.69536	0.059
Mof_H 	H 	0.8509	0.4784	0.7048	0.079
Mof_H 	H 	0.9252	0.8159	0.0918	0.08
Mof_C 	C 	0.0015	0.8042	0.1613	0.055
Mof_C 	C 	0.1761	0.7456	0.16769	0.068
Mof_H 	H 	0.2257	0.7174	0.1032	0.083
Mof_H 	H 	0.8656	0.5943	0.0887	0.048
Mof_H 	H 	0.1852	0.4892	0.8625	0.038
Mof_H 	H 	0.1953	0.3685	0.7403	0.033
Mof_C 	C 	0.0153	0.37376	0.7057	-0.122
Mof_H 	H 	0.8432	0.3964	0.6757	0.029
Mof_H 	H 	0.9471	0.8271	0.1763	0.03
Mof_C 	C 	0.0922	0.776	0.18924	-0.129
Mof_H 	H 	0.2405	0.7281	0.1866	0.029
Mof_C 	C 	0.0096	0.32023	0.68654	0.375
Mof_C 	C 	0.0962	0.7838	0.24322	0.385
Mof_O 	O 	0.0133	0.8079	0.26142	-0.465
_end
