data_functionalizedCrystal
_audit_creation_method	'EQeq! by Chris Wilmer'
_symmetry_space_group_name_H-M	'P1'
_symmetry_Int_Tables_number	1
_symmetry_cell_setting	triclinic
loop_
_symmetry_equiv_pos_as_xyz
  x,y,z
_cell_length_a	7.8198
_cell_length_b	8.4354
_cell_length_c	9.4908
_cell_angle_alpha	90
_cell_angle_beta	90
_cell_angle_gamma	117.614
loop_
_atom_site_label
_atom_site_type_symbol
_atom_site_fract_x
_atom_site_fract_y
_atom_site_fract_z
_atom_site_charge
Mof_Y 	Y 	0.70716	0.41432	0.75	1.583
Mof_Y 	Y 	0.29277	0.58554	0.75	1.628
Mof_Y 	Y 	0.29284	0.58568	0.25	1.582
Mof_Y 	Y 	0.70723	0.41446	0.25	1.628
Mof_C 	C 	0.5982	0.9978	0.7427	0.261
Mof_C 	C 	0.0803	0.5508	0.5005	0.603
Mof_C 	C 	0.4018	0.0022	0.2427	0.261
Mof_C 	C 	0.9197	0.4492	0.0005	0.607
Mof_C 	C 	0.3996	0.9978	0.7573	0.263
Mof_C 	C 	0.4705	0.5508	0.9995	0.605
Mof_C 	C 	0.6004	0.0022	0.2573	0.263
Mof_C 	C 	0.5295	0.4492	0.4995	0.605
Mof_O 	O 	0.7429	0.1452	0.737	-0.369
Mof_O 	O 	0.5913	0.8456	0.7361	-0.378
Mof_O 	O 	0.9975	0.5068	0.6197	-0.586
Mof_O 	O 	0.2655	0.6396	0.5032	-0.551
Mof_O 	O 	0.9967	0.5052	0.3814	-0.585
Mof_O 	O 	0.2571	0.8548	0.237	-0.37
Mof_O 	O 	0.4087	0.1544	0.2361	-0.378
Mof_O 	O 	0.0025	0.4932	0.1197	-0.587
Mof_O 	O 	0.7345	0.3604	0.0032	-0.552
Mof_O 	O 	0.0033	0.4948	0.8814	-0.588
Mof_O 	O 	0.4023	0.1452	0.763	-0.371
Mof_O 	O 	0.2543	0.8456	0.7639	-0.378
Mof_O 	O 	0.5093	0.5068	0.8803	-0.587
Mof_O 	O 	0.3741	0.6396	0.9968	-0.552
Mof_O 	O 	0.5085	0.5052	0.1186	-0.585
Mof_O 	O 	0.5977	0.8548	0.263	-0.371
Mof_O 	O 	0.7457	0.1544	0.2639	-0.378
Mof_O 	O 	0.4907	0.4932	0.3803	-0.587
Mof_O 	O 	0.6259	0.3604	0.4968	-0.551
Mof_O 	O 	0.4915	0.4948	0.6186	-0.585
_end
