data_functionalizedCrystal
_audit_creation_method	'EQeq! by Chris Wilmer'
_symmetry_space_group_name_H-M	'P1'
_symmetry_Int_Tables_number	1
_symmetry_cell_setting	triclinic
loop_
_symmetry_equiv_pos_as_xyz
  x,y,z
_cell_length_a	14.5356
_cell_length_b	15.8989
_cell_length_c	17.2554
_cell_angle_alpha	112.547
_cell_angle_beta	111.545
_cell_angle_gamma	95.787
loop_
_atom_site_label
_atom_site_type_symbol
_atom_site_fract_x
_atom_site_fract_y
_atom_site_fract_z
_atom_site_charge
Mof_C 	C 	0.5348	0.7089	0.6387	0.285
Mof_C 	C 	0.5468	0.8523	0.756	0.043
Mof_H 	H 	0.5095	0.8144	0.7703	0.041
Mof_C 	C 	0.5836	0.9447	0.8076	0.054
Mof_C 	C 	0.6609	0.0038	0.8081	-0.097
Mof_H 	H 	0.6856	0.9802	0.7637	0.08
Mof_C 	C 	0.7012	0.0978	0.8746	0.017
Mof_H 	H 	0.753	0.1375	0.8749	0.042
Mof_C 	C 	0.6648	0.1326	0.9404	-0.07
Mof_C 	C 	0.588	0.0743	0.9403	0.023
Mof_H 	H 	0.563	0.0985	0.9844	0.037
Mof_C 	C 	0.5476	0.9793	0.8743	-0.108
Mof_H 	H 	0.4968	0.9393	0.8749	0.071
Mof_C 	C 	0.7014	0.2404	0.0075	0.288
Mof_C 	C 	0.3812	0.6121	0.5076	-0.035
Mof_H 	H 	0.4223	0.577	0.4869	0.069
Mof_C 	C 	0.286	0.6009	0.4488	0.132
Mof_C 	C 	0.2326	0.669	0.4601	-0.161
Mof_H 	H 	0.2641	0.7282	0.5121	0.107
Mof_C 	C 	0.1325	0.6491	0.394	0.087
Mof_H 	H 	0.0977	0.6955	0.4019	0.016
Mof_C 	C 	0.0837	0.5608	0.3165	-0.159
Mof_C 	C 	0.1379	0.4921	0.3058	0.105
Mof_H 	H 	0.1064	0.4324	0.2544	0.013
Mof_C 	C 	0.2371	0.5125	0.3708	-0.177
Mof_H 	H 	0.2722	0.4664	0.3627	0.103
Mof_C 	C 	0.9786	0.5528	0.2602	0.377
Mof_C 	C 	0.629	0.6555	0.7527	-0.025
Mof_H 	H 	0.6874	0.6836	0.7514	0.056
Mof_C 	C 	0.6346	0.6158	0.8033	0.115
Mof_C 	C 	0.7396	0.6231	0.8623	-0.162
Mof_H 	H 	0.7956	0.6547	0.8604	0.092
Mof_C 	C 	0.753	0.5815	0.9211	0.102
Mof_H 	H 	0.8197	0.587	0.961	0.011
Mof_C 	C 	0.6719	0.5325	0.9227	-0.175
Mof_C 	C 	0.5725	0.5228	0.8686	0.095
Mof_H 	H 	0.5186	0.4913	0.8731	0.026
Mof_C 	C 	0.5527	0.5625	0.8042	-0.146
Mof_H 	H 	0.4853	0.5528	0.7629	0.109
Mof_C 	C 	0.6925	0.4921	0.9862	0.394
Mof_C 	C 	0.5919	0.7061	0.5359	0.011
Mof_H 	H 	0.5768	0.7641	0.5505	0.051
Mof_C 	C 	0.6242	0.6648	0.4634	0.083
Mof_C 	C 	0.6325	0.5742	0.4382	-0.117
Mof_H 	H 	0.615	0.5395	0.4661	0.1
Mof_C 	C 	0.6669	0.5342	0.3711	0.038
Mof_H 	H 	0.6743	0.4732	0.3554	0.048
Mof_C 	C 	0.6902	0.5841	0.3274	-0.098
Mof_C 	C 	0.6812	0.6748	0.354	0.049
Mof_H 	H 	0.6983	0.7093	0.3258	0.029
Mof_C 	C 	0.6477	0.7169	0.4209	-0.129
Mof_H 	H 	0.6411	0.7781	0.4371	0.081
Mof_C 	C 	0.7173	0.5401	0.2465	0.317
Mof_C 	C 	0.7172	0.767	0.0747	0.042
Mof_C 	C 	0.8034	0.8222	0.0824	-0.075
Mof_H 	H 	0.869	0.8231	0.1196	0.053
Mof_C 	C 	0.7911	0.8767	0.0337	-0.035
Mof_H 	H 	0.8486	0.914	0.0387	0.047
Mof_C 	C 	0.693	0.8746	0.9783	-0.009
Mof_H 	H 	0.6847	0.9105	0.9458	0.041
Mof_C 	C 	0.6076	0.8196	0.9709	-0.1
Mof_H 	H 	0.5421	0.8187	0.9332	0.082
Mof_C 	C 	0.6181	0.7656	0.0189	0.088
Mof_C 	C 	0.6069	0.6748	0.0858	0.096
Mof_H 	H 	0.5769	0.632	0.1002	0.039
Mof_Cd	Cd	0.76231	0.42209	0.11116	0.525
Mof_Cd	Cd	0.82943	0.66152	0.18644	0.423
Mof_N 	N 	0.7076	0.7069	0.116	-0.156
Mof_N 	N 	0.5531	0.7129	0.0309	-0.111
Mof_O 	O 	0.5666	0.8151	0.6797	-0.219
Mof_O 	O 	0.7821	0.2918	0.016	-0.254
Mof_O 	O 	0.6494	0.2751	0.047	-0.254
Mof_O 	O 	0.4204	0.6815	0.6065	-0.174
Mof_O 	O 	0.93	0.4611	0.1933	-0.262
Mof_O 	O 	0.9354	0.61	0.2684	-0.343
Mof_O 	O 	0.5258	0.6559	0.6951	-0.174
Mof_O 	O 	0.6257	0.4339	0.9786	-0.287
Mof_O 	O 	0.7803	0.5166	0.0485	-0.333
Mof_O 	O 	0.5849	0.6517	0.5829	-0.213
Mof_O 	O 	0.7391	0.4628	0.2314	-0.284
Mof_O 	O 	0.7074	0.5886	0.2016	-0.294
Mof_C 	C 	0.4652	0.2911	0.3613	0.286
Mof_C 	C 	0.4532	0.1477	0.244	0.044
Mof_H 	H 	0.4905	0.1856	0.2297	0.042
Mof_C 	C 	0.4164	0.0553	0.1924	0.055
Mof_C 	C 	0.3391	0.9962	0.1919	-0.096
Mof_H 	H 	0.3144	0.0198	0.2363	0.081
Mof_C 	C 	0.2988	0.9022	0.1254	0.017
Mof_H 	H 	0.247	0.8625	0.1251	0.042
Mof_C 	C 	0.3352	0.8674	0.0596	-0.07
Mof_C 	C 	0.412	0.9257	0.0597	0.023
Mof_H 	H 	0.437	0.9015	0.0156	0.037
Mof_C 	C 	0.4524	0.0207	0.1257	-0.108
Mof_H 	H 	0.5032	0.0607	0.1251	0.071
Mof_C 	C 	0.2986	0.7596	0.9925	0.288
Mof_C 	C 	0.6188	0.3879	0.4924	-0.035
Mof_H 	H 	0.5777	0.423	0.5131	0.069
Mof_C 	C 	0.714	0.3991	0.5512	0.132
Mof_C 	C 	0.7674	0.331	0.5399	-0.161
Mof_H 	H 	0.7359	0.2718	0.4879	0.107
Mof_C 	C 	0.8675	0.3509	0.606	0.087
Mof_H 	H 	0.9023	0.3045	0.5981	0.016
Mof_C 	C 	0.9163	0.4392	0.6835	-0.159
Mof_C 	C 	0.8621	0.5079	0.6942	0.105
Mof_H 	H 	0.8936	0.5676	0.7456	0.013
Mof_C 	C 	0.7629	0.4875	0.6292	-0.177
Mof_H 	H 	0.7278	0.5336	0.6373	0.103
Mof_C 	C 	0.0214	0.4472	0.7398	0.377
Mof_C 	C 	0.371	0.3445	0.2473	-0.025
Mof_H 	H 	0.3126	0.3164	0.2486	0.056
Mof_C 	C 	0.3654	0.3842	0.1967	0.115
Mof_C 	C 	0.2604	0.3769	0.1377	-0.162
Mof_H 	H 	0.2044	0.3453	0.1396	0.092
Mof_C 	C 	0.247	0.4185	0.0789	0.102
Mof_H 	H 	0.1803	0.413	0.039	0.011
Mof_C 	C 	0.3281	0.4675	0.0773	-0.175
Mof_C 	C 	0.4275	0.4772	0.1314	0.095
Mof_H 	H 	0.4814	0.5087	0.1269	0.026
Mof_C 	C 	0.4473	0.4375	0.1958	-0.146
Mof_H 	H 	0.5147	0.4472	0.2371	0.109
Mof_C 	C 	0.3075	0.5079	0.0138	0.394
Mof_C 	C 	0.4081	0.2939	0.4641	0.011
Mof_H 	H 	0.4232	0.2359	0.4495	0.051
Mof_C 	C 	0.3758	0.3352	0.5366	0.083
Mof_C 	C 	0.3675	0.4258	0.5618	-0.117
Mof_H 	H 	0.385	0.4605	0.5339	0.1
Mof_C 	C 	0.3331	0.4658	0.6289	0.038
Mof_H 	H 	0.3257	0.5268	0.6446	0.048
Mof_C 	C 	0.3098	0.4159	0.6726	-0.098
Mof_C 	C 	0.3188	0.3252	0.646	0.049
Mof_H 	H 	0.3017	0.2907	0.6742	0.029
Mof_C 	C 	0.3523	0.2831	0.5791	-0.129
Mof_H 	H 	0.3589	0.2219	0.5629	0.081
Mof_C 	C 	0.2827	0.4599	0.7535	0.317
Mof_C 	C 	0.2828	0.233	0.9253	0.042
Mof_C 	C 	0.1966	0.1778	0.9176	-0.075
Mof_H 	H 	0.131	0.1769	0.8804	0.053
Mof_C 	C 	0.2089	0.1233	0.9663	-0.035
Mof_H 	H 	0.1514	0.086	0.9613	0.047
Mof_C 	C 	0.307	0.1254	0.0217	-0.009
Mof_H 	H 	0.3153	0.0895	0.0542	0.041
Mof_C 	C 	0.3924	0.1804	0.0291	-0.1
Mof_H 	H 	0.4579	0.1813	0.0668	0.082
Mof_C 	C 	0.3819	0.2344	0.9811	0.088
Mof_C 	C 	0.3931	0.3252	0.9142	0.096
Mof_H 	H 	0.4231	0.368	0.8998	0.039
Mof_Cd	Cd	0.23769	0.57791	0.88884	0.525
Mof_Cd	Cd	0.17057	0.33848	0.81356	0.423
Mof_N 	N 	0.2924	0.2931	0.884	-0.156
Mof_N 	N 	0.4469	0.2871	0.9691	-0.111
Mof_O 	O 	0.4334	0.1849	0.3203	-0.219
Mof_O 	O 	0.2179	0.7082	0.984	-0.254
Mof_O 	O 	0.3506	0.7249	0.953	-0.254
Mof_O 	O 	0.5796	0.3185	0.3935	-0.174
Mof_O 	O 	0.07	0.5389	0.8067	-0.262
Mof_O 	O 	0.0646	0.39	0.7316	-0.343
Mof_O 	O 	0.4742	0.3441	0.3049	-0.174
Mof_O 	O 	0.3743	0.5661	0.0214	-0.287
Mof_O 	O 	0.2197	0.4834	0.9515	-0.333
Mof_O 	O 	0.4151	0.3483	0.4171	-0.213
Mof_O 	O 	0.2609	0.5372	0.7686	-0.284
Mof_O 	O 	0.2926	0.4114	0.7984	-0.294
_end
