data_functionalizedCrystal
_audit_creation_method	'EQeq! by Chris Wilmer'
_symmetry_space_group_name_H-M	'P1'
_symmetry_Int_Tables_number	1
_symmetry_cell_setting	triclinic
loop_
_symmetry_equiv_pos_as_xyz
  x,y,z
_cell_length_a	10.004
_cell_length_b	10.293
_cell_length_c	17.914
_cell_angle_alpha	103.66
_cell_angle_beta	99.58
_cell_angle_gamma	93.45
loop_
_atom_site_label
_atom_site_type_symbol
_atom_site_fract_x
_atom_site_fract_y
_atom_site_fract_z
_atom_site_charge
Mof_C 	C 	0.6829	0.4955	0.7164	0.296
Mof_C 	C 	0.5796	0.5241	0.76927	0.013
Mof_C 	C 	0.4419	0.4977	0.7362	-0.063
Mof_H 	H 	0.4152	0.4657	0.6823	0.09
Mof_C 	C 	0.344	0.5189	0.78291	0.015
Mof_C 	C 	0.1954	0.4903	0.7471	0.269
Mof_C 	C 	0.3837	0.5688	0.8631	-0.134
Mof_H 	H 	0.3181	0.582	0.8946	0.116
Mof_C 	C 	0.5209	0.5991	0.89677	0.167
Mof_C 	C 	0.6186	0.5764	0.8491	-0.135
Mof_H 	H 	0.7107	0.5966	0.8712	0.106
Mof_C 	C 	0.4958	0.7344	0.0251	0.219
Mof_C 	C 	0.5477	0.7658	0.1112	-0.035
Mof_C 	C 	0.6859	0.7823	0.1441	-0.022
Mof_H 	H 	0.7507	0.7686	0.1121	0.052
Mof_C 	C 	0.7264	0.8193	0.2247	-0.034
Mof_H 	H 	0.8187	0.8311	0.2466	0.063
Mof_C 	C 	0.6312	0.8386	0.2727	-0.03
Mof_C 	C 	0.494	0.8185	0.2401	-0.026
Mof_H 	H 	0.4294	0.8298	0.2723	0.067
Mof_C 	C 	0.4523	0.7816	0.1599	-0.024
Mof_H 	H 	0.3598	0.7673	0.1384	0.065
Mof_C 	C 	0.6716	0.891	0.3596	0.227
Mof_C 	C 	0.8205	0.8676	0.4782	0.179
Mof_C 	C 	0.8539	0.7667	0.5155	-0.141
Mof_H 	H 	0.8424	0.6773	0.4873	0.118
Mof_C 	C 	0.9046	0.8006	0.5955	0.022
Mof_C 	C 	0.9376	0.6937	0.6392	0.289
Mof_C 	C 	0.9216	0.9343	0.6374	-0.066
Mof_H 	H 	0.9555	0.9566	0.6909	0.09
Mof_C 	C 	0.8881	0.0355	0.59987	0.014
Mof_C 	C 	0.9071	0.18	0.6459	0.282
Mof_C 	C 	0.8403	0.0009	0.52	-0.137
Mof_H 	H 	0.8212	0.068	0.4941	0.123
Mof_N 	N 	0.7686	0.8305	0.39606	-0.252
Mof_H 	H 	0.8017	0.765	0.3679	0.159
Mof_N 	N 	0.5636	0.6495	0.97849	-0.246
Mof_H 	H 	0.6377	0.6245	0.0001	0.14
Mof_O 	O 	0.8064	0.4956	0.74891	-0.393
Mof_O 	O 	0.643	0.4759	0.64537	-0.252
Mof_O 	O 	0.1612	0.4341	0.67511	-0.364
Mof_O 	O 	0.1077	0.5222	0.78863	-0.326
Mof_O 	O 	0.3947	0.7837	0.99959	-0.206
Mof_O 	O 	0.6159	0.9841	0.39305	-0.205
Mof_O 	O 	0.9125	0.5712	0.60148	-0.382
Mof_O 	O 	0.9865	0.7296	0.70941	-0.276
Mof_O 	O 	0.9426	0.2081	0.71797	-0.283
Mof_O 	O 	0.8871	0.2703	0.60817	-0.384
Mof_Zn	Zn	0.94399	0.4578	0.67947	1.236
Mof_C 	C 	0.3171	0.5045	0.2836	0.295
Mof_C 	C 	0.4204	0.4759	0.23073	0.012
Mof_C 	C 	0.5581	0.5023	0.2638	-0.063
Mof_H 	H 	0.5848	0.5343	0.3177	0.09
Mof_C 	C 	0.656	0.4811	0.21709	0.015
Mof_C 	C 	0.8046	0.5097	0.2529	0.269
Mof_C 	C 	0.6163	0.4312	0.1369	-0.134
Mof_H 	H 	0.6819	0.418	0.1054	0.116
Mof_C 	C 	0.4791	0.4009	0.10323	0.167
Mof_C 	C 	0.3814	0.4236	0.1509	-0.135
Mof_H 	H 	0.2893	0.4034	0.1288	0.106
Mof_C 	C 	0.5042	0.2656	0.9749	0.219
Mof_C 	C 	0.4523	0.2342	0.8888	-0.035
Mof_C 	C 	0.3141	0.2177	0.8559	-0.022
Mof_H 	H 	0.2493	0.2314	0.8879	0.052
Mof_C 	C 	0.2736	0.1807	0.7753	-0.034
Mof_H 	H 	0.1813	0.1689	0.7534	0.063
Mof_C 	C 	0.3688	0.1614	0.7273	-0.03
Mof_C 	C 	0.506	0.1815	0.7599	-0.026
Mof_H 	H 	0.5706	0.1702	0.7277	0.067
Mof_C 	C 	0.5477	0.2184	0.8401	-0.024
Mof_H 	H 	0.6402	0.2327	0.8616	0.065
Mof_C 	C 	0.3284	0.109	0.6404	0.227
Mof_C 	C 	0.1795	0.1324	0.5218	0.179
Mof_C 	C 	0.1461	0.2333	0.4845	-0.141
Mof_H 	H 	0.1576	0.3227	0.5127	0.118
Mof_C 	C 	0.0954	0.1994	0.4045	0.022
Mof_C 	C 	0.0624	0.3063	0.3608	0.289
Mof_C 	C 	0.0784	0.0657	0.3626	-0.066
Mof_H 	H 	0.0445	0.0434	0.3091	0.09
Mof_C 	C 	0.1119	0.9645	0.40013	0.014
Mof_C 	C 	0.0929	0.82	0.3541	0.282
Mof_C 	C 	0.1597	0.9991	0.48	-0.137
Mof_H 	H 	0.1788	0.932	0.5059	0.123
Mof_N 	N 	0.2314	0.1695	0.60394	-0.252
Mof_H 	H 	0.1983	0.235	0.6321	0.159
Mof_N 	N 	0.4364	0.3505	0.02151	-0.246
Mof_H 	H 	0.3623	0.3755	0.9999	0.14
Mof_O 	O 	0.1936	0.5044	0.25109	-0.393
Mof_O 	O 	0.357	0.5241	0.35463	-0.252
Mof_O 	O 	0.8388	0.5659	0.32489	-0.364
Mof_O 	O 	0.8923	0.4778	0.21137	-0.326
Mof_O 	O 	0.6053	0.2163	0.00041	-0.206
Mof_O 	O 	0.3841	0.0159	0.60695	-0.205
Mof_O 	O 	0.0875	0.4288	0.39852	-0.382
Mof_O 	O 	0.0135	0.2704	0.29059	-0.276
Mof_O 	O 	0.0574	0.7919	0.28203	-0.283
Mof_O 	O 	0.1129	0.7297	0.39183	-0.384
Mof_Zn	Zn	0.05601	0.5422	0.32053	1.236
_end
