# CIF file generated by openbabel 3.1.0, see https://openbabel.org
data_I
_chemical_name_common 'image0'
_cell_length_a 9.0162
_cell_length_b 10.7479
_cell_length_c 10.8068
_cell_angle_alpha 97.57
_cell_angle_beta 97.708
_cell_angle_gamma 110.1
_space_group_name_H-M_alt 'P 1'
_space_group_name_Hall 'P 1'
loop_
    _symmetry_equiv_pos_as_xyz
    x,y,z
loop_
    _atom_site_label
    _atom_site_type_symbol
    _atom_site_fract_x
    _atom_site_fract_y
    _atom_site_fract_z
    _atom_site_occupancy
    Cd1      Cd       0.70569    0.24814    0.68775    1.000
    O1       O        0.68020    0.02930    0.60450    1.000
    O2       O        0.55510    0.86870    0.43350    1.000
    N1       N        0.97320    0.32710    0.77770    1.000
    N2       N        0.21990    0.47920    0.81670    1.000
    N3       N        0.30740    0.67230    0.70360    1.000
    N4       N        0.40870    0.70350    0.93860    1.000
    C1       C        0.05810    0.30720    0.88330    1.000
    H1       H        0.01780    0.24160    0.93090    1.000
    C2       C        0.20940    0.39840    0.90660    1.000
    H2       H        0.29220    0.40570    0.97190    1.000
    C3       C        0.07380    0.43020    0.74150    1.000
    H3       H        0.04670    0.46550    0.67150    1.000
    C4       C        0.21890    0.75370    0.71240    1.000
    H4       H        0.19440    0.79060    0.78610    1.000
    C5       C        0.31210    0.64450    0.57960    1.000
    H5       H        0.36490    0.59060    0.54730    1.000
    C6       C        0.51410    0.44550    0.75820    1.000
    H6       H        0.43350    0.36840    0.76930    1.000
    C7       C        0.54970    0.80910    0.99380    1.000
    H7       H        0.64220    0.83750    0.95930    1.000
    C8       C        0.56790    0.97100    0.51160    1.000
    B1       B        0.36300    0.60710    0.80860    1.000
    C9       C        0.17400    0.76970    0.59170    1.000
    H8       H        0.11160    0.81940    0.56930    1.000
    C10      C        0.64640    0.65170    0.74960    1.000
    H9       H        0.67710    0.74400    0.75210    1.000
    N5       N        0.50500    0.56900    0.77630    1.000
    C11      C        0.31290    0.70160    0.02350    1.000
    H10      H        0.20840    0.63910    0.01120    1.000
    C12      C        0.73300    0.57610    0.71920    1.000
    H11      H        0.83450    0.60810    0.69860    1.000
    C13      C        0.52990    0.86380    0.10660    1.000
    N6       N        0.23430    0.70160    0.50830    1.000
    N7       N        0.64740    0.44450    0.72350    1.000
    N8       N        0.38040    0.79640    0.12590    1.000
    H12      H        0.59900    0.93200    0.16000    1.000
    Cd2      Cd       0.29431    0.75186    0.31225    1.000
    O3       O        0.31980    0.97070    0.39550    1.000
    O4       O        0.44490    0.13130    0.56650    1.000
    N9       N        0.02680    0.67290    0.22230    1.000
    N10      N        0.78010    0.52080    0.18330    1.000
    N11      N        0.69260    0.32770    0.29640    1.000
    N12      N        0.59130    0.29650    0.06140    1.000
    C14      C        0.94190    0.69280    0.11670    1.000
    H13      H        0.98220    0.75840    0.06910    1.000
    C15      C        0.79060    0.60160    0.09340    1.000
    H14      H        0.70780    0.59430    0.02810    1.000
    C16      C        0.92620    0.56980    0.25850    1.000
    H15      H        0.95330    0.53450    0.32850    1.000
    C17      C        0.78110    0.24630    0.28760    1.000
    H16      H        0.80560    0.20940    0.21390    1.000
    C18      C        0.68790    0.35550    0.42040    1.000
    H17      H        0.63510    0.40940    0.45270    1.000
    C19      C        0.48590    0.55450    0.24180    1.000
    H18      H        0.56650    0.63160    0.23070    1.000
    C20      C        0.45030    0.19090    0.00620    1.000
    H19      H        0.35780    0.16250    0.04070    1.000
    C21      C        0.43210    0.02900    0.48840    1.000
    B2       B        0.63700    0.39290    0.19140    1.000
    C22      C        0.82600    0.23030    0.40830    1.000
    H20      H        0.88840    0.18060    0.43070    1.000
    C23      C        0.35360    0.34830    0.25040    1.000
    H21      H        0.32290    0.25600    0.24790    1.000
    N13      N        0.49500    0.43100    0.22370    1.000
    C24      C        0.68710    0.29840    0.97650    1.000
    H22      H        0.79160    0.36090    0.98880    1.000
    C25      C        0.26700    0.42390    0.28080    1.000
    H23      H        0.16550    0.39190    0.30140    1.000
    C26      C        0.47010    0.13620    0.89340    1.000
    N14      N        0.76570    0.29840    0.49170    1.000
    N15      N        0.35260    0.55550    0.27650    1.000
    N16      N        0.61960    0.20360    0.87410    1.000
    H24      H        0.40100    0.06800    0.84000    1.000
