# CIF file generated by openbabel 3.1.0, see https://openbabel.org
data_I
_chemical_name_common 'image0'
_cell_length_a 30.492
_cell_length_b 15.9861
_cell_length_c 25.7022
_cell_angle_alpha 90
_cell_angle_beta 89.991
_cell_angle_gamma 90
_space_group_name_H-M_alt 'P 1'
_space_group_name_Hall 'P 1'
loop_
    _symmetry_equiv_pos_as_xyz
    x,y,z
loop_
    _atom_site_label
    _atom_site_type_symbol
    _atom_site_fract_x
    _atom_site_fract_y
    _atom_site_fract_z
    _atom_site_occupancy
    Tm1      Tm       0.49989    0.59772    0.06366    1.000
    Tm2      Tm       0.50043    0.70806    0.25111    1.000
    Tm3      Tm       0.49970    0.56909    0.43751    1.000
    O1       O        0.44720    0.69820    0.19870    1.000
    O2       O        0.45740    0.64250    0.12320    1.000
    C1       C        0.43340    0.67870    0.15500    1.000
    C2       C        0.38650    0.70060    0.14180    1.000
    C3       C        0.35900    0.74050    0.17560    1.000
    H1       H        0.36930    0.75530    0.20840    1.000
    C4       C        0.31510    0.75980    0.16170    1.000
    H2       H        0.29690    0.78700    0.18540    1.000
    C5       C        0.29950    0.73910    0.11440    1.000
    C6       C        0.32580    0.69970    0.08030    1.000
    H3       H        0.31520    0.68500    0.04760    1.000
    C7       C        0.36980    0.68050    0.09420    1.000
    H4       H        0.38760    0.65350    0.07010    1.000
    C8       C        0.25270    0.76260    0.10360    1.000
    H5       H        0.23980    0.73240    0.07670    1.000
    O3       O        0.54900    0.72060    0.18370    1.000
    O4       O        0.55550    0.62100    0.12170    1.000
    C9       C        0.56840    0.67870    0.15020    1.000
    C10      C        0.61600    0.70430    0.14420    1.000
    C11      C        0.63330    0.76740    0.17360    1.000
    H6       H        0.61580    0.79500    0.19780    1.000
    C12      C        0.67800    0.79090    0.16770    1.000
    H7       H        0.68980    0.83360    0.18780    1.000
    C13      C        0.70300    0.75070    0.13240    1.000
    C14      C        0.68710    0.68840    0.10270    1.000
    H8       H        0.70490    0.66150    0.07850    1.000
    C15      C        0.64240    0.66490    0.10900    1.000
    H9       H        0.63100    0.62180    0.08890    1.000
    C16      C        0.74990    0.77810    0.12800    1.000
    H10      H        0.75700    0.82040    0.15140    1.000
    O5       O        0.04080    0.97840    0.06330    1.000
    O6       O        0.04550    0.87640    0.00540    1.000
    C17      C        0.05950    0.91810    0.04270    1.000
    C18      C        0.10350    0.89200    0.06450    1.000
    C19      C        0.12140    0.93440    0.10550    1.000
    H11      H        0.10700    0.97970    0.12050    1.000
    C20      C        0.16290    0.90730    0.12440    1.000
    H12      H        0.17560    0.93540    0.15230    1.000
    C21      C        0.18430    0.84210    0.10310    1.000
    C22      C        0.16660    0.80020    0.06280    1.000
    H13      H        0.18140    0.75520    0.04800    1.000
    C23      C        0.12520    0.82580    0.04310    1.000
    H14      H        0.11280    0.79720    0.01530    1.000
    C24      C        0.22800    0.81500    0.12410    1.000
    H15      H        0.23740    0.83950    0.15500    1.000
    O7       O        0.54630    0.59750    0.99250    1.000
    O8       O        0.55560    0.52030    0.92000    1.000
    C25      C        0.56570    0.57400    0.95280    1.000
    C26      C        0.60870    0.61860    0.94300    1.000
    C27      C        0.62480    0.67930    0.97500    1.000
    H16      H        0.60900    0.69470    0.00440    1.000
    C28      C        0.66540    0.71930    0.96430    1.000
    H17      H        0.67550    0.76050    0.98690    1.000
    C29      C        0.68980    0.69950    0.92230    1.000
    C30      C        0.67470    0.63970    0.89010    1.000
    H18      H        0.69090    0.62470    0.86080    1.000
    C31      C        0.63400    0.59980    0.90080    1.000
    H19      H        0.62420    0.55880    0.87790    1.000
    C32      C        0.73230    0.74530    0.91440    1.000
    H20      H        0.73920    0.79330    0.93310    1.000
    O9       O        0.55490    0.67710    0.30390    1.000
    O10      O        0.55050    0.59340    0.37130    1.000
    C33      C        0.57020    0.64470    0.34380    1.000
    C34      C        0.61600    0.67400    0.35640    1.000
    C35      C        0.63780    0.73070    0.32610    1.000
    H21      H        0.62390    0.75230    0.29680    1.000
    C36      C        0.68100    0.75770    0.33810    1.000
    H22      H        0.69570    0.79610    0.31730    1.000
    C37      C        0.69970    0.72530    0.38110    1.000
    C38      C        0.67920    0.66940    0.41170    1.000
    H23      H        0.69340    0.64830    0.44100    1.000
    C39      C        0.63610    0.64240    0.39950    1.000
    H24      H        0.62170    0.60380    0.42060    1.000
    C40      C        0.74530    0.75080    0.39660    1.000
    H25      H        0.74910    0.75010    0.43250    1.000
    O11      O        0.95210    0.81240    0.81250    1.000
    O12      O        0.95070    0.88510    0.88570    1.000
    C41      C        0.93430    0.83790    0.85290    1.000
    C42      C        0.88800    0.80760    0.86210    1.000
    C43      C        0.86920    0.75540    0.82640    1.000
    H26      H        0.88480    0.73890    0.79710    1.000
    C44      C        0.82570    0.72640    0.83430    1.000
    H27      H        0.81270    0.69100    0.81010    1.000
    C45      C        0.80330    0.75020    0.87690    1.000
    C46      C        0.82110    0.80160    0.91270    1.000
    H28      H        0.80520    0.81760    0.94190    1.000
    C47      C        0.86460    0.83090    0.90490    1.000
    H29      H        0.87730    0.86640    0.92930    1.000
    C48      C        0.75760    0.71560    0.88140    1.000
    H30      H        0.74850    0.67250    0.85970    1.000
    O13      O        0.96070    0.94560    0.42950    1.000
    O14      O        0.95390    0.86300    0.50010    1.000
    C49      C        0.94250    0.89290    0.45760    1.000
    C50      C        0.89950    0.86090    0.43590    1.000
    C51      C        0.88450    0.89030    0.38940    1.000
    H31      H        0.90040    0.92990    0.37090    1.000
    C52      C        0.84400    0.85960    0.36960    1.000
    H32      H        0.83340    0.87910    0.33800    1.000
    C53      C        0.82130    0.80240    0.39680    1.000
    C54      C        0.83660    0.77370    0.44250    1.000
    H33      H        0.82050    0.73390    0.46060    1.000
    C55      C        0.87680    0.80260    0.46380    1.000
    H34      H        0.88720    0.78260    0.49540    1.000
    C56      C        0.77880    0.77240    0.37360    1.000
    H35      H        0.77780    0.76980    0.33750    1.000
    O15      O        0.95440    0.91400    0.00100    1.000
    O16      O        0.95370    0.98890    0.07550    1.000
    C57      C        0.94000    0.93640    0.04400    1.000
    C58      C        0.89860    0.89260    0.06180    1.000
    C59      C        0.88100    0.83370    0.02960    1.000
    H36      H        0.89420    0.82100    0.99790    1.000
    C60      C        0.84200    0.79210    0.04540    1.000
    H37      H        0.83010    0.75180    0.02350    1.000
    C61      C        0.82160    0.80820    0.09070    1.000
    C62      C        0.83890    0.86630    0.12250    1.000
    H38      H        0.82530    0.87860    0.15400    1.000
    C63      C        0.87790    0.90910    0.10780    1.000
    H39      H        0.88960    0.94910    0.13010    1.000
    C64      C        0.78080    0.75810    0.10100    1.000
    H40      H        0.77910    0.70610    0.08490    1.000
    Tm4      Tm       0.99989    0.09772    0.06366    1.000
    Tm5      Tm       0.00043    0.20806    0.25111    1.000
    Tm6      Tm       0.99970    0.06909    0.43751    1.000
    O17      O        0.94720    0.19820    0.19870    1.000
    O18      O        0.95740    0.14250    0.12320    1.000
    C65      C        0.93340    0.17870    0.15500    1.000
    C66      C        0.88650    0.20060    0.14180    1.000
    C67      C        0.85900    0.24050    0.17560    1.000
    H41      H        0.86930    0.25530    0.20840    1.000
    C68      C        0.81510    0.25980    0.16170    1.000
    H42      H        0.79690    0.28700    0.18540    1.000
    C69      C        0.79950    0.23910    0.11440    1.000
    C70      C        0.82580    0.19970    0.08030    1.000
    H43      H        0.81520    0.18500    0.04760    1.000
    C71      C        0.86980    0.18050    0.09420    1.000
    H44      H        0.88760    0.15350    0.07010    1.000
    C72      C        0.75270    0.26260    0.10360    1.000
    H45      H        0.73980    0.23240    0.07670    1.000
    O19      O        0.04900    0.22060    0.18370    1.000
    O20      O        0.05550    0.12100    0.12170    1.000
    C73      C        0.06840    0.17870    0.15020    1.000
    C74      C        0.11600    0.20430    0.14420    1.000
    C75      C        0.13330    0.26740    0.17360    1.000
    H46      H        0.11580    0.29500    0.19780    1.000
    C76      C        0.17800    0.29090    0.16770    1.000
    H47      H        0.18980    0.33360    0.18780    1.000
    C77      C        0.20300    0.25070    0.13240    1.000
    C78      C        0.18710    0.18840    0.10270    1.000
    H48      H        0.20490    0.16150    0.07850    1.000
    C79      C        0.14240    0.16490    0.10900    1.000
    H49      H        0.13100    0.12180    0.08890    1.000
    C80      C        0.24990    0.27810    0.12800    1.000
    H50      H        0.25700    0.32040    0.15140    1.000
    O21      O        0.54080    0.47840    0.06330    1.000
    O22      O        0.54550    0.37640    0.00540    1.000
    C81      C        0.55950    0.41810    0.04270    1.000
    C82      C        0.60350    0.39200    0.06450    1.000
    C83      C        0.62140    0.43440    0.10550    1.000
    H51      H        0.60700    0.47970    0.12050    1.000
    C84      C        0.66290    0.40730    0.12440    1.000
    H52      H        0.67560    0.43540    0.15230    1.000
    C85      C        0.68430    0.34210    0.10310    1.000
    C86      C        0.66660    0.30020    0.06280    1.000
    H53      H        0.68140    0.25520    0.04800    1.000
    C87      C        0.62520    0.32580    0.04310    1.000
    H54      H        0.61280    0.29720    0.01530    1.000
    C88      C        0.72800    0.31500    0.12410    1.000
    H55      H        0.73740    0.33950    0.15500    1.000
    O23      O        0.04630    0.09750    0.99250    1.000
    O24      O        0.05560    0.02030    0.92000    1.000
    C89      C        0.06570    0.07400    0.95280    1.000
    C90      C        0.10870    0.11860    0.94300    1.000
    C91      C        0.12480    0.17930    0.97500    1.000
    H56      H        0.10900    0.19470    0.00440    1.000
    C92      C        0.16540    0.21930    0.96430    1.000
    H57      H        0.17550    0.26050    0.98690    1.000
    C93      C        0.18980    0.19950    0.92230    1.000
    C94      C        0.17470    0.13970    0.89010    1.000
    H58      H        0.19090    0.12470    0.86080    1.000
    C95      C        0.13400    0.09980    0.90080    1.000
    H59      H        0.12420    0.05880    0.87790    1.000
    C96      C        0.23230    0.24530    0.91440    1.000
    H60      H        0.23920    0.29330    0.93310    1.000
    O25      O        0.05490    0.17710    0.30390    1.000
    O26      O        0.05050    0.09340    0.37130    1.000
    C97      C        0.07020    0.14470    0.34380    1.000
    C98      C        0.11600    0.17400    0.35640    1.000
    C99      C        0.13780    0.23070    0.32610    1.000
    H61      H        0.12390    0.25230    0.29680    1.000
    C100     C        0.18100    0.25770    0.33810    1.000
    H62      H        0.19570    0.29610    0.31730    1.000
    C101     C        0.19970    0.22530    0.38110    1.000
    C102     C        0.17920    0.16940    0.41170    1.000
    H63      H        0.19340    0.14830    0.44100    1.000
    C103     C        0.13610    0.14240    0.39950    1.000
    H64      H        0.12170    0.10380    0.42060    1.000
    C104     C        0.24530    0.25080    0.39660    1.000
    H65      H        0.24910    0.25010    0.43250    1.000
    O27      O        0.45210    0.31240    0.81250    1.000
    O28      O        0.45070    0.38510    0.88570    1.000
    C105     C        0.43430    0.33790    0.85290    1.000
    C106     C        0.38800    0.30760    0.86210    1.000
    C107     C        0.36920    0.25540    0.82640    1.000
    H66      H        0.38480    0.23890    0.79710    1.000
    C108     C        0.32570    0.22640    0.83430    1.000
    H67      H        0.31270    0.19100    0.81010    1.000
    C109     C        0.30330    0.25020    0.87690    1.000
    C110     C        0.32110    0.30160    0.91270    1.000
    H68      H        0.30520    0.31760    0.94190    1.000
    C111     C        0.36460    0.33090    0.90490    1.000
    H69      H        0.37730    0.36640    0.92930    1.000
    C112     C        0.25760    0.21560    0.88140    1.000
    H70      H        0.24850    0.17250    0.85970    1.000
    O29      O        0.46070    0.44560    0.42950    1.000
    O30      O        0.45390    0.36300    0.50010    1.000
    C113     C        0.44250    0.39290    0.45760    1.000
    C114     C        0.39950    0.36090    0.43590    1.000
    C115     C        0.38450    0.39030    0.38940    1.000
    H71      H        0.40040    0.42990    0.37090    1.000
    C116     C        0.34400    0.35960    0.36960    1.000
    H72      H        0.33340    0.37910    0.33800    1.000
    C117     C        0.32130    0.30240    0.39680    1.000
    C118     C        0.33660    0.27370    0.44250    1.000
    H73      H        0.32050    0.23390    0.46060    1.000
    C119     C        0.37680    0.30260    0.46380    1.000
    H74      H        0.38720    0.28260    0.49540    1.000
    C120     C        0.27880    0.27240    0.37360    1.000
    H75      H        0.27780    0.26980    0.33750    1.000
    O31      O        0.45440    0.41400    0.00100    1.000
    O32      O        0.45370    0.48890    0.07550    1.000
    C121     C        0.44000    0.43640    0.04400    1.000
    C122     C        0.39860    0.39260    0.06180    1.000
    C123     C        0.38100    0.33370    0.02960    1.000
    H76      H        0.39420    0.32100    0.99790    1.000
    C124     C        0.34200    0.29210    0.04540    1.000
    H77      H        0.33010    0.25180    0.02350    1.000
    C125     C        0.32160    0.30820    0.09070    1.000
    C126     C        0.33890    0.36630    0.12250    1.000
    H78      H        0.32530    0.37860    0.15400    1.000
    C127     C        0.37790    0.40910    0.10780    1.000
    H79      H        0.38960    0.44910    0.13010    1.000
    C128     C        0.28080    0.25810    0.10100    1.000
    H80      H        0.27910    0.20610    0.08490    1.000
    Tm7      Tm       0.49989    0.40228    0.56366    1.000
    Tm8      Tm       0.50043    0.29194    0.75111    1.000
    Tm9      Tm       0.49970    0.43091    0.93751    1.000
    O33      O        0.44720    0.30180    0.69870    1.000
    O34      O        0.45740    0.35750    0.62320    1.000
    C129     C        0.43340    0.32130    0.65500    1.000
    C130     C        0.38650    0.29940    0.64180    1.000
    C131     C        0.35900    0.25950    0.67560    1.000
    H81      H        0.36930    0.24470    0.70840    1.000
    C132     C        0.31510    0.24020    0.66170    1.000
    H82      H        0.29690    0.21300    0.68540    1.000
    C133     C        0.29950    0.26090    0.61440    1.000
    C134     C        0.32580    0.30030    0.58030    1.000
    H83      H        0.31520    0.31500    0.54760    1.000
    C135     C        0.36980    0.31950    0.59420    1.000
    H84      H        0.38760    0.34650    0.57010    1.000
    C136     C        0.25270    0.23740    0.60360    1.000
    H85      H        0.23980    0.26760    0.57670    1.000
    O35      O        0.54900    0.27940    0.68370    1.000
    O36      O        0.55550    0.37900    0.62170    1.000
    C137     C        0.56840    0.32130    0.65020    1.000
    C138     C        0.61600    0.29570    0.64420    1.000
    C139     C        0.63330    0.23260    0.67360    1.000
    H86      H        0.61580    0.20500    0.69780    1.000
    C140     C        0.67800    0.20910    0.66770    1.000
    H87      H        0.68980    0.16640    0.68780    1.000
    C141     C        0.70300    0.24930    0.63240    1.000
    C142     C        0.68710    0.31160    0.60270    1.000
    H88      H        0.70490    0.33850    0.57850    1.000
    C143     C        0.64240    0.33510    0.60900    1.000
    H89      H        0.63100    0.37820    0.58890    1.000
    C144     C        0.74990    0.22190    0.62800    1.000
    H90      H        0.75700    0.17960    0.65140    1.000
    O37      O        0.04080    0.02160    0.56330    1.000
    O38      O        0.04550    0.12360    0.50540    1.000
    C145     C        0.05950    0.08190    0.54270    1.000
    C146     C        0.10350    0.10800    0.56450    1.000
    C147     C        0.12140    0.06560    0.60550    1.000
    H91      H        0.10700    0.02030    0.62050    1.000
    C148     C        0.16290    0.09270    0.62440    1.000
    H92      H        0.17560    0.06460    0.65230    1.000
    C149     C        0.18430    0.15790    0.60310    1.000
    C150     C        0.16660    0.19980    0.56280    1.000
    H93      H        0.18140    0.24480    0.54800    1.000
    C151     C        0.12520    0.17420    0.54310    1.000
    H94      H        0.11280    0.20280    0.51530    1.000
    C152     C        0.22800    0.18500    0.62410    1.000
    H95      H        0.23740    0.16050    0.65500    1.000
    O39      O        0.54630    0.40250    0.49250    1.000
    O40      O        0.55560    0.47970    0.42000    1.000
    C153     C        0.56570    0.42600    0.45280    1.000
    C154     C        0.60870    0.38140    0.44300    1.000
    C155     C        0.62480    0.32070    0.47500    1.000
    H96      H        0.60900    0.30530    0.50440    1.000
    C156     C        0.66540    0.28070    0.46430    1.000
    H97      H        0.67550    0.23950    0.48690    1.000
    C157     C        0.68980    0.30050    0.42230    1.000
    C158     C        0.67470    0.36030    0.39010    1.000
    H98      H        0.69090    0.37530    0.36080    1.000
    C159     C        0.63400    0.40020    0.40080    1.000
    H99      H        0.62420    0.44120    0.37790    1.000
    C160     C        0.73230    0.25470    0.41440    1.000
    H100     H        0.73920    0.20670    0.43310    1.000
    O41      O        0.55490    0.32290    0.80390    1.000
    O42      O        0.55050    0.40660    0.87130    1.000
    C161     C        0.57020    0.35530    0.84380    1.000
    C162     C        0.61600    0.32600    0.85640    1.000
    C163     C        0.63780    0.26930    0.82610    1.000
    H101     H        0.62390    0.24770    0.79680    1.000
    C164     C        0.68100    0.24230    0.83810    1.000
    H102     H        0.69570    0.20390    0.81730    1.000
    C165     C        0.69970    0.27470    0.88110    1.000
    C166     C        0.67920    0.33060    0.91170    1.000
    H103     H        0.69340    0.35170    0.94100    1.000
    C167     C        0.63610    0.35760    0.89950    1.000
    H104     H        0.62170    0.39620    0.92060    1.000
    C168     C        0.74530    0.24920    0.89660    1.000
    H105     H        0.74910    0.24990    0.93250    1.000
    O43      O        0.95210    0.18760    0.31250    1.000
    O44      O        0.95070    0.11490    0.38570    1.000
    C169     C        0.93430    0.16210    0.35290    1.000
    C170     C        0.88800    0.19240    0.36210    1.000
    C171     C        0.86920    0.24460    0.32640    1.000
    H106     H        0.88480    0.26110    0.29710    1.000
    C172     C        0.82570    0.27360    0.33430    1.000
    H107     H        0.81270    0.30900    0.31010    1.000
    C173     C        0.80330    0.24980    0.37690    1.000
    C174     C        0.82110    0.19840    0.41270    1.000
    H108     H        0.80520    0.18240    0.44190    1.000
    C175     C        0.86460    0.16910    0.40490    1.000
    H109     H        0.87730    0.13360    0.42930    1.000
    C176     C        0.75760    0.28440    0.38140    1.000
    H110     H        0.74850    0.32750    0.35970    1.000
    O45      O        0.96070    0.05440    0.92950    1.000
    O46      O        0.95390    0.13700    0.00010    1.000
    C177     C        0.94250    0.10710    0.95760    1.000
    C178     C        0.89950    0.13910    0.93590    1.000
    C179     C        0.88450    0.10970    0.88940    1.000
    H111     H        0.90040    0.07010    0.87090    1.000
    C180     C        0.84400    0.14040    0.86960    1.000
    H112     H        0.83340    0.12090    0.83800    1.000
    C181     C        0.82130    0.19760    0.89680    1.000
    C182     C        0.83660    0.22630    0.94250    1.000
    H113     H        0.82050    0.26610    0.96060    1.000
    C183     C        0.87680    0.19740    0.96380    1.000
    H114     H        0.88720    0.21740    0.99540    1.000
    C184     C        0.77880    0.22760    0.87360    1.000
    H115     H        0.77780    0.23020    0.83750    1.000
    O47      O        0.95440    0.08600    0.50100    1.000
    O48      O        0.95370    0.01110    0.57550    1.000
    C185     C        0.94000    0.06360    0.54400    1.000
    C186     C        0.89860    0.10740    0.56180    1.000
    C187     C        0.88100    0.16630    0.52960    1.000
    H116     H        0.89420    0.17900    0.49790    1.000
    C188     C        0.84200    0.20790    0.54540    1.000
    H117     H        0.83010    0.24820    0.52350    1.000
    C189     C        0.82160    0.19180    0.59070    1.000
    C190     C        0.83890    0.13370    0.62250    1.000
    H118     H        0.82530    0.12140    0.65400    1.000
    C191     C        0.87790    0.09090    0.60780    1.000
    H119     H        0.88960    0.05090    0.63010    1.000
    C192     C        0.78080    0.24190    0.60100    1.000
    H120     H        0.77910    0.29390    0.58490    1.000
    Tm10     Tm       0.99989    0.90228    0.56366    1.000
    Tm11     Tm       0.00043    0.79194    0.75111    1.000
    Tm12     Tm       0.99970    0.93091    0.93751    1.000
    O49      O        0.94720    0.80180    0.69870    1.000
    O50      O        0.95740    0.85750    0.62320    1.000
    C193     C        0.93340    0.82130    0.65500    1.000
    C194     C        0.88650    0.79940    0.64180    1.000
    C195     C        0.85900    0.75950    0.67560    1.000
    H121     H        0.86930    0.74470    0.70840    1.000
    C196     C        0.81510    0.74020    0.66170    1.000
    H122     H        0.79690    0.71300    0.68540    1.000
    C197     C        0.79950    0.76090    0.61440    1.000
    C198     C        0.82580    0.80030    0.58030    1.000
    H123     H        0.81520    0.81500    0.54760    1.000
    C199     C        0.86980    0.81950    0.59420    1.000
    H124     H        0.88760    0.84650    0.57010    1.000
    C200     C        0.75270    0.73740    0.60360    1.000
    H125     H        0.73980    0.76760    0.57670    1.000
    O51      O        0.04900    0.77940    0.68370    1.000
    O52      O        0.05550    0.87900    0.62170    1.000
    C201     C        0.06840    0.82130    0.65020    1.000
    C202     C        0.11600    0.79570    0.64420    1.000
    C203     C        0.13330    0.73260    0.67360    1.000
    H126     H        0.11580    0.70500    0.69780    1.000
    C204     C        0.17800    0.70910    0.66770    1.000
    H127     H        0.18980    0.66640    0.68780    1.000
    C205     C        0.20300    0.74930    0.63240    1.000
    C206     C        0.18710    0.81160    0.60270    1.000
    H128     H        0.20490    0.83850    0.57850    1.000
    C207     C        0.14240    0.83510    0.60900    1.000
    H129     H        0.13100    0.87820    0.58890    1.000
    C208     C        0.24990    0.72190    0.62800    1.000
    H130     H        0.25700    0.67960    0.65140    1.000
    O53      O        0.54080    0.52160    0.56330    1.000
    O54      O        0.54550    0.62360    0.50540    1.000
    C209     C        0.55950    0.58190    0.54270    1.000
    C210     C        0.60350    0.60800    0.56450    1.000
    C211     C        0.62140    0.56560    0.60550    1.000
    H131     H        0.60700    0.52030    0.62050    1.000
    C212     C        0.66290    0.59270    0.62440    1.000
    H132     H        0.67560    0.56460    0.65230    1.000
    C213     C        0.68430    0.65790    0.60310    1.000
    C214     C        0.66660    0.69980    0.56280    1.000
    H133     H        0.68140    0.74480    0.54800    1.000
    C215     C        0.62520    0.67420    0.54310    1.000
    H134     H        0.61280    0.70280    0.51530    1.000
    C216     C        0.72800    0.68500    0.62410    1.000
    H135     H        0.73740    0.66050    0.65500    1.000
    O55      O        0.04630    0.90250    0.49250    1.000
    O56      O        0.05560    0.97970    0.42000    1.000
    C217     C        0.06570    0.92600    0.45280    1.000
    C218     C        0.10870    0.88140    0.44300    1.000
    C219     C        0.12480    0.82070    0.47500    1.000
    H136     H        0.10900    0.80530    0.50440    1.000
    C220     C        0.16540    0.78070    0.46430    1.000
    H137     H        0.17550    0.73950    0.48690    1.000
    C221     C        0.18980    0.80050    0.42230    1.000
    C222     C        0.17470    0.86030    0.39010    1.000
    H138     H        0.19090    0.87530    0.36080    1.000
    C223     C        0.13400    0.90020    0.40080    1.000
    H139     H        0.12420    0.94120    0.37790    1.000
    C224     C        0.23230    0.75470    0.41440    1.000
    H140     H        0.23920    0.70670    0.43310    1.000
    O57      O        0.05490    0.82290    0.80390    1.000
    O58      O        0.05050    0.90660    0.87130    1.000
    C225     C        0.07020    0.85530    0.84380    1.000
    C226     C        0.11600    0.82600    0.85640    1.000
    C227     C        0.13780    0.76930    0.82610    1.000
    H141     H        0.12390    0.74770    0.79680    1.000
    C228     C        0.18100    0.74230    0.83810    1.000
    H142     H        0.19570    0.70390    0.81730    1.000
    C229     C        0.19970    0.77470    0.88110    1.000
    C230     C        0.17920    0.83060    0.91170    1.000
    H143     H        0.19340    0.85170    0.94100    1.000
    C231     C        0.13610    0.85760    0.89950    1.000
    H144     H        0.12170    0.89620    0.92060    1.000
    C232     C        0.24530    0.74920    0.89660    1.000
    H145     H        0.24910    0.74990    0.93250    1.000
    O59      O        0.45210    0.68760    0.31250    1.000
    O60      O        0.45070    0.61490    0.38570    1.000
    C233     C        0.43430    0.66210    0.35290    1.000
    C234     C        0.38800    0.69240    0.36210    1.000
    C235     C        0.36920    0.74460    0.32640    1.000
    H146     H        0.38480    0.76110    0.29710    1.000
    C236     C        0.32570    0.77360    0.33430    1.000
    H147     H        0.31270    0.80900    0.31010    1.000
    C237     C        0.30330    0.74980    0.37690    1.000
    C238     C        0.32110    0.69840    0.41270    1.000
    H148     H        0.30520    0.68240    0.44190    1.000
    C239     C        0.36460    0.66910    0.40490    1.000
    H149     H        0.37730    0.63360    0.42930    1.000
    C240     C        0.25760    0.78440    0.38140    1.000
    H150     H        0.24850    0.82750    0.35970    1.000
    O61      O        0.46070    0.55440    0.92950    1.000
    O62      O        0.45390    0.63700    0.00010    1.000
    C241     C        0.44250    0.60710    0.95760    1.000
    C242     C        0.39950    0.63910    0.93590    1.000
    C243     C        0.38450    0.60970    0.88940    1.000
    H151     H        0.40040    0.57010    0.87090    1.000
    C244     C        0.34400    0.64040    0.86960    1.000
    H152     H        0.33340    0.62090    0.83800    1.000
    C245     C        0.32130    0.69760    0.89680    1.000
    C246     C        0.33660    0.72630    0.94250    1.000
    H153     H        0.32050    0.76610    0.96060    1.000
    C247     C        0.37680    0.69740    0.96380    1.000
    H154     H        0.38720    0.71740    0.99540    1.000
    C248     C        0.27880    0.72760    0.87360    1.000
    H155     H        0.27780    0.73020    0.83750    1.000
    O63      O        0.45440    0.58600    0.50100    1.000
    O64      O        0.45370    0.51110    0.57550    1.000
    C249     C        0.44000    0.56360    0.54400    1.000
    C250     C        0.39860    0.60740    0.56180    1.000
    C251     C        0.38100    0.66630    0.52960    1.000
    H156     H        0.39420    0.67900    0.49790    1.000
    C252     C        0.34200    0.70790    0.54540    1.000
    H157     H        0.33010    0.74820    0.52350    1.000
    C253     C        0.32160    0.69180    0.59070    1.000
    C254     C        0.33890    0.63370    0.62250    1.000
    H158     H        0.32530    0.62140    0.65400    1.000
    C255     C        0.37790    0.59090    0.60780    1.000
    H159     H        0.38960    0.55090    0.63010    1.000
    C256     C        0.28080    0.74190    0.60100    1.000
    H160     H        0.27910    0.79390    0.58490    1.000
