data_functionalizedCrystal
_audit_creation_method	'EQeq! by Chris Wilmer'
_symmetry_space_group_name_H-M	'P1'
_symmetry_Int_Tables_number	1
_symmetry_cell_setting	triclinic
loop_
_symmetry_equiv_pos_as_xyz
  x,y,z
_cell_length_a	18.476
_cell_length_b	18.476
_cell_length_c	59.999
_cell_angle_alpha	90
_cell_angle_beta	90
_cell_angle_gamma	90
loop_
_atom_site_label
_atom_site_type_symbol
_atom_site_fract_x
_atom_site_fract_y
_atom_site_fract_z
_atom_site_charge
Mof_O 	O 	0.2954	0.1942	0.21978	-0.392
Mof_O 	O 	0.2368	0.1306	0.24736	-0.395
Mof_C 	C 	0.3684	0.9497	0.1233	-0.052
Mof_H 	H 	0.3535	0.9163	0.1127	0.056
Mof_C 	C 	0.3389	0.9507	0.1453	-0.027
Mof_H 	H 	0.3063	0.9146	0.1493	0.041
Mof_C 	C 	0.3086	0.0654	0.19455	-0.03
Mof_H 	H 	0.3159	0.1086	0.187	0.053
Mof_C 	C 	0.2838	0.0666	0.21656	-0.06
Mof_C 	C 	0.2714	0.1351	0.22915	0.318
Mof_C 	C 	0.431	0.9407	0.1329	-0.024
Mof_H 	H 	0.4597	0.903	0.1277	0.035
Mof_C 	C 	0.4032	0.9353	0.1537	-0.056
Mof_H 	H 	0.412	0.8964	0.1631	0.05
Mof_O 	O 	0.7954	0.6942	0.71978	-0.392
Mof_O 	O 	0.7368	0.6306	0.74736	-0.395
Mof_C 	C 	0.8684	0.4497	0.6233	-0.052
Mof_H 	H 	0.8535	0.4163	0.6127	0.054
Mof_C 	C 	0.8389	0.4507	0.6453	-0.032
Mof_H 	H 	0.8063	0.4146	0.6493	0.042
Mof_C 	C 	0.8086	0.5654	0.69455	-0.03
Mof_H 	H 	0.8159	0.6086	0.687	0.054
Mof_C 	C 	0.7838	0.5666	0.71656	-0.06
Mof_C 	C 	0.7714	0.6351	0.72915	0.319
Mof_C 	C 	0.931	0.4407	0.6329	-0.028
Mof_H 	H 	0.9597	0.403	0.6277	0.037
Mof_C 	C 	0.9032	0.4353	0.6537	-0.054
Mof_H 	H 	0.912	0.3964	0.6631	0.049
Mof_O 	O 	0.7046	0.8058	0.21978	-0.392
Mof_O 	O 	0.7632	0.8694	0.24736	-0.394
Mof_C 	C 	0.6316	0.0503	0.1233	-0.05
Mof_H 	H 	0.6465	0.0837	0.1127	0.053
Mof_C 	C 	0.6611	0.0493	0.1453	-0.034
Mof_H 	H 	0.6937	0.0854	0.1493	0.042
Mof_C 	C 	0.6914	0.9346	0.19455	-0.028
Mof_H 	H 	0.6841	0.8914	0.187	0.053
Mof_C 	C 	0.7162	0.9334	0.21656	-0.058
Mof_C 	C 	0.7286	0.8649	0.22915	0.318
Mof_C 	C 	0.569	0.0593	0.1329	-0.03
Mof_H 	H 	0.5403	0.097	0.1277	0.037
Mof_C 	C 	0.5968	0.0647	0.1537	-0.053
Mof_H 	H 	0.588	0.1036	0.1631	0.048
Mof_O 	O 	0.2046	0.3058	0.71978	-0.393
Mof_O 	O 	0.2632	0.3694	0.74736	-0.395
Mof_C 	C 	0.1316	0.5503	0.6233	-0.053
Mof_H 	H 	0.1465	0.5837	0.6127	0.054
Mof_C 	C 	0.1611	0.5493	0.6453	-0.031
Mof_H 	H 	0.1937	0.5854	0.6493	0.042
Mof_C 	C 	0.1914	0.4346	0.69455	-0.03
Mof_H 	H 	0.1841	0.3914	0.687	0.053
Mof_C 	C 	0.2162	0.4334	0.71656	-0.061
Mof_C 	C 	0.2286	0.3649	0.72915	0.319
Mof_C 	C 	0.069	0.5593	0.6329	-0.029
Mof_H 	H 	0.0403	0.597	0.6277	0.036
Mof_C 	C 	0.0968	0.5647	0.6537	-0.054
Mof_H 	H 	0.088	0.6036	0.6631	0.049
Mof_O 	O 	0.8058	0.2954	0.21978	-0.392
Mof_O 	O 	0.8694	0.2368	0.24736	-0.395
Mof_C 	C 	0.0503	0.3684	0.1233	-0.05
Mof_H 	H 	0.0837	0.3535	0.1127	0.053
Mof_C 	C 	0.0493	0.3389	0.1453	-0.034
Mof_H 	H 	0.0854	0.3063	0.1493	0.042
Mof_C 	C 	0.9346	0.3086	0.19455	-0.028
Mof_H 	H 	0.8914	0.3159	0.187	0.053
Mof_C 	C 	0.9334	0.2838	0.21656	-0.058
Mof_C 	C 	0.8649	0.2714	0.22915	0.318
Mof_C 	C 	0.0593	0.431	0.1329	-0.03
Mof_H 	H 	0.097	0.4597	0.1277	0.037
Mof_C 	C 	0.0647	0.4032	0.1537	-0.053
Mof_H 	H 	0.1036	0.412	0.1631	0.048
Mof_O 	O 	0.3058	0.7954	0.71978	-0.392
Mof_O 	O 	0.3694	0.7368	0.74736	-0.395
Mof_C 	C 	0.5503	0.8684	0.6233	-0.052
Mof_H 	H 	0.5837	0.8535	0.6127	0.054
Mof_C 	C 	0.5493	0.8389	0.6453	-0.032
Mof_H 	H 	0.5854	0.8063	0.6493	0.042
Mof_C 	C 	0.4346	0.8086	0.69455	-0.03
Mof_H 	H 	0.3914	0.8159	0.687	0.054
Mof_C 	C 	0.4334	0.7838	0.71656	-0.06
Mof_C 	C 	0.3649	0.7714	0.72915	0.319
Mof_C 	C 	0.5593	0.931	0.6329	-0.028
Mof_H 	H 	0.597	0.9597	0.6277	0.037
Mof_C 	C 	0.5647	0.9032	0.6537	-0.054
Mof_H 	H 	0.6036	0.912	0.6631	0.05
Mof_O 	O 	0.1942	0.7046	0.21978	-0.393
Mof_O 	O 	0.1306	0.7632	0.24736	-0.395
Mof_C 	C 	0.9497	0.6316	0.1233	-0.053
Mof_H 	H 	0.9163	0.6465	0.1127	0.055
Mof_C 	C 	0.9507	0.6611	0.1453	-0.027
Mof_H 	H 	0.9146	0.6937	0.1493	0.041
Mof_C 	C 	0.0654	0.6914	0.19455	-0.03
Mof_H 	H 	0.1086	0.6841	0.187	0.054
Mof_C 	C 	0.0666	0.7162	0.21656	-0.06
Mof_C 	C 	0.1351	0.7286	0.22915	0.318
Mof_C 	C 	0.9407	0.569	0.1329	-0.024
Mof_H 	H 	0.903	0.5403	0.1277	0.035
Mof_C 	C 	0.9353	0.5968	0.1537	-0.056
Mof_H 	H 	0.8964	0.588	0.1631	0.05
Mof_O 	O 	0.6942	0.2046	0.71978	-0.393
Mof_O 	O 	0.6306	0.2632	0.74736	-0.395
Mof_C 	C 	0.4497	0.1316	0.6233	-0.052
Mof_H 	H 	0.4163	0.1465	0.6127	0.054
Mof_C 	C 	0.4507	0.1611	0.6453	-0.031
Mof_H 	H 	0.4146	0.1937	0.6493	0.041
Mof_C 	C 	0.5654	0.1914	0.69455	-0.03
Mof_H 	H 	0.6086	0.1841	0.687	0.053
Mof_C 	C 	0.5666	0.2162	0.71656	-0.061
Mof_C 	C 	0.6351	0.2286	0.72915	0.319
Mof_C 	C 	0.4407	0.069	0.6329	-0.029
Mof_H 	H 	0.403	0.0403	0.6277	0.036
Mof_C 	C 	0.4353	0.0968	0.6537	-0.054
Mof_H 	H 	0.3964	0.088	0.6631	0.049
Mof_O 	O 	0.7046	0.1942	0.78022	-0.393
Mof_O 	O 	0.7632	0.1306	0.75264	-0.395
Mof_C 	C 	0.6316	0.9497	0.8767	-0.053
Mof_H 	H 	0.6465	0.9163	0.8873	0.055
Mof_C 	C 	0.6611	0.9507	0.8547	-0.027
Mof_H 	H 	0.6937	0.9146	0.8507	0.041
Mof_C 	C 	0.6914	0.0654	0.80545	-0.03
Mof_H 	H 	0.6841	0.1086	0.813	0.054
Mof_C 	C 	0.7162	0.0666	0.78344	-0.06
Mof_C 	C 	0.7286	0.1351	0.77085	0.318
Mof_C 	C 	0.569	0.9407	0.8671	-0.024
Mof_H 	H 	0.5403	0.903	0.8723	0.035
Mof_C 	C 	0.5968	0.9353	0.8463	-0.056
Mof_H 	H 	0.588	0.8964	0.8369	0.05
Mof_O 	O 	0.2046	0.6942	0.28022	-0.393
Mof_O 	O 	0.2632	0.6306	0.25264	-0.395
Mof_C 	C 	0.1316	0.4497	0.3767	-0.052
Mof_H 	H 	0.1465	0.4163	0.3873	0.054
Mof_C 	C 	0.1611	0.4507	0.3547	-0.031
Mof_H 	H 	0.1937	0.4146	0.3507	0.041
Mof_C 	C 	0.1914	0.5654	0.30545	-0.03
Mof_H 	H 	0.1841	0.6086	0.313	0.053
Mof_C 	C 	0.2162	0.5666	0.28344	-0.061
Mof_C 	C 	0.2286	0.6351	0.27085	0.319
Mof_C 	C 	0.069	0.4407	0.3671	-0.029
Mof_H 	H 	0.0403	0.403	0.3723	0.036
Mof_C 	C 	0.0968	0.4353	0.3463	-0.054
Mof_H 	H 	0.088	0.3964	0.3369	0.049
Mof_O 	O 	0.2954	0.8058	0.78022	-0.392
Mof_O 	O 	0.2368	0.8694	0.75264	-0.395
Mof_C 	C 	0.3684	0.0503	0.8767	-0.05
Mof_H 	H 	0.3535	0.0837	0.8873	0.053
Mof_C 	C 	0.3389	0.0493	0.8547	-0.034
Mof_H 	H 	0.3063	0.0854	0.8507	0.042
Mof_C 	C 	0.3086	0.9346	0.80545	-0.028
Mof_H 	H 	0.3159	0.8914	0.813	0.053
Mof_C 	C 	0.2838	0.9334	0.78344	-0.058
Mof_C 	C 	0.2714	0.8649	0.77085	0.318
Mof_C 	C 	0.431	0.0593	0.8671	-0.03
Mof_H 	H 	0.4597	0.097	0.8723	0.037
Mof_C 	C 	0.4032	0.0647	0.8463	-0.053
Mof_H 	H 	0.412	0.1036	0.8369	0.048
Mof_O 	O 	0.7954	0.3058	0.28022	-0.392
Mof_O 	O 	0.7368	0.3694	0.25264	-0.395
Mof_C 	C 	0.8684	0.5503	0.3767	-0.052
Mof_H 	H 	0.8535	0.5837	0.3873	0.054
Mof_C 	C 	0.8389	0.5493	0.3547	-0.032
Mof_H 	H 	0.8063	0.5854	0.3507	0.042
Mof_C 	C 	0.8086	0.4346	0.30545	-0.03
Mof_H 	H 	0.8159	0.3914	0.313	0.054
Mof_C 	C 	0.7838	0.4334	0.28344	-0.06
Mof_C 	C 	0.7714	0.3649	0.27085	0.319
Mof_C 	C 	0.931	0.5593	0.3671	-0.028
Mof_H 	H 	0.9597	0.597	0.3723	0.037
Mof_C 	C 	0.9032	0.5647	0.3463	-0.054
Mof_H 	H 	0.912	0.6036	0.3369	0.05
Mof_O 	O 	0.1942	0.2954	0.78022	-0.393
Mof_O 	O 	0.1306	0.2368	0.75264	-0.396
Mof_C 	C 	0.9497	0.3684	0.8767	-0.053
Mof_H 	H 	0.9163	0.3535	0.8873	0.054
Mof_C 	C 	0.9507	0.3389	0.8547	-0.027
Mof_H 	H 	0.9146	0.3063	0.8507	0.041
Mof_C 	C 	0.0654	0.3086	0.80545	-0.03
Mof_H 	H 	0.1086	0.3159	0.813	0.053
Mof_C 	C 	0.0666	0.2838	0.78344	-0.06
Mof_C 	C 	0.1351	0.2714	0.77085	0.318
Mof_C 	C 	0.9407	0.431	0.8671	-0.024
Mof_H 	H 	0.903	0.4597	0.8723	0.035
Mof_C 	C 	0.9353	0.4032	0.8463	-0.056
Mof_H 	H 	0.8964	0.412	0.8369	0.05
Mof_O 	O 	0.6942	0.7954	0.28022	-0.392
Mof_O 	O 	0.6306	0.7368	0.25264	-0.395
Mof_C 	C 	0.4497	0.8684	0.3767	-0.052
Mof_H 	H 	0.4163	0.8535	0.3873	0.054
Mof_C 	C 	0.4507	0.8389	0.3547	-0.032
Mof_H 	H 	0.4146	0.8063	0.3507	0.042
Mof_C 	C 	0.5654	0.8086	0.30545	-0.03
Mof_H 	H 	0.6086	0.8159	0.313	0.054
Mof_C 	C 	0.5666	0.7838	0.28344	-0.06
Mof_C 	C 	0.6351	0.7714	0.27085	0.319
Mof_C 	C 	0.4407	0.931	0.3671	-0.028
Mof_H 	H 	0.403	0.9597	0.3723	0.037
Mof_C 	C 	0.4353	0.9032	0.3463	-0.054
Mof_H 	H 	0.3964	0.912	0.3369	0.049
Mof_O 	O 	0.8058	0.7046	0.78022	-0.392
Mof_O 	O 	0.8694	0.7632	0.75264	-0.394
Mof_C 	C 	0.0503	0.6316	0.8767	-0.05
Mof_H 	H 	0.0837	0.6465	0.8873	0.053
Mof_C 	C 	0.0493	0.6611	0.8547	-0.034
Mof_H 	H 	0.0854	0.6937	0.8507	0.042
Mof_C 	C 	0.9346	0.6914	0.80545	-0.028
Mof_H 	H 	0.8914	0.6841	0.813	0.053
Mof_C 	C 	0.9334	0.7162	0.78344	-0.058
Mof_C 	C 	0.8649	0.7286	0.77085	0.318
Mof_C 	C 	0.0593	0.569	0.8671	-0.03
Mof_H 	H 	0.097	0.5403	0.8723	0.037
Mof_C 	C 	0.0647	0.5968	0.8463	-0.053
Mof_H 	H 	0.1036	0.588	0.8369	0.048
Mof_O 	O 	0.3058	0.2046	0.28022	-0.393
Mof_O 	O 	0.3694	0.2632	0.25264	-0.395
Mof_C 	C 	0.5503	0.1316	0.3767	-0.053
Mof_H 	H 	0.5837	0.1465	0.3873	0.054
Mof_C 	C 	0.5493	0.1611	0.3547	-0.031
Mof_H 	H 	0.5854	0.1937	0.3507	0.042
Mof_C 	C 	0.4346	0.1914	0.30545	-0.03
Mof_H 	H 	0.3914	0.1841	0.313	0.053
Mof_C 	C 	0.4334	0.2162	0.28344	-0.061
Mof_C 	C 	0.3649	0.2286	0.27085	0.319
Mof_C 	C 	0.5593	0.069	0.3671	-0.029
Mof_H 	H 	0.597	0.0403	0.3723	0.036
Mof_C 	C 	0.5647	0.0968	0.3463	-0.054
Mof_H 	H 	0.6036	0.088	0.3369	0.049
Mof_O 	O 	0.7046	0.8058	0.78022	-0.392
Mof_O 	O 	0.7632	0.8694	0.75264	-0.394
Mof_C 	C 	0.6316	0.0503	0.8767	-0.05
Mof_H 	H 	0.6465	0.0837	0.8873	0.053
Mof_C 	C 	0.6611	0.0493	0.8547	-0.034
Mof_H 	H 	0.6937	0.0854	0.8507	0.042
Mof_C 	C 	0.6914	0.9346	0.80545	-0.028
Mof_H 	H 	0.6841	0.8914	0.813	0.053
Mof_C 	C 	0.7162	0.9334	0.78344	-0.058
Mof_C 	C 	0.7286	0.8649	0.77085	0.318
Mof_C 	C 	0.569	0.0593	0.8671	-0.03
Mof_H 	H 	0.5403	0.097	0.8723	0.037
Mof_C 	C 	0.5968	0.0647	0.8463	-0.053
Mof_H 	H 	0.588	0.1036	0.8369	0.048
Mof_O 	O 	0.2046	0.3058	0.28022	-0.393
Mof_O 	O 	0.2632	0.3694	0.25264	-0.395
Mof_C 	C 	0.1316	0.5503	0.3767	-0.053
Mof_H 	H 	0.1465	0.5837	0.3873	0.054
Mof_C 	C 	0.1611	0.5493	0.3547	-0.031
Mof_H 	H 	0.1937	0.5854	0.3507	0.042
Mof_C 	C 	0.1914	0.4346	0.30545	-0.03
Mof_H 	H 	0.1841	0.3914	0.313	0.053
Mof_C 	C 	0.2162	0.4334	0.28344	-0.061
Mof_C 	C 	0.2286	0.3649	0.27085	0.319
Mof_C 	C 	0.069	0.5593	0.3671	-0.029
Mof_H 	H 	0.0403	0.597	0.3723	0.036
Mof_C 	C 	0.0968	0.5647	0.3463	-0.054
Mof_H 	H 	0.088	0.6036	0.3369	0.049
Mof_O 	O 	0.2954	0.1942	0.78022	-0.393
Mof_O 	O 	0.2368	0.1306	0.75264	-0.396
Mof_C 	C 	0.3684	0.9497	0.8767	-0.053
Mof_H 	H 	0.3535	0.9163	0.8873	0.054
Mof_C 	C 	0.3389	0.9507	0.8547	-0.027
Mof_H 	H 	0.3063	0.9146	0.8507	0.041
Mof_C 	C 	0.3086	0.0654	0.80545	-0.03
Mof_H 	H 	0.3159	0.1086	0.813	0.053
Mof_C 	C 	0.2838	0.0666	0.78344	-0.06
Mof_C 	C 	0.2714	0.1351	0.77085	0.318
Mof_C 	C 	0.431	0.9407	0.8671	-0.024
Mof_H 	H 	0.4597	0.903	0.8723	0.035
Mof_C 	C 	0.4032	0.9353	0.8463	-0.056
Mof_H 	H 	0.412	0.8964	0.8369	0.05
Mof_O 	O 	0.7954	0.6942	0.28022	-0.392
Mof_O 	O 	0.7368	0.6306	0.25264	-0.395
Mof_C 	C 	0.8684	0.4497	0.3767	-0.052
Mof_H 	H 	0.8535	0.4163	0.3873	0.054
Mof_C 	C 	0.8389	0.4507	0.3547	-0.032
Mof_H 	H 	0.8063	0.4146	0.3507	0.042
Mof_C 	C 	0.8086	0.5654	0.30545	-0.03
Mof_H 	H 	0.8159	0.6086	0.313	0.054
Mof_C 	C 	0.7838	0.5666	0.28344	-0.06
Mof_C 	C 	0.7714	0.6351	0.27085	0.319
Mof_C 	C 	0.931	0.4407	0.3671	-0.028
Mof_H 	H 	0.9597	0.403	0.3723	0.037
Mof_C 	C 	0.9032	0.4353	0.3463	-0.054
Mof_H 	H 	0.912	0.3964	0.3369	0.049
Mof_O 	O 	0.1942	0.7046	0.78022	-0.393
Mof_O 	O 	0.1306	0.7632	0.75264	-0.395
Mof_C 	C 	0.9497	0.6316	0.8767	-0.053
Mof_H 	H 	0.9163	0.6465	0.8873	0.055
Mof_C 	C 	0.9507	0.6611	0.8547	-0.027
Mof_H 	H 	0.9146	0.6937	0.8507	0.041
Mof_C 	C 	0.0654	0.6914	0.80545	-0.03
Mof_H 	H 	0.1086	0.6841	0.813	0.054
Mof_C 	C 	0.0666	0.7162	0.78344	-0.06
Mof_C 	C 	0.1351	0.7286	0.77085	0.318
Mof_C 	C 	0.9407	0.569	0.8671	-0.024
Mof_H 	H 	0.903	0.5403	0.8723	0.035
Mof_C 	C 	0.9353	0.5968	0.8463	-0.056
Mof_H 	H 	0.8964	0.588	0.8369	0.05
Mof_O 	O 	0.6942	0.2046	0.28022	-0.393
Mof_O 	O 	0.6306	0.2632	0.25264	-0.395
Mof_C 	C 	0.4497	0.1316	0.3767	-0.052
Mof_H 	H 	0.4163	0.1465	0.3873	0.054
Mof_C 	C 	0.4507	0.1611	0.3547	-0.031
Mof_H 	H 	0.4146	0.1937	0.3507	0.041
Mof_C 	C 	0.5654	0.1914	0.30545	-0.03
Mof_H 	H 	0.6086	0.1841	0.313	0.053
Mof_C 	C 	0.5666	0.2162	0.28344	-0.061
Mof_C 	C 	0.6351	0.2286	0.27085	0.319
Mof_C 	C 	0.4407	0.069	0.3671	-0.029
Mof_H 	H 	0.403	0.0403	0.3723	0.036
Mof_C 	C 	0.4353	0.0968	0.3463	-0.054
Mof_H 	H 	0.3964	0.088	0.3369	0.049
Mof_O 	O 	0.8058	0.2954	0.78022	-0.392
Mof_O 	O 	0.8694	0.2368	0.75264	-0.395
Mof_C 	C 	0.0503	0.3684	0.8767	-0.05
Mof_H 	H 	0.0837	0.3535	0.8873	0.053
Mof_C 	C 	0.0493	0.3389	0.8547	-0.034
Mof_H 	H 	0.0854	0.3063	0.8507	0.042
Mof_C 	C 	0.9346	0.3086	0.80545	-0.028
Mof_H 	H 	0.8914	0.3159	0.813	0.053
Mof_C 	C 	0.9334	0.2838	0.78344	-0.058
Mof_C 	C 	0.8649	0.2714	0.77085	0.318
Mof_C 	C 	0.0593	0.431	0.8671	-0.03
Mof_H 	H 	0.097	0.4597	0.8723	0.037
Mof_C 	C 	0.0647	0.4032	0.8463	-0.053
Mof_H 	H 	0.1036	0.412	0.8369	0.048
Mof_O 	O 	0.3058	0.7954	0.28022	-0.392
Mof_O 	O 	0.3694	0.7368	0.25264	-0.395
Mof_C 	C 	0.5503	0.8684	0.3767	-0.052
Mof_H 	H 	0.5837	0.8535	0.3873	0.054
Mof_C 	C 	0.5493	0.8389	0.3547	-0.032
Mof_H 	H 	0.5854	0.8063	0.3507	0.042
Mof_C 	C 	0.4346	0.8086	0.30545	-0.03
Mof_H 	H 	0.3914	0.8159	0.313	0.054
Mof_C 	C 	0.4334	0.7838	0.28344	-0.06
Mof_C 	C 	0.3649	0.7714	0.27085	0.319
Mof_C 	C 	0.5593	0.931	0.3671	-0.028
Mof_H 	H 	0.597	0.9597	0.3723	0.037
Mof_C 	C 	0.5647	0.9032	0.3463	-0.054
Mof_H 	H 	0.6036	0.912	0.3369	0.05
Mof_O 	O 	0.2954	0.8058	0.21978	-0.392
Mof_O 	O 	0.2368	0.8694	0.24736	-0.395
Mof_C 	C 	0.3684	0.0503	0.1233	-0.05
Mof_H 	H 	0.3535	0.0837	0.1127	0.053
Mof_C 	C 	0.3389	0.0493	0.1453	-0.034
Mof_H 	H 	0.3063	0.0854	0.1493	0.042
Mof_C 	C 	0.3086	0.9346	0.19455	-0.028
Mof_H 	H 	0.3159	0.8914	0.187	0.053
Mof_C 	C 	0.2838	0.9334	0.21656	-0.058
Mof_C 	C 	0.2714	0.8649	0.22915	0.318
Mof_C 	C 	0.431	0.0593	0.1329	-0.03
Mof_H 	H 	0.4597	0.097	0.1277	0.037
Mof_C 	C 	0.4032	0.0647	0.1537	-0.053
Mof_H 	H 	0.412	0.1036	0.1631	0.048
Mof_O 	O 	0.7954	0.3058	0.71978	-0.392
Mof_O 	O 	0.7368	0.3694	0.74736	-0.395
Mof_C 	C 	0.8684	0.5503	0.6233	-0.052
Mof_H 	H 	0.8535	0.5837	0.6127	0.054
Mof_C 	C 	0.8389	0.5493	0.6453	-0.032
Mof_H 	H 	0.8063	0.5854	0.6493	0.042
Mof_C 	C 	0.8086	0.4346	0.69455	-0.03
Mof_H 	H 	0.8159	0.3914	0.687	0.054
Mof_C 	C 	0.7838	0.4334	0.71656	-0.06
Mof_C 	C 	0.7714	0.3649	0.72915	0.319
Mof_C 	C 	0.931	0.5593	0.6329	-0.028
Mof_H 	H 	0.9597	0.597	0.6277	0.037
Mof_C 	C 	0.9032	0.5647	0.6537	-0.054
Mof_H 	H 	0.912	0.6036	0.6631	0.05
Mof_O 	O 	0.7046	0.1942	0.21978	-0.393
Mof_O 	O 	0.7632	0.1306	0.24736	-0.395
Mof_C 	C 	0.6316	0.9497	0.1233	-0.053
Mof_H 	H 	0.6465	0.9163	0.1127	0.055
Mof_C 	C 	0.6611	0.9507	0.1453	-0.027
Mof_H 	H 	0.6937	0.9146	0.1493	0.041
Mof_C 	C 	0.6914	0.0654	0.19455	-0.03
Mof_H 	H 	0.6841	0.1086	0.187	0.054
Mof_C 	C 	0.7162	0.0666	0.21656	-0.06
Mof_C 	C 	0.7286	0.1351	0.22915	0.318
Mof_C 	C 	0.569	0.9407	0.1329	-0.024
Mof_H 	H 	0.5403	0.903	0.1277	0.035
Mof_C 	C 	0.5968	0.9353	0.1537	-0.056
Mof_H 	H 	0.588	0.8964	0.1631	0.05
Mof_O 	O 	0.2046	0.6942	0.71978	-0.393
Mof_O 	O 	0.2632	0.6306	0.74736	-0.395
Mof_C 	C 	0.1316	0.4497	0.6233	-0.052
Mof_H 	H 	0.1465	0.4163	0.6127	0.054
Mof_C 	C 	0.1611	0.4507	0.6453	-0.031
Mof_H 	H 	0.1937	0.4146	0.6493	0.041
Mof_C 	C 	0.1914	0.5654	0.69455	-0.03
Mof_H 	H 	0.1841	0.6086	0.687	0.053
Mof_C 	C 	0.2162	0.5666	0.71656	-0.061
Mof_C 	C 	0.2286	0.6351	0.72915	0.319
Mof_C 	C 	0.069	0.4407	0.6329	-0.029
Mof_H 	H 	0.0403	0.403	0.6277	0.036
Mof_C 	C 	0.0968	0.4353	0.6537	-0.054
Mof_H 	H 	0.088	0.3964	0.6631	0.049
Mof_O 	O 	0.8058	0.7046	0.21978	-0.392
Mof_O 	O 	0.8694	0.7632	0.24736	-0.394
Mof_C 	C 	0.0503	0.6316	0.1233	-0.05
Mof_H 	H 	0.0837	0.6465	0.1127	0.053
Mof_C 	C 	0.0493	0.6611	0.1453	-0.034
Mof_H 	H 	0.0854	0.6937	0.1493	0.042
Mof_C 	C 	0.9346	0.6914	0.19455	-0.028
Mof_H 	H 	0.8914	0.6841	0.187	0.053
Mof_C 	C 	0.9334	0.7162	0.21656	-0.058
Mof_C 	C 	0.8649	0.7286	0.22915	0.318
Mof_C 	C 	0.0593	0.569	0.1329	-0.03
Mof_H 	H 	0.097	0.5403	0.1277	0.037
Mof_C 	C 	0.0647	0.5968	0.1537	-0.053
Mof_H 	H 	0.1036	0.588	0.1631	0.048
Mof_O 	O 	0.3058	0.2046	0.71978	-0.393
Mof_O 	O 	0.3694	0.2632	0.74736	-0.395
Mof_C 	C 	0.5503	0.1316	0.6233	-0.053
Mof_H 	H 	0.5837	0.1465	0.6127	0.054
Mof_C 	C 	0.5493	0.1611	0.6453	-0.031
Mof_H 	H 	0.5854	0.1937	0.6493	0.042
Mof_C 	C 	0.4346	0.1914	0.69455	-0.03
Mof_H 	H 	0.3914	0.1841	0.687	0.053
Mof_C 	C 	0.4334	0.2162	0.71656	-0.061
Mof_C 	C 	0.3649	0.2286	0.72915	0.319
Mof_C 	C 	0.5593	0.069	0.6329	-0.029
Mof_H 	H 	0.597	0.0403	0.6277	0.036
Mof_C 	C 	0.5647	0.0968	0.6537	-0.054
Mof_H 	H 	0.6036	0.088	0.6631	0.049
Mof_O 	O 	0.1942	0.2954	0.21978	-0.393
Mof_O 	O 	0.1306	0.2368	0.24736	-0.396
Mof_C 	C 	0.9497	0.3684	0.1233	-0.053
Mof_H 	H 	0.9163	0.3535	0.1127	0.055
Mof_C 	C 	0.9507	0.3389	0.1453	-0.027
Mof_H 	H 	0.9146	0.3063	0.1493	0.041
Mof_C 	C 	0.0654	0.3086	0.19455	-0.03
Mof_H 	H 	0.1086	0.3159	0.187	0.053
Mof_C 	C 	0.0666	0.2838	0.21656	-0.06
Mof_C 	C 	0.1351	0.2714	0.22915	0.318
Mof_C 	C 	0.9407	0.431	0.1329	-0.024
Mof_H 	H 	0.903	0.4597	0.1277	0.035
Mof_C 	C 	0.9353	0.4032	0.1537	-0.056
Mof_H 	H 	0.8964	0.412	0.1631	0.05
Mof_O 	O 	0.6942	0.7954	0.71978	-0.392
Mof_O 	O 	0.6306	0.7368	0.74736	-0.395
Mof_C 	C 	0.4497	0.8684	0.6233	-0.052
Mof_H 	H 	0.4163	0.8535	0.6127	0.054
Mof_C 	C 	0.4507	0.8389	0.6453	-0.032
Mof_H 	H 	0.4146	0.8063	0.6493	0.042
Mof_C 	C 	0.5654	0.8086	0.69455	-0.03
Mof_H 	H 	0.6086	0.8159	0.687	0.054
Mof_C 	C 	0.5666	0.7838	0.71656	-0.06
Mof_C 	C 	0.6351	0.7714	0.72915	0.319
Mof_C 	C 	0.4407	0.931	0.6329	-0.028
Mof_H 	H 	0.403	0.9597	0.6277	0.037
Mof_C 	C 	0.4353	0.9032	0.6537	-0.054
Mof_H 	H 	0.3964	0.912	0.6631	0.049
Mof_Cu	Cu	0.28583	0.28583	0.23409	0.91
Mof_Cu	Cu	0.78583	0.78583	0.73409	0.91
Mof_Cu	Cu	0.71417	0.71417	0.23409	0.91
Mof_Cu	Cu	0.21417	0.21417	0.73409	0.91
Mof_Cu	Cu	0.71417	0.28583	0.23409	0.91
Mof_Cu	Cu	0.21417	0.78583	0.73409	0.91
Mof_Cu	Cu	0.28583	0.71417	0.23409	0.91
Mof_Cu	Cu	0.78583	0.21417	0.73409	0.91
Mof_Cu	Cu	0.71417	0.28583	0.76591	0.91
Mof_Cu	Cu	0.21417	0.78583	0.26591	0.91
Mof_Cu	Cu	0.28583	0.71417	0.76591	0.91
Mof_Cu	Cu	0.78583	0.21417	0.26591	0.91
Mof_Cu	Cu	0.28583	0.28583	0.76591	0.91
Mof_Cu	Cu	0.78583	0.78583	0.26591	0.91
Mof_Cu	Cu	0.71417	0.71417	0.76591	0.91
Mof_Cu	Cu	0.21417	0.21417	0.26591	0.91
Mof_O 	O 	0.4271	0	-0	-0.225
Mof_O 	O 	0.9271	0.5	0.5	-0.228
Mof_O 	O 	0.5729	0	-0	-0.225
Mof_O 	O 	0.0729	0.5	0.5	-0.223
Mof_O 	O 	-4.93004e-33	0.4271	-0	-0.225
Mof_O 	O 	0.5	0.9271	0.5	-0.228
Mof_O 	O 	-0	0.5729	-0	-0.225
Mof_O 	O 	0.5	0.0729	0.5	-0.223
Mof_N 	N 	0.4239	0	0.07823	-0.122
Mof_C 	C 	0.4618	0	0.02029	0.13
Mof_C 	C 	0.4268	-1.23251e-33	0.03955	-0.172
Mof_H 	H 	0.3765	0	0.0396	0.113
Mof_C 	C 	0.4636	0	0.05926	0.083
Mof_C 	C 	0.462	0	0.09717	0.022
Mof_C 	C 	0.4189	0	0.1189	0.033
Mof_C 	C 	0.3559	-4.93004e-33	0.16005	0.03
Mof_C 	C 	0.3223	0	0.18396	-0.004
Mof_C 	C 	0.2699	0	0.2272	-0.001
Mof_H 	H 	0.2512	0	0.2416	0.062
Mof_N 	N 	0.9239	0.5	0.57823	-0.123
Mof_C 	C 	0.9618	0.5	0.52029	0.137
Mof_C 	C 	0.9268	0.5	0.53955	-0.178
Mof_H 	H 	0.8765	0.5	0.5396	0.116
Mof_C 	C 	0.9636	0.5	0.55926	0.089
Mof_C 	C 	0.962	0.5	0.59717	0.025
Mof_C 	C 	0.9189	0.5	0.6189	0.036
Mof_C 	C 	0.8559	0.5	0.66005	0.032
Mof_C 	C 	0.8223	0.5	0.68396	-0.002
Mof_C 	C 	0.7699	0.5	0.7272	0.002
Mof_H 	H 	0.7512	0.5	0.7416	0.062
Mof_N 	N 	0.5761	0	0.07823	-0.122
Mof_C 	C 	0.5382	0	0.02029	0.13
Mof_C 	C 	0.5732	-1.23251e-33	0.03955	-0.172
Mof_H 	H 	0.6235	0	0.0396	0.113
Mof_C 	C 	0.5364	0	0.05926	0.083
Mof_C 	C 	0.538	0	0.09717	0.022
Mof_C 	C 	0.5811	0	0.1189	0.033
Mof_C 	C 	0.6441	-4.93004e-33	0.16005	0.03
Mof_C 	C 	0.6777	0	0.18396	-0.003
Mof_C 	C 	0.7301	0	0.2272	-0.001
Mof_H 	H 	0.7488	0	0.2416	0.062
Mof_N 	N 	0.0761	0.5	0.57823	-0.12
Mof_C 	C 	0.0382	0.5	0.52029	0.123
Mof_C 	C 	0.0732	0.5	0.53955	-0.166
Mof_H 	H 	0.1235	0.5	0.5396	0.111
Mof_C 	C 	0.0364	0.5	0.55926	0.076
Mof_C 	C 	0.038	0.5	0.59717	0.019
Mof_C 	C 	0.0811	0.5	0.6189	0.038
Mof_C 	C 	0.1441	0.5	0.66005	0.032
Mof_C 	C 	0.1777	0.5	0.68396	-0.002
Mof_C 	C 	0.2301	0.5	0.7272	0.002
Mof_H 	H 	0.2488	0.5	0.7416	0.062
Mof_N 	N 	-3.97753e-33	0.4239	0.07823	-0.122
Mof_C 	C 	-9.85463e-34	0.4618	0.02029	0.13
Mof_C 	C 	1.71406e-33	0.4268	0.03955	-0.172
Mof_H 	H 	-3.21537e-33	0.3765	0.0396	0.113
Mof_C 	C 	-4.2085e-33	0.4636	0.05926	0.083
Mof_C 	C 	1.18312e-33	0.462	0.09717	0.022
Mof_C 	C 	6.37774e-33	0.4189	0.1189	0.033
Mof_C 	C 	-7.91134e-33	0.3559	0.16005	0.03
Mof_C 	C 	-2.69018e-33	0.3223	0.18396	-0.004
Mof_C 	C 	-7.09374e-33	0.2699	0.2272	-0.001
Mof_H 	H 	-6.91841e-33	0.2512	0.2416	0.062
Mof_N 	N 	0.5	0.9239	0.57823	-0.123
Mof_C 	C 	0.5	0.9618	0.52029	0.137
Mof_C 	C 	0.5	0.9268	0.53955	-0.178
Mof_H 	H 	0.5	0.8765	0.5396	0.116
Mof_C 	C 	0.5	0.9636	0.55926	0.089
Mof_C 	C 	0.5	0.962	0.59717	0.025
Mof_C 	C 	0.5	0.9189	0.6189	0.036
Mof_C 	C 	0.5	0.8559	0.66005	0.032
Mof_C 	C 	0.5	0.8223	0.68396	-0.002
Mof_C 	C 	0.5	0.7699	0.7272	0.002
Mof_H 	H 	0.5	0.7512	0.7416	0.062
Mof_N 	N 	5.88255e-33	0.5761	0.07823	-0.122
Mof_C 	C 	-5.9155e-33	0.5382	0.02029	0.13
Mof_C 	C 	-8.14602e-33	0.5732	0.03955	-0.172
Mof_H 	H 	6.64471e-33	0.6235	0.0396	0.113
Mof_C 	C 	-4.2085e-33	0.5364	0.05926	0.083
Mof_C 	C 	6.11316e-33	0.538	0.09717	0.022
Mof_C 	C 	-3.48234e-33	0.5811	0.1189	0.033
Mof_C 	C 	1.94874e-33	0.6441	0.16005	0.03
Mof_C 	C 	-2.69018e-33	0.6777	0.18396	-0.003
Mof_C 	C 	-1.69538e-32	0.7301	0.2272	-0.001
Mof_H 	H 	-6.91841e-33	0.7488	0.2416	0.062
Mof_N 	N 	0.5	0.0761	0.57823	-0.12
Mof_C 	C 	0.5	0.0382	0.52029	0.123
Mof_C 	C 	0.5	0.0732	0.53955	-0.166
Mof_H 	H 	0.5	0.1235	0.5396	0.111
Mof_C 	C 	0.5	0.0364	0.55926	0.076
Mof_C 	C 	0.5	0.038	0.59717	0.019
Mof_C 	C 	0.5	0.0811	0.6189	0.038
Mof_C 	C 	0.5	0.1441	0.66005	0.032
Mof_C 	C 	0.5	0.1777	0.68396	-0.002
Mof_C 	C 	0.5	0.2301	0.7272	0.002
Mof_H 	H 	0.5	0.2488	0.7416	0.062
Mof_N 	N 	0.5761	0	0.92177	-0.122
Mof_C 	C 	0.5382	-3.94403e-32	0.97971	0.13
Mof_C 	C 	0.5732	0	0.96045	-0.172
Mof_H 	H 	0.6235	0	0.9604	0.113
Mof_C 	C 	0.5364	3.94403e-32	0.94074	0.083
Mof_C 	C 	0.538	0	0.90283	0.022
Mof_C 	C 	0.5811	1.97202e-32	0.8811	0.033
Mof_C 	C 	0.6441	1.97202e-32	0.83995	0.03
Mof_C 	C 	0.6777	0	0.81604	-0.003
Mof_C 	C 	0.7301	1.97202e-32	0.7728	-0.001
Mof_H 	H 	0.7488	-1.97202e-32	0.7584	0.062
Mof_N 	N 	0.0761	0.5	0.42177	-0.12
Mof_C 	C 	0.0382	0.5	0.47971	0.123
Mof_C 	C 	0.0732	0.5	0.46045	-0.166
Mof_H 	H 	0.1235	0.5	0.4604	0.111
Mof_C 	C 	0.0364	0.5	0.44074	0.076
Mof_C 	C 	0.038	0.5	0.40283	0.019
Mof_C 	C 	0.0811	0.5	0.3811	0.038
Mof_C 	C 	0.1441	0.5	0.33995	0.032
Mof_C 	C 	0.1777	0.5	0.31604	-0.002
Mof_C 	C 	0.2301	0.5	0.2728	0.002
Mof_H 	H 	0.2488	0.5	0.2584	0.062
Mof_N 	N 	0.4239	0	0.92177	-0.122
Mof_C 	C 	0.4618	-3.94403e-32	0.97971	0.13
Mof_C 	C 	0.4268	0	0.96045	-0.172
Mof_H 	H 	0.3765	0	0.9604	0.113
Mof_C 	C 	0.4636	3.94403e-32	0.94074	0.083
Mof_C 	C 	0.462	0	0.90283	0.022
Mof_C 	C 	0.4189	1.97202e-32	0.8811	0.033
Mof_C 	C 	0.3559	1.97202e-32	0.83995	0.03
Mof_C 	C 	0.3223	0	0.81604	-0.004
Mof_C 	C 	0.2699	1.97202e-32	0.7728	-0.001
Mof_H 	H 	0.2512	-1.97202e-32	0.7584	0.062
Mof_N 	N 	0.9239	0.5	0.42177	-0.123
Mof_C 	C 	0.9618	0.5	0.47971	0.137
Mof_C 	C 	0.9268	0.5	0.46045	-0.178
Mof_H 	H 	0.8765	0.5	0.4604	0.116
Mof_C 	C 	0.9636	0.5	0.44074	0.089
Mof_C 	C 	0.962	0.5	0.40283	0.025
Mof_C 	C 	0.9189	0.5	0.3811	0.036
Mof_C 	C 	0.8559	0.5	0.33995	0.032
Mof_C 	C 	0.8223	0.5	0.31604	-0.002
Mof_C 	C 	0.7699	0.5	0.2728	0.002
Mof_H 	H 	0.7512	0.5	0.2584	0.062
Mof_N 	N 	-2.8217e-32	0.4239	0.92177	-0.122
Mof_C 	C 	-2.75116e-32	0.4618	0.97971	0.13
Mof_C 	C 	5.11346e-32	0.4268	0.96045	-0.172
Mof_H 	H 	1.16936e-32	0.3765	0.9604	0.113
Mof_C 	C 	1.14543e-32	0.4636	0.94074	0.083
Mof_C 	C 	1.09927e-32	0.462	0.90283	0.022
Mof_C 	C 	3.04483e-32	0.4189	0.8811	0.033
Mof_C 	C 	1.02271e-32	0.3559	0.83995	0.03
Mof_C 	C 	2.96561e-32	0.3223	0.81604	-0.004
Mof_C 	C 	9.40946e-33	0.2699	0.7728	-0.001
Mof_H 	H 	-1.0486e-32	0.2512	0.7584	0.062
Mof_N 	N 	0.5	0.9239	0.42177	-0.123
Mof_C 	C 	0.5	0.9618	0.47971	0.137
Mof_C 	C 	0.5	0.9268	0.46045	-0.178
Mof_H 	H 	0.5	0.8765	0.4604	0.116
Mof_C 	C 	0.5	0.9636	0.44074	0.089
Mof_C 	C 	0.5	0.962	0.40283	0.025
Mof_C 	C 	0.5	0.9189	0.3811	0.036
Mof_C 	C 	0.5	0.8559	0.33995	0.032
Mof_C 	C 	0.5	0.8223	0.31604	-0.002
Mof_C 	C 	0.5	0.7699	0.2728	0.002
Mof_H 	H 	0.5	0.7512	0.2584	0.062
Mof_N 	N 	-6.76574e-32	0.5761	0.92177	-0.122
Mof_C 	C 	-2.75116e-32	0.5382	0.97971	0.13
Mof_C 	C 	5.11346e-32	0.5732	0.96045	-0.172
Mof_H 	H 	5.1134e-32	0.6235	0.9604	0.113
Mof_C 	C 	1.14543e-32	0.5364	0.94074	0.083
Mof_C 	C 	1.09927e-32	0.538	0.90283	0.022
Mof_C 	C 	1.07281e-32	0.5811	0.8811	0.033
Mof_C 	C 	2.99472e-32	0.6441	0.83995	0.03
Mof_C 	C 	9.93595e-33	0.6777	0.81604	-0.003
Mof_C 	C 	-3.00309e-32	0.7301	0.7728	-0.001
Mof_H 	H 	9.23413e-33	0.7488	0.7584	0.062
Mof_N 	N 	0.5	0.0761	0.42177	-0.12
Mof_C 	C 	0.5	0.0382	0.47971	0.123
Mof_C 	C 	0.5	0.0732	0.46045	-0.166
Mof_H 	H 	0.5	0.1235	0.4604	0.111
Mof_C 	C 	0.5	0.0364	0.44074	0.076
Mof_C 	C 	0.5	0.038	0.40283	0.019
Mof_C 	C 	0.5	0.0811	0.3811	0.038
Mof_C 	C 	0.5	0.1441	0.33995	0.032
Mof_C 	C 	0.5	0.1777	0.31604	-0.002
Mof_C 	C 	0.5	0.2301	0.2728	0.002
Mof_H 	H 	0.5	0.2488	0.2584	0.062
_end
