# CIF file generated by openbabel 3.1.0, see https://openbabel.org
data_I
_chemical_name_common 'image0'
_cell_length_a 40.4245
_cell_length_b 40.4245
_cell_length_c 17.8143
_cell_angle_alpha 90
_cell_angle_beta 90
_cell_angle_gamma 90
_space_group_name_H-M_alt 'P 1'
_space_group_name_Hall 'P 1'
loop_
    _symmetry_equiv_pos_as_xyz
    x,y,z
loop_
    _atom_site_label
    _atom_site_type_symbol
    _atom_site_fract_x
    _atom_site_fract_y
    _atom_site_fract_z
    _atom_site_occupancy
    Mn1      Mn       0.92602    0.54334    0.82625    1.000
    O1       O        0.90473    0.51625    0.75629    1.000
    O2       O        0.00485    0.52137    0.68616    1.000
    O3       O        0.95477    0.56953    0.89000    1.000
    N1       N        0.96793    0.53595    0.77644    1.000
    N2       N        0.99541    0.55160    0.81097    1.000
    C1       C        0.91634    0.50204    0.69680    1.000
    C2       C        0.89387    0.48331    0.65240    1.000
    H1       H        0.87200    0.47960    0.67020    1.000
    C3       C        0.90332    0.47050    0.58410    1.000
    H2       H        0.88790    0.45760    0.55660    1.000
    C4       C        0.93420    0.47580    0.55420    1.000
    H3       H        0.93940    0.46880    0.50470    1.000
    C5       C        0.95798    0.49200    0.59980    1.000
    H4       H        0.98010    0.49420    0.58260    1.000
    C6       C        0.94917    0.50451    0.66960    1.000
    C7       C        0.97525    0.52129    0.71230    1.000
    C8       C        0.98600    0.56821    0.86989    1.000
    C9       C        0.01126    0.58646    0.91510    1.000
    H5       H        0.02490    0.59990    0.88050    1.000
    H6       H        0.02600    0.57010    0.93930    1.000
    C10      C        0.99777    0.60882    0.97480    1.000
    H7       H        0.98620    0.62740    0.95120    1.000
    H8       H        0.01600    0.61720    0.00560    1.000
    H9       H        0.98230    0.59650    0.00650    1.000
    Mn2      Mn       0.04183    0.53382    0.75312    1.000
    O4       O        0.05100    0.57487    0.71146    1.000
    O5       O        0.11528    0.56578    0.89885    1.000
    O6       O        0.03915    0.49214    0.80561    1.000
    N3       N        0.07689    0.53994    0.82597    1.000
    N4       N        0.08236    0.51210    0.87243    1.000
    N5       N        0.07450    0.50622    0.66890    1.000
    C11      C        0.07313    0.59744    0.73050    1.000
    C12      C        0.07517    0.62616    0.68530    1.000
    H10      H        0.06090    0.62840    0.64320    1.000
    C13      C        0.09740    0.65072    0.70140    1.000
    H11      H        0.09810    0.66980    0.67030    1.000
    C14      C        0.11887    0.64849    0.76190    1.000
    H12      H        0.13430    0.66570    0.77200    1.000
    C15      C        0.11743    0.62088    0.80710    1.000
    H13      H        0.13210    0.61920    0.84860    1.000
    C16      C        0.09470    0.59494    0.79310    1.000
    C17      C        0.09579    0.56567    0.84226    1.000
    C18      C        0.06186    0.48864    0.85660    1.000
    C19      C        0.06481    0.45598    0.89480    1.000
    H14      H        0.04700    0.45410    0.93260    1.000
    H15      H        0.08620    0.45520    0.92190    1.000
    C20      C        0.06290    0.42637    0.84270    1.000
    H16      H        0.04190    0.42690    0.81530    1.000
    H17      H        0.06430    0.40600    0.87220    1.000
    H18      H        0.08130    0.42720    0.80690    1.000
    C21      C        0.10454    0.51000    0.66120    1.000
    H19      H        0.11450    0.52720    0.68970    1.000
    C22      C        0.12548    0.49160    0.61470    1.000
    H20      H        0.14850    0.49630    0.61450    1.000
    C23      C        0.11463    0.46960    0.57420    1.000
    C24      C        0.08270    0.45740    0.59390    1.000
    H21      H        0.07490    0.43690    0.57460    1.000
    C25      C        0.06324    0.47600    0.64130    1.000
    H22      H        0.04200    0.46820    0.65530    1.000
    C26      C        0.13674    0.45090    0.51960    1.000
    H23      H        0.15520    0.46570    0.50520    1.000
    H24      H        0.14650    0.43180    0.54660    1.000
    Mn3      Mn       0.88697    0.47166    0.02845    1.000
    O7       O        0.84861    0.49184    0.06021    1.000
    O8       O        0.88522    0.55197    0.88245    1.000
    O9       O        0.92776    0.45628    0.98463    1.000
    N6       N        0.89430    0.50636    0.95486    1.000
    N7       N        0.92449    0.50378    0.91515    1.000
    N8       N        0.18937    0.39096    0.30373    1.000
    C27      C        0.83159    0.51651    0.02820    1.000
    C28      C        0.79992    0.52244    0.05600    1.000
    H25      H        0.79170    0.50910    0.09580    1.000
    C29      C        0.78013    0.54742    0.02700    1.000
    H26      H        0.75870    0.55100    0.04700    1.000
    C30      C        0.79161    0.56733    0.96840    1.000
    H27      H        0.77810    0.58430    0.94810    1.000
    C31      C        0.82283    0.56190    0.94060    1.000
    H28      H        0.83090    0.57550    0.90120    1.000
    C32      C        0.84322    0.53664    0.96910    1.000
    C33      C        0.87578    0.53191    0.93390    1.000
    C34      C        0.93972    0.47707    0.93520    1.000
    C35      C        0.97168    0.46792    0.89800    1.000
    H29      H        0.98180    0.48770    0.87490    1.000
    H30      H        0.98730    0.45890    0.93560    1.000
    C36      C        0.96430    0.44100    0.83550    1.000
    H31      H        0.95120    0.45100    0.79510    1.000
    H32      H        0.98520    0.43270    0.81500    1.000
    H33      H        0.95190    0.42260    0.85770    1.000
    C37      C        0.17195    0.41736    0.28370    1.000
    H34      H        0.17430    0.42530    0.23380    1.000
    C38      C        0.15062    0.43391    0.33080    1.000
    H35      H        0.13890    0.45280    0.31380    1.000
    C39      C        0.14667    0.42255    0.40270    1.000
    C40      C        0.16450    0.39580    0.42380    1.000
    H36      H        0.16220    0.38720    0.47310    1.000
    C41      C        0.18629    0.38075    0.37410    1.000
    H37      H        0.19930    0.36270    0.39100    1.000
    C42      C        0.12260    0.43960    0.45650    1.000
    H38      H        0.11210    0.45840    0.43010    1.000
    H39      H        0.10500    0.42370    0.47020    1.000
    Mn4      Mn       0.42602    0.04334    0.32625    1.000
    O10      O        0.40473    0.01625    0.25629    1.000
    O11      O        0.50485    0.02137    0.18616    1.000
    O12      O        0.45477    0.06953    0.39000    1.000
    N9       N        0.46793    0.03595    0.27644    1.000
    N10      N        0.49541    0.05160    0.31097    1.000
    C43      C        0.41634    0.00204    0.19680    1.000
    C44      C        0.39387    0.98331    0.15240    1.000
    H40      H        0.37200    0.97960    0.17020    1.000
    C45      C        0.40332    0.97050    0.08410    1.000
    H41      H        0.38790    0.95760    0.05660    1.000
    C46      C        0.43420    0.97580    0.05420    1.000
    H42      H        0.43940    0.96880    0.00470    1.000
    C47      C        0.45798    0.99200    0.09980    1.000
    H43      H        0.48010    0.99420    0.08260    1.000
    C48      C        0.44917    0.00451    0.16960    1.000
    C49      C        0.47525    0.02129    0.21230    1.000
    C50      C        0.48600    0.06821    0.36989    1.000
    C51      C        0.51126    0.08646    0.41510    1.000
    H44      H        0.52490    0.09990    0.38050    1.000
    H45      H        0.52600    0.07010    0.43930    1.000
    C52      C        0.49777    0.10882    0.47480    1.000
    H46      H        0.48620    0.12740    0.45120    1.000
    H47      H        0.51600    0.11720    0.50560    1.000
    H48      H        0.48230    0.09650    0.50650    1.000
    Mn5      Mn       0.54183    0.03382    0.25312    1.000
    O13      O        0.55100    0.07487    0.21146    1.000
    O14      O        0.61528    0.06578    0.39885    1.000
    O15      O        0.53915    0.99214    0.30561    1.000
    N11      N        0.57689    0.03994    0.32597    1.000
    N12      N        0.58236    0.01210    0.37243    1.000
    N13      N        0.57450    0.00622    0.16890    1.000
    C53      C        0.57313    0.09744    0.23050    1.000
    C54      C        0.57517    0.12616    0.18530    1.000
    H49      H        0.56090    0.12840    0.14320    1.000
    C55      C        0.59740    0.15072    0.20140    1.000
    H50      H        0.59810    0.16980    0.17030    1.000
    C56      C        0.61887    0.14849    0.26190    1.000
    H51      H        0.63430    0.16570    0.27200    1.000
    C57      C        0.61743    0.12088    0.30710    1.000
    H52      H        0.63210    0.11920    0.34860    1.000
    C58      C        0.59470    0.09494    0.29310    1.000
    C59      C        0.59579    0.06567    0.34226    1.000
    C60      C        0.56186    0.98864    0.35660    1.000
    C61      C        0.56481    0.95598    0.39480    1.000
    H53      H        0.54700    0.95410    0.43260    1.000
    H54      H        0.58620    0.95520    0.42190    1.000
    C62      C        0.56290    0.92637    0.34270    1.000
    H55      H        0.54190    0.92690    0.31530    1.000
    H56      H        0.56430    0.90600    0.37220    1.000
    H57      H        0.58130    0.92720    0.30690    1.000
    C63      C        0.60454    0.01000    0.16120    1.000
    H58      H        0.61450    0.02720    0.18970    1.000
    C64      C        0.62548    0.99160    0.11470    1.000
    H59      H        0.64850    0.99630    0.11450    1.000
    C65      C        0.61463    0.96960    0.07420    1.000
    C66      C        0.58270    0.95740    0.09390    1.000
    H60      H        0.57490    0.93690    0.07460    1.000
    C67      C        0.56324    0.97600    0.14130    1.000
    H61      H        0.54200    0.96820    0.15530    1.000
    C68      C        0.63674    0.95090    0.01960    1.000
    H62      H        0.65520    0.96570    0.00520    1.000
    H63      H        0.64650    0.93180    0.04660    1.000
    Mn6      Mn       0.38697    0.97166    0.52845    1.000
    O16      O        0.34861    0.99184    0.56021    1.000
    O17      O        0.38522    0.05197    0.38245    1.000
    O18      O        0.42776    0.95628    0.48463    1.000
    N14      N        0.39430    0.00636    0.45486    1.000
    N15      N        0.42449    0.00378    0.41515    1.000
    N16      N        0.68937    0.89096    0.80373    1.000
    C69      C        0.33159    0.01651    0.52820    1.000
    C70      C        0.29992    0.02244    0.55600    1.000
    H64      H        0.29170    0.00910    0.59580    1.000
    C71      C        0.28013    0.04742    0.52700    1.000
    H65      H        0.25870    0.05100    0.54700    1.000
    C72      C        0.29161    0.06733    0.46840    1.000
    H66      H        0.27810    0.08430    0.44810    1.000
    C73      C        0.32283    0.06190    0.44060    1.000
    H67      H        0.33090    0.07550    0.40120    1.000
    C74      C        0.34322    0.03664    0.46910    1.000
    C75      C        0.37578    0.03191    0.43390    1.000
    C76      C        0.43972    0.97707    0.43520    1.000
    C77      C        0.47168    0.96792    0.39800    1.000
    H68      H        0.48180    0.98770    0.37490    1.000
    H69      H        0.48730    0.95890    0.43560    1.000
    C78      C        0.46430    0.94100    0.33550    1.000
    H70      H        0.45120    0.95100    0.29510    1.000
    H71      H        0.48520    0.93270    0.31500    1.000
    H72      H        0.45190    0.92260    0.35770    1.000
    C79      C        0.67195    0.91736    0.78370    1.000
    H73      H        0.67430    0.92530    0.73380    1.000
    C80      C        0.65062    0.93391    0.83080    1.000
    H74      H        0.63890    0.95280    0.81380    1.000
    C81      C        0.64667    0.92255    0.90270    1.000
    C82      C        0.66450    0.89580    0.92380    1.000
    H75      H        0.66220    0.88720    0.97310    1.000
    C83      C        0.68629    0.88075    0.87410    1.000
    H76      H        0.69930    0.86270    0.89100    1.000
    C84      C        0.62260    0.93960    0.95650    1.000
    H77      H        0.61210    0.95840    0.93010    1.000
    H78      H        0.60500    0.92370    0.97020    1.000
    Mn7      Mn       0.57398    0.45666    0.32625    1.000
    O19      O        0.59527    0.48375    0.25629    1.000
    O20      O        0.49515    0.47863    0.18616    1.000
    O21      O        0.54523    0.43047    0.39000    1.000
    N17      N        0.53207    0.46405    0.27644    1.000
    N18      N        0.50459    0.44840    0.31097    1.000
    C85      C        0.58366    0.49796    0.19680    1.000
    C86      C        0.60613    0.51669    0.15240    1.000
    H79      H        0.62800    0.52040    0.17020    1.000
    C87      C        0.59668    0.52950    0.08410    1.000
    H80      H        0.61210    0.54240    0.05660    1.000
    C88      C        0.56580    0.52420    0.05420    1.000
    H81      H        0.56060    0.53120    0.00470    1.000
    C89      C        0.54202    0.50800    0.09980    1.000
    H82      H        0.51990    0.50580    0.08260    1.000
    C90      C        0.55083    0.49549    0.16960    1.000
    C91      C        0.52475    0.47871    0.21230    1.000
    C92      C        0.51400    0.43179    0.36989    1.000
    C93      C        0.48874    0.41354    0.41510    1.000
    H83      H        0.47510    0.40010    0.38050    1.000
    H84      H        0.47400    0.42990    0.43930    1.000
    C94      C        0.50223    0.39118    0.47480    1.000
    H85      H        0.51380    0.37260    0.45120    1.000
    H86      H        0.48400    0.38280    0.50560    1.000
    H87      H        0.51770    0.40350    0.50650    1.000
    Mn8      Mn       0.45817    0.46618    0.25312    1.000
    O22      O        0.44900    0.42513    0.21146    1.000
    O23      O        0.38472    0.43422    0.39885    1.000
    O24      O        0.46085    0.50786    0.30561    1.000
    N19      N        0.42311    0.46006    0.32597    1.000
    N20      N        0.41764    0.48790    0.37243    1.000
    N21      N        0.42550    0.49378    0.16890    1.000
    C95      C        0.42687    0.40256    0.23050    1.000
    C96      C        0.42483    0.37384    0.18530    1.000
    H88      H        0.43910    0.37160    0.14320    1.000
    C97      C        0.40260    0.34928    0.20140    1.000
    H89      H        0.40190    0.33020    0.17030    1.000
    C98      C        0.38113    0.35151    0.26190    1.000
    H90      H        0.36570    0.33430    0.27200    1.000
    C99      C        0.38257    0.37912    0.30710    1.000
    H91      H        0.36790    0.38080    0.34860    1.000
    C100     C        0.40530    0.40506    0.29310    1.000
    C101     C        0.40421    0.43433    0.34226    1.000
    C102     C        0.43814    0.51136    0.35660    1.000
    C103     C        0.43519    0.54402    0.39480    1.000
    H92      H        0.45300    0.54590    0.43260    1.000
    H93      H        0.41380    0.54480    0.42190    1.000
    C104     C        0.43710    0.57363    0.34270    1.000
    H94      H        0.45810    0.57310    0.31530    1.000
    H95      H        0.43570    0.59400    0.37220    1.000
    H96      H        0.41870    0.57280    0.30690    1.000
    C105     C        0.39546    0.49000    0.16120    1.000
    H97      H        0.38550    0.47280    0.18970    1.000
    C106     C        0.37452    0.50840    0.11470    1.000
    H98      H        0.35150    0.50370    0.11450    1.000
    C107     C        0.38537    0.53040    0.07420    1.000
    C108     C        0.41730    0.54260    0.09390    1.000
    H99      H        0.42510    0.56310    0.07460    1.000
    C109     C        0.43676    0.52400    0.14130    1.000
    H100     H        0.45800    0.53180    0.15530    1.000
    C110     C        0.36326    0.54910    0.01960    1.000
    H101     H        0.34480    0.53430    0.00520    1.000
    H102     H        0.35350    0.56820    0.04660    1.000
    Mn9      Mn       0.61303    0.52834    0.52845    1.000
    O25      O        0.65139    0.50816    0.56021    1.000
    O26      O        0.61478    0.44803    0.38245    1.000
    O27      O        0.57224    0.54372    0.48463    1.000
    N22      N        0.60570    0.49364    0.45486    1.000
    N23      N        0.57551    0.49622    0.41515    1.000
    N24      N        0.31063    0.60904    0.80373    1.000
    C111     C        0.66841    0.48349    0.52820    1.000
    C112     C        0.70008    0.47756    0.55600    1.000
    H103     H        0.70830    0.49090    0.59580    1.000
    C113     C        0.71987    0.45258    0.52700    1.000
    H104     H        0.74130    0.44900    0.54700    1.000
    C114     C        0.70839    0.43267    0.46840    1.000
    H105     H        0.72190    0.41570    0.44810    1.000
    C115     C        0.67717    0.43810    0.44060    1.000
    H106     H        0.66910    0.42450    0.40120    1.000
    C116     C        0.65678    0.46336    0.46910    1.000
    C117     C        0.62422    0.46809    0.43390    1.000
    C118     C        0.56028    0.52293    0.43520    1.000
    C119     C        0.52832    0.53208    0.39800    1.000
    H107     H        0.51820    0.51230    0.37490    1.000
    H108     H        0.51270    0.54110    0.43560    1.000
    C120     C        0.53570    0.55900    0.33550    1.000
    H109     H        0.54880    0.54900    0.29510    1.000
    H110     H        0.51480    0.56730    0.31500    1.000
    H111     H        0.54810    0.57740    0.35770    1.000
    C121     C        0.32805    0.58264    0.78370    1.000
    H112     H        0.32570    0.57470    0.73380    1.000
    C122     C        0.34938    0.56609    0.83080    1.000
    H113     H        0.36110    0.54720    0.81380    1.000
    C123     C        0.35333    0.57745    0.90270    1.000
    C124     C        0.33550    0.60420    0.92380    1.000
    H114     H        0.33780    0.61280    0.97310    1.000
    C125     C        0.31371    0.61925    0.87410    1.000
    H115     H        0.30070    0.63730    0.89100    1.000
    C126     C        0.37740    0.56040    0.95650    1.000
    H116     H        0.38790    0.54160    0.93010    1.000
    H117     H        0.39500    0.57630    0.97020    1.000
    Mn10     Mn       0.07398    0.95666    0.82625    1.000
    O28      O        0.09527    0.98375    0.75629    1.000
    O29      O        0.99515    0.97863    0.68616    1.000
    O30      O        0.04523    0.93047    0.89000    1.000
    N25      N        0.03207    0.96405    0.77644    1.000
    N26      N        0.00459    0.94840    0.81097    1.000
    C127     C        0.08366    0.99796    0.69680    1.000
    C128     C        0.10613    0.01669    0.65240    1.000
    H118     H        0.12800    0.02040    0.67020    1.000
    C129     C        0.09668    0.02950    0.58410    1.000
    H119     H        0.11210    0.04240    0.55660    1.000
    C130     C        0.06580    0.02420    0.55420    1.000
    H120     H        0.06060    0.03120    0.50470    1.000
    C131     C        0.04202    0.00800    0.59980    1.000
    H121     H        0.01990    0.00580    0.58260    1.000
    C132     C        0.05083    0.99549    0.66960    1.000
    C133     C        0.02475    0.97871    0.71230    1.000
    C134     C        0.01400    0.93179    0.86989    1.000
    C135     C        0.98874    0.91354    0.91510    1.000
    H122     H        0.97510    0.90010    0.88050    1.000
    H123     H        0.97400    0.92990    0.93930    1.000
    C136     C        0.00223    0.89118    0.97480    1.000
    H124     H        0.01380    0.87260    0.95120    1.000
    H125     H        0.98400    0.88280    0.00560    1.000
    H126     H        0.01770    0.90350    0.00650    1.000
    Mn11     Mn       0.95817    0.96618    0.75312    1.000
    O31      O        0.94900    0.92513    0.71146    1.000
    O32      O        0.88472    0.93422    0.89885    1.000
    O33      O        0.96085    0.00786    0.80561    1.000
    N27      N        0.92311    0.96006    0.82597    1.000
    N28      N        0.91764    0.98790    0.87243    1.000
    N29      N        0.92550    0.99378    0.66890    1.000
    C137     C        0.92687    0.90256    0.73050    1.000
    C138     C        0.92483    0.87384    0.68530    1.000
    H127     H        0.93910    0.87160    0.64320    1.000
    C139     C        0.90260    0.84928    0.70140    1.000
    H128     H        0.90190    0.83020    0.67030    1.000
    C140     C        0.88113    0.85151    0.76190    1.000
    H129     H        0.86570    0.83430    0.77200    1.000
    C141     C        0.88257    0.87912    0.80710    1.000
    H130     H        0.86790    0.88080    0.84860    1.000
    C142     C        0.90530    0.90506    0.79310    1.000
    C143     C        0.90421    0.93433    0.84226    1.000
    C144     C        0.93814    0.01136    0.85660    1.000
    C145     C        0.93519    0.04402    0.89480    1.000
    H131     H        0.95300    0.04590    0.93260    1.000
    H132     H        0.91380    0.04480    0.92190    1.000
    C146     C        0.93710    0.07363    0.84270    1.000
    H133     H        0.95810    0.07310    0.81530    1.000
    H134     H        0.93570    0.09400    0.87220    1.000
    H135     H        0.91870    0.07280    0.80690    1.000
    C147     C        0.89546    0.99000    0.66120    1.000
    H136     H        0.88550    0.97280    0.68970    1.000
    C148     C        0.87452    0.00840    0.61470    1.000
    H137     H        0.85150    0.00370    0.61450    1.000
    C149     C        0.88537    0.03040    0.57420    1.000
    C150     C        0.91730    0.04260    0.59390    1.000
    H138     H        0.92510    0.06310    0.57460    1.000
    C151     C        0.93676    0.02400    0.64130    1.000
    H139     H        0.95800    0.03180    0.65530    1.000
    C152     C        0.86326    0.04910    0.51960    1.000
    H140     H        0.84480    0.03430    0.50520    1.000
    H141     H        0.85350    0.06820    0.54660    1.000
    Mn12     Mn       0.11303    0.02834    0.02845    1.000
    O34      O        0.15139    0.00816    0.06021    1.000
    O35      O        0.11478    0.94803    0.88245    1.000
    O36      O        0.07224    0.04372    0.98463    1.000
    N30      N        0.10570    0.99364    0.95486    1.000
    N31      N        0.07551    0.99622    0.91515    1.000
    N32      N        0.81063    0.10904    0.30373    1.000
    C153     C        0.16841    0.98349    0.02820    1.000
    C154     C        0.20008    0.97756    0.05600    1.000
    H142     H        0.20830    0.99090    0.09580    1.000
    C155     C        0.21987    0.95258    0.02700    1.000
    H143     H        0.24130    0.94900    0.04700    1.000
    C156     C        0.20839    0.93267    0.96840    1.000
    H144     H        0.22190    0.91570    0.94810    1.000
    C157     C        0.17717    0.93810    0.94060    1.000
    H145     H        0.16910    0.92450    0.90120    1.000
    C158     C        0.15678    0.96336    0.96910    1.000
    C159     C        0.12422    0.96809    0.93390    1.000
    C160     C        0.06028    0.02293    0.93520    1.000
    C161     C        0.02832    0.03208    0.89800    1.000
    H146     H        0.01820    0.01230    0.87490    1.000
    H147     H        0.01270    0.04110    0.93560    1.000
    C162     C        0.03570    0.05900    0.83550    1.000
    H148     H        0.04880    0.04900    0.79510    1.000
    H149     H        0.01480    0.06730    0.81500    1.000
    H150     H        0.04810    0.07740    0.85770    1.000
    C163     C        0.82805    0.08264    0.28370    1.000
    H151     H        0.82570    0.07470    0.23380    1.000
    C164     C        0.84938    0.06609    0.33080    1.000
    H152     H        0.86110    0.04720    0.31380    1.000
    C165     C        0.85333    0.07745    0.40270    1.000
    C166     C        0.83550    0.10420    0.42380    1.000
    H153     H        0.83780    0.11280    0.47310    1.000
    C167     C        0.81371    0.11925    0.37410    1.000
    H154     H        0.80070    0.13730    0.39100    1.000
    C168     C        0.87740    0.06040    0.45650    1.000
    H155     H        0.88790    0.04160    0.43010    1.000
    H156     H        0.89500    0.07630    0.47020    1.000
    Mn13     Mn       0.20666    0.17602    0.07625    1.000
    O37      O        0.23375    0.15473    0.00629    1.000
    O38      O        0.22863    0.25485    0.93616    1.000
    O39      O        0.18047    0.20477    0.14000    1.000
    N33      N        0.21405    0.21793    0.02644    1.000
    N34      N        0.19840    0.24541    0.06097    1.000
    C169     C        0.24796    0.16634    0.94680    1.000
    C170     C        0.26669    0.14387    0.90240    1.000
    H157     H        0.27040    0.12200    0.92020    1.000
    C171     C        0.27950    0.15332    0.83410    1.000
    H158     H        0.29240    0.13790    0.80660    1.000
    C172     C        0.27420    0.18420    0.80420    1.000
    H159     H        0.28120    0.18940    0.75470    1.000
    C173     C        0.25800    0.20798    0.84980    1.000
    H160     H        0.25580    0.23010    0.83260    1.000
    C174     C        0.24549    0.19917    0.91960    1.000
    C175     C        0.22871    0.22525    0.96230    1.000
    C176     C        0.18179    0.23600    0.11989    1.000
    C177     C        0.16354    0.26126    0.16510    1.000
    H161     H        0.15010    0.27490    0.13050    1.000
    H162     H        0.17990    0.27600    0.18930    1.000
    C178     C        0.14118    0.24777    0.22480    1.000
    H163     H        0.12260    0.23620    0.20120    1.000
    H164     H        0.13280    0.26600    0.25560    1.000
    H165     H        0.15350    0.23230    0.25650    1.000
    Mn14     Mn       0.21618    0.29183    0.00312    1.000
    O40      O        0.17513    0.30100    0.96146    1.000
    O41      O        0.18422    0.36528    0.14885    1.000
    O42      O        0.25786    0.28915    0.05561    1.000
    N35      N        0.21006    0.32689    0.07597    1.000
    N36      N        0.23790    0.33236    0.12243    1.000
    N37      N        0.24378    0.32450    0.91890    1.000
    C179     C        0.15256    0.32313    0.98050    1.000
    C180     C        0.12384    0.32517    0.93530    1.000
    H166     H        0.12160    0.31090    0.89320    1.000
    C181     C        0.09928    0.34740    0.95140    1.000
    H167     H        0.08020    0.34810    0.92030    1.000
    C182     C        0.10151    0.36887    0.01190    1.000
    H168     H        0.08430    0.38430    0.02200    1.000
    C183     C        0.12912    0.36743    0.05710    1.000
    H169     H        0.13080    0.38210    0.09860    1.000
    C184     C        0.15506    0.34470    0.04310    1.000
    C185     C        0.18433    0.34579    0.09226    1.000
    C186     C        0.26136    0.31186    0.10660    1.000
    C187     C        0.29402    0.31481    0.14480    1.000
    H170     H        0.29590    0.29700    0.18260    1.000
    H171     H        0.29480    0.33620    0.17190    1.000
    C188     C        0.32363    0.31290    0.09270    1.000
    H172     H        0.32310    0.29190    0.06530    1.000
    H173     H        0.34400    0.31430    0.12220    1.000
    H174     H        0.32280    0.33130    0.05690    1.000
    C189     C        0.24000    0.35454    0.91120    1.000
    H175     H        0.22280    0.36450    0.93970    1.000
    C190     C        0.25840    0.37548    0.86470    1.000
    H176     H        0.25370    0.39850    0.86450    1.000
    C191     C        0.28040    0.36463    0.82420    1.000
    C192     C        0.29260    0.33270    0.84390    1.000
    H177     H        0.31310    0.32490    0.82460    1.000
    C193     C        0.27400    0.31324    0.89130    1.000
    H178     H        0.28180    0.29200    0.90530    1.000
    C194     C        0.29910    0.38674    0.76960    1.000
    H179     H        0.28430    0.40520    0.75520    1.000
    H180     H        0.31820    0.39650    0.79660    1.000
    Mn15     Mn       0.27834    0.13697    0.27845    1.000
    O43      O        0.25816    0.09861    0.31021    1.000
    O44      O        0.19803    0.13522    0.13245    1.000
    O45      O        0.29372    0.17776    0.23463    1.000
    N38      N        0.24364    0.14430    0.20486    1.000
    N39      N        0.24622    0.17449    0.16515    1.000
    N40      N        0.35904    0.43937    0.55373    1.000
    C195     C        0.23349    0.08159    0.27820    1.000
    C196     C        0.22756    0.04992    0.30600    1.000
    H181     H        0.24090    0.04170    0.34580    1.000
    C197     C        0.20258    0.03013    0.27700    1.000
    H182     H        0.19900    0.00870    0.29700    1.000
    C198     C        0.18267    0.04161    0.21840    1.000
    H183     H        0.16570    0.02810    0.19810    1.000
    C199     C        0.18810    0.07283    0.19060    1.000
    H184     H        0.17450    0.08090    0.15120    1.000
    C200     C        0.21336    0.09322    0.21910    1.000
    C201     C        0.21809    0.12578    0.18390    1.000
    C202     C        0.27293    0.18972    0.18520    1.000
    C203     C        0.28208    0.22168    0.14800    1.000
    H185     H        0.26230    0.23180    0.12490    1.000
    H186     H        0.29110    0.23730    0.18560    1.000
    C204     C        0.30900    0.21430    0.08550    1.000
    H187     H        0.29900    0.20120    0.04510    1.000
    H188     H        0.31730    0.23520    0.06500    1.000
    H189     H        0.32740    0.20190    0.10770    1.000
    C205     C        0.33264    0.42195    0.53370    1.000
    H190     H        0.32470    0.42430    0.48380    1.000
    C206     C        0.31609    0.40062    0.58080    1.000
    H191     H        0.29720    0.38890    0.56380    1.000
    C207     C        0.32745    0.39667    0.65270    1.000
    C208     C        0.35420    0.41450    0.67380    1.000
    H192     H        0.36280    0.41220    0.72310    1.000
    C209     C        0.36925    0.43629    0.62410    1.000
    H193     H        0.38730    0.44930    0.64100    1.000
    C210     C        0.31040    0.37260    0.70650    1.000
    H194     H        0.29160    0.36210    0.68010    1.000
    H195     H        0.32630    0.35500    0.72020    1.000
    Mn16     Mn       0.70666    0.67602    0.57625    1.000
    O46      O        0.73375    0.65473    0.50629    1.000
    O47      O        0.72863    0.75485    0.43616    1.000
    O48      O        0.68047    0.70477    0.64000    1.000
    N41      N        0.71405    0.71793    0.52644    1.000
    N42      N        0.69840    0.74541    0.56097    1.000
    C211     C        0.74796    0.66634    0.44680    1.000
    C212     C        0.76669    0.64387    0.40240    1.000
    H196     H        0.77040    0.62200    0.42020    1.000
    C213     C        0.77950    0.65332    0.33410    1.000
    H197     H        0.79240    0.63790    0.30660    1.000
    C214     C        0.77420    0.68420    0.30420    1.000
    H198     H        0.78120    0.68940    0.25470    1.000
    C215     C        0.75800    0.70798    0.34980    1.000
    H199     H        0.75580    0.73010    0.33260    1.000
    C216     C        0.74549    0.69917    0.41960    1.000
    C217     C        0.72871    0.72525    0.46230    1.000
    C218     C        0.68179    0.73600    0.61989    1.000
    C219     C        0.66354    0.76126    0.66510    1.000
    H200     H        0.65010    0.77490    0.63050    1.000
    H201     H        0.67990    0.77600    0.68930    1.000
    C220     C        0.64118    0.74777    0.72480    1.000
    H202     H        0.62260    0.73620    0.70120    1.000
    H203     H        0.63280    0.76600    0.75560    1.000
    H204     H        0.65350    0.73230    0.75650    1.000
    Mn17     Mn       0.71618    0.79183    0.50312    1.000
    O49      O        0.67513    0.80100    0.46146    1.000
    O50      O        0.68422    0.86528    0.64885    1.000
    O51      O        0.75786    0.78915    0.55561    1.000
    N43      N        0.71006    0.82689    0.57597    1.000
    N44      N        0.73790    0.83236    0.62243    1.000
    N45      N        0.74378    0.82450    0.41890    1.000
    C221     C        0.65256    0.82313    0.48050    1.000
    C222     C        0.62384    0.82517    0.43530    1.000
    H205     H        0.62160    0.81090    0.39320    1.000
    C223     C        0.59928    0.84740    0.45140    1.000
    H206     H        0.58020    0.84810    0.42030    1.000
    C224     C        0.60151    0.86887    0.51190    1.000
    H207     H        0.58430    0.88430    0.52200    1.000
    C225     C        0.62912    0.86743    0.55710    1.000
    H208     H        0.63080    0.88210    0.59860    1.000
    C226     C        0.65506    0.84470    0.54310    1.000
    C227     C        0.68433    0.84579    0.59226    1.000
    C228     C        0.76136    0.81186    0.60660    1.000
    C229     C        0.79402    0.81481    0.64480    1.000
    H209     H        0.79590    0.79700    0.68260    1.000
    H210     H        0.79480    0.83620    0.67190    1.000
    C230     C        0.82363    0.81290    0.59270    1.000
    H211     H        0.82310    0.79190    0.56530    1.000
    H212     H        0.84400    0.81430    0.62220    1.000
    H213     H        0.82280    0.83130    0.55690    1.000
    C231     C        0.74000    0.85454    0.41120    1.000
    H214     H        0.72280    0.86450    0.43970    1.000
    C232     C        0.75840    0.87548    0.36470    1.000
    H215     H        0.75370    0.89850    0.36450    1.000
    C233     C        0.78040    0.86463    0.32420    1.000
    C234     C        0.79260    0.83270    0.34390    1.000
    H216     H        0.81310    0.82490    0.32460    1.000
    C235     C        0.77400    0.81324    0.39130    1.000
    H217     H        0.78180    0.79200    0.40530    1.000
    C236     C        0.79910    0.88674    0.26960    1.000
    H218     H        0.78430    0.90520    0.25520    1.000
    H219     H        0.81820    0.89650    0.29660    1.000
    Mn18     Mn       0.77834    0.63697    0.77845    1.000
    O52      O        0.75816    0.59861    0.81021    1.000
    O53      O        0.69803    0.63522    0.63245    1.000
    O54      O        0.79372    0.67776    0.73463    1.000
    N46      N        0.74364    0.64430    0.70486    1.000
    N47      N        0.74622    0.67449    0.66515    1.000
    N48      N        0.85904    0.93937    0.05373    1.000
    C237     C        0.73349    0.58159    0.77820    1.000
    C238     C        0.72756    0.54992    0.80600    1.000
    H220     H        0.74090    0.54170    0.84580    1.000
    C239     C        0.70258    0.53013    0.77700    1.000
    H221     H        0.69900    0.50870    0.79700    1.000
    C240     C        0.68267    0.54161    0.71840    1.000
    H222     H        0.66570    0.52810    0.69810    1.000
    C241     C        0.68810    0.57283    0.69060    1.000
    H223     H        0.67450    0.58090    0.65120    1.000
    C242     C        0.71336    0.59322    0.71910    1.000
    C243     C        0.71809    0.62578    0.68390    1.000
    C244     C        0.77293    0.68972    0.68520    1.000
    C245     C        0.78208    0.72168    0.64800    1.000
    H224     H        0.76230    0.73180    0.62490    1.000
    H225     H        0.79110    0.73730    0.68560    1.000
    C246     C        0.80900    0.71430    0.58550    1.000
    H226     H        0.79900    0.70120    0.54510    1.000
    H227     H        0.81730    0.73520    0.56500    1.000
    H228     H        0.82740    0.70190    0.60770    1.000
    C247     C        0.83264    0.92195    0.03370    1.000
    H229     H        0.82470    0.92430    0.98380    1.000
    C248     C        0.81609    0.90062    0.08080    1.000
    H230     H        0.79720    0.88890    0.06380    1.000
    C249     C        0.82745    0.89667    0.15270    1.000
    C250     C        0.85420    0.91450    0.17380    1.000
    H231     H        0.86280    0.91220    0.22310    1.000
    C251     C        0.86925    0.93629    0.12410    1.000
    H232     H        0.88730    0.94930    0.14100    1.000
    C252     C        0.81040    0.87260    0.20650    1.000
    H233     H        0.79160    0.86210    0.18010    1.000
    H234     H        0.82630    0.85500    0.22020    1.000
    Mn19     Mn       0.29334    0.82398    0.57625    1.000
    O55      O        0.26625    0.84527    0.50629    1.000
    O56      O        0.27137    0.74515    0.43616    1.000
    O57      O        0.31953    0.79523    0.64000    1.000
    N49      N        0.28595    0.78207    0.52644    1.000
    N50      N        0.30160    0.75459    0.56097    1.000
    C253     C        0.25204    0.83366    0.44680    1.000
    C254     C        0.23331    0.85613    0.40240    1.000
    H235     H        0.22960    0.87800    0.42020    1.000
    C255     C        0.22050    0.84668    0.33410    1.000
    H236     H        0.20760    0.86210    0.30660    1.000
    C256     C        0.22580    0.81580    0.30420    1.000
    H237     H        0.21880    0.81060    0.25470    1.000
    C257     C        0.24200    0.79202    0.34980    1.000
    H238     H        0.24420    0.76990    0.33260    1.000
    C258     C        0.25451    0.80083    0.41960    1.000
    C259     C        0.27129    0.77475    0.46230    1.000
    C260     C        0.31821    0.76400    0.61989    1.000
    C261     C        0.33646    0.73874    0.66510    1.000
    H239     H        0.34990    0.72510    0.63050    1.000
    H240     H        0.32010    0.72400    0.68930    1.000
    C262     C        0.35882    0.75223    0.72480    1.000
    H241     H        0.37740    0.76380    0.70120    1.000
    H242     H        0.36720    0.73400    0.75560    1.000
    H243     H        0.34650    0.76770    0.75650    1.000
    Mn20     Mn       0.28382    0.70817    0.50312    1.000
    O58      O        0.32487    0.69900    0.46146    1.000
    O59      O        0.31578    0.63472    0.64885    1.000
    O60      O        0.24214    0.71085    0.55561    1.000
    N51      N        0.28994    0.67311    0.57597    1.000
    N52      N        0.26210    0.66764    0.62243    1.000
    N53      N        0.25622    0.67550    0.41890    1.000
    C263     C        0.34744    0.67687    0.48050    1.000
    C264     C        0.37616    0.67483    0.43530    1.000
    H244     H        0.37840    0.68910    0.39320    1.000
    C265     C        0.40072    0.65260    0.45140    1.000
    H245     H        0.41980    0.65190    0.42030    1.000
    C266     C        0.39849    0.63113    0.51190    1.000
    H246     H        0.41570    0.61570    0.52200    1.000
    C267     C        0.37088    0.63257    0.55710    1.000
    H247     H        0.36920    0.61790    0.59860    1.000
    C268     C        0.34494    0.65530    0.54310    1.000
    C269     C        0.31567    0.65421    0.59226    1.000
    C270     C        0.23864    0.68814    0.60660    1.000
    C271     C        0.20598    0.68519    0.64480    1.000
    H248     H        0.20410    0.70300    0.68260    1.000
    H249     H        0.20520    0.66380    0.67190    1.000
    C272     C        0.17637    0.68710    0.59270    1.000
    H250     H        0.17690    0.70810    0.56530    1.000
    H251     H        0.15600    0.68570    0.62220    1.000
    H252     H        0.17720    0.66870    0.55690    1.000
    C273     C        0.26000    0.64546    0.41120    1.000
    H253     H        0.27720    0.63550    0.43970    1.000
    C274     C        0.24160    0.62452    0.36470    1.000
    H254     H        0.24630    0.60150    0.36450    1.000
    C275     C        0.21960    0.63537    0.32420    1.000
    C276     C        0.20740    0.66730    0.34390    1.000
    H255     H        0.18690    0.67510    0.32460    1.000
    C277     C        0.22600    0.68676    0.39130    1.000
    H256     H        0.21820    0.70800    0.40530    1.000
    C278     C        0.20090    0.61326    0.26960    1.000
    H257     H        0.21570    0.59480    0.25520    1.000
    H258     H        0.18180    0.60350    0.29660    1.000
    Mn21     Mn       0.22166    0.86303    0.77845    1.000
    O61      O        0.24184    0.90139    0.81021    1.000
    O62      O        0.30197    0.86478    0.63245    1.000
    O63      O        0.20628    0.82224    0.73463    1.000
    N54      N        0.25636    0.85570    0.70486    1.000
    N55      N        0.25378    0.82551    0.66515    1.000
    N56      N        0.14096    0.56063    0.05373    1.000
    C279     C        0.26651    0.91841    0.77820    1.000
    C280     C        0.27244    0.95008    0.80600    1.000
    H259     H        0.25910    0.95830    0.84580    1.000
    C281     C        0.29742    0.96987    0.77700    1.000
    H260     H        0.30100    0.99130    0.79700    1.000
    C282     C        0.31733    0.95839    0.71840    1.000
    H261     H        0.33430    0.97190    0.69810    1.000
    C283     C        0.31190    0.92717    0.69060    1.000
    H262     H        0.32550    0.91910    0.65120    1.000
    C284     C        0.28664    0.90678    0.71910    1.000
    C285     C        0.28191    0.87422    0.68390    1.000
    C286     C        0.22707    0.81028    0.68520    1.000
    C287     C        0.21792    0.77832    0.64800    1.000
    H263     H        0.23770    0.76820    0.62490    1.000
    H264     H        0.20890    0.76270    0.68560    1.000
    C288     C        0.19100    0.78570    0.58550    1.000
    H265     H        0.20100    0.79880    0.54510    1.000
    H266     H        0.18270    0.76480    0.56500    1.000
    H267     H        0.17260    0.79810    0.60770    1.000
    C289     C        0.16736    0.57805    0.03370    1.000
    H268     H        0.17530    0.57570    0.98380    1.000
    C290     C        0.18391    0.59938    0.08080    1.000
    H269     H        0.20280    0.61110    0.06380    1.000
    C291     C        0.17255    0.60333    0.15270    1.000
    C292     C        0.14580    0.58550    0.17380    1.000
    H270     H        0.13720    0.58780    0.22310    1.000
    C293     C        0.13075    0.56371    0.12410    1.000
    H271     H        0.11270    0.55070    0.14100    1.000
    C294     C        0.18960    0.62740    0.20650    1.000
    H272     H        0.20840    0.63790    0.18010    1.000
    H273     H        0.17370    0.64500    0.22020    1.000
    Mn22     Mn       0.79334    0.32398    0.07625    1.000
    O64      O        0.76625    0.34527    0.00629    1.000
    O65      O        0.77137    0.24515    0.93616    1.000
    O66      O        0.81953    0.29523    0.14000    1.000
    N57      N        0.78595    0.28207    0.02644    1.000
    N58      N        0.80160    0.25459    0.06097    1.000
    C295     C        0.75204    0.33366    0.94680    1.000
    C296     C        0.73331    0.35613    0.90240    1.000
    H274     H        0.72960    0.37800    0.92020    1.000
    C297     C        0.72050    0.34668    0.83410    1.000
    H275     H        0.70760    0.36210    0.80660    1.000
    C298     C        0.72580    0.31580    0.80420    1.000
    H276     H        0.71880    0.31060    0.75470    1.000
    C299     C        0.74200    0.29202    0.84980    1.000
    H277     H        0.74420    0.26990    0.83260    1.000
    C300     C        0.75451    0.30083    0.91960    1.000
    C301     C        0.77129    0.27475    0.96230    1.000
    C302     C        0.81821    0.26400    0.11989    1.000
    C303     C        0.83646    0.23874    0.16510    1.000
    H278     H        0.84990    0.22510    0.13050    1.000
    H279     H        0.82010    0.22400    0.18930    1.000
    C304     C        0.85882    0.25223    0.22480    1.000
    H280     H        0.87740    0.26380    0.20120    1.000
    H281     H        0.86720    0.23400    0.25560    1.000
    H282     H        0.84650    0.26770    0.25650    1.000
    Mn23     Mn       0.78382    0.20817    0.00312    1.000
    O67      O        0.82487    0.19900    0.96146    1.000
    O68      O        0.81578    0.13472    0.14885    1.000
    O69      O        0.74214    0.21085    0.05561    1.000
    N59      N        0.78994    0.17311    0.07597    1.000
    N60      N        0.76210    0.16764    0.12243    1.000
    N61      N        0.75622    0.17550    0.91890    1.000
    C305     C        0.84744    0.17687    0.98050    1.000
    C306     C        0.87616    0.17483    0.93530    1.000
    H283     H        0.87840    0.18910    0.89320    1.000
    C307     C        0.90072    0.15260    0.95140    1.000
    H284     H        0.91980    0.15190    0.92030    1.000
    C308     C        0.89849    0.13113    0.01190    1.000
    H285     H        0.91570    0.11570    0.02200    1.000
    C309     C        0.87088    0.13257    0.05710    1.000
    H286     H        0.86920    0.11790    0.09860    1.000
    C310     C        0.84494    0.15530    0.04310    1.000
    C311     C        0.81567    0.15421    0.09226    1.000
    C312     C        0.73864    0.18814    0.10660    1.000
    C313     C        0.70598    0.18519    0.14480    1.000
    H287     H        0.70410    0.20300    0.18260    1.000
    H288     H        0.70520    0.16380    0.17190    1.000
    C314     C        0.67637    0.18710    0.09270    1.000
    H289     H        0.67690    0.20810    0.06530    1.000
    H290     H        0.65600    0.18570    0.12220    1.000
    H291     H        0.67720    0.16870    0.05690    1.000
    C315     C        0.76000    0.14546    0.91120    1.000
    H292     H        0.77720    0.13550    0.93970    1.000
    C316     C        0.74160    0.12452    0.86470    1.000
    H293     H        0.74630    0.10150    0.86450    1.000
    C317     C        0.71960    0.13537    0.82420    1.000
    C318     C        0.70740    0.16730    0.84390    1.000
    H294     H        0.68690    0.17510    0.82460    1.000
    C319     C        0.72600    0.18676    0.89130    1.000
    H295     H        0.71820    0.20800    0.90530    1.000
    C320     C        0.70090    0.11326    0.76960    1.000
    H296     H        0.71570    0.09480    0.75520    1.000
    H297     H        0.68180    0.10350    0.79660    1.000
    Mn24     Mn       0.72166    0.36303    0.27845    1.000
    O70      O        0.74184    0.40139    0.31021    1.000
    O71      O        0.80197    0.36478    0.13245    1.000
    O72      O        0.70628    0.32224    0.23463    1.000
    N62      N        0.75636    0.35570    0.20486    1.000
    N63      N        0.75378    0.32551    0.16515    1.000
    N64      N        0.64096    0.06063    0.55373    1.000
    C321     C        0.76651    0.41841    0.27820    1.000
    C322     C        0.77244    0.45008    0.30600    1.000
    H298     H        0.75910    0.45830    0.34580    1.000
    C323     C        0.79742    0.46987    0.27700    1.000
    H299     H        0.80100    0.49130    0.29700    1.000
    C324     C        0.81733    0.45839    0.21840    1.000
    H300     H        0.83430    0.47190    0.19810    1.000
    C325     C        0.81190    0.42717    0.19060    1.000
    H301     H        0.82550    0.41910    0.15120    1.000
    C326     C        0.78664    0.40678    0.21910    1.000
    C327     C        0.78191    0.37422    0.18390    1.000
    C328     C        0.72707    0.31028    0.18520    1.000
    C329     C        0.71792    0.27832    0.14800    1.000
    H302     H        0.73770    0.26820    0.12490    1.000
    H303     H        0.70890    0.26270    0.18560    1.000
    C330     C        0.69100    0.28570    0.08550    1.000
    H304     H        0.70100    0.29880    0.04510    1.000
    H305     H        0.68270    0.26480    0.06500    1.000
    H306     H        0.67260    0.29810    0.10770    1.000
    C331     C        0.66736    0.07805    0.53370    1.000
    H307     H        0.67530    0.07570    0.48380    1.000
    C332     C        0.68391    0.09938    0.58080    1.000
    H308     H        0.70280    0.11110    0.56380    1.000
    C333     C        0.67255    0.10333    0.65270    1.000
    C334     C        0.64580    0.08550    0.67380    1.000
    H309     H        0.63720    0.08780    0.72310    1.000
    C335     C        0.63075    0.06371    0.62410    1.000
    H310     H        0.61270    0.05070    0.64100    1.000
    C336     C        0.68960    0.12740    0.70650    1.000
    H311     H        0.70840    0.13790    0.68010    1.000
    H312     H        0.67370    0.14500    0.72020    1.000
    Mn25     Mn       0.07398    0.45666    0.17375    1.000
    O73      O        0.09527    0.48375    0.24371    1.000
    O74      O        0.99515    0.47863    0.31384    1.000
    O75      O        0.04523    0.43047    0.11000    1.000
    N65      N        0.03207    0.46405    0.22356    1.000
    N66      N        0.00459    0.44840    0.18903    1.000
    C337     C        0.08366    0.49796    0.30320    1.000
    C338     C        0.10613    0.51669    0.34760    1.000
    H313     H        0.12800    0.52040    0.32980    1.000
    C339     C        0.09668    0.52950    0.41590    1.000
    H314     H        0.11210    0.54240    0.44340    1.000
    C340     C        0.06580    0.52420    0.44580    1.000
    H315     H        0.06060    0.53120    0.49530    1.000
    C341     C        0.04202    0.50800    0.40020    1.000
    H316     H        0.01990    0.50580    0.41740    1.000
    C342     C        0.05083    0.49549    0.33040    1.000
    C343     C        0.02475    0.47871    0.28770    1.000
    C344     C        0.01400    0.43179    0.13011    1.000
    C345     C        0.98874    0.41354    0.08490    1.000
    H317     H        0.97510    0.40010    0.11950    1.000
    H318     H        0.97400    0.42990    0.06070    1.000
    C346     C        0.00223    0.39118    0.02520    1.000
    H319     H        0.01380    0.37260    0.04880    1.000
    H320     H        0.98400    0.38280    0.99440    1.000
    H321     H        0.01770    0.40350    0.99350    1.000
    Mn26     Mn       0.95817    0.46618    0.24688    1.000
    O76      O        0.94900    0.42513    0.28854    1.000
    O77      O        0.88472    0.43422    0.10115    1.000
    O78      O        0.96085    0.50786    0.19439    1.000
    N67      N        0.92311    0.46006    0.17403    1.000
    N68      N        0.91764    0.48790    0.12757    1.000
    N69      N        0.92550    0.49378    0.33110    1.000
    C347     C        0.92687    0.40256    0.26950    1.000
    C348     C        0.92483    0.37384    0.31470    1.000
    H322     H        0.93910    0.37160    0.35680    1.000
    C349     C        0.90260    0.34928    0.29860    1.000
    H323     H        0.90190    0.33020    0.32970    1.000
    C350     C        0.88113    0.35151    0.23810    1.000
    H324     H        0.86570    0.33430    0.22800    1.000
    C351     C        0.88257    0.37912    0.19290    1.000
    H325     H        0.86790    0.38080    0.15140    1.000
    C352     C        0.90530    0.40506    0.20690    1.000
    C353     C        0.90421    0.43433    0.15774    1.000
    C354     C        0.93814    0.51136    0.14340    1.000
    C355     C        0.93519    0.54402    0.10520    1.000
    H326     H        0.95300    0.54590    0.06740    1.000
    H327     H        0.91380    0.54480    0.07810    1.000
    C356     C        0.93710    0.57363    0.15730    1.000
    H328     H        0.95810    0.57310    0.18470    1.000
    H329     H        0.93570    0.59400    0.12780    1.000
    H330     H        0.91870    0.57280    0.19310    1.000
    C357     C        0.89546    0.49000    0.33880    1.000
    H331     H        0.88550    0.47280    0.31030    1.000
    C358     C        0.87452    0.50840    0.38530    1.000
    H332     H        0.85150    0.50370    0.38550    1.000
    C359     C        0.88537    0.53040    0.42580    1.000
    C360     C        0.91730    0.54260    0.40610    1.000
    H333     H        0.92510    0.56310    0.42540    1.000
    C361     C        0.93676    0.52400    0.35870    1.000
    H334     H        0.95800    0.53180    0.34470    1.000
    C362     C        0.86326    0.54910    0.48040    1.000
    H335     H        0.84480    0.53430    0.49480    1.000
    H336     H        0.85350    0.56820    0.45340    1.000
    Mn27     Mn       0.11303    0.52834    0.97155    1.000
    O79      O        0.15139    0.50816    0.93979    1.000
    O80      O        0.11478    0.44803    0.11755    1.000
    O81      O        0.07224    0.54372    0.01537    1.000
    N70      N        0.10570    0.49364    0.04514    1.000
    N71      N        0.07551    0.49622    0.08485    1.000
    N72      N        0.81063    0.60904    0.69627    1.000
    C363     C        0.16841    0.48349    0.97180    1.000
    C364     C        0.20008    0.47756    0.94400    1.000
    H337     H        0.20830    0.49090    0.90420    1.000
    C365     C        0.21987    0.45258    0.97300    1.000
    H338     H        0.24130    0.44900    0.95300    1.000
    C366     C        0.20839    0.43267    0.03160    1.000
    H339     H        0.22190    0.41570    0.05190    1.000
    C367     C        0.17717    0.43810    0.05940    1.000
    H340     H        0.16910    0.42450    0.09880    1.000
    C368     C        0.15678    0.46336    0.03090    1.000
    C369     C        0.12422    0.46809    0.06610    1.000
    C370     C        0.06028    0.52293    0.06480    1.000
    C371     C        0.02832    0.53208    0.10200    1.000
    H341     H        0.01820    0.51230    0.12510    1.000
    H342     H        0.01270    0.54110    0.06440    1.000
    C372     C        0.03570    0.55900    0.16450    1.000
    H343     H        0.04880    0.54900    0.20490    1.000
    H344     H        0.01480    0.56730    0.18500    1.000
    H345     H        0.04810    0.57740    0.14230    1.000
    C373     C        0.82805    0.58264    0.71630    1.000
    H346     H        0.82570    0.57470    0.76620    1.000
    C374     C        0.84938    0.56609    0.66920    1.000
    H347     H        0.86110    0.54720    0.68620    1.000
    C375     C        0.85333    0.57745    0.59730    1.000
    C376     C        0.83550    0.60420    0.57620    1.000
    H348     H        0.83780    0.61280    0.52690    1.000
    C377     C        0.81371    0.61925    0.62590    1.000
    H349     H        0.80070    0.63730    0.60900    1.000
    C378     C        0.87740    0.56040    0.54350    1.000
    H350     H        0.88790    0.54160    0.56990    1.000
    H351     H        0.89500    0.57630    0.52980    1.000
    Mn28     Mn       0.57398    0.95666    0.67375    1.000
    O82      O        0.59527    0.98375    0.74371    1.000
    O83      O        0.49515    0.97863    0.81384    1.000
    O84      O        0.54523    0.93047    0.61000    1.000
    N73      N        0.53207    0.96405    0.72356    1.000
    N74      N        0.50459    0.94840    0.68903    1.000
    C379     C        0.58366    0.99796    0.80320    1.000
    C380     C        0.60613    0.01669    0.84760    1.000
    H352     H        0.62800    0.02040    0.82980    1.000
    C381     C        0.59668    0.02950    0.91590    1.000
    H353     H        0.61210    0.04240    0.94340    1.000
    C382     C        0.56580    0.02420    0.94580    1.000
    H354     H        0.56060    0.03120    0.99530    1.000
    C383     C        0.54202    0.00800    0.90020    1.000
    H355     H        0.51990    0.00580    0.91740    1.000
    C384     C        0.55083    0.99549    0.83040    1.000
    C385     C        0.52475    0.97871    0.78770    1.000
    C386     C        0.51400    0.93179    0.63011    1.000
    C387     C        0.48874    0.91354    0.58490    1.000
    H356     H        0.47510    0.90010    0.61950    1.000
    H357     H        0.47400    0.92990    0.56070    1.000
    C388     C        0.50223    0.89118    0.52520    1.000
    H358     H        0.51380    0.87260    0.54880    1.000
    H359     H        0.48400    0.88280    0.49440    1.000
    H360     H        0.51770    0.90350    0.49350    1.000
    Mn29     Mn       0.45817    0.96618    0.74688    1.000
    O85      O        0.44900    0.92513    0.78854    1.000
    O86      O        0.38472    0.93422    0.60115    1.000
    O87      O        0.46085    0.00786    0.69439    1.000
    N75      N        0.42311    0.96006    0.67403    1.000
    N76      N        0.41764    0.98790    0.62757    1.000
    N77      N        0.42550    0.99378    0.83110    1.000
    C389     C        0.42687    0.90256    0.76950    1.000
    C390     C        0.42483    0.87384    0.81470    1.000
    H361     H        0.43910    0.87160    0.85680    1.000
    C391     C        0.40260    0.84928    0.79860    1.000
    H362     H        0.40190    0.83020    0.82970    1.000
    C392     C        0.38113    0.85151    0.73810    1.000
    H363     H        0.36570    0.83430    0.72800    1.000
    C393     C        0.38257    0.87912    0.69290    1.000
    H364     H        0.36790    0.88080    0.65140    1.000
    C394     C        0.40530    0.90506    0.70690    1.000
    C395     C        0.40421    0.93433    0.65774    1.000
    C396     C        0.43814    0.01136    0.64340    1.000
    C397     C        0.43519    0.04402    0.60520    1.000
    H365     H        0.45300    0.04590    0.56740    1.000
    H366     H        0.41380    0.04480    0.57810    1.000
    C398     C        0.43710    0.07363    0.65730    1.000
    H367     H        0.45810    0.07310    0.68470    1.000
    H368     H        0.43570    0.09400    0.62780    1.000
    H369     H        0.41870    0.07280    0.69310    1.000
    C399     C        0.39546    0.99000    0.83880    1.000
    H370     H        0.38550    0.97280    0.81030    1.000
    C400     C        0.37452    0.00840    0.88530    1.000
    H371     H        0.35150    0.00370    0.88550    1.000
    C401     C        0.38537    0.03040    0.92580    1.000
    C402     C        0.41730    0.04260    0.90610    1.000
    H372     H        0.42510    0.06310    0.92540    1.000
    C403     C        0.43676    0.02400    0.85870    1.000
    H373     H        0.45800    0.03180    0.84470    1.000
    C404     C        0.36326    0.04910    0.98040    1.000
    H374     H        0.34480    0.03430    0.99480    1.000
    H375     H        0.35350    0.06820    0.95340    1.000
    Mn30     Mn       0.61303    0.02834    0.47155    1.000
    O88      O        0.65139    0.00816    0.43979    1.000
    O89      O        0.61478    0.94803    0.61755    1.000
    O90      O        0.57224    0.04372    0.51537    1.000
    N78      N        0.60570    0.99364    0.54514    1.000
    N79      N        0.57551    0.99622    0.58485    1.000
    N80      N        0.31063    0.10904    0.19627    1.000
    C405     C        0.66841    0.98349    0.47180    1.000
    C406     C        0.70008    0.97756    0.44400    1.000
    H376     H        0.70830    0.99090    0.40420    1.000
    C407     C        0.71987    0.95258    0.47300    1.000
    H377     H        0.74130    0.94900    0.45300    1.000
    C408     C        0.70839    0.93267    0.53160    1.000
    H378     H        0.72190    0.91570    0.55190    1.000
    C409     C        0.67717    0.93810    0.55940    1.000
    H379     H        0.66910    0.92450    0.59880    1.000
    C410     C        0.65678    0.96336    0.53090    1.000
    C411     C        0.62422    0.96809    0.56610    1.000
    C412     C        0.56028    0.02293    0.56480    1.000
    C413     C        0.52832    0.03208    0.60200    1.000
    H380     H        0.51820    0.01230    0.62510    1.000
    H381     H        0.51270    0.04110    0.56440    1.000
    C414     C        0.53570    0.05900    0.66450    1.000
    H382     H        0.54880    0.04900    0.70490    1.000
    H383     H        0.51480    0.06730    0.68500    1.000
    H384     H        0.54810    0.07740    0.64230    1.000
    C415     C        0.32805    0.08264    0.21630    1.000
    H385     H        0.32570    0.07470    0.26620    1.000
    C416     C        0.34938    0.06609    0.16920    1.000
    H386     H        0.36110    0.04720    0.18620    1.000
    C417     C        0.35333    0.07745    0.09730    1.000
    C418     C        0.33550    0.10420    0.07620    1.000
    H387     H        0.33780    0.11280    0.02690    1.000
    C419     C        0.31371    0.11925    0.12590    1.000
    H388     H        0.30070    0.13730    0.10900    1.000
    C420     C        0.37740    0.06040    0.04350    1.000
    H389     H        0.38790    0.04160    0.06990    1.000
    H390     H        0.39500    0.07630    0.02980    1.000
    Mn31     Mn       0.42602    0.54334    0.67375    1.000
    O91      O        0.40473    0.51625    0.74371    1.000
    O92      O        0.50485    0.52137    0.81384    1.000
    O93      O        0.45477    0.56953    0.61000    1.000
    N81      N        0.46793    0.53595    0.72356    1.000
    N82      N        0.49541    0.55160    0.68903    1.000
    C421     C        0.41634    0.50204    0.80320    1.000
    C422     C        0.39387    0.48331    0.84760    1.000
    H391     H        0.37200    0.47960    0.82980    1.000
    C423     C        0.40332    0.47050    0.91590    1.000
    H392     H        0.38790    0.45760    0.94340    1.000
    C424     C        0.43420    0.47580    0.94580    1.000
    H393     H        0.43940    0.46880    0.99530    1.000
    C425     C        0.45798    0.49200    0.90020    1.000
    H394     H        0.48010    0.49420    0.91740    1.000
    C426     C        0.44917    0.50451    0.83040    1.000
    C427     C        0.47525    0.52129    0.78770    1.000
    C428     C        0.48600    0.56821    0.63011    1.000
    C429     C        0.51126    0.58646    0.58490    1.000
    H395     H        0.52490    0.59990    0.61950    1.000
    H396     H        0.52600    0.57010    0.56070    1.000
    C430     C        0.49777    0.60882    0.52520    1.000
    H397     H        0.48620    0.62740    0.54880    1.000
    H398     H        0.51600    0.61720    0.49440    1.000
    H399     H        0.48230    0.59650    0.49350    1.000
    Mn32     Mn       0.54183    0.53382    0.74688    1.000
    O94      O        0.55100    0.57487    0.78854    1.000
    O95      O        0.61528    0.56578    0.60115    1.000
    O96      O        0.53915    0.49214    0.69439    1.000
    N83      N        0.57689    0.53994    0.67403    1.000
    N84      N        0.58236    0.51210    0.62757    1.000
    N85      N        0.57450    0.50622    0.83110    1.000
    C431     C        0.57313    0.59744    0.76950    1.000
    C432     C        0.57517    0.62616    0.81470    1.000
    H400     H        0.56090    0.62840    0.85680    1.000
    C433     C        0.59740    0.65072    0.79860    1.000
    H401     H        0.59810    0.66980    0.82970    1.000
    C434     C        0.61887    0.64849    0.73810    1.000
    H402     H        0.63430    0.66570    0.72800    1.000
    C435     C        0.61743    0.62088    0.69290    1.000
    H403     H        0.63210    0.61920    0.65140    1.000
    C436     C        0.59470    0.59494    0.70690    1.000
    C437     C        0.59579    0.56567    0.65774    1.000
    C438     C        0.56186    0.48864    0.64340    1.000
    C439     C        0.56481    0.45598    0.60520    1.000
    H404     H        0.54700    0.45410    0.56740    1.000
    H405     H        0.58620    0.45520    0.57810    1.000
    C440     C        0.56290    0.42637    0.65730    1.000
    H406     H        0.54190    0.42690    0.68470    1.000
    H407     H        0.56430    0.40600    0.62780    1.000
    H408     H        0.58130    0.42720    0.69310    1.000
    C441     C        0.60454    0.51000    0.83880    1.000
    H409     H        0.61450    0.52720    0.81030    1.000
    C442     C        0.62548    0.49160    0.88530    1.000
    H410     H        0.64850    0.49630    0.88550    1.000
    C443     C        0.61463    0.46960    0.92580    1.000
    C444     C        0.58270    0.45740    0.90610    1.000
    H411     H        0.57490    0.43690    0.92540    1.000
    C445     C        0.56324    0.47600    0.85870    1.000
    H412     H        0.54200    0.46820    0.84470    1.000
    C446     C        0.63674    0.45090    0.98040    1.000
    H413     H        0.65520    0.46570    0.99480    1.000
    H414     H        0.64650    0.43180    0.95340    1.000
    Mn33     Mn       0.38697    0.47166    0.47155    1.000
    O97      O        0.34861    0.49184    0.43979    1.000
    O98      O        0.38522    0.55197    0.61755    1.000
    O99      O        0.42776    0.45628    0.51537    1.000
    N86      N        0.39430    0.50636    0.54514    1.000
    N87      N        0.42449    0.50378    0.58485    1.000
    N88      N        0.68937    0.39096    0.19627    1.000
    C447     C        0.33159    0.51651    0.47180    1.000
    C448     C        0.29992    0.52244    0.44400    1.000
    H415     H        0.29170    0.50910    0.40420    1.000
    C449     C        0.28013    0.54742    0.47300    1.000
    H416     H        0.25870    0.55100    0.45300    1.000
    C450     C        0.29161    0.56733    0.53160    1.000
    H417     H        0.27810    0.58430    0.55190    1.000
    C451     C        0.32283    0.56190    0.55940    1.000
    H418     H        0.33090    0.57550    0.59880    1.000
    C452     C        0.34322    0.53664    0.53090    1.000
    C453     C        0.37578    0.53191    0.56610    1.000
    C454     C        0.43972    0.47707    0.56480    1.000
    C455     C        0.47168    0.46792    0.60200    1.000
    H419     H        0.48180    0.48770    0.62510    1.000
    H420     H        0.48730    0.45890    0.56440    1.000
    C456     C        0.46430    0.44100    0.66450    1.000
    H421     H        0.45120    0.45100    0.70490    1.000
    H422     H        0.48520    0.43270    0.68500    1.000
    H423     H        0.45190    0.42260    0.64230    1.000
    C457     C        0.67195    0.41736    0.21630    1.000
    H424     H        0.67430    0.42530    0.26620    1.000
    C458     C        0.65062    0.43391    0.16920    1.000
    H425     H        0.63890    0.45280    0.18620    1.000
    C459     C        0.64667    0.42255    0.09730    1.000
    C460     C        0.66450    0.39580    0.07620    1.000
    H426     H        0.66220    0.38720    0.02690    1.000
    C461     C        0.68629    0.38075    0.12590    1.000
    H427     H        0.69930    0.36270    0.10900    1.000
    C462     C        0.62260    0.43960    0.04350    1.000
    H428     H        0.61210    0.45840    0.06990    1.000
    H429     H        0.60500    0.42370    0.02980    1.000
    Mn34     Mn       0.92602    0.04334    0.17375    1.000
    O100     O        0.90473    0.01625    0.24371    1.000
    O101     O        0.00485    0.02137    0.31384    1.000
    O102     O        0.95477    0.06953    0.11000    1.000
    N89      N        0.96793    0.03595    0.22356    1.000
    N90      N        0.99541    0.05160    0.18903    1.000
    C463     C        0.91634    0.00204    0.30320    1.000
    C464     C        0.89387    0.98331    0.34760    1.000
    H430     H        0.87200    0.97960    0.32980    1.000
    C465     C        0.90332    0.97050    0.41590    1.000
    H431     H        0.88790    0.95760    0.44340    1.000
    C466     C        0.93420    0.97580    0.44580    1.000
    H432     H        0.93940    0.96880    0.49530    1.000
    C467     C        0.95798    0.99200    0.40020    1.000
    H433     H        0.98010    0.99420    0.41740    1.000
    C468     C        0.94917    0.00451    0.33040    1.000
    C469     C        0.97525    0.02129    0.28770    1.000
    C470     C        0.98600    0.06821    0.13011    1.000
    C471     C        0.01126    0.08646    0.08490    1.000
    H434     H        0.02490    0.09990    0.11950    1.000
    H435     H        0.02600    0.07010    0.06070    1.000
    C472     C        0.99777    0.10882    0.02520    1.000
    H436     H        0.98620    0.12740    0.04880    1.000
    H437     H        0.01600    0.11720    0.99440    1.000
    H438     H        0.98230    0.09650    0.99350    1.000
    Mn35     Mn       0.04183    0.03382    0.24688    1.000
    O103     O        0.05100    0.07487    0.28854    1.000
    O104     O        0.11528    0.06578    0.10115    1.000
    O105     O        0.03915    0.99214    0.19439    1.000
    N91      N        0.07689    0.03994    0.17403    1.000
    N92      N        0.08236    0.01210    0.12757    1.000
    N93      N        0.07450    0.00622    0.33110    1.000
    C473     C        0.07313    0.09744    0.26950    1.000
    C474     C        0.07517    0.12616    0.31470    1.000
    H439     H        0.06090    0.12840    0.35680    1.000
    C475     C        0.09740    0.15072    0.29860    1.000
    H440     H        0.09810    0.16980    0.32970    1.000
    C476     C        0.11887    0.14849    0.23810    1.000
    H441     H        0.13430    0.16570    0.22800    1.000
    C477     C        0.11743    0.12088    0.19290    1.000
    H442     H        0.13210    0.11920    0.15140    1.000
    C478     C        0.09470    0.09494    0.20690    1.000
    C479     C        0.09579    0.06567    0.15774    1.000
    C480     C        0.06186    0.98864    0.14340    1.000
    C481     C        0.06481    0.95598    0.10520    1.000
    H443     H        0.04700    0.95410    0.06740    1.000
    H444     H        0.08620    0.95520    0.07810    1.000
    C482     C        0.06290    0.92637    0.15730    1.000
    H445     H        0.04190    0.92690    0.18470    1.000
    H446     H        0.06430    0.90600    0.12780    1.000
    H447     H        0.08130    0.92720    0.19310    1.000
    C483     C        0.10454    0.01000    0.33880    1.000
    H448     H        0.11450    0.02720    0.31030    1.000
    C484     C        0.12548    0.99160    0.38530    1.000
    H449     H        0.14850    0.99630    0.38550    1.000
    C485     C        0.11463    0.96960    0.42580    1.000
    C486     C        0.08270    0.95740    0.40610    1.000
    H450     H        0.07490    0.93690    0.42540    1.000
    C487     C        0.06324    0.97600    0.35870    1.000
    H451     H        0.04200    0.96820    0.34470    1.000
    C488     C        0.13674    0.95090    0.48040    1.000
    H452     H        0.15520    0.96570    0.49480    1.000
    H453     H        0.14650    0.93180    0.45340    1.000
    Mn36     Mn       0.88697    0.97166    0.97155    1.000
    O106     O        0.84861    0.99184    0.93979    1.000
    O107     O        0.88522    0.05197    0.11755    1.000
    O108     O        0.92776    0.95628    0.01537    1.000
    N94      N        0.89430    0.00636    0.04514    1.000
    N95      N        0.92449    0.00378    0.08485    1.000
    N96      N        0.18937    0.89096    0.69627    1.000
    C489     C        0.83159    0.01651    0.97180    1.000
    C490     C        0.79992    0.02244    0.94400    1.000
    H454     H        0.79170    0.00910    0.90420    1.000
    C491     C        0.78013    0.04742    0.97300    1.000
    H455     H        0.75870    0.05100    0.95300    1.000
    C492     C        0.79161    0.06733    0.03160    1.000
    H456     H        0.77810    0.08430    0.05190    1.000
    C493     C        0.82283    0.06190    0.05940    1.000
    H457     H        0.83090    0.07550    0.09880    1.000
    C494     C        0.84322    0.03664    0.03090    1.000
    C495     C        0.87578    0.03191    0.06610    1.000
    C496     C        0.93972    0.97707    0.06480    1.000
    C497     C        0.97168    0.96792    0.10200    1.000
    H458     H        0.98180    0.98770    0.12510    1.000
    H459     H        0.98730    0.95890    0.06440    1.000
    C498     C        0.96430    0.94100    0.16450    1.000
    H460     H        0.95120    0.95100    0.20490    1.000
    H461     H        0.98520    0.93270    0.18500    1.000
    H462     H        0.95190    0.92260    0.14230    1.000
    C499     C        0.17195    0.91736    0.71630    1.000
    H463     H        0.17430    0.92530    0.76620    1.000
    C500     C        0.15062    0.93391    0.66920    1.000
    H464     H        0.13890    0.95280    0.68620    1.000
    C501     C        0.14667    0.92255    0.59730    1.000
    C502     C        0.16450    0.89580    0.57620    1.000
    H465     H        0.16220    0.88720    0.52690    1.000
    C503     C        0.18629    0.88075    0.62590    1.000
    H466     H        0.19930    0.86270    0.60900    1.000
    C504     C        0.12260    0.93960    0.54350    1.000
    H467     H        0.11210    0.95840    0.56990    1.000
    H468     H        0.10500    0.92370    0.52980    1.000
    Mn37     Mn       0.79334    0.82398    0.92375    1.000
    O109     O        0.76625    0.84527    0.99371    1.000
    O110     O        0.77137    0.74515    0.06384    1.000
    O111     O        0.81953    0.79523    0.86000    1.000
    N97      N        0.78595    0.78207    0.97356    1.000
    N98      N        0.80160    0.75459    0.93903    1.000
    C505     C        0.75204    0.83366    0.05320    1.000
    C506     C        0.73331    0.85613    0.09760    1.000
    H469     H        0.72960    0.87800    0.07980    1.000
    C507     C        0.72050    0.84668    0.16590    1.000
    H470     H        0.70760    0.86210    0.19340    1.000
    C508     C        0.72580    0.81580    0.19580    1.000
    H471     H        0.71880    0.81060    0.24530    1.000
    C509     C        0.74200    0.79202    0.15020    1.000
    H472     H        0.74420    0.76990    0.16740    1.000
    C510     C        0.75451    0.80083    0.08040    1.000
    C511     C        0.77129    0.77475    0.03770    1.000
    C512     C        0.81821    0.76400    0.88011    1.000
    C513     C        0.83646    0.73874    0.83490    1.000
    H473     H        0.84990    0.72510    0.86950    1.000
    H474     H        0.82010    0.72400    0.81070    1.000
    C514     C        0.85882    0.75223    0.77520    1.000
    H475     H        0.87740    0.76380    0.79880    1.000
    H476     H        0.86720    0.73400    0.74440    1.000
    H477     H        0.84650    0.76770    0.74350    1.000
    Mn38     Mn       0.78382    0.70817    0.99688    1.000
    O112     O        0.82487    0.69900    0.03854    1.000
    O113     O        0.81578    0.63472    0.85115    1.000
    O114     O        0.74214    0.71085    0.94439    1.000
    N99      N        0.78994    0.67311    0.92403    1.000
    N100     N        0.76210    0.66764    0.87757    1.000
    N101     N        0.75622    0.67550    0.08110    1.000
    C515     C        0.84744    0.67687    0.01950    1.000
    C516     C        0.87616    0.67483    0.06470    1.000
    H478     H        0.87840    0.68910    0.10680    1.000
    C517     C        0.90072    0.65260    0.04860    1.000
    H479     H        0.91980    0.65190    0.07970    1.000
    C518     C        0.89849    0.63113    0.98810    1.000
    H480     H        0.91570    0.61570    0.97800    1.000
    C519     C        0.87088    0.63257    0.94290    1.000
    H481     H        0.86920    0.61790    0.90140    1.000
    C520     C        0.84494    0.65530    0.95690    1.000
    C521     C        0.81567    0.65421    0.90774    1.000
    C522     C        0.73864    0.68814    0.89340    1.000
    C523     C        0.70598    0.68519    0.85520    1.000
    H482     H        0.70410    0.70300    0.81740    1.000
    H483     H        0.70520    0.66380    0.82810    1.000
    C524     C        0.67637    0.68710    0.90730    1.000
    H484     H        0.67690    0.70810    0.93470    1.000
    H485     H        0.65600    0.68570    0.87780    1.000
    H486     H        0.67720    0.66870    0.94310    1.000
    C525     C        0.76000    0.64546    0.08880    1.000
    H487     H        0.77720    0.63550    0.06030    1.000
    C526     C        0.74160    0.62452    0.13530    1.000
    H488     H        0.74630    0.60150    0.13550    1.000
    C527     C        0.71960    0.63537    0.17580    1.000
    C528     C        0.70740    0.66730    0.15610    1.000
    H489     H        0.68690    0.67510    0.17540    1.000
    C529     C        0.72600    0.68676    0.10870    1.000
    H490     H        0.71820    0.70800    0.09470    1.000
    C530     C        0.70090    0.61326    0.23040    1.000
    H491     H        0.71570    0.59480    0.24480    1.000
    H492     H        0.68180    0.60350    0.20340    1.000
    Mn39     Mn       0.72166    0.86303    0.72155    1.000
    O115     O        0.74184    0.90139    0.68979    1.000
    O116     O        0.80197    0.86478    0.86755    1.000
    O117     O        0.70628    0.82224    0.76537    1.000
    N102     N        0.75636    0.85570    0.79514    1.000
    N103     N        0.75378    0.82551    0.83485    1.000
    N104     N        0.64096    0.56063    0.44627    1.000
    C531     C        0.76651    0.91841    0.72180    1.000
    C532     C        0.77244    0.95008    0.69400    1.000
    H493     H        0.75910    0.95830    0.65420    1.000
    C533     C        0.79742    0.96987    0.72300    1.000
    H494     H        0.80100    0.99130    0.70300    1.000
    C534     C        0.81733    0.95839    0.78160    1.000
    H495     H        0.83430    0.97190    0.80190    1.000
    C535     C        0.81190    0.92717    0.80940    1.000
    H496     H        0.82550    0.91910    0.84880    1.000
    C536     C        0.78664    0.90678    0.78090    1.000
    C537     C        0.78191    0.87422    0.81610    1.000
    C538     C        0.72707    0.81028    0.81480    1.000
    C539     C        0.71792    0.77832    0.85200    1.000
    H497     H        0.73770    0.76820    0.87510    1.000
    H498     H        0.70890    0.76270    0.81440    1.000
    C540     C        0.69100    0.78570    0.91450    1.000
    H499     H        0.70100    0.79880    0.95490    1.000
    H500     H        0.68270    0.76480    0.93500    1.000
    H501     H        0.67260    0.79810    0.89230    1.000
    C541     C        0.66736    0.57805    0.46630    1.000
    H502     H        0.67530    0.57570    0.51620    1.000
    C542     C        0.68391    0.59938    0.41920    1.000
    H503     H        0.70280    0.61110    0.43620    1.000
    C543     C        0.67255    0.60333    0.34730    1.000
    C544     C        0.64580    0.58550    0.32620    1.000
    H504     H        0.63720    0.58780    0.27690    1.000
    C545     C        0.63075    0.56371    0.37590    1.000
    H505     H        0.61270    0.55070    0.35900    1.000
    C546     C        0.68960    0.62740    0.29350    1.000
    H506     H        0.70840    0.63790    0.31990    1.000
    H507     H        0.67370    0.64500    0.27980    1.000
    Mn40     Mn       0.29334    0.32398    0.42375    1.000
    O118     O        0.26625    0.34527    0.49371    1.000
    O119     O        0.27137    0.24515    0.56384    1.000
    O120     O        0.31953    0.29523    0.36000    1.000
    N105     N        0.28595    0.28207    0.47356    1.000
    N106     N        0.30160    0.25459    0.43903    1.000
    C547     C        0.25204    0.33366    0.55320    1.000
    C548     C        0.23331    0.35613    0.59760    1.000
    H508     H        0.22960    0.37800    0.57980    1.000
    C549     C        0.22050    0.34668    0.66590    1.000
    H509     H        0.20760    0.36210    0.69340    1.000
    C550     C        0.22580    0.31580    0.69580    1.000
    H510     H        0.21880    0.31060    0.74530    1.000
    C551     C        0.24200    0.29202    0.65020    1.000
    H511     H        0.24420    0.26990    0.66740    1.000
    C552     C        0.25451    0.30083    0.58040    1.000
    C553     C        0.27129    0.27475    0.53770    1.000
    C554     C        0.31821    0.26400    0.38011    1.000
    C555     C        0.33646    0.23874    0.33490    1.000
    H512     H        0.34990    0.22510    0.36950    1.000
    H513     H        0.32010    0.22400    0.31070    1.000
    C556     C        0.35882    0.25223    0.27520    1.000
    H514     H        0.37740    0.26380    0.29880    1.000
    H515     H        0.36720    0.23400    0.24440    1.000
    H516     H        0.34650    0.26770    0.24350    1.000
    Mn41     Mn       0.28382    0.20817    0.49688    1.000
    O121     O        0.32487    0.19900    0.53854    1.000
    O122     O        0.31578    0.13472    0.35115    1.000
    O123     O        0.24214    0.21085    0.44439    1.000
    N107     N        0.28994    0.17311    0.42403    1.000
    N108     N        0.26210    0.16764    0.37757    1.000
    N109     N        0.25622    0.17550    0.58110    1.000
    C557     C        0.34744    0.17687    0.51950    1.000
    C558     C        0.37616    0.17483    0.56470    1.000
    H517     H        0.37840    0.18910    0.60680    1.000
    C559     C        0.40072    0.15260    0.54860    1.000
    H518     H        0.41980    0.15190    0.57970    1.000
    C560     C        0.39849    0.13113    0.48810    1.000
    H519     H        0.41570    0.11570    0.47800    1.000
    C561     C        0.37088    0.13257    0.44290    1.000
    H520     H        0.36920    0.11790    0.40140    1.000
    C562     C        0.34494    0.15530    0.45690    1.000
    C563     C        0.31567    0.15421    0.40774    1.000
    C564     C        0.23864    0.18814    0.39340    1.000
    C565     C        0.20598    0.18519    0.35520    1.000
    H521     H        0.20410    0.20300    0.31740    1.000
    H522     H        0.20520    0.16380    0.32810    1.000
    C566     C        0.17637    0.18710    0.40730    1.000
    H523     H        0.17690    0.20810    0.43470    1.000
    H524     H        0.15600    0.18570    0.37780    1.000
    H525     H        0.17720    0.16870    0.44310    1.000
    C567     C        0.26000    0.14546    0.58880    1.000
    H526     H        0.27720    0.13550    0.56030    1.000
    C568     C        0.24160    0.12452    0.63530    1.000
    H527     H        0.24630    0.10150    0.63550    1.000
    C569     C        0.21960    0.13537    0.67580    1.000
    C570     C        0.20740    0.16730    0.65610    1.000
    H528     H        0.18690    0.17510    0.67540    1.000
    C571     C        0.22600    0.18676    0.60870    1.000
    H529     H        0.21820    0.20800    0.59470    1.000
    C572     C        0.20090    0.11326    0.73040    1.000
    H530     H        0.21570    0.09480    0.74480    1.000
    H531     H        0.18180    0.10350    0.70340    1.000
    Mn42     Mn       0.22166    0.36303    0.22155    1.000
    O124     O        0.24184    0.40139    0.18979    1.000
    O125     O        0.30197    0.36478    0.36755    1.000
    O126     O        0.20628    0.32224    0.26537    1.000
    N110     N        0.25636    0.35570    0.29514    1.000
    N111     N        0.25378    0.32551    0.33485    1.000
    N112     N        0.14096    0.06063    0.94627    1.000
    C573     C        0.26651    0.41841    0.22180    1.000
    C574     C        0.27244    0.45008    0.19400    1.000
    H532     H        0.25910    0.45830    0.15420    1.000
    C575     C        0.29742    0.46987    0.22300    1.000
    H533     H        0.30100    0.49130    0.20300    1.000
    C576     C        0.31733    0.45839    0.28160    1.000
    H534     H        0.33430    0.47190    0.30190    1.000
    C577     C        0.31190    0.42717    0.30940    1.000
    H535     H        0.32550    0.41910    0.34880    1.000
    C578     C        0.28664    0.40678    0.28090    1.000
    C579     C        0.28191    0.37422    0.31610    1.000
    C580     C        0.22707    0.31028    0.31480    1.000
    C581     C        0.21792    0.27832    0.35200    1.000
    H536     H        0.23770    0.26820    0.37510    1.000
    H537     H        0.20890    0.26270    0.31440    1.000
    C582     C        0.19100    0.28570    0.41450    1.000
    H538     H        0.20100    0.29880    0.45490    1.000
    H539     H        0.18270    0.26480    0.43500    1.000
    H540     H        0.17260    0.29810    0.39230    1.000
    C583     C        0.16736    0.07805    0.96630    1.000
    H541     H        0.17530    0.07570    0.01620    1.000
    C584     C        0.18391    0.09938    0.91920    1.000
    H542     H        0.20280    0.11110    0.93620    1.000
    C585     C        0.17255    0.10333    0.84730    1.000
    C586     C        0.14580    0.08550    0.82620    1.000
    H543     H        0.13720    0.08780    0.77690    1.000
    C587     C        0.13075    0.06371    0.87590    1.000
    H544     H        0.11270    0.05070    0.85900    1.000
    C588     C        0.18960    0.12740    0.79350    1.000
    H545     H        0.20840    0.13790    0.81990    1.000
    H546     H        0.17370    0.14500    0.77980    1.000
    Mn43     Mn       0.70666    0.17602    0.42375    1.000
    O127     O        0.73375    0.15473    0.49371    1.000
    O128     O        0.72863    0.25485    0.56384    1.000
    O129     O        0.68047    0.20477    0.36000    1.000
    N113     N        0.71405    0.21793    0.47356    1.000
    N114     N        0.69840    0.24541    0.43903    1.000
    C589     C        0.74796    0.16634    0.55320    1.000
    C590     C        0.76669    0.14387    0.59760    1.000
    H547     H        0.77040    0.12200    0.57980    1.000
    C591     C        0.77950    0.15332    0.66590    1.000
    H548     H        0.79240    0.13790    0.69340    1.000
    C592     C        0.77420    0.18420    0.69580    1.000
    H549     H        0.78120    0.18940    0.74530    1.000
    C593     C        0.75800    0.20798    0.65020    1.000
    H550     H        0.75580    0.23010    0.66740    1.000
    C594     C        0.74549    0.19917    0.58040    1.000
    C595     C        0.72871    0.22525    0.53770    1.000
    C596     C        0.68179    0.23600    0.38011    1.000
    C597     C        0.66354    0.26126    0.33490    1.000
    H551     H        0.65010    0.27490    0.36950    1.000
    H552     H        0.67990    0.27600    0.31070    1.000
    C598     C        0.64118    0.24777    0.27520    1.000
    H553     H        0.62260    0.23620    0.29880    1.000
    H554     H        0.63280    0.26600    0.24440    1.000
    H555     H        0.65350    0.23230    0.24350    1.000
    Mn44     Mn       0.71618    0.29183    0.49688    1.000
    O130     O        0.67513    0.30100    0.53854    1.000
    O131     O        0.68422    0.36528    0.35115    1.000
    O132     O        0.75786    0.28915    0.44439    1.000
    N115     N        0.71006    0.32689    0.42403    1.000
    N116     N        0.73790    0.33236    0.37757    1.000
    N117     N        0.74378    0.32450    0.58110    1.000
    C599     C        0.65256    0.32313    0.51950    1.000
    C600     C        0.62384    0.32517    0.56470    1.000
    H556     H        0.62160    0.31090    0.60680    1.000
    C601     C        0.59928    0.34740    0.54860    1.000
    H557     H        0.58020    0.34810    0.57970    1.000
    C602     C        0.60151    0.36887    0.48810    1.000
    H558     H        0.58430    0.38430    0.47800    1.000
    C603     C        0.62912    0.36743    0.44290    1.000
    H559     H        0.63080    0.38210    0.40140    1.000
    C604     C        0.65506    0.34470    0.45690    1.000
    C605     C        0.68433    0.34579    0.40774    1.000
    C606     C        0.76136    0.31186    0.39340    1.000
    C607     C        0.79402    0.31481    0.35520    1.000
    H560     H        0.79590    0.29700    0.31740    1.000
    H561     H        0.79480    0.33620    0.32810    1.000
    C608     C        0.82363    0.31290    0.40730    1.000
    H562     H        0.82310    0.29190    0.43470    1.000
    H563     H        0.84400    0.31430    0.37780    1.000
    H564     H        0.82280    0.33130    0.44310    1.000
    C609     C        0.74000    0.35454    0.58880    1.000
    H565     H        0.72280    0.36450    0.56030    1.000
    C610     C        0.75840    0.37548    0.63530    1.000
    H566     H        0.75370    0.39850    0.63550    1.000
    C611     C        0.78040    0.36463    0.67580    1.000
    C612     C        0.79260    0.33270    0.65610    1.000
    H567     H        0.81310    0.32490    0.67540    1.000
    C613     C        0.77400    0.31324    0.60870    1.000
    H568     H        0.78180    0.29200    0.59470    1.000
    C614     C        0.79910    0.38674    0.73040    1.000
    H569     H        0.78430    0.40520    0.74480    1.000
    H570     H        0.81820    0.39650    0.70340    1.000
    Mn45     Mn       0.77834    0.13697    0.22155    1.000
    O133     O        0.75816    0.09861    0.18979    1.000
    O134     O        0.69803    0.13522    0.36755    1.000
    O135     O        0.79372    0.17776    0.26537    1.000
    N118     N        0.74364    0.14430    0.29514    1.000
    N119     N        0.74622    0.17449    0.33485    1.000
    N120     N        0.85904    0.43937    0.94627    1.000
    C615     C        0.73349    0.08159    0.22180    1.000
    C616     C        0.72756    0.04992    0.19400    1.000
    H571     H        0.74090    0.04170    0.15420    1.000
    C617     C        0.70258    0.03013    0.22300    1.000
    H572     H        0.69900    0.00870    0.20300    1.000
    C618     C        0.68267    0.04161    0.28160    1.000
    H573     H        0.66570    0.02810    0.30190    1.000
    C619     C        0.68810    0.07283    0.30940    1.000
    H574     H        0.67450    0.08090    0.34880    1.000
    C620     C        0.71336    0.09322    0.28090    1.000
    C621     C        0.71809    0.12578    0.31610    1.000
    C622     C        0.77293    0.18972    0.31480    1.000
    C623     C        0.78208    0.22168    0.35200    1.000
    H575     H        0.76230    0.23180    0.37510    1.000
    H576     H        0.79110    0.23730    0.31440    1.000
    C624     C        0.80900    0.21430    0.41450    1.000
    H577     H        0.79900    0.20120    0.45490    1.000
    H578     H        0.81730    0.23520    0.43500    1.000
    H579     H        0.82740    0.20190    0.39230    1.000
    C625     C        0.83264    0.42195    0.96630    1.000
    H580     H        0.82470    0.42430    0.01620    1.000
    C626     C        0.81609    0.40062    0.91920    1.000
    H581     H        0.79720    0.38890    0.93620    1.000
    C627     C        0.82745    0.39667    0.84730    1.000
    C628     C        0.85420    0.41450    0.82620    1.000
    H582     H        0.86280    0.41220    0.77690    1.000
    C629     C        0.86925    0.43629    0.87590    1.000
    H583     H        0.88730    0.44930    0.85900    1.000
    C630     C        0.81040    0.37260    0.79350    1.000
    H584     H        0.79160    0.36210    0.81990    1.000
    H585     H        0.82630    0.35500    0.77980    1.000
    Mn46     Mn       0.20666    0.67602    0.92375    1.000
    O136     O        0.23375    0.65473    0.99371    1.000
    O137     O        0.22863    0.75485    0.06384    1.000
    O138     O        0.18047    0.70477    0.86000    1.000
    N121     N        0.21405    0.71793    0.97356    1.000
    N122     N        0.19840    0.74541    0.93903    1.000
    C631     C        0.24796    0.66634    0.05320    1.000
    C632     C        0.26669    0.64387    0.09760    1.000
    H586     H        0.27040    0.62200    0.07980    1.000
    C633     C        0.27950    0.65332    0.16590    1.000
    H587     H        0.29240    0.63790    0.19340    1.000
    C634     C        0.27420    0.68420    0.19580    1.000
    H588     H        0.28120    0.68940    0.24530    1.000
    C635     C        0.25800    0.70798    0.15020    1.000
    H589     H        0.25580    0.73010    0.16740    1.000
    C636     C        0.24549    0.69917    0.08040    1.000
    C637     C        0.22871    0.72525    0.03770    1.000
    C638     C        0.18179    0.73600    0.88011    1.000
    C639     C        0.16354    0.76126    0.83490    1.000
    H590     H        0.15010    0.77490    0.86950    1.000
    H591     H        0.17990    0.77600    0.81070    1.000
    C640     C        0.14118    0.74777    0.77520    1.000
    H592     H        0.12260    0.73620    0.79880    1.000
    H593     H        0.13280    0.76600    0.74440    1.000
    H594     H        0.15350    0.73230    0.74350    1.000
    Mn47     Mn       0.21618    0.79183    0.99688    1.000
    O139     O        0.17513    0.80100    0.03854    1.000
    O140     O        0.18422    0.86528    0.85115    1.000
    O141     O        0.25786    0.78915    0.94439    1.000
    N123     N        0.21006    0.82689    0.92403    1.000
    N124     N        0.23790    0.83236    0.87757    1.000
    N125     N        0.24378    0.82450    0.08110    1.000
    C641     C        0.15256    0.82313    0.01950    1.000
    C642     C        0.12384    0.82517    0.06470    1.000
    H595     H        0.12160    0.81090    0.10680    1.000
    C643     C        0.09928    0.84740    0.04860    1.000
    H596     H        0.08020    0.84810    0.07970    1.000
    C644     C        0.10151    0.86887    0.98810    1.000
    H597     H        0.08430    0.88430    0.97800    1.000
    C645     C        0.12912    0.86743    0.94290    1.000
    H598     H        0.13080    0.88210    0.90140    1.000
    C646     C        0.15506    0.84470    0.95690    1.000
    C647     C        0.18433    0.84579    0.90774    1.000
    C648     C        0.26136    0.81186    0.89340    1.000
    C649     C        0.29402    0.81481    0.85520    1.000
    H599     H        0.29590    0.79700    0.81740    1.000
    H600     H        0.29480    0.83620    0.82810    1.000
    C650     C        0.32363    0.81290    0.90730    1.000
    H601     H        0.32310    0.79190    0.93470    1.000
    H602     H        0.34400    0.81430    0.87780    1.000
    H603     H        0.32280    0.83130    0.94310    1.000
    C651     C        0.24000    0.85454    0.08880    1.000
    H604     H        0.22280    0.86450    0.06030    1.000
    C652     C        0.25840    0.87548    0.13530    1.000
    H605     H        0.25370    0.89850    0.13550    1.000
    C653     C        0.28040    0.86463    0.17580    1.000
    C654     C        0.29260    0.83270    0.15610    1.000
    H606     H        0.31310    0.82490    0.17540    1.000
    C655     C        0.27400    0.81324    0.10870    1.000
    H607     H        0.28180    0.79200    0.09470    1.000
    C656     C        0.29910    0.88674    0.23040    1.000
    H608     H        0.28430    0.90520    0.24480    1.000
    H609     H        0.31820    0.89650    0.20340    1.000
    Mn48     Mn       0.27834    0.63697    0.72155    1.000
    O142     O        0.25816    0.59861    0.68979    1.000
    O143     O        0.19803    0.63522    0.86755    1.000
    O144     O        0.29372    0.67776    0.76537    1.000
    N126     N        0.24364    0.64430    0.79514    1.000
    N127     N        0.24622    0.67449    0.83485    1.000
    N128     N        0.35904    0.93937    0.44627    1.000
    C657     C        0.23349    0.58159    0.72180    1.000
    C658     C        0.22756    0.54992    0.69400    1.000
    H610     H        0.24090    0.54170    0.65420    1.000
    C659     C        0.20258    0.53013    0.72300    1.000
    H611     H        0.19900    0.50870    0.70300    1.000
    C660     C        0.18267    0.54161    0.78160    1.000
    H612     H        0.16570    0.52810    0.80190    1.000
    C661     C        0.18810    0.57283    0.80940    1.000
    H613     H        0.17450    0.58090    0.84880    1.000
    C662     C        0.21336    0.59322    0.78090    1.000
    C663     C        0.21809    0.62578    0.81610    1.000
    C664     C        0.27293    0.68972    0.81480    1.000
    C665     C        0.28208    0.72168    0.85200    1.000
    H614     H        0.26230    0.73180    0.87510    1.000
    H615     H        0.29110    0.73730    0.81440    1.000
    C666     C        0.30900    0.71430    0.91450    1.000
    H616     H        0.29900    0.70120    0.95490    1.000
    H617     H        0.31730    0.73520    0.93500    1.000
    H618     H        0.32740    0.70190    0.89230    1.000
    C667     C        0.33264    0.92195    0.46630    1.000
    H619     H        0.32470    0.92430    0.51620    1.000
    C668     C        0.31609    0.90062    0.41920    1.000
    H620     H        0.29720    0.88890    0.43620    1.000
    C669     C        0.32745    0.89667    0.34730    1.000
    C670     C        0.35420    0.91450    0.32620    1.000
    H621     H        0.36280    0.91220    0.27690    1.000
    C671     C        0.36925    0.93629    0.37590    1.000
    H622     H        0.38730    0.94930    0.35900    1.000
    C672     C        0.31040    0.87260    0.29350    1.000
    H623     H        0.29160    0.86210    0.31990    1.000
    H624     H        0.32630    0.85500    0.27980    1.000
