data_functionalizedCrystal
_audit_creation_method	'EQeq! by Chris Wilmer'
_symmetry_space_group_name_H-M	'P1'
_symmetry_Int_Tables_number	1
_symmetry_cell_setting	triclinic
loop_
_symmetry_equiv_pos_as_xyz
  x,y,z
_cell_length_a	9.048
_cell_length_b	9.465
_cell_length_c	15.584
_cell_angle_alpha	90
_cell_angle_beta	90.79
_cell_angle_gamma	90
loop_
_atom_site_label
_atom_site_type_symbol
_atom_site_fract_x
_atom_site_fract_y
_atom_site_fract_z
_atom_site_charge
Mof_U 	U 	0.24313	0.50567	0.67534	0.007
Mof_O 	O 	0.182	0.6182	0.8049	-0.175
Mof_O 	O 	0.1441	0.8047	0.8861	-0.18
Mof_O 	O 	0.3761	0.3938	0.7863	-0.172
Mof_O 	O 	0.3985	0.2031	0.8664	-0.187
Mof_C 	C 	0.1329	0.6738	0.8718	0.275
Mof_C 	C 	0.0653	0.5861	0.9364	-0.035
Mof_C 	C 	0.0499	0.4381	0.9246	-0.023
Mof_H 	H 	0.0828	0.3967	0.8742	0.079
Mof_C 	C 	0.987	0.3552	0.9866	-0.022
Mof_H 	H 	0.9788	0.2583	0.9776	0.076
Mof_C 	C 	0.5114	0.4389	0.0811	-0.022
Mof_H 	H 	0.5188	0.3982	0.1353	0.081
Mof_C 	C 	0.4672	0.355	0.0097	-0.022
Mof_H 	H 	0.446	0.2596	0.0167	0.077
Mof_C 	C 	0.4561	0.4174	0.9293	-0.035
Mof_C 	C 	0.4048	0.333	0.8567	0.278
Mof_U 	U 	0.25687	0.00567	0.82466	0.007
Mof_O 	O 	0.318	0.1182	0.6951	-0.175
Mof_O 	O 	0.3559	0.3047	0.6139	-0.181
Mof_O 	O 	0.1239	0.8938	0.7137	-0.172
Mof_O 	O 	0.1015	0.7031	0.6336	-0.187
Mof_C 	C 	0.3671	0.1738	0.6282	0.275
Mof_C 	C 	0.4347	0.0861	0.5636	-0.036
Mof_C 	C 	0.4501	0.9381	0.5754	-0.024
Mof_H 	H 	0.4172	0.8967	0.6258	0.079
Mof_C 	C 	0.513	0.8552	0.5134	-0.02
Mof_H 	H 	0.5212	0.7583	0.5224	0.076
Mof_C 	C 	0.9886	0.9389	0.4189	-0.022
Mof_H 	H 	0.9812	0.8982	0.3647	0.081
Mof_C 	C 	0.0328	0.855	0.4903	-0.021
Mof_H 	H 	0.054	0.7596	0.4833	0.077
Mof_C 	C 	0.0439	0.9174	0.5707	-0.035
Mof_C 	C 	0.0952	0.833	0.6433	0.278
Mof_U 	U 	0.75687	0.49433	0.32466	0.007
Mof_O 	O 	0.818	0.3818	0.1951	-0.175
Mof_O 	O 	0.8559	0.1953	0.1139	-0.18
Mof_O 	O 	0.6239	0.6062	0.2137	-0.172
Mof_O 	O 	0.6015	0.7969	0.1336	-0.187
Mof_C 	C 	0.8671	0.3262	0.1282	0.275
Mof_C 	C 	0.9347	0.4139	0.0636	-0.035
Mof_C 	C 	0.9501	0.5619	0.0754	-0.023
Mof_H 	H 	0.9172	0.6033	0.1258	0.079
Mof_C 	C 	0.013	0.6448	0.0134	-0.022
Mof_H 	H 	0.0212	0.7417	0.0224	0.076
Mof_C 	C 	0.4886	0.5611	0.9189	-0.022
Mof_H 	H 	0.4812	0.6018	0.8647	0.081
Mof_C 	C 	0.5328	0.645	0.9903	-0.022
Mof_H 	H 	0.554	0.7404	0.9833	0.077
Mof_C 	C 	0.5439	0.5826	0.0707	-0.035
Mof_C 	C 	0.5952	0.667	0.1433	0.278
Mof_U 	U 	0.74313	0.99433	0.17534	0.007
Mof_O 	O 	0.682	0.8818	0.3049	-0.175
Mof_O 	O 	0.6441	0.6953	0.3861	-0.181
Mof_O 	O 	0.8761	0.1062	0.2863	-0.172
Mof_O 	O 	0.8985	0.2969	0.3664	-0.187
Mof_C 	C 	0.6329	0.8262	0.3718	0.275
Mof_C 	C 	0.5653	0.9139	0.4364	-0.036
Mof_C 	C 	0.5499	0.0619	0.4246	-0.024
Mof_H 	H 	0.5828	0.1033	0.3742	0.079
Mof_C 	C 	0.487	0.1448	0.4866	-0.02
Mof_H 	H 	0.4788	0.2417	0.4776	0.076
Mof_C 	C 	0.0114	0.0611	0.5811	-0.022
Mof_H 	H 	0.0188	0.1018	0.6353	0.081
Mof_C 	C 	0.9672	0.145	0.5097	-0.021
Mof_H 	H 	0.946	0.2404	0.5167	0.077
Mof_C 	C 	0.9561	0.0826	0.4293	-0.035
Mof_C 	C 	0.9048	0.167	0.3567	0.278
_end
