# CIF file generated by openbabel 3.1.0, see https://openbabel.org
data_I
_chemical_name_common 'image0'
_cell_length_a 19.116
_cell_length_b 15.714
_cell_length_c 9.069
_cell_angle_alpha 90
_cell_angle_beta 90
_cell_angle_gamma 90
_space_group_name_H-M_alt 'P 1'
_space_group_name_Hall 'P 1'
loop_
    _symmetry_equiv_pos_as_xyz
    x,y,z
loop_
    _atom_site_label
    _atom_site_type_symbol
    _atom_site_fract_x
    _atom_site_fract_y
    _atom_site_fract_z
    _atom_site_occupancy
    C1       C        0.01410    0.15420    0.35620    1.000
    C2       C        0.00000    0.15220    0.18590    1.000
    C3       C        0.84190    0.01190    0.57740    1.000
    C4       C        0.84400    0.95860    0.43410    1.000
    C5       C        0.84950    0.34740    0.14470    1.000
    C6       C        0.88670    0.42110    0.06900    1.000
    C7       C        0.84740    0.48390    0.00260    1.000
    H1       H        0.79890    0.48030    0.00370    1.000
    C8       C        0.87960    0.55240    0.93410    1.000
    C9       C        0.95250    0.55620    0.93460    1.000
    H2       H        0.97440    0.60190    0.88870    1.000
    C10      C        0.99380    0.49380    0.00180    1.000
    C11      C        0.95820    0.42590    0.06730    1.000
    H3       H        0.98400    0.38250    0.11100    1.000
    C12      C        0.83830    0.62400    0.86490    1.000
    C13      C        0.07070    0.50020    0.00480    1.000
    C14      C        0.10410    0.57870    0.99120    1.000
    H4       H        0.07710    0.62760    0.98150    1.000
    C15      C        0.17660    0.58560    0.99180    1.000
    C16      C        0.21750    0.51350    0.01010    1.000
    H5       H        0.26600    0.51760    0.01180    1.000
    C17      C        0.18490    0.43490    0.02590    1.000
    C18      C        0.11290    0.42910    0.02120    1.000
    H6       H        0.09200    0.37580    0.02940    1.000
    C19      C        0.22850    0.35760    0.05260    1.000
    C20      C        0.21190    0.66890    0.96770    1.000
    Sm1      Sm       0.16706    0.17940    0.20644    1.000
    Sm2      Sm       0.84620    0.15286    0.31565    1.000
    O1       O        0.07680    0.14990    0.39510    1.000
    O2       O        0.04910    0.17670    0.10560    1.000
    O3       O        0.94160    0.12540    0.14890    1.000
    O4       O        0.96110    0.16000    0.43610    1.000
    O5       O        0.84070    0.09060    0.56360    1.000
    O6       O        0.84170    0.97280    0.69820    1.000
    O7       O        0.85380    0.99840    0.31900    1.000
    O8       O        0.83620    0.88090    0.44840    1.000
    O9       O        0.88560    0.28650    0.19030    1.000
    O10      O        0.78440    0.35270    0.15730    1.000
    O11      O        0.77350    0.61750    0.86050    1.000
    O12      O        0.87270    0.68800    0.82030    1.000
    O13      O        0.17520    0.73450    0.97800    1.000
    O14      O        0.27640    0.66910    0.93830    1.000
    O15      O        0.29270    0.36640    0.07980    1.000
    O16      O        0.19770    0.28750    0.04680    1.000
    C21      C        0.98590    0.84580    0.85620    1.000
    C22      C        0.00000    0.84780    0.68590    1.000
    C23      C        0.15810    0.98810    0.07740    1.000
    C24      C        0.15600    0.04140    0.93410    1.000
    C25      C        0.15050    0.65260    0.64470    1.000
    C26      C        0.11330    0.57890    0.56900    1.000
    C27      C        0.15260    0.51610    0.50260    1.000
    H7       H        0.20110    0.51970    0.50370    1.000
    C28      C        0.12040    0.44760    0.43410    1.000
    C29      C        0.04750    0.44380    0.43460    1.000
    H8       H        0.02560    0.39810    0.38870    1.000
    C30      C        0.00620    0.50620    0.50180    1.000
    C31      C        0.04180    0.57410    0.56730    1.000
    H9       H        0.01600    0.61750    0.61100    1.000
    C32      C        0.16170    0.37600    0.36490    1.000
    C33      C        0.92930    0.49980    0.50480    1.000
    C34      C        0.89590    0.42130    0.49120    1.000
    H10      H        0.92290    0.37240    0.48150    1.000
    C35      C        0.82340    0.41440    0.49180    1.000
    C36      C        0.78250    0.48650    0.51010    1.000
    H11      H        0.73400    0.48240    0.51180    1.000
    C37      C        0.81510    0.56510    0.52590    1.000
    C38      C        0.88710    0.57090    0.52120    1.000
    H12      H        0.90800    0.62420    0.52940    1.000
    C39      C        0.77150    0.64240    0.55260    1.000
    C40      C        0.78810    0.33110    0.46770    1.000
    Sm3      Sm       0.83294    0.82060    0.70644    1.000
    Sm4      Sm       0.15380    0.84714    0.81565    1.000
    O17      O        0.92320    0.85010    0.89510    1.000
    O18      O        0.95090    0.82330    0.60560    1.000
    O19      O        0.05840    0.87460    0.64890    1.000
    O20      O        0.03890    0.84000    0.93610    1.000
    O21      O        0.15930    0.90940    0.06360    1.000
    O22      O        0.15830    0.02720    0.19820    1.000
    O23      O        0.14620    0.00160    0.81900    1.000
    O24      O        0.16380    0.11910    0.94840    1.000
    O25      O        0.11440    0.71350    0.69030    1.000
    O26      O        0.21560    0.64730    0.65730    1.000
    O27      O        0.22650    0.38250    0.36050    1.000
    O28      O        0.12730    0.31200    0.32030    1.000
    O29      O        0.82480    0.26550    0.47800    1.000
    O30      O        0.72360    0.33090    0.43830    1.000
    O31      O        0.70730    0.63360    0.57980    1.000
    O32      O        0.80230    0.71250    0.54680    1.000
    C41      C        0.51410    0.34580    0.35620    1.000
    C42      C        0.50000    0.34780    0.18590    1.000
    C43      C        0.34190    0.48810    0.57740    1.000
    C44      C        0.34400    0.54140    0.43410    1.000
    C45      C        0.34950    0.15260    0.14470    1.000
    C46      C        0.38670    0.07890    0.06900    1.000
    C47      C        0.34740    0.01610    0.00260    1.000
    H13      H        0.29890    0.01970    0.00370    1.000
    C48      C        0.37960    0.94760    0.93410    1.000
    C49      C        0.45250    0.94380    0.93460    1.000
    H14      H        0.47440    0.89810    0.88870    1.000
    C50      C        0.49380    0.00620    0.00180    1.000
    C51      C        0.45820    0.07410    0.06730    1.000
    H15      H        0.48400    0.11750    0.11100    1.000
    C52      C        0.33830    0.87600    0.86490    1.000
    C53      C        0.57070    0.99980    0.00480    1.000
    C54      C        0.60410    0.92130    0.99120    1.000
    H16      H        0.57710    0.87240    0.98150    1.000
    C55      C        0.67660    0.91440    0.99180    1.000
    C56      C        0.71750    0.98650    0.01010    1.000
    H17      H        0.76600    0.98240    0.01180    1.000
    C57      C        0.68490    0.06510    0.02590    1.000
    C58      C        0.61290    0.07090    0.02120    1.000
    H18      H        0.59200    0.12420    0.02940    1.000
    C59      C        0.72850    0.14240    0.05260    1.000
    C60      C        0.71190    0.83110    0.96770    1.000
    Sm5      Sm       0.66706    0.32060    0.20644    1.000
    Sm6      Sm       0.34620    0.34714    0.31565    1.000
    O33      O        0.57680    0.35010    0.39510    1.000
    O34      O        0.54910    0.32330    0.10560    1.000
    O35      O        0.44160    0.37460    0.14890    1.000
    O36      O        0.46110    0.34000    0.43610    1.000
    O37      O        0.34070    0.40940    0.56360    1.000
    O38      O        0.34170    0.52720    0.69820    1.000
    O39      O        0.35380    0.50160    0.31900    1.000
    O40      O        0.33620    0.61910    0.44840    1.000
    O41      O        0.38560    0.21350    0.19030    1.000
    O42      O        0.28440    0.14730    0.15730    1.000
    O43      O        0.27350    0.88250    0.86050    1.000
    O44      O        0.37270    0.81200    0.82030    1.000
    O45      O        0.67520    0.76550    0.97800    1.000
    O46      O        0.77640    0.83090    0.93830    1.000
    O47      O        0.79270    0.13360    0.07980    1.000
    O48      O        0.69770    0.21250    0.04680    1.000
    C61      C        0.48590    0.65420    0.85620    1.000
    C62      C        0.50000    0.65220    0.68590    1.000
    C63      C        0.65810    0.51190    0.07740    1.000
    C64      C        0.65600    0.45860    0.93410    1.000
    C65      C        0.65050    0.84740    0.64470    1.000
    C66      C        0.61330    0.92110    0.56900    1.000
    C67      C        0.65260    0.98390    0.50260    1.000
    H19      H        0.70110    0.98030    0.50370    1.000
    C68      C        0.62040    0.05240    0.43410    1.000
    C69      C        0.54750    0.05620    0.43460    1.000
    H20      H        0.52560    0.10190    0.38870    1.000
    C70      C        0.50620    0.99380    0.50180    1.000
    C71      C        0.54180    0.92590    0.56730    1.000
    H21      H        0.51600    0.88250    0.61100    1.000
    C72      C        0.66170    0.12400    0.36490    1.000
    C73      C        0.42930    0.00020    0.50480    1.000
    C74      C        0.39590    0.07870    0.49120    1.000
    H22      H        0.42290    0.12760    0.48150    1.000
    C75      C        0.32340    0.08560    0.49180    1.000
    C76      C        0.28250    0.01350    0.51010    1.000
    H23      H        0.23400    0.01760    0.51180    1.000
    C77      C        0.31510    0.93490    0.52590    1.000
    C78      C        0.38710    0.92910    0.52120    1.000
    H24      H        0.40800    0.87580    0.52940    1.000
    C79      C        0.27150    0.85760    0.55260    1.000
    C80      C        0.28810    0.16890    0.46770    1.000
    Sm7      Sm       0.33294    0.67940    0.70644    1.000
    Sm8      Sm       0.65380    0.65286    0.81565    1.000
    O49      O        0.42320    0.64990    0.89510    1.000
    O50      O        0.45090    0.67670    0.60560    1.000
    O51      O        0.55840    0.62540    0.64890    1.000
    O52      O        0.53890    0.66000    0.93610    1.000
    O53      O        0.65930    0.59060    0.06360    1.000
    O54      O        0.65830    0.47280    0.19820    1.000
    O55      O        0.64620    0.49840    0.81900    1.000
    O56      O        0.66380    0.38090    0.94840    1.000
    O57      O        0.61440    0.78650    0.69030    1.000
    O58      O        0.71560    0.85270    0.65730    1.000
    O59      O        0.72650    0.11750    0.36050    1.000
    O60      O        0.62730    0.18800    0.32030    1.000
    O61      O        0.32480    0.23450    0.47800    1.000
    O62      O        0.22360    0.16910    0.43830    1.000
    O63      O        0.20730    0.86640    0.57980    1.000
    O64      O        0.30230    0.78750    0.54680    1.000
