# CIF file generated by openbabel 3.1.0, see https://openbabel.org
data_I
_chemical_name_common 'ECORIX_clean'
_cell_length_a 7.694
_cell_length_b 9.21
_cell_length_c 10.764
_cell_angle_alpha 108.598
_cell_angle_beta 92.3
_cell_angle_gamma 109.814
_space_group_name_H-M_alt 'P 1'
_space_group_name_Hall 'P 1'
loop_
    _symmetry_equiv_pos_as_xyz
    x,y,z
loop_
    _atom_site_label
    _atom_site_type_symbol
    _atom_site_fract_x
    _atom_site_fract_y
    _atom_site_fract_z
    _atom_site_occupancy
    Ni1      Ni       0.85027    0.86585    0.87217    1.000
    Ni2      Ni       0.14973    0.13415    0.12783    1.000
    Ni3      Ni       0.50000    0.00000    0.00000    1.000
    H1       H        0.61710    0.85810    0.36100    1.000
    H2       H        0.82010    0.98600    0.41460    1.000
    H3       H        0.52630    0.57830    0.37330    1.000
    H4       H        0.67280    0.52770    0.43410    1.000
    H5       H        0.72620    0.58870    0.07790    1.000
    H6       H        0.55550    0.60990    0.14240    1.000
    H7       H        0.80460    0.13880    0.91710    1.000
    H8       H        0.66100    0.00900    0.79280    1.000
    H9       H        0.38290    0.14190    0.63900    1.000
    H10      H        0.17990    0.01400    0.58540    1.000
    H11      H        0.47370    0.42170    0.62670    1.000
    H12      H        0.32720    0.47230    0.56590    1.000
    H13      H        0.27380    0.41130    0.92210    1.000
    H14      H        0.44450    0.39010    0.85760    1.000
    H15      H        0.19540    0.86120    0.08290    1.000
    H16      H        0.33900    0.99100    0.20720    1.000
    C1       C        0.75990    0.89860    0.14120    1.000
    C2       C        0.79910    0.81090    0.23190    1.000
    C3       C        0.74550    0.87220    0.37030    1.000
    C4       C        0.78080    0.77250    0.45050    1.000
    C5       C        0.65390    0.58880    0.38180    1.000
    C6       C        0.70310    0.52140    0.24290    1.000
    C7       C        0.68360    0.62510    0.15960    1.000
    C8       C        0.75280    0.83450    0.59460    1.000
    C9       C        0.56620    0.34360    0.16890    1.000
    C10      C        0.24010    0.10140    0.85880    1.000
    C11      C        0.20090    0.18910    0.76810    1.000
    C12      C        0.25450    0.12780    0.62970    1.000
    C13      C        0.21920    0.22750    0.54950    1.000
    C14      C        0.34610    0.41120    0.61820    1.000
    C15      C        0.29690    0.47860    0.75710    1.000
    C16      C        0.31640    0.37490    0.84040    1.000
    C17      C        0.24720    0.16550    0.40540    1.000
    C18      C        0.43380    0.65640    0.83110    1.000
    O1       O        0.60510    0.91000    0.12720    1.000
    O2       O        0.89080    0.94830    0.07630    1.000
    O3       O        0.71500    0.02910    0.88020    1.000
    O4       O        0.39650    0.31730    0.15550    1.000
    O5       O        0.63950    0.23530    0.12520    1.000
    O6       O        0.63670    0.89970    0.62570    1.000
    O7       O        0.85270    0.81090    0.67620    1.000
    O8       O        0.39490    0.09000    0.87280    1.000
    O9       O        0.10920    0.05170    0.92370    1.000
    O10      O        0.28500    0.97090    0.11980    1.000
    O11      O        0.60350    0.68270    0.84450    1.000
    O12      O        0.36050    0.76470    0.87480    1.000
    O13      O        0.36330    0.10030    0.37430    1.000
    O14      O        0.14730    0.18910    0.32380    1.000
