data_functionalizedCrystal
_audit_creation_method	'EQeq! by Chris Wilmer'
_symmetry_space_group_name_H-M	'P1'
_symmetry_Int_Tables_number	1
_symmetry_cell_setting	triclinic
loop_
_symmetry_equiv_pos_as_xyz
  x,y,z
_cell_length_a	11.279
_cell_length_b	10.679
_cell_length_c	15.428
_cell_angle_alpha	90
_cell_angle_beta	95.276
_cell_angle_gamma	90
loop_
_atom_site_label
_atom_site_type_symbol
_atom_site_fract_x
_atom_site_fract_y
_atom_site_fract_z
_atom_site_charge
Mof_Co	Co	0.849	0.54034	0.01117	1.162
Mof_O 	O 	0.9111	0.4126	0.09665	-0.47
Mof_O 	O 	0.1098	0.3874	0.10118	-0.456
Mof_O 	O 	0.2275	0.0787	0.4471	-0.378
Mof_O 	O 	0.3245	0.1505	0.3364	-0.265
Mof_O 	O 	0.7864	0.1189	0.43131	-0.397
Mof_O 	O 	0.7062	0.279	0.3509	-0.263
Mof_C 	C 	0.0108	0.2998	0.2141	-0.104
Mof_C 	C 	0.1158	0.2504	0.2542	0.045
Mof_H 	H 	0.1866	0.2617	0.2287	0.054
Mof_C 	C 	0.1166	0.1844	0.3318	-0.087
Mof_C 	C 	0.0102	0.1667	0.3692	0.038
Mof_H 	H 	0.0101	0.12	0.4201	0.058
Mof_C 	C 	0.9035	0.2177	0.3316	-0.085
Mof_C 	C 	0.9049	0.2824	0.2532	0.04
Mof_H 	H 	0.8342	0.3146	0.2264	0.053
Mof_C 	C 	0.0097	0.3715	0.1299	0.392
Mof_C 	C 	0.2329	0.1348	0.3744	0.332
Mof_C 	C 	0.788	0.2048	0.3736	0.331
Mof_Co	Co	0.651	0.04034	0.48883	1.162
Mof_O 	O 	0.5889	0.9126	0.40335	-0.468
Mof_O 	O 	0.3902	0.8874	0.39882	-0.456
Mof_O 	O 	0.2725	0.5787	0.0529	-0.377
Mof_O 	O 	0.1755	0.6505	0.1636	-0.265
Mof_O 	O 	0.7136	0.6189	0.06869	-0.396
Mof_O 	O 	0.7938	0.779	0.1491	-0.263
Mof_C 	C 	0.4892	0.7998	0.2859	-0.106
Mof_C 	C 	0.3842	0.7504	0.2458	0.045
Mof_H 	H 	0.3134	0.7617	0.2713	0.054
Mof_C 	C 	0.3834	0.6844	0.1682	-0.086
Mof_C 	C 	0.4898	0.6667	0.1308	0.036
Mof_H 	H 	0.4899	0.62	0.0799	0.058
Mof_C 	C 	0.5965	0.7177	0.1684	-0.084
Mof_C 	C 	0.5951	0.7824	0.2468	0.042
Mof_H 	H 	0.6658	0.8146	0.2736	0.052
Mof_C 	C 	0.4903	0.8715	0.3701	0.389
Mof_C 	C 	0.2671	0.6348	0.1256	0.332
Mof_C 	C 	0.712	0.7048	0.1264	0.331
Mof_Co	Co	0.151	0.45966	0.98883	1.162
Mof_O 	O 	0.0889	0.5874	0.90335	-0.47
Mof_O 	O 	0.8902	0.6126	0.89882	-0.456
Mof_O 	O 	0.7725	0.9213	0.5529	-0.378
Mof_O 	O 	0.6755	0.8495	0.6636	-0.265
Mof_O 	O 	0.2136	0.8811	0.56869	-0.397
Mof_O 	O 	0.2938	0.721	0.6491	-0.263
Mof_C 	C 	0.9892	0.7002	0.7859	-0.104
Mof_C 	C 	0.8842	0.7496	0.7458	0.045
Mof_H 	H 	0.8134	0.7383	0.7713	0.054
Mof_C 	C 	0.8834	0.8156	0.6682	-0.087
Mof_C 	C 	0.9898	0.8333	0.6308	0.038
Mof_H 	H 	0.9899	0.88	0.5799	0.058
Mof_C 	C 	0.0965	0.7823	0.6684	-0.085
Mof_C 	C 	0.0951	0.7176	0.7468	0.04
Mof_H 	H 	0.1658	0.6854	0.7736	0.053
Mof_C 	C 	0.9903	0.6285	0.8701	0.392
Mof_C 	C 	0.7671	0.8652	0.6256	0.332
Mof_C 	C 	0.212	0.7952	0.6264	0.331
Mof_Co	Co	0.349	0.95966	0.51117	1.162
Mof_O 	O 	0.4111	0.0874	0.59665	-0.468
Mof_O 	O 	0.6098	0.1126	0.60118	-0.456
Mof_O 	O 	0.7275	0.4213	0.9471	-0.377
Mof_O 	O 	0.8245	0.3495	0.8364	-0.265
Mof_O 	O 	0.2864	0.3811	0.93131	-0.396
Mof_O 	O 	0.2062	0.221	0.8509	-0.263
Mof_C 	C 	0.5108	0.2002	0.7141	-0.106
Mof_C 	C 	0.6158	0.2496	0.7542	0.045
Mof_H 	H 	0.6866	0.2383	0.7287	0.054
Mof_C 	C 	0.6166	0.3156	0.8318	-0.086
Mof_C 	C 	0.5102	0.3333	0.8692	0.036
Mof_H 	H 	0.5101	0.38	0.9201	0.058
Mof_C 	C 	0.4035	0.2823	0.8316	-0.084
Mof_C 	C 	0.4049	0.2176	0.7532	0.042
Mof_H 	H 	0.3342	0.1854	0.7264	0.052
Mof_C 	C 	0.5097	0.1285	0.6299	0.389
Mof_C 	C 	0.7329	0.3652	0.8744	0.332
Mof_C 	C 	0.288	0.2952	0.8736	0.331
_end
