# CIF file generated by openbabel 3.1.0, see https://openbabel.org
data_I
_chemical_name_common 'image0'
_cell_length_a 11.868
_cell_length_b 13.03
_cell_length_c 7.7113
_cell_angle_alpha 105.956
_cell_angle_beta 94.951
_cell_angle_gamma 91.584
_space_group_name_H-M_alt 'P 1'
_space_group_name_Hall 'P 1'
loop_
    _symmetry_equiv_pos_as_xyz
    x,y,z
loop_
    _atom_site_label
    _atom_site_type_symbol
    _atom_site_fract_x
    _atom_site_fract_y
    _atom_site_fract_z
    _atom_site_occupancy
    Cd1      Cd       0.24562    0.19412    0.11275    1.000
    N1       N        0.14840    0.09020    0.27510    1.000
    N2       N        0.13240    0.12710    0.84310    1.000
    N3       N        0.35890    0.30310    0.98790    1.000
    N4       N        0.42420    0.60070    0.36570    1.000
    N5       N        0.12060    0.32620    0.22730    1.000
    N6       N        0.33970    0.29210    0.39270    1.000
    N7       N        0.35030    0.04390    0.02020    1.000
    C1       C        0.09360    0.05570    0.36140    1.000
    C2       C        0.08180    0.08090    0.71150    1.000
    C3       C        0.41210    0.37660    0.98850    1.000
    C4       C        0.45460    0.56280    0.22980    1.000
    C5       C        0.18270    0.40530    0.39060    1.000
    C6       C        0.26400    0.36170    0.49320    1.000
    C7       C        0.47400    0.05210    0.04080    1.000
    H1       H        0.05252    0.29329    0.26347    1.000
    H2       H        0.09641    0.36291    0.13330    1.000
    H3       H        0.11952    0.44306    0.48070    1.000
    H4       H        0.22691    0.46635    0.34335    1.000
    H5       H        0.21766    0.31684    0.56896    1.000
    H6       H        0.31469    0.42870    0.58903    1.000
    H7       H        0.40556    0.33503    0.37135    1.000
    H8       H        0.36727    0.24178    0.46224    1.000
    H9       H        0.32700    0.01191    0.88809    1.000
    H10      H        0.32709    0.99327    0.08902    1.000
    H11      H        0.50267    0.11132    0.97410    1.000
    H12      H        0.50299    0.07918    0.18623    1.000
    Cd2      Cd       0.75438    0.80588    0.88725    1.000
    N8       N        0.85160    0.90980    0.72490    1.000
    N9       N        0.86760    0.87290    0.15690    1.000
    N10      N        0.64110    0.69690    0.01210    1.000
    N11      N        0.57580    0.39930    0.63430    1.000
    N12      N        0.87940    0.67380    0.77270    1.000
    N13      N        0.66030    0.70790    0.60730    1.000
    N14      N        0.64970    0.95610    0.97980    1.000
    C8       C        0.90640    0.94430    0.63860    1.000
    C9       C        0.91820    0.91910    0.28850    1.000
    C10      C        0.58790    0.62340    0.01150    1.000
    C11      C        0.54540    0.43720    0.77020    1.000
    C12      C        0.81730    0.59470    0.60940    1.000
    C13      C        0.73600    0.63830    0.50680    1.000
    C14      C        0.52600    0.94790    0.95920    1.000
    H13      H        0.94748    0.70671    0.73653    1.000
    H14      H        0.90359    0.63709    0.86670    1.000
    H15      H        0.88048    0.55694    0.51930    1.000
    H16      H        0.77309    0.53365    0.65665    1.000
    H17      H        0.78234    0.68316    0.43104    1.000
    H18      H        0.68531    0.57130    0.41097    1.000
    H19      H        0.59444    0.66497    0.62865    1.000
    H20      H        0.63273    0.75822    0.53776    1.000
    H21      H        0.67300    0.98809    0.11191    1.000
    H22      H        0.67291    0.00673    0.91098    1.000
    H23      H        0.49733    0.88868    0.02590    1.000
    H24      H        0.49701    0.92082    0.81377    1.000
    Ni1      Ni       0.00000    0.00000    0.50000    1.000
    Ni2      Ni       0.50000    0.50000    0.00000    1.000
