data_functionalizedCrystal
_audit_creation_method	'EQeq! by Chris Wilmer'
_symmetry_space_group_name_H-M	'P1'
_symmetry_Int_Tables_number	1
_symmetry_cell_setting	triclinic
loop_
_symmetry_equiv_pos_as_xyz
  x,y,z
_cell_length_a	16.7887
_cell_length_b	16.7887
_cell_length_c	16.7887
_cell_angle_alpha	90
_cell_angle_beta	90
_cell_angle_gamma	90
loop_
_atom_site_label
_atom_site_type_symbol
_atom_site_fract_x
_atom_site_fract_y
_atom_site_fract_z
_atom_site_charge
Mof_O 	O 	0.0246	0.5938	0.30472	-0.785
Mof_O 	O 	0.5246	0.0938	0.80472	-0.697
Mof_O 	O 	0.9754	0.4062	0.30472	-0.456
Mof_O 	O 	0.4754	0.9062	0.80472	-0.463
Mof_O 	O 	0.9754	0.5938	0.69528	-0.437
Mof_O 	O 	0.4754	0.0938	0.19528	-0.712
Mof_O 	O 	0.0246	0.4062	0.69528	-0.798
Mof_O 	O 	0.5246	0.9062	0.19528	-0.478
Mof_O 	O 	0.30472	0.0246	0.5938	-0.785
Mof_O 	O 	0.80472	0.5246	0.0938	-0.697
Mof_O 	O 	0.30472	0.9754	0.4062	-0.456
Mof_O 	O 	0.80472	0.4754	0.9062	-0.463
Mof_O 	O 	0.69528	0.9754	0.5938	-0.437
Mof_O 	O 	0.19528	0.4754	0.0938	-0.712
Mof_O 	O 	0.69528	0.0246	0.4062	-0.798
Mof_O 	O 	0.19528	0.5246	0.9062	-0.479
Mof_O 	O 	0.5938	0.30472	0.0246	-0.786
Mof_O 	O 	0.0938	0.80472	0.5246	-0.698
Mof_O 	O 	0.4062	0.30472	0.9754	-0.457
Mof_O 	O 	0.9062	0.80472	0.4754	-0.464
Mof_O 	O 	0.5938	0.69528	0.9754	-0.438
Mof_O 	O 	0.0938	0.19528	0.4754	-0.713
Mof_O 	O 	0.4062	0.69528	0.0246	-0.799
Mof_O 	O 	0.9062	0.19528	0.5246	-0.479
Mof_O 	O 	0.5938	0.0246	0.30472	-0.786
Mof_O 	O 	0.0938	0.5246	0.80472	-0.698
Mof_O 	O 	0.4062	0.9754	0.30472	-0.457
Mof_O 	O 	0.9062	0.4754	0.80472	-0.464
Mof_O 	O 	0.5938	0.9754	0.69528	-0.438
Mof_O 	O 	0.0938	0.4754	0.19528	-0.713
Mof_O 	O 	0.4062	0.0246	0.69528	-0.799
Mof_O 	O 	0.9062	0.5246	0.19528	-0.479
Mof_O 	O 	0.0246	0.30472	0.5938	-0.786
Mof_O 	O 	0.5246	0.80472	0.0938	-0.698
Mof_O 	O 	0.9754	0.30472	0.4062	-0.457
Mof_O 	O 	0.4754	0.80472	0.9062	-0.464
Mof_O 	O 	0.9754	0.69528	0.5938	-0.438
Mof_O 	O 	0.4754	0.19528	0.0938	-0.713
Mof_O 	O 	0.0246	0.69528	0.4062	-0.799
Mof_O 	O 	0.5246	0.19528	0.9062	-0.479
Mof_O 	O 	0.30472	0.5938	0.0246	-0.786
Mof_O 	O 	0.80472	0.0938	0.5246	-0.698
Mof_O 	O 	0.30472	0.4062	0.9754	-0.457
Mof_O 	O 	0.80472	0.9062	0.4754	-0.464
Mof_O 	O 	0.69528	0.5938	0.9754	-0.438
Mof_O 	O 	0.19528	0.0938	0.4754	-0.713
Mof_O 	O 	0.69528	0.4062	0.0246	-0.799
Mof_O 	O 	0.19528	0.9062	0.5246	-0.479
Mof_Al	Al	1.8747e-33	0.5	0.5	2.477
Mof_Al	Al	0.5	0	-0	0.535
Mof_Al	Al	0.5	0	0.5	2.477
Mof_Al	Al	-0	0.5	-0	0.535
Mof_Al	Al	0.5	0.5	-0	2.477
Mof_Al	Al	1.8747e-33	0	0.5	0.535
Mof_Al	Al	-1.72993e-33	0.5	0.25	1.843
Mof_Al	Al	2.81205e-33	0.5	0.75	1.954
Mof_Al	Al	0.5	0	0.25	1.843
Mof_Al	Al	0.25	0	0.5	1.843
Mof_Al	Al	0.75	0	0.5	1.954
Mof_Al	Al	0.25	0.5	-0	1.843
Mof_Al	Al	0.5	0.25	-0	1.843
Mof_Al	Al	0.5	0.75	-0	1.954
Mof_Al	Al	-3.45987e-33	0.25	0.5	1.843
Mof_Al	Al	0.5	-5.33457e-33	0.75	1.954
Mof_Al	Al	1.8747e-33	0.75	0.5	1.954
Mof_Al	Al	0.75	0.5	-0	1.954
Mof_P 	P 	0.0705	0.62256	0.37744	0.761
Mof_O 	O 	0.1561	0.6421	0.3579	-0.278
Mof_O 	O 	0.0674	0.558	0.442	-0.949
Mof_P 	P 	0.5705	0.12256	0.87744	0.662
Mof_O 	O 	0.6561	0.1421	0.8579	-0.203
Mof_O 	O 	0.5674	0.058	0.942	-0.352
Mof_P 	P 	0.9295	0.37744	0.37744	0.737
Mof_O 	O 	0.8439	0.3579	0.3579	-0.234
Mof_O 	O 	0.9326	0.442	0.442	-0.679
Mof_P 	P 	0.4295	0.87744	0.87744	0.665
Mof_O 	O 	0.3439	0.8579	0.8579	-0.102
Mof_O 	O 	0.4326	0.942	0.942	-0.056
Mof_P 	P 	0.9295	0.62256	0.62256	0.748
Mof_O 	O 	0.8439	0.6421	0.6421	-0.181
Mof_O 	O 	0.9326	0.558	0.558	-0.682
Mof_P 	P 	0.4295	0.12256	0.12256	0.661
Mof_O 	O 	0.3439	0.1421	0.1421	-0.411
Mof_O 	O 	0.4326	0.058	0.058	-0.691
Mof_P 	P 	0.0705	0.37744	0.62256	0.761
Mof_O 	O 	0.1561	0.3579	0.6421	-0.278
Mof_O 	O 	0.0674	0.442	0.558	-0.949
Mof_P 	P 	0.5705	0.87744	0.12256	0.662
Mof_O 	O 	0.6561	0.8579	0.1421	-0.203
Mof_O 	O 	0.5674	0.942	0.058	-0.352
Mof_P 	P 	0.37744	0.0705	0.62256	0.761
Mof_O 	O 	0.3579	0.1561	0.6421	-0.278
Mof_O 	O 	0.442	0.0674	0.558	-0.949
Mof_P 	P 	0.87744	0.5705	0.12256	0.662
Mof_O 	O 	0.8579	0.6561	0.1421	-0.203
Mof_O 	O 	0.942	0.5674	0.058	-0.352
Mof_P 	P 	0.37744	0.9295	0.37744	0.737
Mof_O 	O 	0.3579	0.8439	0.3579	-0.234
Mof_O 	O 	0.442	0.9326	0.442	-0.679
Mof_P 	P 	0.87744	0.4295	0.87744	0.665
Mof_O 	O 	0.8579	0.3439	0.8579	-0.102
Mof_O 	O 	0.942	0.4326	0.942	-0.056
Mof_P 	P 	0.62256	0.9295	0.62256	0.748
Mof_O 	O 	0.6421	0.8439	0.6421	-0.181
Mof_O 	O 	0.558	0.9326	0.558	-0.682
Mof_P 	P 	0.12256	0.4295	0.12256	0.661
Mof_O 	O 	0.1421	0.3439	0.1421	-0.411
Mof_O 	O 	0.058	0.4326	0.058	-0.691
Mof_P 	P 	0.62256	0.0705	0.37744	0.761
Mof_O 	O 	0.6421	0.1561	0.3579	-0.278
Mof_O 	O 	0.558	0.0674	0.442	-0.949
Mof_P 	P 	0.12256	0.5705	0.87744	0.662
Mof_O 	O 	0.1421	0.6561	0.8579	-0.203
Mof_O 	O 	0.058	0.5674	0.942	-0.352
Mof_P 	P 	0.62256	0.37744	0.0705	0.761
Mof_O 	O 	0.6421	0.3579	0.1561	-0.278
Mof_O 	O 	0.558	0.442	0.0674	-0.949
Mof_P 	P 	0.12256	0.87744	0.5705	0.662
Mof_O 	O 	0.1421	0.8579	0.6561	-0.203
Mof_O 	O 	0.058	0.942	0.5674	-0.352
Mof_P 	P 	0.37744	0.37744	0.9295	0.737
Mof_O 	O 	0.3579	0.3579	0.8439	-0.234
Mof_O 	O 	0.442	0.442	0.9326	-0.679
Mof_P 	P 	0.87744	0.87744	0.4295	0.665
Mof_O 	O 	0.8579	0.8579	0.3439	-0.102
Mof_O 	O 	0.942	0.942	0.4326	-0.056
Mof_P 	P 	0.62256	0.62256	0.9295	0.748
Mof_O 	O 	0.6421	0.6421	0.8439	-0.181
Mof_O 	O 	0.558	0.558	0.9326	-0.682
Mof_P 	P 	0.12256	0.12256	0.4295	0.661
Mof_O 	O 	0.1421	0.1421	0.3439	-0.411
Mof_O 	O 	0.058	0.058	0.4326	-0.691
Mof_P 	P 	0.37744	0.62256	0.0705	0.761
Mof_O 	O 	0.3579	0.6421	0.1561	-0.278
Mof_O 	O 	0.442	0.558	0.0674	-0.949
Mof_P 	P 	0.87744	0.12256	0.5705	0.662
Mof_O 	O 	0.8579	0.1421	0.6561	-0.203
Mof_O 	O 	0.942	0.058	0.5674	-0.352
_end
