data_functionalizedCrystal
_audit_creation_method	'EQeq! by Chris Wilmer'
_symmetry_space_group_name_H-M	'P1'
_symmetry_Int_Tables_number	1
_symmetry_cell_setting	triclinic
loop_
_symmetry_equiv_pos_as_xyz
  x,y,z
_cell_length_a	26.6152
_cell_length_b	11.7449
_cell_length_c	29.5923
_cell_angle_alpha	90
_cell_angle_beta	90
_cell_angle_gamma	90
loop_
_atom_site_label
_atom_site_type_symbol
_atom_site_fract_x
_atom_site_fract_y
_atom_site_fract_z
_atom_site_charge
Mof_Cd	Cd	0.72096	0.77963	0.48138	0.416
Mof_Cd	Cd	0.49425	0.26071	0.62239	0.282
Mof_O 	O 	0.72034	0.9384	0.53786	-0.254
Mof_O 	O 	0.67532	0.7859	0.54939	-0.272
Mof_O 	O 	0.56829	0.7571	0.69157	-0.343
Mof_O 	O 	0.54093	0.9199	0.71614	-0.643
Mof_O 	O 	0.57779	0.287	0.62106	-0.348
Mof_O 	O 	0.55644	0.2522	0.69203	-0.853
Mof_O 	O 	0.64248	0.6075	0.69482	-0.515
Mof_H 	H 	0.6241	0.6655	0.6963	0.307
Mof_O 	O 	0.57754	0.4932	0.68578	-0.535
Mof_O 	O 	0.45892	0.5971	0.71614	-0.645
Mof_O 	O 	0.42733	0.7621	0.69902	-0.341
Mof_O 	O 	0.27549	0.7503	0.5874	-0.267
Mof_O 	O 	0.25963	0.5815	0.56005	-0.268
Mof_O 	O 	0.35581	0.9114	0.70914	-0.499
Mof_H 	H 	0.3739	0.8528	0.709	0.301
Mof_O 	O 	0.41843	0.0224	0.686	-0.495
Mof_O 	O 	0.40876	0.2348	0.62355	-0.344
Mof_O 	O 	0.44088	0.2632	0.6912	-0.821
Mof_C 	C 	0.69008	0.8831	0.56112	0.308
Mof_C 	C 	0.66812	0.9359	0.60357	-0.103
Mof_C 	C 	0.63314	0.8759	0.6288	0.077
Mof_H 	H 	0.6241	0.8024	0.6204	0.026
Mof_C 	C 	0.61156	0.926	0.66672	-0.213
Mof_C 	C 	0.62555	0.0358	0.67925	0.106
Mof_H 	H 	0.6104	0.0698	0.7042	-0.101
Mof_C 	C 	0.6618	0.0956	0.65502	-0.087
Mof_C 	C 	0.68351	0.044	0.61679	0.016
Mof_H 	H 	0.7081	0.0822	0.6004	0.047
Mof_C 	C 	0.57145	0.8643	0.69321	0.467
Mof_C 	C 	0.67793	0.2129	0.66833	0.091
Mof_C 	C 	0.6428	0.3021	0.67455	-0.151
Mof_C 	C 	0.65938	0.411	0.68593	-0.074
Mof_C 	C 	0.71063	0.4314	0.69267	-0.03
Mof_H 	H 	0.7214	0.5035	0.7013	0.054
Mof_C 	C 	0.74514	0.3456	0.68659	-0
Mof_H 	H 	0.7792	0.3596	0.6909	0.041
Mof_C 	C 	0.72886	0.2385	0.67395	-0.113
Mof_H 	H 	0.7525	0.1816	0.669	0.086
Mof_C 	C 	0.58835	0.2794	0.66308	0.482
Mof_C 	C 	0.6222	0.5064	0.68888	0.449
Mof_C 	C 	0.42464	0.653	0.69889	0.469
Mof_C 	C 	0.3805	0.5936	0.67765	-0.227
Mof_C 	C 	0.35092	0.6487	0.64537	0.088
Mof_H 	H 	0.3575	0.7239	0.6376	0.021
Mof_C 	C 	0.31136	0.5903	0.62473	-0.112
Mof_C 	C 	0.30113	0.4774	0.63726	0.025
Mof_H 	H 	0.275	0.4385	0.6232	0.051
Mof_C 	C 	0.32973	0.422	0.6706	-0.101
Mof_C 	C 	0.36973	0.4822	0.6897	0.132
Mof_H 	H 	0.3898	0.4463	0.7112	-0.126
Mof_C 	C 	0.28031	0.6453	0.58886	0.314
Mof_C 	C 	0.31676	0.3048	0.68559	0.102
Mof_C 	C 	0.3527	0.2158	0.68551	-0.161
Mof_C 	C 	0.33866	0.1071	0.70024	-0.064
Mof_C 	C 	0.29018	0.0881	0.71603	-0.039
Mof_H 	H 	0.2815	0.0169	0.7274	0.057
Mof_C 	C 	0.25445	0.1745	0.71504	0.007
Mof_H 	H 	0.2218	0.161	0.7249	0.04
Mof_C 	C 	0.2681	0.2808	0.6992	-0.121
Mof_H 	H 	0.2439	0.3378	0.6976	0.092
Mof_C 	C 	0.37503	0.0109	0.6974	0.406
Mof_C 	C 	0.40462	0.2385	0.66619	0.478
Mof_Cd	Cd	0.77904	0.72037	0.98138	0.42
Mof_Cd	Cd	0.00575	0.23929	0.12239	0.179
Mof_O 	O 	0.77966	0.5616	0.03786	-0.252
Mof_O 	O 	0.82468	0.7141	0.04939	-0.26
Mof_O 	O 	0.93171	0.7429	0.19157	-0.277
Mof_O 	O 	0.95907	0.5801	0.21614	-0.493
Mof_O 	O 	0.92221	0.213	0.12106	-0.269
Mof_O 	O 	0.94356	0.2478	0.19203	-0.682
Mof_O 	O 	0.85752	0.8925	0.19482	-0.501
Mof_H 	H 	0.8759	0.8345	0.1963	0.307
Mof_O 	O 	0.92246	0.0068	0.18578	-0.442
Mof_O 	O 	0.04108	0.9029	0.21614	-0.618
Mof_O 	O 	0.07267	0.7379	0.19902	-0.346
Mof_O 	O 	0.22451	0.7497	0.0874	-0.269
Mof_O 	O 	0.24037	0.9185	0.06005	-0.268
Mof_O 	O 	0.14419	0.5886	0.20914	-0.501
Mof_H 	H 	0.1261	0.6472	0.209	0.303
Mof_O 	O 	0.08157	0.4776	0.186	-0.48
Mof_O 	O 	0.09124	0.2652	0.12355	-0.343
Mof_O 	O 	0.05912	0.2368	0.1912	-0.753
Mof_C 	C 	0.80992	0.6169	0.06112	0.303
Mof_C 	C 	0.83188	0.5641	0.10357	-0.079
Mof_C 	C 	0.86686	0.6241	0.1288	0.053
Mof_H 	H 	0.8759	0.6976	0.1204	0.047
Mof_C 	C 	0.88844	0.574	0.16672	-0.159
Mof_C 	C 	0.87445	0.4642	0.17925	0.074
Mof_H 	H 	0.8896	0.4302	0.2042	-0.061
Mof_C 	C 	0.8382	0.4044	0.15502	-0.058
Mof_C 	C 	0.81649	0.456	0.11679	0.002
Mof_H 	H 	0.7919	0.4178	0.1004	0.055
Mof_C 	C 	0.92855	0.6357	0.19321	0.423
Mof_C 	C 	0.82207	0.2871	0.16833	0.075
Mof_C 	C 	0.8572	0.1979	0.17455	-0.122
Mof_C 	C 	0.84062	0.089	0.18593	-0.067
Mof_C 	C 	0.78937	0.0686	0.19267	-0.023
Mof_H 	H 	0.7786	0.9965	0.2013	0.051
Mof_C 	C 	0.75486	0.1544	0.18659	-0.008
Mof_H 	H 	0.7208	0.1404	0.1909	0.044
Mof_C 	C 	0.77114	0.2615	0.17395	-0.1
Mof_H 	H 	0.7475	0.3184	0.169	0.081
Mof_C 	C 	0.91165	0.2206	0.16308	0.435
Mof_C 	C 	0.8778	0.9936	0.18888	0.426
Mof_C 	C 	0.07536	0.847	0.19889	0.447
Mof_C 	C 	0.1195	0.9064	0.17765	-0.215
Mof_C 	C 	0.14908	0.8513	0.14537	0.077
Mof_H 	H 	0.1425	0.7761	0.1376	0.018
Mof_C 	C 	0.18864	0.9097	0.12473	-0.111
Mof_C 	C 	0.19887	0.0226	0.13726	0.019
Mof_H 	H 	0.225	0.0615	0.1232	0.053
Mof_C 	C 	0.17027	0.078	0.1706	-0.089
Mof_C 	C 	0.13027	0.0178	0.1897	0.113
Mof_H 	H 	0.1102	0.0537	0.2112	-0.099
Mof_C 	C 	0.21969	0.8547	0.08886	0.31
Mof_C 	C 	0.18324	0.1952	0.18559	0.095
Mof_C 	C 	0.1473	0.2842	0.18551	-0.147
Mof_C 	C 	0.16134	0.3929	0.20024	-0.064
Mof_C 	C 	0.20982	0.4119	0.21603	-0.036
Mof_H 	H 	0.2185	0.4831	0.2274	0.057
Mof_C 	C 	0.24555	0.3255	0.21504	0.004
Mof_H 	H 	0.2782	0.339	0.2249	0.04
Mof_C 	C 	0.2319	0.2192	0.1992	-0.115
Mof_H 	H 	0.2561	0.1622	0.1976	0.091
Mof_C 	C 	0.12497	0.4891	0.1974	0.408
Mof_C 	C 	0.09538	0.2615	0.16619	0.455
Mof_Cd	Cd	0.27904	0.77963	0.01862	0.408
Mof_Cd	Cd	0.50575	0.26071	0.87761	0.281
Mof_O 	O 	0.27966	0.9384	0.96214	-0.259
Mof_O 	O 	0.32468	0.7859	0.95061	-0.274
Mof_O 	O 	0.43171	0.7571	0.80843	-0.343
Mof_O 	O 	0.45907	0.9199	0.78386	-0.644
Mof_O 	O 	0.42221	0.287	0.87894	-0.348
Mof_O 	O 	0.44356	0.2522	0.80797	-0.853
Mof_O 	O 	0.35752	0.6075	0.80518	-0.515
Mof_H 	H 	0.3759	0.6655	0.8037	0.307
Mof_O 	O 	0.42246	0.4932	0.81422	-0.535
Mof_O 	O 	0.54108	0.5971	0.78386	-0.645
Mof_O 	O 	0.57267	0.7621	0.80098	-0.342
Mof_O 	O 	0.72451	0.7503	0.9126	-0.266
Mof_O 	O 	0.74037	0.5815	0.93995	-0.264
Mof_O 	O 	0.64419	0.9114	0.79086	-0.499
Mof_H 	H 	0.6261	0.8528	0.791	0.301
Mof_O 	O 	0.58157	0.0224	0.814	-0.496
Mof_O 	O 	0.59124	0.2348	0.87645	-0.345
Mof_O 	O 	0.55912	0.2632	0.8088	-0.821
Mof_C 	C 	0.30992	0.8831	0.93888	0.308
Mof_C 	C 	0.33188	0.9359	0.89643	-0.103
Mof_C 	C 	0.36686	0.8759	0.8712	0.077
Mof_H 	H 	0.3759	0.8024	0.8796	0.026
Mof_C 	C 	0.38844	0.926	0.83328	-0.212
Mof_C 	C 	0.37445	0.0358	0.82075	0.106
Mof_H 	H 	0.3896	0.0698	0.7958	-0.101
Mof_C 	C 	0.3382	0.0956	0.84498	-0.087
Mof_C 	C 	0.31649	0.044	0.88321	0.016
Mof_H 	H 	0.2919	0.0822	0.8996	0.046
Mof_C 	C 	0.42855	0.8643	0.80679	0.467
Mof_C 	C 	0.32207	0.2129	0.83167	0.09
Mof_C 	C 	0.3572	0.3021	0.82545	-0.151
Mof_C 	C 	0.34062	0.411	0.81407	-0.074
Mof_C 	C 	0.28937	0.4314	0.80733	-0.029
Mof_H 	H 	0.2786	0.5035	0.7987	0.054
Mof_C 	C 	0.25486	0.3456	0.81341	-0.002
Mof_H 	H 	0.2208	0.3596	0.8091	0.043
Mof_C 	C 	0.27114	0.2385	0.82605	-0.111
Mof_H 	H 	0.2475	0.1816	0.831	0.084
Mof_C 	C 	0.41165	0.2794	0.83692	0.482
Mof_C 	C 	0.3778	0.5064	0.81112	0.449
Mof_C 	C 	0.57536	0.653	0.80111	0.469
Mof_C 	C 	0.6195	0.5936	0.82235	-0.227
Mof_C 	C 	0.64908	0.6487	0.85463	0.087
Mof_H 	H 	0.6425	0.7239	0.8624	0.021
Mof_C 	C 	0.68864	0.5903	0.87527	-0.111
Mof_C 	C 	0.69887	0.4774	0.86274	0.024
Mof_H 	H 	0.725	0.4385	0.8768	0.052
Mof_C 	C 	0.67027	0.422	0.8294	-0.1
Mof_C 	C 	0.63027	0.4822	0.8103	0.131
Mof_H 	H 	0.6102	0.4463	0.7888	-0.125
Mof_C 	C 	0.71969	0.6453	0.91114	0.313
Mof_C 	C 	0.68324	0.3048	0.81441	0.101
Mof_C 	C 	0.6473	0.2158	0.81449	-0.162
Mof_C 	C 	0.66134	0.1071	0.79976	-0.064
Mof_C 	C 	0.70982	0.0881	0.78397	-0.04
Mof_H 	H 	0.7185	0.0169	0.7726	0.056
Mof_C 	C 	0.74555	0.1745	0.78496	0.007
Mof_H 	H 	0.7782	0.161	0.7751	0.039
Mof_C 	C 	0.7319	0.2808	0.8008	-0.122
Mof_H 	H 	0.7561	0.3378	0.8024	0.092
Mof_C 	C 	0.62497	0.0109	0.8026	0.405
Mof_C 	C 	0.59538	0.2385	0.83381	0.478
Mof_Cd	Cd	0.22096	0.72037	0.51862	0.404
Mof_Cd	Cd	0.99425	0.23929	0.37761	0.439
Mof_O 	O 	0.22034	0.5616	0.46214	-0.26
Mof_O 	O 	0.17532	0.7141	0.45061	-0.283
Mof_O 	O 	0.06829	0.7429	0.30843	-0.351
Mof_O 	O 	0.04093	0.5801	0.28386	-0.617
Mof_O 	O 	0.07779	0.213	0.37894	-0.396
Mof_O 	O 	0.05644	0.2478	0.30797	-0.806
Mof_O 	O 	0.14248	0.8925	0.30518	-0.513
Mof_H 	H 	0.1241	0.8345	0.3037	0.307
Mof_O 	O 	0.07754	0.0068	0.31422	-0.52
Mof_O 	O 	0.95892	0.9029	0.28386	-0.496
Mof_O 	O 	0.92733	0.7379	0.30098	-0.277
Mof_O 	O 	0.77549	0.7497	0.4126	-0.26
Mof_O 	O 	0.75963	0.9185	0.43995	-0.261
Mof_O 	O 	0.85581	0.5886	0.29086	-0.492
Mof_H 	H 	0.8739	0.6472	0.291	0.304
Mof_O 	O 	0.91843	0.4776	0.314	-0.418
Mof_O 	O 	0.90876	0.2652	0.37645	-0.316
Mof_O 	O 	0.94088	0.2368	0.3088	-0.685
Mof_C 	C 	0.19008	0.6169	0.43888	0.306
Mof_C 	C 	0.16812	0.5641	0.39643	-0.106
Mof_C 	C 	0.13314	0.6241	0.3712	0.067
Mof_H 	H 	0.1241	0.6976	0.3796	0.02
Mof_C 	C 	0.11156	0.574	0.33328	-0.206
Mof_C 	C 	0.12555	0.4642	0.32075	0.087
Mof_H 	H 	0.1104	0.4302	0.2958	-0.079
Mof_C 	C 	0.1618	0.4044	0.34498	-0.079
Mof_C 	C 	0.18351	0.456	0.38321	0.011
Mof_H 	H 	0.2081	0.4178	0.3996	0.047
Mof_C 	C 	0.07145	0.6357	0.30679	0.444
Mof_C 	C 	0.17793	0.2871	0.33167	0.084
Mof_C 	C 	0.1428	0.1979	0.32545	-0.14
Mof_C 	C 	0.15938	0.089	0.31407	-0.073
Mof_C 	C 	0.21063	0.0686	0.30733	-0.024
Mof_H 	H 	0.2214	0.9965	0.2987	0.051
Mof_C 	C 	0.24514	0.1544	0.31341	-0.006
Mof_H 	H 	0.2792	0.1404	0.3091	0.043
Mof_C 	C 	0.22886	0.2615	0.32605	-0.106
Mof_H 	H 	0.2525	0.3184	0.331	0.083
Mof_C 	C 	0.08835	0.2206	0.33692	0.463
Mof_C 	C 	0.1222	0.9936	0.31112	0.442
Mof_C 	C 	0.92464	0.847	0.30111	0.423
Mof_C 	C 	0.8805	0.9064	0.32235	-0.176
Mof_C 	C 	0.85092	0.8513	0.35463	0.063
Mof_H 	H 	0.8575	0.7761	0.3624	0.039
Mof_C 	C 	0.81136	0.9097	0.37527	-0.091
Mof_C 	C 	0.80113	0.0226	0.36274	0.008
Mof_H 	H 	0.775	0.0615	0.3768	0.058
Mof_C 	C 	0.82973	0.078	0.3294	-0.071
Mof_C 	C 	0.86973	0.0178	0.3103	0.092
Mof_H 	H 	0.8898	0.0537	0.2888	-0.081
Mof_C 	C 	0.78031	0.8547	0.41114	0.309
Mof_C 	C 	0.81676	0.1952	0.31441	0.086
Mof_C 	C 	0.8527	0.2842	0.31449	-0.134
Mof_C 	C 	0.83866	0.3929	0.29976	-0.06
Mof_C 	C 	0.79018	0.4119	0.28397	-0.036
Mof_H 	H 	0.7815	0.4831	0.2726	0.057
Mof_C 	C 	0.75445	0.3255	0.28496	0.001
Mof_H 	H 	0.7218	0.339	0.2751	0.041
Mof_C 	C 	0.7681	0.2192	0.3008	-0.11
Mof_H 	H 	0.7439	0.1622	0.3024	0.088
Mof_C 	C 	0.87503	0.4891	0.3026	0.397
Mof_C 	C 	0.90462	0.2615	0.33381	0.436
Mof_Cd	Cd	0.5	0.76026	0.75	0.466
Mof_K 	K 	0.5	0.1098	0.75	3.169
Mof_K 	K 	0.5	0.40606	0.75	3.245
Mof_Cd	Cd	1.0422e-33	0.73974	0.25	0.33
Mof_K 	K 	-1.68673e-33	0.3902	0.25	2.637
Mof_K 	K 	-1.68673e-33	0.09394	0.25	2.708
Mof_Cd	Cd	0.27904	0.22037	0.51862	0.408
Mof_Cd	Cd	0.50575	0.73929	0.37761	0.281
Mof_O 	O 	0.27966	0.0616	0.46214	-0.26
Mof_O 	O 	0.32468	0.2141	0.45061	-0.274
Mof_O 	O 	0.43171	0.2429	0.30843	-0.343
Mof_O 	O 	0.45907	0.0801	0.28386	-0.644
Mof_O 	O 	0.42221	0.713	0.37894	-0.348
Mof_O 	O 	0.44356	0.7478	0.30797	-0.853
Mof_O 	O 	0.35752	0.3925	0.30518	-0.515
Mof_H 	H 	0.3759	0.3345	0.3037	0.307
Mof_O 	O 	0.42246	0.5068	0.31422	-0.535
Mof_O 	O 	0.54108	0.4029	0.28386	-0.645
Mof_O 	O 	0.57267	0.2379	0.30098	-0.342
Mof_O 	O 	0.72451	0.2497	0.4126	-0.266
Mof_O 	O 	0.74037	0.4185	0.43995	-0.263
Mof_O 	O 	0.64419	0.0886	0.29086	-0.5
Mof_H 	H 	0.6261	0.1472	0.291	0.301
Mof_O 	O 	0.58157	0.9776	0.314	-0.496
Mof_O 	O 	0.59124	0.7652	0.37645	-0.345
Mof_O 	O 	0.55912	0.7368	0.3088	-0.821
Mof_C 	C 	0.30992	0.1169	0.43888	0.308
Mof_C 	C 	0.33188	0.0641	0.39643	-0.104
Mof_C 	C 	0.36686	0.1241	0.3712	0.077
Mof_H 	H 	0.3759	0.1976	0.3796	0.026
Mof_C 	C 	0.38844	0.074	0.33328	-0.213
Mof_C 	C 	0.37445	0.9642	0.32075	0.106
Mof_H 	H 	0.3896	0.9302	0.2958	-0.101
Mof_C 	C 	0.3382	0.9044	0.34498	-0.087
Mof_C 	C 	0.31649	0.956	0.38321	0.017
Mof_H 	H 	0.2919	0.9178	0.3996	0.046
Mof_C 	C 	0.42855	0.1357	0.30679	0.467
Mof_C 	C 	0.32207	0.7871	0.33167	0.09
Mof_C 	C 	0.3572	0.6979	0.32545	-0.151
Mof_C 	C 	0.34062	0.589	0.31407	-0.074
Mof_C 	C 	0.28937	0.5686	0.30733	-0.029
Mof_H 	H 	0.2786	0.4965	0.2987	0.054
Mof_C 	C 	0.25486	0.6544	0.31341	-0.002
Mof_H 	H 	0.2208	0.6404	0.3091	0.043
Mof_C 	C 	0.27114	0.7615	0.32605	-0.111
Mof_H 	H 	0.2475	0.8184	0.331	0.084
Mof_C 	C 	0.41165	0.7206	0.33692	0.482
Mof_C 	C 	0.3778	0.4936	0.31112	0.449
Mof_C 	C 	0.57536	0.347	0.30111	0.469
Mof_C 	C 	0.6195	0.4064	0.32235	-0.227
Mof_C 	C 	0.64908	0.3513	0.35463	0.087
Mof_H 	H 	0.6425	0.2761	0.3624	0.021
Mof_C 	C 	0.68864	0.4097	0.37527	-0.111
Mof_C 	C 	0.69887	0.5226	0.36274	0.024
Mof_H 	H 	0.725	0.5615	0.3768	0.052
Mof_C 	C 	0.67027	0.578	0.3294	-0.1
Mof_C 	C 	0.63027	0.5178	0.3103	0.131
Mof_H 	H 	0.6102	0.5537	0.2888	-0.125
Mof_C 	C 	0.71969	0.3547	0.41114	0.313
Mof_C 	C 	0.68324	0.6952	0.31441	0.101
Mof_C 	C 	0.6473	0.7842	0.31449	-0.162
Mof_C 	C 	0.66134	0.8929	0.29976	-0.064
Mof_C 	C 	0.70982	0.9119	0.28397	-0.04
Mof_H 	H 	0.7185	0.9831	0.2726	0.056
Mof_C 	C 	0.74555	0.8255	0.28496	0.007
Mof_H 	H 	0.7782	0.839	0.2751	0.039
Mof_C 	C 	0.7319	0.7192	0.3008	-0.122
Mof_H 	H 	0.7561	0.6622	0.3024	0.092
Mof_C 	C 	0.62497	0.9891	0.3026	0.406
Mof_C 	C 	0.59538	0.7615	0.33381	0.478
Mof_Cd	Cd	0.22096	0.27963	0.01862	0.405
Mof_Cd	Cd	0.99425	0.76071	0.87761	0.438
Mof_O 	O 	0.22034	0.4384	0.96214	-0.261
Mof_O 	O 	0.17532	0.2859	0.95061	-0.283
Mof_O 	O 	0.06829	0.2571	0.80843	-0.351
Mof_O 	O 	0.04093	0.4199	0.78386	-0.617
Mof_O 	O 	0.07779	0.787	0.87894	-0.395
Mof_O 	O 	0.05644	0.7522	0.80797	-0.806
Mof_O 	O 	0.14248	0.1075	0.80518	-0.513
Mof_H 	H 	0.1241	0.1655	0.8037	0.307
Mof_O 	O 	0.07754	0.9932	0.81422	-0.52
Mof_O 	O 	0.95892	0.0971	0.78386	-0.497
Mof_O 	O 	0.92733	0.2621	0.80098	-0.278
Mof_O 	O 	0.77549	0.2503	0.9126	-0.261
Mof_O 	O 	0.75963	0.0815	0.93995	-0.262
Mof_O 	O 	0.85581	0.4114	0.79086	-0.492
Mof_H 	H 	0.8739	0.3528	0.791	0.304
Mof_O 	O 	0.91843	0.5224	0.814	-0.418
Mof_O 	O 	0.90876	0.7348	0.87645	-0.316
Mof_O 	O 	0.94088	0.7632	0.8088	-0.685
Mof_C 	C 	0.19008	0.3831	0.93888	0.306
Mof_C 	C 	0.16812	0.4359	0.89643	-0.106
Mof_C 	C 	0.13314	0.3759	0.8712	0.067
Mof_H 	H 	0.1241	0.3024	0.8796	0.02
Mof_C 	C 	0.11156	0.426	0.83328	-0.206
Mof_C 	C 	0.12555	0.5358	0.82075	0.088
Mof_H 	H 	0.1104	0.5698	0.7958	-0.079
Mof_C 	C 	0.1618	0.5956	0.84498	-0.079
Mof_C 	C 	0.18351	0.544	0.88321	0.011
Mof_H 	H 	0.2081	0.5822	0.8996	0.047
Mof_C 	C 	0.07145	0.3643	0.80679	0.444
Mof_C 	C 	0.17793	0.7129	0.83167	0.084
Mof_C 	C 	0.1428	0.8021	0.82545	-0.14
Mof_C 	C 	0.15938	0.911	0.81407	-0.073
Mof_C 	C 	0.21063	0.9314	0.80733	-0.024
Mof_H 	H 	0.2214	0.0035	0.7987	0.051
Mof_C 	C 	0.24514	0.8456	0.81341	-0.006
Mof_H 	H 	0.2792	0.8596	0.8091	0.043
Mof_C 	C 	0.22886	0.7385	0.82605	-0.106
Mof_H 	H 	0.2525	0.6816	0.831	0.083
Mof_C 	C 	0.08835	0.7794	0.83692	0.463
Mof_C 	C 	0.1222	0.0064	0.81112	0.442
Mof_C 	C 	0.92464	0.153	0.80111	0.423
Mof_C 	C 	0.8805	0.0936	0.82235	-0.176
Mof_C 	C 	0.85092	0.1487	0.85463	0.063
Mof_H 	H 	0.8575	0.2239	0.8624	0.039
Mof_C 	C 	0.81136	0.0903	0.87527	-0.092
Mof_C 	C 	0.80113	0.9774	0.86274	0.009
Mof_H 	H 	0.775	0.9385	0.8768	0.058
Mof_C 	C 	0.82973	0.922	0.8294	-0.072
Mof_C 	C 	0.86973	0.9822	0.8103	0.093
Mof_H 	H 	0.8898	0.9463	0.7888	-0.081
Mof_C 	C 	0.78031	0.1453	0.91114	0.309
Mof_C 	C 	0.81676	0.8048	0.81441	0.086
Mof_C 	C 	0.8527	0.7158	0.81449	-0.134
Mof_C 	C 	0.83866	0.6071	0.79976	-0.06
Mof_C 	C 	0.79018	0.5881	0.78397	-0.036
Mof_H 	H 	0.7815	0.5169	0.7726	0.057
Mof_C 	C 	0.75445	0.6745	0.78496	0.001
Mof_H 	H 	0.7218	0.661	0.7751	0.041
Mof_C 	C 	0.7681	0.7808	0.8008	-0.11
Mof_H 	H 	0.7439	0.8378	0.8024	0.088
Mof_C 	C 	0.87503	0.5109	0.8026	0.397
Mof_C 	C 	0.90462	0.7385	0.83381	0.436
Mof_Cd	Cd	0.72096	0.22037	0.98138	0.414
Mof_Cd	Cd	0.49425	0.73929	0.12239	0.281
Mof_O 	O 	0.72034	0.0616	0.03786	-0.254
Mof_O 	O 	0.67532	0.2141	0.04939	-0.273
Mof_O 	O 	0.56829	0.2429	0.19157	-0.343
Mof_O 	O 	0.54093	0.0801	0.21614	-0.644
Mof_O 	O 	0.57779	0.713	0.12106	-0.348
Mof_O 	O 	0.55644	0.7478	0.19203	-0.853
Mof_O 	O 	0.64248	0.3925	0.19482	-0.515
Mof_H 	H 	0.6241	0.3345	0.1963	0.307
Mof_O 	O 	0.57754	0.5068	0.18578	-0.535
Mof_O 	O 	0.45892	0.4029	0.21614	-0.645
Mof_O 	O 	0.42733	0.2379	0.19902	-0.341
Mof_O 	O 	0.27549	0.2497	0.0874	-0.267
Mof_O 	O 	0.25963	0.4185	0.06005	-0.268
Mof_O 	O 	0.35581	0.0886	0.20914	-0.499
Mof_H 	H 	0.3739	0.1472	0.209	0.301
Mof_O 	O 	0.41843	0.9776	0.186	-0.496
Mof_O 	O 	0.40876	0.7652	0.12355	-0.344
Mof_O 	O 	0.44088	0.7368	0.1912	-0.821
Mof_C 	C 	0.69008	0.1169	0.06112	0.307
Mof_C 	C 	0.66812	0.0641	0.10357	-0.102
Mof_C 	C 	0.63314	0.1241	0.1288	0.076
Mof_H 	H 	0.6241	0.1976	0.1204	0.026
Mof_C 	C 	0.61156	0.074	0.16672	-0.212
Mof_C 	C 	0.62555	0.9642	0.17925	0.105
Mof_H 	H 	0.6104	0.9302	0.2042	-0.101
Mof_C 	C 	0.6618	0.9044	0.15502	-0.086
Mof_C 	C 	0.68351	0.956	0.11679	0.015
Mof_H 	H 	0.7081	0.9178	0.1004	0.048
Mof_C 	C 	0.57145	0.1357	0.19321	0.467
Mof_C 	C 	0.67793	0.7871	0.16833	0.09
Mof_C 	C 	0.6428	0.6979	0.17455	-0.151
Mof_C 	C 	0.65938	0.589	0.18593	-0.074
Mof_C 	C 	0.71063	0.5686	0.19267	-0.03
Mof_H 	H 	0.7214	0.4965	0.2013	0.054
Mof_C 	C 	0.74514	0.6544	0.18659	-0.001
Mof_H 	H 	0.7792	0.6404	0.1909	0.041
Mof_C 	C 	0.72886	0.7615	0.17395	-0.113
Mof_H 	H 	0.7525	0.8184	0.169	0.086
Mof_C 	C 	0.58835	0.7206	0.16308	0.482
Mof_C 	C 	0.6222	0.4936	0.18888	0.449
Mof_C 	C 	0.42464	0.347	0.19889	0.469
Mof_C 	C 	0.3805	0.4064	0.17765	-0.227
Mof_C 	C 	0.35092	0.3513	0.14537	0.088
Mof_H 	H 	0.3575	0.2761	0.1376	0.021
Mof_C 	C 	0.31136	0.4097	0.12473	-0.112
Mof_C 	C 	0.30113	0.5226	0.13726	0.025
Mof_H 	H 	0.275	0.5615	0.1232	0.051
Mof_C 	C 	0.32973	0.578	0.1706	-0.101
Mof_C 	C 	0.36973	0.5178	0.1897	0.132
Mof_H 	H 	0.3898	0.5537	0.2112	-0.125
Mof_C 	C 	0.28031	0.3547	0.08886	0.314
Mof_C 	C 	0.31676	0.6952	0.18559	0.102
Mof_C 	C 	0.3527	0.7842	0.18551	-0.161
Mof_C 	C 	0.33866	0.8929	0.20024	-0.064
Mof_C 	C 	0.29018	0.9119	0.21603	-0.039
Mof_H 	H 	0.2815	0.9831	0.2274	0.057
Mof_C 	C 	0.25445	0.8255	0.21504	0.007
Mof_H 	H 	0.2218	0.839	0.2249	0.04
Mof_C 	C 	0.2681	0.7192	0.1992	-0.121
Mof_H 	H 	0.2439	0.6622	0.1976	0.092
Mof_C 	C 	0.37503	0.9891	0.1974	0.406
Mof_C 	C 	0.40462	0.7615	0.16619	0.478
Mof_Cd	Cd	0.77904	0.27963	0.48138	0.42
Mof_Cd	Cd	0.00575	0.76071	0.62239	0.178
Mof_O 	O 	0.77966	0.4384	0.53786	-0.252
Mof_O 	O 	0.82468	0.2859	0.54939	-0.26
Mof_O 	O 	0.93171	0.2571	0.69157	-0.277
Mof_O 	O 	0.95907	0.4199	0.71614	-0.493
Mof_O 	O 	0.92221	0.787	0.62106	-0.268
Mof_O 	O 	0.94356	0.7522	0.69203	-0.682
Mof_O 	O 	0.85752	0.1075	0.69482	-0.501
Mof_H 	H 	0.8759	0.1655	0.6963	0.307
Mof_O 	O 	0.92246	0.9932	0.68578	-0.442
Mof_O 	O 	0.04108	0.0971	0.71614	-0.618
Mof_O 	O 	0.07267	0.2621	0.69902	-0.346
Mof_O 	O 	0.22451	0.2503	0.5874	-0.269
Mof_O 	O 	0.24037	0.0815	0.56005	-0.268
Mof_O 	O 	0.14419	0.4114	0.70914	-0.501
Mof_H 	H 	0.1261	0.3528	0.709	0.303
Mof_O 	O 	0.08157	0.5224	0.686	-0.48
Mof_O 	O 	0.09124	0.7348	0.62355	-0.344
Mof_O 	O 	0.05912	0.7632	0.6912	-0.753
Mof_C 	C 	0.80992	0.3831	0.56112	0.303
Mof_C 	C 	0.83188	0.4359	0.60357	-0.079
Mof_C 	C 	0.86686	0.3759	0.6288	0.053
Mof_H 	H 	0.8759	0.3024	0.6204	0.048
Mof_C 	C 	0.88844	0.426	0.66672	-0.159
Mof_C 	C 	0.87445	0.5358	0.67925	0.074
Mof_H 	H 	0.8896	0.5698	0.7042	-0.061
Mof_C 	C 	0.8382	0.5956	0.65502	-0.058
Mof_C 	C 	0.81649	0.544	0.61679	0.002
Mof_H 	H 	0.7919	0.5822	0.6004	0.055
Mof_C 	C 	0.92855	0.3643	0.69321	0.423
Mof_C 	C 	0.82207	0.7129	0.66833	0.075
Mof_C 	C 	0.8572	0.8021	0.67455	-0.122
Mof_C 	C 	0.84062	0.911	0.68593	-0.067
Mof_C 	C 	0.78937	0.9314	0.69267	-0.024
Mof_H 	H 	0.7786	0.0035	0.7013	0.051
Mof_C 	C 	0.75486	0.8456	0.68659	-0.008
Mof_H 	H 	0.7208	0.8596	0.6909	0.044
Mof_C 	C 	0.77114	0.7385	0.67395	-0.1
Mof_H 	H 	0.7475	0.6816	0.669	0.081
Mof_C 	C 	0.91165	0.7794	0.66308	0.435
Mof_C 	C 	0.8778	0.0064	0.68888	0.426
Mof_C 	C 	0.07536	0.153	0.69889	0.447
Mof_C 	C 	0.1195	0.0936	0.67765	-0.215
Mof_C 	C 	0.14908	0.1487	0.64537	0.077
Mof_H 	H 	0.1425	0.2239	0.6376	0.018
Mof_C 	C 	0.18864	0.0903	0.62473	-0.11
Mof_C 	C 	0.19887	0.9774	0.63726	0.018
Mof_H 	H 	0.225	0.9385	0.6232	0.053
Mof_C 	C 	0.17027	0.922	0.6706	-0.089
Mof_C 	C 	0.13027	0.9822	0.6897	0.112
Mof_H 	H 	0.1102	0.9463	0.7112	-0.099
Mof_C 	C 	0.21969	0.1453	0.58886	0.31
Mof_C 	C 	0.18324	0.8048	0.68559	0.094
Mof_C 	C 	0.1473	0.7158	0.68551	-0.147
Mof_C 	C 	0.16134	0.6071	0.70024	-0.064
Mof_C 	C 	0.20982	0.5881	0.71603	-0.036
Mof_H 	H 	0.2185	0.5169	0.7274	0.057
Mof_C 	C 	0.24555	0.6745	0.71504	0.004
Mof_H 	H 	0.2782	0.661	0.7249	0.04
Mof_C 	C 	0.2319	0.7808	0.6992	-0.115
Mof_H 	H 	0.2561	0.8378	0.6976	0.09
Mof_C 	C 	0.12497	0.5109	0.6974	0.408
Mof_C 	C 	0.09538	0.7385	0.66619	0.455
Mof_Cd	Cd	0.5	0.23974	0.25	0.466
Mof_K 	K 	0.5	0.8902	0.25	3.169
Mof_K 	K 	0.5	0.59394	0.25	3.245
Mof_Cd	Cd	-7.78913e-33	0.26026	0.75	0.33
Mof_K 	K 	-7.78913e-33	0.6098	0.75	2.638
Mof_K 	K 	-7.78913e-33	0.90606	0.75	2.71
_end
