data_functionalizedCrystal
_audit_creation_method	'EQeq! by Chris Wilmer'
_symmetry_space_group_name_H-M	'P1'
_symmetry_Int_Tables_number	1
_symmetry_cell_setting	triclinic
loop_
_symmetry_equiv_pos_as_xyz
  x,y,z
_cell_length_a	14.884
_cell_length_b	18.8218
_cell_length_c	30.646
_cell_angle_alpha	100.249
_cell_angle_beta	90
_cell_angle_gamma	113.29
loop_
_atom_site_label
_atom_site_type_symbol
_atom_site_fract_x
_atom_site_fract_y
_atom_site_fract_z
_atom_site_charge
Mof_Zn	Zn	0.35554	0.95948	0.23151	1.155
Mof_Zn	Zn	0.21191	0.14502	0.40958	1.169
Mof_Zn	Zn	0.6683	0.5424	0.58266	1.169
Mof_Zn	Zn	0.60394	0.95948	0.73151	1.155
Mof_Zn	Zn	0.93311	0.14502	0.90958	1.166
Mof_Zn	Zn	0.8741	0.5424	0.08266	1.167
Mof_H 	H 	0.5582	0.989	0.2712	-0.027
Mof_H 	H 	0.704	0.104	0.3081	0.099
Mof_H 	H 	0.5187	0.2002	0.3545	0.073
Mof_H 	H 	0.3834	0.0912	0.3084	-0.004
Mof_H 	H 	0.1366	0.2674	0.4699	-0.002
Mof_H 	H 	0.9842	0.2828	0.4737	0.09
Mof_H 	H 	0.8699	0.0914	0.379	0.101
Mof_H 	H 	0.0311	0.088	0.3766	-0.054
Mof_H 	H 	0.5733	0.4378	0.4953	0.012
Mof_H 	H 	0.5893	0.3278	0.4496	0.08
Mof_H 	H 	0.853	0.3852	0.5163	0.077
Mof_H 	H 	0.7992	0.4622	0.5721	-0.004
Mof_H 	H 	0.0592	0.004	0.4374	-0.023
Mof_H 	H 	0.0521	0.902	0.4776	0.097
Mof_H 	H 	0.3086	0.0896	0.5459	0.088
Mof_H 	H 	0.2978	0.1532	0.4901	-0.034
Mof_H 	H 	0.8536	0.6412	0.647	-0.024
Mof_H 	H 	0.9981	0.7254	0.6417	0.076
Mof_H 	H 	0.9542	0.7378	0.5219	0.059
Mof_H 	H 	0.7909	0.6358	0.518	0.02
Mof_H 	H 	0.4044	0.9954	0.6141	0.073
Mof_H 	H 	0.2562	0.8104	0.663	0.085
Mof_H 	H 	0.5577	0.012	0.6569	0.011
Mof_H 	H 	0.4019	0.8332	0.7051	-0.028
Mof_H 	H 	0.4308	0.989	0.7712	-0.026
Mof_H 	H 	0.4	0.104	0.8081	0.099
Mof_H 	H 	0.6815	0.2002	0.8545	0.073
Mof_H 	H 	0.7078	0.0912	0.8084	-0.004
Mof_H 	H 	0.1308	0.2674	0.9699	0.009
Mof_H 	H 	0.2986	0.2828	0.9737	0.084
Mof_H 	H 	0.2215	0.0914	0.879	0.094
Mof_H 	H 	0.0569	0.088	0.8766	-0.042
Mof_H 	H 	0.8645	0.4378	0.9953	0.016
Mof_H 	H 	0.7385	0.3278	0.9496	0.077
Mof_H 	H 	0.5322	0.3852	0.0163	0.08
Mof_H 	H 	0.663	0.4622	0.0721	-0.002
Mof_H 	H 	0.9448	0.004	0.9374	-0.029
Mof_H 	H 	0.8499	0.902	0.9776	0.092
Mof_H 	H 	0.781	0.0896	0.0459	0.089
Mof_H 	H 	0.8554	0.1532	0.9901	-0.036
Mof_H 	H 	0.7876	0.6412	0.147	-0.027
Mof_H 	H 	0.7273	0.7254	0.1417	0.085
Mof_H 	H 	0.7836	0.7378	0.0219	0.066
Mof_H 	H 	0.8449	0.6358	0.018	0.015
Mof_H 	H 	0.591	0.9954	0.1141	0.073
Mof_H 	H 	0.5542	0.8104	0.163	0.083
Mof_H 	H 	0.4543	0.012	0.1569	0.012
Mof_H 	H 	0.4313	0.8332	0.2051	-0.029
Mof_C 	C 	0.5512	0.0344	0.2871	0.102
Mof_C 	C 	0.6373	0.0924	0.3136	-0.118
Mof_C 	C 	0.6002	0.1288	0.3503	0.044
Mof_C 	C 	0.5214	0.1516	0.3412	-0.111
Mof_C 	C 	0.4471	0.091	0.3093	0.062
Mof_C 	C 	0.6778	0.1774	0.3859	0.111
Mof_C 	C 	0.8264	0.214	0.4229	0.094
Mof_C 	C 	0.7286	0.2714	0.4448	0.1
Mof_C 	C 	0.0824	0.2316	0.4499	0.086
Mof_C 	C 	0.9885	0.2412	0.4525	-0.158
Mof_C 	C 	0.9128	0.1944	0.4266	0.093
Mof_C 	C 	0.9238	0.1312	0.3976	-0.169
Mof_C 	C 	0.0248	0.1294	0.3973	0.158
Mof_C 	C 	0.6269	0.4244	0.5007	0.034
Mof_C 	C 	0.6396	0.3594	0.4723	-0.087
Mof_C 	C 	0.7221	0.339	0.4758	0.023
Mof_C 	C 	0.7913	0.3882	0.5126	-0.093
Mof_C 	C 	0.7643	0.4422	0.5437	0.065
Mof_C 	C 	0.1149	0.0116	0.4558	0.134
Mof_C 	C 	0.1036	0.9532	0.4824	-0.155
Mof_C 	C 	0.18	0.9828	0.5167	0.045
Mof_C 	C 	0.2595	0.0654	0.5218	-0.107
Mof_C 	C 	0.252	0.1004	0.4881	0.111
Mof_C 	C 	0.1616	0.9296	0.5512	0.109
Mof_C 	C 	0.0719	0.8278	0.5804	0.116
Mof_C 	C 	0.8667	0.6642	0.6212	0.132
Mof_C 	C 	0.9492	0.717	0.6191	-0.135
Mof_C 	C 	0.9807	0.7692	0.585	0.003
Mof_C 	C 	0.2394	0.8974	0.6044	0.077
Mof_C 	C 	0.9271	0.726	0.5491	-0.054
Mof_C 	C 	0.8305	0.6616	0.5451	-0.015
Mof_C 	C 	0.3217	0.9024	0.6344	0.078
Mof_C 	C 	0.4018	0.9592	0.6326	-0.12
Mof_C 	C 	0.3159	0.8536	0.6608	-0.158
Mof_C 	C 	0.4954	0.9718	0.6595	0.023
Mof_C 	C 	0.4041	0.8688	0.6862	0.119
Mof_C 	C 	0.4832	0.0344	0.7871	0.103
Mof_C 	C 	0.4551	0.0924	0.8136	-0.118
Mof_C 	C 	0.5286	0.1288	0.8503	0.045
Mof_C 	C 	0.6302	0.1516	0.8412	-0.111
Mof_C 	C 	0.6439	0.091	0.8093	0.063
Mof_C 	C 	0.4996	0.1774	0.8859	0.111
Mof_C 	C 	0.3876	0.214	0.9229	0.103
Mof_C 	C 	0.5428	0.2714	0.9448	0.101
Mof_C 	C 	0.1492	0.2316	0.9499	0.059
Mof_C 	C 	0.2527	0.2412	0.9525	-0.119
Mof_C 	C 	0.2816	0.1944	0.9266	0.071
Mof_C 	C 	0.2074	0.1312	0.8976	-0.132
Mof_C 	C 	0.1046	0.1294	0.8973	0.128
Mof_C 	C 	0.7975	0.4244	0.0007	0.019
Mof_C 	C 	0.7198	0.3594	0.9723	-0.078
Mof_C 	C 	0.6169	0.339	0.9758	0.026
Mof_C 	C 	0.5969	0.3882	0.0126	-0.098
Mof_C 	C 	0.6779	0.4422	0.0437	0.066
Mof_C 	C 	0.8967	0.0116	0.9558	0.13
Mof_C 	C 	0.8496	0.9532	0.9824	-0.148
Mof_C 	C 	0.8028	0.9828	0.0167	0.041
Mof_C 	C 	0.8059	0.0654	0.0218	-0.115
Mof_C 	C 	0.8484	0.1004	0.9881	0.117
Mof_C 	C 	0.768	0.9296	0.0512	0.108
Mof_C 	C 	0.7559	0.8278	0.0804	0.095
Mof_C 	C 	0.7975	0.6642	0.1212	0.141
Mof_C 	C 	0.7678	0.717	0.1191	-0.149
Mof_C 	C 	0.7885	0.7692	0.085	0.027
Mof_C 	C 	0.658	0.8974	0.1044	0.076
Mof_C 	C 	0.7989	0.726	0.0491	-0.068
Mof_C 	C 	0.8311	0.6616	0.0451	-0.009
Mof_C 	C 	0.5807	0.9024	0.1344	0.078
Mof_C 	C 	0.5574	0.9592	0.1326	-0.119
Mof_C 	C 	0.5377	0.8536	0.1608	-0.158
Mof_C 	C 	0.4764	0.9718	0.1595	0.023
Mof_C 	C 	0.4647	0.8688	0.1862	0.119
Mof_I 	I 	0.27868	0.03432	0.19552	-0.357
Mof_I 	I 	0.26809	0.84436	0.27141	-0.352
Mof_I 	I 	0.19377	0.06248	0.3368	-0.401
Mof_I 	I 	0.36324	0.27646	0.44179	-0.353
Mof_I 	I 	0.65705	0.4955	0.65334	-0.385
Mof_I 	I 	0.54711	0.57688	0.54625	-0.391
Mof_I 	I 	0.75564	0.03432	0.69552	-0.363
Mof_I 	I 	0.57627	0.84436	0.77141	-0.352
Mof_I 	I 	0.86871	0.06248	0.8368	-0.416
Mof_I 	I 	0.91322	0.27646	0.94179	-0.363
Mof_I 	I 	0.83845	0.4955	0.15334	-0.394
Mof_I 	I 	0.02977	0.57688	0.04625	-0.377
Mof_N 	N 	0.461	0.0358	0.2816	-0.267
Mof_N 	N 	0.7591	0.1654	0.3908	-0.132
Mof_N 	N 	0.8171	0.272	0.4524	-0.141
Mof_N 	N 	0.6609	0.2352	0.4104	-0.145
Mof_N 	N 	0.0949	0.1722	0.4191	-0.31
Mof_N 	N 	0.6951	0.465	0.5353	-0.268
Mof_N 	N 	0.193	0.0726	0.4547	-0.297
Mof_N 	N 	0.0728	0.8736	0.5519	-0.139
Mof_N 	N 	0.1503	0.8422	0.6072	-0.148
Mof_N 	N 	0.2434	0.944	0.5755	-0.139
Mof_N 	N 	0.8016	0.641	0.5907	-0.265
Mof_N 	N 	0.4826	0.9244	0.6853	-0.281
Mof_N 	N 	0.5748	0.0358	0.7816	-0.267
Mof_N 	N 	0.4063	0.1654	0.8908	-0.133
Mof_N 	N 	0.4549	0.272	0.9524	-0.14
Mof_N 	N 	0.5743	0.2352	0.9104	-0.146
Mof_N 	N 	0.0773	0.1722	0.9191	-0.295
Mof_N 	N 	0.7699	0.465	0.0353	-0.267
Mof_N 	N 	0.8796	0.0726	0.9547	-0.299
Mof_N 	N 	0.8008	0.8736	0.0519	-0.141
Mof_N 	N 	0.6919	0.8422	0.1072	-0.147
Mof_N 	N 	0.7006	0.944	0.0755	-0.138
Mof_N 	N 	0.8394	0.641	0.0907	-0.27
Mof_N 	N 	0.4418	0.9244	0.1853	-0.281
Mof_Zn	Zn	0.92342	0.05104	0.19419	1.17
Mof_Zn	Zn	0.1914	0.63684	0.543	1.164
Mof_Zn	Zn	0.86296	0.44652	0.36451	1.164
Mof_Zn	Zn	0.12762	0.05104	0.69419	1.175
Mof_Zn	Zn	0.44544	0.63684	0.043	1.163
Mof_Zn	Zn	0.58356	0.44652	0.86451	1.164
Mof_H 	H 	0.9491	0.1778	0.2831	-0.025
Mof_H 	H 	0.069	0.259	0.3324	0.112
Mof_H 	H 	0.272	0.2296	0.2532	0.083
Mof_H 	H 	0.1522	0.1168	0.2135	0.032
Mof_H 	H 	0.3626	0.6092	0.5154	-0.004
Mof_H 	H 	0.4072	0.5352	0.4543	0.088
Mof_H 	H 	0.1285	0.43	0.4099	0.076
Mof_H 	H 	0.085	0.482	0.4766	-0
Mof_H 	H 	0.6881	0.3392	0.3148	-0.021
Mof_H 	H 	0.5124	0.299	0.3151	0.074
Mof_H 	H 	0.5539	0.488	0.4018	0.088
Mof_H 	H 	0.7229	0.5366	0.4	-0.001
Mof_H 	H 	0.8962	0.5882	0.3449	-0.076
Mof_H 	H 	0.9392	0.672	0.297	0.114
Mof_H 	H 	0.0566	0.5384	0.2247	0.094
Mof_H 	H 	0.966	0.4348	0.2713	0.006
Mof_H 	H 	0.0187	0.9646	0.1384	-0.038
Mof_H 	H 	0.0538	0.8486	0.1291	0.11
Mof_H 	H 	0.9154	0.8198	0.2421	0.125
Mof_H 	H 	0.8802	0.9188	0.2367	-0.076
Mof_H 	H 	0.3379	0.5802	0.1267	-0.003
Mof_H 	H 	0.2226	0.592	0.169	0.081
Mof_H 	H 	0.2312	0.7766	0.1109	0.07
Mof_H 	H 	0.3494	0.7532	0.0639	-0.003
Mof_H 	H 	0.2287	0.1778	0.7831	0.002
Mof_H 	H 	0.19	0.259	0.8324	0.094
Mof_H 	H 	0.9576	0.2296	0.7532	0.059
Mof_H 	H 	0.9646	0.1168	0.7135	0.018
Mof_H 	H 	0.2466	0.6092	0.0154	-0.01
Mof_H 	H 	0.128	0.5352	0.9543	0.093
Mof_H 	H 	0.3015	0.43	0.9099	0.073
Mof_H 	H 	0.397	0.482	0.9766	-0.004
Mof_H 	H 	0.6511	0.3392	0.8148	-0.022
Mof_H 	H 	0.7866	0.299	0.8151	0.075
Mof_H 	H 	0.9341	0.488	0.9018	0.085
Mof_H 	H 	0.8137	0.5366	0.9	-0.002
Mof_H 	H 	0.692	0.5882	0.8449	-0.072
Mof_H 	H 	0.7328	0.672	0.797	0.109
Mof_H 	H 	0.4818	0.5384	0.7247	0.093
Mof_H 	H 	0.4688	0.4348	0.7713	0.006
Mof_H 	H 	0.9459	0.9646	0.6384	-0.035
Mof_H 	H 	0.7948	0.8486	0.6291	0.095
Mof_H 	H 	0.9044	0.8198	0.7421	0.101
Mof_H 	H 	0.0386	0.9188	0.7367	-0.04
Mof_H 	H 	0.2423	0.5802	0.6267	-0.003
Mof_H 	H 	0.3694	0.592	0.669	0.081
Mof_H 	H 	0.5454	0.7766	0.6109	0.069
Mof_H 	H 	0.4038	0.7532	0.5639	-0.003
Mof_C 	C 	0.0139	0.1824	0.2778	0.133
Mof_C 	C 	0.0841	0.2332	0.3056	-0.175
Mof_C 	C 	0.1785	0.2502	0.2976	0.072
Mof_C 	C 	0.2056	0.2124	0.2604	-0.106
Mof_C 	C 	0.1353	0.1512	0.2353	0.029
Mof_C 	C 	0.2568	0.313	0.33	0.076
Mof_C 	C 	0.2978	0.4146	0.3899	0.097
Mof_C 	C 	0.4143	0.3886	0.3569	0.093
Mof_C 	C 	0.3131	0.5688	0.4949	0.076
Mof_C 	C 	0.3398	0.5228	0.4582	-0.103
Mof_C 	C 	0.2669	0.4588	0.4274	0.051
Mof_C 	C 	0.1782	0.4588	0.4334	-0.11
Mof_C 	C 	0.1521	0.4966	0.4709	0.053
Mof_C 	C 	0.6608	0.3698	0.3339	0.062
Mof_C 	C 	0.5558	0.3482	0.332	-0.112
Mof_C 	C 	0.5187	0.4008	0.3555	0.069
Mof_C 	C 	0.5802	0.4586	0.3813	-0.126
Mof_C 	C 	0.681	0.4856	0.3843	0.058
Mof_C 	C 	0.9223	0.5724	0.3184	0.195
Mof_C 	C 	0.9517	0.6256	0.2914	-0.23
Mof_C 	C 	0.0008	0.6092	0.2551	0.136
Mof_C 	C 	0.0168	0.5474	0.2474	-0.13
Mof_C 	C 	0.9669	0.4864	0.2778	0.049
Mof_C 	C 	0.0354	0.6614	0.2215	0.077
Mof_C 	C 	0.0393	0.7644	0.1875	0.073
Mof_C 	C 	0.1341	0.7008	0.1683	0.092
Mof_C 	C 	0.0046	0.9348	0.1615	0.154
Mof_C 	C 	0.0288	0.867	0.1552	-0.206
Mof_C 	C 	0.0121	0.8346	0.1897	0.138
Mof_C 	C 	0.9445	0.852	0.221	-0.272
Mof_C 	C 	0.9279	0.9102	0.2185	0.225
Mof_C 	C 	0.3118	0.6174	0.1225	0.068
Mof_C 	C 	0.2475	0.6244	0.1476	-0.115
Mof_C 	C 	0.2128	0.6868	0.1418	0.046
Mof_C 	C 	0.2504	0.7348	0.1128	-0.103
Mof_C 	C 	0.3209	0.7206	0.085	0.046
Mof_C 	C 	0.1685	0.1824	0.7778	0.083
Mof_C 	C 	0.1491	0.2332	0.8056	-0.134
Mof_C 	C 	0.0717	0.2502	0.7976	0.043
Mof_C 	C 	0.0068	0.2124	0.7604	-0.066
Mof_C 	C 	0.0159	0.1512	0.7353	0.034
Mof_C 	C 	0.0562	0.313	0.83	0.099
Mof_C 	C 	0.1168	0.4146	0.8899	0.1
Mof_C 	C 	0.9743	0.3886	0.8569	0.078
Mof_C 	C 	0.2557	0.5688	0.9949	0.087
Mof_C 	C 	0.183	0.5228	0.9582	-0.107
Mof_C 	C 	0.1919	0.4588	0.9274	0.054
Mof_C 	C 	0.2806	0.4588	0.9334	-0.112
Mof_C 	C 	0.3445	0.4966	0.9709	0.054
Mof_C 	C 	0.709	0.3698	0.8339	0.063
Mof_C 	C 	0.7924	0.3482	0.832	-0.114
Mof_C 	C 	0.8821	0.4008	0.8555	0.072
Mof_C 	C 	0.8784	0.4586	0.8813	-0.129
Mof_C 	C 	0.8046	0.4856	0.8843	0.058
Mof_C 	C 	0.6501	0.5724	0.8184	0.185
Mof_C 	C 	0.6739	0.6256	0.7914	-0.203
Mof_C 	C 	0.6084	0.6092	0.7551	0.116
Mof_C 	C 	0.5306	0.5474	0.7474	-0.139
Mof_C 	C 	0.5195	0.4864	0.7778	0.063
Mof_C 	C 	0.626	0.6614	0.7215	0.078
Mof_C 	C 	0.7251	0.7644	0.6875	0.082
Mof_C 	C 	0.5667	0.7008	0.6683	0.091
Mof_C 	C 	0.9302	0.9348	0.6615	0.116
Mof_C 	C 	0.8382	0.867	0.6552	-0.172
Mof_C 	C 	0.8225	0.8346	0.6897	0.092
Mof_C 	C 	0.9075	0.852	0.721	-0.198
Mof_C 	C 	0.9823	0.9102	0.7185	0.152
Mof_C 	C 	0.3056	0.6174	0.6225	0.068
Mof_C 	C 	0.3769	0.6244	0.6476	-0.115
Mof_C 	C 	0.474	0.6868	0.6418	0.046
Mof_C 	C 	0.4844	0.7348	0.6128	-0.103
Mof_C 	C 	0.3997	0.7206	0.585	0.046
Mof_I 	I 	0.76675	0.01826	0.23022	-0.375
Mof_I 	I 	0.95972	0.09944	0.12251	-0.372
Mof_I 	I 	0.04153	0.56142	0.58112	-0.361
Mof_I 	I 	0.22052	0.74964	0.50486	-0.367
Mof_I 	I 	0.89689	0.33032	0.3452	-0.42
Mof_I 	I 	0.9282	0.54264	0.44392	-0.383
Mof_I 	I 	0.25151	0.01826	0.73022	-0.368
Mof_I 	I 	0.13972	0.09944	0.62251	-0.348
Mof_I 	I 	0.51989	0.56142	0.08112	-0.378
Mof_I 	I 	0.52912	0.74964	0.00486	-0.375
Mof_I 	I 	0.43343	0.33032	0.8452	-0.412
Mof_I 	I 	0.61444	0.54264	0.94392	-0.368
Mof_N 	N 	0.0258	0.1344	0.2406	-0.264
Mof_N 	N 	0.226	0.3532	0.3629	-0.136
Mof_N 	N 	0.396	0.442	0.3871	-0.133
Mof_N 	N 	0.3534	0.3316	0.3243	-0.134
Mof_N 	N 	0.2236	0.5548	0.4995	-0.269
Mof_N 	N 	0.7161	0.4314	0.3621	-0.265
Mof_N 	N 	0.9242	0.5098	0.3142	-0.303
Mof_N 	N 	0.0141	0.7268	0.2208	-0.12
Mof_N 	N 	0.1048	0.7576	0.1603	-0.145
Mof_N 	N 	0.1059	0.6522	0.1965	-0.132
Mof_N 	N 	0.9668	0.9586	0.1945	-0.342
Mof_N 	N 	0.3471	0.66	0.0889	-0.252
Mof_N 	N 	0.1086	0.1344	0.7406	-0.261
Mof_N 	N 	0.1272	0.3532	0.8629	-0.139
Mof_N 	N 	0.046	0.442	0.8871	-0.122
Mof_N 	N 	0.9782	0.3316	0.8243	-0.143
Mof_N 	N 	0.3312	0.5548	0.9995	-0.27
Mof_N 	N 	0.7153	0.4314	0.8621	-0.265
Mof_N 	N 	0.5856	0.5098	0.8142	-0.301
Mof_N 	N 	0.7127	0.7268	0.7208	-0.127
Mof_N 	N 	0.6528	0.7576	0.6603	-0.148
Mof_N 	N 	0.5463	0.6522	0.6965	-0.133
Mof_N 	N 	0.9918	0.9586	0.6945	-0.315
Mof_N 	N 	0.3129	0.66	0.5889	-0.251
_end
