data_functionalizedCrystal
_audit_creation_method	'EQeq! by Chris Wilmer'
_symmetry_space_group_name_H-M	'P1'
_symmetry_Int_Tables_number	1
_symmetry_cell_setting	triclinic
loop_
_symmetry_equiv_pos_as_xyz
  x,y,z
_cell_length_a	24.7293
_cell_length_b	8.9442
_cell_length_c	9.9806
_cell_angle_alpha	90
_cell_angle_beta	90
_cell_angle_gamma	90
loop_
_atom_site_label
_atom_site_type_symbol
_atom_site_fract_x
_atom_site_fract_y
_atom_site_fract_z
_atom_site_charge
Mof_Al	Al	0.3853	0.87281	0.78295	6.414
Mof_Al	Al	0.23054	0.16923	0.48198	5.216
Mof_P 	P 	0.33884	0.95504	0.51124	1.411
Mof_P 	P 	0.30274	0.61277	0.7944	1.371
Mof_O 	O 	0.5055	0.638	0.6294	-0.455
Mof_O 	O 	0.45127	0.8402	0.7391	-1.795
Mof_O 	O 	0.35446	0.9806	0.6594	-1.874
Mof_O 	O 	0.28918	0.0431	0.4771	-1.64
Mof_O 	O 	0.38686	0.0169	0.4279	-1.788
Mof_O 	O 	0.33198	0.789	0.4853	-1.435
Mof_O 	O 	0.35686	0.6957	0.8117	-1.821
Mof_O 	O 	0.30724	0.4718	0.8768	-1.326
Mof_O 	O 	0.29549	0.5761	0.6461	-1.349
Mof_O 	O 	0.25649	0.7171	0.8372	-1.525
Mof_Al	Al	0.1147	0.62719	0.28295	6.374
Mof_Al	Al	0.26946	0.33077	0.98198	5.225
Mof_P 	P 	0.16116	0.54496	0.01124	1.412
Mof_P 	P 	0.19726	0.88723	0.2944	1.369
Mof_O 	O 	0.9945	0.862	0.1294	-0.38
Mof_O 	O 	0.04873	0.6598	0.2391	-1.791
Mof_O 	O 	0.14554	0.5194	0.1594	-1.869
Mof_O 	O 	0.21082	0.4569	0.9771	-1.639
Mof_O 	O 	0.11314	0.4831	0.9279	-1.787
Mof_O 	O 	0.16802	0.711	0.9853	-1.439
Mof_O 	O 	0.14314	0.8043	0.3117	-1.818
Mof_O 	O 	0.19276	0.0282	0.3768	-1.33
Mof_O 	O 	0.20451	0.9239	0.1461	-1.351
Mof_O 	O 	0.24351	0.7829	0.3372	-1.522
Mof_Al	Al	0.6147	0.87281	0.71705	6.414
Mof_Al	Al	0.76946	0.16923	0.01802	5.216
Mof_P 	P 	0.66116	0.95504	0.98876	1.418
Mof_P 	P 	0.69726	0.61277	0.7056	1.371
Mof_O 	O 	0.4945	0.638	0.8706	-0.454
Mof_O 	O 	0.54873	0.8402	0.7609	-1.795
Mof_O 	O 	0.64554	0.9806	0.8406	-1.875
Mof_O 	O 	0.71082	0.0431	0.0229	-1.643
Mof_O 	O 	0.61314	0.0169	0.0721	-1.791
Mof_O 	O 	0.66802	0.789	0.0147	-1.437
Mof_O 	O 	0.64314	0.6957	0.6883	-1.822
Mof_O 	O 	0.69276	0.4718	0.6232	-1.325
Mof_O 	O 	0.70451	0.5761	0.8539	-1.348
Mof_O 	O 	0.74351	0.7171	0.6628	-1.524
Mof_Al	Al	0.8853	0.62719	0.21705	6.4
Mof_Al	Al	0.73054	0.33077	0.51802	5.218
Mof_P 	P 	0.83884	0.54496	0.48876	1.411
Mof_P 	P 	0.80274	0.88723	0.2056	1.371
Mof_O 	O 	0.0055	0.862	0.3706	-0.479
Mof_O 	O 	0.95127	0.6598	0.2609	-1.733
Mof_O 	O 	0.85446	0.5194	0.3406	-1.866
Mof_O 	O 	0.78918	0.4569	0.5229	-1.639
Mof_O 	O 	0.88686	0.4831	0.5721	-1.775
Mof_O 	O 	0.83198	0.711	0.5147	-1.431
Mof_O 	O 	0.85686	0.8043	0.1883	-1.814
Mof_O 	O 	0.80724	0.0282	0.1232	-1.325
Mof_O 	O 	0.79549	0.9239	0.3539	-1.348
Mof_O 	O 	0.75649	0.7829	0.1628	-1.525
Mof_Al	Al	0.6147	0.12719	0.21705	6.413
Mof_Al	Al	0.76946	0.83077	0.51802	5.217
Mof_P 	P 	0.66116	0.04496	0.48876	1.412
Mof_P 	P 	0.69726	0.38723	0.2056	1.371
Mof_O 	O 	0.4945	0.362	0.3706	-0.455
Mof_O 	O 	0.54873	0.1598	0.2609	-1.795
Mof_O 	O 	0.64554	0.0194	0.3406	-1.875
Mof_O 	O 	0.71082	0.9569	0.5229	-1.641
Mof_O 	O 	0.61314	0.9831	0.5721	-1.789
Mof_O 	O 	0.66802	0.211	0.5147	-1.435
Mof_O 	O 	0.64314	0.3043	0.1883	-1.822
Mof_O 	O 	0.69276	0.5282	0.1232	-1.326
Mof_O 	O 	0.70451	0.4239	0.3539	-1.35
Mof_O 	O 	0.74351	0.2829	0.1628	-1.524
Mof_Al	Al	0.8853	0.37281	0.71705	6.402
Mof_Al	Al	0.73054	0.66923	0.01802	5.223
Mof_P 	P 	0.83884	0.45504	0.98876	1.421
Mof_P 	P 	0.80274	0.11277	0.7056	1.371
Mof_O 	O 	0.0055	0.138	0.8706	-0.475
Mof_O 	O 	0.95127	0.3402	0.7609	-1.733
Mof_O 	O 	0.85446	0.4806	0.8406	-1.866
Mof_O 	O 	0.78918	0.5431	0.0229	-1.642
Mof_O 	O 	0.88686	0.5169	0.0721	-1.776
Mof_O 	O 	0.83198	0.289	0.0147	-1.433
Mof_O 	O 	0.85686	0.1957	0.6883	-1.814
Mof_O 	O 	0.80724	0.9718	0.6232	-1.325
Mof_O 	O 	0.79549	0.0761	0.8539	-1.345
Mof_O 	O 	0.75649	0.2171	0.6628	-1.523
Mof_Al	Al	0.3853	0.12719	0.28295	6.412
Mof_Al	Al	0.23054	0.83077	0.98198	5.221
Mof_P 	P 	0.33884	0.04496	0.01124	1.412
Mof_P 	P 	0.30274	0.38723	0.2944	1.371
Mof_O 	O 	0.5055	0.362	0.1294	-0.455
Mof_O 	O 	0.45127	0.1598	0.2391	-1.795
Mof_O 	O 	0.35446	0.0194	0.1594	-1.874
Mof_O 	O 	0.28918	0.9569	0.9771	-1.641
Mof_O 	O 	0.38686	0.9831	0.9279	-1.788
Mof_O 	O 	0.33198	0.211	0.9853	-1.434
Mof_O 	O 	0.35686	0.3043	0.3117	-1.822
Mof_O 	O 	0.30724	0.5282	0.3768	-1.324
Mof_O 	O 	0.29549	0.4239	0.1461	-1.35
Mof_O 	O 	0.25649	0.2829	0.3372	-1.524
Mof_Al	Al	0.1147	0.37281	0.78295	6.374
Mof_Al	Al	0.26946	0.66923	0.48198	5.213
Mof_P 	P 	0.16116	0.45504	0.51124	1.409
Mof_P 	P 	0.19726	0.11277	0.7944	1.371
Mof_O 	O 	0.9945	0.138	0.6294	-0.381
Mof_O 	O 	0.04873	0.3402	0.7391	-1.791
Mof_O 	O 	0.14554	0.4806	0.6594	-1.869
Mof_O 	O 	0.21082	0.5431	0.4771	-1.637
Mof_O 	O 	0.11314	0.5169	0.4279	-1.789
Mof_O 	O 	0.16802	0.289	0.4853	-1.439
Mof_O 	O 	0.14314	0.1957	0.8117	-1.818
Mof_O 	O 	0.19276	0.9718	0.8768	-1.332
Mof_O 	O 	0.20451	0.0761	0.6461	-1.352
Mof_O 	O 	0.24351	0.2171	0.8372	-1.524
Mof_P 	P 	0.5	0.7355	0.75	1.189
Mof_P 	P 	-1.05108e-33	0.7645	0.25	1.082
Mof_P 	P 	0.5	0.2645	0.25	1.189
Mof_P 	P 	3.9937e-33	0.2355	0.75	1.082
_end
