data_functionalizedCrystal
_audit_creation_method	'EQeq! by Chris Wilmer'
_symmetry_space_group_name_H-M	'P1'
_symmetry_Int_Tables_number	1
_symmetry_cell_setting	triclinic
loop_
_symmetry_equiv_pos_as_xyz
  x,y,z
_cell_length_a	12.8432
_cell_length_b	19.5607
_cell_length_c	25.691
_cell_angle_alpha	79.224
_cell_angle_beta	78.864
_cell_angle_gamma	71.244
loop_
_atom_site_label
_atom_site_type_symbol
_atom_site_fract_x
_atom_site_fract_y
_atom_site_fract_z
_atom_site_charge
Mof_Mn	Mn	0.68964	0.3749	0.38288	0.685
Mof_Mn	Mn	0.7421	0.45115	0.26276	1.071
Mof_Mn	Mn	0.65876	0.31032	0.27985	1.093
Mof_Mn	Mn	0.50547	0.46495	0.24321	1.129
Mof_Mn	Mn	0.53006	0.52976	0.33825	1.13
Mof_Mn	Mn	0.44389	0.39025	0.35793	1.064
Mof_Na	Na	0.914	0.28803	0.3037	2.678
Mof_Na	Na	0.4478	0.45384	0.46699	3.007
Mof_Na	Na	0.5784	0.6249	0.21315	2.447
Mof_O 	O 	0.589	0.4262	0.30647	-0.663
Mof_C 	C 	0.7811	0.5267	0.3646	-0.406
Mof_C 	C 	0.6871	0.5179	0.4102	0.475
Mof_H 	H 	0.7204	0.4887	0.442	-0.257
Mof_H 	H 	0.6429	0.5667	0.42	-0.253
Mof_O 	O 	0.6135	0.4835	0.39691	-0.773
Mof_C 	C 	0.7348	0.5745	0.3158	0.456
Mof_H 	H 	0.6911	0.6232	0.3258	-0.221
Mof_H 	H 	0.7974	0.5808	0.2881	-0.197
Mof_O 	O 	0.6643	0.546	0.29297	-0.783
Mof_C 	C 	0.859	0.4523	0.3499	0.414
Mof_H 	H 	0.9222	0.4606	0.3233	-0.142
Mof_H 	H 	0.8894	0.4229	0.3823	-0.188
Mof_O 	O 	0.806	0.4114	0.32828	-0.777
Mof_C 	C 	0.8517	0.567	0.3831	0.247
Mof_H 	H 	0.9005	0.5823	0.3514	-0.075
Mof_H 	H 	0.8006	0.6117	0.3969	-0.087
Mof_C 	C 	0.9237	0.524	0.4257	-0.501
Mof_H 	H 	0.877	0.5078	0.4574	0.135
Mof_H 	H 	0.9615	0.555	0.4355	0.137
Mof_H 	H 	0.9792	0.4815	0.4117	0.143
Mof_C 	C 	0.7244	0.3869	0.1512	-0.329
Mof_C 	C 	0.6213	0.3602	0.1672	0.317
Mof_H 	H 	0.5656	0.3886	0.1435	-0.088
Mof_H 	H 	0.6423	0.3085	0.1617	-0.13
Mof_O 	O 	0.571	0.3669	0.22251	-0.557
Mof_C 	C 	0.8144	0.3439	0.1863	0.388
Mof_H 	H 	0.8365	0.2918	0.1817	-0.144
Mof_H 	H 	0.8806	0.3613	0.1738	-0.125
Mof_O 	O 	0.7803	0.3504	0.24246	-0.794
Mof_C 	C 	0.6957	0.4691	0.1539	0.383
Mof_H 	H 	0.7638	0.4843	0.1412	-0.142
Mof_H 	H 	0.6412	0.4961	0.1292	-0.136
Mof_O 	O 	0.6513	0.4889	0.20581	-0.748
Mof_C 	C 	0.7762	0.3708	0.0929	0.197
Mof_H 	H 	0.847	0.3832	0.0838	-0.052
Mof_H 	H 	0.7939	0.3179	0.092	-0.058
Mof_C 	C 	0.7036	0.4114	0.0499	-0.498
Mof_H 	H 	0.6996	0.4631	0.0444	0.142
Mof_H 	H 	0.6287	0.4065	0.0612	0.148
Mof_H 	H 	0.7357	0.3909	0.0163	0.133
Mof_C 	C 	0.6046	0.2205	0.4038	-0.376
Mof_C 	C 	0.7225	0.2189	0.3787	0.452
Mof_H 	H 	0.7682	0.21	0.4076	-0.22
Mof_H 	H 	0.7541	0.1777	0.3575	-0.188
Mof_O 	O 	0.7302	0.2844	0.34475	-0.82
Mof_C 	C 	0.5543	0.2808	0.4405	0.41
Mof_H 	H 	0.4806	0.2772	0.4588	-0.151
Mof_H 	H 	0.6024	0.2715	0.4685	-0.189
Mof_O 	O 	0.5414	0.3537	0.41374	-0.812
Mof_C 	C 	0.5325	0.2307	0.3616	0.38
Mof_H 	H 	0.5634	0.1893	0.3406	-0.169
Mof_H 	H 	0.4573	0.2297	0.3795	-0.109
Mof_O 	O 	0.5229	0.297	0.326	-0.557
Mof_C 	C 	0.6075	0.1476	0.4412	0.195
Mof_H 	H 	0.6357	0.1487	0.4741	-0.057
Mof_H 	H 	0.5303	0.1452	0.4517	-0.048
Mof_C 	C 	0.6783	0.0772	0.4177	-0.466
Mof_H 	H 	0.662	0.0797	0.3816	0.145
Mof_H 	H 	0.6607	0.0352	0.4406	0.136
Mof_H 	H 	0.7573	0.0721	0.4161	0.115
Mof_C 	C 	0.2634	0.5549	0.3198	-0.322
Mof_C 	C 	0.336	0.5966	0.2809	0.361
Mof_H 	H 	0.3116	0.6073	0.2452	-0.118
Mof_H 	H 	0.3245	0.6436	0.2935	-0.124
Mof_O 	O 	0.4535	0.5573	0.27557	-0.746
Mof_C 	C 	0.2948	0.5388	0.3744	0.411
Mof_H 	H 	0.2854	0.5855	0.3872	-0.154
Mof_H 	H 	0.243	0.515	0.3987	-0.158
Mof_O 	O 	0.4064	0.4931	0.37795	-0.851
Mof_C 	C 	0.2706	0.4848	0.2981	0.282
Mof_H 	H 	0.2174	0.4616	0.3218	-0.07
Mof_H 	H 	0.247	0.4985	0.2622	-0.068
Mof_O 	O 	0.3771	0.433	0.2942	-0.504
Mof_C 	C 	0.1405	0.6029	0.3198	0.177
Mof_H 	H 	0.1241	0.6133	0.2826	-0.05
Mof_H 	H 	0.0921	0.5741	0.341	-0.042
Mof_C 	C 	0.1089	0.6749	0.3418	-0.464
Mof_H 	H 	0.124	0.6657	0.3789	0.123
Mof_H 	H 	0.0296	0.6997	0.3409	0.118
Mof_H 	H 	0.1526	0.7056	0.32	0.134
Mof_C 	C 	0.982	0.4334	0.2218	0.742
Mof_O 	O 	0.0078	0.3701	0.2414	-0.729
Mof_O 	O 	0.8802	0.4749	0.2206	-0.568
Mof_C 	C 	0.0663	0.4714	0.1952	-0.99
Mof_H 	H 	0.1403	0.4407	0.2027	0.301
Mof_H 	H 	0.0488	0.5178	0.2091	0.283
Mof_H 	H 	0.0652	0.4806	0.1565	0.286
Mof_C 	C 	0.8182	0.176	0.24	0.79
Mof_O 	O 	0.8876	0.1816	0.2662	-1.09
Mof_O 	O 	0.7154	0.2124	0.24634	-0.803
Mof_C 	C 	0.8578	0.1271	0.1969	-0.974
Mof_H 	H 	0.9216	0.1383	0.1733	0.245
Mof_H 	H 	0.7977	0.135	0.1761	0.18
Mof_H 	H 	0.88	0.0761	0.2134	0.212
Mof_C 	C 	0.2722	0.3705	0.4518	0.731
Mof_O 	O 	0.3054	0.4008	0.48	-0.835
Mof_O 	O 	0.3121	0.3623	0.4027	-0.549
Mof_C 	C 	0.1761	0.3399	0.4734	-0.928
Mof_H 	H 	0.1452	0.3525	0.5095	0.267
Mof_H 	H 	0.202	0.2868	0.4747	0.256
Mof_H 	H 	0.1185	0.3606	0.45	0.254
Mof_C 	C 	0.4575	0.6908	0.3441	0.74
Mof_O 	O 	0.4896	0.7011	0.2958	-0.976
Mof_O 	O 	0.4637	0.6273	0.37045	-0.62
Mof_C 	C 	0.413	0.7536	0.3763	-0.963
Mof_H 	H 	0.4746	0.77	0.3813	0.199
Mof_H 	H 	0.3755	0.7379	0.4114	0.241
Mof_H 	H 	0.36	0.7938	0.3573	0.249
Mof_C 	C 	0.4143	0.564	0.1535	0.649
Mof_O 	O 	0.4604	0.6104	0.1566	-0.704
Mof_O 	O 	0.4233	0.5026	0.1837	-0.538
Mof_C 	C 	0.3435	0.5798	0.1087	-0.85
Mof_H 	H 	0.2647	0.5917	0.124	0.241
Mof_H 	H 	0.3636	0.5368	0.0904	0.249
Mof_H 	H 	0.3567	0.6211	0.0831	0.242
Mof_O 	O 	0.4157	0.5782	0.4768	-1.765
Mof_H 	H 	0.4315	0.5968	0.4453	0.561
Mof_H 	H 	0.3684	0.6118	0.492	0.51
Mof_Mn	Mn	0.23412	0.05706	0.15445	1.072
Mof_Mn	Mn	0.29866	0.96346	0.26136	1.115
Mof_Mn	Mn	0.31171	0.11885	0.24138	1.1
Mof_Mn	Mn	0.53172	0.98624	0.24411	1.123
Mof_Mn	Mn	0.457	0.92283	0.15663	1.06
Mof_Mn	Mn	0.4756	0.08855	0.13268	0.862
Mof_Na	Na	0.0588	0.10401	0.27771	2.88
Mof_Na	Na	0.3776	0.02656	0.03759	3.084
Mof_Na	Na	0.5528	0.79581	0.25453	2.273
Mof_Na	Na	0.5839	0.15558	0.21968	2.722
Mof_O 	O 	0.3754	0.0191	0.20465	-0.689
Mof_C 	C 	0.2088	0.8856	0.1748	-0.443
Mof_C 	C 	0.2594	0.9147	0.1203	0.444
Mof_H 	H 	0.31	0.8732	0.1023	-0.169
Mof_H 	H 	0.1993	0.9402	0.0982	-0.16
Mof_O 	O 	0.3206	0.9644	0.12262	-0.85
Mof_C 	C 	0.124	0.9481	0.2028	0.44
Mof_H 	H 	0.0648	0.973	0.1802	-0.139
Mof_H 	H 	0.089	0.927	0.2371	-0.149
Mof_O 	O 	0.1696	0.0013	0.2134	-0.738
Mof_C 	C 	0.2978	0.8413	0.2095	0.437
Mof_H 	H 	0.2609	0.8234	0.2445	-0.141
Mof_H 	H 	0.3443	0.7981	0.1922	-0.171
Mof_O 	O 	0.3693	0.88	0.21877	-0.715
Mof_C 	C 	0.1417	0.8357	0.1666	0.438
Mof_H 	H 	0.1035	0.8207	0.2022	-0.124
Mof_H 	H 	0.0832	0.866	0.1448	-0.116
Mof_C 	C 	0.1977	0.7725	0.1426	-0.775
Mof_H 	H 	0.2167	0.7859	0.104	0.216
Mof_H 	H 	0.1498	0.7408	0.1487	0.218
Mof_H 	H 	0.2659	0.7466	0.1583	0.227
Mof_C 	C 	0.3757	0.0233	0.3631	-0.35
Mof_C 	C 	0.4423	0.0744	0.3314	0.387
Mof_H 	H 	0.4061	0.1238	0.3416	-0.132
Mof_H 	H 	0.5178	0.0573	0.3418	-0.129
Mof_O 	O 	0.4518	0.0785	0.27518	-0.738
Mof_C 	C 	0.2575	0.0487	0.3511	0.413
Mof_H 	H 	0.2179	0.0144	0.3722	-0.15
Mof_H 	H 	0.2201	0.097	0.3633	-0.16
Mof_O 	O 	0.2473	0.0544	0.2954	-0.847
Mof_C 	C 	0.4316	0.9451	0.3518	0.358
Mof_H 	H 	0.5059	0.9281	0.3634	-0.123
Mof_H 	H 	0.3874	0.914	0.3736	-0.118
Mof_O 	O 	0.4442	0.9355	0.29649	-0.649
Mof_C 	C 	0.371	0.0226	0.4237	0.188
Mof_H 	H 	0.3309	0.9877	0.4431	-0.048
Mof_H 	H 	0.4481	0.0034	0.4321	-0.045
Mof_C 	C 	0.3166	0.095	0.4464	-0.477
Mof_H 	H 	0.3533	0.1311	0.427	0.149
Mof_H 	H 	0.3239	0.0878	0.4845	0.131
Mof_H 	H 	0.2377	0.1125	0.4422	0.123
Mof_C 	C 	0.2321	0.2334	0.1295	-0.398
Mof_C 	C 	0.2728	0.1843	0.0857	0.438
Mof_H 	H 	0.2091	0.1883	0.0677	-0.163
Mof_H 	H 	0.3276	0.2023	0.0587	-0.172
Mof_O 	O 	0.323	0.1089	0.10396	-0.839
Mof_C 	C 	0.3269	0.2351	0.1556	0.409
Mof_H 	H 	0.3802	0.2533	0.1277	-0.143
Mof_H 	H 	0.2971	0.2704	0.1817	-0.137
Mof_O 	O 	0.386	0.1664	0.18253	-0.705
Mof_C 	C 	0.1444	0.2095	0.1711	0.47
Mof_H 	H 	0.115	0.2448	0.1973	-0.197
Mof_H 	H 	0.082	0.211	0.1531	-0.173
Mof_O 	O 	0.1844	0.1381	0.19925	-0.828
Mof_C 	C 	0.1736	0.3113	0.1042	0.238
Mof_H 	H 	0.1147	0.3085	0.0856	-0.063
Mof_H 	H 	0.1365	0.3409	0.1336	-0.057
Mof_C 	C 	0.2456	0.3519	0.0647	-0.529
Mof_H 	H 	0.2728	0.38	0.0839	0.151
Mof_H 	H 	0.2015	0.3851	0.038	0.143
Mof_H 	H 	0.3089	0.3168	0.0467	0.153
Mof_C 	C 	0.7177	0.9421	0.132	-0.38
Mof_C 	C 	0.7051	0.0094	0.1574	0.376
Mof_H 	H 	0.7583	0.9959	0.1835	-0.134
Mof_H 	H 	0.7259	0.0466	0.1291	-0.146
Mof_O 	O 	0.5951	0.0416	0.18434	-0.77
Mof_C 	C 	0.689	0.8826	0.174	0.392
Mof_H 	H 	0.7018	0.8389	0.1566	-0.188
Mof_H 	H 	0.74	0.8692	0.2011	-0.173
Mof_O 	O 	0.576	0.9026	0.20082	-0.811
Mof_C 	C 	0.6433	0.9615	0.0873	0.485
Mof_H 	H 	0.6656	0.9989	0.0598	-0.261
Mof_H 	H 	0.6584	0.9175	0.0699	-0.256
Mof_O 	O 	0.527	0.9876	0.10394	-0.77
Mof_C 	C 	0.84	0.9154	0.108	0.28
Mof_H 	H 	0.8548	0.9516	0.0772	-0.076
Mof_H 	H 	0.8859	0.9143	0.1352	-0.071
Mof_C 	C 	0.8774	0.8438	0.0898	-0.537
Mof_H 	H 	0.8633	0.8072	0.1197	0.136
Mof_H 	H 	0.9571	0.8315	0.0765	0.149
Mof_H 	H 	0.8367	0.8449	0.0609	0.152
Mof_C 	C 	0.1171	0.9315	0.3383	0.785
Mof_O 	O 	0.0562	0.9937	0.3313	-0.856
Mof_O 	O 	0.2212	0.9096	0.3156	-0.594
Mof_C 	C 	0.0804	0.8725	0.3742	-1.02
Mof_H 	H 	0.1267	0.8532	0.4029	0.28
Mof_H 	H 	0.0876	0.8333	0.3536	0.29
Mof_H 	H 	0.0026	0.8917	0.3898	0.283
Mof_C 	C 	0.1069	0.0868	0.063	0.723
Mof_O 	O 	0.1901	0.0659	0.0304	-0.839
Mof_O 	O 	0.1049	0.0862	0.11271	-0.581
Mof_C 	C 	0.9917	0.1122	0.045	-0.898
Mof_H 	H 	0.9665	0.1656	0.0382	0.253
Mof_H 	H 	0.939	0.095	0.0732	0.265
Mof_H 	H 	0.9959	0.0923	0.0121	0.268
Mof_C 	C 	0.1623	0.2314	0.3082	0.801
Mof_O 	O 	0.2595	0.2064	0.2821	-0.589
Mof_O 	O 	0.0848	0.2064	0.30955	-1.156
Mof_C 	C 	0.1505	0.2926	0.3386	-1.042
Mof_H 	H 	0.1436	0.3379	0.3138	0.289
Mof_H 	H 	0.2162	0.2816	0.3564	0.314
Mof_H 	H 	0.084	0.2982	0.3656	0.202
Mof_C 	C 	0.6101	0.1838	0.0779	0.733
Mof_O 	O 	0.5532	0.1449	0.06886	-0.607
Mof_O 	O 	0.6233	0.19	0.1225	-0.756
Mof_C 	C 	0.6628	0.2225	0.0291	-0.954
Mof_H 	H 	0.6073	0.2669	0.016	0.262
Mof_H 	H 	0.6914	0.1905	0.0011	0.252
Mof_H 	H 	0.7241	0.2354	0.0382	0.278
Mof_C 	C 	0.5591	0.7704	0.127	0.743
Mof_O 	O 	0.5615	0.7466	0.17493	-1.045
Mof_O 	O 	0.5216	0.8385	0.10912	-0.615
Mof_C 	C 	0.6014	0.7196	0.0846	-0.941
Mof_H 	H 	0.6065	0.7482	0.0491	0.24
Mof_H 	H 	0.55	0.691	0.0869	0.235
Mof_H 	H 	0.675	0.6866	0.0906	0.196
Mof_C 	C 	0.7242	0.9863	0.2923	0.715
Mof_O 	O 	0.6645	0.9478	0.28416	-0.57
Mof_O 	O 	0.6991	0.0533	0.2791	-0.714
Mof_C 	C 	0.8237	0.9455	0.3171	-0.96
Mof_H 	H 	0.8661	0.904	0.2979	0.267
Mof_H 	H 	0.8018	0.9278	0.3546	0.262
Mof_H 	H 	0.8698	0.9775	0.3154	0.257
Mof_O 	O 	0.5083	0.0863	0.98953	-1.867
Mof_H 	H 	0.5347	0.1009	0.0111	0.607
Mof_H 	H 	0.4922	0.121	0.965	0.646
Mof_Mn	Mn	0.31036	0.6251	0.61712	0.686
Mof_Mn	Mn	0.2579	0.54885	0.73724	1.072
Mof_Mn	Mn	0.34124	0.68968	0.72015	1.093
Mof_Mn	Mn	0.49453	0.53505	0.75679	1.129
Mof_Mn	Mn	0.46994	0.47024	0.66175	1.13
Mof_Mn	Mn	0.55611	0.60975	0.64207	1.064
Mof_Na	Na	0.086	0.71197	0.6963	2.678
Mof_Na	Na	0.5522	0.54616	0.53301	3.007
Mof_Na	Na	0.4216	0.3751	0.78685	2.447
Mof_O 	O 	0.411	0.5738	0.69353	-0.663
Mof_C 	C 	0.2189	0.4733	0.6354	-0.406
Mof_C 	C 	0.3129	0.4821	0.5898	0.475
Mof_H 	H 	0.2796	0.5113	0.558	-0.257
Mof_H 	H 	0.3571	0.4333	0.58	-0.253
Mof_O 	O 	0.3865	0.5165	0.60309	-0.773
Mof_C 	C 	0.2652	0.4255	0.6842	0.456
Mof_H 	H 	0.3089	0.3768	0.6742	-0.221
Mof_H 	H 	0.2026	0.4192	0.7119	-0.197
Mof_O 	O 	0.3357	0.454	0.70703	-0.783
Mof_C 	C 	0.141	0.5477	0.6501	0.414
Mof_H 	H 	0.0778	0.5394	0.6767	-0.142
Mof_H 	H 	0.1106	0.5771	0.6177	-0.188
Mof_O 	O 	0.194	0.5886	0.67172	-0.777
Mof_C 	C 	0.1483	0.433	0.6169	0.247
Mof_H 	H 	0.0995	0.4177	0.6486	-0.075
Mof_H 	H 	0.1994	0.3883	0.6031	-0.087
Mof_C 	C 	0.0763	0.476	0.5743	-0.501
Mof_H 	H 	0.123	0.4922	0.5426	0.135
Mof_H 	H 	0.0385	0.445	0.5645	0.137
Mof_H 	H 	0.0208	0.5185	0.5883	0.143
Mof_C 	C 	0.2756	0.6131	0.8488	-0.329
Mof_C 	C 	0.3787	0.6398	0.8328	0.317
Mof_H 	H 	0.4344	0.6114	0.8565	-0.088
Mof_H 	H 	0.3577	0.6915	0.8383	-0.13
Mof_O 	O 	0.429	0.6331	0.77749	-0.557
Mof_C 	C 	0.1856	0.6561	0.8137	0.388
Mof_H 	H 	0.1635	0.7082	0.8183	-0.144
Mof_H 	H 	0.1194	0.6387	0.8262	-0.125
Mof_O 	O 	0.2197	0.6496	0.75754	-0.794
Mof_C 	C 	0.3043	0.5309	0.8461	0.383
Mof_H 	H 	0.2362	0.5157	0.8588	-0.142
Mof_H 	H 	0.3588	0.5039	0.8708	-0.136
Mof_O 	O 	0.3487	0.5111	0.79419	-0.748
Mof_C 	C 	0.2238	0.6292	0.9071	0.197
Mof_H 	H 	0.153	0.6168	0.9162	-0.052
Mof_H 	H 	0.2061	0.6821	0.908	-0.058
Mof_C 	C 	0.2964	0.5886	0.9501	-0.498
Mof_H 	H 	0.3004	0.5369	0.9556	0.142
Mof_H 	H 	0.3713	0.5935	0.9388	0.148
Mof_H 	H 	0.2643	0.6091	0.9837	0.133
Mof_C 	C 	0.3954	0.7795	0.5962	-0.376
Mof_C 	C 	0.2775	0.7811	0.6213	0.452
Mof_H 	H 	0.2318	0.79	0.5924	-0.22
Mof_H 	H 	0.2459	0.8223	0.6425	-0.188
Mof_O 	O 	0.2698	0.7156	0.65525	-0.82
Mof_C 	C 	0.4457	0.7192	0.5595	0.41
Mof_H 	H 	0.5194	0.7228	0.5412	-0.151
Mof_H 	H 	0.3976	0.7285	0.5315	-0.189
Mof_O 	O 	0.4586	0.6463	0.58626	-0.812
Mof_C 	C 	0.4675	0.7693	0.6384	0.38
Mof_H 	H 	0.4366	0.8107	0.6594	-0.169
Mof_H 	H 	0.5427	0.7703	0.6205	-0.109
Mof_O 	O 	0.4771	0.703	0.674	-0.557
Mof_C 	C 	0.3925	0.8524	0.5588	0.195
Mof_H 	H 	0.3643	0.8513	0.5259	-0.057
Mof_H 	H 	0.4697	0.8548	0.5483	-0.048
Mof_C 	C 	0.3217	0.9228	0.5823	-0.466
Mof_H 	H 	0.338	0.9203	0.6184	0.145
Mof_H 	H 	0.3393	0.9648	0.5594	0.136
Mof_H 	H 	0.2427	0.9279	0.5839	0.115
Mof_C 	C 	0.7366	0.4451	0.6802	-0.322
Mof_C 	C 	0.664	0.4034	0.7191	0.361
Mof_H 	H 	0.6884	0.3927	0.7548	-0.118
Mof_H 	H 	0.6755	0.3564	0.7065	-0.124
Mof_O 	O 	0.5465	0.4427	0.72443	-0.746
Mof_C 	C 	0.7052	0.4612	0.6256	0.411
Mof_H 	H 	0.7146	0.4145	0.6128	-0.154
Mof_H 	H 	0.757	0.485	0.6013	-0.158
Mof_O 	O 	0.5936	0.5069	0.62205	-0.851
Mof_C 	C 	0.7294	0.5152	0.7019	0.282
Mof_H 	H 	0.7826	0.5384	0.6782	-0.07
Mof_H 	H 	0.753	0.5015	0.7378	-0.068
Mof_O 	O 	0.6229	0.567	0.7058	-0.504
Mof_C 	C 	0.8595	0.3971	0.6802	0.177
Mof_H 	H 	0.8759	0.3867	0.7174	-0.05
Mof_H 	H 	0.9079	0.4259	0.659	-0.042
Mof_C 	C 	0.8911	0.3251	0.6582	-0.464
Mof_H 	H 	0.876	0.3343	0.6211	0.123
Mof_H 	H 	0.9704	0.3003	0.6591	0.118
Mof_H 	H 	0.8474	0.2944	0.68	0.134
Mof_C 	C 	0.018	0.5666	0.7782	0.742
Mof_O 	O 	0.9922	0.6299	0.7586	-0.729
Mof_O 	O 	0.1198	0.5251	0.7794	-0.568
Mof_C 	C 	0.9337	0.5286	0.8048	-0.99
Mof_H 	H 	0.8597	0.5593	0.7973	0.301
Mof_H 	H 	0.9512	0.4822	0.7909	0.283
Mof_H 	H 	0.9348	0.5194	0.8435	0.286
Mof_C 	C 	0.1818	0.824	0.76	0.79
Mof_O 	O 	0.1124	0.8184	0.7338	-1.09
Mof_O 	O 	0.2846	0.7876	0.75366	-0.803
Mof_C 	C 	0.1422	0.8729	0.8031	-0.974
Mof_H 	H 	0.0784	0.8617	0.8267	0.245
Mof_H 	H 	0.2023	0.865	0.8239	0.18
Mof_H 	H 	0.12	0.9239	0.7866	0.212
Mof_C 	C 	0.7278	0.6295	0.5482	0.731
Mof_O 	O 	0.6946	0.5992	0.52	-0.835
Mof_O 	O 	0.6879	0.6377	0.5973	-0.549
Mof_C 	C 	0.8239	0.6601	0.5266	-0.928
Mof_H 	H 	0.8548	0.6475	0.4905	0.267
Mof_H 	H 	0.798	0.7132	0.5253	0.256
Mof_H 	H 	0.8815	0.6394	0.55	0.254
Mof_C 	C 	0.5425	0.3092	0.6559	0.74
Mof_O 	O 	0.5104	0.2989	0.7042	-0.976
Mof_O 	O 	0.5363	0.3727	0.62955	-0.62
Mof_C 	C 	0.587	0.2464	0.6237	-0.963
Mof_H 	H 	0.5254	0.23	0.6187	0.199
Mof_H 	H 	0.6245	0.2621	0.5886	0.241
Mof_H 	H 	0.64	0.2062	0.6427	0.249
Mof_C 	C 	0.5857	0.436	0.8465	0.649
Mof_O 	O 	0.5396	0.3896	0.8434	-0.704
Mof_O 	O 	0.5767	0.4974	0.8163	-0.538
Mof_C 	C 	0.6565	0.4202	0.8913	-0.85
Mof_H 	H 	0.7353	0.4083	0.876	0.241
Mof_H 	H 	0.6364	0.4632	0.9096	0.249
Mof_H 	H 	0.6433	0.3789	0.9169	0.242
Mof_O 	O 	0.5843	0.4218	0.5232	-1.765
Mof_H 	H 	0.5685	0.4032	0.5547	0.561
Mof_H 	H 	0.6316	0.3882	0.508	0.51
Mof_Mn	Mn	0.76588	0.94294	0.84555	1.072
Mof_Mn	Mn	0.70134	0.03654	0.73864	1.115
Mof_Mn	Mn	0.68829	0.88115	0.75862	1.1
Mof_Mn	Mn	0.46828	0.01376	0.75589	1.123
Mof_Mn	Mn	0.543	0.07717	0.84337	1.06
Mof_Mn	Mn	0.5244	0.91145	0.86732	0.862
Mof_Na	Na	0.9412	0.89599	0.72229	2.88
Mof_Na	Na	0.6224	0.97344	0.96241	3.084
Mof_Na	Na	0.4472	0.20419	0.74547	2.273
Mof_Na	Na	0.4161	0.84442	0.78032	2.722
Mof_O 	O 	0.6246	0.9809	0.79535	-0.689
Mof_C 	C 	0.7912	0.1144	0.8252	-0.443
Mof_C 	C 	0.7406	0.0853	0.8797	0.444
Mof_H 	H 	0.69	0.1268	0.8977	-0.169
Mof_H 	H 	0.8007	0.0598	0.9018	-0.16
Mof_O 	O 	0.6794	0.0356	0.87738	-0.85
Mof_C 	C 	0.876	0.0519	0.7972	0.44
Mof_H 	H 	0.9352	0.027	0.8198	-0.139
Mof_H 	H 	0.911	0.073	0.7629	-0.149
Mof_O 	O 	0.8304	0.9987	0.7866	-0.738
Mof_C 	C 	0.7022	0.1587	0.7905	0.437
Mof_H 	H 	0.7391	0.1766	0.7555	-0.141
Mof_H 	H 	0.6557	0.2019	0.8078	-0.171
Mof_O 	O 	0.6307	0.12	0.78123	-0.715
Mof_C 	C 	0.8583	0.1643	0.8334	0.438
Mof_H 	H 	0.8965	0.1793	0.7978	-0.124
Mof_H 	H 	0.9168	0.134	0.8552	-0.116
Mof_C 	C 	0.8023	0.2275	0.8574	-0.775
Mof_H 	H 	0.7833	0.2141	0.896	0.216
Mof_H 	H 	0.8502	0.2592	0.8513	0.218
Mof_H 	H 	0.7341	0.2534	0.8417	0.227
Mof_C 	C 	0.6243	0.9767	0.6369	-0.35
Mof_C 	C 	0.5577	0.9256	0.6686	0.387
Mof_H 	H 	0.5939	0.8762	0.6584	-0.132
Mof_H 	H 	0.4822	0.9427	0.6582	-0.129
Mof_O 	O 	0.5482	0.9215	0.72482	-0.738
Mof_C 	C 	0.7425	0.9513	0.6489	0.413
Mof_H 	H 	0.7821	0.9856	0.6278	-0.15
Mof_H 	H 	0.7799	0.903	0.6367	-0.16
Mof_O 	O 	0.7527	0.9456	0.7046	-0.847
Mof_C 	C 	0.5684	0.0549	0.6482	0.358
Mof_H 	H 	0.4941	0.0719	0.6366	-0.123
Mof_H 	H 	0.6126	0.086	0.6264	-0.118
Mof_O 	O 	0.5558	0.0645	0.70351	-0.649
Mof_C 	C 	0.629	0.9774	0.5763	0.188
Mof_H 	H 	0.6691	0.0123	0.5569	-0.048
Mof_H 	H 	0.5519	0.9966	0.5679	-0.045
Mof_C 	C 	0.6834	0.905	0.5536	-0.477
Mof_H 	H 	0.6467	0.8689	0.573	0.149
Mof_H 	H 	0.6761	0.9122	0.5155	0.131
Mof_H 	H 	0.7623	0.8875	0.5578	0.123
Mof_C 	C 	0.7679	0.7666	0.8705	-0.398
Mof_C 	C 	0.7272	0.8157	0.9143	0.438
Mof_H 	H 	0.7909	0.8117	0.9323	-0.163
Mof_H 	H 	0.6724	0.7977	0.9413	-0.172
Mof_O 	O 	0.677	0.8911	0.89604	-0.839
Mof_C 	C 	0.6731	0.7649	0.8444	0.409
Mof_H 	H 	0.6198	0.7467	0.8723	-0.143
Mof_H 	H 	0.7029	0.7296	0.8183	-0.137
Mof_O 	O 	0.614	0.8336	0.81747	-0.705
Mof_C 	C 	0.8556	0.7905	0.8289	0.47
Mof_H 	H 	0.885	0.7552	0.8027	-0.197
Mof_H 	H 	0.918	0.789	0.8469	-0.173
Mof_O 	O 	0.8156	0.8619	0.80075	-0.828
Mof_C 	C 	0.8264	0.6887	0.8958	0.238
Mof_H 	H 	0.8853	0.6915	0.9144	-0.063
Mof_H 	H 	0.8635	0.6591	0.8664	-0.057
Mof_C 	C 	0.7544	0.6481	0.9353	-0.529
Mof_H 	H 	0.7272	0.62	0.9161	0.151
Mof_H 	H 	0.7985	0.6149	0.962	0.143
Mof_H 	H 	0.6911	0.6832	0.9533	0.153
Mof_C 	C 	0.2823	0.0579	0.868	-0.38
Mof_C 	C 	0.2949	0.9906	0.8426	0.376
Mof_H 	H 	0.2417	0.0041	0.8165	-0.134
Mof_H 	H 	0.2741	0.9534	0.8709	-0.146
Mof_O 	O 	0.4049	0.9584	0.81566	-0.77
Mof_C 	C 	0.311	0.1174	0.826	0.392
Mof_H 	H 	0.2982	0.1611	0.8434	-0.188
Mof_H 	H 	0.26	0.1308	0.7989	-0.173
Mof_O 	O 	0.424	0.0974	0.79918	-0.811
Mof_C 	C 	0.3567	0.0385	0.9127	0.485
Mof_H 	H 	0.3344	0.0011	0.9402	-0.261
Mof_H 	H 	0.3416	0.0825	0.9301	-0.256
Mof_O 	O 	0.473	0.0124	0.89606	-0.77
Mof_C 	C 	0.16	0.0846	0.892	0.28
Mof_H 	H 	0.1452	0.0484	0.9228	-0.076
Mof_H 	H 	0.1141	0.0857	0.8648	-0.071
Mof_C 	C 	0.1226	0.1562	0.9102	-0.537
Mof_H 	H 	0.1367	0.1928	0.8803	0.136
Mof_H 	H 	0.0429	0.1685	0.9235	0.149
Mof_H 	H 	0.1633	0.1551	0.9391	0.152
Mof_C 	C 	0.8829	0.0685	0.6617	0.785
Mof_O 	O 	0.9438	0.0063	0.6687	-0.856
Mof_O 	O 	0.7788	0.0904	0.6844	-0.594
Mof_C 	C 	0.9196	0.1275	0.6258	-1.02
Mof_H 	H 	0.8733	0.1468	0.5971	0.28
Mof_H 	H 	0.9124	0.1667	0.6464	0.29
Mof_H 	H 	0.9974	0.1083	0.6102	0.283
Mof_C 	C 	0.8931	0.9132	0.937	0.723
Mof_O 	O 	0.8099	0.9341	0.9696	-0.839
Mof_O 	O 	0.8951	0.9138	0.88729	-0.581
Mof_C 	C 	0.0083	0.8878	0.955	-0.898
Mof_H 	H 	0.0335	0.8344	0.9618	0.253
Mof_H 	H 	0.061	0.905	0.9268	0.265
Mof_H 	H 	0.0041	0.9077	0.9879	0.268
Mof_C 	C 	0.8377	0.7686	0.6918	0.801
Mof_O 	O 	0.7405	0.7936	0.7179	-0.589
Mof_O 	O 	0.9152	0.7936	0.69045	-1.156
Mof_C 	C 	0.8495	0.7074	0.6614	-1.042
Mof_H 	H 	0.8564	0.6621	0.6862	0.289
Mof_H 	H 	0.7838	0.7184	0.6436	0.314
Mof_H 	H 	0.916	0.7018	0.6344	0.202
Mof_C 	C 	0.3899	0.8162	0.9221	0.733
Mof_O 	O 	0.4468	0.8551	0.93114	-0.607
Mof_O 	O 	0.3767	0.81	0.8775	-0.756
Mof_C 	C 	0.3372	0.7775	0.9709	-0.954
Mof_H 	H 	0.3927	0.7331	0.984	0.262
Mof_H 	H 	0.3086	0.8095	0.9989	0.252
Mof_H 	H 	0.2759	0.7646	0.9618	0.278
Mof_C 	C 	0.4409	0.2296	0.873	0.743
Mof_O 	O 	0.4385	0.2534	0.82507	-1.045
Mof_O 	O 	0.4784	0.1615	0.89088	-0.615
Mof_C 	C 	0.3986	0.2804	0.9154	-0.941
Mof_H 	H 	0.3935	0.2518	0.9509	0.24
Mof_H 	H 	0.45	0.309	0.9131	0.235
Mof_H 	H 	0.325	0.3134	0.9094	0.196
Mof_C 	C 	0.2758	0.0137	0.7077	0.715
Mof_O 	O 	0.3355	0.0522	0.71584	-0.57
Mof_O 	O 	0.3009	0.9467	0.7209	-0.714
Mof_C 	C 	0.1763	0.0545	0.6829	-0.96
Mof_H 	H 	0.1339	0.096	0.7021	0.267
Mof_H 	H 	0.1982	0.0722	0.6454	0.262
Mof_H 	H 	0.1302	0.0225	0.6846	0.257
Mof_O 	O 	0.4917	0.9137	0.01047	-1.867
Mof_H 	H 	0.4653	0.8991	0.9889	0.607
Mof_H 	H 	0.5078	0.879	0.035	0.646
_end
