data_functionalizedCrystal
_audit_creation_method	'EQeq! by Chris Wilmer'
_symmetry_space_group_name_H-M	'P1'
_symmetry_Int_Tables_number	1
_symmetry_cell_setting	triclinic
loop_
_symmetry_equiv_pos_as_xyz
  x,y,z
_cell_length_a	16.0857
_cell_length_b	9.1973
_cell_length_c	15.4216
_cell_angle_alpha	90
_cell_angle_beta	112.033
_cell_angle_gamma	90
loop_
_atom_site_label
_atom_site_type_symbol
_atom_site_fract_x
_atom_site_fract_y
_atom_site_fract_z
_atom_site_charge
Mof_As	As	0.71917	0.44957	0.84055	0.533
Mof_As	As	0.7773	0.20336	0.11857	0.554
Mof_As	As	0.52912	0.72967	0.04077	0.511
Mof_Zn	Zn	0.89358	0.25085	0.97465	1.239
Mof_Zn	Zn	0.64665	0.46904	0.01269	1.23
Mof_Zn	Zn	0.59249	0.43346	0.62934	1.225
Mof_O 	O 	0.7155	0.5239	0.9372	-0.406
Mof_O 	O 	0.7921	0.3147	0.8547	-0.407
Mof_O 	O 	0.617	0.4043	0.7639	-0.408
Mof_O 	O 	0.7561	0.594	0.7914	-0.405
Mof_H 	H 	0.7602	0.5676	0.7424	0.263
Mof_O 	O 	0.7279	0.362	0.1195	-0.443
Mof_O 	O 	0.8093	0.1689	0.0308	-0.396
Mof_O 	O 	0.7121	0.0596	0.1224	-0.433
Mof_O 	O 	0.8717	0.1963	0.22	-0.387
Mof_H 	H 	0.8579	0.2131	0.265	0.277
Mof_O 	O 	0.5348	0.8782	0.1052	-0.443
Mof_O 	O 	0.6326	0.6627	0.0616	-0.389
Mof_O 	O 	0.4819	0.7677	0.9257	-0.47
Mof_O 	O 	0.4667	0.6078	0.0703	-0.44
Mof_O 	O 	0.9313	0.4403	0.0582	-0.325
Mof_O 	O 	0.0022	0.1365	0.0797	-0.307
Mof_O 	O 	0.0868	0.9347	0.1006	-0.314
Mof_O 	O 	0.0153	0.64	0.0806	-0.31
Mof_C 	C 	0.9853	0.5234	0.0398	0.228
Mof_C 	C 	0.0255	0.0212	0.0522	0.23
Mof_As	As	0.28083	0.94957	0.65945	0.53
Mof_As	As	0.2227	0.70336	0.38143	0.553
Mof_As	As	0.47088	0.22967	0.45923	0.509
Mof_Zn	Zn	0.10642	0.75085	0.52535	1.238
Mof_Zn	Zn	0.35335	0.96904	0.48731	1.23
Mof_Zn	Zn	0.40751	0.93346	0.87066	1.225
Mof_O 	O 	0.2845	0.0239	0.5628	-0.405
Mof_O 	O 	0.2079	0.8147	0.6453	-0.407
Mof_O 	O 	0.383	0.9043	0.7361	-0.408
Mof_O 	O 	0.2439	0.094	0.7086	-0.405
Mof_H 	H 	0.2398	0.0676	0.7576	0.263
Mof_O 	O 	0.2721	0.862	0.3805	-0.444
Mof_O 	O 	0.1907	0.6689	0.4692	-0.397
Mof_O 	O 	0.2879	0.5596	0.3776	-0.433
Mof_O 	O 	0.1283	0.6963	0.28	-0.387
Mof_H 	H 	0.1421	0.7131	0.235	0.277
Mof_O 	O 	0.4652	0.3782	0.3948	-0.444
Mof_O 	O 	0.3674	0.1627	0.4384	-0.39
Mof_O 	O 	0.5181	0.2677	0.5743	-0.47
Mof_O 	O 	0.5333	0.1078	0.4297	-0.44
Mof_O 	O 	0.0687	0.9403	0.4418	-0.328
Mof_O 	O 	0.9978	0.6365	0.4203	-0.306
Mof_O 	O 	0.9132	0.4347	0.3994	-0.313
Mof_O 	O 	0.9847	0.14	0.4194	-0.31
Mof_C 	C 	0.0147	0.0234	0.4602	0.228
Mof_C 	C 	0.9745	0.5212	0.4478	0.228
Mof_As	As	0.28083	0.55043	0.15945	0.532
Mof_As	As	0.2227	0.79664	0.88143	0.553
Mof_As	As	0.47088	0.27033	0.95923	0.511
Mof_Zn	Zn	0.10642	0.74915	0.02535	1.239
Mof_Zn	Zn	0.35335	0.53096	0.98731	1.23
Mof_Zn	Zn	0.40751	0.56654	0.37066	1.225
Mof_O 	O 	0.2845	0.4761	0.0628	-0.406
Mof_O 	O 	0.2079	0.6853	0.1453	-0.407
Mof_O 	O 	0.383	0.5957	0.2361	-0.408
Mof_O 	O 	0.2439	0.406	0.2086	-0.405
Mof_H 	H 	0.2398	0.4324	0.2576	0.263
Mof_O 	O 	0.2721	0.638	0.8805	-0.443
Mof_O 	O 	0.1907	0.8311	0.9692	-0.396
Mof_O 	O 	0.2879	0.9404	0.8776	-0.433
Mof_O 	O 	0.1283	0.8037	0.78	-0.387
Mof_H 	H 	0.1421	0.7869	0.735	0.277
Mof_O 	O 	0.4652	0.1218	0.8948	-0.443
Mof_O 	O 	0.3674	0.3373	0.9384	-0.389
Mof_O 	O 	0.5181	0.2323	0.0743	-0.47
Mof_O 	O 	0.5333	0.3922	0.9297	-0.44
Mof_O 	O 	0.0687	0.5597	0.9418	-0.325
Mof_O 	O 	0.9978	0.8635	0.9203	-0.307
Mof_O 	O 	0.9132	0.0653	0.8994	-0.314
Mof_O 	O 	0.9847	0.36	0.9194	-0.31
Mof_C 	C 	0.0147	0.4766	0.9602	0.228
Mof_C 	C 	0.9745	0.9788	0.9478	0.23
Mof_As	As	0.71917	0.05043	0.34055	0.53
Mof_As	As	0.7773	0.29664	0.61857	0.553
Mof_As	As	0.52912	0.77033	0.54077	0.509
Mof_Zn	Zn	0.89358	0.24915	0.47465	1.238
Mof_Zn	Zn	0.64665	0.03096	0.51269	1.23
Mof_Zn	Zn	0.59249	0.06654	0.12934	1.225
Mof_O 	O 	0.7155	0.9761	0.4372	-0.405
Mof_O 	O 	0.7921	0.1853	0.3547	-0.407
Mof_O 	O 	0.617	0.0957	0.2639	-0.408
Mof_O 	O 	0.7561	0.906	0.2914	-0.405
Mof_H 	H 	0.7602	0.9324	0.2424	0.263
Mof_O 	O 	0.7279	0.138	0.6195	-0.444
Mof_O 	O 	0.8093	0.3311	0.5308	-0.397
Mof_O 	O 	0.7121	0.4404	0.6224	-0.433
Mof_O 	O 	0.8717	0.3037	0.72	-0.387
Mof_H 	H 	0.8579	0.2869	0.765	0.277
Mof_O 	O 	0.5348	0.6218	0.6052	-0.444
Mof_O 	O 	0.6326	0.8373	0.5616	-0.39
Mof_O 	O 	0.4819	0.7323	0.4257	-0.47
Mof_O 	O 	0.4667	0.8922	0.5703	-0.44
Mof_O 	O 	0.9313	0.0597	0.5582	-0.328
Mof_O 	O 	0.0022	0.3635	0.5797	-0.306
Mof_O 	O 	0.0868	0.5653	0.6006	-0.313
Mof_O 	O 	0.0153	0.86	0.5806	-0.31
Mof_C 	C 	0.9853	0.9766	0.5398	0.228
Mof_C 	C 	0.0255	0.4788	0.5522	0.228
_end
