data_functionalizedCrystal
_audit_creation_method	'EQeq! by Chris Wilmer'
_symmetry_space_group_name_H-M	'P1'
_symmetry_Int_Tables_number	1
_symmetry_cell_setting	triclinic
loop_
_symmetry_equiv_pos_as_xyz
  x,y,z
_cell_length_a	15.261
_cell_length_b	15.261
_cell_length_c	28.898
_cell_angle_alpha	90
_cell_angle_beta	90
_cell_angle_gamma	90
loop_
_atom_site_label
_atom_site_type_symbol
_atom_site_fract_x
_atom_site_fract_y
_atom_site_fract_z
_atom_site_charge
Mof_Ga	Ga	0.19942	0.25867	0.29642	3.596
Mof_Ga	Ga	0.06992	0.1552	0.1993	4.292
Mof_P 	P 	0.22778	0.07486	0.25108	0.772
Mof_P 	P 	0.20545	0.17983	0.11171	0.922
Mof_O 	O 	0.2126	0.1327	0.29438	-0.865
Mof_O 	O 	0.1283	0.1432	0.13902	-0.991
Mof_O 	O 	0.2945	0.1195	0.21846	-0.899
Mof_O 	O 	0.1785	0.228	0.06803	-0.91
Mof_O 	O 	0.2359	0.2623	0.35885	-0.922
Mof_O 	O 	0.2359	0.4001	0.40368	-0.212
Mof_O 	O 	0.4929	0.3323	0.24256	-1.018
Mof_O 	O 	0.1658	0.2432	0.22517	-1.501
Mof_O 	O 	0.5807	0.2594	0.18149	-0.835
Mof_O 	O 	0.2334	0.5119	0.23328	-0.17
Mof_O 	O 	0.3592	0.4396	0.27491	-0.919
Mof_Ga	Ga	0.69942	0.75867	0.79642	3.588
Mof_Ga	Ga	0.56992	0.6552	0.6993	4.253
Mof_P 	P 	0.72778	0.57486	0.75108	0.775
Mof_P 	P 	0.70545	0.67983	0.61171	0.921
Mof_O 	O 	0.7126	0.6327	0.79438	-0.865
Mof_O 	O 	0.6283	0.6432	0.63902	-0.992
Mof_O 	O 	0.7945	0.6195	0.71846	-0.903
Mof_O 	O 	0.6785	0.728	0.56803	-0.912
Mof_O 	O 	0.7359	0.7623	0.85885	-0.921
Mof_O 	O 	0.7359	0.9001	0.90368	-0.218
Mof_O 	O 	0.9929	0.8323	0.74256	-1.042
Mof_O 	O 	0.6658	0.7432	0.72517	-1.496
Mof_O 	O 	0.0807	0.7594	0.68149	-0.834
Mof_O 	O 	0.7334	0.0119	0.73328	-0.175
Mof_O 	O 	0.8592	0.9396	0.77491	-0.912
Mof_Ga	Ga	0.30058	0.74133	0.79642	3.591
Mof_Ga	Ga	0.43008	0.8448	0.6993	4.253
Mof_P 	P 	0.27222	0.92514	0.75108	0.778
Mof_P 	P 	0.29455	0.82017	0.61171	0.921
Mof_O 	O 	0.2874	0.8673	0.79438	-0.865
Mof_O 	O 	0.3717	0.8568	0.63902	-0.991
Mof_O 	O 	0.2055	0.8805	0.71846	-0.895
Mof_O 	O 	0.3215	0.772	0.56803	-0.909
Mof_O 	O 	0.2641	0.7377	0.85885	-0.924
Mof_O 	O 	0.2641	0.5999	0.90368	-0.215
Mof_O 	O 	0.0071	0.6677	0.74256	-1.015
Mof_O 	O 	0.3342	0.7568	0.72517	-1.498
Mof_O 	O 	0.9193	0.7406	0.68149	-0.865
Mof_O 	O 	0.2666	0.4881	0.73328	-0.171
Mof_O 	O 	0.1408	0.5604	0.77491	-0.919
Mof_Ga	Ga	0.80058	0.24133	0.29642	3.591
Mof_Ga	Ga	0.93008	0.3448	0.1993	4.163
Mof_P 	P 	0.77222	0.42514	0.25108	0.773
Mof_P 	P 	0.79455	0.32017	0.11171	0.916
Mof_O 	O 	0.7874	0.3673	0.29438	-0.867
Mof_O 	O 	0.8717	0.3568	0.13902	-0.989
Mof_O 	O 	0.7055	0.3805	0.21846	-0.897
Mof_O 	O 	0.8215	0.272	0.06803	-0.907
Mof_O 	O 	0.7641	0.2377	0.35885	-0.925
Mof_O 	O 	0.7641	0.0999	0.40368	-0.221
Mof_O 	O 	0.5071	0.1677	0.24256	-1.018
Mof_O 	O 	0.8342	0.2568	0.22517	-1.49
Mof_O 	O 	0.4193	0.2406	0.18149	-0.836
Mof_O 	O 	0.7666	0.9881	0.23328	-0.18
Mof_O 	O 	0.6408	0.0604	0.27491	-0.92
Mof_Ga	Ga	0.49133	0.44942	0.54642	3.591
Mof_Ga	Ga	0.5948	0.31992	0.4493	4.252
Mof_P 	P 	0.67514	0.47778	0.50108	0.775
Mof_P 	P 	0.57017	0.45545	0.36171	0.921
Mof_O 	O 	0.6173	0.4626	0.54438	-0.866
Mof_O 	O 	0.6068	0.3783	0.38902	-0.992
Mof_O 	O 	0.6305	0.5445	0.46846	-0.9
Mof_O 	O 	0.522	0.4285	0.31803	-0.91
Mof_O 	O 	0.4877	0.4859	0.60885	-0.923
Mof_O 	O 	0.3499	0.4859	0.65368	-0.215
Mof_O 	O 	0.4177	0.7429	0.49256	-1.017
Mof_O 	O 	0.5068	0.4158	0.47517	-1.497
Mof_O 	O 	0.4906	0.8307	0.43149	-0.836
Mof_O 	O 	0.2381	0.4834	0.48328	-0.168
Mof_O 	O 	0.3104	0.6092	0.52491	-0.917
Mof_Ga	Ga	0.99133	0.94942	0.04642	3.471
Mof_Ga	Ga	0.0948	0.81992	0.9493	4.26
Mof_P 	P 	0.17514	0.97778	0.00108	0.78
Mof_P 	P 	0.07017	0.95545	0.86171	0.928
Mof_O 	O 	0.1173	0.9626	0.04438	-0.83
Mof_O 	O 	0.1068	0.8783	0.88902	-0.991
Mof_O 	O 	0.1305	0.0445	0.96846	-0.912
Mof_O 	O 	0.022	0.9285	0.81803	-0.874
Mof_O 	O 	0.9877	0.9859	0.10885	-0.918
Mof_O 	O 	0.8499	0.9859	0.15368	-0.222
Mof_O 	O 	0.9177	0.2429	0.99256	-1.034
Mof_O 	O 	0.0068	0.9158	0.97517	-1.471
Mof_O 	O 	0.9906	0.3307	0.93149	-0.848
Mof_O 	O 	0.7381	0.9834	0.98328	-0.178
Mof_O 	O 	0.8104	0.1092	0.02491	-0.912
Mof_Ga	Ga	0.00867	0.55058	0.04642	3.701
Mof_Ga	Ga	0.9052	0.68008	0.9493	4.194
Mof_P 	P 	0.82486	0.52222	0.00108	0.774
Mof_P 	P 	0.92983	0.54455	0.86171	0.917
Mof_O 	O 	0.8827	0.5374	0.04438	-0.896
Mof_O 	O 	0.8932	0.6217	0.88902	-0.988
Mof_O 	O 	0.8695	0.4555	0.96846	-0.886
Mof_O 	O 	0.978	0.5715	0.81803	-0.939
Mof_O 	O 	0.0123	0.5141	0.10885	-0.929
Mof_O 	O 	0.1501	0.5141	0.15368	-0.214
Mof_O 	O 	0.0823	0.2571	0.99256	-1.018
Mof_O 	O 	0.9932	0.5842	0.97517	-1.514
Mof_O 	O 	0.0094	0.1693	0.93149	-0.842
Mof_O 	O 	0.2619	0.5166	0.98328	-0.173
Mof_O 	O 	0.1896	0.3908	0.02491	-0.92
Mof_Ga	Ga	0.50867	0.05058	0.54642	3.589
Mof_Ga	Ga	0.4052	0.18008	0.4493	4.253
Mof_P 	P 	0.32486	0.02222	0.50108	0.77
Mof_P 	P 	0.42983	0.04455	0.36171	0.918
Mof_O 	O 	0.3827	0.0374	0.54438	-0.865
Mof_O 	O 	0.3932	0.1217	0.38902	-0.991
Mof_O 	O 	0.3695	0.9555	0.46846	-0.895
Mof_O 	O 	0.478	0.0715	0.31803	-0.911
Mof_O 	O 	0.5123	0.0141	0.60885	-0.923
Mof_O 	O 	0.6501	0.0141	0.65368	-0.218
Mof_O 	O 	0.5823	0.7571	0.49256	-1.019
Mof_O 	O 	0.4932	0.0842	0.47517	-1.497
Mof_O 	O 	0.5094	0.6693	0.43149	-0.836
Mof_O 	O 	0.7619	0.0166	0.48328	-0.178
Mof_O 	O 	0.6896	0.8908	0.52491	-0.922
Mof_Ga	Ga	0.80058	0.74133	0.70358	3.591
Mof_Ga	Ga	0.93008	0.8448	0.8007	4.144
Mof_P 	P 	0.77222	0.92514	0.74892	0.771
Mof_P 	P 	0.79455	0.82017	0.88829	0.914
Mof_O 	O 	0.7874	0.8673	0.70562	-0.867
Mof_O 	O 	0.8717	0.8568	0.86098	-0.988
Mof_O 	O 	0.7055	0.8805	0.78154	-0.897
Mof_O 	O 	0.8215	0.772	0.93197	-0.906
Mof_O 	O 	0.7641	0.7377	0.64115	-0.926
Mof_O 	O 	0.7641	0.5999	0.59632	-0.222
Mof_O 	O 	0.5071	0.6677	0.75744	-1.018
Mof_O 	O 	0.8342	0.7568	0.77483	-1.489
Mof_O 	O 	0.4193	0.7406	0.81851	-0.836
Mof_O 	O 	0.7666	0.4881	0.76672	-0.178
Mof_O 	O 	0.6408	0.5604	0.72509	-0.92
Mof_Ga	Ga	0.30058	0.24133	0.20358	3.591
Mof_Ga	Ga	0.43008	0.3448	0.3007	4.253
Mof_P 	P 	0.27222	0.42514	0.24892	0.775
Mof_P 	P 	0.29455	0.32017	0.38829	0.921
Mof_O 	O 	0.2874	0.3673	0.20562	-0.865
Mof_O 	O 	0.3717	0.3568	0.36098	-0.991
Mof_O 	O 	0.2055	0.3805	0.28154	-0.895
Mof_O 	O 	0.3215	0.272	0.43197	-0.909
Mof_O 	O 	0.2641	0.2377	0.14115	-0.924
Mof_O 	O 	0.2641	0.0999	0.09632	-0.216
Mof_O 	O 	0.0071	0.1677	0.25744	-1.015
Mof_O 	O 	0.3342	0.2568	0.27483	-1.498
Mof_O 	O 	0.9193	0.2406	0.31851	-0.859
Mof_O 	O 	0.2666	0.9881	0.26672	-0.167
Mof_O 	O 	0.1408	0.0604	0.22509	-0.919
Mof_Ga	Ga	0.69942	0.25867	0.20358	3.589
Mof_Ga	Ga	0.56992	0.1552	0.3007	4.252
Mof_P 	P 	0.72778	0.07486	0.24892	0.776
Mof_P 	P 	0.70545	0.17983	0.38829	0.921
Mof_O 	O 	0.7126	0.1327	0.20562	-0.865
Mof_O 	O 	0.6283	0.1432	0.36098	-0.992
Mof_O 	O 	0.7945	0.1195	0.28154	-0.902
Mof_O 	O 	0.6785	0.228	0.43197	-0.912
Mof_O 	O 	0.7359	0.2623	0.14115	-0.921
Mof_O 	O 	0.7359	0.4001	0.09632	-0.218
Mof_O 	O 	0.9929	0.3323	0.25744	-1.038
Mof_O 	O 	0.6658	0.2432	0.27483	-1.497
Mof_O 	O 	0.0807	0.2594	0.31851	-0.834
Mof_O 	O 	0.7334	0.5119	0.26672	-0.178
Mof_O 	O 	0.8592	0.4396	0.22509	-0.913
Mof_Ga	Ga	0.19942	0.75867	0.70358	3.598
Mof_Ga	Ga	0.06992	0.6552	0.8007	4.303
Mof_P 	P 	0.22778	0.57486	0.74892	0.776
Mof_P 	P 	0.20545	0.67983	0.88829	0.922
Mof_O 	O 	0.2126	0.6327	0.70562	-0.865
Mof_O 	O 	0.1283	0.6432	0.86098	-0.991
Mof_O 	O 	0.2945	0.6195	0.78154	-0.899
Mof_O 	O 	0.1785	0.728	0.93197	-0.91
Mof_O 	O 	0.2359	0.7623	0.64115	-0.921
Mof_O 	O 	0.2359	0.9001	0.59632	-0.211
Mof_O 	O 	0.4929	0.8323	0.75744	-1.018
Mof_O 	O 	0.1658	0.7432	0.77483	-1.502
Mof_O 	O 	0.5807	0.7594	0.81851	-0.835
Mof_O 	O 	0.2334	0.0119	0.76672	-0.174
Mof_O 	O 	0.3592	0.9396	0.72509	-0.919
Mof_Ga	Ga	0.50867	0.55058	0.45358	3.591
Mof_Ga	Ga	0.4052	0.68008	0.5507	4.254
Mof_P 	P 	0.32486	0.52222	0.49892	0.775
Mof_P 	P 	0.42983	0.54455	0.63829	0.921
Mof_O 	O 	0.3827	0.5374	0.45562	-0.864
Mof_O 	O 	0.3932	0.6217	0.61098	-0.991
Mof_O 	O 	0.3695	0.4555	0.53154	-0.897
Mof_O 	O 	0.478	0.5715	0.68197	-0.91
Mof_O 	O 	0.5123	0.5141	0.39115	-0.923
Mof_O 	O 	0.6501	0.5141	0.34632	-0.219
Mof_O 	O 	0.5823	0.2571	0.50744	-1.019
Mof_O 	O 	0.4932	0.5842	0.52483	-1.497
Mof_O 	O 	0.5094	0.1693	0.56851	-0.836
Mof_O 	O 	0.7619	0.5166	0.51672	-0.18
Mof_O 	O 	0.6896	0.3908	0.47509	-0.922
Mof_Ga	Ga	0.00867	0.05058	0.95358	3.675
Mof_Ga	Ga	0.9052	0.18008	0.0507	4.205
Mof_P 	P 	0.82486	0.02222	0.99892	0.778
Mof_P 	P 	0.92983	0.04455	0.13829	0.922
Mof_O 	O 	0.8827	0.0374	0.95562	-0.889
Mof_O 	O 	0.8932	0.1217	0.11098	-0.988
Mof_O 	O 	0.8695	0.9555	0.03154	-0.886
Mof_O 	O 	0.978	0.0715	0.18197	-0.933
Mof_O 	O 	0.0123	0.0141	0.89115	-0.931
Mof_O 	O 	0.1501	0.0141	0.84632	-0.219
Mof_O 	O 	0.0823	0.7571	0.00744	-1.018
Mof_O 	O 	0.9932	0.0842	0.02483	-1.506
Mof_O 	O 	0.0094	0.6693	0.06851	-0.844
Mof_O 	O 	0.2619	0.0166	0.01672	-0.177
Mof_O 	O 	0.1896	0.8908	0.97509	-0.919
Mof_Ga	Ga	0.99133	0.44942	0.95358	3.491
Mof_Ga	Ga	0.0948	0.31992	0.0507	4.257
Mof_P 	P 	0.17514	0.47778	0.99892	0.775
Mof_P 	P 	0.07017	0.45545	0.13829	0.921
Mof_O 	O 	0.1173	0.4626	0.95562	-0.836
Mof_O 	O 	0.1068	0.3783	0.11098	-0.992
Mof_O 	O 	0.1305	0.5445	0.03154	-0.912
Mof_O 	O 	0.022	0.4285	0.18197	-0.879
Mof_O 	O 	0.9877	0.4859	0.89115	-0.916
Mof_O 	O 	0.8499	0.4859	0.84632	-0.218
Mof_O 	O 	0.9177	0.7429	0.00744	-1.038
Mof_O 	O 	0.0068	0.4158	0.02483	-1.48
Mof_O 	O 	0.9906	0.8307	0.06851	-0.851
Mof_O 	O 	0.7381	0.4834	0.01672	-0.175
Mof_O 	O 	0.8104	0.6092	0.97509	-0.91
Mof_Ga	Ga	0.49133	0.94942	0.45358	3.591
Mof_Ga	Ga	0.5948	0.81992	0.5507	4.252
Mof_P 	P 	0.67514	0.97778	0.49892	0.772
Mof_P 	P 	0.57017	0.95545	0.63829	0.92
Mof_O 	O 	0.6173	0.9626	0.45562	-0.866
Mof_O 	O 	0.6068	0.8783	0.61098	-0.992
Mof_O 	O 	0.6305	0.0445	0.53154	-0.898
Mof_O 	O 	0.522	0.9285	0.68197	-0.911
Mof_O 	O 	0.4877	0.9859	0.39115	-0.922
Mof_O 	O 	0.3499	0.9859	0.34632	-0.213
Mof_O 	O 	0.4177	0.2429	0.50744	-1.017
Mof_O 	O 	0.5068	0.9158	0.52483	-1.496
Mof_O 	O 	0.4906	0.3307	0.56851	-0.836
Mof_O 	O 	0.2381	0.9834	0.51672	-0.165
Mof_O 	O 	0.3104	0.1092	0.47509	-0.917
Mof_P 	P 	0.5	0.25	0.21256	0.903
Mof_P 	P 	2.0062e-32	0.75	0.71256	0.955
Mof_P 	P 	0.5	0.75	0.46256	0.903
Mof_P 	P 	6.83399e-33	0.25	0.96256	0.945
Mof_P 	P 	0.5	0.75	0.78744	0.903
Mof_P 	P 	2.04077e-33	0.25	0.28744	0.946
Mof_P 	P 	0.5	0.25	0.53744	0.903
Mof_P 	P 	4.95424e-33	0.75	0.03744	0.955
Mof_O 	O 	1.2375e-33	0.25	0.1743	-1.456
Mof_O 	O 	0.5	0.75	0.6743	-1.483
Mof_O 	O 	0.5	0.25	0.4243	-1.482
Mof_O 	O 	-8.4406e-33	0.75	0.9243	-1.452
Mof_O 	O 	-9.14064e-33	0.75	0.8257	-1.451
Mof_O 	O 	0.5	0.25	0.3257	-1.483
Mof_O 	O 	0.5	0.75	0.5757	-1.482
Mof_O 	O 	-1.33791e-33	0.25	0.0757	-1.458
_end
