data_functionalizedCrystal
_audit_creation_method	'EQeq! by Chris Wilmer'
_symmetry_space_group_name_H-M	'P1'
_symmetry_Int_Tables_number	1
_symmetry_cell_setting	triclinic
loop_
_symmetry_equiv_pos_as_xyz
  x,y,z
_cell_length_a	24.05
_cell_length_b	12.458
_cell_length_c	18.14
_cell_angle_alpha	90
_cell_angle_beta	104.466
_cell_angle_gamma	90
loop_
_atom_site_label
_atom_site_type_symbol
_atom_site_fract_x
_atom_site_fract_y
_atom_site_fract_z
_atom_site_charge
Mof_Na	Na	0.08198	0.0247	0.1067	3.019
Mof_Fe	Fe	0.64219	0.23009	0.5844	0.864
Mof_Zn	Zn	0.14402	0.16886	0.23442	1.15
Mof_C 	C 	0.2066	0.0682	0.1378	0.587
Mof_C 	C 	0.263	0.0226	0.1363	-0.253
Mof_C 	C 	0.2692	0.9554	0.0773	0.122
Mof_H 	H 	0.2376	0.9398	0.0374	-0.018
Mof_C 	C 	0.322	0.9125	0.0783	-0.159
Mof_C 	C 	0.3687	0.9312	0.1408	0.01
Mof_H 	H 	0.404	0.8995	0.1421	0.004
Mof_C 	C 	0.3634	0.9962	0.2007	-0.087
Mof_C 	C 	0.3099	0.0431	0.1954	0.066
Mof_H 	H 	0.3058	0.0902	0.2334	-0
Mof_C 	C 	0.3322	0.8443	0.0149	0.316
Mof_C 	C 	0.4137	0.0105	0.266	0.054
Mof_H 	H 	0.425	0.9418	0.2903	0.007
Mof_H 	H 	0.4457	0.0387	0.2485	-0.028
Mof_C 	C 	0.4442	0.1057	0.3838	0.041
Mof_C 	C 	0.4982	0.0679	0.3954	-0.032
Mof_H 	H 	0.508	0.0214	0.3606	0.012
Mof_C 	C 	0.5395	0.1002	0.4613	-0.138
Mof_C 	C 	0.5249	0.1711	0.5156	0.328
Mof_C 	C 	0.4676	0.206	0.5027	-0.444
Mof_C 	C 	0.4282	0.1732	0.4365	0.104
Mof_H 	H 	0.3904	0.1969	0.4271	-0.043
Mof_C 	C 	0.4488	0.2835	0.5576	1.073
Mof_C 	C 	0.4776	0.3923	0.5552	-1.555
Mof_H 	H 	0.5185	0.3831	0.5678	0.473
Mof_H 	H 	0.4674	0.4399	0.5913	0.466
Mof_H 	H 	0.465	0.4222	0.505	0.461
Mof_C 	C 	0.3849	0.3025	0.5384	-1.586
Mof_H 	H 	0.3654	0.2354	0.5393	0.474
Mof_H 	H 	0.3728	0.3337	0.4886	0.472
Mof_H 	H 	0.3758	0.3504	0.5752	0.484
Mof_C 	C 	0.4661	0.2365	0.642	-1.436
Mof_H 	H 	0.4479	0.1681	0.643	0.432
Mof_H 	H 	0.4538	0.2852	0.6758	0.427
Mof_H 	H 	0.507	0.2279	0.658	0.458
Mof_C 	C 	0.597	0.0559	0.4716	0.091
Mof_H 	H 	0.6011	0.9953	0.4436	-0.039
Mof_C 	C 	0.6961	0.0385	0.5306	-0.032
Mof_H 	H 	0.7239	0.0794	0.5115	0.046
Mof_H 	H 	0.6914	0.9686	0.5063	0.002
Mof_C 	C 	0.7156	0.0271	0.6167	-0.06
Mof_H 	H 	0.6937	0.9712	0.6338	0.042
Mof_H 	H 	0.7559	0.0077	0.6318	0.04
Mof_C 	C 	0.7403	0.1566	0.7158	0.115
Mof_H 	H 	0.7696	0.1085	0.7367	-0.035
Mof_C 	C 	0.7373	0.2513	0.7579	-0.17
Mof_C 	C 	0.7797	0.2614	0.8297	-0.011
Mof_H 	H 	0.8057	0.2063	0.8473	-0.008
Mof_C 	C 	0.781	0.3527	0.8709	0.051
Mof_C 	C 	0.7425	0.4346	0.845	0.103
Mof_H 	H 	0.7445	0.4963	0.8744	-0.032
Mof_C 	C 	0.7004	0.4286	0.7762	-0.455
Mof_C 	C 	0.6972	0.3328	0.7332	0.339
Mof_C 	C 	0.6573	0.5218	0.7498	1.141
Mof_C 	C 	0.6595	0.5566	0.6692	-1.586
Mof_H 	H 	0.6977	0.5802	0.67	0.466
Mof_H 	H 	0.633	0.6143	0.6524	0.465
Mof_H 	H 	0.6494	0.4969	0.635	0.491
Mof_C 	C 	0.597	0.483	0.748	-1.649
Mof_H 	H 	0.5701	0.5405	0.7315	0.482
Mof_H 	H 	0.5955	0.4602	0.798	0.506
Mof_H 	H 	0.5872	0.4239	0.7132	0.509
Mof_C 	C 	0.6713	0.6214	0.8014	-1.596
Mof_H 	H 	0.7094	0.6459	0.8026	0.478
Mof_H 	H 	0.6692	0.603	0.852	0.477
Mof_H 	H 	0.6442	0.6773	0.7818	0.476
Mof_C 	C 	0.852	0.2824	0.9731	0.265
Mof_H 	H 	0.875	0.2569	0.9397	-0.128
Mof_H 	H 	0.8268	0.2246	0.9801	-0.07
Mof_C 	C 	0.8908	0.3134	0.049	-0.322
Mof_C 	C 	0.9447	0.2646	0.0702	0.346
Mof_H 	H 	0.9557	0.2187	0.0359	-0.205
Mof_C 	C 	0.9816	0.2815	0.1389	-0.514
Mof_C 	C 	0.9652	0.3496	0.1875	0.422
Mof_H 	H 	0.9899	0.3615	0.2351	-0.138
Mof_C 	C 	0.9148	0.4003	0.1692	-0.458
Mof_C 	C 	0.8762	0.3818	0.1007	0.287
Mof_H 	H 	0.8405	0.4152	0.0893	-0.06
Mof_C 	C 	0.8967	0.4756	0.2244	0.718
Mof_C 	C 	0.0419	0.2301	0.1575	0.809
Mof_N 	N 	0.7066	0.1306	0.6514	-0.181
Mof_N 	N 	0.6421	0.0944	0.5165	-0.184
Mof_O 	O 	0.2035	0.1368	0.1859	-0.684
Mof_O 	O 	0.1637	0.0264	0.0931	-0.999
Mof_O 	O 	0.2898	0.8015	0.9679	-0.33
Mof_O 	O 	0.382	0.8319	0.0079	-0.392
Mof_O 	O 	0.0523	0.1725	0.1055	-1.153
Mof_O 	O 	0.0692	0.2347	0.2171	-0.766
Mof_O 	O 	0.9285	0.4756	0.2891	-1.042
Mof_O 	O 	0.8608	0.5416	0.1991	-0.654
Mof_O 	O 	0.39964	0.0829	0.3196	-0.232
Mof_O 	O 	0.8193	0.3701	0.9398	-0.263
Mof_O 	O 	0.56406	0.1968	0.5783	-0.417
Mof_O 	O 	0.65612	0.3213	0.6688	-0.443
Mof_Na	Na	0.91802	0.5247	0.3933	3.038
Mof_Fe	Fe	0.35781	0.73009	0.9156	0.864
Mof_Zn	Zn	0.85598	0.66886	0.26558	1.151
Mof_C 	C 	0.7934	0.5682	0.3622	0.589
Mof_C 	C 	0.737	0.5226	0.3637	-0.25
Mof_C 	C 	0.7308	0.4554	0.4227	0.12
Mof_H 	H 	0.7624	0.4398	0.4626	-0.017
Mof_C 	C 	0.678	0.4125	0.4217	-0.158
Mof_C 	C 	0.6313	0.4312	0.3592	0.014
Mof_H 	H 	0.596	0.3995	0.3579	0.004
Mof_C 	C 	0.6366	0.4962	0.2993	-0.093
Mof_C 	C 	0.6901	0.5431	0.3046	0.072
Mof_H 	H 	0.6942	0.5902	0.2666	-0.001
Mof_C 	C 	0.6678	0.3443	0.4851	0.316
Mof_C 	C 	0.5863	0.5105	0.234	0.062
Mof_H 	H 	0.575	0.4418	0.2097	0.004
Mof_H 	H 	0.5543	0.5387	0.2515	-0.03
Mof_C 	C 	0.5558	0.6057	0.1162	0.041
Mof_C 	C 	0.5018	0.5679	0.1046	-0.033
Mof_H 	H 	0.492	0.5214	0.1394	0.013
Mof_C 	C 	0.4605	0.6002	0.0387	-0.137
Mof_C 	C 	0.4751	0.6711	0.9844	0.328
Mof_C 	C 	0.5324	0.706	0.9973	-0.445
Mof_C 	C 	0.5718	0.6732	0.0635	0.104
Mof_H 	H 	0.6096	0.6969	0.0729	-0.043
Mof_C 	C 	0.5512	0.7835	0.9424	1.075
Mof_C 	C 	0.5224	0.8923	0.9448	-1.556
Mof_H 	H 	0.4815	0.8831	0.9322	0.473
Mof_H 	H 	0.5326	0.9399	0.9087	0.467
Mof_H 	H 	0.535	0.9222	0.995	0.461
Mof_C 	C 	0.6151	0.8025	0.9616	-1.591
Mof_H 	H 	0.6346	0.7354	0.9607	0.475
Mof_H 	H 	0.6272	0.8337	0.0114	0.474
Mof_H 	H 	0.6242	0.8504	0.9248	0.484
Mof_C 	C 	0.5339	0.7365	0.858	-1.438
Mof_H 	H 	0.5521	0.6681	0.857	0.432
Mof_H 	H 	0.5462	0.7852	0.8242	0.427
Mof_H 	H 	0.493	0.7279	0.842	0.459
Mof_C 	C 	0.403	0.5559	0.0284	0.087
Mof_H 	H 	0.3989	0.4953	0.0564	-0.038
Mof_C 	C 	0.3039	0.5385	0.9694	-0.036
Mof_H 	H 	0.2761	0.5794	0.9885	0.047
Mof_H 	H 	0.3086	0.4686	0.9937	0.005
Mof_C 	C 	0.2844	0.5271	0.8833	-0.062
Mof_H 	H 	0.3063	0.4712	0.8662	0.044
Mof_H 	H 	0.2441	0.5077	0.8682	0.04
Mof_C 	C 	0.2597	0.6566	0.7842	0.115
Mof_H 	H 	0.2304	0.6085	0.7633	-0.036
Mof_C 	C 	0.2627	0.7513	0.7421	-0.17
Mof_C 	C 	0.2203	0.7614	0.6703	-0.011
Mof_H 	H 	0.1943	0.7063	0.6527	-0.009
Mof_C 	C 	0.219	0.8527	0.6291	0.052
Mof_C 	C 	0.2575	0.9346	0.655	0.102
Mof_H 	H 	0.2555	0.9963	0.6256	-0.03
Mof_C 	C 	0.2996	0.9286	0.7238	-0.452
Mof_C 	C 	0.3028	0.8328	0.7668	0.338
Mof_C 	C 	0.3427	0.0218	0.7502	1.136
Mof_C 	C 	0.3405	0.0566	0.8308	-1.585
Mof_H 	H 	0.3023	0.0802	0.83	0.466
Mof_H 	H 	0.367	0.1143	0.8476	0.465
Mof_H 	H 	0.3506	0.9969	0.865	0.492
Mof_C 	C 	0.403	0.983	0.752	-1.64
Mof_H 	H 	0.4299	0.0405	0.7685	0.48
Mof_H 	H 	0.4045	0.9602	0.702	0.503
Mof_H 	H 	0.4128	0.9239	0.7868	0.507
Mof_C 	C 	0.3287	0.1214	0.6986	-1.591
Mof_H 	H 	0.2906	0.1459	0.6974	0.476
Mof_H 	H 	0.3308	0.103	0.648	0.475
Mof_H 	H 	0.3558	0.1773	0.7182	0.474
Mof_C 	C 	0.148	0.7824	0.5269	0.27
Mof_H 	H 	0.125	0.7569	0.5603	-0.129
Mof_H 	H 	0.1732	0.7246	0.5199	-0.072
Mof_C 	C 	0.1092	0.8134	0.451	-0.327
Mof_C 	C 	0.0553	0.7646	0.4298	0.351
Mof_H 	H 	0.0443	0.7187	0.4641	-0.209
Mof_C 	C 	0.0184	0.7815	0.3611	-0.52
Mof_C 	C 	0.0348	0.8496	0.3125	0.427
Mof_H 	H 	0.0101	0.8615	0.2649	-0.139
Mof_C 	C 	0.0852	0.9003	0.3308	-0.462
Mof_C 	C 	0.1238	0.8818	0.3993	0.292
Mof_H 	H 	0.1595	0.9152	0.4107	-0.061
Mof_C 	C 	0.1033	0.9756	0.2756	0.724
Mof_C 	C 	0.9581	0.7301	0.3425	0.813
Mof_N 	N 	0.2934	0.6306	0.8486	-0.181
Mof_N 	N 	0.3579	0.5944	0.9835	-0.183
Mof_O 	O 	0.7965	0.6368	0.3141	-0.685
Mof_O 	O 	0.8363	0.5264	0.4069	-1
Mof_O 	O 	0.7102	0.3015	0.5321	-0.33
Mof_O 	O 	0.618	0.3319	0.4921	-0.392
Mof_O 	O 	0.9477	0.6725	0.3945	-1.157
Mof_O 	O 	0.9308	0.7347	0.2829	-0.767
Mof_O 	O 	0.0715	0.9756	0.2109	-1.038
Mof_O 	O 	0.1392	0.0416	0.3009	-0.659
Mof_O 	O 	0.60036	0.5829	0.1804	-0.233
Mof_O 	O 	0.1807	0.8701	0.5602	-0.263
Mof_O 	O 	0.43594	0.6968	0.9217	-0.417
Mof_O 	O 	0.34388	0.8213	0.8312	-0.442
Mof_Na	Na	0.91802	0.9753	0.8933	3.02
Mof_Fe	Fe	0.35781	0.76991	0.4156	0.865
Mof_Zn	Zn	0.85598	0.83114	0.76558	1.151
Mof_C 	C 	0.7934	0.9318	0.8622	0.588
Mof_C 	C 	0.737	0.9774	0.8637	-0.252
Mof_C 	C 	0.7308	0.0446	0.9227	0.123
Mof_H 	H 	0.7624	0.0602	0.9626	-0.017
Mof_C 	C 	0.678	0.0875	0.9217	-0.158
Mof_C 	C 	0.6313	0.0688	0.8592	0.011
Mof_H 	H 	0.596	0.1005	0.8579	0.005
Mof_C 	C 	0.6366	0.0038	0.7993	-0.086
Mof_C 	C 	0.6901	0.9569	0.8046	0.067
Mof_H 	H 	0.6942	0.9098	0.7666	-0
Mof_C 	C 	0.6678	0.1557	0.9851	0.316
Mof_C 	C 	0.5863	0.9895	0.734	0.054
Mof_H 	H 	0.575	0.0582	0.7097	0.007
Mof_H 	H 	0.5543	0.9613	0.7515	-0.028
Mof_C 	C 	0.5558	0.8943	0.6162	0.041
Mof_C 	C 	0.5018	0.9321	0.6046	-0.032
Mof_H 	H 	0.492	0.9786	0.6394	0.012
Mof_C 	C 	0.4605	0.8998	0.5387	-0.138
Mof_C 	C 	0.4751	0.8289	0.4844	0.328
Mof_C 	C 	0.5324	0.794	0.4973	-0.444
Mof_C 	C 	0.5718	0.8268	0.5635	0.104
Mof_H 	H 	0.6096	0.8031	0.5729	-0.043
Mof_C 	C 	0.5512	0.7165	0.4424	1.073
Mof_C 	C 	0.5224	0.6077	0.4448	-1.555
Mof_H 	H 	0.4815	0.6169	0.4322	0.473
Mof_H 	H 	0.5326	0.5601	0.4087	0.466
Mof_H 	H 	0.535	0.5778	0.495	0.461
Mof_C 	C 	0.6151	0.6975	0.4616	-1.586
Mof_H 	H 	0.6346	0.7646	0.4607	0.474
Mof_H 	H 	0.6272	0.6663	0.5114	0.472
Mof_H 	H 	0.6242	0.6496	0.4248	0.484
Mof_C 	C 	0.5339	0.7635	0.358	-1.436
Mof_H 	H 	0.5521	0.8319	0.357	0.432
Mof_H 	H 	0.5462	0.7148	0.3242	0.427
Mof_H 	H 	0.493	0.7721	0.342	0.458
Mof_C 	C 	0.403	0.9441	0.5284	0.091
Mof_H 	H 	0.3989	0.0047	0.5564	-0.039
Mof_C 	C 	0.3039	0.9615	0.4694	-0.032
Mof_H 	H 	0.2761	0.9206	0.4885	0.046
Mof_H 	H 	0.3086	0.0314	0.4937	0.002
Mof_C 	C 	0.2844	0.9729	0.3833	-0.06
Mof_H 	H 	0.3063	0.0288	0.3662	0.042
Mof_H 	H 	0.2441	0.9923	0.3682	0.04
Mof_C 	C 	0.2597	0.8434	0.2842	0.115
Mof_H 	H 	0.2304	0.8915	0.2633	-0.035
Mof_C 	C 	0.2627	0.7487	0.2421	-0.17
Mof_C 	C 	0.2203	0.7386	0.1703	-0.011
Mof_H 	H 	0.1943	0.7937	0.1527	-0.008
Mof_C 	C 	0.219	0.6473	0.1291	0.051
Mof_C 	C 	0.2575	0.5654	0.155	0.103
Mof_H 	H 	0.2555	0.5037	0.1256	-0.032
Mof_C 	C 	0.2996	0.5714	0.2238	-0.455
Mof_C 	C 	0.3028	0.6672	0.2668	0.339
Mof_C 	C 	0.3427	0.4782	0.2502	1.141
Mof_C 	C 	0.3405	0.4434	0.3308	-1.586
Mof_H 	H 	0.3023	0.4198	0.33	0.466
Mof_H 	H 	0.367	0.3857	0.3476	0.465
Mof_H 	H 	0.3506	0.5031	0.365	0.491
Mof_C 	C 	0.403	0.517	0.252	-1.649
Mof_H 	H 	0.4299	0.4595	0.2685	0.482
Mof_H 	H 	0.4045	0.5398	0.202	0.506
Mof_H 	H 	0.4128	0.5761	0.2868	0.509
Mof_C 	C 	0.3287	0.3786	0.1986	-1.596
Mof_H 	H 	0.2906	0.3541	0.1974	0.478
Mof_H 	H 	0.3308	0.397	0.148	0.477
Mof_H 	H 	0.3558	0.3227	0.2182	0.476
Mof_C 	C 	0.148	0.7176	0.0269	0.265
Mof_H 	H 	0.125	0.7431	0.0603	-0.128
Mof_H 	H 	0.1732	0.7754	0.0199	-0.07
Mof_C 	C 	0.1092	0.6866	0.951	-0.322
Mof_C 	C 	0.0553	0.7354	0.9298	0.346
Mof_H 	H 	0.0443	0.7813	0.9641	-0.205
Mof_C 	C 	0.0184	0.7185	0.8611	-0.514
Mof_C 	C 	0.0348	0.6504	0.8125	0.422
Mof_H 	H 	0.0101	0.6385	0.7649	-0.138
Mof_C 	C 	0.0852	0.5997	0.8308	-0.458
Mof_C 	C 	0.1238	0.6182	0.8993	0.287
Mof_H 	H 	0.1595	0.5848	0.9107	-0.06
Mof_C 	C 	0.1033	0.5244	0.7756	0.718
Mof_C 	C 	0.9581	0.7699	0.8425	0.809
Mof_N 	N 	0.2934	0.8694	0.3486	-0.181
Mof_N 	N 	0.3579	0.9056	0.4835	-0.184
Mof_O 	O 	0.7965	0.8632	0.8141	-0.684
Mof_O 	O 	0.8363	0.9736	0.9069	-0.999
Mof_O 	O 	0.7102	0.1985	0.0321	-0.33
Mof_O 	O 	0.618	0.1681	0.9921	-0.392
Mof_O 	O 	0.9477	0.8275	0.8945	-1.153
Mof_O 	O 	0.9308	0.7653	0.7829	-0.766
Mof_O 	O 	0.0715	0.5244	0.7109	-1.042
Mof_O 	O 	0.1392	0.4584	0.8009	-0.654
Mof_O 	O 	0.60036	0.9171	0.6804	-0.232
Mof_O 	O 	0.1807	0.6299	0.0602	-0.263
Mof_O 	O 	0.43594	0.8032	0.4217	-0.417
Mof_O 	O 	0.34388	0.6787	0.3312	-0.443
Mof_Na	Na	0.08198	0.4753	0.6067	3.038
Mof_Fe	Fe	0.64219	0.26991	0.0844	0.864
Mof_Zn	Zn	0.14402	0.33114	0.73442	1.151
Mof_C 	C 	0.2066	0.4318	0.6378	0.589
Mof_C 	C 	0.263	0.4774	0.6363	-0.25
Mof_C 	C 	0.2692	0.5446	0.5773	0.12
Mof_H 	H 	0.2376	0.5602	0.5374	-0.017
Mof_C 	C 	0.322	0.5875	0.5783	-0.158
Mof_C 	C 	0.3687	0.5688	0.6408	0.014
Mof_H 	H 	0.404	0.6005	0.6421	0.004
Mof_C 	C 	0.3634	0.5038	0.7007	-0.093
Mof_C 	C 	0.3099	0.4569	0.6954	0.072
Mof_H 	H 	0.3058	0.4098	0.7334	-0.001
Mof_C 	C 	0.3322	0.6557	0.5149	0.316
Mof_C 	C 	0.4137	0.4895	0.766	0.062
Mof_H 	H 	0.425	0.5582	0.7903	0.004
Mof_H 	H 	0.4457	0.4613	0.7485	-0.03
Mof_C 	C 	0.4442	0.3943	0.8838	0.041
Mof_C 	C 	0.4982	0.4321	0.8954	-0.033
Mof_H 	H 	0.508	0.4786	0.8606	0.013
Mof_C 	C 	0.5395	0.3998	0.9613	-0.137
Mof_C 	C 	0.5249	0.3289	0.0156	0.328
Mof_C 	C 	0.4676	0.294	0.0027	-0.445
Mof_C 	C 	0.4282	0.3268	0.9365	0.104
Mof_H 	H 	0.3904	0.3031	0.9271	-0.043
Mof_C 	C 	0.4488	0.2165	0.0576	1.075
Mof_C 	C 	0.4776	0.1077	0.0552	-1.556
Mof_H 	H 	0.5185	0.1169	0.0678	0.473
Mof_H 	H 	0.4674	0.0601	0.0913	0.467
Mof_H 	H 	0.465	0.0778	0.005	0.461
Mof_C 	C 	0.3849	0.1975	0.0384	-1.591
Mof_H 	H 	0.3654	0.2646	0.0393	0.475
Mof_H 	H 	0.3728	0.1663	0.9886	0.474
Mof_H 	H 	0.3758	0.1496	0.0752	0.484
Mof_C 	C 	0.4661	0.2635	0.142	-1.438
Mof_H 	H 	0.4479	0.3319	0.143	0.432
Mof_H 	H 	0.4538	0.2148	0.1758	0.427
Mof_H 	H 	0.507	0.2721	0.158	0.459
Mof_C 	C 	0.597	0.4441	0.9716	0.087
Mof_H 	H 	0.6011	0.5047	0.9436	-0.038
Mof_C 	C 	0.6961	0.4615	0.0306	-0.036
Mof_H 	H 	0.7239	0.4206	0.0115	0.047
Mof_H 	H 	0.6914	0.5314	0.0063	0.005
Mof_C 	C 	0.7156	0.4729	0.1167	-0.062
Mof_H 	H 	0.6937	0.5288	0.1338	0.044
Mof_H 	H 	0.7559	0.4923	0.1318	0.04
Mof_C 	C 	0.7403	0.3434	0.2158	0.115
Mof_H 	H 	0.7696	0.3915	0.2367	-0.036
Mof_C 	C 	0.7373	0.2487	0.2579	-0.17
Mof_C 	C 	0.7797	0.2386	0.3297	-0.011
Mof_H 	H 	0.8057	0.2937	0.3473	-0.009
Mof_C 	C 	0.781	0.1473	0.3709	0.052
Mof_C 	C 	0.7425	0.0654	0.345	0.102
Mof_H 	H 	0.7445	0.0037	0.3744	-0.03
Mof_C 	C 	0.7004	0.0714	0.2762	-0.452
Mof_C 	C 	0.6972	0.1672	0.2332	0.338
Mof_C 	C 	0.6573	0.9782	0.2498	1.136
Mof_C 	C 	0.6595	0.9434	0.1692	-1.585
Mof_H 	H 	0.6977	0.9198	0.17	0.466
Mof_H 	H 	0.633	0.8857	0.1524	0.465
Mof_H 	H 	0.6494	0.0031	0.135	0.492
Mof_C 	C 	0.597	0.017	0.248	-1.64
Mof_H 	H 	0.5701	0.9595	0.2315	0.48
Mof_H 	H 	0.5955	0.0398	0.298	0.503
Mof_H 	H 	0.5872	0.0761	0.2132	0.507
Mof_C 	C 	0.6713	0.8786	0.3014	-1.591
Mof_H 	H 	0.7094	0.8541	0.3026	0.476
Mof_H 	H 	0.6692	0.897	0.352	0.475
Mof_H 	H 	0.6442	0.8227	0.2818	0.474
Mof_C 	C 	0.852	0.2176	0.4731	0.27
Mof_H 	H 	0.875	0.2431	0.4397	-0.129
Mof_H 	H 	0.8268	0.2754	0.4801	-0.072
Mof_C 	C 	0.8908	0.1866	0.549	-0.327
Mof_C 	C 	0.9447	0.2354	0.5702	0.351
Mof_H 	H 	0.9557	0.2813	0.5359	-0.209
Mof_C 	C 	0.9816	0.2185	0.6389	-0.52
Mof_C 	C 	0.9652	0.1504	0.6875	0.427
Mof_H 	H 	0.9899	0.1385	0.7351	-0.139
Mof_C 	C 	0.9148	0.0997	0.6692	-0.462
Mof_C 	C 	0.8762	0.1182	0.6007	0.292
Mof_H 	H 	0.8405	0.0848	0.5893	-0.061
Mof_C 	C 	0.8967	0.0244	0.7244	0.724
Mof_C 	C 	0.0419	0.2699	0.6575	0.813
Mof_N 	N 	0.7066	0.3694	0.1514	-0.181
Mof_N 	N 	0.6421	0.4056	0.0165	-0.183
Mof_O 	O 	0.2035	0.3632	0.6859	-0.685
Mof_O 	O 	0.1637	0.4736	0.5931	-1
Mof_O 	O 	0.2898	0.6985	0.4679	-0.33
Mof_O 	O 	0.382	0.6681	0.5079	-0.392
Mof_O 	O 	0.0523	0.3275	0.6055	-1.157
Mof_O 	O 	0.0692	0.2653	0.7171	-0.767
Mof_O 	O 	0.9285	0.0244	0.7891	-1.038
Mof_O 	O 	0.8608	0.9584	0.6991	-0.659
Mof_O 	O 	0.39964	0.4171	0.8196	-0.233
Mof_O 	O 	0.8193	0.1299	0.4398	-0.263
Mof_O 	O 	0.56406	0.3032	0.0783	-0.417
Mof_O 	O 	0.65612	0.1787	0.1688	-0.442
_end
