data_functionalizedCrystal
_audit_creation_method	'EQeq! by Chris Wilmer'
_symmetry_space_group_name_H-M	'P1'
_symmetry_Int_Tables_number	1
_symmetry_cell_setting	triclinic
loop_
_symmetry_equiv_pos_as_xyz
  x,y,z
_cell_length_a	13.5045
_cell_length_b	13.5045
_cell_length_c	14.836
_cell_angle_alpha	90
_cell_angle_beta	90
_cell_angle_gamma	120
loop_
_atom_site_label
_atom_site_type_symbol
_atom_site_fract_x
_atom_site_fract_y
_atom_site_fract_z
_atom_site_charge
Mof_La	La	0.33333	0.66666	0.8324	2.33
Mof_La	La	0.66667	0.33334	0.6676	2.328
Mof_La	La	0.66667	0.33334	0.1676	2.319
Mof_La	La	0.33333	0.66666	0.3324	2.32
Mof_Cu	Cu	0.5	0	-0	0.871
Mof_Cu	Cu	0.5	0.5	-0	0.901
Mof_Cu	Cu	-4.85183e-17	0.5	-0	0.872
Mof_Cu	Cu	0.5	0	0.5	0.898
Mof_Cu	Cu	-1.87513e-17	0.5	0.5	0.899
Mof_Cu	Cu	0.5	0.5	0.5	0.927
Mof_H 	H 	0.2464	0.9571	0.9545	0.112
Mof_H 	H 	0.2019	0.8568	0.0342	0.047
Mof_H 	H 	0.3291	0.932	0.1857	0.171
Mof_H 	H 	0.2742	0.8121	0.1208	0.153
Mof_H 	H 	0.3528	0.0238	0.077	0.032
Mof_H 	H 	0.7107	0.7536	0.9545	0.106
Mof_H 	H 	0.6549	0.7981	0.0342	0.062
Mof_H 	H 	0.6029	0.6709	0.1857	0.153
Mof_H 	H 	0.5379	0.7258	0.1208	0.154
Mof_H 	H 	0.671	0.6472	0.077	0.102
Mof_H 	H 	0.0429	0.2893	0.9545	0.053
Mof_H 	H 	0.1432	0.3451	0.0342	0.025
Mof_H 	H 	0.068	0.3971	0.1857	0.116
Mof_H 	H 	0.1879	0.4621	0.1208	0.141
Mof_H 	H 	0.9762	0.329	0.077	0.158
Mof_H 	H 	0.2893	0.0429	0.5455	0.112
Mof_H 	H 	0.3451	0.1432	0.4658	0.135
Mof_H 	H 	0.3971	0.068	0.3143	0.121
Mof_H 	H 	0.4621	0.1879	0.3792	0.152
Mof_H 	H 	0.329	0.9762	0.423	0.159
Mof_H 	H 	0.9571	0.2464	0.5455	0.168
Mof_H 	H 	0.8568	0.2019	0.4658	0.151
Mof_H 	H 	0.932	0.3291	0.3143	0.175
Mof_H 	H 	0.8121	0.2742	0.3792	0.164
Mof_H 	H 	0.0238	0.3528	0.423	0.034
Mof_H 	H 	0.7536	0.7107	0.5455	0.163
Mof_H 	H 	0.7981	0.6549	0.4658	0.167
Mof_H 	H 	0.6709	0.6029	0.3143	0.158
Mof_H 	H 	0.7258	0.5379	0.3792	0.165
Mof_H 	H 	0.6472	0.671	0.423	0.101
Mof_H 	H 	0.7536	0.0429	0.0455	0.182
Mof_H 	H 	0.7981	0.1432	0.9658	0.254
Mof_H 	H 	0.6709	0.068	0.8143	0.131
Mof_H 	H 	0.7258	0.1879	0.8792	0.167
Mof_H 	H 	0.6472	0.9762	0.923	0.161
Mof_H 	H 	0.2893	0.2464	0.0455	0.191
Mof_H 	H 	0.3451	0.2019	0.9658	0.245
Mof_H 	H 	0.3971	0.3291	0.8143	0.15
Mof_H 	H 	0.4621	0.2742	0.8792	0.168
Mof_H 	H 	0.329	0.3528	0.923	0.094
Mof_H 	H 	0.9571	0.7107	0.0455	0.237
Mof_H 	H 	0.8568	0.6549	0.9658	0.268
Mof_H 	H 	0.932	0.6029	0.8143	0.184
Mof_H 	H 	0.8121	0.5379	0.8792	0.179
Mof_H 	H 	0.0238	0.671	0.923	0.041
Mof_H 	H 	0.7107	0.9571	0.4545	0.183
Mof_H 	H 	0.6549	0.8568	0.5342	0.167
Mof_H 	H 	0.6029	0.932	0.6857	0.182
Mof_H 	H 	0.5379	0.8121	0.6208	0.169
Mof_H 	H 	0.671	0.0238	0.577	0.036
Mof_H 	H 	0.0429	0.7536	0.4545	0.127
Mof_H 	H 	0.1432	0.7981	0.5342	0.151
Mof_H 	H 	0.068	0.6709	0.6857	0.129
Mof_H 	H 	0.1879	0.7258	0.6208	0.157
Mof_H 	H 	0.9762	0.6472	0.577	0.16
Mof_H 	H 	0.2464	0.2893	0.4545	0.132
Mof_H 	H 	0.2019	0.3451	0.5342	0.137
Mof_H 	H 	0.3291	0.3971	0.6857	0.146
Mof_H 	H 	0.2742	0.4621	0.6208	0.157
Mof_H 	H 	0.3528	0.329	0.577	0.093
Mof_C 	C 	0.2735	0.8205	0.9347	0.356
Mof_C 	C 	0.2569	0.9048	0.9914	-0.145
Mof_C 	C 	0.3329	0.8872	0.1376	-0.404
Mof_C 	C 	0.4394	0.8792	0.1579	0.488
Mof_C 	C 	0.547	0.7265	0.9347	0.352
Mof_C 	C 	0.6479	0.7431	0.9914	-0.148
Mof_C 	C 	0.5543	0.6671	0.1376	-0.392
Mof_C 	C 	0.4398	0.5606	0.1579	0.481
Mof_C 	C 	0.1795	0.453	0.9347	0.332
Mof_C 	C 	0.0952	0.3521	0.9914	-0.103
Mof_C 	C 	0.1128	0.4457	0.1376	-0.366
Mof_C 	C 	0.1208	0.5602	0.1579	0.468
Mof_C 	C 	0.453	0.1795	0.5653	0.384
Mof_C 	C 	0.3521	0.0952	0.5086	-0.33
Mof_C 	C 	0.4457	0.1128	0.3624	-0.382
Mof_C 	C 	0.5602	0.1208	0.3421	0.476
Mof_C 	C 	0.8205	0.2735	0.5653	0.405
Mof_C 	C 	0.9048	0.2569	0.5086	-0.36
Mof_C 	C 	0.8872	0.3329	0.3624	-0.419
Mof_C 	C 	0.8792	0.4394	0.3421	0.496
Mof_C 	C 	0.7265	0.547	0.5653	0.402
Mof_C 	C 	0.7431	0.6479	0.5086	-0.362
Mof_C 	C 	0.6671	0.5543	0.3624	-0.407
Mof_C 	C 	0.5606	0.4398	0.3421	0.489
Mof_C 	C 	0.7265	0.1795	0.0653	0.438
Mof_C 	C 	0.7431	0.0952	0.0086	-0.552
Mof_C 	C 	0.6671	0.1128	0.8624	-0.397
Mof_C 	C 	0.5606	0.1208	0.8421	0.485
Mof_C 	C 	0.453	0.2735	0.0653	0.445
Mof_C 	C 	0.3521	0.2569	0.0086	-0.563
Mof_C 	C 	0.4457	0.3329	0.8624	-0.414
Mof_C 	C 	0.5602	0.4394	0.8421	0.494
Mof_C 	C 	0.8205	0.547	0.0653	0.458
Mof_C 	C 	0.9048	0.6479	0.0086	-0.577
Mof_C 	C 	0.8872	0.5543	0.8624	-0.432
Mof_C 	C 	0.8792	0.4398	0.8421	0.504
Mof_C 	C 	0.547	0.8205	0.4347	0.41
Mof_C 	C 	0.6479	0.9048	0.4914	-0.371
Mof_C 	C 	0.5543	0.8872	0.6376	-0.422
Mof_C 	C 	0.4398	0.8792	0.6579	0.498
Mof_C 	C 	0.1795	0.7265	0.4347	0.389
Mof_C 	C 	0.0952	0.7431	0.4914	-0.341
Mof_C 	C 	0.1128	0.6671	0.6376	-0.387
Mof_C 	C 	0.1208	0.5606	0.6579	0.479
Mof_C 	C 	0.2735	0.453	0.4347	0.393
Mof_C 	C 	0.2569	0.3521	0.4914	-0.342
Mof_C 	C 	0.3329	0.4457	0.6376	-0.402
Mof_C 	C 	0.4394	0.5602	0.6579	0.487
Mof_N 	N 	0.3496	0.9601	0.0583	-0.141
Mof_N 	N 	0.6105	0.6504	0.0583	-0.203
Mof_N 	N 	0.0399	0.3895	0.0583	-0.265
Mof_N 	N 	0.3895	0.0399	0.4417	-0.216
Mof_N 	N 	0.9601	0.3496	0.4417	-0.096
Mof_N 	N 	0.6504	0.6105	0.4417	-0.155
Mof_N 	N 	0.6504	0.0399	0.9417	-0.159
Mof_N 	N 	0.3895	0.3496	0.9417	-0.103
Mof_N 	N 	0.9601	0.6105	0.9417	-0.045
Mof_N 	N 	0.6105	0.9601	0.5583	-0.092
Mof_N 	N 	0.0399	0.6504	0.5583	-0.212
Mof_N 	N 	0.3496	0.3895	0.5583	-0.158
Mof_O 	O 	0.1993	0.7586	0.8783	-0.404
Mof_O 	O 	0.3646	0.8166	0.9463	-0.486
Mof_O 	O 	0.4379	0.824	0.2252	-0.524
Mof_O 	O 	0.5247	0.9284	0.1063	-0.409
Mof_O 	O 	0.5593	0.8007	0.8783	-0.39
Mof_O 	O 	0.452	0.6354	0.9463	-0.495
Mof_O 	O 	0.3861	0.5621	0.2252	-0.534
Mof_O 	O 	0.4037	0.4753	0.1063	-0.444
Mof_O 	O 	0.2414	0.4407	0.8783	-0.402
Mof_O 	O 	0.1834	0.548	0.9463	-0.495
Mof_O 	O 	0.176	0.6139	0.2252	-0.538
Mof_O 	O 	0.0716	0.5963	0.1063	-0.46
Mof_O 	O 	0.4407	0.2414	0.6217	-0.425
Mof_O 	O 	0.548	0.1834	0.5537	-0.531
Mof_O 	O 	0.6139	0.176	0.2748	-0.538
Mof_O 	O 	0.5963	0.0716	0.3937	-0.454
Mof_O 	O 	0.7586	0.1993	0.6217	-0.426
Mof_O 	O 	0.8166	0.3646	0.5537	-0.521
Mof_O 	O 	0.824	0.4379	0.2748	-0.524
Mof_O 	O 	0.9284	0.5247	0.3937	-0.404
Mof_O 	O 	0.8007	0.5593	0.6217	-0.412
Mof_O 	O 	0.6354	0.452	0.5537	-0.53
Mof_O 	O 	0.5621	0.3861	0.2748	-0.534
Mof_O 	O 	0.4753	0.4037	0.3937	-0.437
Mof_O 	O 	0.8007	0.2414	0.1217	-0.437
Mof_O 	O 	0.6354	0.1834	0.0537	-0.56
Mof_O 	O 	0.5621	0.176	0.7748	-0.541
Mof_O 	O 	0.4753	0.0716	0.8937	-0.44
Mof_O 	O 	0.4407	0.1993	0.1217	-0.452
Mof_O 	O 	0.548	0.3646	0.0537	-0.558
Mof_O 	O 	0.6139	0.4379	0.7748	-0.532
Mof_O 	O 	0.5963	0.5247	0.8937	-0.417
Mof_O 	O 	0.7586	0.5593	0.1217	-0.438
Mof_O 	O 	0.8166	0.452	0.0537	-0.549
Mof_O 	O 	0.824	0.3861	0.7748	-0.528
Mof_O 	O 	0.9284	0.4037	0.8937	-0.392
Mof_O 	O 	0.5593	0.7586	0.3783	-0.418
Mof_O 	O 	0.452	0.8166	0.4463	-0.52
Mof_O 	O 	0.3861	0.824	0.7252	-0.528
Mof_O 	O 	0.4037	0.9284	0.6063	-0.405
Mof_O 	O 	0.2414	0.8007	0.3783	-0.416
Mof_O 	O 	0.1834	0.6354	0.4463	-0.531
Mof_O 	O 	0.176	0.5621	0.7252	-0.541
Mof_O 	O 	0.0716	0.4753	0.6063	-0.455
Mof_O 	O 	0.1993	0.4407	0.3783	-0.43
Mof_O 	O 	0.3646	0.548	0.4463	-0.528
Mof_O 	O 	0.4379	0.6139	0.7252	-0.533
Mof_O 	O 	0.5247	0.5963	0.6063	-0.433
_end
