# CIF file generated by openbabel 3.1.0, see https://openbabel.org
data_I
_chemical_name_common 'image0'
_cell_length_a 31.84
_cell_length_b 13.478
_cell_length_c 19.854
_cell_angle_alpha 90
_cell_angle_beta 91.365
_cell_angle_gamma 90
_space_group_name_H-M_alt 'P 1'
_space_group_name_Hall 'P 1'
loop_
    _symmetry_equiv_pos_as_xyz
    x,y,z
loop_
    _atom_site_label
    _atom_site_type_symbol
    _atom_site_fract_x
    _atom_site_fract_y
    _atom_site_fract_z
    _atom_site_occupancy
    O1       O        0.14111    0.47130    0.36160    1.000
    Cd1      Cd       0.17482    0.61990    0.35995    1.000
    Cd2      Cd       0.10360    0.66435    0.49003    1.000
    C1       C        0.09890    0.29610    0.39330    1.000
    H1       H        0.12630    0.29230    0.37830    1.000
    C2       C        0.13840    0.92060    0.39340    1.000
    C3       C        0.08060    0.38910    0.39910    1.000
    C4       C        0.09870    0.10790    0.40420    1.000
    C5       C        0.15640    0.82080    0.38370    1.000
    C6       C        0.07840    0.20890    0.40880    1.000
    C7       C        0.07620    0.02280    0.40450    1.000
    H2       H        0.04710    0.02650    0.40610    1.000
    C8       C        0.14270    0.10020    0.39830    1.000
    H3       H        0.15890    0.15750    0.39930    1.000
    C9       C        0.03800    0.21790    0.43500    1.000
    H4       H        0.02420    0.16130    0.44960    1.000
    C10      C        0.16210    0.00930    0.39110    1.000
    C11      C        0.04080    0.39600    0.42340    1.000
    H5       H        0.02880    0.45820    0.42930    1.000
    C12      C        0.01790    0.31020    0.43980    1.000
    C13      C        0.09540    0.92880    0.40240    1.000
    H6       H        0.07920    0.87190    0.40710    1.000
    C14      C        0.27890    0.98420    0.43760    1.000
    C15      C        0.29650    0.02180    0.37810    1.000
    H7       H        0.32560    0.02630    0.37490    1.000
    C16      C        0.27070    0.05240    0.32370    1.000
    C17      C        0.20910    0.00980    0.38780    1.000
    C18      C        0.23540    0.97910    0.43990    1.000
    H8       H        0.22330    0.95370    0.47850    1.000
    C19      C        0.22780    0.04580    0.32990    1.000
    H9       H        0.21060    0.06610    0.29400    1.000
    C20      C        0.30680    0.94440    0.49170    1.000
    C21      C        0.29050    0.08290    0.25890    1.000
    C22      C        0.97450    0.31810    0.46520    1.000
    O2       O        0.26843    0.08120    0.20640    1.000
    O3       O        0.95261    0.39450    0.45110    1.000
    O4       O        0.32865    0.10900    0.26040    1.000
    O5       O        0.28910    0.91690    0.54580    1.000
    O6       O        0.34556    0.94490    0.48350    1.000
    O7       O        0.96028    0.25040    0.50070    1.000
    C23      C        0.10540    0.48040    0.38450    1.000
    O8       O        0.08805    0.56340    0.39690    1.000
    O9       O        0.18920    0.80620    0.35370    1.000
    O10      O        0.13561    0.74410    0.40530    1.000
    O11      O        0.64111    0.97130    0.36160    1.000
    Cd3      Cd       0.67482    0.11990    0.35995    1.000
    Cd4      Cd       0.60360    0.16435    0.49003    1.000
    C24      C        0.59890    0.79610    0.39330    1.000
    H10      H        0.62630    0.79230    0.37830    1.000
    C25      C        0.63840    0.42060    0.39340    1.000
    C26      C        0.58060    0.88910    0.39910    1.000
    C27      C        0.59870    0.60790    0.40420    1.000
    C28      C        0.65640    0.32080    0.38370    1.000
    C29      C        0.57840    0.70890    0.40880    1.000
    C30      C        0.57620    0.52280    0.40450    1.000
    H11      H        0.54710    0.52650    0.40610    1.000
    C31      C        0.64270    0.60020    0.39830    1.000
    H12      H        0.65890    0.65750    0.39930    1.000
    C32      C        0.53800    0.71790    0.43500    1.000
    H13      H        0.52420    0.66130    0.44960    1.000
    C33      C        0.66210    0.50930    0.39110    1.000
    C34      C        0.54080    0.89600    0.42340    1.000
    H14      H        0.52880    0.95820    0.42930    1.000
    C35      C        0.51790    0.81020    0.43980    1.000
    C36      C        0.59540    0.42880    0.40240    1.000
    H15      H        0.57920    0.37190    0.40710    1.000
    C37      C        0.77890    0.48420    0.43760    1.000
    C38      C        0.79650    0.52180    0.37810    1.000
    H16      H        0.82560    0.52630    0.37490    1.000
    C39      C        0.77070    0.55240    0.32370    1.000
    C40      C        0.70910    0.50980    0.38780    1.000
    C41      C        0.73540    0.47910    0.43990    1.000
    H17      H        0.72330    0.45370    0.47850    1.000
    C42      C        0.72780    0.54580    0.32990    1.000
    H18      H        0.71060    0.56610    0.29400    1.000
    C43      C        0.80680    0.44440    0.49170    1.000
    C44      C        0.79050    0.58290    0.25890    1.000
    C45      C        0.47450    0.81810    0.46520    1.000
    O12      O        0.76843    0.58120    0.20640    1.000
    O13      O        0.45261    0.89450    0.45110    1.000
    O14      O        0.82865    0.60900    0.26040    1.000
    O15      O        0.78910    0.41690    0.54580    1.000
    O16      O        0.84556    0.44490    0.48350    1.000
    O17      O        0.46028    0.75040    0.50070    1.000
    C46      C        0.60540    0.98040    0.38450    1.000
    O18      O        0.58805    0.06340    0.39690    1.000
    O19      O        0.68920    0.30620    0.35370    1.000
    O20      O        0.63561    0.24410    0.40530    1.000
    O21      O        0.85889    0.47130    0.13840    1.000
    Cd5      Cd       0.82518    0.61990    0.14005    1.000
    Cd6      Cd       0.89640    0.66435    0.00997    1.000
    C47      C        0.90110    0.29610    0.10670    1.000
    H19      H        0.87370    0.29230    0.12170    1.000
    C48      C        0.86160    0.92060    0.10660    1.000
    C49      C        0.91940    0.38910    0.10090    1.000
    C50      C        0.90130    0.10790    0.09580    1.000
    C51      C        0.84360    0.82080    0.11630    1.000
    C52      C        0.92160    0.20890    0.09120    1.000
    C53      C        0.92380    0.02280    0.09550    1.000
    H20      H        0.95290    0.02650    0.09390    1.000
    C54      C        0.85730    0.10020    0.10170    1.000
    H21      H        0.84110    0.15750    0.10070    1.000
    C55      C        0.96200    0.21790    0.06500    1.000
    H22      H        0.97580    0.16130    0.05040    1.000
    C56      C        0.83790    0.00930    0.10890    1.000
    C57      C        0.95920    0.39600    0.07660    1.000
    H23      H        0.97120    0.45820    0.07070    1.000
    C58      C        0.98210    0.31020    0.06020    1.000
    C59      C        0.90460    0.92880    0.09760    1.000
    H24      H        0.92080    0.87190    0.09290    1.000
    C60      C        0.72110    0.98420    0.06240    1.000
    C61      C        0.70350    0.02180    0.12190    1.000
    H25      H        0.67440    0.02630    0.12510    1.000
    C62      C        0.72930    0.05240    0.17630    1.000
    C63      C        0.79090    0.00980    0.11220    1.000
    C64      C        0.76460    0.97910    0.06010    1.000
    H26      H        0.77670    0.95370    0.02150    1.000
    C65      C        0.77220    0.04580    0.17010    1.000
    H27      H        0.78940    0.06610    0.20600    1.000
    C66      C        0.69320    0.94440    0.00830    1.000
    C67      C        0.70950    0.08290    0.24110    1.000
    C68      C        0.02550    0.31810    0.03480    1.000
    O22      O        0.73157    0.08120    0.29360    1.000
    O23      O        0.04739    0.39450    0.04890    1.000
    O24      O        0.67135    0.10900    0.23960    1.000
    O25      O        0.71090    0.91690    0.95420    1.000
    O26      O        0.65444    0.94490    0.01650    1.000
    O27      O        0.03972    0.25040    0.99930    1.000
    C69      C        0.89460    0.48040    0.11550    1.000
    O28      O        0.91195    0.56340    0.10310    1.000
    O29      O        0.81080    0.80620    0.14630    1.000
    O30      O        0.86439    0.74410    0.09470    1.000
    O31      O        0.35889    0.97130    0.13840    1.000
    Cd7      Cd       0.32518    0.11990    0.14005    1.000
    Cd8      Cd       0.39640    0.16435    0.00997    1.000
    C70      C        0.40110    0.79610    0.10670    1.000
    H28      H        0.37370    0.79230    0.12170    1.000
    C71      C        0.36160    0.42060    0.10660    1.000
    C72      C        0.41940    0.88910    0.10090    1.000
    C73      C        0.40130    0.60790    0.09580    1.000
    C74      C        0.34360    0.32080    0.11630    1.000
    C75      C        0.42160    0.70890    0.09120    1.000
    C76      C        0.42380    0.52280    0.09550    1.000
    H29      H        0.45290    0.52650    0.09390    1.000
    C77      C        0.35730    0.60020    0.10170    1.000
    H30      H        0.34110    0.65750    0.10070    1.000
    C78      C        0.46200    0.71790    0.06500    1.000
    H31      H        0.47580    0.66130    0.05040    1.000
    C79      C        0.33790    0.50930    0.10890    1.000
    C80      C        0.45920    0.89600    0.07660    1.000
    H32      H        0.47120    0.95820    0.07070    1.000
    C81      C        0.48210    0.81020    0.06020    1.000
    C82      C        0.40460    0.42880    0.09760    1.000
    H33      H        0.42080    0.37190    0.09290    1.000
    C83      C        0.22110    0.48420    0.06240    1.000
    C84      C        0.20350    0.52180    0.12190    1.000
    H34      H        0.17440    0.52630    0.12510    1.000
    C85      C        0.22930    0.55240    0.17630    1.000
    C86      C        0.29090    0.50980    0.11220    1.000
    C87      C        0.26460    0.47910    0.06010    1.000
    H35      H        0.27670    0.45370    0.02150    1.000
    C88      C        0.27220    0.54580    0.17010    1.000
    H36      H        0.28940    0.56610    0.20600    1.000
    C89      C        0.19320    0.44440    0.00830    1.000
    C90      C        0.20950    0.58290    0.24110    1.000
    C91      C        0.52550    0.81810    0.03480    1.000
    O32      O        0.23157    0.58120    0.29360    1.000
    O33      O        0.54739    0.89450    0.04890    1.000
    O34      O        0.17135    0.60900    0.23960    1.000
    O35      O        0.21090    0.41690    0.95420    1.000
    O36      O        0.15444    0.44490    0.01650    1.000
    O37      O        0.53972    0.75040    0.99930    1.000
    C92      C        0.39460    0.98040    0.11550    1.000
    O38      O        0.41195    0.06340    0.10310    1.000
    O39      O        0.31080    0.30620    0.14630    1.000
    O40      O        0.36439    0.24410    0.09470    1.000
    O41      O        0.85889    0.52870    0.63840    1.000
    Cd9      Cd       0.82518    0.38010    0.64005    1.000
    Cd10     Cd       0.89640    0.33565    0.50997    1.000
    C93      C        0.90110    0.70390    0.60670    1.000
    H37      H        0.87370    0.70770    0.62170    1.000
    C94      C        0.86160    0.07940    0.60660    1.000
    C95      C        0.91940    0.61090    0.60090    1.000
    C96      C        0.90130    0.89210    0.59580    1.000
    C97      C        0.84360    0.17920    0.61630    1.000
    C98      C        0.92160    0.79110    0.59120    1.000
    C99      C        0.92380    0.97720    0.59550    1.000
    H38      H        0.95290    0.97350    0.59390    1.000
    C100     C        0.85730    0.89980    0.60170    1.000
    H39      H        0.84110    0.84250    0.60070    1.000
    C101     C        0.96200    0.78210    0.56500    1.000
    H40      H        0.97580    0.83870    0.55040    1.000
    C102     C        0.83790    0.99070    0.60890    1.000
    C103     C        0.95920    0.60400    0.57660    1.000
    H41      H        0.97120    0.54180    0.57070    1.000
    C104     C        0.98210    0.68980    0.56020    1.000
    C105     C        0.90460    0.07120    0.59760    1.000
    H42      H        0.92080    0.12810    0.59290    1.000
    C106     C        0.72110    0.01580    0.56240    1.000
    C107     C        0.70350    0.97820    0.62190    1.000
    H43      H        0.67440    0.97370    0.62510    1.000
    C108     C        0.72930    0.94760    0.67630    1.000
    C109     C        0.79090    0.99020    0.61220    1.000
    C110     C        0.76460    0.02090    0.56010    1.000
    H44      H        0.77670    0.04630    0.52150    1.000
    C111     C        0.77220    0.95420    0.67010    1.000
    H45      H        0.78940    0.93390    0.70600    1.000
    C112     C        0.69320    0.05560    0.50830    1.000
    C113     C        0.70950    0.91710    0.74110    1.000
    C114     C        0.02550    0.68190    0.53480    1.000
    O42      O        0.73157    0.91880    0.79360    1.000
    O43      O        0.04739    0.60550    0.54890    1.000
    O44      O        0.67135    0.89100    0.73960    1.000
    O45      O        0.71090    0.08310    0.45420    1.000
    O46      O        0.65444    0.05510    0.51650    1.000
    O47      O        0.03972    0.74960    0.49930    1.000
    C115     C        0.89460    0.51960    0.61550    1.000
    O48      O        0.91195    0.43660    0.60310    1.000
    O49      O        0.81080    0.19380    0.64630    1.000
    O50      O        0.86439    0.25590    0.59470    1.000
    O51      O        0.35889    0.02870    0.63840    1.000
    Cd11     Cd       0.32518    0.88010    0.64005    1.000
    Cd12     Cd       0.39640    0.83565    0.50997    1.000
    C116     C        0.40110    0.20390    0.60670    1.000
    H46      H        0.37370    0.20770    0.62170    1.000
    C117     C        0.36160    0.57940    0.60660    1.000
    C118     C        0.41940    0.11090    0.60090    1.000
    C119     C        0.40130    0.39210    0.59580    1.000
    C120     C        0.34360    0.67920    0.61630    1.000
    C121     C        0.42160    0.29110    0.59120    1.000
    C122     C        0.42380    0.47720    0.59550    1.000
    H47      H        0.45290    0.47350    0.59390    1.000
    C123     C        0.35730    0.39980    0.60170    1.000
    H48      H        0.34110    0.34250    0.60070    1.000
    C124     C        0.46200    0.28210    0.56500    1.000
    H49      H        0.47580    0.33870    0.55040    1.000
    C125     C        0.33790    0.49070    0.60890    1.000
    C126     C        0.45920    0.10400    0.57660    1.000
    H50      H        0.47120    0.04180    0.57070    1.000
    C127     C        0.48210    0.18980    0.56020    1.000
    C128     C        0.40460    0.57120    0.59760    1.000
    H51      H        0.42080    0.62810    0.59290    1.000
    C129     C        0.22110    0.51580    0.56240    1.000
    C130     C        0.20350    0.47820    0.62190    1.000
    H52      H        0.17440    0.47370    0.62510    1.000
    C131     C        0.22930    0.44760    0.67630    1.000
    C132     C        0.29090    0.49020    0.61220    1.000
    C133     C        0.26460    0.52090    0.56010    1.000
    H53      H        0.27670    0.54630    0.52150    1.000
    C134     C        0.27220    0.45420    0.67010    1.000
    H54      H        0.28940    0.43390    0.70600    1.000
    C135     C        0.19320    0.55560    0.50830    1.000
    C136     C        0.20950    0.41710    0.74110    1.000
    C137     C        0.52550    0.18190    0.53480    1.000
    O52      O        0.23157    0.41880    0.79360    1.000
    O53      O        0.54739    0.10550    0.54890    1.000
    O54      O        0.17135    0.39100    0.73960    1.000
    O55      O        0.21090    0.58310    0.45420    1.000
    O56      O        0.15444    0.55510    0.51650    1.000
    O57      O        0.53972    0.24960    0.49930    1.000
    C138     C        0.39460    0.01960    0.61550    1.000
    O58      O        0.41195    0.93660    0.60310    1.000
    O59      O        0.31080    0.69380    0.64630    1.000
    O60      O        0.36439    0.75590    0.59470    1.000
    O61      O        0.14111    0.52870    0.86160    1.000
    Cd13     Cd       0.17482    0.38010    0.85995    1.000
    Cd14     Cd       0.10360    0.33565    0.99003    1.000
    C139     C        0.09890    0.70390    0.89330    1.000
    H55      H        0.12630    0.70770    0.87830    1.000
    C140     C        0.13840    0.07940    0.89340    1.000
    C141     C        0.08060    0.61090    0.89910    1.000
    C142     C        0.09870    0.89210    0.90420    1.000
    C143     C        0.15640    0.17920    0.88370    1.000
    C144     C        0.07840    0.79110    0.90880    1.000
    C145     C        0.07620    0.97720    0.90450    1.000
    H56      H        0.04710    0.97350    0.90610    1.000
    C146     C        0.14270    0.89980    0.89830    1.000
    H57      H        0.15890    0.84250    0.89930    1.000
    C147     C        0.03800    0.78210    0.93500    1.000
    H58      H        0.02420    0.83870    0.94960    1.000
    C148     C        0.16210    0.99070    0.89110    1.000
    C149     C        0.04080    0.60400    0.92340    1.000
    H59      H        0.02880    0.54180    0.92930    1.000
    C150     C        0.01790    0.68980    0.93980    1.000
    C151     C        0.09540    0.07120    0.90240    1.000
    H60      H        0.07920    0.12810    0.90710    1.000
    C152     C        0.27890    0.01580    0.93760    1.000
    C153     C        0.29650    0.97820    0.87810    1.000
    H61      H        0.32560    0.97370    0.87490    1.000
    C154     C        0.27070    0.94760    0.82370    1.000
    C155     C        0.20910    0.99020    0.88780    1.000
    C156     C        0.23540    0.02090    0.93990    1.000
    H62      H        0.22330    0.04630    0.97850    1.000
    C157     C        0.22780    0.95420    0.82990    1.000
    H63      H        0.21060    0.93390    0.79400    1.000
    C158     C        0.30680    0.05560    0.99170    1.000
    C159     C        0.29050    0.91710    0.75890    1.000
    C160     C        0.97450    0.68190    0.96520    1.000
    O62      O        0.26843    0.91880    0.70640    1.000
    O63      O        0.95261    0.60550    0.95110    1.000
    O64      O        0.32865    0.89100    0.76040    1.000
    O65      O        0.28910    0.08310    0.04580    1.000
    O66      O        0.34556    0.05510    0.98350    1.000
    O67      O        0.96028    0.74960    0.00070    1.000
    C161     C        0.10540    0.51960    0.88450    1.000
    O68      O        0.08805    0.43660    0.89690    1.000
    O69      O        0.18920    0.19380    0.85370    1.000
    O70      O        0.13561    0.25590    0.90530    1.000
    O71      O        0.64111    0.02870    0.86160    1.000
    Cd15     Cd       0.67482    0.88010    0.85995    1.000
    Cd16     Cd       0.60360    0.83565    0.99003    1.000
    C162     C        0.59890    0.20390    0.89330    1.000
    H64      H        0.62630    0.20770    0.87830    1.000
    C163     C        0.63840    0.57940    0.89340    1.000
    C164     C        0.58060    0.11090    0.89910    1.000
    C165     C        0.59870    0.39210    0.90420    1.000
    C166     C        0.65640    0.67920    0.88370    1.000
    C167     C        0.57840    0.29110    0.90880    1.000
    C168     C        0.57620    0.47720    0.90450    1.000
    H65      H        0.54710    0.47350    0.90610    1.000
    C169     C        0.64270    0.39980    0.89830    1.000
    H66      H        0.65890    0.34250    0.89930    1.000
    C170     C        0.53800    0.28210    0.93500    1.000
    H67      H        0.52420    0.33870    0.94960    1.000
    C171     C        0.66210    0.49070    0.89110    1.000
    C172     C        0.54080    0.10400    0.92340    1.000
    H68      H        0.52880    0.04180    0.92930    1.000
    C173     C        0.51790    0.18980    0.93980    1.000
    C174     C        0.59540    0.57120    0.90240    1.000
    H69      H        0.57920    0.62810    0.90710    1.000
    C175     C        0.77890    0.51580    0.93760    1.000
    C176     C        0.79650    0.47820    0.87810    1.000
    H70      H        0.82560    0.47370    0.87490    1.000
    C177     C        0.77070    0.44760    0.82370    1.000
    C178     C        0.70910    0.49020    0.88780    1.000
    C179     C        0.73540    0.52090    0.93990    1.000
    H71      H        0.72330    0.54630    0.97850    1.000
    C180     C        0.72780    0.45420    0.82990    1.000
    H72      H        0.71060    0.43390    0.79400    1.000
    C181     C        0.80680    0.55560    0.99170    1.000
    C182     C        0.79050    0.41710    0.75890    1.000
    C183     C        0.47450    0.18190    0.96520    1.000
    O72      O        0.76843    0.41880    0.70640    1.000
    O73      O        0.45261    0.10550    0.95110    1.000
    O74      O        0.82865    0.39100    0.76040    1.000
    O75      O        0.78910    0.58310    0.04580    1.000
    O76      O        0.84556    0.55510    0.98350    1.000
    O77      O        0.46028    0.24960    0.00070    1.000
    C184     C        0.60540    0.01960    0.88450    1.000
    O78      O        0.58805    0.93660    0.89690    1.000
    O79      O        0.68920    0.69380    0.85370    1.000
    O80      O        0.63561    0.75590    0.90530    1.000
