data_functionalizedCrystal
_audit_creation_method	'EQeq! by Chris Wilmer'
_symmetry_space_group_name_H-M	'P1'
_symmetry_Int_Tables_number	1
_symmetry_cell_setting	triclinic
loop_
_symmetry_equiv_pos_as_xyz
  x,y,z
_cell_length_a	18.5871
_cell_length_b	18.5871
_cell_length_c	41.033
_cell_angle_alpha	90
_cell_angle_beta	90
_cell_angle_gamma	90
loop_
_atom_site_label
_atom_site_type_symbol
_atom_site_fract_x
_atom_site_fract_y
_atom_site_fract_z
_atom_site_charge
Mof_O 	O 	0.13166	0.23587	0.24683	-0.413
Mof_O 	O 	0.18965	0.29247	0.20662	-0.41
Mof_C 	C 	0.058	0.4378	0.0835	-0.032
Mof_H 	H 	0.0929	0.4717	0.0783	0.031
Mof_C 	C 	0.0595	0.4015	0.11317	-0.053
Mof_H 	H 	0.0974	0.4084	0.1276	0.048
Mof_C 	C 	0.9547	0.3351	0.09858	-0.047
Mof_H 	H 	0.9206	0.2997	0.1027	0.044
Mof_C 	C 	0.955	0.3682	0.0683	-0.034
Mof_H 	H 	0.9224	0.3528	0.0526	0.039
Mof_C 	C 	0.06473	0.30628	0.17105	-0.002
Mof_H 	H 	0.1082	0.3159	0.1608	0.042
Mof_C 	C 	0.06485	0.27877	0.20199	-0.095
Mof_C 	C 	0.13361	0.26752	0.21983	0.361
Mof_O 	O 	0.63166	0.73587	0.74683	-0.412
Mof_O 	O 	0.68965	0.79247	0.70662	-0.409
Mof_C 	C 	0.558	0.9378	0.5835	-0.03
Mof_H 	H 	0.5929	0.9717	0.5783	0.035
Mof_C 	C 	0.5595	0.9015	0.61317	-0.053
Mof_H 	H 	0.5974	0.9084	0.6276	0.05
Mof_C 	C 	0.4547	0.8351	0.59858	-0.053
Mof_H 	H 	0.4206	0.7997	0.6027	0.047
Mof_C 	C 	0.455	0.8682	0.5683	-0.034
Mof_H 	H 	0.4224	0.8528	0.5526	0.039
Mof_C 	C 	0.56473	0.80628	0.67105	0
Mof_H 	H 	0.6082	0.8159	0.6608	0.044
Mof_C 	C 	0.56485	0.77877	0.70199	-0.095
Mof_C 	C 	0.63361	0.76752	0.71983	0.363
Mof_O 	O 	0.86834	0.76413	0.24683	-0.409
Mof_O 	O 	0.81035	0.70753	0.20662	-0.408
Mof_C 	C 	0.942	0.5622	0.0835	-0.027
Mof_H 	H 	0.9071	0.5283	0.0783	0.032
Mof_C 	C 	0.9405	0.5985	0.11317	-0.052
Mof_H 	H 	0.9026	0.5916	0.1276	0.05
Mof_C 	C 	0.0453	0.6649	0.09858	-0.053
Mof_H 	H 	0.0794	0.7003	0.1027	0.047
Mof_C 	C 	0.045	0.6318	0.0683	-0.036
Mof_H 	H 	0.0776	0.6472	0.0526	0.039
Mof_C 	C 	0.93527	0.69372	0.17105	0.004
Mof_H 	H 	0.8918	0.6841	0.1608	0.043
Mof_C 	C 	0.93515	0.72123	0.20199	-0.089
Mof_C 	C 	0.86639	0.73248	0.21983	0.362
Mof_O 	O 	0.36834	0.26413	0.74683	-0.411
Mof_O 	O 	0.31035	0.20753	0.70662	-0.409
Mof_C 	C 	0.442	0.0622	0.5835	-0.033
Mof_H 	H 	0.4071	0.0283	0.5783	0.03
Mof_C 	C 	0.4405	0.0985	0.61317	-0.053
Mof_H 	H 	0.4026	0.0916	0.6276	0.048
Mof_C 	C 	0.5453	0.1649	0.59858	-0.049
Mof_H 	H 	0.5794	0.2003	0.6027	0.046
Mof_C 	C 	0.545	0.1318	0.5683	-0.04
Mof_H 	H 	0.5776	0.1472	0.5526	0.04
Mof_C 	C 	0.43527	0.19372	0.67105	-0.001
Mof_H 	H 	0.3918	0.1841	0.6608	0.043
Mof_C 	C 	0.43515	0.22123	0.70199	-0.095
Mof_C 	C 	0.36639	0.23248	0.71983	0.363
Mof_O 	O 	0.76413	0.13166	0.24683	-0.411
Mof_O 	O 	0.70753	0.18965	0.20662	-0.408
Mof_C 	C 	0.5622	0.058	0.0835	-0.031
Mof_H 	H 	0.5283	0.0929	0.0783	0.032
Mof_C 	C 	0.5985	0.0595	0.11317	-0.052
Mof_H 	H 	0.5916	0.0974	0.1276	0.049
Mof_C 	C 	0.6649	0.9547	0.09858	-0.045
Mof_H 	H 	0.7003	0.9206	0.1027	0.046
Mof_C 	C 	0.6318	0.955	0.0683	-0.033
Mof_H 	H 	0.6472	0.9224	0.0526	0.04
Mof_C 	C 	0.69372	0.06473	0.17105	-0.001
Mof_H 	H 	0.6841	0.1082	0.1608	0.044
Mof_C 	C 	0.72123	0.06485	0.20199	-0.093
Mof_C 	C 	0.73248	0.13361	0.21983	0.362
Mof_O 	O 	0.26413	0.63166	0.74683	-0.411
Mof_O 	O 	0.20753	0.68965	0.70662	-0.409
Mof_C 	C 	0.0622	0.558	0.5835	-0.032
Mof_H 	H 	0.0283	0.5929	0.5783	0.03
Mof_C 	C 	0.0985	0.5595	0.61317	-0.053
Mof_H 	H 	0.0916	0.5974	0.6276	0.049
Mof_C 	C 	0.1649	0.4547	0.59858	-0.049
Mof_H 	H 	0.2003	0.4206	0.6027	0.046
Mof_C 	C 	0.1318	0.455	0.5683	-0.039
Mof_H 	H 	0.1472	0.4224	0.5526	0.04
Mof_C 	C 	0.19372	0.56473	0.67105	-0.001
Mof_H 	H 	0.1841	0.6082	0.6608	0.043
Mof_C 	C 	0.22123	0.56485	0.70199	-0.095
Mof_C 	C 	0.23248	0.63361	0.71983	0.363
Mof_O 	O 	0.23587	0.86834	0.24683	-0.41
Mof_O 	O 	0.29247	0.81035	0.20662	-0.408
Mof_C 	C 	0.4378	0.942	0.0835	-0.027
Mof_H 	H 	0.4717	0.9071	0.0783	0.032
Mof_C 	C 	0.4015	0.9405	0.11317	-0.052
Mof_H 	H 	0.4084	0.9026	0.1276	0.05
Mof_C 	C 	0.3351	0.0453	0.09858	-0.053
Mof_H 	H 	0.2997	0.0794	0.1027	0.046
Mof_C 	C 	0.3682	0.045	0.0683	-0.036
Mof_H 	H 	0.3528	0.0776	0.0526	0.039
Mof_C 	C 	0.30628	0.93527	0.17105	0.004
Mof_H 	H 	0.3159	0.8918	0.1608	0.043
Mof_C 	C 	0.27877	0.93515	0.20199	-0.09
Mof_C 	C 	0.26752	0.86639	0.21983	0.362
Mof_O 	O 	0.73587	0.36834	0.74683	-0.411
Mof_O 	O 	0.79247	0.31035	0.70662	-0.408
Mof_C 	C 	0.9378	0.442	0.5835	-0.03
Mof_H 	H 	0.9717	0.4071	0.5783	0.035
Mof_C 	C 	0.9015	0.4405	0.61317	-0.053
Mof_H 	H 	0.9084	0.4026	0.6276	0.05
Mof_C 	C 	0.8351	0.5453	0.59858	-0.053
Mof_H 	H 	0.7997	0.5794	0.6027	0.047
Mof_C 	C 	0.8682	0.545	0.5683	-0.035
Mof_H 	H 	0.8528	0.5776	0.5526	0.039
Mof_C 	C 	0.80628	0.43527	0.67105	0
Mof_H 	H 	0.8159	0.3918	0.6608	0.043
Mof_C 	C 	0.77877	0.43515	0.70199	-0.095
Mof_C 	C 	0.76752	0.36639	0.71983	0.363
Mof_O 	O 	0.86834	0.23587	0.75317	-0.41
Mof_O 	O 	0.81035	0.29247	0.79338	-0.408
Mof_C 	C 	0.942	0.4378	0.9165	-0.027
Mof_H 	H 	0.9071	0.4717	0.9217	0.032
Mof_C 	C 	0.9405	0.4015	0.88683	-0.052
Mof_H 	H 	0.9026	0.4084	0.8724	0.05
Mof_C 	C 	0.0453	0.3351	0.90142	-0.053
Mof_H 	H 	0.0794	0.2997	0.8973	0.046
Mof_C 	C 	0.045	0.3682	0.9317	-0.036
Mof_H 	H 	0.0776	0.3528	0.9474	0.039
Mof_C 	C 	0.93527	0.30628	0.82895	0.004
Mof_H 	H 	0.8918	0.3159	0.8392	0.043
Mof_C 	C 	0.93515	0.27877	0.79801	-0.09
Mof_C 	C 	0.86639	0.26752	0.78017	0.362
Mof_O 	O 	0.36834	0.73587	0.25317	-0.411
Mof_O 	O 	0.31035	0.79247	0.29338	-0.408
Mof_C 	C 	0.442	0.9378	0.4165	-0.03
Mof_H 	H 	0.4071	0.9717	0.4217	0.035
Mof_C 	C 	0.4405	0.9015	0.38683	-0.053
Mof_H 	H 	0.4026	0.9084	0.3724	0.05
Mof_C 	C 	0.5453	0.8351	0.40142	-0.053
Mof_H 	H 	0.5794	0.7997	0.3973	0.047
Mof_C 	C 	0.545	0.8682	0.4317	-0.035
Mof_H 	H 	0.5776	0.8528	0.4474	0.039
Mof_C 	C 	0.43527	0.80628	0.32895	0
Mof_H 	H 	0.3918	0.8159	0.3392	0.043
Mof_C 	C 	0.43515	0.77877	0.29801	-0.095
Mof_C 	C 	0.36639	0.76752	0.28017	0.363
Mof_O 	O 	0.13166	0.76413	0.75317	-0.411
Mof_O 	O 	0.18965	0.70753	0.79338	-0.408
Mof_C 	C 	0.058	0.5622	0.9165	-0.031
Mof_H 	H 	0.0929	0.5283	0.9217	0.032
Mof_C 	C 	0.0595	0.5985	0.88683	-0.052
Mof_H 	H 	0.0974	0.5916	0.8724	0.049
Mof_C 	C 	0.9547	0.6649	0.90142	-0.046
Mof_H 	H 	0.9206	0.7003	0.8973	0.046
Mof_C 	C 	0.955	0.6318	0.9317	-0.033
Mof_H 	H 	0.9224	0.6472	0.9474	0.04
Mof_C 	C 	0.06473	0.69372	0.82895	-0.001
Mof_H 	H 	0.1082	0.6841	0.8392	0.044
Mof_C 	C 	0.06485	0.72123	0.79801	-0.093
Mof_C 	C 	0.13361	0.73248	0.78017	0.362
Mof_O 	O 	0.63166	0.26413	0.25317	-0.411
Mof_O 	O 	0.68965	0.20753	0.29338	-0.409
Mof_C 	C 	0.558	0.0622	0.4165	-0.032
Mof_H 	H 	0.5929	0.0283	0.4217	0.03
Mof_C 	C 	0.5595	0.0985	0.38683	-0.053
Mof_H 	H 	0.5974	0.0916	0.3724	0.049
Mof_C 	C 	0.4547	0.1649	0.40142	-0.049
Mof_H 	H 	0.4206	0.2003	0.3973	0.046
Mof_C 	C 	0.455	0.1318	0.4317	-0.039
Mof_H 	H 	0.4224	0.1472	0.4474	0.04
Mof_C 	C 	0.56473	0.19372	0.32895	-0.001
Mof_H 	H 	0.6082	0.1841	0.3392	0.043
Mof_C 	C 	0.56485	0.22123	0.29801	-0.095
Mof_C 	C 	0.63361	0.23248	0.28017	0.363
Mof_O 	O 	0.23587	0.13166	0.75317	-0.412
Mof_O 	O 	0.29247	0.18965	0.79338	-0.409
Mof_C 	C 	0.4378	0.058	0.9165	-0.031
Mof_H 	H 	0.4717	0.0929	0.9217	0.032
Mof_C 	C 	0.4015	0.0595	0.88683	-0.052
Mof_H 	H 	0.4084	0.0974	0.8724	0.049
Mof_C 	C 	0.3351	0.9547	0.90142	-0.046
Mof_H 	H 	0.2997	0.9206	0.8973	0.045
Mof_C 	C 	0.3682	0.955	0.9317	-0.033
Mof_H 	H 	0.3528	0.9224	0.9474	0.039
Mof_C 	C 	0.30628	0.06473	0.82895	-0.001
Mof_H 	H 	0.3159	0.1082	0.8392	0.043
Mof_C 	C 	0.27877	0.06485	0.79801	-0.094
Mof_C 	C 	0.26752	0.13361	0.78017	0.362
Mof_O 	O 	0.73587	0.63166	0.25317	-0.411
Mof_O 	O 	0.79247	0.68965	0.29338	-0.408
Mof_C 	C 	0.9378	0.558	0.4165	-0.03
Mof_H 	H 	0.9717	0.5929	0.4217	0.035
Mof_C 	C 	0.9015	0.5595	0.38683	-0.053
Mof_H 	H 	0.9084	0.5974	0.3724	0.05
Mof_C 	C 	0.8351	0.4547	0.40142	-0.053
Mof_H 	H 	0.7997	0.4206	0.3973	0.047
Mof_C 	C 	0.8682	0.455	0.4317	-0.034
Mof_H 	H 	0.8528	0.4224	0.4474	0.039
Mof_C 	C 	0.80628	0.56473	0.32895	0
Mof_H 	H 	0.8159	0.6082	0.3392	0.044
Mof_C 	C 	0.77877	0.56485	0.29801	-0.095
Mof_C 	C 	0.76752	0.63361	0.28017	0.363
Mof_O 	O 	0.76413	0.86834	0.75317	-0.409
Mof_O 	O 	0.70753	0.81035	0.79338	-0.408
Mof_C 	C 	0.5622	0.942	0.9165	-0.027
Mof_H 	H 	0.5283	0.9071	0.9217	0.032
Mof_C 	C 	0.5985	0.9405	0.88683	-0.052
Mof_H 	H 	0.5916	0.9026	0.8724	0.05
Mof_C 	C 	0.6649	0.0453	0.90142	-0.053
Mof_H 	H 	0.7003	0.0794	0.8973	0.047
Mof_C 	C 	0.6318	0.045	0.9317	-0.036
Mof_H 	H 	0.6472	0.0776	0.9474	0.039
Mof_C 	C 	0.69372	0.93527	0.82895	0.004
Mof_H 	H 	0.6841	0.8918	0.8392	0.043
Mof_C 	C 	0.72123	0.93515	0.79801	-0.089
Mof_C 	C 	0.73248	0.86639	0.78017	0.362
Mof_O 	O 	0.26413	0.36834	0.25317	-0.411
Mof_O 	O 	0.20753	0.31035	0.29338	-0.409
Mof_C 	C 	0.0622	0.442	0.4165	-0.033
Mof_H 	H 	0.0283	0.4071	0.4217	0.03
Mof_C 	C 	0.0985	0.4405	0.38683	-0.053
Mof_H 	H 	0.0916	0.4026	0.3724	0.048
Mof_C 	C 	0.1649	0.5453	0.40142	-0.049
Mof_H 	H 	0.2003	0.5794	0.3973	0.046
Mof_C 	C 	0.1318	0.545	0.4317	-0.04
Mof_H 	H 	0.1472	0.5776	0.4474	0.04
Mof_C 	C 	0.19372	0.43527	0.32895	-0.001
Mof_H 	H 	0.1841	0.3918	0.3392	0.043
Mof_C 	C 	0.22123	0.43515	0.29801	-0.095
Mof_C 	C 	0.23248	0.36639	0.28017	0.363
Mof_O 	O 	0.86834	0.76413	0.75317	-0.409
Mof_O 	O 	0.81035	0.70753	0.79338	-0.408
Mof_C 	C 	0.942	0.5622	0.9165	-0.027
Mof_H 	H 	0.9071	0.5283	0.9217	0.032
Mof_C 	C 	0.9405	0.5985	0.88683	-0.052
Mof_H 	H 	0.9026	0.5916	0.8724	0.05
Mof_C 	C 	0.0453	0.6649	0.90142	-0.053
Mof_H 	H 	0.0794	0.7003	0.8973	0.047
Mof_C 	C 	0.045	0.6318	0.9317	-0.036
Mof_H 	H 	0.0776	0.6472	0.9474	0.039
Mof_C 	C 	0.93527	0.69372	0.82895	0.004
Mof_H 	H 	0.8918	0.6841	0.8392	0.043
Mof_C 	C 	0.93515	0.72123	0.79801	-0.089
Mof_C 	C 	0.86639	0.73248	0.78017	0.362
Mof_O 	O 	0.36834	0.26413	0.25317	-0.411
Mof_O 	O 	0.31035	0.20753	0.29338	-0.409
Mof_C 	C 	0.442	0.0622	0.4165	-0.033
Mof_H 	H 	0.4071	0.0283	0.4217	0.03
Mof_C 	C 	0.4405	0.0985	0.38683	-0.053
Mof_H 	H 	0.4026	0.0916	0.3724	0.048
Mof_C 	C 	0.5453	0.1649	0.40142	-0.049
Mof_H 	H 	0.5794	0.2003	0.3973	0.046
Mof_C 	C 	0.545	0.1318	0.4317	-0.04
Mof_H 	H 	0.5776	0.1472	0.4474	0.04
Mof_C 	C 	0.43527	0.19372	0.32895	-0.001
Mof_H 	H 	0.3918	0.1841	0.3392	0.043
Mof_C 	C 	0.43515	0.22123	0.29801	-0.095
Mof_C 	C 	0.36639	0.23248	0.28017	0.363
Mof_O 	O 	0.13166	0.23587	0.75317	-0.412
Mof_O 	O 	0.18965	0.29247	0.79338	-0.409
Mof_C 	C 	0.058	0.4378	0.9165	-0.031
Mof_H 	H 	0.0929	0.4717	0.9217	0.032
Mof_C 	C 	0.0595	0.4015	0.88683	-0.052
Mof_H 	H 	0.0974	0.4084	0.8724	0.049
Mof_C 	C 	0.9547	0.3351	0.90142	-0.046
Mof_H 	H 	0.9206	0.2997	0.8973	0.045
Mof_C 	C 	0.955	0.3682	0.9317	-0.033
Mof_H 	H 	0.9224	0.3528	0.9474	0.039
Mof_C 	C 	0.06473	0.30628	0.82895	-0.001
Mof_H 	H 	0.1082	0.3159	0.8392	0.043
Mof_C 	C 	0.06485	0.27877	0.79801	-0.094
Mof_C 	C 	0.13361	0.26752	0.78017	0.362
Mof_O 	O 	0.63166	0.73587	0.25317	-0.411
Mof_O 	O 	0.68965	0.79247	0.29338	-0.408
Mof_C 	C 	0.558	0.9378	0.4165	-0.03
Mof_H 	H 	0.5929	0.9717	0.4217	0.035
Mof_C 	C 	0.5595	0.9015	0.38683	-0.053
Mof_H 	H 	0.5974	0.9084	0.3724	0.05
Mof_C 	C 	0.4547	0.8351	0.40142	-0.053
Mof_H 	H 	0.4206	0.7997	0.3973	0.047
Mof_C 	C 	0.455	0.8682	0.4317	-0.034
Mof_H 	H 	0.4224	0.8528	0.4474	0.039
Mof_C 	C 	0.56473	0.80628	0.32895	0
Mof_H 	H 	0.6082	0.8159	0.3392	0.044
Mof_C 	C 	0.56485	0.77877	0.29801	-0.095
Mof_C 	C 	0.63361	0.76752	0.28017	0.363
Mof_O 	O 	0.23587	0.86834	0.75317	-0.41
Mof_O 	O 	0.29247	0.81035	0.79338	-0.408
Mof_C 	C 	0.4378	0.942	0.9165	-0.027
Mof_H 	H 	0.4717	0.9071	0.9217	0.032
Mof_C 	C 	0.4015	0.9405	0.88683	-0.052
Mof_H 	H 	0.4084	0.9026	0.8724	0.05
Mof_C 	C 	0.3351	0.0453	0.90142	-0.053
Mof_H 	H 	0.2997	0.0794	0.8973	0.046
Mof_C 	C 	0.3682	0.045	0.9317	-0.036
Mof_H 	H 	0.3528	0.0776	0.9474	0.039
Mof_C 	C 	0.30628	0.93527	0.82895	0.004
Mof_H 	H 	0.3159	0.8918	0.8392	0.043
Mof_C 	C 	0.27877	0.93515	0.79801	-0.09
Mof_C 	C 	0.26752	0.86639	0.78017	0.362
Mof_O 	O 	0.73587	0.36834	0.25317	-0.411
Mof_O 	O 	0.79247	0.31035	0.29338	-0.408
Mof_C 	C 	0.9378	0.442	0.4165	-0.03
Mof_H 	H 	0.9717	0.4071	0.4217	0.035
Mof_C 	C 	0.9015	0.4405	0.38683	-0.053
Mof_H 	H 	0.9084	0.4026	0.3724	0.05
Mof_C 	C 	0.8351	0.5453	0.40142	-0.053
Mof_H 	H 	0.7997	0.5794	0.3973	0.047
Mof_C 	C 	0.8682	0.545	0.4317	-0.035
Mof_H 	H 	0.8528	0.5776	0.4474	0.039
Mof_C 	C 	0.80628	0.43527	0.32895	0
Mof_H 	H 	0.8159	0.3918	0.3392	0.043
Mof_C 	C 	0.77877	0.43515	0.29801	-0.095
Mof_C 	C 	0.76752	0.36639	0.28017	0.363
Mof_O 	O 	0.76413	0.13166	0.75317	-0.411
Mof_O 	O 	0.70753	0.18965	0.79338	-0.408
Mof_C 	C 	0.5622	0.058	0.9165	-0.031
Mof_H 	H 	0.5283	0.0929	0.9217	0.032
Mof_C 	C 	0.5985	0.0595	0.88683	-0.052
Mof_H 	H 	0.5916	0.0974	0.8724	0.049
Mof_C 	C 	0.6649	0.9547	0.90142	-0.046
Mof_H 	H 	0.7003	0.9206	0.8973	0.046
Mof_C 	C 	0.6318	0.955	0.9317	-0.033
Mof_H 	H 	0.6472	0.9224	0.9474	0.04
Mof_C 	C 	0.69372	0.06473	0.82895	-0.001
Mof_H 	H 	0.6841	0.1082	0.8392	0.044
Mof_C 	C 	0.72123	0.06485	0.79801	-0.093
Mof_C 	C 	0.73248	0.13361	0.78017	0.362
Mof_O 	O 	0.26413	0.63166	0.25317	-0.411
Mof_O 	O 	0.20753	0.68965	0.29338	-0.409
Mof_C 	C 	0.0622	0.558	0.4165	-0.032
Mof_H 	H 	0.0283	0.5929	0.4217	0.03
Mof_C 	C 	0.0985	0.5595	0.38683	-0.053
Mof_H 	H 	0.0916	0.5974	0.3724	0.049
Mof_C 	C 	0.1649	0.4547	0.40142	-0.049
Mof_H 	H 	0.2003	0.4206	0.3973	0.046
Mof_C 	C 	0.1318	0.455	0.4317	-0.039
Mof_H 	H 	0.1472	0.4224	0.4474	0.04
Mof_C 	C 	0.19372	0.56473	0.32895	-0.001
Mof_H 	H 	0.1841	0.6082	0.3392	0.043
Mof_C 	C 	0.22123	0.56485	0.29801	-0.095
Mof_C 	C 	0.23248	0.63361	0.28017	0.363
Mof_O 	O 	0.13166	0.76413	0.24683	-0.411
Mof_O 	O 	0.18965	0.70753	0.20662	-0.408
Mof_C 	C 	0.058	0.5622	0.0835	-0.031
Mof_H 	H 	0.0929	0.5283	0.0783	0.032
Mof_C 	C 	0.0595	0.5985	0.11317	-0.052
Mof_H 	H 	0.0974	0.5916	0.1276	0.049
Mof_C 	C 	0.9547	0.6649	0.09858	-0.045
Mof_H 	H 	0.9206	0.7003	0.1027	0.046
Mof_C 	C 	0.955	0.6318	0.0683	-0.033
Mof_H 	H 	0.9224	0.6472	0.0526	0.04
Mof_C 	C 	0.06473	0.69372	0.17105	-0.001
Mof_H 	H 	0.1082	0.6841	0.1608	0.044
Mof_C 	C 	0.06485	0.72123	0.20199	-0.093
Mof_C 	C 	0.13361	0.73248	0.21983	0.362
Mof_O 	O 	0.63166	0.26413	0.74683	-0.411
Mof_O 	O 	0.68965	0.20753	0.70662	-0.409
Mof_C 	C 	0.558	0.0622	0.5835	-0.032
Mof_H 	H 	0.5929	0.0283	0.5783	0.03
Mof_C 	C 	0.5595	0.0985	0.61317	-0.053
Mof_H 	H 	0.5974	0.0916	0.6276	0.049
Mof_C 	C 	0.4547	0.1649	0.59858	-0.049
Mof_H 	H 	0.4206	0.2003	0.6027	0.046
Mof_C 	C 	0.455	0.1318	0.5683	-0.039
Mof_H 	H 	0.4224	0.1472	0.5526	0.04
Mof_C 	C 	0.56473	0.19372	0.67105	-0.001
Mof_H 	H 	0.6082	0.1841	0.6608	0.043
Mof_C 	C 	0.56485	0.22123	0.70199	-0.095
Mof_C 	C 	0.63361	0.23248	0.71983	0.363
Mof_O 	O 	0.86834	0.23587	0.24683	-0.41
Mof_O 	O 	0.81035	0.29247	0.20662	-0.408
Mof_C 	C 	0.942	0.4378	0.0835	-0.027
Mof_H 	H 	0.9071	0.4717	0.0783	0.032
Mof_C 	C 	0.9405	0.4015	0.11317	-0.052
Mof_H 	H 	0.9026	0.4084	0.1276	0.05
Mof_C 	C 	0.0453	0.3351	0.09858	-0.053
Mof_H 	H 	0.0794	0.2997	0.1027	0.046
Mof_C 	C 	0.045	0.3682	0.0683	-0.036
Mof_H 	H 	0.0776	0.3528	0.0526	0.039
Mof_C 	C 	0.93527	0.30628	0.17105	0.004
Mof_H 	H 	0.8918	0.3159	0.1608	0.043
Mof_C 	C 	0.93515	0.27877	0.20199	-0.09
Mof_C 	C 	0.86639	0.26752	0.21983	0.362
Mof_O 	O 	0.36834	0.73587	0.74683	-0.411
Mof_O 	O 	0.31035	0.79247	0.70662	-0.408
Mof_C 	C 	0.442	0.9378	0.5835	-0.03
Mof_H 	H 	0.4071	0.9717	0.5783	0.035
Mof_C 	C 	0.4405	0.9015	0.61317	-0.053
Mof_H 	H 	0.4026	0.9084	0.6276	0.05
Mof_C 	C 	0.5453	0.8351	0.59858	-0.053
Mof_H 	H 	0.5794	0.7997	0.6027	0.047
Mof_C 	C 	0.545	0.8682	0.5683	-0.035
Mof_H 	H 	0.5776	0.8528	0.5526	0.039
Mof_C 	C 	0.43527	0.80628	0.67105	0
Mof_H 	H 	0.3918	0.8159	0.6608	0.043
Mof_C 	C 	0.43515	0.77877	0.70199	-0.095
Mof_C 	C 	0.36639	0.76752	0.71983	0.363
Mof_O 	O 	0.76413	0.86834	0.24683	-0.409
Mof_O 	O 	0.70753	0.81035	0.20662	-0.408
Mof_C 	C 	0.5622	0.942	0.0835	-0.027
Mof_H 	H 	0.5283	0.9071	0.0783	0.032
Mof_C 	C 	0.5985	0.9405	0.11317	-0.052
Mof_H 	H 	0.5916	0.9026	0.1276	0.05
Mof_C 	C 	0.6649	0.0453	0.09858	-0.053
Mof_H 	H 	0.7003	0.0794	0.1027	0.047
Mof_C 	C 	0.6318	0.045	0.0683	-0.036
Mof_H 	H 	0.6472	0.0776	0.0526	0.039
Mof_C 	C 	0.69372	0.93527	0.17105	0.004
Mof_H 	H 	0.6841	0.8918	0.1608	0.043
Mof_C 	C 	0.72123	0.93515	0.20199	-0.089
Mof_C 	C 	0.73248	0.86639	0.21983	0.362
Mof_O 	O 	0.26413	0.36834	0.74683	-0.411
Mof_O 	O 	0.20753	0.31035	0.70662	-0.409
Mof_C 	C 	0.0622	0.442	0.5835	-0.033
Mof_H 	H 	0.0283	0.4071	0.5783	0.03
Mof_C 	C 	0.0985	0.4405	0.61317	-0.053
Mof_H 	H 	0.0916	0.4026	0.6276	0.048
Mof_C 	C 	0.1649	0.5453	0.59858	-0.049
Mof_H 	H 	0.2003	0.5794	0.6027	0.046
Mof_C 	C 	0.1318	0.545	0.5683	-0.04
Mof_H 	H 	0.1472	0.5776	0.5526	0.04
Mof_C 	C 	0.19372	0.43527	0.67105	-0.001
Mof_H 	H 	0.1841	0.3918	0.6608	0.043
Mof_C 	C 	0.22123	0.43515	0.70199	-0.095
Mof_C 	C 	0.23248	0.36639	0.71983	0.363
Mof_O 	O 	0.23587	0.13166	0.24683	-0.412
Mof_O 	O 	0.29247	0.18965	0.20662	-0.409
Mof_C 	C 	0.4378	0.058	0.0835	-0.031
Mof_H 	H 	0.4717	0.0929	0.0783	0.032
Mof_C 	C 	0.4015	0.0595	0.11317	-0.052
Mof_H 	H 	0.4084	0.0974	0.1276	0.049
Mof_C 	C 	0.3351	0.9547	0.09858	-0.046
Mof_H 	H 	0.2997	0.9206	0.1027	0.045
Mof_C 	C 	0.3682	0.955	0.0683	-0.033
Mof_H 	H 	0.3528	0.9224	0.0526	0.04
Mof_C 	C 	0.30628	0.06473	0.17105	-0.001
Mof_H 	H 	0.3159	0.1082	0.1608	0.043
Mof_C 	C 	0.27877	0.06485	0.20199	-0.094
Mof_C 	C 	0.26752	0.13361	0.21983	0.362
Mof_O 	O 	0.73587	0.63166	0.74683	-0.411
Mof_O 	O 	0.79247	0.68965	0.70662	-0.408
Mof_C 	C 	0.9378	0.558	0.5835	-0.03
Mof_H 	H 	0.9717	0.5929	0.5783	0.035
Mof_C 	C 	0.9015	0.5595	0.61317	-0.053
Mof_H 	H 	0.9084	0.5974	0.6276	0.05
Mof_C 	C 	0.8351	0.4547	0.59858	-0.053
Mof_H 	H 	0.7997	0.4206	0.6027	0.047
Mof_C 	C 	0.8682	0.455	0.5683	-0.034
Mof_H 	H 	0.8528	0.4224	0.5526	0.039
Mof_C 	C 	0.80628	0.56473	0.67105	0
Mof_H 	H 	0.8159	0.6082	0.6608	0.044
Mof_C 	C 	0.77877	0.56485	0.70199	-0.095
Mof_C 	C 	0.76752	0.63361	0.71983	0.363
Mof_Cu	Cu	0.28407	0.28407	0.22665	0.908
Mof_Cu	Cu	0.78407	0.78407	0.72665	0.908
Mof_Cu	Cu	0.71593	0.71593	0.22665	0.908
Mof_Cu	Cu	0.21593	0.21593	0.72665	0.907
Mof_Cu	Cu	0.71593	0.28407	0.22665	0.908
Mof_Cu	Cu	0.21593	0.78407	0.72665	0.908
Mof_Cu	Cu	0.28407	0.71593	0.22665	0.908
Mof_Cu	Cu	0.78407	0.21593	0.72665	0.908
Mof_Cu	Cu	0.71593	0.28407	0.77335	0.908
Mof_Cu	Cu	0.21593	0.78407	0.27335	0.908
Mof_Cu	Cu	0.28407	0.71593	0.77335	0.908
Mof_Cu	Cu	0.78407	0.21593	0.27335	0.908
Mof_Cu	Cu	0.28407	0.28407	0.77335	0.908
Mof_Cu	Cu	0.78407	0.78407	0.27335	0.908
Mof_Cu	Cu	0.71593	0.71593	0.77335	0.908
Mof_Cu	Cu	0.21593	0.21593	0.27335	0.907
Mof_C 	C 	3.56143e-33	0.4263	-0	-0.078
Mof_H 	H 	3.56143e-33	0.3763	-0	0.053
Mof_C 	C 	0.5	0.9263	0.5	-0.085
Mof_H 	H 	0.5	0.8763	0.5	0.057
Mof_C 	C 	-0	0.5737	-0	-0.078
Mof_H 	H 	7.12285e-33	0.6237	-0	0.053
Mof_C 	C 	0.5	0.0737	0.5	-0.067
Mof_H 	H 	0.5	0.1237	0.5	0.05
Mof_C 	C 	0.5737	0	-0	-0.078
Mof_H 	H 	0.6237	0	-0	0.053
Mof_C 	C 	0.0737	0.5	0.5	-0.067
Mof_H 	H 	0.1237	0.5	0.5	0.05
Mof_C 	C 	0.4263	0	-0	-0.078
Mof_H 	H 	0.3763	0	-0	0.053
Mof_C 	C 	0.9263	0.5	0.5	-0.085
Mof_H 	H 	0.8763	0.5	0.5	0.057
Mof_C 	C 	-1.09136e-33	0.4628	0.0295	-0.003
Mof_C 	C 	2.28438e-33	0.4209	0.06085	0.018
Mof_C 	C 	1.00477e-33	0.3516	0.12139	0.051
Mof_C 	C 	4.84133e-33	0.3202	0.15463	-0.035
Mof_C 	C 	5.36478e-33	0.264	0.21787	0.027
Mof_H 	H 	9.09945e-33	0.2446	0.2388	0.05
Mof_C 	C 	0.5	0.9628	0.5295	0.008
Mof_C 	C 	0.5	0.9209	0.56085	0.021
Mof_C 	C 	0.5	0.8516	0.62139	0.059
Mof_C 	C 	0.5	0.8202	0.65463	-0.032
Mof_C 	C 	0.5	0.764	0.71787	0.035
Mof_H 	H 	0.5	0.7446	0.7388	0.049
Mof_C 	C 	6.03149e-33	0.5372	0.0295	-0.003
Mof_C 	C 	9.40723e-33	0.5791	0.06085	0.018
Mof_C 	C 	-6.11808e-33	0.6484	0.12139	0.052
Mof_C 	C 	8.40275e-33	0.6798	0.15463	-0.034
Mof_C 	C 	1.80335e-33	0.736	0.21787	0.027
Mof_H 	H 	9.09945e-33	0.7554	0.2388	0.05
Mof_C 	C 	0.5	0.0372	0.5295	-0.016
Mof_C 	C 	0.5	0.0791	0.56085	0.03
Mof_C 	C 	0.5	0.1484	0.62139	0.055
Mof_C 	C 	0.5	0.1798	0.65463	-0.031
Mof_C 	C 	0.5	0.236	0.71787	0.034
Mof_H 	H 	0.5	0.2554	0.7388	0.049
Mof_C 	C 	0.5372	0	0.0295	-0.003
Mof_C 	C 	0.5791	0	0.06085	0.018
Mof_C 	C 	0.6484	0	0.12139	0.052
Mof_C 	C 	0.6798	3.56143e-33	0.15463	-0.034
Mof_C 	C 	0.736	3.56143e-33	0.21787	0.027
Mof_H 	H 	0.7554	7.12285e-33	0.2388	0.05
Mof_C 	C 	0.0372	0.5	0.5295	-0.016
Mof_C 	C 	0.0791	0.5	0.56085	0.03
Mof_C 	C 	0.1484	0.5	0.62139	0.055
Mof_C 	C 	0.1798	0.5	0.65463	-0.031
Mof_C 	C 	0.236	0.5	0.71787	0.034
Mof_H 	H 	0.2554	0.5	0.7388	0.049
Mof_C 	C 	0.4628	0	0.0295	-0.003
Mof_C 	C 	0.4209	0	0.06085	0.018
Mof_C 	C 	0.3516	0	0.12139	0.051
Mof_C 	C 	0.3202	3.56143e-33	0.15463	-0.035
Mof_C 	C 	0.264	3.56143e-33	0.21787	0.027
Mof_H 	H 	0.2446	7.12285e-33	0.2388	0.05
Mof_C 	C 	0.9628	0.5	0.5295	0.008
Mof_C 	C 	0.9209	0.5	0.56085	0.021
Mof_C 	C 	0.8516	0.5	0.62139	0.059
Mof_C 	C 	0.8202	0.5	0.65463	-0.032
Mof_C 	C 	0.764	0.5	0.71787	0.035
Mof_H 	H 	0.7446	0.5	0.7388	0.049
Mof_C 	C 	3.65244e-32	0.4628	0.9705	-0.003
Mof_C 	C 	2.20192e-32	0.4209	0.93915	0.018
Mof_C 	C 	7.27243e-33	0.3516	0.87861	0.051
Mof_C 	C 	2.1243e-32	0.3202	0.84537	-0.035
Mof_C 	C 	6.47384e-33	0.264	0.78213	0.027
Mof_H 	H 	2.05463e-32	0.2446	0.7612	0.05
Mof_C 	C 	0.5	0.9628	0.4705	0.008
Mof_C 	C 	0.5	0.9209	0.43915	0.021
Mof_C 	C 	0.5	0.8516	0.37861	0.059
Mof_C 	C 	0.5	0.8202	0.34537	-0.032
Mof_C 	C 	0.5	0.764	0.28213	0.035
Mof_H 	H 	0.5	0.7446	0.2612	0.049
Mof_C 	C 	8.03302e-33	0.5372	0.9705	-0.003
Mof_C 	C 	5.05106e-32	0.5791	0.93915	0.018
Mof_C 	C 	3.57638e-32	0.6484	0.87861	0.052
Mof_C 	C 	2.1243e-32	0.6798	0.84537	-0.034
Mof_C 	C 	2.07195e-32	0.736	0.78213	0.027
Mof_H 	H 	2.05463e-32	0.7554	0.7612	0.05
Mof_C 	C 	0.5	0.0372	0.4705	-0.016
Mof_C 	C 	0.5	0.0791	0.43915	0.03
Mof_C 	C 	0.5	0.1484	0.37861	0.055
Mof_C 	C 	0.5	0.1798	0.34537	-0.031
Mof_C 	C 	0.5	0.236	0.28213	0.034
Mof_H 	H 	0.5	0.2554	0.2612	0.049
Mof_C 	C 	0.4628	0	0.9705	-0.003
Mof_C 	C 	0.4209	1.42457e-32	0.93915	0.018
Mof_C 	C 	0.3516	0	0.87861	0.051
Mof_C 	C 	0.3202	0	0.84537	-0.035
Mof_C 	C 	0.264	-1.42457e-32	0.78213	0.027
Mof_H 	H 	0.2446	1.42457e-32	0.7612	0.05
Mof_C 	C 	0.9628	0.5	0.4705	0.008
Mof_C 	C 	0.9209	0.5	0.43915	0.021
Mof_C 	C 	0.8516	0.5	0.37861	0.059
Mof_C 	C 	0.8202	0.5	0.34537	-0.032
Mof_C 	C 	0.764	0.5	0.28213	0.035
Mof_H 	H 	0.7446	0.5	0.2612	0.049
Mof_C 	C 	0.5372	0	0.9705	-0.003
Mof_C 	C 	0.5791	1.42457e-32	0.93915	0.018
Mof_C 	C 	0.6484	0	0.87861	0.052
Mof_C 	C 	0.6798	0	0.84537	-0.034
Mof_C 	C 	0.736	-1.42457e-32	0.78213	0.027
Mof_H 	H 	0.7554	1.42457e-32	0.7612	0.05
Mof_C 	C 	0.0372	0.5	0.4705	-0.016
Mof_C 	C 	0.0791	0.5	0.43915	0.03
Mof_C 	C 	0.1484	0.5	0.37861	0.055
Mof_C 	C 	0.1798	0.5	0.34537	-0.031
Mof_C 	C 	0.236	0.5	0.28213	0.034
Mof_H 	H 	0.2554	0.5	0.2612	0.049
_end
