# CIF file generated by openbabel 3.1.0, see https://openbabel.org
data_I
_chemical_name_common 'image0'
_cell_length_a 7.4821
_cell_length_b 36.6491
_cell_length_c 11.0566
_cell_angle_alpha 90
_cell_angle_beta 99.283
_cell_angle_gamma 90
_space_group_name_H-M_alt 'P 1'
_space_group_name_Hall 'P 1'
loop_
    _symmetry_equiv_pos_as_xyz
    x,y,z
loop_
    _atom_site_label
    _atom_site_type_symbol
    _atom_site_fract_x
    _atom_site_fract_y
    _atom_site_fract_z
    _atom_site_occupancy
    Zn1      Zn       0.06869    0.16585    0.47535    1.000
    O1       O        0.28540    0.15528    0.38180    1.000
    N1       N        0.94330    0.20145    0.33500    1.000
    N2       N        0.19290    0.13128    0.62070    1.000
    N3       N        0.70340    0.28861    0.06500    1.000
    N4       N        0.93070    0.12081    0.38310    1.000
    N5       N        0.46850    0.04434    0.87310    1.000
    N6       N        0.67010    0.03301    0.12440    1.000
    C1       C        0.85600    0.21275    0.24720    1.000
    C2       C        0.74730    0.22260    0.13810    1.000
    C3       C        0.72690    0.25916    0.10320    1.000
    C4       C        0.66190    0.19417    0.05460    1.000
    C5       C        0.66940    0.15765    0.08840    1.000
    H1       H        0.73010    0.15090    0.16740    1.000
    C6       C        0.57010    0.20271    0.93730    1.000
    H2       H        0.56200    0.22750    0.91160    1.000
    C7       C        0.59030    0.13090    0.00950    1.000
    H3       H        0.59920    0.10610    0.03510    1.000
    C8       C        0.49130    0.17605    0.85850    1.000
    H4       H        0.43160    0.18280    0.77920    1.000
    C9       C        0.49730    0.13940    0.89270    1.000
    C10      C        0.40860    0.11097    0.80950    1.000
    C11      C        0.43690    0.07395    0.84110    1.000
    C12      C        0.28840    0.12063    0.70450    1.000
    C13      C        0.85910    0.05490    0.32220    1.000
    C14      C        0.75600    0.04451    0.21220    1.000
    C15      C        0.93180    0.02703    0.41260    1.000
    C16      C        0.90530    0.98982    0.38750    1.000
    H5       H        0.84030    0.98250    0.31030    1.000
    C17      C        0.02890    0.03632    0.52830    1.000
    H6       H        0.04950    0.06130    0.54850    1.000
    C18      C        0.89530    0.09168    0.34990    1.000
    C19      C        0.41400    0.17490    0.33530    1.000
    H7       H        0.42620    0.16550    0.25410    1.000
    H8       H        0.53050    0.17270    0.39010    1.000
    H9       H        0.37810    0.20070    0.32850    1.000
    C20      C        0.35100    0.12380    0.35790    1.000
    H10      H        0.35190    0.10750    0.42820    1.000
    H11      H        0.47510    0.12700    0.34160    1.000
    H12      H        0.27600    0.11320    0.28570    1.000
    O2       O        0.38760    0.08250    0.37440    1.000
    N7       N        0.48030    0.03060    0.48050    1.000
    C21      C        0.46580    0.06630    0.47030    1.000
    H13      H        0.51650    0.08090    0.53850    1.000
    C22      C        0.57240    0.01380    0.59290    1.000
    H14      H        0.67980    0.00070    0.57590    1.000
    H15      H        0.49030    0.99670    0.62410    1.000
    H16      H        0.60910    0.03280    0.65420    1.000
    C23      C        0.40200    0.00580    0.38210    1.000
    H17      H        0.32700    0.01980    0.31720    1.000
    H18      H        0.32670    0.98750    0.41480    1.000
    H19      H        0.49920    0.99350    0.34840    1.000
    Zn2      Zn       0.43131    0.66585    0.02465    1.000
    O3       O        0.21460    0.65528    0.11820    1.000
    N8       N        0.55670    0.70145    0.16500    1.000
    N9       N        0.30710    0.63128    0.87930    1.000
    N10      N        0.79660    0.78861    0.43500    1.000
    N11      N        0.56930    0.62081    0.11690    1.000
    N12      N        0.03150    0.54434    0.62690    1.000
    N13      N        0.82990    0.53301    0.37560    1.000
    C24      C        0.64400    0.71275    0.25280    1.000
    C25      C        0.75270    0.72260    0.36190    1.000
    C26      C        0.77310    0.75916    0.39680    1.000
    C27      C        0.83810    0.69417    0.44540    1.000
    C28      C        0.83060    0.65765    0.41160    1.000
    H20      H        0.76990    0.65090    0.33260    1.000
    C29      C        0.92990    0.70271    0.56270    1.000
    H21      H        0.93800    0.72750    0.58840    1.000
    C30      C        0.90970    0.63090    0.49050    1.000
    H22      H        0.90080    0.60610    0.46490    1.000
    C31      C        0.00870    0.67605    0.64150    1.000
    H23      H        0.06840    0.68280    0.72080    1.000
    C32      C        0.00270    0.63940    0.60730    1.000
    C33      C        0.09140    0.61097    0.69050    1.000
    C34      C        0.06310    0.57395    0.65890    1.000
    C35      C        0.21160    0.62063    0.79550    1.000
    C36      C        0.64090    0.55490    0.17780    1.000
    C37      C        0.74400    0.54451    0.28780    1.000
    C38      C        0.56820    0.52703    0.08740    1.000
    C39      C        0.59470    0.48982    0.11250    1.000
    H24      H        0.65970    0.48250    0.18970    1.000
    C40      C        0.47110    0.53632    0.97170    1.000
    H25      H        0.45050    0.56130    0.95150    1.000
    C41      C        0.60470    0.59168    0.15010    1.000
    C42      C        0.08600    0.67490    0.16470    1.000
    H26      H        0.07380    0.66550    0.24590    1.000
    H27      H        0.96950    0.67270    0.10990    1.000
    H28      H        0.12190    0.70070    0.17150    1.000
    C43      C        0.14900    0.62380    0.14210    1.000
    H29      H        0.14810    0.60750    0.07180    1.000
    H30      H        0.02490    0.62700    0.15840    1.000
    H31      H        0.22400    0.61320    0.21430    1.000
    O4       O        0.11240    0.58250    0.12560    1.000
    N14      N        0.01970    0.53060    0.01950    1.000
    C44      C        0.03420    0.56630    0.02970    1.000
    H32      H        0.98350    0.58090    0.96150    1.000
    C45      C        0.92760    0.51380    0.90710    1.000
    H33      H        0.82020    0.50070    0.92410    1.000
    H34      H        0.00970    0.49670    0.87590    1.000
    H35      H        0.89090    0.53280    0.84580    1.000
    C46      C        0.09800    0.50580    0.11790    1.000
    H36      H        0.17300    0.51980    0.18280    1.000
    H37      H        0.17330    0.48750    0.08520    1.000
    H38      H        0.00080    0.49350    0.15160    1.000
    Zn3      Zn       0.93131    0.83415    0.52465    1.000
    O5       O        0.71460    0.84472    0.61820    1.000
    N15      N        0.05670    0.79855    0.66500    1.000
    N16      N        0.80710    0.86872    0.37930    1.000
    N17      N        0.29660    0.71139    0.93500    1.000
    N18      N        0.06930    0.87919    0.61690    1.000
    N19      N        0.53150    0.95566    0.12690    1.000
    N20      N        0.32990    0.96699    0.87560    1.000
    C47      C        0.14400    0.78725    0.75280    1.000
    C48      C        0.25270    0.77740    0.86190    1.000
    C49      C        0.27310    0.74084    0.89680    1.000
    C50      C        0.33810    0.80583    0.94540    1.000
    C51      C        0.33060    0.84235    0.91160    1.000
    H39      H        0.26990    0.84910    0.83260    1.000
    C52      C        0.42990    0.79729    0.06270    1.000
    H40      H        0.43800    0.77250    0.08840    1.000
    C53      C        0.40970    0.86910    0.99050    1.000
    H41      H        0.40080    0.89390    0.96490    1.000
    C54      C        0.50870    0.82395    0.14150    1.000
    H42      H        0.56840    0.81720    0.22080    1.000
    C55      C        0.50270    0.86060    0.10730    1.000
    C56      C        0.59140    0.88903    0.19050    1.000
    C57      C        0.56310    0.92605    0.15890    1.000
    C58      C        0.71160    0.87937    0.29550    1.000
    C59      C        0.14090    0.94510    0.67780    1.000
    C60      C        0.24400    0.95549    0.78780    1.000
    C61      C        0.06820    0.97297    0.58740    1.000
    C62      C        0.09470    0.01018    0.61250    1.000
    H43      H        0.15970    0.01750    0.68970    1.000
    C63      C        0.97110    0.96368    0.47170    1.000
    H44      H        0.95050    0.93870    0.45150    1.000
    C64      C        0.10470    0.90832    0.65010    1.000
    C65      C        0.58600    0.82510    0.66470    1.000
    H45      H        0.57380    0.83450    0.74590    1.000
    H46      H        0.46950    0.82730    0.60990    1.000
    H47      H        0.62190    0.79930    0.67150    1.000
    C66      C        0.64900    0.87620    0.64210    1.000
    H48      H        0.64810    0.89250    0.57180    1.000
    H49      H        0.52490    0.87300    0.65840    1.000
    H50      H        0.72400    0.88680    0.71430    1.000
    O6       O        0.61240    0.91750    0.62560    1.000
    N21      N        0.51970    0.96940    0.51950    1.000
    C67      C        0.53420    0.93370    0.52970    1.000
    H51      H        0.48350    0.91910    0.46150    1.000
    C68      C        0.42760    0.98620    0.40710    1.000
    H52      H        0.32020    0.99930    0.42410    1.000
    H53      H        0.50970    0.00330    0.37590    1.000
    H54      H        0.39090    0.96720    0.34580    1.000
    C69      C        0.59800    0.99420    0.61790    1.000
    H55      H        0.67300    0.98020    0.68280    1.000
    H56      H        0.67330    0.01250    0.58520    1.000
    H57      H        0.50080    0.00650    0.65160    1.000
    Zn4      Zn       0.56869    0.33415    0.97535    1.000
    O7       O        0.78540    0.34472    0.88180    1.000
    N22      N        0.44330    0.29855    0.83500    1.000
    N23      N        0.69290    0.36872    0.12070    1.000
    N24      N        0.20340    0.21139    0.56500    1.000
    N25      N        0.43070    0.37919    0.88310    1.000
    N26      N        0.96850    0.45566    0.37310    1.000
    N27      N        0.17010    0.46699    0.62440    1.000
    C70      C        0.35600    0.28725    0.74720    1.000
    C71      C        0.24730    0.27740    0.63810    1.000
    C72      C        0.22690    0.24084    0.60320    1.000
    C73      C        0.16190    0.30583    0.55460    1.000
    C74      C        0.16940    0.34235    0.58840    1.000
    H58      H        0.23010    0.34910    0.66740    1.000
    C75      C        0.07010    0.29729    0.43730    1.000
    H59      H        0.06200    0.27250    0.41160    1.000
    C76      C        0.09030    0.36910    0.50950    1.000
    H60      H        0.09920    0.39390    0.53510    1.000
    C77      C        0.99130    0.32395    0.35850    1.000
    H61      H        0.93160    0.31720    0.27920    1.000
    C78      C        0.99730    0.36060    0.39270    1.000
    C79      C        0.90860    0.38903    0.30950    1.000
    C80      C        0.93690    0.42605    0.34110    1.000
    C81      C        0.78840    0.37937    0.20450    1.000
    C82      C        0.35910    0.44510    0.82220    1.000
    C83      C        0.25600    0.45549    0.71220    1.000
    C84      C        0.43180    0.47297    0.91260    1.000
    C85      C        0.40530    0.51018    0.88750    1.000
    H62      H        0.34030    0.51750    0.81030    1.000
    C86      C        0.52890    0.46368    0.02830    1.000
    H63      H        0.54950    0.43870    0.04850    1.000
    C87      C        0.39530    0.40832    0.84990    1.000
    C88      C        0.91400    0.32510    0.83530    1.000
    H64      H        0.92620    0.33450    0.75410    1.000
    H65      H        0.03050    0.32730    0.89010    1.000
    H66      H        0.87810    0.29930    0.82850    1.000
    C89      C        0.85100    0.37620    0.85790    1.000
    H67      H        0.85190    0.39250    0.92820    1.000
    H68      H        0.97510    0.37300    0.84160    1.000
    H69      H        0.77600    0.38680    0.78570    1.000
    O8       O        0.88760    0.41750    0.87440    1.000
    N28      N        0.98030    0.46940    0.98050    1.000
    C90      C        0.96580    0.43370    0.97030    1.000
    H70      H        0.01650    0.41910    0.03850    1.000
    C91      C        0.07240    0.48620    0.09290    1.000
    H71      H        0.17980    0.49930    0.07590    1.000
    H72      H        0.99030    0.50330    0.12410    1.000
    H73      H        0.10910    0.46720    0.15420    1.000
    C92      C        0.90200    0.49420    0.88210    1.000
    H74      H        0.82700    0.48020    0.81720    1.000
    H75      H        0.82670    0.51250    0.91480    1.000
    H76      H        0.99920    0.50650    0.84840    1.000
    Zn5      Zn       0.50000    0.00000    0.00000    1.000
    Zn6      Zn       0.00000    0.50000    0.50000    1.000
