# CIF file generated by openbabel 3.1.0, see https://openbabel.org
data_I
_chemical_name_common 'YASNAJ_clean'
_cell_length_a 15.6167
_cell_length_b 15.6167
_cell_length_c 16.7178
_cell_angle_alpha 100.835
_cell_angle_beta 100.835
_cell_angle_gamma 119.905
_space_group_name_H-M_alt 'P 1'
_space_group_name_Hall 'P 1'
loop_
    _symmetry_equiv_pos_as_xyz
    x,y,z
loop_
    _atom_site_label
    _atom_site_type_symbol
    _atom_site_fract_x
    _atom_site_fract_y
    _atom_site_fract_z
    _atom_site_occupancy
    Co1      Co       0.50495    0.06877    0.62081    1.000
    Co2      Co       0.93123    0.49505    0.87919    1.000
    Co3      Co       0.49505    0.93123    0.37919    1.000
    Co4      Co       0.06877    0.50495    0.12081    1.000
    H1       H        0.66280    0.30440    0.65390    1.000
    H2       H        0.66830    0.45270    0.65760    1.000
    H3       H        0.35720    0.28540    0.57980    1.000
    H4       H        0.35930    0.13930    0.57520    1.000
    H5       H        0.64990    0.56630    0.60110    1.000
    H6       H        0.64730    0.71190    0.60350    1.000
    H7       H        0.37430    0.57910    0.64610    1.000
    H8       H        0.37860    0.43400    0.64680    1.000
    H9       H        0.66320    0.86360    0.67780    1.000
    H10      H        0.65530    0.00530    0.67950    1.000
    H11      H        0.35330    0.83050    0.58050    1.000
    H12      H        0.35240    0.68380    0.57550    1.000
    H13      H        0.77560    0.04580    0.46310    1.000
    H14      H        0.94940    0.13560    0.47410    1.000
    H15      H        0.00830    0.37690    0.66210    1.000
    H16      H        0.83520    0.28380    0.65640    1.000
    H17      H        0.10640    0.24980    0.40250    1.000
    H18      H        0.08660    0.29540    0.28070    1.000
    H19      H        0.12760    0.55820    0.41960    1.000
    H20      H        0.14240    0.51180    0.54060    1.000
    H21      H        0.69560    0.33720    0.84610    1.000
    H22      H        0.54730    0.33170    0.84240    1.000
    H23      H        0.71460    0.64280    0.92020    1.000
    H24      H        0.86070    0.64070    0.92480    1.000
    H25      H        0.43370    0.35010    0.89890    1.000
    H26      H        0.28810    0.35270    0.89650    1.000
    H27      H        0.42090    0.62570    0.85390    1.000
    H28      H        0.56600    0.62140    0.85320    1.000
    H29      H        0.13640    0.33680    0.82220    1.000
    H30      H        0.99470    0.34470    0.82050    1.000
    H31      H        0.16950    0.64670    0.91950    1.000
    H32      H        0.31620    0.64760    0.92450    1.000
    H33      H        0.95420    0.22440    0.03690    1.000
    H34      H        0.86440    0.05060    0.02590    1.000
    H35      H        0.62310    0.99170    0.83790    1.000
    H36      H        0.71620    0.16480    0.84360    1.000
    H37      H        0.75020    0.89360    0.09750    1.000
    H38      H        0.70460    0.91340    0.21930    1.000
    H39      H        0.44180    0.87240    0.08040    1.000
    H40      H        0.48820    0.85760    0.95940    1.000
    H41      H        0.33720    0.69560    0.34610    1.000
    H42      H        0.33170    0.54730    0.34240    1.000
    H43      H        0.64280    0.71460    0.42020    1.000
    H44      H        0.64070    0.86070    0.42480    1.000
    H45      H        0.35010    0.43370    0.39890    1.000
    H46      H        0.35270    0.28810    0.39650    1.000
    H47      H        0.62570    0.42090    0.35390    1.000
    H48      H        0.62140    0.56600    0.35320    1.000
    H49      H        0.33680    0.13640    0.32220    1.000
    H50      H        0.34470    0.99470    0.32050    1.000
    H51      H        0.64670    0.16950    0.41950    1.000
    H52      H        0.64760    0.31620    0.42450    1.000
    H53      H        0.22440    0.95420    0.53690    1.000
    H54      H        0.05060    0.86440    0.52590    1.000
    H55      H        0.99170    0.62310    0.33790    1.000
    H56      H        0.16480    0.71620    0.34360    1.000
    H57      H        0.89360    0.75020    0.59750    1.000
    H58      H        0.91340    0.70460    0.71930    1.000
    H59      H        0.87240    0.44180    0.58040    1.000
    H60      H        0.85760    0.48820    0.45940    1.000
    H61      H        0.30440    0.66280    0.15390    1.000
    H62      H        0.45270    0.66830    0.15760    1.000
    H63      H        0.28540    0.35720    0.07980    1.000
    H64      H        0.13930    0.35930    0.07520    1.000
    H65      H        0.56630    0.64990    0.10110    1.000
    H66      H        0.71190    0.64730    0.10350    1.000
    H67      H        0.57910    0.37430    0.14610    1.000
    H68      H        0.43400    0.37860    0.14680    1.000
    H69      H        0.86360    0.66320    0.17780    1.000
    H70      H        0.00530    0.65530    0.17950    1.000
    H71      H        0.83050    0.35330    0.08050    1.000
    H72      H        0.68380    0.35240    0.07550    1.000
    H73      H        0.04580    0.77560    0.96310    1.000
    H74      H        0.13560    0.94940    0.97410    1.000
    H75      H        0.37690    0.00830    0.16210    1.000
    H76      H        0.28380    0.83520    0.15640    1.000
    H77      H        0.24980    0.10640    0.90250    1.000
    H78      H        0.29540    0.08660    0.78070    1.000
    H79      H        0.55820    0.12760    0.91960    1.000
    H80      H        0.51180    0.14240    0.04060    1.000
    C1       C        0.59995    0.30005    0.63860    1.000
    C2       C        0.60389    0.38971    0.64110    1.000
    C3       C        0.51282    0.38778    0.61950    1.000
    C4       C        0.42089    0.29151    0.59500    1.000
    C5       C        0.42290    0.20370    0.59300    1.000
    C6       C        0.51319    0.48301    0.62250    1.000
    C7       C        0.59401    0.56839    0.61030    1.000
    C8       C        0.59235    0.65565    0.61170    1.000
    C9       C        0.51042    0.66138    0.62510    1.000
    C10      C        0.43047    0.57713    0.63740    1.000
    C11      C        0.43268    0.48952    0.63700    1.000
    C12      C        0.50860    0.75520    0.62610    1.000
    C13      C        0.59851    0.85429    0.65710    1.000
    C14      C        0.59318    0.93942    0.65760    1.000
    C15      C        0.41699    0.83741    0.59980    1.000
    C16      C        0.41573    0.74867    0.59700    1.000
    C17      C        0.67445    0.09615    0.55260    1.000
    C18      C        0.78822    0.15518    0.55959    1.000
    C19      C        0.82276    0.11184    0.50430    1.000
    C20      C        0.92555    0.16545    0.51000    1.000
    C21      C        0.99380    0.26480    0.56970    1.000
    C22      C        0.96130    0.30950    0.62310    1.000
    C23      C        0.85792    0.25428    0.61910    1.000
    C24      C        0.12364    0.37596    0.48350    1.000
    C25      C        0.10892    0.31108    0.40550    1.000
    C26      C        0.09798    0.33902    0.33330    1.000
    C27      C        0.10363    0.43037    0.33720    1.000
    C28      C        0.12171    0.49529    0.41600    1.000
    C29      C        0.13104    0.46796    0.48810    1.000
    C30      C        0.08851    0.45829    0.25660    1.000
    C31      C        0.69995    0.40005    0.86140    1.000
    C32      C        0.61029    0.39611    0.85890    1.000
    C33      C        0.61222    0.48718    0.88050    1.000
    C34      C        0.70849    0.57911    0.90500    1.000
    C35      C        0.79630    0.57710    0.90700    1.000
    C36      C        0.51699    0.48681    0.87750    1.000
    C37      C        0.43161    0.40599    0.88970    1.000
    C38      C        0.34435    0.40765    0.88830    1.000
    C39      C        0.33862    0.48958    0.87490    1.000
    C40      C        0.42287    0.56953    0.86260    1.000
    C41      C        0.51048    0.56732    0.86300    1.000
    C42      C        0.24480    0.49140    0.87390    1.000
    C43      C        0.14571    0.40149    0.84290    1.000
    C44      C        0.06058    0.40682    0.84240    1.000
    C45      C        0.16259    0.58301    0.90020    1.000
    C46      C        0.25133    0.58427    0.90300    1.000
    C47      C        0.90385    0.32555    0.94740    1.000
    C48      C        0.84482    0.21178    0.94041    1.000
    C49      C        0.88816    0.17724    0.99570    1.000
    C50      C        0.83455    0.07445    0.99000    1.000
    C51      C        0.73520    0.00620    0.93030    1.000
    C52      C        0.69050    0.03870    0.87690    1.000
    C53      C        0.74572    0.14208    0.88090    1.000
    C54      C        0.62404    0.87636    0.01650    1.000
    C55      C        0.68892    0.89108    0.09450    1.000
    C56      C        0.66098    0.90202    0.16670    1.000
    C57      C        0.56963    0.89637    0.16280    1.000
    C58      C        0.50471    0.87829    0.08400    1.000
    C59      C        0.53204    0.86896    0.01190    1.000
    C60      C        0.54171    0.91149    0.24340    1.000
    C61      C        0.40005    0.69995    0.36140    1.000
    C62      C        0.39611    0.61029    0.35890    1.000
    C63      C        0.48718    0.61222    0.38050    1.000
    C64      C        0.57911    0.70849    0.40500    1.000
    C65      C        0.57710    0.79630    0.40700    1.000
    C66      C        0.48681    0.51699    0.37750    1.000
    C67      C        0.40599    0.43161    0.38970    1.000
    C68      C        0.40765    0.34435    0.38830    1.000
    C69      C        0.48958    0.33862    0.37490    1.000
    C70      C        0.56953    0.42287    0.36260    1.000
    C71      C        0.56732    0.51048    0.36300    1.000
    C72      C        0.49140    0.24480    0.37390    1.000
    C73      C        0.40149    0.14571    0.34290    1.000
    C74      C        0.40682    0.06058    0.34240    1.000
    C75      C        0.58301    0.16259    0.40020    1.000
    C76      C        0.58427    0.25133    0.40300    1.000
    C77      C        0.32555    0.90385    0.44740    1.000
    C78      C        0.21178    0.84482    0.44041    1.000
    C79      C        0.17724    0.88816    0.49570    1.000
    C80      C        0.07445    0.83455    0.49000    1.000
    C81      C        0.00620    0.73520    0.43030    1.000
    C82      C        0.03870    0.69050    0.37690    1.000
    C83      C        0.14208    0.74572    0.38090    1.000
    C84      C        0.87636    0.62404    0.51650    1.000
    C85      C        0.89108    0.68892    0.59450    1.000
    C86      C        0.90202    0.66098    0.66670    1.000
    C87      C        0.89637    0.56963    0.66280    1.000
    C88      C        0.87829    0.50471    0.58400    1.000
    C89      C        0.86896    0.53204    0.51190    1.000
    C90      C        0.91149    0.54171    0.74340    1.000
    C91      C        0.30005    0.59995    0.13860    1.000
    C92      C        0.38971    0.60389    0.14110    1.000
    C93      C        0.38778    0.51282    0.11950    1.000
    C94      C        0.29151    0.42089    0.09500    1.000
    C95      C        0.20370    0.42290    0.09300    1.000
    C96      C        0.48301    0.51319    0.12250    1.000
    C97      C        0.56839    0.59401    0.11030    1.000
    C98      C        0.65565    0.59235    0.11170    1.000
    C99      C        0.66138    0.51042    0.12510    1.000
    C100     C        0.57713    0.43047    0.13740    1.000
    C101     C        0.48952    0.43268    0.13700    1.000
    C102     C        0.75520    0.50860    0.12610    1.000
    C103     C        0.85429    0.59851    0.15710    1.000
    C104     C        0.93942    0.59318    0.15760    1.000
    C105     C        0.83741    0.41699    0.09980    1.000
    C106     C        0.74867    0.41573    0.09700    1.000
    C107     C        0.09615    0.67445    0.05260    1.000
    C108     C        0.15518    0.78822    0.05959    1.000
    C109     C        0.11184    0.82276    0.00430    1.000
    C110     C        0.16545    0.92555    0.01000    1.000
    C111     C        0.26480    0.99380    0.06970    1.000
    C112     C        0.30950    0.96130    0.12310    1.000
    C113     C        0.25428    0.85792    0.11910    1.000
    C114     C        0.37596    0.12364    0.98350    1.000
    C115     C        0.31108    0.10892    0.90550    1.000
    C116     C        0.33902    0.09798    0.83330    1.000
    C117     C        0.43037    0.10363    0.83720    1.000
    C118     C        0.49529    0.12171    0.91600    1.000
    C119     C        0.46796    0.13104    0.98810    1.000
    C120     C        0.45829    0.08851    0.75660    1.000
    S1       S        0.12752    0.33602    0.57537    1.000
    S2       S        0.66398    0.87248    0.92463    1.000
    S3       S        0.87248    0.66398    0.42463    1.000
    S4       S        0.33602    0.12752    0.07537    1.000
    N1       N        0.51081    0.20631    0.61525    1.000
    N2       N        0.50363    0.93287    0.62840    1.000
    N3       N        0.79369    0.48919    0.88475    1.000
    N4       N        0.06713    0.49637    0.87160    1.000
    N5       N        0.48919    0.79369    0.38475    1.000
    N6       N        0.49637    0.06713    0.37160    1.000
    N7       N        0.20631    0.51081    0.11525    1.000
    N8       N        0.93287    0.50363    0.12840    1.000
    O1       O        0.61386    0.01164    0.49248    1.000
    O2       O        0.64949    0.13577    0.60859    1.000
    O3       O        0.16057    0.26623    0.56500    1.000
    O4       O        0.18490    0.42710    0.65020    1.000
    O5       O        0.03546    0.38708    0.18633    1.000
    O6       O        0.12919    0.55259    0.26163    1.000
    O7       O        0.98836    0.38614    0.00752    1.000
    O8       O        0.86423    0.35051    0.89141    1.000
    O9       O        0.73377    0.83943    0.93500    1.000
    O10      O        0.57290    0.81510    0.84980    1.000
    O11      O        0.61292    0.96454    0.31367    1.000
    O12      O        0.44741    0.87081    0.23837    1.000
    O13      O        0.38614    0.98836    0.50752    1.000
    O14      O        0.35051    0.86423    0.39141    1.000
    O15      O        0.83943    0.73377    0.43500    1.000
    O16      O        0.81510    0.57290    0.34980    1.000
    O17      O        0.96454    0.61292    0.81367    1.000
    O18      O        0.87081    0.44741    0.73837    1.000
    O19      O        0.01164    0.61386    0.99248    1.000
    O20      O        0.13577    0.64949    0.10859    1.000
    O21      O        0.26623    0.16057    0.06500    1.000
    O22      O        0.42710    0.18490    0.15020    1.000
    O23      O        0.38708    0.03546    0.68633    1.000
    O24      O        0.55259    0.12919    0.76163    1.000
