# CIF file generated by openbabel 3.1.0, see https://openbabel.org
data_I
_chemical_name_common 'image0'
_cell_length_a 23.7715
_cell_length_b 23.7715
_cell_length_c 14.1007
_cell_angle_alpha 90
_cell_angle_beta 90
_cell_angle_gamma 90
_space_group_name_H-M_alt 'P 1'
_space_group_name_Hall 'P 1'
loop_
    _symmetry_equiv_pos_as_xyz
    x,y,z
loop_
    _atom_site_label
    _atom_site_type_symbol
    _atom_site_fract_x
    _atom_site_fract_y
    _atom_site_fract_z
    _atom_site_occupancy
    Ag1      Ag       0.04852    0.23302    0.10694    1.000
    S1       S        0.06955    0.14891    0.98959    1.000
    C1       C        0.00640    0.12510    0.93800    1.000
    C2       C        0.95920    0.11040    0.99240    1.000
    C3       C        0.09100    0.08870    0.05440    1.000
    C4       C        0.08880    0.09080    0.15430    1.000
    H1       H        0.07470    0.12360    0.18450    1.000
    C5       C        0.00350    0.12260    0.83790    1.000
    H2       H        0.03600    0.13190    0.80180    1.000
    C6       C        0.10680    0.04570    0.20960    1.000
    O1       O        0.96090    0.11660    0.08780    1.000
    C7       C        0.93680    0.16870    0.11710    1.000
    H3       H        0.89560    0.16760    0.10790    1.000
    H4       H        0.95210    0.19960    0.07770    1.000
    C8       C        0.95000    0.17960    0.21990    1.000
    N1       N        0.99750    0.20770    0.24020    1.000
    C9       C        0.01000    0.21890    0.33010    1.000
    H5       H        0.04500    0.23650    0.34370    1.000
    C10      C        0.97480    0.20620    0.40390    1.000
    H6       H        0.98410    0.21690    0.46690    1.000
    C11      C        0.92520    0.17730    0.38460    1.000
    H7       H        0.90110    0.16590    0.43480    1.000
    C12      C        0.91110    0.16520    0.28990    1.000
    H8       H        0.87630    0.14780    0.27420    1.000
    C13      C        0.11190    0.05070    0.31690    1.000
    C14      C        0.17490    0.06650    0.33720    1.000
    H9       H        0.19050    0.08630    0.28230    1.000
    H10      H        0.17680    0.09100    0.39310    1.000
    H11      H        0.19660    0.03220    0.34900    1.000
    C15      C        0.07630    0.09920    0.35730    1.000
    H12      H        0.03630    0.09060    0.34920    1.000
    H13      H        0.08470    0.10390    0.42490    1.000
    H14      H        0.08540    0.13410    0.32350    1.000
    C16      C        0.09730    0.99440    0.36370    1.000
    H15      H        0.12540    0.96620    0.34590    1.000
    H16      H        0.09700    0.99900    0.43270    1.000
    H17      H        0.06000    0.98210    0.34220    1.000
    C17      C        0.00240    0.12700    0.62800    1.000
    C18      C        0.92700    0.05220    0.65600    1.000
    C19      C        0.90210    0.15560    0.66100    1.000
    H18      H        0.02890    0.14600    0.67090    1.000
    H19      H        0.99270    0.15210    0.57570    1.000
    H20      H        0.01970    0.09270    0.60340    1.000
    H21      H        0.91850    0.05110    0.58840    1.000
    H22      H        0.89330    0.04380    0.69290    1.000
    H23      H        0.95630    0.02410    0.67060    1.000
    H24      H        0.87420    0.15510    0.71230    1.000
    H25      H        0.88380    0.14580    0.60110    1.000
    H26      H        0.91860    0.19330    0.65630    1.000
    Ag2      Ag       0.54852    0.73302    0.60694    1.000
    S2       S        0.56955    0.64891    0.48959    1.000
    C20      C        0.50640    0.62510    0.43800    1.000
    C21      C        0.45920    0.61040    0.49240    1.000
    C22      C        0.59100    0.58870    0.55440    1.000
    C23      C        0.58880    0.59080    0.65430    1.000
    H27      H        0.57470    0.62360    0.68450    1.000
    C24      C        0.50350    0.62260    0.33790    1.000
    H28      H        0.53600    0.63190    0.30180    1.000
    C25      C        0.60680    0.54570    0.70960    1.000
    O2       O        0.46090    0.61660    0.58780    1.000
    C26      C        0.43680    0.66870    0.61710    1.000
    H29      H        0.39560    0.66760    0.60790    1.000
    H30      H        0.45210    0.69960    0.57770    1.000
    C27      C        0.45000    0.67960    0.71990    1.000
    N2       N        0.49750    0.70770    0.74020    1.000
    C28      C        0.51000    0.71890    0.83010    1.000
    H31      H        0.54500    0.73650    0.84370    1.000
    C29      C        0.47480    0.70620    0.90390    1.000
    H32      H        0.48410    0.71690    0.96690    1.000
    C30      C        0.42520    0.67730    0.88460    1.000
    H33      H        0.40110    0.66590    0.93480    1.000
    C31      C        0.41110    0.66520    0.78990    1.000
    H34      H        0.37630    0.64780    0.77420    1.000
    C32      C        0.61190    0.55070    0.81690    1.000
    C33      C        0.67490    0.56650    0.83720    1.000
    H35      H        0.69050    0.58630    0.78230    1.000
    H36      H        0.67680    0.59100    0.89310    1.000
    H37      H        0.69660    0.53220    0.84900    1.000
    C34      C        0.57630    0.59920    0.85730    1.000
    H38      H        0.53630    0.59060    0.84920    1.000
    H39      H        0.58470    0.60390    0.92490    1.000
    H40      H        0.58540    0.63410    0.82350    1.000
    C35      C        0.59730    0.49440    0.86370    1.000
    H41      H        0.62540    0.46620    0.84590    1.000
    H42      H        0.59700    0.49900    0.93270    1.000
    H43      H        0.56000    0.48210    0.84220    1.000
    C36      C        0.50240    0.62700    0.12800    1.000
    C37      C        0.42700    0.55220    0.15600    1.000
    C38      C        0.40210    0.65560    0.16100    1.000
    H44      H        0.52890    0.64600    0.17090    1.000
    H45      H        0.49270    0.65210    0.07570    1.000
    H46      H        0.51970    0.59270    0.10340    1.000
    H47      H        0.41850    0.55110    0.08840    1.000
    H48      H        0.39330    0.54380    0.19290    1.000
    H49      H        0.45630    0.52410    0.17060    1.000
    H50      H        0.37420    0.65510    0.21230    1.000
    H51      H        0.38380    0.64580    0.10110    1.000
    H52      H        0.41860    0.69330    0.15630    1.000
    Ag3      Ag       0.95148    0.76698    0.10694    1.000
    S3       S        0.93045    0.85109    0.98959    1.000
    C39      C        0.99360    0.87490    0.93800    1.000
    C40      C        0.04080    0.88960    0.99240    1.000
    C41      C        0.90900    0.91130    0.05440    1.000
    C42      C        0.91120    0.90920    0.15430    1.000
    H53      H        0.92530    0.87640    0.18450    1.000
    C43      C        0.99650    0.87740    0.83790    1.000
    H54      H        0.96400    0.86810    0.80180    1.000
    C44      C        0.89320    0.95430    0.20960    1.000
    O3       O        0.03910    0.88340    0.08780    1.000
    C45      C        0.06320    0.83130    0.11710    1.000
    H55      H        0.10440    0.83240    0.10790    1.000
    H56      H        0.04790    0.80040    0.07770    1.000
    C46      C        0.05000    0.82040    0.21990    1.000
    N3       N        0.00250    0.79230    0.24020    1.000
    C47      C        0.99000    0.78110    0.33010    1.000
    H57      H        0.95500    0.76350    0.34370    1.000
    C48      C        0.02520    0.79380    0.40390    1.000
    H58      H        0.01590    0.78310    0.46690    1.000
    C49      C        0.07480    0.82270    0.38460    1.000
    H59      H        0.09890    0.83410    0.43480    1.000
    C50      C        0.08890    0.83480    0.28990    1.000
    H60      H        0.12370    0.85220    0.27420    1.000
    C51      C        0.88810    0.94930    0.31690    1.000
    C52      C        0.82510    0.93350    0.33720    1.000
    H61      H        0.80950    0.91370    0.28230    1.000
    H62      H        0.82320    0.90900    0.39310    1.000
    H63      H        0.80340    0.96780    0.34900    1.000
    C53      C        0.92370    0.90080    0.35730    1.000
    H64      H        0.96370    0.90940    0.34920    1.000
    H65      H        0.91530    0.89610    0.42490    1.000
    H66      H        0.91460    0.86590    0.32350    1.000
    C54      C        0.90270    0.00560    0.36370    1.000
    H67      H        0.87460    0.03380    0.34590    1.000
    H68      H        0.90300    0.00100    0.43270    1.000
    H69      H        0.94000    0.01790    0.34220    1.000
    C55      C        0.99760    0.87300    0.62800    1.000
    C56      C        0.07300    0.94780    0.65600    1.000
    C57      C        0.09790    0.84440    0.66100    1.000
    H70      H        0.97110    0.85400    0.67090    1.000
    H71      H        0.00730    0.84790    0.57570    1.000
    H72      H        0.98030    0.90730    0.60340    1.000
    H73      H        0.08150    0.94890    0.58840    1.000
    H74      H        0.10670    0.95620    0.69290    1.000
    H75      H        0.04370    0.97590    0.67060    1.000
    H76      H        0.12580    0.84490    0.71230    1.000
    H77      H        0.11620    0.85420    0.60110    1.000
    H78      H        0.08140    0.80670    0.65630    1.000
    Ag4      Ag       0.45148    0.26698    0.60694    1.000
    S4       S        0.43045    0.35109    0.48959    1.000
    C58      C        0.49360    0.37490    0.43800    1.000
    C59      C        0.54080    0.38960    0.49240    1.000
    C60      C        0.40900    0.41130    0.55440    1.000
    C61      C        0.41120    0.40920    0.65430    1.000
    H79      H        0.42530    0.37640    0.68450    1.000
    C62      C        0.49650    0.37740    0.33790    1.000
    H80      H        0.46400    0.36810    0.30180    1.000
    C63      C        0.39320    0.45430    0.70960    1.000
    O4       O        0.53910    0.38340    0.58780    1.000
    C64      C        0.56320    0.33130    0.61710    1.000
    H81      H        0.60440    0.33240    0.60790    1.000
    H82      H        0.54790    0.30040    0.57770    1.000
    C65      C        0.55000    0.32040    0.71990    1.000
    N4       N        0.50250    0.29230    0.74020    1.000
    C66      C        0.49000    0.28110    0.83010    1.000
    H83      H        0.45500    0.26350    0.84370    1.000
    C67      C        0.52520    0.29380    0.90390    1.000
    H84      H        0.51590    0.28310    0.96690    1.000
    C68      C        0.57480    0.32270    0.88460    1.000
    H85      H        0.59890    0.33410    0.93480    1.000
    C69      C        0.58890    0.33480    0.78990    1.000
    H86      H        0.62370    0.35220    0.77420    1.000
    C70      C        0.38810    0.44930    0.81690    1.000
    C71      C        0.32510    0.43350    0.83720    1.000
    H87      H        0.30950    0.41370    0.78230    1.000
    H88      H        0.32320    0.40900    0.89310    1.000
    H89      H        0.30340    0.46780    0.84900    1.000
    C72      C        0.42370    0.40080    0.85730    1.000
    H90      H        0.46370    0.40940    0.84920    1.000
    H91      H        0.41530    0.39610    0.92490    1.000
    H92      H        0.41460    0.36590    0.82350    1.000
    C73      C        0.40270    0.50560    0.86370    1.000
    H93      H        0.37460    0.53380    0.84590    1.000
    H94      H        0.40300    0.50100    0.93270    1.000
    H95      H        0.44000    0.51790    0.84220    1.000
    C74      C        0.49760    0.37300    0.12800    1.000
    C75      C        0.57300    0.44780    0.15600    1.000
    C76      C        0.59790    0.34440    0.16100    1.000
    H96      H        0.47110    0.35400    0.17090    1.000
    H97      H        0.50730    0.34790    0.07570    1.000
    H98      H        0.48030    0.40730    0.10340    1.000
    H99      H        0.58150    0.44890    0.08840    1.000
    H100     H        0.60670    0.45620    0.19290    1.000
    H101     H        0.54370    0.47590    0.17060    1.000
    H102     H        0.62580    0.34490    0.21230    1.000
    H103     H        0.61620    0.35420    0.10110    1.000
    H104     H        0.58140    0.30670    0.15630    1.000
    Ag5      Ag       0.23302    0.95148    0.89306    1.000
    S5       S        0.14891    0.93045    0.01041    1.000
    C77      C        0.12510    0.99360    0.06200    1.000
    C78      C        0.11040    0.04080    0.00760    1.000
    C79      C        0.08870    0.90900    0.94560    1.000
    C80      C        0.09080    0.91120    0.84570    1.000
    H105     H        0.12360    0.92530    0.81550    1.000
    C81      C        0.12260    0.99650    0.16210    1.000
    H106     H        0.13190    0.96400    0.19820    1.000
    C82      C        0.04570    0.89320    0.79040    1.000
    O5       O        0.11660    0.03910    0.91220    1.000
    C83      C        0.16870    0.06320    0.88290    1.000
    H107     H        0.16760    0.10440    0.89210    1.000
    H108     H        0.19960    0.04790    0.92230    1.000
    C84      C        0.17960    0.05000    0.78010    1.000
    N5       N        0.20770    0.00250    0.75980    1.000
    C85      C        0.21890    0.99000    0.66990    1.000
    H109     H        0.23650    0.95500    0.65630    1.000
    C86      C        0.20620    0.02520    0.59610    1.000
    H110     H        0.21690    0.01590    0.53310    1.000
    C87      C        0.17730    0.07480    0.61540    1.000
    H111     H        0.16590    0.09890    0.56520    1.000
    C88      C        0.16520    0.08890    0.71010    1.000
    H112     H        0.14780    0.12370    0.72580    1.000
    C89      C        0.05070    0.88810    0.68310    1.000
    C90      C        0.06650    0.82510    0.66280    1.000
    H113     H        0.08630    0.80950    0.71770    1.000
    H114     H        0.09100    0.82320    0.60690    1.000
    H115     H        0.03220    0.80340    0.65100    1.000
    C91      C        0.09920    0.92370    0.64270    1.000
    H116     H        0.09060    0.96370    0.65080    1.000
    H117     H        0.10390    0.91530    0.57510    1.000
    H118     H        0.13410    0.91460    0.67650    1.000
    C92      C        0.99440    0.90270    0.63630    1.000
    H119     H        0.96620    0.87460    0.65410    1.000
    H120     H        0.99900    0.90300    0.56730    1.000
    H121     H        0.98210    0.94000    0.65780    1.000
    C93      C        0.12700    0.99760    0.37200    1.000
    C94      C        0.05220    0.07300    0.34400    1.000
    C95      C        0.15560    0.09790    0.33900    1.000
    H122     H        0.14600    0.97110    0.32910    1.000
    H123     H        0.15210    0.00730    0.42430    1.000
    H124     H        0.09270    0.98030    0.39660    1.000
    H125     H        0.05110    0.08150    0.41160    1.000
    H126     H        0.04380    0.10670    0.30710    1.000
    H127     H        0.02410    0.04370    0.32940    1.000
    H128     H        0.15510    0.12580    0.28770    1.000
    H129     H        0.14580    0.11620    0.39890    1.000
    H130     H        0.19330    0.08140    0.34370    1.000
    Ag6      Ag       0.73302    0.45148    0.39306    1.000
    S6       S        0.64891    0.43045    0.51041    1.000
    C96      C        0.62510    0.49360    0.56200    1.000
    C97      C        0.61040    0.54080    0.50760    1.000
    C98      C        0.58870    0.40900    0.44560    1.000
    C99      C        0.59080    0.41120    0.34570    1.000
    H131     H        0.62360    0.42530    0.31550    1.000
    C100     C        0.62260    0.49650    0.66210    1.000
    H132     H        0.63190    0.46400    0.69820    1.000
    C101     C        0.54570    0.39320    0.29040    1.000
    O6       O        0.61660    0.53910    0.41220    1.000
    C102     C        0.66870    0.56320    0.38290    1.000
    H133     H        0.66760    0.60440    0.39210    1.000
    H134     H        0.69960    0.54790    0.42230    1.000
    C103     C        0.67960    0.55000    0.28010    1.000
    N6       N        0.70770    0.50250    0.25980    1.000
    C104     C        0.71890    0.49000    0.16990    1.000
    H135     H        0.73650    0.45500    0.15630    1.000
    C105     C        0.70620    0.52520    0.09610    1.000
    H136     H        0.71690    0.51590    0.03310    1.000
    C106     C        0.67730    0.57480    0.11540    1.000
    H137     H        0.66590    0.59890    0.06520    1.000
    C107     C        0.66520    0.58890    0.21010    1.000
    H138     H        0.64780    0.62370    0.22580    1.000
    C108     C        0.55070    0.38810    0.18310    1.000
    C109     C        0.56650    0.32510    0.16280    1.000
    H139     H        0.58630    0.30950    0.21770    1.000
    H140     H        0.59100    0.32320    0.10690    1.000
    H141     H        0.53220    0.30340    0.15100    1.000
    C110     C        0.59920    0.42370    0.14270    1.000
    H142     H        0.59060    0.46370    0.15080    1.000
    H143     H        0.60390    0.41530    0.07510    1.000
    H144     H        0.63410    0.41460    0.17650    1.000
    C111     C        0.49440    0.40270    0.13630    1.000
    H145     H        0.46620    0.37460    0.15410    1.000
    H146     H        0.49900    0.40300    0.06730    1.000
    H147     H        0.48210    0.44000    0.15780    1.000
    C112     C        0.62700    0.49760    0.87200    1.000
    C113     C        0.55220    0.57300    0.84400    1.000
    C114     C        0.65560    0.59790    0.83900    1.000
    H148     H        0.64600    0.47110    0.82910    1.000
    H149     H        0.65210    0.50730    0.92430    1.000
    H150     H        0.59270    0.48030    0.89660    1.000
    H151     H        0.55110    0.58150    0.91160    1.000
    H152     H        0.54380    0.60670    0.80710    1.000
    H153     H        0.52410    0.54370    0.82940    1.000
    H154     H        0.65510    0.62580    0.78770    1.000
    H155     H        0.64580    0.61620    0.89890    1.000
    H156     H        0.69330    0.58140    0.84370    1.000
    Ag7      Ag       0.76698    0.04852    0.89306    1.000
    S7       S        0.85109    0.06955    0.01041    1.000
    C115     C        0.87490    0.00640    0.06200    1.000
    C116     C        0.88960    0.95920    0.00760    1.000
    C117     C        0.91130    0.09100    0.94560    1.000
    C118     C        0.90920    0.08880    0.84570    1.000
    H157     H        0.87640    0.07470    0.81550    1.000
    C119     C        0.87740    0.00350    0.16210    1.000
    H158     H        0.86810    0.03600    0.19820    1.000
    C120     C        0.95430    0.10680    0.79040    1.000
    O7       O        0.88340    0.96090    0.91220    1.000
    C121     C        0.83130    0.93680    0.88290    1.000
    H159     H        0.83240    0.89560    0.89210    1.000
    H160     H        0.80040    0.95210    0.92230    1.000
    C122     C        0.82040    0.95000    0.78010    1.000
    N7       N        0.79230    0.99750    0.75980    1.000
    C123     C        0.78110    0.01000    0.66990    1.000
    H161     H        0.76350    0.04500    0.65630    1.000
    C124     C        0.79380    0.97480    0.59610    1.000
    H162     H        0.78310    0.98410    0.53310    1.000
    C125     C        0.82270    0.92520    0.61540    1.000
    H163     H        0.83410    0.90110    0.56520    1.000
    C126     C        0.83480    0.91110    0.71010    1.000
    H164     H        0.85220    0.87630    0.72580    1.000
    C127     C        0.94930    0.11190    0.68310    1.000
    C128     C        0.93350    0.17490    0.66280    1.000
    H165     H        0.91370    0.19050    0.71770    1.000
    H166     H        0.90900    0.17680    0.60690    1.000
    H167     H        0.96780    0.19660    0.65100    1.000
    C129     C        0.90080    0.07630    0.64270    1.000
    H168     H        0.90940    0.03630    0.65080    1.000
    H169     H        0.89610    0.08470    0.57510    1.000
    H170     H        0.86590    0.08540    0.67650    1.000
    C130     C        0.00560    0.09730    0.63630    1.000
    H171     H        0.03380    0.12540    0.65410    1.000
    H172     H        0.00100    0.09700    0.56730    1.000
    H173     H        0.01790    0.06000    0.65780    1.000
    C131     C        0.87300    0.00240    0.37200    1.000
    C132     C        0.94780    0.92700    0.34400    1.000
    C133     C        0.84440    0.90210    0.33900    1.000
    H174     H        0.85400    0.02890    0.32910    1.000
    H175     H        0.84790    0.99270    0.42430    1.000
    H176     H        0.90730    0.01970    0.39660    1.000
    H177     H        0.94890    0.91850    0.41160    1.000
    H178     H        0.95620    0.89330    0.30710    1.000
    H179     H        0.97590    0.95630    0.32940    1.000
    H180     H        0.84490    0.87420    0.28770    1.000
    H181     H        0.85420    0.88380    0.39890    1.000
    H182     H        0.80670    0.91860    0.34370    1.000
    Ag8      Ag       0.26698    0.54852    0.39306    1.000
    S8       S        0.35109    0.56955    0.51041    1.000
    C134     C        0.37490    0.50640    0.56200    1.000
    C135     C        0.38960    0.45920    0.50760    1.000
    C136     C        0.41130    0.59100    0.44560    1.000
    C137     C        0.40920    0.58880    0.34570    1.000
    H183     H        0.37640    0.57470    0.31550    1.000
    C138     C        0.37740    0.50350    0.66210    1.000
    H184     H        0.36810    0.53600    0.69820    1.000
    C139     C        0.45430    0.60680    0.29040    1.000
    O8       O        0.38340    0.46090    0.41220    1.000
    C140     C        0.33130    0.43680    0.38290    1.000
    H185     H        0.33240    0.39560    0.39210    1.000
    H186     H        0.30040    0.45210    0.42230    1.000
    C141     C        0.32040    0.45000    0.28010    1.000
    N8       N        0.29230    0.49750    0.25980    1.000
    C142     C        0.28110    0.51000    0.16990    1.000
    H187     H        0.26350    0.54500    0.15630    1.000
    C143     C        0.29380    0.47480    0.09610    1.000
    H188     H        0.28310    0.48410    0.03310    1.000
    C144     C        0.32270    0.42520    0.11540    1.000
    H189     H        0.33410    0.40110    0.06520    1.000
    C145     C        0.33480    0.41110    0.21010    1.000
    H190     H        0.35220    0.37630    0.22580    1.000
    C146     C        0.44930    0.61190    0.18310    1.000
    C147     C        0.43350    0.67490    0.16280    1.000
    H191     H        0.41370    0.69050    0.21770    1.000
    H192     H        0.40900    0.67680    0.10690    1.000
    H193     H        0.46780    0.69660    0.15100    1.000
    C148     C        0.40080    0.57630    0.14270    1.000
    H194     H        0.40940    0.53630    0.15080    1.000
    H195     H        0.39610    0.58470    0.07510    1.000
    H196     H        0.36590    0.58540    0.17650    1.000
    C149     C        0.50560    0.59730    0.13630    1.000
    H197     H        0.53380    0.62540    0.15410    1.000
    H198     H        0.50100    0.59700    0.06730    1.000
    H199     H        0.51790    0.56000    0.15780    1.000
    C150     C        0.37300    0.50240    0.87200    1.000
    C151     C        0.44780    0.42700    0.84400    1.000
    C152     C        0.34440    0.40210    0.83900    1.000
    H200     H        0.35400    0.52890    0.82910    1.000
    H201     H        0.34790    0.49270    0.92430    1.000
    H202     H        0.40730    0.51970    0.89660    1.000
    H203     H        0.44890    0.41850    0.91160    1.000
    H204     H        0.45620    0.39330    0.80710    1.000
    H205     H        0.47590    0.45630    0.82940    1.000
    H206     H        0.34490    0.37420    0.78770    1.000
    H207     H        0.35420    0.38380    0.89890    1.000
    H208     H        0.30670    0.41860    0.84370    1.000
    Ag9      Ag       0.45148    0.23302    0.64306    1.000
    S9       S        0.43045    0.14891    0.76041    1.000
    C153     C        0.49360    0.12510    0.81200    1.000
    C154     C        0.54080    0.11040    0.75760    1.000
    C155     C        0.40900    0.08870    0.69560    1.000
    C156     C        0.41120    0.09080    0.59570    1.000
    H209     H        0.42530    0.12360    0.56550    1.000
    C157     C        0.49650    0.12260    0.91210    1.000
    H210     H        0.46400    0.13190    0.94820    1.000
    C158     C        0.39320    0.04570    0.54040    1.000
    O9       O        0.53910    0.11660    0.66220    1.000
    C159     C        0.56320    0.16870    0.63290    1.000
    H211     H        0.60440    0.16760    0.64210    1.000
    H212     H        0.54790    0.19960    0.67230    1.000
    C160     C        0.55000    0.17960    0.53010    1.000
    N9       N        0.50250    0.20770    0.50980    1.000
    C161     C        0.49000    0.21890    0.41990    1.000
    H213     H        0.45500    0.23650    0.40630    1.000
    C162     C        0.52520    0.20620    0.34610    1.000
    H214     H        0.51590    0.21690    0.28310    1.000
    C163     C        0.57480    0.17730    0.36540    1.000
    H215     H        0.59890    0.16590    0.31520    1.000
    C164     C        0.58890    0.16520    0.46010    1.000
    H216     H        0.62370    0.14780    0.47580    1.000
    C165     C        0.38810    0.05070    0.43310    1.000
    C166     C        0.32510    0.06650    0.41280    1.000
    H217     H        0.30950    0.08630    0.46770    1.000
    H218     H        0.32320    0.09100    0.35690    1.000
    H219     H        0.30340    0.03220    0.40100    1.000
    C167     C        0.42370    0.09920    0.39270    1.000
    H220     H        0.46370    0.09060    0.40080    1.000
    H221     H        0.41530    0.10390    0.32510    1.000
    H222     H        0.41460    0.13410    0.42650    1.000
    C168     C        0.40270    0.99440    0.38630    1.000
    H223     H        0.37460    0.96620    0.40410    1.000
    H224     H        0.40300    0.99900    0.31730    1.000
    H225     H        0.44000    0.98210    0.40780    1.000
    C169     C        0.49760    0.12700    0.12200    1.000
    C170     C        0.57300    0.05220    0.09400    1.000
    C171     C        0.59790    0.15560    0.08900    1.000
    H226     H        0.47110    0.14600    0.07910    1.000
    H227     H        0.50730    0.15210    0.17430    1.000
    H228     H        0.48030    0.09270    0.14660    1.000
    H229     H        0.58150    0.05110    0.16160    1.000
    H230     H        0.60670    0.04380    0.05710    1.000
    H231     H        0.54370    0.02410    0.07940    1.000
    H232     H        0.62580    0.15510    0.03770    1.000
    H233     H        0.61620    0.14580    0.14890    1.000
    H234     H        0.58140    0.19330    0.09370    1.000
    Ag10     Ag       0.95148    0.73302    0.14306    1.000
    S10      S        0.93045    0.64891    0.26041    1.000
    C172     C        0.99360    0.62510    0.31200    1.000
    C173     C        0.04080    0.61040    0.25760    1.000
    C174     C        0.90900    0.58870    0.19560    1.000
    C175     C        0.91120    0.59080    0.09570    1.000
    H235     H        0.92530    0.62360    0.06550    1.000
    C176     C        0.99650    0.62260    0.41210    1.000
    H236     H        0.96400    0.63190    0.44820    1.000
    C177     C        0.89320    0.54570    0.04040    1.000
    O10      O        0.03910    0.61660    0.16220    1.000
    C178     C        0.06320    0.66870    0.13290    1.000
    H237     H        0.10440    0.66760    0.14210    1.000
    H238     H        0.04790    0.69960    0.17230    1.000
    C179     C        0.05000    0.67960    0.03010    1.000
    N10      N        0.00250    0.70770    0.00980    1.000
    C180     C        0.99000    0.71890    0.91990    1.000
    H239     H        0.95500    0.73650    0.90630    1.000
    C181     C        0.02520    0.70620    0.84610    1.000
    H240     H        0.01590    0.71690    0.78310    1.000
    C182     C        0.07480    0.67730    0.86540    1.000
    H241     H        0.09890    0.66590    0.81520    1.000
    C183     C        0.08890    0.66520    0.96010    1.000
    H242     H        0.12370    0.64780    0.97580    1.000
    C184     C        0.88810    0.55070    0.93310    1.000
    C185     C        0.82510    0.56650    0.91280    1.000
    H243     H        0.80950    0.58630    0.96770    1.000
    H244     H        0.82320    0.59100    0.85690    1.000
    H245     H        0.80340    0.53220    0.90100    1.000
    C186     C        0.92370    0.59920    0.89270    1.000
    H246     H        0.96370    0.59060    0.90080    1.000
    H247     H        0.91530    0.60390    0.82510    1.000
    H248     H        0.91460    0.63410    0.92650    1.000
    C187     C        0.90270    0.49440    0.88630    1.000
    H249     H        0.87460    0.46620    0.90410    1.000
    H250     H        0.90300    0.49900    0.81730    1.000
    H251     H        0.94000    0.48210    0.90780    1.000
    C188     C        0.99760    0.62700    0.62200    1.000
    C189     C        0.07300    0.55220    0.59400    1.000
    C190     C        0.09790    0.65560    0.58900    1.000
    H252     H        0.97110    0.64600    0.57910    1.000
    H253     H        0.00730    0.65210    0.67430    1.000
    H254     H        0.98030    0.59270    0.64660    1.000
    H255     H        0.08150    0.55110    0.66160    1.000
    H256     H        0.10670    0.54380    0.55710    1.000
    H257     H        0.04370    0.52410    0.57940    1.000
    H258     H        0.12580    0.65510    0.53770    1.000
    H259     H        0.11620    0.64580    0.64890    1.000
    H260     H        0.08140    0.69330    0.59370    1.000
    Ag11     Ag       0.54852    0.76698    0.64306    1.000
    S11      S        0.56955    0.85109    0.76041    1.000
    C191     C        0.50640    0.87490    0.81200    1.000
    C192     C        0.45920    0.88960    0.75760    1.000
    C193     C        0.59100    0.91130    0.69560    1.000
    C194     C        0.58880    0.90920    0.59570    1.000
    H261     H        0.57470    0.87640    0.56550    1.000
    C195     C        0.50350    0.87740    0.91210    1.000
    H262     H        0.53600    0.86810    0.94820    1.000
    C196     C        0.60680    0.95430    0.54040    1.000
    O11      O        0.46090    0.88340    0.66220    1.000
    C197     C        0.43680    0.83130    0.63290    1.000
    H263     H        0.39560    0.83240    0.64210    1.000
    H264     H        0.45210    0.80040    0.67230    1.000
    C198     C        0.45000    0.82040    0.53010    1.000
    N11      N        0.49750    0.79230    0.50980    1.000
    C199     C        0.51000    0.78110    0.41990    1.000
    H265     H        0.54500    0.76350    0.40630    1.000
    C200     C        0.47480    0.79380    0.34610    1.000
    H266     H        0.48410    0.78310    0.28310    1.000
    C201     C        0.42520    0.82270    0.36540    1.000
    H267     H        0.40110    0.83410    0.31520    1.000
    C202     C        0.41110    0.83480    0.46010    1.000
    H268     H        0.37630    0.85220    0.47580    1.000
    C203     C        0.61190    0.94930    0.43310    1.000
    C204     C        0.67490    0.93350    0.41280    1.000
    H269     H        0.69050    0.91370    0.46770    1.000
    H270     H        0.67680    0.90900    0.35690    1.000
    H271     H        0.69660    0.96780    0.40100    1.000
    C205     C        0.57630    0.90080    0.39270    1.000
    H272     H        0.53630    0.90940    0.40080    1.000
    H273     H        0.58470    0.89610    0.32510    1.000
    H274     H        0.58540    0.86590    0.42650    1.000
    C206     C        0.59730    0.00560    0.38630    1.000
    H275     H        0.62540    0.03380    0.40410    1.000
    H276     H        0.59700    0.00100    0.31730    1.000
    H277     H        0.56000    0.01790    0.40780    1.000
    C207     C        0.50240    0.87300    0.12200    1.000
    C208     C        0.42700    0.94780    0.09400    1.000
    C209     C        0.40210    0.84440    0.08900    1.000
    H278     H        0.52890    0.85400    0.07910    1.000
    H279     H        0.49270    0.84790    0.17430    1.000
    H280     H        0.51970    0.90730    0.14660    1.000
    H281     H        0.41850    0.94890    0.16160    1.000
    H282     H        0.39330    0.95620    0.05710    1.000
    H283     H        0.45630    0.97590    0.07940    1.000
    H284     H        0.37420    0.84490    0.03770    1.000
    H285     H        0.38380    0.85420    0.14890    1.000
    H286     H        0.41860    0.80670    0.09370    1.000
    Ag12     Ag       0.04852    0.26698    0.14306    1.000
    S12      S        0.06955    0.35109    0.26041    1.000
    C210     C        0.00640    0.37490    0.31200    1.000
    C211     C        0.95920    0.38960    0.25760    1.000
    C212     C        0.09100    0.41130    0.19560    1.000
    C213     C        0.08880    0.40920    0.09570    1.000
    H287     H        0.07470    0.37640    0.06550    1.000
    C214     C        0.00350    0.37740    0.41210    1.000
    H288     H        0.03600    0.36810    0.44820    1.000
    C215     C        0.10680    0.45430    0.04040    1.000
    O12      O        0.96090    0.38340    0.16220    1.000
    C216     C        0.93680    0.33130    0.13290    1.000
    H289     H        0.89560    0.33240    0.14210    1.000
    H290     H        0.95210    0.30040    0.17230    1.000
    C217     C        0.95000    0.32040    0.03010    1.000
    N12      N        0.99750    0.29230    0.00980    1.000
    C218     C        0.01000    0.28110    0.91990    1.000
    H291     H        0.04500    0.26350    0.90630    1.000
    C219     C        0.97480    0.29380    0.84610    1.000
    H292     H        0.98410    0.28310    0.78310    1.000
    C220     C        0.92520    0.32270    0.86540    1.000
    H293     H        0.90110    0.33410    0.81520    1.000
    C221     C        0.91110    0.33480    0.96010    1.000
    H294     H        0.87630    0.35220    0.97580    1.000
    C222     C        0.11190    0.44930    0.93310    1.000
    C223     C        0.17490    0.43350    0.91280    1.000
    H295     H        0.19050    0.41370    0.96770    1.000
    H296     H        0.17680    0.40900    0.85690    1.000
    H297     H        0.19660    0.46780    0.90100    1.000
    C224     C        0.07630    0.40080    0.89270    1.000
    H298     H        0.03630    0.40940    0.90080    1.000
    H299     H        0.08470    0.39610    0.82510    1.000
    H300     H        0.08540    0.36590    0.92650    1.000
    C225     C        0.09730    0.50560    0.88630    1.000
    H301     H        0.12540    0.53380    0.90410    1.000
    H302     H        0.09700    0.50100    0.81730    1.000
    H303     H        0.06000    0.51790    0.90780    1.000
    C226     C        0.00240    0.37300    0.62200    1.000
    C227     C        0.92700    0.44780    0.59400    1.000
    C228     C        0.90210    0.34440    0.58900    1.000
    H304     H        0.02890    0.35400    0.57910    1.000
    H305     H        0.99270    0.34790    0.67430    1.000
    H306     H        0.01970    0.40730    0.64660    1.000
    H307     H        0.91850    0.44890    0.66160    1.000
    H308     H        0.89330    0.45620    0.55710    1.000
    H309     H        0.95630    0.47590    0.57940    1.000
    H310     H        0.87420    0.34490    0.53770    1.000
    H311     H        0.88380    0.35420    0.64890    1.000
    H312     H        0.91860    0.30670    0.59370    1.000
    Ag13     Ag       0.26698    0.95148    0.85694    1.000
    S13      S        0.35109    0.93045    0.73959    1.000
    C229     C        0.37490    0.99360    0.68800    1.000
    C230     C        0.38960    0.04080    0.74240    1.000
    C231     C        0.41130    0.90900    0.80440    1.000
    C232     C        0.40920    0.91120    0.90430    1.000
    H313     H        0.37640    0.92530    0.93450    1.000
    C233     C        0.37740    0.99650    0.58790    1.000
    H314     H        0.36810    0.96400    0.55180    1.000
    C234     C        0.45430    0.89320    0.95960    1.000
    O13      O        0.38340    0.03910    0.83780    1.000
    C235     C        0.33130    0.06320    0.86710    1.000
    H315     H        0.33240    0.10440    0.85790    1.000
    H316     H        0.30040    0.04790    0.82770    1.000
    C236     C        0.32040    0.05000    0.96990    1.000
    N13      N        0.29230    0.00250    0.99020    1.000
    C237     C        0.28110    0.99000    0.08010    1.000
    H317     H        0.26350    0.95500    0.09370    1.000
    C238     C        0.29380    0.02520    0.15390    1.000
    H318     H        0.28310    0.01590    0.21690    1.000
    C239     C        0.32270    0.07480    0.13460    1.000
    H319     H        0.33410    0.09890    0.18480    1.000
    C240     C        0.33480    0.08890    0.03990    1.000
    H320     H        0.35220    0.12370    0.02420    1.000
    C241     C        0.44930    0.88810    0.06690    1.000
    C242     C        0.43350    0.82510    0.08720    1.000
    H321     H        0.41370    0.80950    0.03230    1.000
    H322     H        0.40900    0.82320    0.14310    1.000
    H323     H        0.46780    0.80340    0.09900    1.000
    C243     C        0.40080    0.92370    0.10730    1.000
    H324     H        0.40940    0.96370    0.09920    1.000
    H325     H        0.39610    0.91530    0.17490    1.000
    H326     H        0.36590    0.91460    0.07350    1.000
    C244     C        0.50560    0.90270    0.11370    1.000
    H327     H        0.53380    0.87460    0.09590    1.000
    H328     H        0.50100    0.90300    0.18270    1.000
    H329     H        0.51790    0.94000    0.09220    1.000
    C245     C        0.37300    0.99760    0.37800    1.000
    C246     C        0.44780    0.07300    0.40600    1.000
    C247     C        0.34440    0.09790    0.41100    1.000
    H330     H        0.35400    0.97110    0.42090    1.000
    H331     H        0.34790    0.00730    0.32570    1.000
    H332     H        0.40730    0.98030    0.35340    1.000
    H333     H        0.44890    0.08150    0.33840    1.000
    H334     H        0.45620    0.10670    0.44290    1.000
    H335     H        0.47590    0.04370    0.42060    1.000
    H336     H        0.34490    0.12580    0.46230    1.000
    H337     H        0.35420    0.11620    0.35110    1.000
    H338     H        0.30670    0.08140    0.40630    1.000
    Ag14     Ag       0.76698    0.45148    0.35694    1.000
    S14      S        0.85109    0.43045    0.23959    1.000
    C248     C        0.87490    0.49360    0.18800    1.000
    C249     C        0.88960    0.54080    0.24240    1.000
    C250     C        0.91130    0.40900    0.30440    1.000
    C251     C        0.90920    0.41120    0.40430    1.000
    H339     H        0.87640    0.42530    0.43450    1.000
    C252     C        0.87740    0.49650    0.08790    1.000
    H340     H        0.86810    0.46400    0.05180    1.000
    C253     C        0.95430    0.39320    0.45960    1.000
    O14      O        0.88340    0.53910    0.33780    1.000
    C254     C        0.83130    0.56320    0.36710    1.000
    H341     H        0.83240    0.60440    0.35790    1.000
    H342     H        0.80040    0.54790    0.32770    1.000
    C255     C        0.82040    0.55000    0.46990    1.000
    N14      N        0.79230    0.50250    0.49020    1.000
    C256     C        0.78110    0.49000    0.58010    1.000
    H343     H        0.76350    0.45500    0.59370    1.000
    C257     C        0.79380    0.52520    0.65390    1.000
    H344     H        0.78310    0.51590    0.71690    1.000
    C258     C        0.82270    0.57480    0.63460    1.000
    H345     H        0.83410    0.59890    0.68480    1.000
    C259     C        0.83480    0.58890    0.53990    1.000
    H346     H        0.85220    0.62370    0.52420    1.000
    C260     C        0.94930    0.38810    0.56690    1.000
    C261     C        0.93350    0.32510    0.58720    1.000
    H347     H        0.91370    0.30950    0.53230    1.000
    H348     H        0.90900    0.32320    0.64310    1.000
    H349     H        0.96780    0.30340    0.59900    1.000
    C262     C        0.90080    0.42370    0.60730    1.000
    H350     H        0.90940    0.46370    0.59920    1.000
    H351     H        0.89610    0.41530    0.67490    1.000
    H352     H        0.86590    0.41460    0.57350    1.000
    C263     C        0.00560    0.40270    0.61370    1.000
    H353     H        0.03380    0.37460    0.59590    1.000
    H354     H        0.00100    0.40300    0.68270    1.000
    H355     H        0.01790    0.44000    0.59220    1.000
    C264     C        0.87300    0.49760    0.87800    1.000
    C265     C        0.94780    0.57300    0.90600    1.000
    C266     C        0.84440    0.59790    0.91100    1.000
    H356     H        0.85400    0.47110    0.92090    1.000
    H357     H        0.84790    0.50730    0.82570    1.000
    H358     H        0.90730    0.48030    0.85340    1.000
    H359     H        0.94890    0.58150    0.83840    1.000
    H360     H        0.95620    0.60670    0.94290    1.000
    H361     H        0.97590    0.54370    0.92060    1.000
    H362     H        0.84490    0.62580    0.96230    1.000
    H363     H        0.85420    0.61620    0.85110    1.000
    H364     H        0.80670    0.58140    0.90630    1.000
    Ag15     Ag       0.73302    0.04852    0.85694    1.000
    S15      S        0.64891    0.06955    0.73959    1.000
    C267     C        0.62510    0.00640    0.68800    1.000
    C268     C        0.61040    0.95920    0.74240    1.000
    C269     C        0.58870    0.09100    0.80440    1.000
    C270     C        0.59080    0.08880    0.90430    1.000
    H365     H        0.62360    0.07470    0.93450    1.000
    C271     C        0.62260    0.00350    0.58790    1.000
    H366     H        0.63190    0.03600    0.55180    1.000
    C272     C        0.54570    0.10680    0.95960    1.000
    O15      O        0.61660    0.96090    0.83780    1.000
    C273     C        0.66870    0.93680    0.86710    1.000
    H367     H        0.66760    0.89560    0.85790    1.000
    H368     H        0.69960    0.95210    0.82770    1.000
    C274     C        0.67960    0.95000    0.96990    1.000
    N15      N        0.70770    0.99750    0.99020    1.000
    C275     C        0.71890    0.01000    0.08010    1.000
    H369     H        0.73650    0.04500    0.09370    1.000
    C276     C        0.70620    0.97480    0.15390    1.000
    H370     H        0.71690    0.98410    0.21690    1.000
    C277     C        0.67730    0.92520    0.13460    1.000
    H371     H        0.66590    0.90110    0.18480    1.000
    C278     C        0.66520    0.91110    0.03990    1.000
    H372     H        0.64780    0.87630    0.02420    1.000
    C279     C        0.55070    0.11190    0.06690    1.000
    C280     C        0.56650    0.17490    0.08720    1.000
    H373     H        0.58630    0.19050    0.03230    1.000
    H374     H        0.59100    0.17680    0.14310    1.000
    H375     H        0.53220    0.19660    0.09900    1.000
    C281     C        0.59920    0.07630    0.10730    1.000
    H376     H        0.59060    0.03630    0.09920    1.000
    H377     H        0.60390    0.08470    0.17490    1.000
    H378     H        0.63410    0.08540    0.07350    1.000
    C282     C        0.49440    0.09730    0.11370    1.000
    H379     H        0.46620    0.12540    0.09590    1.000
    H380     H        0.49900    0.09700    0.18270    1.000
    H381     H        0.48210    0.06000    0.09220    1.000
    C283     C        0.62700    0.00240    0.37800    1.000
    C284     C        0.55220    0.92700    0.40600    1.000
    C285     C        0.65560    0.90210    0.41100    1.000
    H382     H        0.64600    0.02890    0.42090    1.000
    H383     H        0.65210    0.99270    0.32570    1.000
    H384     H        0.59270    0.01970    0.35340    1.000
    H385     H        0.55110    0.91850    0.33840    1.000
    H386     H        0.54380    0.89330    0.44290    1.000
    H387     H        0.52410    0.95630    0.42060    1.000
    H388     H        0.65510    0.87420    0.46230    1.000
    H389     H        0.64580    0.88380    0.35110    1.000
    H390     H        0.69330    0.91860    0.40630    1.000
    Ag16     Ag       0.23302    0.54852    0.35694    1.000
    S16      S        0.14891    0.56955    0.23959    1.000
    C286     C        0.12510    0.50640    0.18800    1.000
    C287     C        0.11040    0.45920    0.24240    1.000
    C288     C        0.08870    0.59100    0.30440    1.000
    C289     C        0.09080    0.58880    0.40430    1.000
    H391     H        0.12360    0.57470    0.43450    1.000
    C290     C        0.12260    0.50350    0.08790    1.000
    H392     H        0.13190    0.53600    0.05180    1.000
    C291     C        0.04570    0.60680    0.45960    1.000
    O16      O        0.11660    0.46090    0.33780    1.000
    C292     C        0.16870    0.43680    0.36710    1.000
    H393     H        0.16760    0.39560    0.35790    1.000
    H394     H        0.19960    0.45210    0.32770    1.000
    C293     C        0.17960    0.45000    0.46990    1.000
    N16      N        0.20770    0.49750    0.49020    1.000
    C294     C        0.21890    0.51000    0.58010    1.000
    H395     H        0.23650    0.54500    0.59370    1.000
    C295     C        0.20620    0.47480    0.65390    1.000
    H396     H        0.21690    0.48410    0.71690    1.000
    C296     C        0.17730    0.42520    0.63460    1.000
    H397     H        0.16590    0.40110    0.68480    1.000
    C297     C        0.16520    0.41110    0.53990    1.000
    H398     H        0.14780    0.37630    0.52420    1.000
    C298     C        0.05070    0.61190    0.56690    1.000
    C299     C        0.06650    0.67490    0.58720    1.000
    H399     H        0.08630    0.69050    0.53230    1.000
    H400     H        0.09100    0.67680    0.64310    1.000
    H401     H        0.03220    0.69660    0.59900    1.000
    C300     C        0.09920    0.57630    0.60730    1.000
    H402     H        0.09060    0.53630    0.59920    1.000
    H403     H        0.10390    0.58470    0.67490    1.000
    H404     H        0.13410    0.58540    0.57350    1.000
    C301     C        0.99440    0.59730    0.61370    1.000
    H405     H        0.96620    0.62540    0.59590    1.000
    H406     H        0.99900    0.59700    0.68270    1.000
    H407     H        0.98210    0.56000    0.59220    1.000
    C302     C        0.12700    0.50240    0.87800    1.000
    C303     C        0.05220    0.42700    0.90600    1.000
    C304     C        0.15560    0.40210    0.91100    1.000
    H408     H        0.14600    0.52890    0.92090    1.000
    H409     H        0.15210    0.49270    0.82570    1.000
    H410     H        0.09270    0.51970    0.85340    1.000
    H411     H        0.05110    0.41850    0.83840    1.000
    H412     H        0.04380    0.39330    0.94290    1.000
    H413     H        0.02410    0.45630    0.92060    1.000
    H414     H        0.15510    0.37420    0.96230    1.000
    H415     H        0.14580    0.38380    0.85110    1.000
    H416     H        0.19330    0.41860    0.90630    1.000
