data_functionalizedCrystal
_audit_creation_method	'EQeq! by Chris Wilmer'
_symmetry_space_group_name_H-M	'P1'
_symmetry_Int_Tables_number	1
_symmetry_cell_setting	triclinic
loop_
_symmetry_equiv_pos_as_xyz
  x,y,z
_cell_length_a	9.2091
_cell_length_b	22.7532
_cell_length_c	23.0902
_cell_angle_alpha	90
_cell_angle_beta	90
_cell_angle_gamma	90
loop_
_atom_site_label
_atom_site_type_symbol
_atom_site_fract_x
_atom_site_fract_y
_atom_site_fract_z
_atom_site_charge
Mof_Cu	Cu	0.38884	0.03282	0.53264	0.826
Mof_N 	N 	0.4913	0.0518	0.6027	-0.3
Mof_N 	N 	0.2599	0.0057	0.9878	-0.293
Mof_C 	C 	0.5506	0.0101	0.6356	0.164
Mof_H 	H 	0.5509	0.9716	0.6222	-0.046
Mof_C 	C 	0.6118	0.0222	0.6889	-0.321
Mof_H 	H 	0.6523	0.9916	0.7102	0.141
Mof_C 	C 	0.6143	0.0766	0.7108	0.313
Mof_C 	C 	0.5572	0.1198	0.6759	-0.318
Mof_H 	H 	0.5596	0.1587	0.6882	0.154
Mof_C 	C 	0.4965	0.1061	0.6232	0.173
Mof_H 	H 	0.4574	0.1364	0.6009	-0.037
Mof_C 	C 	0.6638	0.0887	0.7713	-0.466
Mof_H 	H 	0.6896	0.1298	0.775	0.173
Mof_H 	H 	0.7494	0.0654	0.7797	0.164
Mof_C 	C 	0.5441	0.0737	0.8142	0.223
Mof_H 	H 	0.4615	0.0991	0.8068	-0.037
Mof_H 	H 	0.5131	0.0335	0.8075	-0.042
Mof_C 	C 	0.587	0.0799	0.8768	-0.407
Mof_H 	H 	0.6015	0.1212	0.8857	0.149
Mof_H 	H 	0.6781	0.0596	0.8833	0.113
Mof_C 	C 	0.2783	0.063	0.9835	0.155
Mof_H 	H 	0.2179	0.0873	0.0051	-0.042
Mof_C 	C 	0.3808	0.0886	0.9491	-0.283
Mof_H 	H 	0.3887	0.1293	0.9479	0.136
Mof_C 	C 	0.4717	0.0548	0.9165	0.252
Mof_C 	C 	0.4527	0.9943	0.9208	-0.273
Mof_H 	H 	0.5116	0.9692	0.8994	0.12
Mof_C 	C 	0.3493	0.9718	0.9559	0.151
Mof_H 	H 	0.3395	0.9311	0.9582	-0.029
Mof_Cu	Cu	0.11116	0.96718	0.03264	0.824
Mof_N 	N 	0.0087	0.9482	0.1027	-0.302
Mof_N 	N 	0.2401	0.9943	0.4878	-0.294
Mof_C 	C 	0.9494	0.9899	0.1356	0.165
Mof_H 	H 	0.9491	0.0284	0.1222	-0.048
Mof_C 	C 	0.8882	0.9778	0.1889	-0.321
Mof_H 	H 	0.8477	0.0084	0.2102	0.139
Mof_C 	C 	0.8857	0.9234	0.2108	0.311
Mof_C 	C 	0.9428	0.8802	0.1759	-0.315
Mof_H 	H 	0.9404	0.8413	0.1882	0.152
Mof_C 	C 	0.0035	0.8939	0.1232	0.169
Mof_H 	H 	0.0426	0.8636	0.1009	-0.036
Mof_C 	C 	0.8362	0.9113	0.2713	-0.466
Mof_H 	H 	0.8104	0.8702	0.275	0.173
Mof_H 	H 	0.7506	0.9346	0.2797	0.164
Mof_C 	C 	0.9559	0.9263	0.3142	0.225
Mof_H 	H 	0.0385	0.9009	0.3068	-0.038
Mof_H 	H 	0.9869	0.9665	0.3075	-0.042
Mof_C 	C 	0.913	0.9201	0.3768	-0.405
Mof_H 	H 	0.8985	0.8788	0.3857	0.149
Mof_H 	H 	0.8219	0.9404	0.3833	0.112
Mof_C 	C 	0.2217	0.937	0.4835	0.154
Mof_H 	H 	0.2821	0.9127	0.5051	-0.042
Mof_C 	C 	0.1192	0.9114	0.4491	-0.281
Mof_H 	H 	0.1113	0.8707	0.4479	0.135
Mof_C 	C 	0.0283	0.9452	0.4165	0.249
Mof_C 	C 	0.0473	0.0057	0.4208	-0.269
Mof_H 	H 	0.9884	0.0308	0.3994	0.118
Mof_C 	C 	0.1507	0.0282	0.4559	0.149
Mof_H 	H 	0.1605	0.0689	0.4582	-0.028
Mof_Cu	Cu	0.61116	0.53282	0.46736	0.825
Mof_N 	N 	0.5087	0.5518	0.3973	-0.301
Mof_N 	N 	0.7401	0.5057	0.0122	-0.295
Mof_C 	C 	0.4494	0.5101	0.3644	0.162
Mof_H 	H 	0.4491	0.4716	0.3778	-0.047
Mof_C 	C 	0.3882	0.5222	0.3111	-0.32
Mof_H 	H 	0.3477	0.4916	0.2898	0.138
Mof_C 	C 	0.3857	0.5766	0.2892	0.312
Mof_C 	C 	0.4428	0.6198	0.3241	-0.319
Mof_H 	H 	0.4404	0.6587	0.3118	0.152
Mof_C 	C 	0.5035	0.6061	0.3768	0.173
Mof_H 	H 	0.5426	0.6364	0.3991	-0.037
Mof_C 	C 	0.3362	0.5887	0.2287	-0.466
Mof_H 	H 	0.3104	0.6298	0.225	0.173
Mof_H 	H 	0.2506	0.5654	0.2203	0.164
Mof_C 	C 	0.4559	0.5737	0.1858	0.224
Mof_H 	H 	0.5385	0.5991	0.1932	-0.037
Mof_H 	H 	0.4869	0.5335	0.1925	-0.042
Mof_C 	C 	0.413	0.5799	0.1232	-0.409
Mof_H 	H 	0.3985	0.6212	0.1143	0.15
Mof_H 	H 	0.3219	0.5596	0.1167	0.113
Mof_C 	C 	0.7217	0.563	0.0165	0.158
Mof_H 	H 	0.7821	0.5873	0.9949	-0.044
Mof_C 	C 	0.6192	0.5886	0.0509	-0.286
Mof_H 	H 	0.6113	0.6293	0.0521	0.137
Mof_C 	C 	0.5283	0.5548	0.0835	0.254
Mof_C 	C 	0.5473	0.4943	0.0792	-0.275
Mof_H 	H 	0.4884	0.4692	0.1006	0.12
Mof_C 	C 	0.6507	0.4718	0.0441	0.151
Mof_H 	H 	0.6605	0.4311	0.0418	-0.029
Mof_Cu	Cu	0.88884	0.46718	0.96736	0.824
Mof_N 	N 	0.9913	0.4482	0.8973	-0.302
Mof_N 	N 	0.7599	0.4943	0.5122	-0.295
Mof_C 	C 	0.0506	0.4899	0.8644	0.164
Mof_H 	H 	0.0509	0.5284	0.8778	-0.048
Mof_C 	C 	0.1118	0.4778	0.8111	-0.321
Mof_H 	H 	0.1523	0.5084	0.7898	0.139
Mof_C 	C 	0.1143	0.4234	0.7892	0.312
Mof_C 	C 	0.0572	0.3802	0.8241	-0.316
Mof_H 	H 	0.0596	0.3413	0.8118	0.152
Mof_C 	C 	0.9965	0.3939	0.8768	0.171
Mof_H 	H 	0.9574	0.3636	0.8991	-0.036
Mof_C 	C 	0.1638	0.4113	0.7287	-0.467
Mof_H 	H 	0.1896	0.3702	0.725	0.173
Mof_H 	H 	0.2494	0.4346	0.7203	0.165
Mof_C 	C 	0.0441	0.4263	0.6858	0.226
Mof_H 	H 	0.9615	0.4009	0.6932	-0.038
Mof_H 	H 	0.0131	0.4665	0.6925	-0.043
Mof_C 	C 	0.087	0.4201	0.6232	-0.409
Mof_H 	H 	0.1015	0.3788	0.6143	0.15
Mof_H 	H 	0.1781	0.4404	0.6167	0.113
Mof_C 	C 	0.7783	0.437	0.5165	0.156
Mof_H 	H 	0.7179	0.4127	0.4949	-0.043
Mof_C 	C 	0.8808	0.4114	0.5509	-0.284
Mof_H 	H 	0.8887	0.3707	0.5521	0.136
Mof_C 	C 	0.9717	0.4452	0.5835	0.254
Mof_C 	C 	0.9527	0.5057	0.5792	-0.275
Mof_H 	H 	0.0116	0.5308	0.6006	0.12
Mof_C 	C 	0.8493	0.5282	0.5441	0.151
Mof_H 	H 	0.8395	0.5689	0.5418	-0.029
Mof_Cu	Cu	0.61116	0.96718	0.46736	0.825
Mof_N 	N 	0.5087	0.9482	0.3973	-0.301
Mof_N 	N 	0.7401	0.9943	0.0122	-0.294
Mof_C 	C 	0.4494	0.9899	0.3644	0.163
Mof_H 	H 	0.4491	0.0284	0.3778	-0.047
Mof_C 	C 	0.3882	0.9778	0.3111	-0.322
Mof_H 	H 	0.3477	0.0084	0.2898	0.14
Mof_C 	C 	0.3857	0.9234	0.2892	0.312
Mof_C 	C 	0.4428	0.8802	0.3241	-0.319
Mof_H 	H 	0.4404	0.8413	0.3118	0.153
Mof_C 	C 	0.5035	0.8939	0.3768	0.173
Mof_H 	H 	0.5426	0.8636	0.3991	-0.037
Mof_C 	C 	0.3362	0.9113	0.2287	-0.466
Mof_H 	H 	0.3104	0.8702	0.225	0.173
Mof_H 	H 	0.2506	0.9346	0.2203	0.164
Mof_C 	C 	0.4559	0.9263	0.1858	0.223
Mof_H 	H 	0.5385	0.9009	0.1932	-0.037
Mof_H 	H 	0.4869	0.9665	0.1925	-0.042
Mof_C 	C 	0.413	0.9201	0.1232	-0.407
Mof_H 	H 	0.3985	0.8788	0.1143	0.149
Mof_H 	H 	0.3219	0.9404	0.1167	0.113
Mof_C 	C 	0.7217	0.937	0.0165	0.155
Mof_H 	H 	0.7821	0.9127	0.9949	-0.042
Mof_C 	C 	0.6192	0.9114	0.0509	-0.283
Mof_H 	H 	0.6113	0.8707	0.0521	0.136
Mof_C 	C 	0.5283	0.9452	0.0835	0.252
Mof_C 	C 	0.5473	0.0057	0.0792	-0.273
Mof_H 	H 	0.4884	0.0308	0.1006	0.12
Mof_C 	C 	0.6507	0.0282	0.0441	0.151
Mof_H 	H 	0.6605	0.0689	0.0418	-0.029
Mof_Cu	Cu	0.88884	0.03282	0.96736	0.824
Mof_N 	N 	0.9913	0.0518	0.8973	-0.302
Mof_N 	N 	0.7599	0.0057	0.5122	-0.294
Mof_C 	C 	0.0506	0.0101	0.8644	0.165
Mof_H 	H 	0.0509	0.9716	0.8778	-0.048
Mof_C 	C 	0.1118	0.0222	0.8111	-0.321
Mof_H 	H 	0.1523	0.9916	0.7898	0.139
Mof_C 	C 	0.1143	0.0766	0.7892	0.311
Mof_C 	C 	0.0572	0.1198	0.8241	-0.315
Mof_H 	H 	0.0596	0.1587	0.8118	0.152
Mof_C 	C 	0.9965	0.1061	0.8768	0.169
Mof_H 	H 	0.9574	0.1364	0.8991	-0.036
Mof_C 	C 	0.1638	0.0887	0.7287	-0.466
Mof_H 	H 	0.1896	0.1298	0.725	0.173
Mof_H 	H 	0.2494	0.0654	0.7203	0.164
Mof_C 	C 	0.0441	0.0737	0.6858	0.225
Mof_H 	H 	0.9615	0.0991	0.6932	-0.038
Mof_H 	H 	0.0131	0.0335	0.6925	-0.042
Mof_C 	C 	0.087	0.0799	0.6232	-0.405
Mof_H 	H 	0.1015	0.1212	0.6143	0.149
Mof_H 	H 	0.1781	0.0596	0.6167	0.112
Mof_C 	C 	0.7783	0.063	0.5165	0.154
Mof_H 	H 	0.7179	0.0873	0.4949	-0.042
Mof_C 	C 	0.8808	0.0886	0.5509	-0.281
Mof_H 	H 	0.8887	0.1293	0.5521	0.135
Mof_C 	C 	0.9717	0.0548	0.5835	0.249
Mof_C 	C 	0.9527	0.9943	0.5792	-0.269
Mof_H 	H 	0.0116	0.9692	0.6006	0.118
Mof_C 	C 	0.8493	0.9718	0.5441	0.149
Mof_H 	H 	0.8395	0.9311	0.5418	-0.028
Mof_Cu	Cu	0.38884	0.46718	0.53264	0.825
Mof_N 	N 	0.4913	0.4482	0.6027	-0.301
Mof_N 	N 	0.2599	0.4943	0.9878	-0.295
Mof_C 	C 	0.5506	0.4899	0.6356	0.162
Mof_H 	H 	0.5509	0.5284	0.6222	-0.047
Mof_C 	C 	0.6118	0.4778	0.6889	-0.32
Mof_H 	H 	0.6523	0.5084	0.7102	0.138
Mof_C 	C 	0.6143	0.4234	0.7108	0.312
Mof_C 	C 	0.5572	0.3802	0.6759	-0.319
Mof_H 	H 	0.5596	0.3413	0.6882	0.152
Mof_C 	C 	0.4965	0.3939	0.6232	0.173
Mof_H 	H 	0.4574	0.3636	0.6009	-0.037
Mof_C 	C 	0.6638	0.4113	0.7713	-0.466
Mof_H 	H 	0.6896	0.3702	0.775	0.173
Mof_H 	H 	0.7494	0.4346	0.7797	0.164
Mof_C 	C 	0.5441	0.4263	0.8142	0.224
Mof_H 	H 	0.4615	0.4009	0.8068	-0.037
Mof_H 	H 	0.5131	0.4665	0.8075	-0.042
Mof_C 	C 	0.587	0.4201	0.8768	-0.409
Mof_H 	H 	0.6015	0.3788	0.8857	0.15
Mof_H 	H 	0.6781	0.4404	0.8833	0.113
Mof_C 	C 	0.2783	0.437	0.9835	0.158
Mof_H 	H 	0.2179	0.4127	0.0051	-0.044
Mof_C 	C 	0.3808	0.4114	0.9491	-0.286
Mof_H 	H 	0.3887	0.3707	0.9479	0.137
Mof_C 	C 	0.4717	0.4452	0.9165	0.254
Mof_C 	C 	0.4527	0.5057	0.9208	-0.275
Mof_H 	H 	0.5116	0.5308	0.8994	0.12
Mof_C 	C 	0.3493	0.5282	0.9559	0.151
Mof_H 	H 	0.3395	0.5689	0.9582	-0.029
Mof_Cu	Cu	0.11116	0.53282	0.03264	0.824
Mof_N 	N 	0.0087	0.5518	0.1027	-0.302
Mof_N 	N 	0.2401	0.5057	0.4878	-0.295
Mof_C 	C 	0.9494	0.5101	0.1356	0.164
Mof_H 	H 	0.9491	0.4716	0.1222	-0.048
Mof_C 	C 	0.8882	0.5222	0.1889	-0.321
Mof_H 	H 	0.8477	0.4916	0.2102	0.139
Mof_C 	C 	0.8857	0.5766	0.2108	0.312
Mof_C 	C 	0.9428	0.6198	0.1759	-0.316
Mof_H 	H 	0.9404	0.6587	0.1882	0.152
Mof_C 	C 	0.0035	0.6061	0.1232	0.171
Mof_H 	H 	0.0426	0.6364	0.1009	-0.036
Mof_C 	C 	0.8362	0.5887	0.2713	-0.467
Mof_H 	H 	0.8104	0.6298	0.275	0.173
Mof_H 	H 	0.7506	0.5654	0.2797	0.165
Mof_C 	C 	0.9559	0.5737	0.3142	0.226
Mof_H 	H 	0.0385	0.5991	0.3068	-0.038
Mof_H 	H 	0.9869	0.5335	0.3075	-0.043
Mof_C 	C 	0.913	0.5799	0.3768	-0.409
Mof_H 	H 	0.8985	0.6212	0.3857	0.15
Mof_H 	H 	0.8219	0.5596	0.3833	0.113
Mof_C 	C 	0.2217	0.563	0.4835	0.156
Mof_H 	H 	0.2821	0.5873	0.5051	-0.043
Mof_C 	C 	0.1192	0.5886	0.4491	-0.284
Mof_H 	H 	0.1113	0.6293	0.4479	0.136
Mof_C 	C 	0.0283	0.5548	0.4165	0.254
Mof_C 	C 	0.0473	0.4943	0.4208	-0.275
Mof_H 	H 	0.9884	0.4692	0.3994	0.12
Mof_C 	C 	0.1507	0.4718	0.4559	0.151
Mof_H 	H 	0.1605	0.4311	0.4582	-0.029
Mof_O 	O 	0.4626	0.0972	0.4627	-0.401
Mof_O 	O 	0.3073	0.1513	0.5119	-0.392
Mof_C 	C 	0.464	0.1978	0.446	-0.031
Mof_C 	C 	0.5577	0.1961	0.4012	-0.013
Mof_H 	H 	0.5904	0.1606	0.3861	0.044
Mof_C 	C 	0.4055	0.1442	0.4766	0.332
Mof_O 	O 	0.4626	0.4028	0.4627	-0.401
Mof_O 	O 	0.3073	0.3487	0.5119	-0.392
Mof_C 	C 	0.464	0.3022	0.446	-0.031
Mof_C 	C 	0.5577	0.3039	0.4012	-0.013
Mof_H 	H 	0.5904	0.3394	0.3861	0.044
Mof_C 	C 	0.4055	0.3558	0.4766	0.332
Mof_Cu	Cu	0.26482	0.25	0.52734	0.916
Mof_O 	O 	0.3482	0.25	0.6991	-0.25
Mof_O 	O 	0.3832	0.25	0.6038	-0.327
Mof_O 	O 	0.0842	0.25	0.4738	-0.331
Mof_O 	O 	0.8432	0.25	0.476	-0.247
Mof_N 	N 	0.1075	0.25	0.5833	-0.193
Mof_N 	N 	0.4172	0.25	0.4672	-0.174
Mof_C 	C 	0.1394	0.25	0.6402	-0.029
Mof_C 	C 	0.024	0.25	0.6812	-0.052
Mof_H 	H 	0.0419	0.25	0.7209	0.06
Mof_C 	C 	0.888	0.25	0.6597	-0.016
Mof_H 	H 	0.8113	0.25	0.686	0.044
Mof_C 	C 	0.855	0.25	0.604	-0.058
Mof_H 	H 	0.7589	0.25	0.5914	0.062
Mof_C 	C 	0.973	0.25	0.5641	-0.023
Mof_C 	C 	0.294	0.25	0.6495	0.24
Mof_C 	C 	0.958	0.25	0.4997	0.281
Mof_C 	C 	0.6039	0.25	0.3781	-0.035
Mof_H 	H 	0.6671	0.25	0.3467	0.049
Mof_O 	O 	0.0374	0.9028	0.9627	-0.401
Mof_O 	O 	0.1927	0.8487	0.0119	-0.394
Mof_C 	C 	0.036	0.8022	0.946	-0.03
Mof_C 	C 	0.9423	0.8039	0.9012	-0.015
Mof_H 	H 	0.9096	0.8394	0.8861	0.045
Mof_C 	C 	0.0945	0.8558	0.9766	0.334
Mof_O 	O 	0.0374	0.5972	0.9627	-0.401
Mof_O 	O 	0.1927	0.6513	0.0119	-0.394
Mof_C 	C 	0.036	0.6978	0.946	-0.029
Mof_C 	C 	0.9423	0.6961	0.9012	-0.015
Mof_H 	H 	0.9096	0.6606	0.8861	0.045
Mof_C 	C 	0.0945	0.6442	0.9766	0.333
Mof_Cu	Cu	0.23518	0.75	0.02734	0.916
Mof_O 	O 	0.1518	0.75	0.1991	-0.25
Mof_O 	O 	0.1168	0.75	0.1038	-0.328
Mof_O 	O 	0.4158	0.75	0.9738	-0.331
Mof_O 	O 	0.6568	0.75	0.976	-0.247
Mof_N 	N 	0.3925	0.75	0.0833	-0.194
Mof_N 	N 	0.0828	0.75	0.9672	-0.174
Mof_C 	C 	0.3606	0.75	0.1402	-0.028
Mof_C 	C 	0.476	0.75	0.1812	-0.056
Mof_H 	H 	0.4581	0.75	0.2209	0.061
Mof_C 	C 	0.612	0.75	0.1597	-0.011
Mof_H 	H 	0.6887	0.75	0.186	0.043
Mof_C 	C 	0.645	0.75	0.104	-0.061
Mof_H 	H 	0.7411	0.75	0.0914	0.063
Mof_C 	C 	0.527	0.75	0.0641	-0.022
Mof_C 	C 	0.206	0.75	0.1495	0.24
Mof_C 	C 	0.542	0.75	0.9997	0.282
Mof_C 	C 	0.8961	0.75	0.8781	-0.033
Mof_H 	H 	0.8329	0.75	0.8467	0.049
Mof_O 	O 	0.5374	0.5972	0.5373	-0.401
Mof_O 	O 	0.6927	0.6513	0.4881	-0.392
Mof_C 	C 	0.536	0.6978	0.554	-0.031
Mof_C 	C 	0.4423	0.6961	0.5988	-0.013
Mof_H 	H 	0.4096	0.6606	0.6139	0.044
Mof_C 	C 	0.5945	0.6442	0.5234	0.332
Mof_O 	O 	0.5374	0.9028	0.5373	-0.401
Mof_O 	O 	0.6927	0.8487	0.4881	-0.392
Mof_C 	C 	0.536	0.8022	0.554	-0.031
Mof_C 	C 	0.4423	0.8039	0.5988	-0.013
Mof_H 	H 	0.4096	0.8394	0.6139	0.044
Mof_C 	C 	0.5945	0.8558	0.5234	0.332
Mof_Cu	Cu	0.73518	0.75	0.47266	0.916
Mof_O 	O 	0.6518	0.75	0.3009	-0.25
Mof_O 	O 	0.6168	0.75	0.3962	-0.327
Mof_O 	O 	0.9158	0.75	0.5262	-0.331
Mof_O 	O 	0.1568	0.75	0.524	-0.247
Mof_N 	N 	0.8925	0.75	0.4167	-0.193
Mof_N 	N 	0.5828	0.75	0.5328	-0.174
Mof_C 	C 	0.8606	0.75	0.3598	-0.029
Mof_C 	C 	0.976	0.75	0.3188	-0.052
Mof_H 	H 	0.9581	0.75	0.2791	0.06
Mof_C 	C 	0.112	0.75	0.3403	-0.016
Mof_H 	H 	0.1887	0.75	0.314	0.044
Mof_C 	C 	0.145	0.75	0.396	-0.058
Mof_H 	H 	0.2411	0.75	0.4086	0.062
Mof_C 	C 	0.027	0.75	0.4359	-0.023
Mof_C 	C 	0.706	0.75	0.3505	0.24
Mof_C 	C 	0.042	0.75	0.5003	0.281
Mof_C 	C 	0.3961	0.75	0.6219	-0.035
Mof_H 	H 	0.3329	0.75	0.6533	0.049
Mof_O 	O 	0.9626	0.4028	0.0373	-0.401
Mof_O 	O 	0.8073	0.3487	0.9881	-0.394
Mof_C 	C 	0.964	0.3022	0.054	-0.029
Mof_C 	C 	0.0577	0.3039	0.0988	-0.015
Mof_H 	H 	0.0904	0.3394	0.1139	0.045
Mof_C 	C 	0.9055	0.3558	0.0234	0.333
Mof_O 	O 	0.9626	0.0972	0.0373	-0.401
Mof_O 	O 	0.8073	0.1513	0.9881	-0.394
Mof_C 	C 	0.964	0.1978	0.054	-0.03
Mof_C 	C 	0.0577	0.1961	0.0988	-0.015
Mof_H 	H 	0.0904	0.1606	0.1139	0.045
Mof_C 	C 	0.9055	0.1442	0.0234	0.334
Mof_Cu	Cu	0.76482	0.25	0.97266	0.916
Mof_O 	O 	0.8482	0.25	0.8009	-0.25
Mof_O 	O 	0.8832	0.25	0.8962	-0.328
Mof_O 	O 	0.5842	0.25	0.0262	-0.331
Mof_O 	O 	0.3432	0.25	0.024	-0.247
Mof_N 	N 	0.6075	0.25	0.9167	-0.194
Mof_N 	N 	0.9172	0.25	0.0328	-0.174
Mof_C 	C 	0.6394	0.25	0.8598	-0.028
Mof_C 	C 	0.524	0.25	0.8188	-0.056
Mof_H 	H 	0.5419	0.25	0.7791	0.061
Mof_C 	C 	0.388	0.25	0.8403	-0.011
Mof_H 	H 	0.3113	0.25	0.814	0.043
Mof_C 	C 	0.355	0.25	0.896	-0.061
Mof_H 	H 	0.2589	0.25	0.9086	0.063
Mof_C 	C 	0.473	0.25	0.9359	-0.022
Mof_C 	C 	0.794	0.25	0.8505	0.24
Mof_C 	C 	0.458	0.25	0.0003	0.282
Mof_C 	C 	0.1039	0.25	0.1219	-0.033
Mof_H 	H 	0.1671	0.25	0.1533	0.049
_end
