# CIF file generated by openbabel 3.1.0, see https://openbabel.org
data_I
_chemical_name_common 'image0'
_cell_length_a 13.7548
_cell_length_b 13.7548
_cell_length_c 38.1612
_cell_angle_alpha 90
_cell_angle_beta 90
_cell_angle_gamma 90
_space_group_name_H-M_alt 'P 1'
_space_group_name_Hall 'P 1'
loop_
    _symmetry_equiv_pos_as_xyz
    x,y,z
loop_
    _atom_site_label
    _atom_site_type_symbol
    _atom_site_fract_x
    _atom_site_fract_y
    _atom_site_fract_z
    _atom_site_occupancy
    In1      In       0.28660    0.94973    0.08505    1.000
    O1       O        0.41750    0.89300    0.05660    1.000
    O2       O        0.43880    0.95420    0.10880    1.000
    O3       O        0.73780    0.60830    0.11210    1.000
    O4       O        0.76770    0.71200    0.15440    1.000
    O5       O        0.31540    0.08900    0.05650    1.000
    O6       O        0.26920    0.09630    0.11130    1.000
    O7       O        0.53000    0.46700    0.07470    1.000
    O8       O        0.48890    0.46710    0.13020    1.000
    O9       O        0.20790    0.90970    0.03240    1.000
    O10      O        0.12450    0.96890    0.07430    1.000
    C1       C        0.57680    0.88670    0.07950    1.000
    H1       H        0.59470    0.88290    0.05460    1.000
    C2       C        0.59910    0.79040    0.09570    1.000
    C3       C        0.71330    0.77780    0.09950    1.000
    C4       C        0.71650    0.88290    0.11780    1.000
    H2       H        0.78300    0.90640    0.11790    1.000
    H3       H        0.69550    0.87670    0.14200    1.000
    C5       C        0.64550    0.96450    0.09740    1.000
    H4       H        0.61100    0.00650    0.11360    1.000
    H5       H        0.68100    0.00330    0.08040    1.000
    C6       C        0.74510    0.76230    0.06280    1.000
    H6       H        0.72890    0.69740    0.05560    1.000
    H7       H        0.81410    0.77160    0.06120    1.000
    H8       H        0.71280    0.80810    0.04780    1.000
    C7       C        0.53950    0.75190    0.12450    1.000
    H9       H        0.55290    0.78780    0.14550    1.000
    H10      H        0.55480    0.68460    0.12810    1.000
    H11      H        0.47190    0.75830    0.11870    1.000
    C8       C        0.47370    0.91750    0.08130    1.000
    C9       C        0.74320    0.69910    0.12410    1.000
    C10      C        0.29180    0.24530    0.08240    1.000
    C11      C        0.38390    0.29600    0.10140    1.000
    C12      C        0.38340    0.39910    0.08980    1.000
    H12      H        0.33340    0.43190    0.10380    1.000
    C13      C        0.34800    0.40280    0.05150    1.000
    H13      H        0.40160    0.41450    0.03550    1.000
    H14      H        0.29910    0.45270    0.04830    1.000
    C14      C        0.30440    0.29920    0.04630    1.000
    H15      H        0.34700    0.26140    0.03130    1.000
    H16      H        0.24170    0.30440    0.03490    1.000
    C15      C        0.19090    0.28350    0.09900    1.000
    H17      H        0.18240    0.25600    0.12190    1.000
    H18      H        0.13780    0.26400    0.08420    1.000
    H19      H        0.19230    0.35310    0.10070    1.000
    C16      C        0.47160    0.23790    0.09480    1.000
    H20      H        0.46120    0.17230    0.10250    1.000
    H21      H        0.52540    0.26560    0.10730    1.000
    H22      H        0.48550    0.23790    0.07010    1.000
    C17      C        0.29010    0.13410    0.08270    1.000
    C18      C        0.48070    0.44920    0.09890    1.000
    C19      C        0.04430    0.94120    0.02000    1.000
    C20      C        0.05900    0.89400    0.98030    1.000
    C21      C        0.95200    0.93900    0.04110    1.000
    C22      C        0.12760    0.93780    0.04330    1.000
    In2      In       0.71340    0.05027    0.58505    1.000
    O11      O        0.58250    0.10700    0.55660    1.000
    O12      O        0.56120    0.04580    0.60880    1.000
    O13      O        0.26220    0.39170    0.61210    1.000
    O14      O        0.23230    0.28800    0.65440    1.000
    O15      O        0.68460    0.91100    0.55650    1.000
    O16      O        0.73080    0.90370    0.61130    1.000
    O17      O        0.47000    0.53300    0.57470    1.000
    O18      O        0.51110    0.53290    0.63020    1.000
    O19      O        0.79210    0.09030    0.53240    1.000
    O20      O        0.87550    0.03110    0.57430    1.000
    C23      C        0.42320    0.11330    0.57950    1.000
    H23      H        0.40530    0.11710    0.55460    1.000
    C24      C        0.40090    0.20960    0.59570    1.000
    C25      C        0.28670    0.22220    0.59950    1.000
    C26      C        0.28350    0.11710    0.61780    1.000
    H24      H        0.21700    0.09360    0.61790    1.000
    H25      H        0.30450    0.12330    0.64200    1.000
    C27      C        0.35450    0.03550    0.59740    1.000
    H26      H        0.38900    0.99350    0.61360    1.000
    H27      H        0.31900    0.99670    0.58040    1.000
    C28      C        0.25490    0.23770    0.56280    1.000
    H28      H        0.27110    0.30260    0.55560    1.000
    H29      H        0.18590    0.22840    0.56120    1.000
    H30      H        0.28720    0.19190    0.54780    1.000
    C29      C        0.46050    0.24810    0.62450    1.000
    H31      H        0.44710    0.21220    0.64550    1.000
    H32      H        0.44520    0.31540    0.62810    1.000
    H33      H        0.52810    0.24170    0.61870    1.000
    C30      C        0.52630    0.08250    0.58130    1.000
    C31      C        0.25680    0.30090    0.62410    1.000
    C32      C        0.70820    0.75470    0.58240    1.000
    C33      C        0.61610    0.70400    0.60140    1.000
    C34      C        0.61660    0.60090    0.58980    1.000
    H34      H        0.66660    0.56810    0.60380    1.000
    C35      C        0.65200    0.59720    0.55150    1.000
    H35      H        0.59840    0.58550    0.53550    1.000
    H36      H        0.70090    0.54730    0.54830    1.000
    C36      C        0.69560    0.70080    0.54630    1.000
    H37      H        0.65300    0.73860    0.53130    1.000
    H38      H        0.75830    0.69560    0.53490    1.000
    C37      C        0.80910    0.71650    0.59900    1.000
    H39      H        0.81760    0.74400    0.62190    1.000
    H40      H        0.86220    0.73600    0.58420    1.000
    H41      H        0.80770    0.64690    0.60070    1.000
    C38      C        0.52840    0.76210    0.59480    1.000
    H42      H        0.53880    0.82770    0.60250    1.000
    H43      H        0.47460    0.73440    0.60730    1.000
    H44      H        0.51450    0.76210    0.57010    1.000
    C39      C        0.70990    0.86590    0.58270    1.000
    C40      C        0.51930    0.55080    0.59890    1.000
    C41      C        0.95570    0.05880    0.52000    1.000
    C42      C        0.94100    0.10600    0.48030    1.000
    C43      C        0.04800    0.06100    0.54110    1.000
    C44      C        0.87240    0.06220    0.54330    1.000
    In3      In       0.55027    0.78660    0.83505    1.000
    O21      O        0.60700    0.91750    0.80660    1.000
    O22      O        0.54580    0.93880    0.85880    1.000
    O23      O        0.89170    0.23780    0.86210    1.000
    O24      O        0.78800    0.26770    0.90440    1.000
    O25      O        0.41100    0.81540    0.80650    1.000
    O26      O        0.40370    0.76920    0.86130    1.000
    O27      O        0.03300    0.03000    0.82470    1.000
    O28      O        0.03290    0.98890    0.88020    1.000
    O29      O        0.59030    0.70790    0.78240    1.000
    O30      O        0.53110    0.62450    0.82430    1.000
    C45      C        0.61330    0.07680    0.82950    1.000
    H45      H        0.61710    0.09470    0.80460    1.000
    C46      C        0.70960    0.09910    0.84570    1.000
    C47      C        0.72220    0.21330    0.84950    1.000
    C48      C        0.61710    0.21650    0.86780    1.000
    H46      H        0.59360    0.28300    0.86790    1.000
    H47      H        0.62330    0.19550    0.89200    1.000
    C49      C        0.53550    0.14550    0.84740    1.000
    H48      H        0.49350    0.11100    0.86360    1.000
    H49      H        0.49670    0.18100    0.83040    1.000
    C50      C        0.73770    0.24510    0.81280    1.000
    H50      H        0.80260    0.22890    0.80560    1.000
    H51      H        0.72840    0.31410    0.81120    1.000
    H52      H        0.69190    0.21280    0.79780    1.000
    C51      C        0.74810    0.03950    0.87450    1.000
    H53      H        0.71220    0.05290    0.89550    1.000
    H54      H        0.81540    0.05480    0.87810    1.000
    H55      H        0.74170    0.97190    0.86870    1.000
    C52      C        0.58250    0.97370    0.83130    1.000
    C53      C        0.80090    0.24320    0.87410    1.000
    C54      C        0.25470    0.79180    0.83240    1.000
    C55      C        0.20400    0.88390    0.85140    1.000
    C56      C        0.10090    0.88340    0.83980    1.000
    H56      H        0.06810    0.83340    0.85380    1.000
    C57      C        0.09720    0.84800    0.80150    1.000
    H57      H        0.08550    0.90160    0.78550    1.000
    H58      H        0.04730    0.79910    0.79830    1.000
    C58      C        0.20080    0.80440    0.79630    1.000
    H59      H        0.23860    0.84700    0.78130    1.000
    H60      H        0.19560    0.74170    0.78490    1.000
    C59      C        0.21650    0.69090    0.84900    1.000
    H61      H        0.24400    0.68240    0.87190    1.000
    H62      H        0.23600    0.63780    0.83420    1.000
    H63      H        0.14690    0.69230    0.85070    1.000
    C60      C        0.26210    0.97160    0.84480    1.000
    H64      H        0.32770    0.96120    0.85250    1.000
    H65      H        0.23440    0.02540    0.85730    1.000
    H66      H        0.26210    0.98550    0.82010    1.000
    C61      C        0.36590    0.79010    0.83270    1.000
    C62      C        0.05080    0.98070    0.84890    1.000
    C63      C        0.55880    0.54430    0.77000    1.000
    C64      C        0.60600    0.55900    0.73030    1.000
    C65      C        0.56100    0.45200    0.79110    1.000
    C66      C        0.56220    0.62760    0.79330    1.000
    In4      In       0.44973    0.21340    0.33505    1.000
    O31      O        0.39300    0.08250    0.30660    1.000
    O32      O        0.45420    0.06120    0.35880    1.000
    O33      O        0.10830    0.76220    0.36210    1.000
    O34      O        0.21200    0.73230    0.40440    1.000
    O35      O        0.58900    0.18460    0.30650    1.000
    O36      O        0.59630    0.23080    0.36130    1.000
    O37      O        0.96700    0.97000    0.32470    1.000
    O38      O        0.96710    0.01110    0.38020    1.000
    O39      O        0.40970    0.29210    0.28240    1.000
    O40      O        0.46890    0.37550    0.32430    1.000
    C67      C        0.38670    0.92320    0.32950    1.000
    H67      H        0.38290    0.90530    0.30460    1.000
    C68      C        0.29040    0.90090    0.34570    1.000
    C69      C        0.27780    0.78670    0.34950    1.000
    C70      C        0.38290    0.78350    0.36780    1.000
    H68      H        0.40640    0.71700    0.36790    1.000
    H69      H        0.37670    0.80450    0.39200    1.000
    C71      C        0.46450    0.85450    0.34740    1.000
    H70      H        0.50650    0.88900    0.36360    1.000
    H71      H        0.50330    0.81900    0.33040    1.000
    C72      C        0.26230    0.75490    0.31280    1.000
    H72      H        0.19740    0.77110    0.30560    1.000
    H73      H        0.27160    0.68590    0.31120    1.000
    H74      H        0.30810    0.78720    0.29780    1.000
    C73      C        0.25190    0.96050    0.37450    1.000
    H75      H        0.28780    0.94710    0.39550    1.000
    H76      H        0.18460    0.94520    0.37810    1.000
    H77      H        0.25830    0.02810    0.36870    1.000
    C74      C        0.41750    0.02630    0.33130    1.000
    C75      C        0.19910    0.75680    0.37410    1.000
    C76      C        0.74530    0.20820    0.33240    1.000
    C77      C        0.79600    0.11610    0.35140    1.000
    C78      C        0.89910    0.11660    0.33980    1.000
    H78      H        0.93190    0.16660    0.35380    1.000
    C79      C        0.90280    0.15200    0.30150    1.000
    H79      H        0.91450    0.09840    0.28550    1.000
    H80      H        0.95270    0.20090    0.29830    1.000
    C80      C        0.79920    0.19560    0.29630    1.000
    H81      H        0.76140    0.15300    0.28130    1.000
    H82      H        0.80440    0.25830    0.28490    1.000
    C81      C        0.78350    0.30910    0.34900    1.000
    H83      H        0.75600    0.31760    0.37190    1.000
    H84      H        0.76400    0.36220    0.33420    1.000
    H85      H        0.85310    0.30770    0.35070    1.000
    C82      C        0.73790    0.02840    0.34480    1.000
    H86      H        0.67230    0.03880    0.35250    1.000
    H87      H        0.76560    0.97460    0.35730    1.000
    H88      H        0.73790    0.01450    0.32010    1.000
    C83      C        0.63410    0.20990    0.33270    1.000
    C84      C        0.94920    0.01930    0.34890    1.000
    C85      C        0.44120    0.45570    0.27000    1.000
    C86      C        0.39400    0.44100    0.23030    1.000
    C87      C        0.43900    0.54800    0.29110    1.000
    C88      C        0.43780    0.37240    0.29330    1.000
    In5      In       0.21340    0.44973    0.66495    1.000
    O41      O        0.08250    0.39300    0.69340    1.000
    O42      O        0.06120    0.45420    0.64120    1.000
    O43      O        0.76220    0.10830    0.63790    1.000
    O44      O        0.73230    0.21200    0.59560    1.000
    O45      O        0.18460    0.58900    0.69350    1.000
    O46      O        0.23080    0.59630    0.63870    1.000
    O47      O        0.97000    0.96700    0.67530    1.000
    O48      O        0.01110    0.96710    0.61980    1.000
    O49      O        0.29210    0.40970    0.71760    1.000
    O50      O        0.37550    0.46890    0.67570    1.000
    C89      C        0.92320    0.38670    0.67050    1.000
    H89      H        0.90530    0.38290    0.69540    1.000
    C90      C        0.90090    0.29040    0.65430    1.000
    C91      C        0.78670    0.27780    0.65050    1.000
    C92      C        0.78350    0.38290    0.63220    1.000
    H90      H        0.71700    0.40640    0.63210    1.000
    H91      H        0.80450    0.37670    0.60800    1.000
    C93      C        0.85450    0.46450    0.65260    1.000
    H92      H        0.88900    0.50650    0.63640    1.000
    H93      H        0.81900    0.50330    0.66960    1.000
    C94      C        0.75490    0.26230    0.68720    1.000
    H94      H        0.77110    0.19740    0.69440    1.000
    H95      H        0.68590    0.27160    0.68880    1.000
    H96      H        0.78720    0.30810    0.70220    1.000
    C95      C        0.96050    0.25190    0.62550    1.000
    H97      H        0.94710    0.28780    0.60450    1.000
    H98      H        0.94520    0.18460    0.62190    1.000
    H99      H        0.02810    0.25830    0.63130    1.000
    C96      C        0.02630    0.41750    0.66870    1.000
    C97      C        0.75680    0.19910    0.62590    1.000
    C98      C        0.20820    0.74530    0.66760    1.000
    C99      C        0.11610    0.79600    0.64860    1.000
    C100     C        0.11660    0.89910    0.66020    1.000
    H100     H        0.16660    0.93190    0.64620    1.000
    C101     C        0.15200    0.90280    0.69850    1.000
    H101     H        0.09840    0.91450    0.71450    1.000
    H102     H        0.20090    0.95270    0.70170    1.000
    C102     C        0.19560    0.79920    0.70370    1.000
    H103     H        0.15300    0.76140    0.71870    1.000
    H104     H        0.25830    0.80440    0.71510    1.000
    C103     C        0.30910    0.78350    0.65100    1.000
    H105     H        0.31760    0.75600    0.62810    1.000
    H106     H        0.36220    0.76400    0.66580    1.000
    H107     H        0.30770    0.85310    0.64930    1.000
    C104     C        0.02840    0.73790    0.65520    1.000
    H108     H        0.03880    0.67230    0.64750    1.000
    H109     H        0.97460    0.76560    0.64270    1.000
    H110     H        0.01450    0.73790    0.67990    1.000
    C105     C        0.20990    0.63410    0.66730    1.000
    C106     C        0.01930    0.94920    0.65110    1.000
    C107     C        0.45570    0.44120    0.73000    1.000
    C108     C        0.44100    0.39400    0.76970    1.000
    C109     C        0.54800    0.43900    0.70890    1.000
    C110     C        0.37240    0.43780    0.70670    1.000
    In6      In       0.78660    0.55027    0.16495    1.000
    O51      O        0.91750    0.60700    0.19340    1.000
    O52      O        0.93880    0.54580    0.14120    1.000
    O53      O        0.23780    0.89170    0.13790    1.000
    O54      O        0.26770    0.78800    0.09560    1.000
    O55      O        0.81540    0.41100    0.19350    1.000
    O56      O        0.76920    0.40370    0.13870    1.000
    O57      O        0.03000    0.03300    0.17530    1.000
    O58      O        0.98890    0.03290    0.11980    1.000
    O59      O        0.70790    0.59030    0.21760    1.000
    O60      O        0.62450    0.53110    0.17570    1.000
    C111     C        0.07680    0.61330    0.17050    1.000
    H111     H        0.09470    0.61710    0.19540    1.000
    C112     C        0.09910    0.70960    0.15430    1.000
    C113     C        0.21330    0.72220    0.15050    1.000
    C114     C        0.21650    0.61710    0.13220    1.000
    H112     H        0.28300    0.59360    0.13210    1.000
    H113     H        0.19550    0.62330    0.10800    1.000
    C115     C        0.14550    0.53550    0.15260    1.000
    H114     H        0.11100    0.49350    0.13640    1.000
    H115     H        0.18100    0.49670    0.16960    1.000
    C116     C        0.24510    0.73770    0.18720    1.000
    H116     H        0.22890    0.80260    0.19440    1.000
    H117     H        0.31410    0.72840    0.18880    1.000
    H118     H        0.21280    0.69190    0.20220    1.000
    C117     C        0.03950    0.74810    0.12550    1.000
    H119     H        0.05290    0.71220    0.10450    1.000
    H120     H        0.05480    0.81540    0.12190    1.000
    H121     H        0.97190    0.74170    0.13130    1.000
    C118     C        0.97370    0.58250    0.16870    1.000
    C119     C        0.24320    0.80090    0.12590    1.000
    C120     C        0.79180    0.25470    0.16760    1.000
    C121     C        0.88390    0.20400    0.14860    1.000
    C122     C        0.88340    0.10090    0.16020    1.000
    H122     H        0.83340    0.06810    0.14620    1.000
    C123     C        0.84800    0.09720    0.19850    1.000
    H123     H        0.90160    0.08550    0.21450    1.000
    H124     H        0.79910    0.04730    0.20170    1.000
    C124     C        0.80440    0.20080    0.20370    1.000
    H125     H        0.84700    0.23860    0.21870    1.000
    H126     H        0.74170    0.19560    0.21510    1.000
    C125     C        0.69090    0.21650    0.15100    1.000
    H127     H        0.68240    0.24400    0.12810    1.000
    H128     H        0.63780    0.23600    0.16580    1.000
    H129     H        0.69230    0.14690    0.14930    1.000
    C126     C        0.97160    0.26210    0.15520    1.000
    H130     H        0.96120    0.32770    0.14750    1.000
    H131     H        0.02540    0.23440    0.14270    1.000
    H132     H        0.98550    0.26210    0.17990    1.000
    C127     C        0.79010    0.36590    0.16730    1.000
    C128     C        0.98070    0.05080    0.15110    1.000
    C129     C        0.54430    0.55880    0.23000    1.000
    C130     C        0.55900    0.60600    0.26970    1.000
    C131     C        0.45200    0.56100    0.20890    1.000
    C132     C        0.62760    0.56220    0.20670    1.000
    In7      In       0.94973    0.28660    0.91495    1.000
    O61      O        0.89300    0.41750    0.94340    1.000
    O62      O        0.95420    0.43880    0.89120    1.000
    O63      O        0.60830    0.73780    0.88790    1.000
    O64      O        0.71200    0.76770    0.84560    1.000
    O65      O        0.08900    0.31540    0.94350    1.000
    O66      O        0.09630    0.26920    0.88870    1.000
    O67      O        0.46700    0.53000    0.92530    1.000
    O68      O        0.46710    0.48890    0.86980    1.000
    O69      O        0.90970    0.20790    0.96760    1.000
    O70      O        0.96890    0.12450    0.92570    1.000
    C133     C        0.88670    0.57680    0.92050    1.000
    H133     H        0.88290    0.59470    0.94540    1.000
    C134     C        0.79040    0.59910    0.90430    1.000
    C135     C        0.77780    0.71330    0.90050    1.000
    C136     C        0.88290    0.71650    0.88220    1.000
    H134     H        0.90640    0.78300    0.88210    1.000
    H135     H        0.87670    0.69550    0.85800    1.000
    C137     C        0.96450    0.64550    0.90260    1.000
    H136     H        0.00650    0.61100    0.88640    1.000
    H137     H        0.00330    0.68100    0.91960    1.000
    C138     C        0.76230    0.74510    0.93720    1.000
    H138     H        0.69740    0.72890    0.94440    1.000
    H139     H        0.77160    0.81410    0.93880    1.000
    H140     H        0.80810    0.71280    0.95220    1.000
    C139     C        0.75190    0.53950    0.87550    1.000
    H141     H        0.78780    0.55290    0.85450    1.000
    H142     H        0.68460    0.55480    0.87190    1.000
    H143     H        0.75830    0.47190    0.88130    1.000
    C140     C        0.91750    0.47370    0.91870    1.000
    C141     C        0.69910    0.74320    0.87590    1.000
    C142     C        0.24530    0.29180    0.91760    1.000
    C143     C        0.29600    0.38390    0.89860    1.000
    C144     C        0.39910    0.38340    0.91020    1.000
    H144     H        0.43190    0.33340    0.89620    1.000
    C145     C        0.40280    0.34800    0.94850    1.000
    H145     H        0.41450    0.40160    0.96450    1.000
    H146     H        0.45270    0.29910    0.95170    1.000
    C146     C        0.29920    0.30440    0.95370    1.000
    H147     H        0.26140    0.34700    0.96870    1.000
    H148     H        0.30440    0.24170    0.96510    1.000
    C147     C        0.28350    0.19090    0.90100    1.000
    H149     H        0.25600    0.18240    0.87810    1.000
    H150     H        0.26400    0.13780    0.91580    1.000
    H151     H        0.35310    0.19230    0.89930    1.000
    C148     C        0.23790    0.47160    0.90520    1.000
    H152     H        0.17230    0.46120    0.89750    1.000
    H153     H        0.26560    0.52540    0.89270    1.000
    H154     H        0.23790    0.48550    0.92990    1.000
    C149     C        0.13410    0.29010    0.91730    1.000
    C150     C        0.44920    0.48070    0.90110    1.000
    C151     C        0.94120    0.04430    0.98000    1.000
    C152     C        0.89400    0.05900    0.01970    1.000
    C153     C        0.93900    0.95200    0.95890    1.000
    C154     C        0.93780    0.12760    0.95670    1.000
    In8      In       0.05027    0.71340    0.41495    1.000
    O71      O        0.10700    0.58250    0.44340    1.000
    O72      O        0.04580    0.56120    0.39120    1.000
    O73      O        0.39170    0.26220    0.38790    1.000
    O74      O        0.28800    0.23230    0.34560    1.000
    O75      O        0.91100    0.68460    0.44350    1.000
    O76      O        0.90370    0.73080    0.38870    1.000
    O77      O        0.53300    0.47000    0.42530    1.000
    O78      O        0.53290    0.51110    0.36980    1.000
    O79      O        0.09030    0.79210    0.46760    1.000
    O80      O        0.03110    0.87550    0.42570    1.000
    C155     C        0.11330    0.42320    0.42050    1.000
    H155     H        0.11710    0.40530    0.44540    1.000
    C156     C        0.20960    0.40090    0.40430    1.000
    C157     C        0.22220    0.28670    0.40050    1.000
    C158     C        0.11710    0.28350    0.38220    1.000
    H156     H        0.09360    0.21700    0.38210    1.000
    H157     H        0.12330    0.30450    0.35800    1.000
    C159     C        0.03550    0.35450    0.40260    1.000
    H158     H        0.99350    0.38900    0.38640    1.000
    H159     H        0.99670    0.31900    0.41960    1.000
    C160     C        0.23770    0.25490    0.43720    1.000
    H160     H        0.30260    0.27110    0.44440    1.000
    H161     H        0.22840    0.18590    0.43880    1.000
    H162     H        0.19190    0.28720    0.45220    1.000
    C161     C        0.24810    0.46050    0.37550    1.000
    H163     H        0.21220    0.44710    0.35450    1.000
    H164     H        0.31540    0.44520    0.37190    1.000
    H165     H        0.24170    0.52810    0.38130    1.000
    C162     C        0.08250    0.52630    0.41870    1.000
    C163     C        0.30090    0.25680    0.37590    1.000
    C164     C        0.75470    0.70820    0.41760    1.000
    C165     C        0.70400    0.61610    0.39860    1.000
    C166     C        0.60090    0.61660    0.41020    1.000
    H166     H        0.56810    0.66660    0.39620    1.000
    C167     C        0.59720    0.65200    0.44850    1.000
    H167     H        0.58550    0.59840    0.46450    1.000
    H168     H        0.54730    0.70090    0.45170    1.000
    C168     C        0.70080    0.69560    0.45370    1.000
    H169     H        0.73860    0.65300    0.46870    1.000
    H170     H        0.69560    0.75830    0.46510    1.000
    C169     C        0.71650    0.80910    0.40100    1.000
    H171     H        0.74400    0.81760    0.37810    1.000
    H172     H        0.73600    0.86220    0.41580    1.000
    H173     H        0.64690    0.80770    0.39930    1.000
    C170     C        0.76210    0.52840    0.40520    1.000
    H174     H        0.82770    0.53880    0.39750    1.000
    H175     H        0.73440    0.47460    0.39270    1.000
    H176     H        0.76210    0.51450    0.42990    1.000
    C171     C        0.86590    0.70990    0.41730    1.000
    C172     C        0.55080    0.51930    0.40110    1.000
    C173     C        0.05880    0.95570    0.48000    1.000
    C174     C        0.10600    0.94100    0.51970    1.000
    C175     C        0.06100    0.04800    0.45890    1.000
    C176     C        0.06220    0.87240    0.45670    1.000
    C177     C        0.03600    0.03600    0.00000    1.000
    C178     C        0.09800    0.09800    0.00000    1.000
    C179     C        0.96400    0.96400    0.50000    1.000
    C180     C        0.90200    0.90200    0.50000    1.000
    C181     C        0.46400    0.53600    0.75000    1.000
    C182     C        0.40200    0.59800    0.75000    1.000
    C183     C        0.53600    0.46400    0.25000    1.000
    C184     C        0.59800    0.40200    0.25000    1.000
