# CIF file generated by openbabel 3.1.0, see https://openbabel.org
data_I
_chemical_name_common 'image0'
_cell_length_a 13.598
_cell_length_b 15.095
_cell_length_c 15.251
_cell_angle_alpha 90
_cell_angle_beta 93.613
_cell_angle_gamma 90
_space_group_name_H-M_alt 'P 1'
_space_group_name_Hall 'P 1'
loop_
    _symmetry_equiv_pos_as_xyz
    x,y,z
loop_
    _atom_site_label
    _atom_site_type_symbol
    _atom_site_fract_x
    _atom_site_fract_y
    _atom_site_fract_z
    _atom_site_occupancy
    Cu1      Cu       0.05454    0.81385    0.39589    1.000
    C1       C        0.31700    0.15850    0.12210    1.000
    H1       H        0.33910    0.14290    0.06770    1.000
    C2       C        0.25810    0.09980    0.16390    1.000
    H2       H        0.24140    0.04560    0.13810    1.000
    C3       C        0.22410    0.12210    0.24430    1.000
    C4       C        0.25140    0.20270    0.27940    1.000
    H3       H        0.22950    0.22020    0.33330    1.000
    C5       C        0.31070    0.25710    0.23490    1.000
    H4       H        0.32930    0.31110    0.26010    1.000
    C6       C        0.16280    0.06190    0.29350    1.000
    C7       C        0.58020    0.18670    0.19300    1.000
    H5       H        0.55630    0.15000    0.14760    1.000
    C8       C        0.65040    0.15390    0.25300    1.000
    H6       H        0.67490    0.09680    0.24710    1.000
    C9       C        0.68360    0.20660    0.32180    1.000
    C10      C        0.64510    0.28910    0.32650    1.000
    H7       H        0.66480    0.32580    0.37330    1.000
    C11      C        0.57800    0.31860    0.26350    1.000
    H8       H        0.55410    0.37620    0.26740    1.000
    C12      C        0.76110    0.17270    0.38650    1.000
    N1       N        0.34360    0.23640    0.15600    1.000
    N2       N        0.14990    0.97640    0.27530    1.000
    N3       N        0.09220    0.94790    0.33750    1.000
    N4       N        0.07310    0.01410    0.38980    1.000
    N5       N        0.11650    0.08690    0.36430    1.000
    N6       N        0.54520    0.26800    0.19670    1.000
    N7       N        0.80790    0.09620    0.37780    1.000
    N8       N        0.86960    0.09170    0.44820    1.000
    N9       N        0.86060    0.16480    0.49500    1.000
    N10      N        0.79090    0.21710    0.45800    1.000
    N11      N        0.94800    0.88290    0.45030    1.000
    N12      N        0.86420    0.86370    0.44490    1.000
    N13      N        0.78200    0.84330    0.43910    1.000
    Cu2      Cu       0.44546    0.31385    0.10411    1.000
    C13      C        0.18300    0.65850    0.37790    1.000
    H9       H        0.16090    0.64290    0.43230    1.000
    C14      C        0.24190    0.59980    0.33610    1.000
    H10      H        0.25860    0.54560    0.36190    1.000
    C15      C        0.27590    0.62210    0.25570    1.000
    C16      C        0.24860    0.70270    0.22060    1.000
    H11      H        0.27050    0.72020    0.16670    1.000
    C17      C        0.18930    0.75710    0.26510    1.000
    H12      H        0.17070    0.81110    0.23990    1.000
    C18      C        0.33720    0.56190    0.20650    1.000
    C19      C        0.91980    0.68670    0.30700    1.000
    H13      H        0.94370    0.65000    0.35240    1.000
    C20      C        0.84960    0.65390    0.24700    1.000
    H14      H        0.82510    0.59680    0.25290    1.000
    C21      C        0.81640    0.70660    0.17820    1.000
    C22      C        0.85490    0.78910    0.17350    1.000
    H15      H        0.83520    0.82580    0.12670    1.000
    C23      C        0.92200    0.81860    0.23650    1.000
    H16      H        0.94590    0.87620    0.23260    1.000
    C24      C        0.73890    0.67270    0.11350    1.000
    N14      N        0.15640    0.73640    0.34400    1.000
    N15      N        0.35010    0.47640    0.22470    1.000
    N16      N        0.40780    0.44790    0.16250    1.000
    N17      N        0.42690    0.51410    0.11020    1.000
    N18      N        0.38350    0.58690    0.13570    1.000
    N19      N        0.95480    0.76800    0.30330    1.000
    N20      N        0.69210    0.59620    0.12220    1.000
    N21      N        0.63040    0.59170    0.05180    1.000
    N22      N        0.63940    0.66480    0.00500    1.000
    N23      N        0.70910    0.71710    0.04200    1.000
    N24      N        0.55200    0.38290    0.04970    1.000
    N25      N        0.63580    0.36370    0.05510    1.000
    N26      N        0.71800    0.34330    0.06090    1.000
    Cu3      Cu       0.94546    0.18615    0.60411    1.000
    C25      C        0.68300    0.84150    0.87790    1.000
    H17      H        0.66090    0.85710    0.93230    1.000
    C26      C        0.74190    0.90020    0.83610    1.000
    H18      H        0.75860    0.95440    0.86190    1.000
    C27      C        0.77590    0.87790    0.75570    1.000
    C28      C        0.74860    0.79730    0.72060    1.000
    H19      H        0.77050    0.77980    0.66670    1.000
    C29      C        0.68930    0.74290    0.76510    1.000
    H20      H        0.67070    0.68890    0.73990    1.000
    C30      C        0.83720    0.93810    0.70650    1.000
    C31      C        0.41980    0.81330    0.80700    1.000
    H21      H        0.44370    0.85000    0.85240    1.000
    C32      C        0.34960    0.84610    0.74700    1.000
    H22      H        0.32510    0.90320    0.75290    1.000
    C33      C        0.31640    0.79340    0.67820    1.000
    C34      C        0.35490    0.71090    0.67350    1.000
    H23      H        0.33520    0.67420    0.62670    1.000
    C35      C        0.42200    0.68140    0.73650    1.000
    H24      H        0.44590    0.62380    0.73260    1.000
    C36      C        0.23890    0.82730    0.61350    1.000
    N27      N        0.65640    0.76360    0.84400    1.000
    N28      N        0.85010    0.02360    0.72470    1.000
    N29      N        0.90780    0.05210    0.66250    1.000
    N30      N        0.92690    0.98590    0.61020    1.000
    N31      N        0.88350    0.91310    0.63570    1.000
    N32      N        0.45480    0.73200    0.80330    1.000
    N33      N        0.19210    0.90380    0.62220    1.000
    N34      N        0.13040    0.90830    0.55180    1.000
    N35      N        0.13940    0.83520    0.50500    1.000
    N36      N        0.20910    0.78290    0.54200    1.000
    N37      N        0.05200    0.11710    0.54970    1.000
    N38      N        0.13580    0.13630    0.55510    1.000
    N39      N        0.21800    0.15670    0.56090    1.000
    Cu4      Cu       0.55454    0.68615    0.89589    1.000
    C37      C        0.81700    0.34150    0.62210    1.000
    H25      H        0.83910    0.35710    0.56770    1.000
    C38      C        0.75810    0.40020    0.66390    1.000
    H26      H        0.74140    0.45440    0.63810    1.000
    C39      C        0.72410    0.37790    0.74430    1.000
    C40      C        0.75140    0.29730    0.77940    1.000
    H27      H        0.72950    0.27980    0.83330    1.000
    C41      C        0.81070    0.24290    0.73490    1.000
    H28      H        0.82930    0.18890    0.76010    1.000
    C42      C        0.66280    0.43810    0.79350    1.000
    C43      C        0.08020    0.31330    0.69300    1.000
    H29      H        0.05630    0.35000    0.64760    1.000
    C44      C        0.15040    0.34610    0.75300    1.000
    H30      H        0.17490    0.40320    0.74710    1.000
    C45      C        0.18360    0.29340    0.82180    1.000
    C46      C        0.14510    0.21090    0.82650    1.000
    H31      H        0.16480    0.17420    0.87330    1.000
    C47      C        0.07800    0.18140    0.76350    1.000
    H32      H        0.05410    0.12380    0.76740    1.000
    C48      C        0.26110    0.32730    0.88650    1.000
    N40      N        0.84360    0.26360    0.65600    1.000
    N41      N        0.64990    0.52360    0.77530    1.000
    N42      N        0.59220    0.55210    0.83750    1.000
    N43      N        0.57310    0.48590    0.88980    1.000
    N44      N        0.61650    0.41310    0.86430    1.000
    N45      N        0.04520    0.23200    0.69670    1.000
    N46      N        0.30790    0.40380    0.87780    1.000
    N47      N        0.36960    0.40830    0.94820    1.000
    N48      N        0.36060    0.33520    0.99500    1.000
    N49      N        0.29090    0.28290    0.95800    1.000
    N50      N        0.44800    0.61710    0.95030    1.000
    N51      N        0.36420    0.63630    0.94490    1.000
    N52      N        0.28200    0.65670    0.93910    1.000
    Cu5      Cu       0.00000    0.00000    0.50000    1.000
    Cu6      Cu       0.50000    0.50000    0.00000    1.000
