# CIF file generated by openbabel 3.1.0, see https://openbabel.org
data_I
_chemical_name_common 'image0'
_cell_length_a 25.098
_cell_length_b 25.098
_cell_length_c 28.4464
_cell_angle_alpha 90
_cell_angle_beta 90
_cell_angle_gamma 120
_space_group_name_H-M_alt 'P 1'
_space_group_name_Hall 'P 1'
loop_
    _symmetry_equiv_pos_as_xyz
    x,y,z
loop_
    _atom_site_label
    _atom_site_type_symbol
    _atom_site_fract_x
    _atom_site_fract_y
    _atom_site_fract_z
    _atom_site_occupancy
    O1       O        0.69687    0.16153    0.07891    1.000
    O2       O        0.63641    0.19327    0.05136    1.000
    C1       C        0.66075    0.18251    0.08539    1.000
    C2       C        0.64650    0.19340    0.13425    1.000
    C3       C        0.67330    0.18140    0.17242    1.000
    H1       H        0.70240    0.16930    0.16760    1.000
    C4       C        0.60640    0.21480    0.14190    1.000
    H2       H        0.58990    0.22500    0.11650    1.000
    C5       C        0.65630    0.18740    0.21798    1.000
    H3       H        0.67370    0.17850    0.24350    1.000
    C6       C        0.59040    0.22130    0.18737    1.000
    H4       H        0.56320    0.23580    0.19210    1.000
    C7       C        0.61420    0.20650    0.22557    1.000
    O3       O        0.83847    0.53534    0.07891    1.000
    O4       O        0.80673    0.44314    0.05136    1.000
    C8       C        0.81749    0.47824    0.08539    1.000
    C9       C        0.80660    0.45310    0.13425    1.000
    C10      C        0.81860    0.49190    0.17242    1.000
    H5       H        0.83070    0.53310    0.16760    1.000
    C11      C        0.78520    0.39160    0.14190    1.000
    H6       H        0.77500    0.36490    0.11650    1.000
    C12      C        0.81260    0.46890    0.21798    1.000
    H7       H        0.82150    0.49520    0.24350    1.000
    C13      C        0.77870    0.36910    0.18737    1.000
    H8       H        0.76420    0.32740    0.19210    1.000
    C14      C        0.79350    0.40770    0.22557    1.000
    O5       O        0.46466    0.30313    0.07891    1.000
    O6       O        0.55686    0.36359    0.05136    1.000
    C15      C        0.52176    0.33925    0.08539    1.000
    C16      C        0.54690    0.35350    0.13425    1.000
    C17      C        0.50810    0.32670    0.17242    1.000
    H9       H        0.46690    0.29760    0.16760    1.000
    C18      C        0.60840    0.39360    0.14190    1.000
    H10      H        0.63510    0.41010    0.11650    1.000
    C19      C        0.53110    0.34370    0.21798    1.000
    H11      H        0.50480    0.32630    0.24350    1.000
    C20      C        0.63090    0.40960    0.18737    1.000
    H12      H        0.67260    0.43680    0.19210    1.000
    C21      C        0.59230    0.38580    0.22557    1.000
    O7       O        0.30313    0.83847    0.07891    1.000
    O8       O        0.36359    0.80673    0.05136    1.000
    C22      C        0.33925    0.81749    0.08539    1.000
    C23      C        0.35350    0.80660    0.13425    1.000
    C24      C        0.32670    0.81860    0.17242    1.000
    H13      H        0.29760    0.83070    0.16760    1.000
    C25      C        0.39360    0.78520    0.14190    1.000
    H14      H        0.41010    0.77500    0.11650    1.000
    C26      C        0.34370    0.81260    0.21798    1.000
    H15      H        0.32630    0.82150    0.24350    1.000
    C27      C        0.40960    0.77870    0.18737    1.000
    H16      H        0.43680    0.76420    0.19210    1.000
    C28      C        0.38580    0.79350    0.22557    1.000
    O9       O        0.16153    0.46466    0.07891    1.000
    O10      O        0.19327    0.55686    0.05136    1.000
    C29      C        0.18251    0.52176    0.08539    1.000
    C30      C        0.19340    0.54690    0.13425    1.000
    C31      C        0.18140    0.50810    0.17242    1.000
    H17      H        0.16930    0.46690    0.16760    1.000
    C32      C        0.21480    0.60840    0.14190    1.000
    H18      H        0.22500    0.63510    0.11650    1.000
    C33      C        0.18740    0.53110    0.21798    1.000
    H19      H        0.17850    0.50480    0.24350    1.000
    C34      C        0.22130    0.63090    0.18737    1.000
    H20      H        0.23580    0.67260    0.19210    1.000
    C35      C        0.20650    0.59230    0.22557    1.000
    O11      O        0.53534    0.69687    0.07891    1.000
    O12      O        0.44314    0.63641    0.05136    1.000
    C36      C        0.47824    0.66075    0.08539    1.000
    C37      C        0.45310    0.64650    0.13425    1.000
    C38      C        0.49190    0.67330    0.17242    1.000
    H21      H        0.53310    0.70240    0.16760    1.000
    C39      C        0.39160    0.60640    0.14190    1.000
    H22      H        0.36490    0.58990    0.11650    1.000
    C40      C        0.46890    0.65630    0.21798    1.000
    H23      H        0.49520    0.67370    0.24350    1.000
    C41      C        0.36910    0.59040    0.18737    1.000
    H24      H        0.32740    0.56320    0.19210    1.000
    C42      C        0.40770    0.61420    0.22557    1.000
    O13      O        0.16153    0.69687    0.42109    1.000
    O14      O        0.19327    0.63641    0.44864    1.000
    C43      C        0.18251    0.66075    0.41461    1.000
    C44      C        0.19340    0.64650    0.36575    1.000
    C45      C        0.18140    0.67330    0.32758    1.000
    H25      H        0.16930    0.70240    0.33240    1.000
    C46      C        0.21480    0.60640    0.35810    1.000
    H26      H        0.22500    0.58990    0.38350    1.000
    C47      C        0.18740    0.65630    0.28202    1.000
    H27      H        0.17850    0.67370    0.25650    1.000
    C48      C        0.22130    0.59040    0.31263    1.000
    H28      H        0.23580    0.56320    0.30790    1.000
    C49      C        0.20650    0.61420    0.27443    1.000
    O15      O        0.53534    0.83847    0.42109    1.000
    O16      O        0.44314    0.80673    0.44864    1.000
    C50      C        0.47824    0.81749    0.41461    1.000
    C51      C        0.45310    0.80660    0.36575    1.000
    C52      C        0.49190    0.81860    0.32758    1.000
    H29      H        0.53310    0.83070    0.33240    1.000
    C53      C        0.39160    0.78520    0.35810    1.000
    H30      H        0.36490    0.77500    0.38350    1.000
    C54      C        0.46890    0.81260    0.28202    1.000
    H31      H        0.49520    0.82150    0.25650    1.000
    C55      C        0.36910    0.77870    0.31263    1.000
    H32      H        0.32740    0.76420    0.30790    1.000
    C56      C        0.40770    0.79350    0.27443    1.000
    O17      O        0.30313    0.46466    0.42109    1.000
    O18      O        0.36359    0.55686    0.44864    1.000
    C57      C        0.33925    0.52176    0.41461    1.000
    C58      C        0.35350    0.54690    0.36575    1.000
    C59      C        0.32670    0.50810    0.32758    1.000
    H33      H        0.29760    0.46690    0.33240    1.000
    C60      C        0.39360    0.60840    0.35810    1.000
    H34      H        0.41010    0.63510    0.38350    1.000
    C61      C        0.34370    0.53110    0.28202    1.000
    H35      H        0.32630    0.50480    0.25650    1.000
    C62      C        0.40960    0.63090    0.31263    1.000
    H36      H        0.43680    0.67260    0.30790    1.000
    C63      C        0.38580    0.59230    0.27443    1.000
    O19      O        0.83847    0.30313    0.42109    1.000
    O20      O        0.80673    0.36359    0.44864    1.000
    C64      C        0.81749    0.33925    0.41461    1.000
    C65      C        0.80660    0.35350    0.36575    1.000
    C66      C        0.81860    0.32670    0.32758    1.000
    H37      H        0.83070    0.29760    0.33240    1.000
    C67      C        0.78520    0.39360    0.35810    1.000
    H38      H        0.77500    0.41010    0.38350    1.000
    C68      C        0.81260    0.34370    0.28202    1.000
    H39      H        0.82150    0.32630    0.25650    1.000
    C69      C        0.77870    0.40960    0.31263    1.000
    H40      H        0.76420    0.43680    0.30790    1.000
    C70      C        0.79350    0.38580    0.27443    1.000
    O21      O        0.46466    0.16153    0.42109    1.000
    O22      O        0.55686    0.19327    0.44864    1.000
    C71      C        0.52176    0.18251    0.41461    1.000
    C72      C        0.54690    0.19340    0.36575    1.000
    C73      C        0.50810    0.18140    0.32758    1.000
    H41      H        0.46690    0.16930    0.33240    1.000
    C74      C        0.60840    0.21480    0.35810    1.000
    H42      H        0.63510    0.22500    0.38350    1.000
    C75      C        0.53110    0.18740    0.28202    1.000
    H43      H        0.50480    0.17850    0.25650    1.000
    C76      C        0.63090    0.22130    0.31263    1.000
    H44      H        0.67260    0.23580    0.30790    1.000
    C77      C        0.59230    0.20650    0.27443    1.000
    O23      O        0.69687    0.53534    0.42109    1.000
    O24      O        0.63641    0.44314    0.44864    1.000
    C78      C        0.66075    0.47824    0.41461    1.000
    C79      C        0.64650    0.45310    0.36575    1.000
    C80      C        0.67330    0.49190    0.32758    1.000
    H45      H        0.70240    0.53310    0.33240    1.000
    C81      C        0.60640    0.39160    0.35810    1.000
    H46      H        0.58990    0.36490    0.38350    1.000
    C82      C        0.65630    0.46890    0.28202    1.000
    H47      H        0.67370    0.49520    0.25650    1.000
    C83      C        0.59040    0.36910    0.31263    1.000
    H48      H        0.56320    0.32740    0.30790    1.000
    C84      C        0.61420    0.40770    0.27443    1.000
    O25      O        0.30313    0.83847    0.92109    1.000
    O26      O        0.36359    0.80673    0.94864    1.000
    C85      C        0.33925    0.81749    0.91461    1.000
    C86      C        0.35350    0.80660    0.86575    1.000
    C87      C        0.32670    0.81860    0.82758    1.000
    H49      H        0.29760    0.83070    0.83240    1.000
    C88      C        0.39360    0.78520    0.85810    1.000
    H50      H        0.41010    0.77500    0.88350    1.000
    C89      C        0.34370    0.81260    0.78202    1.000
    H51      H        0.32630    0.82150    0.75650    1.000
    C90      C        0.40960    0.77870    0.81263    1.000
    H52      H        0.43680    0.76420    0.80790    1.000
    C91      C        0.38580    0.79350    0.77443    1.000
    O27      O        0.16153    0.46466    0.92109    1.000
    O28      O        0.19327    0.55686    0.94864    1.000
    C92      C        0.18251    0.52176    0.91461    1.000
    C93      C        0.19340    0.54690    0.86575    1.000
    C94      C        0.18140    0.50810    0.82758    1.000
    H53      H        0.16930    0.46690    0.83240    1.000
    C95      C        0.21480    0.60840    0.85810    1.000
    H54      H        0.22500    0.63510    0.88350    1.000
    C96      C        0.18740    0.53110    0.78202    1.000
    H55      H        0.17850    0.50480    0.75650    1.000
    C97      C        0.22130    0.63090    0.81263    1.000
    H56      H        0.23580    0.67260    0.80790    1.000
    C98      C        0.20650    0.59230    0.77443    1.000
    O29      O        0.53534    0.69687    0.92109    1.000
    O30      O        0.44314    0.63641    0.94864    1.000
    C99      C        0.47824    0.66075    0.91461    1.000
    C100     C        0.45310    0.64650    0.86575    1.000
    C101     C        0.49190    0.67330    0.82758    1.000
    H57      H        0.53310    0.70240    0.83240    1.000
    C102     C        0.39160    0.60640    0.85810    1.000
    H58      H        0.36490    0.58990    0.88350    1.000
    C103     C        0.46890    0.65630    0.78202    1.000
    H59      H        0.49520    0.67370    0.75650    1.000
    C104     C        0.36910    0.59040    0.81263    1.000
    H60      H        0.32740    0.56320    0.80790    1.000
    C105     C        0.40770    0.61420    0.77443    1.000
    O31      O        0.69687    0.16153    0.92109    1.000
    O32      O        0.63641    0.19327    0.94864    1.000
    C106     C        0.66075    0.18251    0.91461    1.000
    C107     C        0.64650    0.19340    0.86575    1.000
    C108     C        0.67330    0.18140    0.82758    1.000
    H61      H        0.70240    0.16930    0.83240    1.000
    C109     C        0.60640    0.21480    0.85810    1.000
    H62      H        0.58990    0.22500    0.88350    1.000
    C110     C        0.65630    0.18740    0.78202    1.000
    H63      H        0.67370    0.17850    0.75650    1.000
    C111     C        0.59040    0.22130    0.81263    1.000
    H64      H        0.56320    0.23580    0.80790    1.000
    C112     C        0.61420    0.20650    0.77443    1.000
    O33      O        0.83847    0.53534    0.92109    1.000
    O34      O        0.80673    0.44314    0.94864    1.000
    C113     C        0.81749    0.47824    0.91461    1.000
    C114     C        0.80660    0.45310    0.86575    1.000
    C115     C        0.81860    0.49190    0.82758    1.000
    H65      H        0.83070    0.53310    0.83240    1.000
    C116     C        0.78520    0.39160    0.85810    1.000
    H66      H        0.77500    0.36490    0.88350    1.000
    C117     C        0.81260    0.46890    0.78202    1.000
    H67      H        0.82150    0.49520    0.75650    1.000
    C118     C        0.77870    0.36910    0.81263    1.000
    H68      H        0.76420    0.32740    0.80790    1.000
    C119     C        0.79350    0.40770    0.77443    1.000
    O35      O        0.46466    0.30313    0.92109    1.000
    O36      O        0.55686    0.36359    0.94864    1.000
    C120     C        0.52176    0.33925    0.91461    1.000
    C121     C        0.54690    0.35350    0.86575    1.000
    C122     C        0.50810    0.32670    0.82758    1.000
    H69      H        0.46690    0.29760    0.83240    1.000
    C123     C        0.60840    0.39360    0.85810    1.000
    H70      H        0.63510    0.41010    0.88350    1.000
    C124     C        0.53110    0.34370    0.78202    1.000
    H71      H        0.50480    0.32630    0.75650    1.000
    C125     C        0.63090    0.40960    0.81263    1.000
    H72      H        0.67260    0.43680    0.80790    1.000
    C126     C        0.59230    0.38580    0.77443    1.000
    O37      O        0.83847    0.30313    0.57891    1.000
    O38      O        0.80673    0.36359    0.55136    1.000
    C127     C        0.81749    0.33925    0.58539    1.000
    C128     C        0.80660    0.35350    0.63425    1.000
    C129     C        0.81860    0.32670    0.67242    1.000
    H73      H        0.83070    0.29760    0.66760    1.000
    C130     C        0.78520    0.39360    0.64190    1.000
    H74      H        0.77500    0.41010    0.61650    1.000
    C131     C        0.81260    0.34370    0.71798    1.000
    H75      H        0.82150    0.32630    0.74350    1.000
    C132     C        0.77870    0.40960    0.68737    1.000
    H76      H        0.76420    0.43680    0.69210    1.000
    C133     C        0.79350    0.38580    0.72557    1.000
    O39      O        0.46466    0.16153    0.57891    1.000
    O40      O        0.55686    0.19327    0.55136    1.000
    C134     C        0.52176    0.18251    0.58539    1.000
    C135     C        0.54690    0.19340    0.63425    1.000
    C136     C        0.50810    0.18140    0.67242    1.000
    H77      H        0.46690    0.16930    0.66760    1.000
    C137     C        0.60840    0.21480    0.64190    1.000
    H78      H        0.63510    0.22500    0.61650    1.000
    C138     C        0.53110    0.18740    0.71798    1.000
    H79      H        0.50480    0.17850    0.74350    1.000
    C139     C        0.63090    0.22130    0.68737    1.000
    H80      H        0.67260    0.23580    0.69210    1.000
    C140     C        0.59230    0.20650    0.72557    1.000
    O41      O        0.69687    0.53534    0.57891    1.000
    O42      O        0.63641    0.44314    0.55136    1.000
    C141     C        0.66075    0.47824    0.58539    1.000
    C142     C        0.64650    0.45310    0.63425    1.000
    C143     C        0.67330    0.49190    0.67242    1.000
    H81      H        0.70240    0.53310    0.66760    1.000
    C144     C        0.60640    0.39160    0.64190    1.000
    H82      H        0.58990    0.36490    0.61650    1.000
    C145     C        0.65630    0.46890    0.71798    1.000
    H83      H        0.67370    0.49520    0.74350    1.000
    C146     C        0.59040    0.36910    0.68737    1.000
    H84      H        0.56320    0.32740    0.69210    1.000
    C147     C        0.61420    0.40770    0.72557    1.000
    O43      O        0.16153    0.69687    0.57891    1.000
    O44      O        0.19327    0.63641    0.55136    1.000
    C148     C        0.18251    0.66075    0.58539    1.000
    C149     C        0.19340    0.64650    0.63425    1.000
    C150     C        0.18140    0.67330    0.67242    1.000
    H85      H        0.16930    0.70240    0.66760    1.000
    C151     C        0.21480    0.60640    0.64190    1.000
    H86      H        0.22500    0.58990    0.61650    1.000
    C152     C        0.18740    0.65630    0.71798    1.000
    H87      H        0.17850    0.67370    0.74350    1.000
    C153     C        0.22130    0.59040    0.68737    1.000
    H88      H        0.23580    0.56320    0.69210    1.000
    C154     C        0.20650    0.61420    0.72557    1.000
    O45      O        0.53534    0.83847    0.57891    1.000
    O46      O        0.44314    0.80673    0.55136    1.000
    C155     C        0.47824    0.81749    0.58539    1.000
    C156     C        0.45310    0.80660    0.63425    1.000
    C157     C        0.49190    0.81860    0.67242    1.000
    H89      H        0.53310    0.83070    0.66760    1.000
    C158     C        0.39160    0.78520    0.64190    1.000
    H90      H        0.36490    0.77500    0.61650    1.000
    C159     C        0.46890    0.81260    0.71798    1.000
    H91      H        0.49520    0.82150    0.74350    1.000
    C160     C        0.36910    0.77870    0.68737    1.000
    H92      H        0.32740    0.76420    0.69210    1.000
    C161     C        0.40770    0.79350    0.72557    1.000
    O47      O        0.30313    0.46466    0.57891    1.000
    O48      O        0.36359    0.55686    0.55136    1.000
    C162     C        0.33925    0.52176    0.58539    1.000
    C163     C        0.35350    0.54690    0.63425    1.000
    C164     C        0.32670    0.50810    0.67242    1.000
    H93      H        0.29760    0.46690    0.66760    1.000
    C165     C        0.39360    0.60840    0.64190    1.000
    H94      H        0.41010    0.63510    0.61650    1.000
    C166     C        0.34370    0.53110    0.71798    1.000
    H95      H        0.32630    0.50480    0.74350    1.000
    C167     C        0.40960    0.63090    0.68737    1.000
    H96      H        0.43680    0.67260    0.69210    1.000
    C168     C        0.38580    0.59230    0.72557    1.000
    In1      In       0.68785    0.16294    0.00000    1.000
    S1       S        0.92813    0.30318    0.00000    1.000
    O49      O        0.06868    0.38132    0.00000    1.000
    O50      O        0.79306    0.20203    0.00000    1.000
    O51      O        0.07237    0.47008    0.00000    1.000
    C169     C        0.80100    0.25540    0.00000    1.000
    O52      O        0.75612    0.26424    0.00000    1.000
    C170     C        0.86340    0.30970    0.00000    1.000
    C171     C        0.97450    0.38100    0.00000    1.000
    C172     C        0.04160    0.41200    0.00000    1.000
    C173     C        0.87750    0.36910    0.00000    1.000
    H97      H        0.84810    0.38140    0.00000    1.000
    C174     C        0.93970    0.40940    0.00000    1.000
    H98      H        0.95680    0.45190    0.00000    1.000
    In2      In       0.83706    0.52491    0.00000    1.000
    S2       S        0.69682    0.62495    0.00000    1.000
    O53      O        0.61868    0.68736    0.00000    1.000
    O54      O        0.79797    0.59103    0.00000    1.000
    O55      O        0.52992    0.60229    0.00000    1.000
    C175     C        0.74460    0.54560    0.00000    1.000
    O56      O        0.73576    0.49188    0.00000    1.000
    C176     C        0.69030    0.55370    0.00000    1.000
    C177     C        0.61900    0.59350    0.00000    1.000
    C178     C        0.58800    0.62960    0.00000    1.000
    C179     C        0.63090    0.50840    0.00000    1.000
    H99      H        0.61860    0.46670    0.00000    1.000
    C180     C        0.59060    0.53030    0.00000    1.000
    H100     H        0.54810    0.50490    0.00000    1.000
    In3      In       0.47509    0.31215    0.00000    1.000
    S3       S        0.37505    0.07187    0.00000    1.000
    O57      O        0.31264    0.93132    0.00000    1.000
    O58      O        0.40897    0.20694    0.00000    1.000
    O59      O        0.39771    0.92763    0.00000    1.000
    C181     C        0.45440    0.19900    0.00000    1.000
    O60      O        0.50812    0.24388    0.00000    1.000
    C182     C        0.44630    0.13660    0.00000    1.000
    C183     C        0.40650    0.02550    0.00000    1.000
    C184     C        0.37040    0.95840    0.00000    1.000
    C185     C        0.49160    0.12250    0.00000    1.000
    H101     H        0.53330    0.15190    0.00000    1.000
    C186     C        0.46970    0.06030    0.00000    1.000
    H102     H        0.49510    0.04320    0.00000    1.000
    In4      In       0.31215    0.83706    0.00000    1.000
    S4       S        0.07187    0.69682    0.00000    1.000
    O61      O        0.93132    0.61868    0.00000    1.000
    O62      O        0.20694    0.79797    0.00000    1.000
    O63      O        0.92763    0.52992    0.00000    1.000
    C187     C        0.19900    0.74460    0.00000    1.000
    O64      O        0.24388    0.73576    0.00000    1.000
    C188     C        0.13660    0.69030    0.00000    1.000
    C189     C        0.02550    0.61900    0.00000    1.000
    C190     C        0.95840    0.58800    0.00000    1.000
    C191     C        0.12250    0.63090    0.00000    1.000
    H103     H        0.15190    0.61860    0.00000    1.000
    C192     C        0.06030    0.59060    0.00000    1.000
    H104     H        0.04320    0.54810    0.00000    1.000
    In5      In       0.16294    0.47509    0.00000    1.000
    S5       S        0.30318    0.37505    0.00000    1.000
    O65      O        0.38132    0.31264    0.00000    1.000
    O66      O        0.20203    0.40897    0.00000    1.000
    O67      O        0.47008    0.39771    0.00000    1.000
    C193     C        0.25540    0.45440    0.00000    1.000
    O68      O        0.26424    0.50812    0.00000    1.000
    C194     C        0.30970    0.44630    0.00000    1.000
    C195     C        0.38100    0.40650    0.00000    1.000
    C196     C        0.41200    0.37040    0.00000    1.000
    C197     C        0.36910    0.49160    0.00000    1.000
    H105     H        0.38140    0.53330    0.00000    1.000
    C198     C        0.40940    0.46970    0.00000    1.000
    H106     H        0.45190    0.49510    0.00000    1.000
    In6      In       0.52491    0.68785    0.00000    1.000
    S6       S        0.62495    0.92813    0.00000    1.000
    O69      O        0.68736    0.06868    0.00000    1.000
    O70      O        0.59103    0.79306    0.00000    1.000
    O71      O        0.60229    0.07237    0.00000    1.000
    C199     C        0.54560    0.80100    0.00000    1.000
    O72      O        0.49188    0.75612    0.00000    1.000
    C200     C        0.55370    0.86340    0.00000    1.000
    C201     C        0.59350    0.97450    0.00000    1.000
    C202     C        0.62960    0.04160    0.00000    1.000
    C203     C        0.50840    0.87750    0.00000    1.000
    H107     H        0.46670    0.84810    0.00000    1.000
    C204     C        0.53030    0.93970    0.00000    1.000
    H108     H        0.50490    0.95680    0.00000    1.000
    In7      In       0.16294    0.68785    0.50000    1.000
    S7       S        0.30318    0.92813    0.50000    1.000
    O73      O        0.38132    0.06868    0.50000    1.000
    O74      O        0.20203    0.79306    0.50000    1.000
    O75      O        0.47008    0.07237    0.50000    1.000
    C205     C        0.25540    0.80100    0.50000    1.000
    O76      O        0.26424    0.75612    0.50000    1.000
    C206     C        0.30970    0.86340    0.50000    1.000
    C207     C        0.38100    0.97450    0.50000    1.000
    C208     C        0.41200    0.04160    0.50000    1.000
    C209     C        0.36910    0.87750    0.50000    1.000
    H109     H        0.38140    0.84810    0.50000    1.000
    C210     C        0.40940    0.93970    0.50000    1.000
    H110     H        0.45190    0.95680    0.50000    1.000
    In8      In       0.52491    0.83706    0.50000    1.000
    S8       S        0.62495    0.69682    0.50000    1.000
    O77      O        0.68736    0.61868    0.50000    1.000
    O78      O        0.59103    0.79797    0.50000    1.000
    O79      O        0.60229    0.52992    0.50000    1.000
    C211     C        0.54560    0.74460    0.50000    1.000
    O80      O        0.49188    0.73576    0.50000    1.000
    C212     C        0.55370    0.69030    0.50000    1.000
    C213     C        0.59350    0.61900    0.50000    1.000
    C214     C        0.62960    0.58800    0.50000    1.000
    C215     C        0.50840    0.63090    0.50000    1.000
    H111     H        0.46670    0.61860    0.50000    1.000
    C216     C        0.53030    0.59060    0.50000    1.000
    H112     H        0.50490    0.54810    0.50000    1.000
    In9      In       0.31215    0.47509    0.50000    1.000
    S9       S        0.07187    0.37505    0.50000    1.000
    O81      O        0.93132    0.31264    0.50000    1.000
    O82      O        0.20694    0.40897    0.50000    1.000
    O83      O        0.92763    0.39771    0.50000    1.000
    C217     C        0.19900    0.45440    0.50000    1.000
    O84      O        0.24388    0.50812    0.50000    1.000
    C218     C        0.13660    0.44630    0.50000    1.000
    C219     C        0.02550    0.40650    0.50000    1.000
    C220     C        0.95840    0.37040    0.50000    1.000
    C221     C        0.12250    0.49160    0.50000    1.000
    H113     H        0.15190    0.53330    0.50000    1.000
    C222     C        0.06030    0.46970    0.50000    1.000
    H114     H        0.04320    0.49510    0.50000    1.000
    In10     In       0.83706    0.31215    0.50000    1.000
    S10      S        0.69682    0.07187    0.50000    1.000
    O85      O        0.61868    0.93132    0.50000    1.000
    O86      O        0.79797    0.20694    0.50000    1.000
    O87      O        0.52992    0.92763    0.50000    1.000
    C223     C        0.74460    0.19900    0.50000    1.000
    O88      O        0.73576    0.24388    0.50000    1.000
    C224     C        0.69030    0.13660    0.50000    1.000
    C225     C        0.61900    0.02550    0.50000    1.000
    C226     C        0.58800    0.95840    0.50000    1.000
    C227     C        0.63090    0.12250    0.50000    1.000
    H115     H        0.61860    0.15190    0.50000    1.000
    C228     C        0.59060    0.06030    0.50000    1.000
    H116     H        0.54810    0.04320    0.50000    1.000
    In11     In       0.47509    0.16294    0.50000    1.000
    S11      S        0.37505    0.30318    0.50000    1.000
    O89      O        0.31264    0.38132    0.50000    1.000
    O90      O        0.40897    0.20203    0.50000    1.000
    O91      O        0.39771    0.47008    0.50000    1.000
    C229     C        0.45440    0.25540    0.50000    1.000
    O92      O        0.50812    0.26424    0.50000    1.000
    C230     C        0.44630    0.30970    0.50000    1.000
    C231     C        0.40650    0.38100    0.50000    1.000
    C232     C        0.37040    0.41200    0.50000    1.000
    C233     C        0.49160    0.36910    0.50000    1.000
    H117     H        0.53330    0.38140    0.50000    1.000
    C234     C        0.46970    0.40940    0.50000    1.000
    H118     H        0.49510    0.45190    0.50000    1.000
    In12     In       0.68785    0.52491    0.50000    1.000
    S12      S        0.92813    0.62495    0.50000    1.000
    O93      O        0.06868    0.68736    0.50000    1.000
    O94      O        0.79306    0.59103    0.50000    1.000
    O95      O        0.07237    0.60229    0.50000    1.000
    C235     C        0.80100    0.54560    0.50000    1.000
    O96      O        0.75612    0.49188    0.50000    1.000
    C236     C        0.86340    0.55370    0.50000    1.000
    C237     C        0.97450    0.59350    0.50000    1.000
    C238     C        0.04160    0.62960    0.50000    1.000
    C239     C        0.87750    0.50840    0.50000    1.000
    H119     H        0.84810    0.46670    0.50000    1.000
    C240     C        0.93970    0.53030    0.50000    1.000
    H120     H        0.95680    0.50490    0.50000    1.000
