# CIF file generated by openbabel 3.1.0, see https://openbabel.org
data_I
_chemical_name_common 'image0'
_cell_length_a 32.8171
_cell_length_b 32.8171
_cell_length_c 9.2305
_cell_angle_alpha 90
_cell_angle_beta 90
_cell_angle_gamma 120
_space_group_name_H-M_alt 'P 1'
_space_group_name_Hall 'P 1'
loop_
    _symmetry_equiv_pos_as_xyz
    x,y,z
loop_
    _atom_site_label
    _atom_site_type_symbol
    _atom_site_fract_x
    _atom_site_fract_y
    _atom_site_fract_z
    _atom_site_occupancy
    N1       N        0.53592    0.00274    0.17780    1.000
    N2       N        0.49861    0.05665    0.07060    1.000
    N3       N        0.62304    0.86420    0.23570    1.000
    N4       N        0.62030    0.20810    0.90980    1.000
    C1       C        0.55666    0.97585    0.20450    1.000
    C2       C        0.58491    0.99207    0.33380    1.000
    H1       H        0.60210    0.97950    0.37460    1.000
    C3       C        0.58174    0.02854    0.38430    1.000
    H2       H        0.59630    0.04610    0.46680    1.000
    C4       C        0.55154    0.03551    0.28730    1.000
    C5       C        0.54199    0.07258    0.30000    1.000
    C6       C        0.51674    0.08146    0.19690    1.000
    C7       C        0.50431    0.11746    0.21080    1.000
    H3       H        0.51280    0.13910    0.28600    1.000
    C8       C        0.47805    0.11407    0.09490    1.000
    H4       H        0.46480    0.13270    0.07500    1.000
    C9       C        0.47433    0.07624    0.00790    1.000
    C10      C        0.55189    0.93907    0.11870    1.000
    C11      C        0.57742    0.91375    0.16330    1.000
    C12      C        0.55943    0.87910    0.26750    1.000
    H5       H        0.53160    0.87170    0.31540    1.000
    C13      C        0.58323    0.85545    0.29980    1.000
    H6       H        0.57070    0.83210    0.37040    1.000
    C14      C        0.61877    0.92319    0.09680    1.000
    H7       H        0.63220    0.94640    0.02620    1.000
    C15      C        0.64017    0.89779    0.13610    1.000
    H8       H        0.66810    0.90450    0.09020    1.000
    C16      C        0.55952    0.10328    0.43050    1.000
    C17      C        0.54166    0.08532    0.56570    1.000
    H9       H        0.51890    0.05380    0.57480    1.000
    C18      C        0.55703    0.11334    0.68780    1.000
    H10      H        0.54440    0.10080    0.77800    1.000
    C19      C        0.59131    0.16010    0.67520    1.000
    C20      C        0.60938    0.17867    0.54180    1.000
    H11      H        0.63230    0.21020    0.53350    1.000
    C21      C        0.59361    0.15059    0.41920    1.000
    H12      H        0.60590    0.16340    0.32890    1.000
    C22      C        0.60790    0.18783    0.80550    1.000
    N5       N        0.46408    0.99726    0.82220    1.000
    N6       N        0.50139    0.94335    0.92940    1.000
    N7       N        0.37696    0.13580    0.76430    1.000
    N8       N        0.37970    0.79190    0.09020    1.000
    C23      C        0.44334    0.02415    0.79550    1.000
    C24      C        0.41509    0.00793    0.66620    1.000
    H13      H        0.39790    0.02050    0.62540    1.000
    C25      C        0.41826    0.97146    0.61570    1.000
    H14      H        0.40370    0.95390    0.53320    1.000
    C26      C        0.44846    0.96449    0.71270    1.000
    C27      C        0.45801    0.92742    0.70000    1.000
    C28      C        0.48326    0.91854    0.80310    1.000
    C29      C        0.49569    0.88254    0.78920    1.000
    H15      H        0.48720    0.86090    0.71400    1.000
    C30      C        0.52195    0.88593    0.90510    1.000
    H16      H        0.53520    0.86730    0.92500    1.000
    C31      C        0.52567    0.92376    0.99210    1.000
    C32      C        0.44811    0.06093    0.88130    1.000
    C33      C        0.42258    0.08625    0.83670    1.000
    C34      C        0.44057    0.12090    0.73250    1.000
    H17      H        0.46840    0.12830    0.68460    1.000
    C35      C        0.41677    0.14455    0.70020    1.000
    H18      H        0.42930    0.16790    0.62960    1.000
    C36      C        0.38123    0.07681    0.90320    1.000
    H19      H        0.36780    0.05360    0.97380    1.000
    C37      C        0.35983    0.10221    0.86390    1.000
    H20      H        0.33190    0.09550    0.90980    1.000
    C38      C        0.44048    0.89672    0.56950    1.000
    C39      C        0.45834    0.91468    0.43430    1.000
    H21      H        0.48110    0.94620    0.42520    1.000
    C40      C        0.44297    0.88666    0.31220    1.000
    H22      H        0.45560    0.89920    0.22200    1.000
    C41      C        0.40869    0.83990    0.32480    1.000
    C42      C        0.39062    0.82133    0.45820    1.000
    H23      H        0.36770    0.78980    0.46650    1.000
    C43      C        0.40639    0.84941    0.58080    1.000
    H24      H        0.39410    0.83660    0.67110    1.000
    C44      C        0.39210    0.81217    0.19450    1.000
    Co1      Co       0.50000    0.00000    0.00000    1.000
    N9       N        0.20259    0.33607    0.51113    1.000
    N10      N        0.16528    0.38998    0.40393    1.000
    N11      N        0.28971    0.19753    0.56903    1.000
    N12      N        0.28697    0.54143    0.24313    1.000
    C45      C        0.22333    0.30918    0.53783    1.000
    C46      C        0.25158    0.32540    0.66713    1.000
    H25      H        0.26877    0.31283    0.70793    1.000
    C47      C        0.24841    0.36187    0.71763    1.000
    H26      H        0.26297    0.37943    0.80013    1.000
    C48      C        0.21821    0.36884    0.62063    1.000
    C49      C        0.20866    0.40591    0.63333    1.000
    C50      C        0.18341    0.41479    0.53023    1.000
    C51      C        0.17098    0.45079    0.54413    1.000
    H27      H        0.17947    0.47243    0.61933    1.000
    C52      C        0.14472    0.44740    0.42823    1.000
    H28      H        0.13147    0.46603    0.40833    1.000
    C53      C        0.14100    0.40957    0.34123    1.000
    C54      C        0.21856    0.27240    0.45203    1.000
    C55      C        0.24409    0.24708    0.49663    1.000
    C56      C        0.22610    0.21243    0.60083    1.000
    H29      H        0.19827    0.20503    0.64873    1.000
    C57      C        0.24990    0.18878    0.63313    1.000
    H30      H        0.23737    0.16543    0.70373    1.000
    C58      C        0.28544    0.25652    0.43013    1.000
    H31      H        0.29887    0.27973    0.35953    1.000
    C59      C        0.30684    0.23112    0.46943    1.000
    H32      H        0.33477    0.23783    0.42353    1.000
    C60      C        0.22619    0.43661    0.76383    1.000
    C61      C        0.20833    0.41865    0.89903    1.000
    H33      H        0.18557    0.38713    0.90813    1.000
    C62      C        0.22370    0.44667    0.02113    1.000
    H34      H        0.21107    0.43413    0.11133    1.000
    C63      C        0.25798    0.49343    0.00853    1.000
    C64      C        0.27605    0.51200    0.87513    1.000
    H35      H        0.29897    0.54353    0.86683    1.000
    C65      C        0.26028    0.48392    0.75253    1.000
    H36      H        0.27257    0.49673    0.66223    1.000
    C66      C        0.27457    0.52116    0.13883    1.000
    N13      N        0.13075    0.33059    0.15553    1.000
    N14      N        0.16806    0.27668    0.26273    1.000
    N15      N        0.04363    0.46913    0.09763    1.000
    N16      N        0.04637    0.12523    0.42353    1.000
    C67      C        0.11001    0.35748    0.12883    1.000
    C68      C        0.08176    0.34126    0.99953    1.000
    H37      H        0.06457    0.35383    0.95873    1.000
    C69      C        0.08493    0.30479    0.94903    1.000
    H38      H        0.07037    0.28723    0.86653    1.000
    C70      C        0.11513    0.29782    0.04603    1.000
    C71      C        0.12468    0.26075    0.03333    1.000
    C72      C        0.14993    0.25187    0.13643    1.000
    C73      C        0.16236    0.21587    0.12253    1.000
    H39      H        0.15387    0.19423    0.04733    1.000
    C74      C        0.18862    0.21926    0.23843    1.000
    H40      H        0.20187    0.20063    0.25833    1.000
    C75      C        0.19234    0.25709    0.32543    1.000
    C76      C        0.11478    0.39426    0.21463    1.000
    C77      C        0.08925    0.41958    0.17003    1.000
    C78      C        0.10724    0.45423    0.06583    1.000
    H41      H        0.13507    0.46163    0.01793    1.000
    C79      C        0.08344    0.47788    0.03353    1.000
    H42      H        0.09597    0.50123    0.96293    1.000
    C80      C        0.04790    0.41014    0.23653    1.000
    H43      H        0.03447    0.38693    0.30713    1.000
    C81      C        0.02650    0.43554    0.19723    1.000
    H44      H        0.99857    0.42883    0.24313    1.000
    C82      C        0.10715    0.23005    0.90283    1.000
    C83      C        0.12501    0.24801    0.76763    1.000
    H45      H        0.14777    0.27953    0.75853    1.000
    C84      C        0.10964    0.21999    0.64553    1.000
    H46      H        0.12227    0.23253    0.55533    1.000
    C85      C        0.07536    0.17323    0.65813    1.000
    C86      C        0.05729    0.15466    0.79153    1.000
    H47      H        0.03437    0.12313    0.79983    1.000
    C87      C        0.07306    0.18274    0.91413    1.000
    H48      H        0.06077    0.16993    0.00443    1.000
    C88      C        0.05877    0.14550    0.52783    1.000
    Co2      Co       0.16667    0.33333    0.33333    1.000
    N17      N        0.86925    0.66941    0.84447    1.000
    N18      N        0.83194    0.72332    0.73727    1.000
    N19      N        0.95637    0.53087    0.90237    1.000
    N20      N        0.95363    0.87477    0.57647    1.000
    C89      C        0.88999    0.64252    0.87117    1.000
    C90      C        0.91824    0.65874    0.00047    1.000
    H49      H        0.93543    0.64617    0.04127    1.000
    C91      C        0.91507    0.69521    0.05097    1.000
    H50      H        0.92963    0.71277    0.13347    1.000
    C92      C        0.88487    0.70218    0.95397    1.000
    C93      C        0.87532    0.73925    0.96667    1.000
    C94      C        0.85007    0.74813    0.86357    1.000
    C95      C        0.83764    0.78413    0.87747    1.000
    H51      H        0.84613    0.80577    0.95267    1.000
    C96      C        0.81138    0.78074    0.76157    1.000
    H52      H        0.79813    0.79937    0.74167    1.000
    C97      C        0.80766    0.74291    0.67457    1.000
    C98      C        0.88522    0.60574    0.78537    1.000
    C99      C        0.91075    0.58042    0.82997    1.000
    C100     C        0.89276    0.54577    0.93417    1.000
    H53      H        0.86493    0.53837    0.98207    1.000
    C101     C        0.91656    0.52212    0.96647    1.000
    H54      H        0.90403    0.49877    0.03707    1.000
    C102     C        0.95210    0.58986    0.76347    1.000
    H55      H        0.96553    0.61307    0.69287    1.000
    C103     C        0.97350    0.56446    0.80277    1.000
    H56      H        0.00143    0.57117    0.75687    1.000
    C104     C        0.89285    0.76995    0.09717    1.000
    C105     C        0.87499    0.75199    0.23237    1.000
    H57      H        0.85223    0.72047    0.24147    1.000
    C106     C        0.89036    0.78001    0.35447    1.000
    H58      H        0.87773    0.76747    0.44467    1.000
    C107     C        0.92464    0.82677    0.34187    1.000
    C108     C        0.94271    0.84534    0.20847    1.000
    H59      H        0.96563    0.87687    0.20017    1.000
    C109     C        0.92694    0.81726    0.08587    1.000
    H60      H        0.93923    0.83007    0.99557    1.000
    C110     C        0.94123    0.85450    0.47217    1.000
    N21      N        0.79741    0.66393    0.48887    1.000
    N22      N        0.83472    0.61002    0.59607    1.000
    N23      N        0.71029    0.80247    0.43097    1.000
    N24      N        0.71303    0.45857    0.75687    1.000
    C111     C        0.77667    0.69082    0.46217    1.000
    C112     C        0.74842    0.67460    0.33287    1.000
    H61      H        0.73123    0.68717    0.29207    1.000
    C113     C        0.75159    0.63813    0.28237    1.000
    H62      H        0.73703    0.62057    0.19987    1.000
    C114     C        0.78179    0.63116    0.37937    1.000
    C115     C        0.79134    0.59409    0.36667    1.000
    C116     C        0.81659    0.58521    0.46977    1.000
    C117     C        0.82902    0.54921    0.45587    1.000
    H63      H        0.82053    0.52757    0.38067    1.000
    C118     C        0.85528    0.55260    0.57177    1.000
    H64      H        0.86853    0.53397    0.59167    1.000
    C119     C        0.85900    0.59043    0.65877    1.000
    C120     C        0.78144    0.72760    0.54797    1.000
    C121     C        0.75591    0.75292    0.50337    1.000
    C122     C        0.77390    0.78757    0.39917    1.000
    H65      H        0.80173    0.79497    0.35127    1.000
    C123     C        0.75010    0.81122    0.36687    1.000
    H66      H        0.76263    0.83457    0.29627    1.000
    C124     C        0.71456    0.74348    0.56987    1.000
    H67      H        0.70113    0.72027    0.64047    1.000
    C125     C        0.69316    0.76888    0.53057    1.000
    H68      H        0.66523    0.76217    0.57647    1.000
    C126     C        0.77381    0.56339    0.23617    1.000
    C127     C        0.79167    0.58135    0.10097    1.000
    H69      H        0.81443    0.61287    0.09187    1.000
    C128     C        0.77630    0.55333    0.97887    1.000
    H70      H        0.78893    0.56587    0.88867    1.000
    C129     C        0.74202    0.50657    0.99147    1.000
    C130     C        0.72395    0.48800    0.12487    1.000
    H71      H        0.70103    0.45647    0.13317    1.000
    C131     C        0.73972    0.51608    0.24747    1.000
    H72      H        0.72743    0.50327    0.33777    1.000
    C132     C        0.72543    0.47884    0.86117    1.000
    Co3      Co       0.83333    0.66667    0.66667    1.000
    N25      N        0.99726    0.53318    0.17780    1.000
    N26      N        0.94335    0.44196    0.07060    1.000
    N27      N        0.13580    0.75884    0.23570    1.000
    N28      N        0.79190    0.41220    0.90980    1.000
    C133     C        0.02415    0.58081    0.20450    1.000
    C134     C        0.00793    0.59284    0.33380    1.000
    H73      H        0.02050    0.62260    0.37460    1.000
    C135     C        0.97146    0.55320    0.38430    1.000
    H74      H        0.95390    0.55020    0.46680    1.000
    C136     C        0.96449    0.51603    0.28730    1.000
    C137     C        0.92742    0.46941    0.30000    1.000
    C138     C        0.91854    0.43528    0.19690    1.000
    C139     C        0.88254    0.38685    0.21080    1.000
    H75      H        0.86090    0.37370    0.28600    1.000
    C140     C        0.88593    0.36398    0.09490    1.000
    H76      H        0.86730    0.33210    0.07500    1.000
    C141     C        0.92376    0.39809    0.00790    1.000
    C142     C        0.06093    0.61282    0.11870    1.000
    C143     C        0.08625    0.66367    0.16330    1.000
    C144     C        0.12090    0.68033    0.26750    1.000
    H77      H        0.12830    0.65990    0.31540    1.000
    C145     C        0.14455    0.72778    0.29980    1.000
    H78      H        0.16790    0.73860    0.37040    1.000
    C146     C        0.07681    0.69558    0.09680    1.000
    H79      H        0.05360    0.68580    0.02620    1.000
    C147     C        0.10221    0.74238    0.13610    1.000
    H80      H        0.09550    0.76360    0.09020    1.000
    C148     C        0.89672    0.45624    0.43050    1.000
    C149     C        0.91468    0.45634    0.56570    1.000
    H81      H        0.94620    0.46510    0.57480    1.000
    C150     C        0.88666    0.44369    0.68780    1.000
    H82      H        0.89920    0.44360    0.77800    1.000
    C151     C        0.83990    0.43121    0.67520    1.000
    C152     C        0.82133    0.43071    0.54180    1.000
    H83      H        0.78980    0.42210    0.53350    1.000
    C153     C        0.84941    0.44302    0.41920    1.000
    H84      H        0.83660    0.44250    0.32890    1.000
    C154     C        0.81217    0.42007    0.80550    1.000
    N29      N        0.00274    0.46682    0.82220    1.000
    N30      N        0.05665    0.55804    0.92940    1.000
    N31      N        0.86420    0.24116    0.76430    1.000
    N32      N        0.20810    0.58780    0.09020    1.000
    C155     C        0.97585    0.41919    0.79550    1.000
    C156     C        0.99207    0.40716    0.66620    1.000
    H85      H        0.97950    0.37740    0.62540    1.000
    C157     C        0.02854    0.44680    0.61570    1.000
    H86      H        0.04610    0.44980    0.53320    1.000
    C158     C        0.03551    0.48397    0.71270    1.000
    C159     C        0.07258    0.53059    0.70000    1.000
    C160     C        0.08146    0.56472    0.80310    1.000
    C161     C        0.11746    0.61315    0.78920    1.000
    H87      H        0.13910    0.62630    0.71400    1.000
    C162     C        0.11407    0.63602    0.90510    1.000
    H88      H        0.13270    0.66790    0.92500    1.000
    C163     C        0.07624    0.60191    0.99210    1.000
    C164     C        0.93907    0.38718    0.88130    1.000
    C165     C        0.91375    0.33633    0.83670    1.000
    C166     C        0.87910    0.31967    0.73250    1.000
    H89      H        0.87170    0.34010    0.68460    1.000
    C167     C        0.85545    0.27222    0.70020    1.000
    H90      H        0.83210    0.26140    0.62960    1.000
    C168     C        0.92319    0.30442    0.90320    1.000
    H91      H        0.94640    0.31420    0.97380    1.000
    C169     C        0.89779    0.25762    0.86390    1.000
    H92      H        0.90450    0.23640    0.90980    1.000
    C170     C        0.10328    0.54376    0.56950    1.000
    C171     C        0.08532    0.54366    0.43430    1.000
    H93      H        0.05380    0.53490    0.42520    1.000
    C172     C        0.11334    0.55631    0.31220    1.000
    H94      H        0.10080    0.55640    0.22200    1.000
    C173     C        0.16010    0.56879    0.32480    1.000
    C174     C        0.17867    0.56929    0.45820    1.000
    H95      H        0.21020    0.57790    0.46650    1.000
    C175     C        0.15059    0.55698    0.58080    1.000
    H96      H        0.16340    0.55750    0.67110    1.000
    C176     C        0.18783    0.57993    0.19450    1.000
    Co4      Co       0.00000    0.50000    0.00000    1.000
    N33      N        0.66393    0.86651    0.51113    1.000
    N34      N        0.61002    0.77529    0.40393    1.000
    N35      N        0.80247    0.09217    0.56903    1.000
    N36      N        0.45857    0.74553    0.24313    1.000
    C177     C        0.69082    0.91414    0.53783    1.000
    C178     C        0.67460    0.92617    0.66713    1.000
    H97      H        0.68717    0.95593    0.70793    1.000
    C179     C        0.63813    0.88653    0.71763    1.000
    H98      H        0.62057    0.88353    0.80013    1.000
    C180     C        0.63116    0.84936    0.62063    1.000
    C181     C        0.59409    0.80274    0.63333    1.000
    C182     C        0.58521    0.76861    0.53023    1.000
    C183     C        0.54921    0.72018    0.54413    1.000
    H99      H        0.52757    0.70703    0.61933    1.000
    C184     C        0.55260    0.69731    0.42823    1.000
    H100     H        0.53397    0.66543    0.40833    1.000
    C185     C        0.59043    0.73142    0.34123    1.000
    C186     C        0.72760    0.94615    0.45203    1.000
    C187     C        0.75292    0.99700    0.49663    1.000
    C188     C        0.78757    0.01366    0.60083    1.000
    H101     H        0.79497    0.99323    0.64873    1.000
    C189     C        0.81122    0.06111    0.63313    1.000
    H102     H        0.83457    0.07193    0.70373    1.000
    C190     C        0.74348    0.02891    0.43013    1.000
    H103     H        0.72027    0.01913    0.35953    1.000
    C191     C        0.76888    0.07571    0.46943    1.000
    H104     H        0.76217    0.09693    0.42353    1.000
    C192     C        0.56339    0.78957    0.76383    1.000
    C193     C        0.58135    0.78967    0.89903    1.000
    H105     H        0.61287    0.79843    0.90813    1.000
    C194     C        0.55333    0.77702    0.02113    1.000
    H106     H        0.56587    0.77693    0.11133    1.000
    C195     C        0.50657    0.76454    0.00853    1.000
    C196     C        0.48800    0.76404    0.87513    1.000
    H107     H        0.45647    0.75543    0.86683    1.000
    C197     C        0.51608    0.77635    0.75253    1.000
    H108     H        0.50327    0.77583    0.66223    1.000
    C198     C        0.47884    0.75340    0.13883    1.000
    N37      N        0.66941    0.80015    0.15553    1.000
    N38      N        0.72332    0.89137    0.26273    1.000
    N39      N        0.53087    0.57449    0.09763    1.000
    N40      N        0.87477    0.92113    0.42353    1.000
    C199     C        0.64252    0.75252    0.12883    1.000
    C200     C        0.65874    0.74049    0.99953    1.000
    H109     H        0.64617    0.71073    0.95873    1.000
    C201     C        0.69521    0.78013    0.94903    1.000
    H110     H        0.71277    0.78313    0.86653    1.000
    C202     C        0.70218    0.81730    0.04603    1.000
    C203     C        0.73925    0.86392    0.03333    1.000
    C204     C        0.74813    0.89805    0.13643    1.000
    C205     C        0.78413    0.94648    0.12253    1.000
    H111     H        0.80577    0.95963    0.04733    1.000
    C206     C        0.78074    0.96935    0.23843    1.000
    H112     H        0.79937    0.00123    0.25833    1.000
    C207     C        0.74291    0.93524    0.32543    1.000
    C208     C        0.60574    0.72051    0.21463    1.000
    C209     C        0.58042    0.66966    0.17003    1.000
    C210     C        0.54577    0.65300    0.06583    1.000
    H113     H        0.53837    0.67343    0.01793    1.000
    C211     C        0.52212    0.60555    0.03353    1.000
    H114     H        0.49877    0.59473    0.96293    1.000
    C212     C        0.58986    0.63775    0.23653    1.000
    H115     H        0.61307    0.64753    0.30713    1.000
    C213     C        0.56446    0.59095    0.19723    1.000
    H116     H        0.57117    0.56973    0.24313    1.000
    C214     C        0.76995    0.87709    0.90283    1.000
    C215     C        0.75199    0.87699    0.76763    1.000
    H117     H        0.72047    0.86823    0.75853    1.000
    C216     C        0.78001    0.88964    0.64553    1.000
    H118     H        0.76747    0.88973    0.55533    1.000
    C217     C        0.82677    0.90212    0.65813    1.000
    C218     C        0.84534    0.90262    0.79153    1.000
    H119     H        0.87687    0.91123    0.79983    1.000
    C219     C        0.81726    0.89031    0.91413    1.000
    H120     H        0.83007    0.89083    0.00443    1.000
    C220     C        0.85450    0.91326    0.52783    1.000
    Co5      Co       0.66667    0.83333    0.33333    1.000
    N41      N        0.33059    0.19985    0.84447    1.000
    N42      N        0.27668    0.10863    0.73727    1.000
    N43      N        0.46913    0.42551    0.90237    1.000
    N44      N        0.12523    0.07887    0.57647    1.000
    C221     C        0.35748    0.24748    0.87117    1.000
    C222     C        0.34126    0.25951    0.00047    1.000
    H121     H        0.35383    0.28927    0.04127    1.000
    C223     C        0.30479    0.21987    0.05097    1.000
    H122     H        0.28723    0.21687    0.13347    1.000
    C224     C        0.29782    0.18270    0.95397    1.000
    C225     C        0.26075    0.13608    0.96667    1.000
    C226     C        0.25187    0.10195    0.86357    1.000
    C227     C        0.21587    0.05352    0.87747    1.000
    H123     H        0.19423    0.04037    0.95267    1.000
    C228     C        0.21926    0.03065    0.76157    1.000
    H124     H        0.20063    0.99877    0.74167    1.000
    C229     C        0.25709    0.06476    0.67457    1.000
    C230     C        0.39426    0.27949    0.78537    1.000
    C231     C        0.41958    0.33034    0.82997    1.000
    C232     C        0.45423    0.34700    0.93417    1.000
    H125     H        0.46163    0.32657    0.98207    1.000
    C233     C        0.47788    0.39445    0.96647    1.000
    H126     H        0.50123    0.40527    0.03707    1.000
    C234     C        0.41014    0.36225    0.76347    1.000
    H127     H        0.38693    0.35247    0.69287    1.000
    C235     C        0.43554    0.40905    0.80277    1.000
    H128     H        0.42883    0.43027    0.75687    1.000
    C236     C        0.23005    0.12291    0.09717    1.000
    C237     C        0.24801    0.12301    0.23237    1.000
    H129     H        0.27953    0.13177    0.24147    1.000
    C238     C        0.21999    0.11036    0.35447    1.000
    H130     H        0.23253    0.11027    0.44467    1.000
    C239     C        0.17323    0.09788    0.34187    1.000
    C240     C        0.15466    0.09738    0.20847    1.000
    H131     H        0.12313    0.08877    0.20017    1.000
    C241     C        0.18274    0.10969    0.08587    1.000
    H132     H        0.16993    0.10917    0.99557    1.000
    C242     C        0.14550    0.08674    0.47217    1.000
    N45      N        0.33607    0.13349    0.48887    1.000
    N46      N        0.38998    0.22471    0.59607    1.000
    N47      N        0.19753    0.90783    0.43097    1.000
    N48      N        0.54143    0.25447    0.75687    1.000
    C243     C        0.30918    0.08586    0.46217    1.000
    C244     C        0.32540    0.07383    0.33287    1.000
    H133     H        0.31283    0.04407    0.29207    1.000
    C245     C        0.36187    0.11347    0.28237    1.000
    H134     H        0.37943    0.11647    0.19987    1.000
    C246     C        0.36884    0.15064    0.37937    1.000
    C247     C        0.40591    0.19726    0.36667    1.000
    C248     C        0.41479    0.23139    0.46977    1.000
    C249     C        0.45079    0.27982    0.45587    1.000
    H135     H        0.47243    0.29297    0.38067    1.000
    C250     C        0.44740    0.30269    0.57177    1.000
    H136     H        0.46603    0.33457    0.59167    1.000
    C251     C        0.40957    0.26858    0.65877    1.000
    C252     C        0.27240    0.05385    0.54797    1.000
    C253     C        0.24708    0.00300    0.50337    1.000
    C254     C        0.21243    0.98634    0.39917    1.000
    H137     H        0.20503    0.00677    0.35127    1.000
    C255     C        0.18878    0.93889    0.36687    1.000
    H138     H        0.16543    0.92807    0.29627    1.000
    C256     C        0.25652    0.97109    0.56987    1.000
    H139     H        0.27973    0.98087    0.64047    1.000
    C257     C        0.23112    0.92429    0.53057    1.000
    H140     H        0.23783    0.90307    0.57647    1.000
    C258     C        0.43661    0.21043    0.23617    1.000
    C259     C        0.41865    0.21033    0.10097    1.000
    H141     H        0.38713    0.20157    0.09187    1.000
    C260     C        0.44667    0.22298    0.97887    1.000
    H142     H        0.43413    0.22307    0.88867    1.000
    C261     C        0.49343    0.23546    0.99147    1.000
    C262     C        0.51200    0.23596    0.12487    1.000
    H143     H        0.54353    0.24457    0.13317    1.000
    C263     C        0.48392    0.22365    0.24747    1.000
    H144     H        0.49673    0.22417    0.33777    1.000
    C264     C        0.52116    0.24660    0.86117    1.000
    Co6      Co       0.33333    0.16667    0.66667    1.000
    N49      N        0.46682    0.46408    0.17780    1.000
    N50      N        0.55804    0.50139    0.07060    1.000
    N51      N        0.24116    0.37696    0.23570    1.000
    N52      N        0.58780    0.37970    0.90980    1.000
    C265     C        0.41919    0.44334    0.20450    1.000
    C266     C        0.40716    0.41509    0.33380    1.000
    H145     H        0.37740    0.39790    0.37460    1.000
    C267     C        0.44680    0.41826    0.38430    1.000
    H146     H        0.44980    0.40370    0.46680    1.000
    C268     C        0.48397    0.44846    0.28730    1.000
    C269     C        0.53059    0.45801    0.30000    1.000
    C270     C        0.56472    0.48326    0.19690    1.000
    C271     C        0.61315    0.49569    0.21080    1.000
    H147     H        0.62630    0.48720    0.28600    1.000
    C272     C        0.63602    0.52195    0.09490    1.000
    H148     H        0.66790    0.53520    0.07500    1.000
    C273     C        0.60191    0.52567    0.00790    1.000
    C274     C        0.38718    0.44811    0.11870    1.000
    C275     C        0.33633    0.42258    0.16330    1.000
    C276     C        0.31967    0.44057    0.26750    1.000
    H149     H        0.34010    0.46840    0.31540    1.000
    C277     C        0.27222    0.41677    0.29980    1.000
    H150     H        0.26140    0.42930    0.37040    1.000
    C278     C        0.30442    0.38123    0.09680    1.000
    H151     H        0.31420    0.36780    0.02620    1.000
    C279     C        0.25762    0.35983    0.13610    1.000
    H152     H        0.23640    0.33190    0.09020    1.000
    C280     C        0.54376    0.44048    0.43050    1.000
    C281     C        0.54366    0.45834    0.56570    1.000
    H153     H        0.53490    0.48110    0.57480    1.000
    C282     C        0.55631    0.44297    0.68780    1.000
    H154     H        0.55640    0.45560    0.77800    1.000
    C283     C        0.56879    0.40869    0.67520    1.000
    C284     C        0.56929    0.39062    0.54180    1.000
    H155     H        0.57790    0.36770    0.53350    1.000
    C285     C        0.55698    0.40639    0.41920    1.000
    H156     H        0.55750    0.39410    0.32890    1.000
    C286     C        0.57993    0.39210    0.80550    1.000
    N53      N        0.53318    0.53592    0.82220    1.000
    N54      N        0.44196    0.49861    0.92940    1.000
    N55      N        0.75884    0.62304    0.76430    1.000
    N56      N        0.41220    0.62030    0.09020    1.000
    C287     C        0.58081    0.55666    0.79550    1.000
    C288     C        0.59284    0.58491    0.66620    1.000
    H157     H        0.62260    0.60210    0.62540    1.000
    C289     C        0.55320    0.58174    0.61570    1.000
    H158     H        0.55020    0.59630    0.53320    1.000
    C290     C        0.51603    0.55154    0.71270    1.000
    C291     C        0.46941    0.54199    0.70000    1.000
    C292     C        0.43528    0.51674    0.80310    1.000
    C293     C        0.38685    0.50431    0.78920    1.000
    H159     H        0.37370    0.51280    0.71400    1.000
    C294     C        0.36398    0.47805    0.90510    1.000
    H160     H        0.33210    0.46480    0.92500    1.000
    C295     C        0.39809    0.47433    0.99210    1.000
    C296     C        0.61282    0.55189    0.88130    1.000
    C297     C        0.66367    0.57742    0.83670    1.000
    C298     C        0.68033    0.55943    0.73250    1.000
    H161     H        0.65990    0.53160    0.68460    1.000
    C299     C        0.72778    0.58323    0.70020    1.000
    H162     H        0.73860    0.57070    0.62960    1.000
    C300     C        0.69558    0.61877    0.90320    1.000
    H163     H        0.68580    0.63220    0.97380    1.000
    C301     C        0.74238    0.64017    0.86390    1.000
    H164     H        0.76360    0.66810    0.90980    1.000
    C302     C        0.45624    0.55952    0.56950    1.000
    C303     C        0.45634    0.54166    0.43430    1.000
    H165     H        0.46510    0.51890    0.42520    1.000
    C304     C        0.44369    0.55703    0.31220    1.000
    H166     H        0.44360    0.54440    0.22200    1.000
    C305     C        0.43121    0.59131    0.32480    1.000
    C306     C        0.43071    0.60938    0.45820    1.000
    H167     H        0.42210    0.63230    0.46650    1.000
    C307     C        0.44302    0.59361    0.58080    1.000
    H168     H        0.44250    0.60590    0.67110    1.000
    C308     C        0.42007    0.60790    0.19450    1.000
    Co7      Co       0.50000    0.50000    0.00000    1.000
    N57      N        0.13349    0.79741    0.51113    1.000
    N58      N        0.22471    0.83472    0.40393    1.000
    N59      N        0.90783    0.71029    0.56903    1.000
    N60      N        0.25447    0.71303    0.24313    1.000
    C309     C        0.08586    0.77667    0.53783    1.000
    C310     C        0.07383    0.74842    0.66713    1.000
    H169     H        0.04407    0.73123    0.70793    1.000
    C311     C        0.11347    0.75159    0.71763    1.000
    H170     H        0.11647    0.73703    0.80013    1.000
    C312     C        0.15064    0.78179    0.62063    1.000
    C313     C        0.19726    0.79134    0.63333    1.000
    C314     C        0.23139    0.81659    0.53023    1.000
    C315     C        0.27982    0.82902    0.54413    1.000
    H171     H        0.29297    0.82053    0.61933    1.000
    C316     C        0.30269    0.85528    0.42823    1.000
    H172     H        0.33457    0.86853    0.40833    1.000
    C317     C        0.26858    0.85900    0.34123    1.000
    C318     C        0.05385    0.78144    0.45203    1.000
    C319     C        0.00300    0.75591    0.49663    1.000
    C320     C        0.98634    0.77390    0.60083    1.000
    H173     H        0.00677    0.80173    0.64873    1.000
    C321     C        0.93889    0.75010    0.63313    1.000
    H174     H        0.92807    0.76263    0.70373    1.000
    C322     C        0.97109    0.71456    0.43013    1.000
    H175     H        0.98087    0.70113    0.35953    1.000
    C323     C        0.92429    0.69316    0.46943    1.000
    H176     H        0.90307    0.66523    0.42353    1.000
    C324     C        0.21043    0.77381    0.76383    1.000
    C325     C        0.21033    0.79167    0.89903    1.000
    H177     H        0.20157    0.81443    0.90813    1.000
    C326     C        0.22298    0.77630    0.02113    1.000
    H178     H        0.22307    0.78893    0.11133    1.000
    C327     C        0.23546    0.74202    0.00853    1.000
    C328     C        0.23596    0.72395    0.87513    1.000
    H179     H        0.24457    0.70103    0.86683    1.000
    C329     C        0.22365    0.73972    0.75253    1.000
    H180     H        0.22417    0.72743    0.66223    1.000
    C330     C        0.24660    0.72543    0.13883    1.000
    N61      N        0.19985    0.86925    0.15553    1.000
    N62      N        0.10863    0.83194    0.26273    1.000
    N63      N        0.42551    0.95637    0.09763    1.000
    N64      N        0.07887    0.95363    0.42353    1.000
    C331     C        0.24748    0.88999    0.12883    1.000
    C332     C        0.25951    0.91824    0.99953    1.000
    H181     H        0.28927    0.93543    0.95873    1.000
    C333     C        0.21987    0.91507    0.94903    1.000
    H182     H        0.21687    0.92963    0.86653    1.000
    C334     C        0.18270    0.88487    0.04603    1.000
    C335     C        0.13608    0.87532    0.03333    1.000
    C336     C        0.10195    0.85007    0.13643    1.000
    C337     C        0.05352    0.83764    0.12253    1.000
    H183     H        0.04037    0.84613    0.04733    1.000
    C338     C        0.03065    0.81138    0.23843    1.000
    H184     H        0.99877    0.79813    0.25833    1.000
    C339     C        0.06476    0.80766    0.32543    1.000
    C340     C        0.27949    0.88522    0.21463    1.000
    C341     C        0.33034    0.91075    0.17003    1.000
    C342     C        0.34700    0.89276    0.06583    1.000
    H185     H        0.32657    0.86493    0.01793    1.000
    C343     C        0.39445    0.91656    0.03353    1.000
    H186     H        0.40527    0.90403    0.96293    1.000
    C344     C        0.36225    0.95210    0.23653    1.000
    H187     H        0.35247    0.96553    0.30713    1.000
    C345     C        0.40905    0.97350    0.19723    1.000
    H188     H        0.43027    0.00143    0.24313    1.000
    C346     C        0.12291    0.89285    0.90283    1.000
    C347     C        0.12301    0.87499    0.76763    1.000
    H189     H        0.13177    0.85223    0.75853    1.000
    C348     C        0.11036    0.89036    0.64553    1.000
    H190     H        0.11027    0.87773    0.55533    1.000
    C349     C        0.09788    0.92464    0.65813    1.000
    C350     C        0.09738    0.94271    0.79153    1.000
    H191     H        0.08877    0.96563    0.79983    1.000
    C351     C        0.10969    0.92694    0.91413    1.000
    H192     H        0.10917    0.93923    0.00443    1.000
    C352     C        0.08674    0.94123    0.52783    1.000
    Co8      Co       0.16667    0.83333    0.33333    1.000
    N65      N        0.80015    0.13075    0.84447    1.000
    N66      N        0.89137    0.16806    0.73727    1.000
    N67      N        0.57449    0.04363    0.90237    1.000
    N68      N        0.92113    0.04637    0.57647    1.000
    C353     C        0.75252    0.11001    0.87117    1.000
    C354     C        0.74049    0.08176    0.00047    1.000
    H193     H        0.71073    0.06457    0.04127    1.000
    C355     C        0.78013    0.08493    0.05097    1.000
    H194     H        0.78313    0.07037    0.13347    1.000
    C356     C        0.81730    0.11513    0.95397    1.000
    C357     C        0.86392    0.12468    0.96667    1.000
    C358     C        0.89805    0.14993    0.86357    1.000
    C359     C        0.94648    0.16236    0.87747    1.000
    H195     H        0.95963    0.15387    0.95267    1.000
    C360     C        0.96935    0.18862    0.76157    1.000
    H196     H        0.00123    0.20187    0.74167    1.000
    C361     C        0.93524    0.19234    0.67457    1.000
    C362     C        0.72051    0.11478    0.78537    1.000
    C363     C        0.66966    0.08925    0.82997    1.000
    C364     C        0.65300    0.10724    0.93417    1.000
    H197     H        0.67343    0.13507    0.98207    1.000
    C365     C        0.60555    0.08344    0.96647    1.000
    H198     H        0.59473    0.09597    0.03707    1.000
    C366     C        0.63775    0.04790    0.76347    1.000
    H199     H        0.64753    0.03447    0.69287    1.000
    C367     C        0.59095    0.02650    0.80277    1.000
    H200     H        0.56973    0.99857    0.75687    1.000
    C368     C        0.87709    0.10715    0.09717    1.000
    C369     C        0.87699    0.12501    0.23237    1.000
    H201     H        0.86823    0.14777    0.24147    1.000
    C370     C        0.88964    0.10964    0.35447    1.000
    H202     H        0.88973    0.12227    0.44467    1.000
    C371     C        0.90212    0.07536    0.34187    1.000
    C372     C        0.90262    0.05729    0.20847    1.000
    H203     H        0.91123    0.03437    0.20017    1.000
    C373     C        0.89031    0.07306    0.08587    1.000
    H204     H        0.89083    0.06077    0.99557    1.000
    C374     C        0.91326    0.05877    0.47217    1.000
    N69      N        0.86651    0.20259    0.48887    1.000
    N70      N        0.77529    0.16528    0.59607    1.000
    N71      N        0.09217    0.28971    0.43097    1.000
    N72      N        0.74553    0.28697    0.75687    1.000
    C375     C        0.91414    0.22333    0.46217    1.000
    C376     C        0.92617    0.25158    0.33287    1.000
    H205     H        0.95593    0.26877    0.29207    1.000
    C377     C        0.88653    0.24841    0.28237    1.000
    H206     H        0.88353    0.26297    0.19987    1.000
    C378     C        0.84936    0.21821    0.37937    1.000
    C379     C        0.80274    0.20866    0.36667    1.000
    C380     C        0.76861    0.18341    0.46977    1.000
    C381     C        0.72018    0.17098    0.45587    1.000
    H207     H        0.70703    0.17947    0.38067    1.000
    C382     C        0.69731    0.14472    0.57177    1.000
    H208     H        0.66543    0.13147    0.59167    1.000
    C383     C        0.73142    0.14100    0.65877    1.000
    C384     C        0.94615    0.21856    0.54797    1.000
    C385     C        0.99700    0.24409    0.50337    1.000
    C386     C        0.01366    0.22610    0.39917    1.000
    H209     H        0.99323    0.19827    0.35127    1.000
    C387     C        0.06111    0.24990    0.36687    1.000
    H210     H        0.07193    0.23737    0.29627    1.000
    C388     C        0.02891    0.28544    0.56987    1.000
    H211     H        0.01913    0.29887    0.64047    1.000
    C389     C        0.07571    0.30684    0.53057    1.000
    H212     H        0.09693    0.33477    0.57647    1.000
    C390     C        0.78957    0.22619    0.23617    1.000
    C391     C        0.78967    0.20833    0.10097    1.000
    H213     H        0.79843    0.18557    0.09187    1.000
    C392     C        0.77702    0.22370    0.97887    1.000
    H214     H        0.77693    0.21107    0.88867    1.000
    C393     C        0.76454    0.25798    0.99147    1.000
    C394     C        0.76404    0.27605    0.12487    1.000
    H215     H        0.75543    0.29897    0.13317    1.000
    C395     C        0.77635    0.26028    0.24747    1.000
    H216     H        0.77583    0.27257    0.33777    1.000
    C396     C        0.75340    0.27457    0.86117    1.000
    Co9      Co       0.83333    0.16667    0.66667    1.000
