data_functionalizedCrystal
_audit_creation_method	'EQeq! by Chris Wilmer'
_symmetry_space_group_name_H-M	'P1'
_symmetry_Int_Tables_number	1
_symmetry_cell_setting	triclinic
loop_
_symmetry_equiv_pos_as_xyz
  x,y,z
_cell_length_a	11.958
_cell_length_b	11.958
_cell_length_c	25.035
_cell_angle_alpha	90
_cell_angle_beta	90
_cell_angle_gamma	120
loop_
_atom_site_label
_atom_site_type_symbol
_atom_site_fract_x
_atom_site_fract_y
_atom_site_fract_z
_atom_site_charge
Mof_H 	H 	0.0553	0.1489	0.1292	-0.008
Mof_N 	N 	0.1994	0.3357	0.1133	-0.072
Mof_C 	C 	0.1799	0.3071	0.0275	-0.007
Mof_H 	H 	0.1947	0.3212	0.9902	0.024
Mof_C 	C 	0.2398	0.4007	0.0657	-0.002
Mof_H 	H 	0.2967	0.4905	0.0604	0.023
Mof_C 	C 	0.2413	0.3912	0.1671	-0.048
Mof_H 	H 	0.3106	0.3752	0.1796	0.04
Mof_H 	H 	0.1678	0.3481	0.1922	0.028
Mof_C 	C 	0.2903	0.5344	0.1669	0.003
Mof_H 	H 	0.72197	0.48223	0.46253	-0.002
Mof_N 	N 	0.86607	0.66903	0.44663	-0.069
Mof_C 	C 	0.84657	0.64043	0.36083	0.002
Mof_H 	H 	0.86137	0.65453	0.32353	0.021
Mof_C 	C 	0.90647	0.73403	0.39903	-0.004
Mof_H 	H 	0.96337	0.82383	0.39373	0.029
Mof_C 	C 	0.90797	0.72453	0.50043	-0.048
Mof_H 	H 	0.97727	0.70853	0.51293	0.048
Mof_H 	H 	0.83447	0.68143	0.52553	0.029
Mof_C 	C 	0.95697	0.86773	0.50023	-0.002
Mof_H 	H 	0.38863	0.81557	0.79587	-0.002
Mof_N 	N 	0.53273	0.00237	0.77997	-0.072
Mof_C 	C 	0.51323	0.97377	0.69417	0.006
Mof_H 	H 	0.52803	0.98787	0.65687	0.02
Mof_C 	C 	0.57313	0.06737	0.73237	-0.011
Mof_H 	H 	0.63003	0.15717	0.72707	0.027
Mof_C 	C 	0.57463	0.05787	0.83377	-0.048
Mof_H 	H 	0.64393	0.04187	0.84627	0.039
Mof_H 	H 	0.50113	0.01477	0.85887	0.028
Mof_C 	C 	0.62363	0.20107	0.83357	0.003
Mof_H 	H 	0.8511	0.9064	0.1292	-0.004
Mof_N 	N 	0.6643	0.8637	0.1133	-0.07
Mof_C 	C 	0.6929	0.8728	0.0275	-0.005
Mof_H 	H 	0.6788	0.8735	0.9902	0.027
Mof_C 	C 	0.5993	0.8391	0.0657	0
Mof_H 	H 	0.5095	0.8062	0.0604	0.024
Mof_C 	C 	0.6088	0.8501	0.1671	-0.048
Mof_H 	H 	0.6248	0.9354	0.1796	0.041
Mof_H 	H 	0.6519	0.8197	0.1922	0.029
Mof_C 	C 	0.4656	0.7559	0.1669	0.003
Mof_H 	H 	0.51777	0.23973	0.46253	-0.002
Mof_N 	N 	0.33097	0.19703	0.44663	-0.07
Mof_C 	C 	0.35957	0.20613	0.36083	0.001
Mof_H 	H 	0.34547	0.20683	0.32353	0.019
Mof_C 	C 	0.26597	0.17243	0.39903	-0.003
Mof_H 	H 	0.17617	0.13953	0.39373	0.023
Mof_C 	C 	0.27547	0.18343	0.50043	-0.045
Mof_H 	H 	0.29147	0.26873	0.51293	0.039
Mof_H 	H 	0.31857	0.15303	0.52553	0.028
Mof_C 	C 	0.13227	0.08923	0.50023	-0.005
Mof_H 	H 	0.18443	0.57307	0.79587	-0.001
Mof_N 	N 	0.99763	0.53037	0.77997	-0.067
Mof_C 	C 	0.02623	0.53947	0.69417	-0.005
Mof_H 	H 	0.01213	0.54017	0.65687	0.02
Mof_C 	C 	0.93263	0.50577	0.73237	0
Mof_H 	H 	0.84283	0.47287	0.72707	0.025
Mof_C 	C 	0.94213	0.51677	0.83377	-0.049
Mof_H 	H 	0.95813	0.60207	0.84627	0.042
Mof_H 	H 	0.98523	0.48637	0.85887	0.03
Mof_C 	C 	0.79893	0.42257	0.83357	0.003
Mof_H 	H 	0.0936	0.9447	0.1292	0.012
Mof_N 	N 	0.1363	0.8006	0.1133	-0.068
Mof_C 	C 	0.1272	0.8201	0.0275	-0.007
Mof_H 	H 	0.1265	0.8053	0.9902	0.024
Mof_C 	C 	0.1609	0.7602	0.0657	-0.013
Mof_H 	H 	0.1938	0.7033	0.0604	0.027
Mof_C 	C 	0.1499	0.7587	0.1671	-0.048
Mof_H 	H 	0.0646	0.6894	0.1796	0.04
Mof_H 	H 	0.1803	0.8322	0.1922	0.029
Mof_C 	C 	0.2441	0.7097	0.1669	0.002
Mof_H 	H 	0.76027	0.27803	0.46253	0.005
Mof_N 	N 	0.80297	0.13393	0.44663	-0.07
Mof_C 	C 	0.79387	0.15343	0.36083	-0.002
Mof_H 	H 	0.79317	0.13863	0.32353	0.02
Mof_C 	C 	0.82757	0.09353	0.39903	-0.014
Mof_H 	H 	0.86047	0.03663	0.39373	0.027
Mof_C 	C 	0.81657	0.09203	0.50043	-0.052
Mof_H 	H 	0.73127	0.02273	0.51293	0.033
Mof_H 	H 	0.84697	0.16553	0.52553	0.029
Mof_C 	C 	0.91077	0.04303	0.50023	0.015
Mof_H 	H 	0.42693	0.61137	0.79587	0.004
Mof_N 	N 	0.46963	0.46727	0.77997	-0.069
Mof_C 	C 	0.46053	0.48677	0.69417	-0
Mof_H 	H 	0.45983	0.47197	0.65687	0.02
Mof_C 	C 	0.49423	0.42687	0.73237	-0.009
Mof_H 	H 	0.52713	0.36997	0.72707	0.027
Mof_C 	C 	0.48323	0.42537	0.83377	-0.048
Mof_H 	H 	0.39793	0.35607	0.84627	0.04
Mof_H 	H 	0.51363	0.49887	0.85887	0.029
Mof_C 	C 	0.57743	0.37637	0.83357	0.003
Mof_H 	H 	0.1489	0.0553	0.8708	-0.007
Mof_N 	N 	0.3357	0.1994	0.8867	-0.07
Mof_C 	C 	0.3071	0.1799	0.9725	0.008
Mof_H 	H 	0.3212	0.1947	0.0098	0.014
Mof_C 	C 	0.4007	0.2398	0.9343	-0.006
Mof_H 	H 	0.4905	0.2967	0.9396	0.027
Mof_C 	C 	0.3912	0.2413	0.8329	-0.048
Mof_H 	H 	0.3752	0.3106	0.8204	0.04
Mof_H 	H 	0.3481	0.1678	0.8078	0.028
Mof_C 	C 	0.5344	0.2903	0.8331	0.003
Mof_H 	H 	0.81557	0.38863	0.20413	-0.003
Mof_N 	N 	0.00237	0.53273	0.22003	-0.072
Mof_C 	C 	0.97377	0.51323	0.30583	0.006
Mof_H 	H 	0.98787	0.52803	0.34313	0.02
Mof_C 	C 	0.06737	0.57313	0.26763	-0.011
Mof_H 	H 	0.15717	0.63003	0.27293	0.027
Mof_C 	C 	0.05787	0.57463	0.16623	-0.048
Mof_H 	H 	0.04187	0.64393	0.15373	0.039
Mof_H 	H 	0.01477	0.50113	0.14113	0.028
Mof_C 	C 	0.20107	0.62363	0.16643	0.002
Mof_H 	H 	0.48223	0.72197	0.53747	-0.002
Mof_N 	N 	0.66903	0.86607	0.55337	-0.069
Mof_C 	C 	0.64043	0.84657	0.63917	0.002
Mof_H 	H 	0.65453	0.86137	0.67647	0.021
Mof_C 	C 	0.73403	0.90647	0.60097	-0.004
Mof_H 	H 	0.82383	0.96337	0.60627	0.029
Mof_C 	C 	0.72453	0.90797	0.49957	-0.048
Mof_H 	H 	0.70853	0.97727	0.48707	0.049
Mof_H 	H 	0.68143	0.83447	0.47447	0.029
Mof_C 	C 	0.86773	0.95697	0.49977	-0.002
Mof_H 	H 	0.9064	0.8511	0.8708	-0.003
Mof_N 	N 	0.8637	0.6643	0.8867	-0.069
Mof_C 	C 	0.8728	0.6929	0.9725	0.008
Mof_H 	H 	0.8735	0.6788	0.0098	0.017
Mof_C 	C 	0.8391	0.5993	0.9343	-0.004
Mof_H 	H 	0.8062	0.5095	0.9396	0.027
Mof_C 	C 	0.8501	0.6088	0.8329	-0.048
Mof_H 	H 	0.9354	0.6248	0.8204	0.041
Mof_H 	H 	0.8197	0.6519	0.8078	0.029
Mof_C 	C 	0.7559	0.4656	0.8331	0.003
Mof_H 	H 	0.57307	0.18443	0.20413	-0.001
Mof_N 	N 	0.53037	0.99763	0.22003	-0.067
Mof_C 	C 	0.53947	0.02623	0.30583	-0.005
Mof_H 	H 	0.54017	0.01213	0.34313	0.02
Mof_C 	C 	0.50577	0.93263	0.26763	0
Mof_H 	H 	0.47287	0.84283	0.27293	0.025
Mof_C 	C 	0.51677	0.94213	0.16623	-0.049
Mof_H 	H 	0.60207	0.95813	0.15373	0.042
Mof_H 	H 	0.48637	0.98523	0.14113	0.03
Mof_C 	C 	0.42257	0.79893	0.16643	0.003
Mof_H 	H 	0.23973	0.51777	0.53747	-0.002
Mof_N 	N 	0.19703	0.33097	0.55337	-0.07
Mof_C 	C 	0.20613	0.35957	0.63917	0.001
Mof_H 	H 	0.20683	0.34547	0.67647	0.019
Mof_C 	C 	0.17243	0.26597	0.60097	-0.003
Mof_H 	H 	0.13953	0.17617	0.60627	0.023
Mof_C 	C 	0.18343	0.27547	0.49957	-0.046
Mof_H 	H 	0.26873	0.29147	0.48707	0.039
Mof_H 	H 	0.15303	0.31857	0.47447	0.028
Mof_C 	C 	0.08923	0.13227	0.49977	-0.005
Mof_H 	H 	0.9447	0.0936	0.8708	0.012
Mof_N 	N 	0.8006	0.1363	0.8867	-0.068
Mof_C 	C 	0.8201	0.1272	0.9725	0.006
Mof_H 	H 	0.8053	0.1265	0.0098	0.013
Mof_C 	C 	0.7602	0.1609	0.9343	-0.017
Mof_H 	H 	0.7033	0.1938	0.9396	0.03
Mof_C 	C 	0.7587	0.1499	0.8329	-0.048
Mof_H 	H 	0.6894	0.0646	0.8204	0.04
Mof_H 	H 	0.8322	0.1803	0.8078	0.029
Mof_C 	C 	0.7097	0.2441	0.8331	0.002
Mof_H 	H 	0.61137	0.42693	0.20413	0.004
Mof_N 	N 	0.46727	0.46963	0.22003	-0.069
Mof_C 	C 	0.48677	0.46053	0.30583	-0
Mof_H 	H 	0.47197	0.45983	0.34313	0.02
Mof_C 	C 	0.42687	0.49423	0.26763	-0.009
Mof_H 	H 	0.36997	0.52713	0.27293	0.027
Mof_C 	C 	0.42537	0.48323	0.16623	-0.048
Mof_H 	H 	0.35607	0.39793	0.15373	0.04
Mof_H 	H 	0.49887	0.51363	0.14113	0.028
Mof_C 	C 	0.37637	0.57743	0.16643	0.002
Mof_H 	H 	0.27803	0.76027	0.53747	0.005
Mof_N 	N 	0.13393	0.80297	0.55337	-0.069
Mof_C 	C 	0.15343	0.79387	0.63917	-0.002
Mof_H 	H 	0.13863	0.79317	0.67647	0.02
Mof_C 	C 	0.09353	0.82757	0.60097	-0.013
Mof_H 	H 	0.03663	0.86047	0.60627	0.027
Mof_C 	C 	0.09203	0.81657	0.49957	-0.052
Mof_H 	H 	0.02273	0.73127	0.48707	0.033
Mof_H 	H 	0.16553	0.84697	0.47447	0.029
Mof_C 	C 	0.04303	0.91077	0.49977	0.015
Mof_H 	H 	0.9447	0.8511	0.8708	0.008
Mof_N 	N 	0.8006	0.6643	0.8867	-0.068
Mof_C 	C 	0.8201	0.6929	0.9725	0.007
Mof_H 	H 	0.8053	0.6788	0.0098	0.016
Mof_C 	C 	0.7602	0.5993	0.9343	-0.012
Mof_H 	H 	0.7033	0.5095	0.9396	0.029
Mof_C 	C 	0.7587	0.6088	0.8329	-0.048
Mof_H 	H 	0.6894	0.6248	0.8204	0.041
Mof_H 	H 	0.8322	0.6519	0.8078	0.029
Mof_C 	C 	0.7097	0.4656	0.8331	0.003
Mof_H 	H 	0.61137	0.18443	0.20413	0.003
Mof_N 	N 	0.46727	0.99763	0.22003	-0.067
Mof_C 	C 	0.48677	0.02623	0.30583	-0.005
Mof_H 	H 	0.47197	0.01213	0.34313	0.02
Mof_C 	C 	0.42687	0.93263	0.26763	-0.002
Mof_H 	H 	0.36997	0.84283	0.27293	0.025
Mof_C 	C 	0.42537	0.94213	0.16623	-0.049
Mof_H 	H 	0.35607	0.95813	0.15373	0.041
Mof_H 	H 	0.49887	0.98523	0.14113	0.03
Mof_C 	C 	0.37637	0.79893	0.16643	0.003
Mof_H 	H 	0.27803	0.51777	0.53747	0.002
Mof_N 	N 	0.13393	0.33097	0.55337	-0.07
Mof_C 	C 	0.15343	0.35957	0.63917	-0.001
Mof_H 	H 	0.13863	0.34547	0.67647	0.019
Mof_C 	C 	0.09353	0.26597	0.60097	-0.01
Mof_H 	H 	0.03663	0.17617	0.60627	0.023
Mof_C 	C 	0.09203	0.27547	0.49957	-0.05
Mof_H 	H 	0.02273	0.29147	0.48707	0.032
Mof_H 	H 	0.16553	0.31857	0.47447	0.029
Mof_C 	C 	0.04303	0.13227	0.49977	0.008
Mof_H 	H 	0.1489	0.0936	0.8708	0.004
Mof_N 	N 	0.3357	0.1363	0.8867	-0.069
Mof_C 	C 	0.3071	0.1272	0.9725	0.006
Mof_H 	H 	0.3212	0.1265	0.0098	0.013
Mof_C 	C 	0.4007	0.1609	0.9343	-0.013
Mof_H 	H 	0.4905	0.1938	0.9396	0.029
Mof_C 	C 	0.3912	0.1499	0.8329	-0.048
Mof_H 	H 	0.3752	0.0646	0.8204	0.039
Mof_H 	H 	0.3481	0.1803	0.8078	0.028
Mof_C 	C 	0.5344	0.2441	0.8331	0.002
Mof_H 	H 	0.81557	0.42693	0.20413	0.001
Mof_N 	N 	0.00237	0.46963	0.22003	-0.072
Mof_C 	C 	0.97377	0.46053	0.30583	0.005
Mof_H 	H 	0.98787	0.45983	0.34313	0.02
Mof_C 	C 	0.06737	0.49423	0.26763	-0.013
Mof_H 	H 	0.15717	0.52713	0.27293	0.028
Mof_C 	C 	0.05787	0.48323	0.16623	-0.048
Mof_H 	H 	0.04187	0.39793	0.15373	0.039
Mof_H 	H 	0.01477	0.51363	0.14113	0.027
Mof_C 	C 	0.20107	0.57743	0.16643	0.002
Mof_H 	H 	0.48223	0.76027	0.53747	0.003
Mof_N 	N 	0.66903	0.80297	0.55337	-0.069
Mof_C 	C 	0.64043	0.79387	0.63917	-0
Mof_H 	H 	0.65453	0.79317	0.67647	0.021
Mof_C 	C 	0.73403	0.82757	0.60097	-0.01
Mof_H 	H 	0.82383	0.86047	0.60627	0.029
Mof_C 	C 	0.72453	0.81657	0.49957	-0.05
Mof_H 	H 	0.70853	0.73127	0.48707	0.041
Mof_H 	H 	0.68143	0.84697	0.47447	0.029
Mof_C 	C 	0.86773	0.91077	0.49977	0.009
Mof_H 	H 	0.9064	0.0553	0.8708	-0.011
Mof_N 	N 	0.8637	0.1994	0.8867	-0.07
Mof_C 	C 	0.8728	0.1799	0.9725	0.009
Mof_H 	H 	0.8735	0.1947	0.0098	0.016
Mof_C 	C 	0.8391	0.2398	0.9343	-0.001
Mof_H 	H 	0.8062	0.2967	0.9396	0.026
Mof_C 	C 	0.8501	0.2413	0.8329	-0.048
Mof_H 	H 	0.9354	0.3106	0.8204	0.041
Mof_H 	H 	0.8197	0.1678	0.8078	0.029
Mof_C 	C 	0.7559	0.2903	0.8331	0.003
Mof_H 	H 	0.57307	0.38863	0.20413	-0.004
Mof_N 	N 	0.53037	0.53273	0.22003	-0.07
Mof_C 	C 	0.53947	0.51323	0.30583	0.001
Mof_H 	H 	0.54017	0.52803	0.34313	0.02
Mof_C 	C 	0.50577	0.57313	0.26763	-0.004
Mof_H 	H 	0.47287	0.63003	0.27293	0.026
Mof_C 	C 	0.51677	0.57463	0.16623	-0.048
Mof_H 	H 	0.60207	0.64393	0.15373	0.04
Mof_H 	H 	0.48637	0.50113	0.14113	0.029
Mof_C 	C 	0.42257	0.62363	0.16643	0.003
Mof_H 	H 	0.23973	0.72197	0.53747	-0.005
Mof_N 	N 	0.19703	0.86607	0.55337	-0.069
Mof_C 	C 	0.20613	0.84657	0.63917	0.003
Mof_H 	H 	0.20683	0.86137	0.67647	0.02
Mof_C 	C 	0.17243	0.90647	0.60097	-0
Mof_H 	H 	0.13953	0.96337	0.60627	0.026
Mof_C 	C 	0.18343	0.90797	0.49957	-0.045
Mof_H 	H 	0.26873	0.97727	0.48707	0.048
Mof_H 	H 	0.15303	0.83447	0.47447	0.028
Mof_C 	C 	0.08923	0.95697	0.49977	-0.009
Mof_H 	H 	0.8511	0.9447	0.1292	0.009
Mof_N 	N 	0.6643	0.8006	0.1133	-0.069
Mof_C 	C 	0.6929	0.8201	0.0275	-0.006
Mof_H 	H 	0.6788	0.8053	0.9902	0.026
Mof_C 	C 	0.5993	0.7602	0.0657	-0.009
Mof_H 	H 	0.5095	0.7033	0.0604	0.026
Mof_C 	C 	0.6088	0.7587	0.1671	-0.048
Mof_H 	H 	0.6248	0.6894	0.1796	0.041
Mof_H 	H 	0.6519	0.8322	0.1922	0.029
Mof_C 	C 	0.4656	0.7097	0.1669	0.003
Mof_H 	H 	0.51777	0.27803	0.46253	0.002
Mof_N 	N 	0.33097	0.13393	0.44663	-0.07
Mof_C 	C 	0.35957	0.15343	0.36083	-0.001
Mof_H 	H 	0.34547	0.13863	0.32353	0.019
Mof_C 	C 	0.26597	0.09353	0.39903	-0.01
Mof_H 	H 	0.17617	0.03663	0.39373	0.023
Mof_C 	C 	0.27547	0.09203	0.50043	-0.05
Mof_H 	H 	0.29147	0.02273	0.51293	0.032
Mof_H 	H 	0.31857	0.16553	0.52553	0.029
Mof_C 	C 	0.13227	0.04303	0.50023	0.008
Mof_H 	H 	0.18443	0.61137	0.79587	0.003
Mof_N 	N 	0.99763	0.46727	0.77997	-0.067
Mof_C 	C 	0.02623	0.48677	0.69417	-0.005
Mof_H 	H 	0.01213	0.47197	0.65687	0.02
Mof_C 	C 	0.93263	0.42687	0.73237	-0.002
Mof_H 	H 	0.84283	0.36997	0.72707	0.025
Mof_C 	C 	0.94213	0.42537	0.83377	-0.049
Mof_H 	H 	0.95813	0.35607	0.84627	0.042
Mof_H 	H 	0.98523	0.49887	0.85887	0.03
Mof_C 	C 	0.79893	0.37637	0.83357	0.003
Mof_H 	H 	0.0936	0.1489	0.1292	0.003
Mof_N 	N 	0.1363	0.3357	0.1133	-0.069
Mof_C 	C 	0.1272	0.3071	0.0275	-0.007
Mof_H 	H 	0.1265	0.3212	0.9902	0.024
Mof_C 	C 	0.1609	0.4007	0.0657	-0.009
Mof_H 	H 	0.1938	0.4905	0.0604	0.025
Mof_C 	C 	0.1499	0.3912	0.1671	-0.048
Mof_H 	H 	0.0646	0.3752	0.1796	0.039
Mof_H 	H 	0.1803	0.3481	0.1922	0.028
Mof_C 	C 	0.2441	0.5344	0.1669	0.002
Mof_H 	H 	0.76027	0.48223	0.46253	0.002
Mof_N 	N 	0.80297	0.66903	0.44663	-0.069
Mof_C 	C 	0.79387	0.64043	0.36083	-0
Mof_H 	H 	0.79317	0.65453	0.32353	0.021
Mof_C 	C 	0.82757	0.73403	0.39903	-0.01
Mof_H 	H 	0.86047	0.82383	0.39373	0.029
Mof_C 	C 	0.81657	0.72453	0.50043	-0.049
Mof_H 	H 	0.73127	0.70853	0.51293	0.041
Mof_H 	H 	0.84697	0.68143	0.52553	0.029
Mof_C 	C 	0.91077	0.86773	0.50023	0.008
Mof_H 	H 	0.42693	0.81557	0.79587	0.001
Mof_N 	N 	0.46963	0.00237	0.77997	-0.071
Mof_C 	C 	0.46053	0.97377	0.69417	0.005
Mof_H 	H 	0.45983	0.98787	0.65687	0.02
Mof_C 	C 	0.49423	0.06737	0.73237	-0.014
Mof_H 	H 	0.52713	0.15717	0.72707	0.028
Mof_C 	C 	0.48323	0.05787	0.83377	-0.048
Mof_H 	H 	0.39793	0.04187	0.84627	0.039
Mof_H 	H 	0.51363	0.01477	0.85887	0.028
Mof_C 	C 	0.57743	0.20107	0.83357	0.003
Mof_H 	H 	0.0553	0.9064	0.1292	-0.011
Mof_N 	N 	0.1994	0.8637	0.1133	-0.071
Mof_C 	C 	0.1799	0.8728	0.0275	-0.004
Mof_H 	H 	0.1947	0.8735	0.9902	0.026
Mof_C 	C 	0.2398	0.8391	0.0657	0.003
Mof_H 	H 	0.2967	0.8062	0.0604	0.023
Mof_C 	C 	0.2413	0.8501	0.1671	-0.048
Mof_H 	H 	0.3106	0.9354	0.1796	0.041
Mof_H 	H 	0.1678	0.8197	0.1922	0.029
Mof_C 	C 	0.2903	0.7559	0.1669	0.003
Mof_H 	H 	0.72197	0.23973	0.46253	-0.005
Mof_N 	N 	0.86607	0.19703	0.44663	-0.069
Mof_C 	C 	0.84657	0.20613	0.36083	0.003
Mof_H 	H 	0.86137	0.20683	0.32353	0.02
Mof_C 	C 	0.90647	0.17243	0.39903	-0
Mof_H 	H 	0.96337	0.13953	0.39373	0.026
Mof_C 	C 	0.90797	0.18343	0.50043	-0.045
Mof_H 	H 	0.97727	0.26873	0.51293	0.048
Mof_H 	H 	0.83447	0.15303	0.52553	0.028
Mof_C 	C 	0.95697	0.08923	0.50023	-0.01
Mof_H 	H 	0.38863	0.57307	0.79587	-0.004
Mof_N 	N 	0.53273	0.53037	0.77997	-0.07
Mof_C 	C 	0.51323	0.53947	0.69417	0.001
Mof_H 	H 	0.52803	0.54017	0.65687	0.02
Mof_C 	C 	0.57313	0.50577	0.73237	-0.004
Mof_H 	H 	0.63003	0.47287	0.72707	0.026
Mof_C 	C 	0.57463	0.51677	0.83377	-0.048
Mof_H 	H 	0.64393	0.60207	0.84627	0.041
Mof_H 	H 	0.50113	0.48637	0.85887	0.029
Mof_C 	C 	0.62363	0.42257	0.83357	0.003
Mof_Cd	Cd	-0	0	-0	0.353
Mof_Cd	Cd	0.66667	0.33333	0.33333	0.376
Mof_Cd	Cd	0.33333	0.66667	0.66667	0.377
Mof_N 	N 	0.09435	0.1887	0.0507	-0.145
Mof_C 	C 	0.1054	0.2108	0.1028	0.092
Mof_N 	N 	0.76102	0.52203	0.38403	-0.144
Mof_C 	C 	0.77207	0.54413	0.43613	0.094
Mof_N 	N 	0.42768	0.85537	0.71737	-0.147
Mof_C 	C 	0.43873	0.87747	0.76947	0.103
Mof_N 	N 	0.8113	0.90565	0.0507	-0.138
Mof_C 	C 	0.7892	0.8946	0.1028	0.095
Mof_N 	N 	0.47797	0.23898	0.38403	-0.145
Mof_C 	C 	0.45587	0.22793	0.43613	0.093
Mof_N 	N 	0.14463	0.57232	0.71737	-0.142
Mof_C 	C 	0.12253	0.56127	0.76947	0.084
Mof_N 	N 	0.09435	0.90565	0.0507	-0.141
Mof_C 	C 	0.1054	0.8946	0.1028	0.094
Mof_N 	N 	0.76102	0.23898	0.38403	-0.144
Mof_C 	C 	0.77207	0.22793	0.43613	0.094
Mof_N 	N 	0.42768	0.57232	0.71737	-0.144
Mof_C 	C 	0.43873	0.56127	0.76947	0.094
Mof_N 	N 	0.1887	0.09435	0.9493	-0.146
Mof_C 	C 	0.2108	0.1054	0.8972	0.092
Mof_N 	N 	0.85537	0.42768	0.28263	-0.147
Mof_C 	C 	0.87747	0.43873	0.23053	0.103
Mof_N 	N 	0.52203	0.76102	0.61597	-0.144
Mof_C 	C 	0.54413	0.77207	0.56387	0.094
Mof_N 	N 	0.90565	0.8113	0.9493	-0.139
Mof_C 	C 	0.8946	0.7892	0.8972	0.095
Mof_N 	N 	0.57232	0.14463	0.28263	-0.142
Mof_C 	C 	0.56127	0.12253	0.23053	0.084
Mof_N 	N 	0.23898	0.47797	0.61597	-0.145
Mof_C 	C 	0.22793	0.45587	0.56387	0.093
Mof_N 	N 	0.90565	0.09435	0.9493	-0.142
Mof_C 	C 	0.8946	0.1054	0.8972	0.094
Mof_N 	N 	0.57232	0.42768	0.28263	-0.145
Mof_C 	C 	0.56127	0.43873	0.23053	0.094
Mof_N 	N 	0.23898	0.76102	0.61597	-0.144
Mof_C 	C 	0.22793	0.77207	0.56387	0.094
_end
