data_functionalizedCrystal
_audit_creation_method	'EQeq! by Chris Wilmer'
_symmetry_space_group_name_H-M	'P1'
_symmetry_Int_Tables_number	1
_symmetry_cell_setting	triclinic
loop_
_symmetry_equiv_pos_as_xyz
  x,y,z
_cell_length_a	22.901
_cell_length_b	22.901
_cell_length_c	22.272
_cell_angle_alpha	90
_cell_angle_beta	90
_cell_angle_gamma	120
loop_
_atom_site_label
_atom_site_type_symbol
_atom_site_fract_x
_atom_site_fract_y
_atom_site_fract_z
_atom_site_charge
Mof_I 	I 	0.76274	0.60953	0.83788	-0.683
Mof_I 	I 	0.81052	0.44464	0.79101	-0.59
Mof_Cu	Cu	0.71652	0.48121	0.80421	0.722
Mof_Cu	Cu	0.84155	0.5758	0.77745	0.726
Mof_N 	N 	0.6562	0.4214	0.8739	-0.173
Mof_N 	N 	0.9379	0.6271	0.8116	-0.18
Mof_C 	C 	0.6043	0.4371	0.8878	-0.059
Mof_H 	H 	0.574	0.4258	0.8538	0.038
Mof_H 	H 	0.6245	0.485	0.8955	0.033
Mof_C 	C 	0.6973	0.4306	0.9268	-0.067
Mof_H 	H 	0.717	0.4766	0.9413	0.037
Mof_H 	H 	0.7334	0.4219	0.917	0.037
Mof_C 	C 	0.6217	0.3513	0.8557	-0.061
Mof_H 	H 	0.6547	0.3374	0.848	0.039
Mof_H 	H 	0.5974	0.3463	0.8187	0.036
Mof_C 	C 	0.9858	0.6188	0.7713	-0.072
Mof_H 	H 	0.9838	0.6343	0.7312	0.042
Mof_H 	H 	0.9725	0.5715	0.7689	0.042
Mof_C 	C 	0.9419	0.6012	0.8712	-0.055
Mof_H 	H 	0.9229	0.5528	0.8686	0.037
Mof_H 	H 	0.9149	0.6099	0.8994	0.033
Mof_C 	C 	0.963	0.7015	0.8181	-0.054
Mof_H 	H 	0.9319	0.7082	0.8428	-0.002
Mof_H 	H 	0.9652	0.721	0.7789	0.022
Mof_I 	I 	0.39047	0.15321	0.17121	-0.684
Mof_I 	I 	0.55536	0.36588	0.12434	-0.591
Mof_Cu	Cu	0.51879	0.23531	0.13754	0.721
Mof_Cu	Cu	0.4242	0.26575	0.11078	0.725
Mof_N 	N 	0.5786	0.2348	0.20723	-0.174
Mof_N 	N 	0.3729	0.3108	0.14493	-0.181
Mof_C 	C 	0.5629	0.1672	0.22113	-0.06
Mof_H 	H 	0.5742	0.1482	0.18713	0.037
Mof_H 	H 	0.515	0.1395	0.22883	0.032
Mof_C 	C 	0.5694	0.2667	0.26013	-0.068
Mof_H 	H 	0.5234	0.2404	0.27463	0.035
Mof_H 	H 	0.5781	0.3115	0.25033	0.036
Mof_C 	C 	0.6487	0.2704	0.18903	-0.062
Mof_H 	H 	0.6626	0.3173	0.18133	0.038
Mof_H 	H 	0.6537	0.2511	0.15203	0.035
Mof_C 	C 	0.3812	0.367	0.10463	-0.074
Mof_H 	H 	0.3657	0.3495	0.06453	0.041
Mof_H 	H 	0.4285	0.401	0.10223	0.041
Mof_C 	C 	0.3988	0.3407	0.20453	-0.056
Mof_H 	H 	0.4472	0.3701	0.20193	0.036
Mof_H 	H 	0.3901	0.305	0.23273	0.033
Mof_C 	C 	0.2985	0.2615	0.15143	-0.055
Mof_H 	H 	0.2918	0.2237	0.17613	-0.003
Mof_H 	H 	0.279	0.2442	0.11223	0.021
Mof_I 	I 	0.84679	0.23726	0.50455	-0.684
Mof_I 	I 	0.63412	0.18948	0.45768	-0.591
Mof_Cu	Cu	0.76469	0.28348	0.47088	0.721
Mof_Cu	Cu	0.73425	0.15845	0.44412	0.725
Mof_N 	N 	0.7652	0.3438	0.54057	-0.174
Mof_N 	N 	0.6892	0.0621	0.47827	-0.181
Mof_C 	C 	0.8328	0.3957	0.55447	-0.06
Mof_H 	H 	0.8518	0.426	0.52047	0.037
Mof_H 	H 	0.8605	0.3755	0.56217	0.032
Mof_C 	C 	0.7333	0.3027	0.59347	-0.068
Mof_H 	H 	0.7596	0.283	0.60797	0.035
Mof_H 	H 	0.6885	0.2666	0.58367	0.036
Mof_C 	C 	0.7296	0.3783	0.52237	-0.062
Mof_H 	H 	0.6827	0.3453	0.51467	0.038
Mof_H 	H 	0.7489	0.4026	0.48537	0.035
Mof_C 	C 	0.633	0.0142	0.43797	-0.074
Mof_H 	H 	0.6505	0.0162	0.39787	0.041
Mof_H 	H 	0.599	0.0275	0.43557	0.041
Mof_C 	C 	0.6593	0.0581	0.53787	-0.056
Mof_H 	H 	0.6299	0.0771	0.53527	0.036
Mof_H 	H 	0.695	0.0851	0.56607	0.033
Mof_C 	C 	0.7385	0.037	0.48477	-0.055
Mof_H 	H 	0.7763	0.0681	0.50947	-0.003
Mof_H 	H 	0.7558	0.0348	0.44557	0.021
Mof_I 	I 	0.23726	0.39047	0.33788	-0.684
Mof_I 	I 	0.18948	0.55536	0.29101	-0.591
Mof_Cu	Cu	0.28348	0.51879	0.30421	0.721
Mof_Cu	Cu	0.15845	0.4242	0.27745	0.725
Mof_N 	N 	0.3438	0.5786	0.3739	-0.174
Mof_N 	N 	0.0621	0.3729	0.3116	-0.181
Mof_C 	C 	0.3957	0.5629	0.3878	-0.06
Mof_H 	H 	0.426	0.5742	0.3538	0.037
Mof_H 	H 	0.3755	0.515	0.3955	0.032
Mof_C 	C 	0.3027	0.5694	0.4268	-0.068
Mof_H 	H 	0.283	0.5234	0.4413	0.035
Mof_H 	H 	0.2666	0.5781	0.417	0.036
Mof_C 	C 	0.3783	0.6487	0.3557	-0.062
Mof_H 	H 	0.3453	0.6626	0.348	0.038
Mof_H 	H 	0.4026	0.6537	0.3187	0.035
Mof_C 	C 	0.0142	0.3812	0.2713	-0.073
Mof_H 	H 	0.0162	0.3657	0.2312	0.041
Mof_H 	H 	0.0275	0.4285	0.2689	0.041
Mof_C 	C 	0.0581	0.3988	0.3712	-0.056
Mof_H 	H 	0.0771	0.4472	0.3686	0.036
Mof_H 	H 	0.0851	0.3901	0.3994	0.032
Mof_C 	C 	0.037	0.2985	0.3181	-0.055
Mof_H 	H 	0.0681	0.2918	0.3428	-0.003
Mof_H 	H 	0.0348	0.279	0.2789	0.021
Mof_I 	I 	0.60953	0.84679	0.67121	-0.684
Mof_I 	I 	0.44464	0.63412	0.62434	-0.591
Mof_Cu	Cu	0.48121	0.76469	0.63754	0.721
Mof_Cu	Cu	0.5758	0.73425	0.61078	0.725
Mof_N 	N 	0.4214	0.7652	0.70723	-0.174
Mof_N 	N 	0.6271	0.6892	0.64493	-0.181
Mof_C 	C 	0.4371	0.8328	0.72113	-0.06
Mof_H 	H 	0.4258	0.8518	0.68713	0.037
Mof_H 	H 	0.485	0.8605	0.72883	0.032
Mof_C 	C 	0.4306	0.7333	0.76013	-0.068
Mof_H 	H 	0.4766	0.7596	0.77463	0.035
Mof_H 	H 	0.4219	0.6885	0.75033	0.036
Mof_C 	C 	0.3513	0.7296	0.68903	-0.062
Mof_H 	H 	0.3374	0.6827	0.68133	0.038
Mof_H 	H 	0.3463	0.7489	0.65203	0.035
Mof_C 	C 	0.6188	0.633	0.60463	-0.074
Mof_H 	H 	0.6343	0.6505	0.56453	0.041
Mof_H 	H 	0.5715	0.599	0.60223	0.041
Mof_C 	C 	0.6012	0.6593	0.70453	-0.056
Mof_H 	H 	0.5528	0.6299	0.70193	0.036
Mof_H 	H 	0.6099	0.695	0.73273	0.033
Mof_C 	C 	0.7015	0.7385	0.65143	-0.055
Mof_H 	H 	0.7082	0.7763	0.67613	-0.003
Mof_H 	H 	0.721	0.7558	0.61223	0.021
Mof_I 	I 	0.15321	0.76274	0.00455	-0.684
Mof_I 	I 	0.36588	0.81052	0.95768	-0.592
Mof_Cu	Cu	0.23531	0.71652	0.97088	0.721
Mof_Cu	Cu	0.26575	0.84155	0.94412	0.724
Mof_N 	N 	0.2348	0.6562	0.04057	-0.174
Mof_N 	N 	0.3108	0.9379	0.97827	-0.181
Mof_C 	C 	0.1672	0.6043	0.05447	-0.06
Mof_H 	H 	0.1482	0.574	0.02047	0.037
Mof_H 	H 	0.1395	0.6245	0.06217	0.032
Mof_C 	C 	0.2667	0.6973	0.09347	-0.068
Mof_H 	H 	0.2404	0.717	0.10797	0.035
Mof_H 	H 	0.3115	0.7334	0.08367	0.036
Mof_C 	C 	0.2704	0.6217	0.02237	-0.061
Mof_H 	H 	0.3173	0.6547	0.01467	0.038
Mof_H 	H 	0.2511	0.5974	0.98537	0.035
Mof_C 	C 	0.367	0.9858	0.93797	-0.074
Mof_H 	H 	0.3495	0.9838	0.89787	0.041
Mof_H 	H 	0.401	0.9725	0.93557	0.042
Mof_C 	C 	0.3407	0.9419	0.03787	-0.055
Mof_H 	H 	0.3701	0.9229	0.03527	0.036
Mof_H 	H 	0.305	0.9149	0.06607	0.032
Mof_C 	C 	0.2615	0.963	0.98477	-0.056
Mof_H 	H 	0.2237	0.9319	0.00947	-0.002
Mof_H 	H 	0.2442	0.9652	0.94557	0.022
Mof_I 	I 	0.60953	0.76274	0.49545	-0.684
Mof_I 	I 	0.44464	0.81052	0.54232	-0.591
Mof_Cu	Cu	0.48121	0.71652	0.52912	0.721
Mof_Cu	Cu	0.5758	0.84155	0.55588	0.725
Mof_N 	N 	0.4214	0.6562	0.45943	-0.174
Mof_N 	N 	0.6271	0.9379	0.52173	-0.181
Mof_C 	C 	0.4371	0.6043	0.44553	-0.06
Mof_H 	H 	0.4258	0.574	0.47953	0.037
Mof_H 	H 	0.485	0.6245	0.43783	0.032
Mof_C 	C 	0.4306	0.6973	0.40653	-0.068
Mof_H 	H 	0.4766	0.717	0.39203	0.035
Mof_H 	H 	0.4219	0.7334	0.41633	0.036
Mof_C 	C 	0.3513	0.6217	0.47763	-0.062
Mof_H 	H 	0.3374	0.6547	0.48533	0.038
Mof_H 	H 	0.3463	0.5974	0.51463	0.035
Mof_C 	C 	0.6188	0.9858	0.56203	-0.073
Mof_H 	H 	0.6343	0.9838	0.60213	0.041
Mof_H 	H 	0.5715	0.9725	0.56443	0.041
Mof_C 	C 	0.6012	0.9419	0.46213	-0.056
Mof_H 	H 	0.5528	0.9229	0.46473	0.036
Mof_H 	H 	0.6099	0.9149	0.43393	0.033
Mof_C 	C 	0.7015	0.963	0.51523	-0.055
Mof_H 	H 	0.7082	0.9319	0.49053	-0.003
Mof_H 	H 	0.721	0.9652	0.55443	0.021
Mof_I 	I 	0.15321	0.39047	0.16212	-0.684
Mof_I 	I 	0.36588	0.55536	0.20899	-0.591
Mof_Cu	Cu	0.23531	0.51879	0.19579	0.721
Mof_Cu	Cu	0.26575	0.4242	0.22255	0.725
Mof_N 	N 	0.2348	0.5786	0.1261	-0.174
Mof_N 	N 	0.3108	0.3729	0.1884	-0.181
Mof_C 	C 	0.1672	0.5629	0.1122	-0.06
Mof_H 	H 	0.1482	0.5742	0.1462	0.037
Mof_H 	H 	0.1395	0.515	0.1045	0.032
Mof_C 	C 	0.2667	0.5694	0.0732	-0.068
Mof_H 	H 	0.2404	0.5234	0.0587	0.036
Mof_H 	H 	0.3115	0.5781	0.083	0.036
Mof_C 	C 	0.2704	0.6487	0.1443	-0.062
Mof_H 	H 	0.3173	0.6626	0.152	0.038
Mof_H 	H 	0.2511	0.6537	0.1813	0.035
Mof_C 	C 	0.367	0.3812	0.2287	-0.074
Mof_H 	H 	0.3495	0.3657	0.2688	0.041
Mof_H 	H 	0.401	0.4285	0.2311	0.041
Mof_C 	C 	0.3407	0.3988	0.1288	-0.056
Mof_H 	H 	0.3701	0.4472	0.1314	0.036
Mof_H 	H 	0.305	0.3901	0.1006	0.033
Mof_C 	C 	0.2615	0.2985	0.1819	-0.055
Mof_H 	H 	0.2237	0.2918	0.1572	-0.003
Mof_H 	H 	0.2442	0.279	0.2211	0.021
Mof_I 	I 	0.23726	0.84679	0.82879	-0.684
Mof_I 	I 	0.18948	0.63412	0.87566	-0.591
Mof_Cu	Cu	0.28348	0.76469	0.86246	0.721
Mof_Cu	Cu	0.15845	0.73425	0.88922	0.725
Mof_N 	N 	0.3438	0.7652	0.79277	-0.174
Mof_N 	N 	0.0621	0.6892	0.85507	-0.181
Mof_C 	C 	0.3957	0.8328	0.77887	-0.06
Mof_H 	H 	0.426	0.8518	0.81287	0.037
Mof_H 	H 	0.3755	0.8605	0.77117	0.032
Mof_C 	C 	0.3027	0.7333	0.73987	-0.068
Mof_H 	H 	0.283	0.7596	0.72537	0.035
Mof_H 	H 	0.2666	0.6885	0.74967	0.036
Mof_C 	C 	0.3783	0.7296	0.81097	-0.062
Mof_H 	H 	0.3453	0.6827	0.81867	0.038
Mof_H 	H 	0.4026	0.7489	0.84797	0.035
Mof_C 	C 	0.0142	0.633	0.89537	-0.074
Mof_H 	H 	0.0162	0.6505	0.93547	0.041
Mof_H 	H 	0.0275	0.599	0.89777	0.041
Mof_C 	C 	0.0581	0.6593	0.79547	-0.057
Mof_H 	H 	0.0771	0.6299	0.79807	0.036
Mof_H 	H 	0.0851	0.695	0.76727	0.033
Mof_C 	C 	0.037	0.7385	0.84857	-0.055
Mof_H 	H 	0.0681	0.7763	0.82387	-0.002
Mof_H 	H 	0.0348	0.7558	0.88777	0.021
Mof_I 	I 	0.39047	0.23726	0.99545	-0.684
Mof_I 	I 	0.55536	0.18948	0.04232	-0.592
Mof_Cu	Cu	0.51879	0.28348	0.02912	0.721
Mof_Cu	Cu	0.4242	0.15845	0.05588	0.725
Mof_N 	N 	0.5786	0.3438	0.95943	-0.174
Mof_N 	N 	0.3729	0.0621	0.02173	-0.181
Mof_C 	C 	0.5629	0.3957	0.94553	-0.06
Mof_H 	H 	0.5742	0.426	0.97953	0.037
Mof_H 	H 	0.515	0.3755	0.93783	0.032
Mof_C 	C 	0.5694	0.3027	0.90653	-0.068
Mof_H 	H 	0.5234	0.283	0.89203	0.035
Mof_H 	H 	0.5781	0.2666	0.91633	0.036
Mof_C 	C 	0.6487	0.3783	0.97763	-0.061
Mof_H 	H 	0.6626	0.3453	0.98533	0.038
Mof_H 	H 	0.6537	0.4026	0.01463	0.035
Mof_C 	C 	0.3812	0.0142	0.06203	-0.074
Mof_H 	H 	0.3657	0.0162	0.10213	0.041
Mof_H 	H 	0.4285	0.0275	0.06443	0.042
Mof_C 	C 	0.3988	0.0581	0.96213	-0.055
Mof_H 	H 	0.4472	0.0771	0.96473	0.036
Mof_H 	H 	0.3901	0.0851	0.93393	0.032
Mof_C 	C 	0.2985	0.037	0.01523	-0.055
Mof_H 	H 	0.2918	0.0681	0.99053	-0.002
Mof_H 	H 	0.279	0.0348	0.05443	0.021
Mof_I 	I 	0.84679	0.60953	0.66212	-0.684
Mof_I 	I 	0.63412	0.44464	0.70899	-0.591
Mof_Cu	Cu	0.76469	0.48121	0.69579	0.721
Mof_Cu	Cu	0.73425	0.5758	0.72255	0.725
Mof_N 	N 	0.7652	0.4214	0.6261	-0.174
Mof_N 	N 	0.6892	0.6271	0.6884	-0.181
Mof_C 	C 	0.8328	0.4371	0.6122	-0.06
Mof_H 	H 	0.8518	0.4258	0.6462	0.037
Mof_H 	H 	0.8605	0.485	0.6045	0.032
Mof_C 	C 	0.7333	0.4306	0.5732	-0.068
Mof_H 	H 	0.7596	0.4766	0.5587	0.035
Mof_H 	H 	0.6885	0.4219	0.583	0.036
Mof_C 	C 	0.7296	0.3513	0.6443	-0.062
Mof_H 	H 	0.6827	0.3374	0.652	0.038
Mof_H 	H 	0.7489	0.3463	0.6813	0.035
Mof_C 	C 	0.633	0.6188	0.7287	-0.074
Mof_H 	H 	0.6505	0.6343	0.7688	0.041
Mof_H 	H 	0.599	0.5715	0.7311	0.041
Mof_C 	C 	0.6593	0.6012	0.6288	-0.056
Mof_H 	H 	0.6299	0.5528	0.6314	0.036
Mof_H 	H 	0.695	0.6099	0.6006	0.033
Mof_C 	C 	0.7385	0.7015	0.6819	-0.055
Mof_H 	H 	0.7763	0.7082	0.6572	-0.003
Mof_H 	H 	0.7558	0.721	0.7211	0.021
Mof_I 	I 	0.76274	0.15321	0.32879	-0.684
Mof_I 	I 	0.81052	0.36588	0.37566	-0.591
Mof_Cu	Cu	0.71652	0.23531	0.36246	0.721
Mof_Cu	Cu	0.84155	0.26575	0.38922	0.725
Mof_N 	N 	0.6562	0.2348	0.29277	-0.174
Mof_N 	N 	0.9379	0.3108	0.35507	-0.181
Mof_C 	C 	0.6043	0.1672	0.27887	-0.06
Mof_H 	H 	0.574	0.1482	0.31287	0.037
Mof_H 	H 	0.6245	0.1395	0.27117	0.032
Mof_C 	C 	0.6973	0.2667	0.23987	-0.068
Mof_H 	H 	0.717	0.2404	0.22537	0.035
Mof_H 	H 	0.7334	0.3115	0.24967	0.036
Mof_C 	C 	0.6217	0.2704	0.31097	-0.062
Mof_H 	H 	0.6547	0.3173	0.31867	0.038
Mof_H 	H 	0.5974	0.2511	0.34797	0.035
Mof_C 	C 	0.9858	0.367	0.39537	-0.074
Mof_H 	H 	0.9838	0.3495	0.43547	0.041
Mof_H 	H 	0.9725	0.401	0.39777	0.042
Mof_C 	C 	0.9419	0.3407	0.29547	-0.057
Mof_H 	H 	0.9229	0.3701	0.29807	0.036
Mof_H 	H 	0.9149	0.305	0.26727	0.033
Mof_C 	C 	0.963	0.2615	0.34857	-0.056
Mof_H 	H 	0.9319	0.2237	0.32387	-0.002
Mof_H 	H 	0.9652	0.2442	0.38777	0.022
Mof_Cu	Cu	0.13645	0.21976	0.39233	0.825
Mof_N 	N 	0.2251	0.1454	0.2829	-0.275
Mof_N 	N 	0.1943	0.204	0.3434	-0.27
Mof_C 	C 	0.1065	0.1214	0.2734	-0.133
Mof_C 	C 	0.0696	0.0498	0.2706	0.011
Mof_H 	H 	0.0901	0.0259	0.284	-0.022
Mof_C 	C 	0.1762	0.157	0.2988	0.092
Mof_C 	C 	0.2786	0.1882	0.3188	0.042
Mof_C 	C 	0.258	0.2237	0.3554	0.054
Mof_C 	C 	0.3031	0.2714	0.3956	-0.116
Mof_H 	H 	0.2893	0.2951	0.42	0.049
Mof_C 	C 	0.3688	0.2836	0.3992	-0.021
Mof_H 	H 	0.399	0.3155	0.4261	0.033
Mof_C 	C 	0.3895	0.2481	0.3626	-0.024
Mof_H 	H 	0.4335	0.2562	0.3651	0.033
Mof_C 	C 	0.3444	0.2004	0.3225	-0.114
Mof_H 	H 	0.3582	0.1766	0.298	0.055
Mof_Cu	Cu	0.78024	0.91669	0.72566	0.825
Mof_N 	N 	0.8546	0.0797	0.61623	-0.275
Mof_N 	N 	0.796	0.9903	0.67673	-0.27
Mof_C 	C 	0.8786	0.9851	0.60673	-0.136
Mof_C 	C 	0.9502	0.0198	0.60393	0.015
Mof_H 	H 	0.9741	0.0642	0.61733	-0.023
Mof_C 	C 	0.843	0.0192	0.63213	0.093
Mof_C 	C 	0.8118	0.0904	0.65213	0.042
Mof_C 	C 	0.7763	0.0343	0.68873	0.054
Mof_C 	C 	0.7286	0.0317	0.72893	-0.116
Mof_H 	H 	0.7049	0.9942	0.75333	0.048
Mof_C 	C 	0.7164	0.0852	0.73253	-0.021
Mof_H 	H 	0.6845	0.0835	0.75943	0.033
Mof_C 	C 	0.7519	0.1414	0.69593	-0.024
Mof_H 	H 	0.7438	0.1773	0.69843	0.033
Mof_C 	C 	0.7996	0.144	0.65583	-0.114
Mof_H 	H 	0.8234	0.1816	0.63133	0.055
Mof_Cu	Cu	0.08331	0.86355	0.059	0.825
Mof_N 	N 	0.9203	0.7749	0.94957	-0.275
Mof_N 	N 	0.0097	0.8057	0.01007	-0.27
Mof_C 	C 	0.0149	0.8935	0.94007	-0.145
Mof_C 	C 	0.9802	0.9304	0.93727	0.029
Mof_H 	H 	0.9358	0.9099	0.95067	-0.028
Mof_C 	C 	0.9808	0.8238	0.96547	0.096
Mof_C 	C 	0.9096	0.7214	0.98547	0.042
Mof_C 	C 	0.9657	0.742	0.02207	0.054
Mof_C 	C 	0.9683	0.6969	0.06227	-0.117
Mof_H 	H 	0.0058	0.7107	0.08667	0.049
Mof_C 	C 	0.9148	0.6312	0.06587	-0.02
Mof_H 	H 	0.9165	0.601	0.09277	0.033
Mof_C 	C 	0.8586	0.6105	0.02927	-0.026
Mof_H 	H 	0.8227	0.5665	0.03177	0.034
Mof_C 	C 	0.856	0.6556	0.98917	-0.113
Mof_H 	H 	0.8184	0.6418	0.96467	0.055
Mof_Cu	Cu	0.86355	0.78024	0.89233	0.825
Mof_N 	N 	0.7749	0.8546	0.7829	-0.275
Mof_N 	N 	0.8057	0.796	0.8434	-0.27
Mof_C 	C 	0.8935	0.8786	0.7734	-0.135
Mof_C 	C 	0.9304	0.9502	0.7706	0.013
Mof_H 	H 	0.9099	0.9741	0.784	-0.022
Mof_C 	C 	0.8238	0.843	0.7988	0.093
Mof_C 	C 	0.7214	0.8118	0.8188	0.042
Mof_C 	C 	0.742	0.7763	0.8554	0.054
Mof_C 	C 	0.6969	0.7286	0.8956	-0.116
Mof_H 	H 	0.7107	0.7049	0.92	0.049
Mof_C 	C 	0.6312	0.7164	0.8992	-0.021
Mof_H 	H 	0.601	0.6845	0.9261	0.033
Mof_C 	C 	0.6105	0.7519	0.8626	-0.024
Mof_H 	H 	0.5665	0.7438	0.8651	0.033
Mof_C 	C 	0.6556	0.7996	0.8225	-0.114
Mof_H 	H 	0.6418	0.8234	0.798	0.055
Mof_Cu	Cu	0.21976	0.08331	0.22566	0.825
Mof_N 	N 	0.1454	0.9203	0.11623	-0.275
Mof_N 	N 	0.204	0.0097	0.17673	-0.271
Mof_C 	C 	0.1214	0.0149	0.10673	-0.139
Mof_C 	C 	0.0498	0.9802	0.10393	0.019
Mof_H 	H 	0.0259	0.9358	0.11733	-0.024
Mof_C 	C 	0.157	0.9808	0.13213	0.094
Mof_C 	C 	0.1882	0.9096	0.15213	0.042
Mof_C 	C 	0.2237	0.9657	0.18873	0.054
Mof_C 	C 	0.2714	0.9683	0.22893	-0.115
Mof_H 	H 	0.2951	0.0058	0.25333	0.048
Mof_C 	C 	0.2836	0.9148	0.23253	-0.021
Mof_H 	H 	0.3155	0.9165	0.25943	0.033
Mof_C 	C 	0.2481	0.8586	0.19593	-0.024
Mof_H 	H 	0.2562	0.8227	0.19843	0.033
Mof_C 	C 	0.2004	0.856	0.15583	-0.114
Mof_H 	H 	0.1766	0.8184	0.13133	0.055
Mof_Cu	Cu	0.91669	0.13645	0.559	0.825
Mof_N 	N 	0.0797	0.2251	0.44957	-0.275
Mof_N 	N 	0.9903	0.1943	0.51007	-0.271
Mof_C 	C 	0.9851	0.1065	0.44007	-0.141
Mof_C 	C 	0.0198	0.0696	0.43727	0.023
Mof_H 	H 	0.0642	0.0901	0.45067	-0.026
Mof_C 	C 	0.0192	0.1762	0.46547	0.095
Mof_C 	C 	0.0904	0.2786	0.48547	0.042
Mof_C 	C 	0.0343	0.258	0.52207	0.054
Mof_C 	C 	0.0317	0.3031	0.56227	-0.116
Mof_H 	H 	0.9942	0.2893	0.58667	0.049
Mof_C 	C 	0.0852	0.3688	0.56587	-0.021
Mof_H 	H 	0.0835	0.399	0.59277	0.033
Mof_C 	C 	0.1414	0.3895	0.52927	-0.024
Mof_H 	H 	0.1773	0.4335	0.53177	0.033
Mof_C 	C 	0.144	0.3444	0.48917	-0.114
Mof_H 	H 	0.1816	0.3582	0.46467	0.055
Mof_Cu	Cu	0.21976	0.13645	0.941	0.825
Mof_N 	N 	0.1454	0.2251	0.05043	-0.275
Mof_N 	N 	0.204	0.1943	0.98993	-0.27
Mof_C 	C 	0.1214	0.1065	0.05993	-0.138
Mof_C 	C 	0.0498	0.0696	0.06273	0.018
Mof_H 	H 	0.0259	0.0901	0.04933	-0.024
Mof_C 	C 	0.157	0.1762	0.03453	0.094
Mof_C 	C 	0.1882	0.2786	0.01453	0.041
Mof_C 	C 	0.2237	0.258	0.97793	0.054
Mof_C 	C 	0.2714	0.3031	0.93773	-0.116
Mof_H 	H 	0.2951	0.2893	0.91333	0.049
Mof_C 	C 	0.2836	0.3688	0.93413	-0.021
Mof_H 	H 	0.3155	0.399	0.90723	0.033
Mof_C 	C 	0.2481	0.3895	0.97073	-0.025
Mof_H 	H 	0.2562	0.4335	0.96823	0.033
Mof_C 	C 	0.2004	0.3444	0.01083	-0.114
Mof_H 	H 	0.1766	0.3582	0.03533	0.055
Mof_Cu	Cu	0.91669	0.78024	0.60767	0.825
Mof_N 	N 	0.0797	0.8546	0.7171	-0.275
Mof_N 	N 	0.9903	0.796	0.6566	-0.27
Mof_C 	C 	0.9851	0.8786	0.7266	-0.134
Mof_C 	C 	0.0198	0.9502	0.7294	0.012
Mof_H 	H 	0.0642	0.9741	0.716	-0.022
Mof_C 	C 	0.0192	0.843	0.7012	0.092
Mof_C 	C 	0.0904	0.8118	0.6812	0.042
Mof_C 	C 	0.0343	0.7763	0.6446	0.054
Mof_C 	C 	0.0317	0.7286	0.6044	-0.116
Mof_H 	H 	0.9942	0.7049	0.58	0.049
Mof_C 	C 	0.0852	0.7164	0.6008	-0.021
Mof_H 	H 	0.0835	0.6845	0.5739	0.033
Mof_C 	C 	0.1414	0.7519	0.6374	-0.024
Mof_H 	H 	0.1773	0.7438	0.6349	0.033
Mof_C 	C 	0.144	0.7996	0.6775	-0.114
Mof_H 	H 	0.1816	0.8234	0.702	0.055
Mof_Cu	Cu	0.86355	0.08331	0.27434	0.825
Mof_N 	N 	0.7749	0.9203	0.38377	-0.275
Mof_N 	N 	0.8057	0.0097	0.32327	-0.271
Mof_C 	C 	0.8935	0.0149	0.39327	-0.141
Mof_C 	C 	0.9304	0.9802	0.39607	0.023
Mof_H 	H 	0.9099	0.9358	0.38267	-0.026
Mof_C 	C 	0.8238	0.9808	0.36787	0.095
Mof_C 	C 	0.7214	0.9096	0.34787	0.042
Mof_C 	C 	0.742	0.9657	0.31127	0.054
Mof_C 	C 	0.6969	0.9683	0.27107	-0.115
Mof_H 	H 	0.7107	0.0058	0.24667	0.048
Mof_C 	C 	0.6312	0.9148	0.26747	-0.021
Mof_H 	H 	0.601	0.9165	0.24057	0.033
Mof_C 	C 	0.6105	0.8586	0.30407	-0.024
Mof_H 	H 	0.5665	0.8227	0.30157	0.033
Mof_C 	C 	0.6556	0.856	0.34417	-0.114
Mof_H 	H 	0.6418	0.8184	0.36867	0.055
Mof_Cu	Cu	0.78024	0.86355	0.441	0.825
Mof_N 	N 	0.8546	0.7749	0.55043	-0.275
Mof_N 	N 	0.796	0.8057	0.48993	-0.27
Mof_C 	C 	0.8786	0.8935	0.55993	-0.136
Mof_C 	C 	0.9502	0.9304	0.56273	0.015
Mof_H 	H 	0.9741	0.9099	0.54933	-0.023
Mof_C 	C 	0.843	0.8238	0.53453	0.093
Mof_C 	C 	0.8118	0.7214	0.51453	0.042
Mof_C 	C 	0.7763	0.742	0.47793	0.054
Mof_C 	C 	0.7286	0.6969	0.43773	-0.116
Mof_H 	H 	0.7049	0.7107	0.41333	0.049
Mof_C 	C 	0.7164	0.6312	0.43413	-0.021
Mof_H 	H 	0.6845	0.601	0.40723	0.033
Mof_C 	C 	0.7519	0.6105	0.47073	-0.024
Mof_H 	H 	0.7438	0.5665	0.46823	0.033
Mof_C 	C 	0.7996	0.6556	0.51083	-0.114
Mof_H 	H 	0.8234	0.6418	0.53533	0.055
Mof_Cu	Cu	0.08331	0.21976	0.10767	0.825
Mof_N 	N 	0.9203	0.1454	0.2171	-0.274
Mof_N 	N 	0.0097	0.204	0.1566	-0.27
Mof_C 	C 	0.0149	0.1214	0.2266	-0.132
Mof_C 	C 	0.9802	0.0498	0.2294	0.01
Mof_H 	H 	0.9358	0.0259	0.216	-0.021
Mof_C 	C 	0.9808	0.157	0.2012	0.091
Mof_C 	C 	0.9096	0.1882	0.1812	0.041
Mof_C 	C 	0.9657	0.2237	0.1446	0.054
Mof_C 	C 	0.9683	0.2714	0.1044	-0.118
Mof_H 	H 	0.0058	0.2951	0.08	0.05
Mof_C 	C 	0.9148	0.2836	0.1008	-0.02
Mof_H 	H 	0.9165	0.3155	0.0739	0.032
Mof_C 	C 	0.8586	0.2481	0.1374	-0.025
Mof_H 	H 	0.8227	0.2562	0.1349	0.033
Mof_C 	C 	0.856	0.2004	0.1775	-0.114
Mof_H 	H 	0.8184	0.1766	0.202	0.055
Mof_Cu	Cu	0.13645	0.91669	0.77434	0.825
Mof_N 	N 	0.2251	0.0797	0.88377	-0.275
Mof_N 	N 	0.1943	0.9903	0.82327	-0.271
Mof_C 	C 	0.1065	0.9851	0.89327	-0.145
Mof_C 	C 	0.0696	0.0198	0.89607	0.029
Mof_H 	H 	0.0901	0.0642	0.88267	-0.028
Mof_C 	C 	0.1762	0.0192	0.86787	0.096
Mof_C 	C 	0.2786	0.0904	0.84787	0.042
Mof_C 	C 	0.258	0.0343	0.81127	0.054
Mof_C 	C 	0.3031	0.0317	0.77107	-0.115
Mof_H 	H 	0.2893	0.9942	0.74667	0.048
Mof_C 	C 	0.3688	0.0852	0.76747	-0.021
Mof_H 	H 	0.399	0.0835	0.74057	0.033
Mof_C 	C 	0.3895	0.1414	0.80407	-0.024
Mof_H 	H 	0.4335	0.1773	0.80157	0.033
Mof_C 	C 	0.3444	0.144	0.84417	-0.114
Mof_H 	H 	0.3582	0.1816	0.86867	0.055
Mof_C 	C 	0.07685	0.1537	0.25	0.004
Mof_H 	H 	0.1003	0.2006	0.25	-0.027
Mof_C 	C 	0.0081	0.0162	0.25	-0.118
Mof_H 	H 	0.98465	0.9693	0.25	0.053
Mof_C 	C 	0.8463	0.92315	0.58333	0.007
Mof_H 	H 	0.7994	0.8997	0.58333	-0.028
Mof_C 	C 	0.9838	0.9919	0.58333	-0.123
Mof_H 	H 	0.0307	0.01535	0.58333	0.055
Mof_C 	C 	0.07685	0.92315	0.91667	0.015
Mof_H 	H 	0.1003	0.8997	0.91667	-0.031
Mof_C 	C 	0.0081	0.9919	0.91667	-0.141
Mof_H 	H 	0.98465	0.01535	0.91667	0.061
Mof_C 	C 	0.92315	0.8463	0.75	0.005
Mof_H 	H 	0.8997	0.7994	0.75	-0.027
Mof_C 	C 	0.9919	0.9838	0.75	-0.121
Mof_H 	H 	0.01535	0.0307	0.75	0.054
Mof_C 	C 	0.1537	0.07685	0.08333	0.009
Mof_H 	H 	0.2006	0.1003	0.08333	-0.029
Mof_C 	C 	0.0162	0.0081	0.08333	-0.128
Mof_H 	H 	0.9693	0.98465	0.08333	0.056
Mof_C 	C 	0.92315	0.07685	0.41667	0.012
Mof_H 	H 	0.8997	0.1003	0.41667	-0.029
Mof_C 	C 	0.9919	0.0081	0.41667	-0.134
Mof_H 	H 	0.01535	0.98465	0.41667	0.058
_end
