# CIF file generated by openbabel 3.1.0, see https://openbabel.org
data_I
_chemical_name_common 'image0'
_cell_length_a 8.7115
_cell_length_b 10.4316
_cell_length_c 10.8838
_cell_angle_alpha 90
_cell_angle_beta 90
_cell_angle_gamma 90
_space_group_name_H-M_alt 'P 1'
_space_group_name_Hall 'P 1'
loop_
    _symmetry_equiv_pos_as_xyz
    x,y,z
loop_
    _atom_site_label
    _atom_site_type_symbol
    _atom_site_fract_x
    _atom_site_fract_y
    _atom_site_fract_z
    _atom_site_occupancy
    La1      La       0.99213    0.10152    0.11264    1.000
    P1       P        0.84440    0.91670    0.39420    1.000
    P2       P        0.19440    0.91870    0.36069    1.000
    O1       O        0.84720    0.00440    0.28270    1.000
    O2       O        0.82420    0.77590    0.35960    1.000
    O3       O        0.72360    0.95910    0.48590    1.000
    O4       O        0.17210    0.78660    0.29970    1.000
    O5       O        0.17950    0.02880    0.26950    1.000
    O6       O        0.34280    0.93000    0.43450    1.000
    O7       O        0.04570    0.80870    0.54470    1.000
    H1       H        0.13480    0.79690    0.56610    1.000
    C1       C        0.03600    0.92800    0.47060    1.000
    C2       C        0.04520    0.04420    0.55210    1.000
    H2       H        0.14460    0.04800    0.58990    1.000
    H3       H        0.96770    0.03870    0.61470    1.000
    H4       H        0.02890    0.12000    0.50390    1.000
    La2      La       0.50787    0.89848    0.61264    1.000
    P3       P        0.65560    0.08330    0.89420    1.000
    P4       P        0.30560    0.08130    0.86069    1.000
    O8       O        0.65280    0.99560    0.78270    1.000
    O9       O        0.67580    0.22410    0.85960    1.000
    O10      O        0.77640    0.04090    0.98590    1.000
    O11      O        0.32790    0.21340    0.79970    1.000
    O12      O        0.32050    0.97120    0.76950    1.000
    O13      O        0.15720    0.07000    0.93450    1.000
    O14      O        0.45430    0.19130    0.04470    1.000
    H5       H        0.36520    0.20310    0.06610    1.000
    C3       C        0.46400    0.07200    0.97060    1.000
    C4       C        0.45480    0.95580    0.05210    1.000
    H6       H        0.35540    0.95200    0.08990    1.000
    H7       H        0.53230    0.96130    0.11470    1.000
    H8       H        0.47110    0.88000    0.00390    1.000
    La3      La       0.00787    0.60152    0.38736    1.000
    P5       P        0.15560    0.41670    0.10580    1.000
    P6       P        0.80560    0.41870    0.13931    1.000
    O15      O        0.15280    0.50440    0.21730    1.000
    O16      O        0.17580    0.27590    0.14040    1.000
    O17      O        0.27640    0.45910    0.01410    1.000
    O18      O        0.82790    0.28660    0.20030    1.000
    O19      O        0.82050    0.52880    0.23050    1.000
    O20      O        0.65720    0.43000    0.06550    1.000
    O21      O        0.95430    0.30870    0.95530    1.000
    H9       H        0.86520    0.29690    0.93390    1.000
    C5       C        0.96400    0.42800    0.02940    1.000
    C6       C        0.95480    0.54420    0.94790    1.000
    H10      H        0.85540    0.54800    0.91010    1.000
    H11      H        0.03230    0.53870    0.88530    1.000
    H12      H        0.97110    0.62000    0.99610    1.000
    La4      La       0.49213    0.39848    0.88736    1.000
    P7       P        0.34440    0.58330    0.60580    1.000
    P8       P        0.69440    0.58130    0.63931    1.000
    O22      O        0.34720    0.49560    0.71730    1.000
    O23      O        0.32420    0.72410    0.64040    1.000
    O24      O        0.22360    0.54090    0.51410    1.000
    O25      O        0.67210    0.71340    0.70030    1.000
    O26      O        0.67950    0.47120    0.73050    1.000
    O27      O        0.84280    0.57000    0.56550    1.000
    O28      O        0.54570    0.69130    0.45530    1.000
    H13      H        0.63480    0.70310    0.43390    1.000
    C7       C        0.53600    0.57200    0.52940    1.000
    C8       C        0.54520    0.45580    0.44790    1.000
    H14      H        0.64460    0.45200    0.41010    1.000
    H15      H        0.46770    0.46130    0.38530    1.000
    H16      H        0.52890    0.38000    0.49610    1.000
