data_functionalizedCrystal
_audit_creation_method	'EQeq! by Chris Wilmer'
_symmetry_space_group_name_H-M	'P1'
_symmetry_Int_Tables_number	1
_symmetry_cell_setting	triclinic
loop_
_symmetry_equiv_pos_as_xyz
  x,y,z
_cell_length_a	10.962
_cell_length_b	15.0475
_cell_length_c	15.0475
_cell_angle_alpha	65.6978
_cell_angle_beta	75.9463
_cell_angle_gamma	104.054
loop_
_atom_site_label
_atom_site_type_symbol
_atom_site_fract_x
_atom_site_fract_y
_atom_site_fract_z
_atom_site_charge
Mof_Fe	Fe	0.5	0.5	0.5	0.602
Mof_H 	H 	0.2311	0.3407	0.5363	0.106
Mof_H 	H 	0.4754	0.6893	0.2939	0.18
Mof_H 	H 	0.3457	0.7083	0.2718	0.162
Mof_H 	H 	0.442	0.678	0.2004	0.159
Mof_H 	H 	0.0314	0.2368	0.5329	0.21
Mof_H 	H 	0.0426	0.2721	0.4143	0.211
Mof_H 	H 	0.9505	0.3064	0.4837	0.235
Mof_H 	H 	0.0279	0.7146	0.2391	0.166
Mof_H 	H 	0.165	0.7167	0.2595	0.16
Mof_H 	H 	0.0204	0.6308	0.3509	0.165
Mof_H 	H 	0.1293	0.3689	0.1463	0.174
Mof_H 	H 	0.1197	0.3248	0.2654	0.168
Mof_H 	H 	0.2597	0.4129	0.169	0.17
Mof_H 	H 	0.9912	0.6318	0.135	0.136
Mof_H 	H 	0.7689	0.6593	0.4637	0.107
Mof_H 	H 	0.5246	0.3107	0.7061	0.184
Mof_H 	H 	0.6543	0.2917	0.7282	0.168
Mof_H 	H 	0.558	0.322	0.7996	0.172
Mof_H 	H 	0.9686	0.7632	0.4671	0.163
Mof_H 	H 	0.9574	0.7279	0.5857	0.161
Mof_H 	H 	0.0495	0.6936	0.5163	0.131
Mof_H 	H 	0.9721	0.2854	0.7609	0.208
Mof_H 	H 	0.835	0.2833	0.7405	0.182
Mof_H 	H 	0.9796	0.3692	0.6491	0.2
Mof_H 	H 	0.8707	0.6311	0.8537	0.206
Mof_H 	H 	0.8803	0.6752	0.7346	0.194
Mof_H 	H 	0.7403	0.5871	0.831	0.192
Mof_H 	H 	0.0088	0.3682	0.865	0.089
Mof_C 	C 	0.27336	0.34646	0.73928	0.055
Mof_C 	C 	0.31587	0.552	0.34689	0.194
Mof_C 	C 	0.20004	0.49044	0.34122	-0.149
Mof_C 	C 	0.15324	0.39121	0.42859	0.242
Mof_C 	C 	0.40225	0.6669	0.27165	-0.54
Mof_C 	C 	0.0345	0.2935	0.4681	-0.694
Mof_C 	C 	0.08387	0.59627	0.23426	0.191
Mof_C 	C 	0.14038	0.52142	0.26048	-0.121
Mof_C 	C 	0.11588	0.47224	0.1996	0.181
Mof_C 	C 	0.07345	0.6711	0.27435	-0.545
Mof_C 	C 	0.15998	0.38746	0.19462	-0.537
Mof_C 	C 	0.72664	0.65354	0.26072	0.062
Mof_C 	C 	0.68413	0.448	0.65311	0.189
Mof_C 	C 	0.79996	0.50956	0.65878	-0.111
Mof_C 	C 	0.84676	0.60879	0.57141	0.185
Mof_C 	C 	0.59775	0.3331	0.72835	-0.545
Mof_C 	C 	0.9655	0.7065	0.5319	-0.467
Mof_C 	C 	0.91613	0.40373	0.76574	0.226
Mof_C 	C 	0.85962	0.47858	0.73952	-0.138
Mof_C 	C 	0.88412	0.52776	0.8004	0.217
Mof_C 	C 	0.92655	0.3289	0.72565	-0.596
Mof_C 	C 	0.84002	0.61254	0.80538	-0.583
Mof_S 	S 	0.17972	0.27788	0.86573	-0.101
Mof_S 	S 	0.82028	0.72212	0.13427	-0.106
Mof_N 	N 	0.34247	0.39546	0.64935	-0.202
Mof_N 	N 	0.33948	0.49258	0.43144	-0.163
Mof_N 	N 	0.2392	0.3954	0.4788	-0.21
Mof_N 	N 	0.04964	0.51439	0.14047	-0.164
Mof_N 	N 	0.032	0.59073	0.16353	-0.228
Mof_N 	N 	0.65753	0.60454	0.35065	-0.202
Mof_N 	N 	0.66052	0.50742	0.56856	-0.162
Mof_N 	N 	0.7608	0.6046	0.5212	-0.195
Mof_N 	N 	0.95036	0.48561	0.85953	-0.142
Mof_N 	N 	0.968	0.40927	0.83647	-0.177
Mof_Fe	Fe	-0	0.5	-0	0.522
Mof_H 	H 	0.7674	0.5363	0.123	0.105
Mof_H 	H 	0.7693	0.2939	0.0168	0.169
Mof_H 	H 	0.6175	0.2718	0.0199	0.149
Mof_H 	H 	0.6424	0.2004	0.1216	0.152
Mof_H 	H 	0.5643	0.5329	0.2303	0.181
Mof_H 	H 	0.4569	0.4143	0.3136	0.182
Mof_H 	H 	0.4342	0.4837	0.2099	0.177
Mof_H 	H 	0.267	0.2391	0.0463	0.162
Mof_H 	H 	0.4245	0.2595	0.0238	0.15
Mof_H 	H 	0.3713	0.3509	0.0183	0.161
Mof_H 	H 	0.2756	0.1463	0.4848	0.184
Mof_H 	H 	0.3851	0.2654	0.4098	0.179
Mof_H 	H 	0.4287	0.169	0.4181	0.176
Mof_H 	H 	0.1262	0.135	0.2332	0.094
Mof_H 	H 	0.2326	0.4637	0.877	0.113
Mof_H 	H 	0.2307	0.7061	0.9832	0.199
Mof_H 	H 	0.3825	0.7282	0.9801	0.182
Mof_H 	H 	0.3576	0.7996	0.8784	0.181
Mof_H 	H 	0.4357	0.4671	0.7697	0.189
Mof_H 	H 	0.5431	0.5857	0.6864	0.185
Mof_H 	H 	0.5658	0.5163	0.7901	0.188
Mof_H 	H 	0.733	0.7609	0.9537	0.213
Mof_H 	H 	0.5755	0.7405	0.9762	0.193
Mof_H 	H 	0.6287	0.6491	0.9817	0.205
Mof_H 	H 	0.7244	0.8537	0.5152	0.194
Mof_H 	H 	0.6149	0.7346	0.5902	0.182
Mof_H 	H 	0.5713	0.831	0.5819	0.186
Mof_H 	H 	0.8738	0.865	0.7668	0.13
Mof_C 	C 	0.01264	0.73928	0.91426	0.018
Mof_C 	C 	0.66276	0.34689	0.10111	0.18
Mof_C 	C 	0.54126	0.34122	0.16834	-0.129
Mof_C 	C 	0.58183	0.42859	0.1802	0.207
Mof_C 	C 	0.6739	0.27165	0.06145	-0.518
Mof_C 	C 	0.5026	0.4681	0.2384	-0.571
Mof_C 	C 	0.31813	0.23426	0.16947	0.189
Mof_C 	C 	0.40086	0.26048	0.2181	-0.126
Mof_C 	C 	0.31548	0.1996	0.32816	0.192
Mof_C 	C 	0.3478	0.27435	0.05455	-0.531
Mof_C 	C 	0.3546	0.19462	0.41792	-0.554
Mof_C 	C 	0.98736	0.26072	0.08574	0.096
Mof_C 	C 	0.33724	0.65311	0.89889	0.203
Mof_C 	C 	0.45874	0.65878	0.83166	-0.13
Mof_C 	C 	0.41817	0.57141	0.8198	0.219
Mof_C 	C 	0.3261	0.72835	0.93855	-0.567
Mof_C 	C 	0.4974	0.5319	0.7616	-0.583
Mof_C 	C 	0.68187	0.76574	0.83053	0.228
Mof_C 	C 	0.59914	0.73952	0.7819	-0.134
Mof_C 	C 	0.68452	0.8004	0.67184	0.205
Mof_C 	C 	0.6522	0.72565	0.94545	-0.611
Mof_C 	C 	0.6454	0.80538	0.58208	-0.565
Mof_S 	S 	0.04545	0.86573	0.85639	-0.084
Mof_S 	S 	0.95455	0.13427	0.14361	-0.12
Mof_N 	N 	0.99182	0.64935	0.95519	-0.151
Mof_N 	N 	0.77092	0.43144	0.07598	-0.157
Mof_N 	N 	0.718	0.4788	0.1258	-0.202
Mof_N 	N 	0.19011	0.14047	0.34514	-0.163
Mof_N 	N 	0.19553	0.16353	0.24574	-0.199
Mof_N 	N 	0.00818	0.35065	0.04481	-0.231
Mof_N 	N 	0.22908	0.56856	0.92402	-0.152
Mof_N 	N 	0.282	0.5212	0.8742	-0.201
Mof_N 	N 	0.80989	0.85953	0.65486	-0.144
Mof_N 	N 	0.80447	0.83647	0.75426	-0.206
Mof_Fe	Fe	-1.40507e-17	-2.81014e-17	0.5	0.53
Mof_H 	H 	0.8904	0.123	0.3407	0.11
Mof_H 	H 	0.7861	0.0168	0.6893	0.181
Mof_H 	H 	0.6374	0.0199	0.7083	0.16
Mof_H 	H 	0.764	0.1216	0.678	0.168
Mof_H 	H 	0.7946	0.2303	0.2368	0.188
Mof_H 	H 	0.7705	0.3136	0.2721	0.19
Mof_H 	H 	0.6441	0.2099	0.3064	0.181
Mof_H 	H 	0.3133	0.0463	0.7146	0.177
Mof_H 	H 	0.4483	0.0238	0.7167	0.161
Mof_H 	H 	0.3896	0.0183	0.6308	0.169
Mof_H 	H 	0.7604	0.4848	0.3689	0.195
Mof_H 	H 	0.7949	0.4098	0.3248	0.19
Mof_H 	H 	0.8468	0.4181	0.4129	0.191
Mof_H 	H 	0.3594	0.2332	0.6318	0.111
Mof_H 	H 	0.1096	0.877	0.6593	0.108
Mof_H 	H 	0.2139	0.9832	0.3107	0.187
Mof_H 	H 	0.3626	0.9801	0.2917	0.172
Mof_H 	H 	0.236	0.8784	0.322	0.165
Mof_H 	H 	0.2054	0.7697	0.7632	0.187
Mof_H 	H 	0.2295	0.6864	0.7279	0.183
Mof_H 	H 	0.3559	0.7901	0.6936	0.187
Mof_H 	H 	0.6867	0.9537	0.2854	0.199
Mof_H 	H 	0.5517	0.9762	0.2833	0.182
Mof_H 	H 	0.6104	0.9817	0.3692	0.197
Mof_H 	H 	0.2396	0.5152	0.6311	0.179
Mof_H 	H 	0.2051	0.5902	0.6752	0.171
Mof_H 	H 	0.1532	0.5819	0.5871	0.17
Mof_H 	H 	0.6406	0.7668	0.3682	0.111
Mof_C 	C 	0.9269	0.91426	0.34646	0.067
Mof_C 	C 	0.76387	0.10111	0.552	0.19
Mof_C 	C 	0.7096	0.16834	0.49044	-0.131
Mof_C 	C 	0.76203	0.1802	0.39121	0.214
Mof_C 	C 	0.73535	0.06145	0.6669	-0.538
Mof_C 	C 	0.741	0.2384	0.2935	-0.581
Mof_C 	C 	0.4876	0.16947	0.59627	0.202
Mof_C 	C 	0.61896	0.2181	0.52142	-0.129
Mof_C 	C 	0.64364	0.32816	0.47224	0.202
Mof_C 	C 	0.40235	0.05455	0.6711	-0.551
Mof_C 	C 	0.77252	0.41792	0.38746	-0.574
Mof_C 	C 	0.0731	0.08574	0.65354	0.047
Mof_C 	C 	0.23613	0.89889	0.448	0.194
Mof_C 	C 	0.2904	0.83166	0.50956	-0.129
Mof_C 	C 	0.23797	0.8198	0.60879	0.214
Mof_C 	C 	0.26465	0.93855	0.3331	-0.547
Mof_C 	C 	0.259	0.7616	0.7065	-0.581
Mof_C 	C 	0.5124	0.83053	0.40373	0.215
Mof_C 	C 	0.38104	0.7819	0.47858	-0.13
Mof_C 	C 	0.35636	0.67184	0.52776	0.194
Mof_C 	C 	0.59765	0.94545	0.3289	-0.591
Mof_C 	C 	0.22748	0.58208	0.61254	-0.545
Mof_S 	S 	0.90184	0.85639	0.27788	-0.082
Mof_S 	S 	0.09816	0.14361	0.72212	-0.123
Mof_N 	N 	0.94701	0.95519	0.39546	-0.176
Mof_N 	N 	0.8469	0.07598	0.49258	-0.155
Mof_N 	N 	0.8438	0.1258	0.3954	-0.203
Mof_N 	N 	0.53525	0.34514	0.51439	-0.16
Mof_N 	N 	0.44127	0.24574	0.59073	-0.201
Mof_N 	N 	0.05299	0.04481	0.60454	-0.208
Mof_N 	N 	0.1531	0.92402	0.50742	-0.155
Mof_N 	N 	0.1562	0.8742	0.6046	-0.202
Mof_N 	N 	0.46475	0.65486	0.48561	-0.159
Mof_N 	N 	0.55873	0.75426	0.40927	-0.204
_end
