data_functionalizedCrystal
_audit_creation_method	'EQeq! by Chris Wilmer'
_symmetry_space_group_name_H-M	'P1'
_symmetry_Int_Tables_number	1
_symmetry_cell_setting	triclinic
loop_
_symmetry_equiv_pos_as_xyz
  x,y,z
_cell_length_a	15.637
_cell_length_b	15.691
_cell_length_c	16.291
_cell_angle_alpha	90.097
_cell_angle_beta	90.067
_cell_angle_gamma	90.015
loop_
_atom_site_label
_atom_site_type_symbol
_atom_site_fract_x
_atom_site_fract_y
_atom_site_fract_z
_atom_site_charge
Mof_Zn	Zn	0.12529	7e-05	0.46407	1.229
Mof_Zn	Zn	0.3747	0.99988	0.96416	1.226
Mof_O 	O 	0.3736	0.9989	0.08886	-0.436
Mof_O 	O 	0.1264	0.0004	0.58781	-0.462
Mof_O 	O 	0.24	0.9993	0.9588	-0.383
Mof_O 	O 	0.2604	0.9996	0.4593	-0.377
Mof_O 	O 	0.1975	0.0008	0.33946	-0.347
Mof_O 	O 	0.30254	0.0005	0.839	-0.353
Mof_C 	C 	0.0671	0.9997	0.72	-0.055
Mof_C 	C 	0.4341	0.9985	0.2198	-0.015
Mof_O 	O 	0.9871	0.9995	0.59675	-0.488
Mof_O 	O 	0.5121	0.0007	0.09745	-0.501
Mof_C 	C 	0.355	0.0003	0.2569	-0.083
Mof_H 	H 	0.3055	0.0019	0.2252	0.09
Mof_C 	C 	0.4417	0.0012	0.1283	0.39
Mof_C 	C 	0.1451	0.9984	0.7586	-0.033
Mof_H 	H 	0.1947	0.9958	0.7273	0.061
Mof_C 	C 	0.0775	0.9994	0.89	-0.152
Mof_H 	H 	0.0815	0.9978	0.9469	0.129
Mof_C 	C 	0.4219	0.0008	0.3895	-0.173
Mof_H 	H 	0.4182	0.0017	0.4465	0.131
Mof_O 	O 	0.9287	0.0042	0.9023	-0.192
Mof_C 	C 	0.0591	0.9991	0.6284	0.405
Mof_O 	O 	0.5709	0.0002	0.4027	-0.199
Mof_C 	C 	0.2628	1.11101e-19	0.384	0.264
Mof_C 	C 	0.2368	0.9991	0.8844	0.286
Mof_C 	C 	0.9904	0.0008	0.7665	-0.13
Mof_H 	H 	0.9372	0.0017	0.7409	0.104
Mof_C 	C 	0.1512	0.0007	0.8417	0
Mof_C 	C 	0.3497	0.9998	0.3429	0.043
Mof_C 	C 	0.5091	0.999	0.2651	-0.137
Mof_H 	H 	0.5622	0.9984	0.2394	0.103
Mof_C 	C 	0.5026	0.0003	0.3507	0.194
Mof_C 	C 	0.9976	0.0006	0.8515	0.201
Mof_N 	N 	0.3808	0.1318	0.9614	-0.237
Mof_N 	N 	0.1191	0.8705	0.4608	-0.249
Mof_N 	N 	0.3792	0.8663	0.9606	-0.241
Mof_N 	N 	0.1199	0.1312	0.4619	-0.24
Mof_C 	C 	0.1177	0.6821	0.4597	0.121
Mof_C 	C 	0.3835	0.6844	0.9598	0.121
Mof_C 	C 	0.1172	0.5898	0.4594	-0.08
Mof_C 	C 	0.3821	0.5937	0.9597	-0.048
Mof_C 	C 	0.3525	0.8128	0.0248	0.099
Mof_H 	H 	0.3326	0.8397	0.072	0.006
Mof_C 	C 	0.3523	0.1838	0.0251	0.07
Mof_H 	H 	0.3317	0.1564	0.0717	0.01
Mof_C 	C 	0.3527	0.7275	0.0257	-0.175
Mof_H 	H 	0.3319	0.6981	0.071	0.094
Mof_C 	C 	0.1499	0.8126	0.5229	0.09
Mof_H 	H 	0.1759	0.8378	0.5681	0.002
Mof_C 	C 	0.146	0.7272	0.5239	-0.174
Mof_H 	H 	0.1636	0.6984	0.5709	0.095
Mof_C 	C 	0.1483	0.1829	0.5236	0.076
Mof_H 	H 	0.1699	0.1559	0.57	0.009
Mof_C 	C 	0.1483	0.2711	0.5249	-0.135
Mof_H 	H 	0.1695	0.3	0.5705	0.077
Mof_C 	C 	0.086	0.1796	0.3993	0.073
Mof_H 	H 	0.0619	0.1505	0.3552	0.007
Mof_C 	C 	0.4145	0.8189	0.8978	0.091
Mof_H 	H 	0.4391	0.8476	0.8538	0.001
Mof_C 	C 	0.0876	0.7381	0.3959	-0.158
Mof_H 	H 	0.0641	0.7126	0.3495	0.088
Mof_C 	C 	0.0902	0.8272	0.3969	0.097
Mof_H 	H 	0.071	0.8569	0.3512	-0.001
Mof_C 	C 	0.4153	0.731	0.8969	-0.171
Mof_H 	H 	0.4382	0.7029	0.8517	0.091
Mof_C 	C 	0.4116	0.1843	0.8984	0.092
Mof_H 	H 	0.4282	0.1563	0.8507	0.002
Mof_C 	C 	0.1178	0.3154	0.4604	0.064
Mof_C 	C 	0.3828	0.3186	0.9593	0.073
Mof_C 	C 	0.3824	0.4099	0.9587	0.008
Mof_C 	C 	0.1184	0.4084	0.4594	0.043
Mof_C 	C 	0.3513	0.269	0.0263	-0.136
Mof_H 	H 	0.3295	0.2968	0.0722	0.078
Mof_C 	C 	0.42	0.2663	0.8974	-0.149
Mof_H 	H 	0.4511	0.2916	0.8553	0.083
Mof_C 	C 	0.0846	0.2675	0.3963	-0.131
Mof_H 	H 	0.0612	0.2948	0.3509	0.076
Mof_C 	C 	0.3697	0.455	0.0262	-0.067
Mof_H 	H 	0.3622	0.4257	0.0752	0.051
Mof_C 	C 	0.4014	0.4636	0.8925	-0.07
Mof_H 	H 	0.4081	0.4385	0.8412	0.053
Mof_C 	C 	0.0981	0.541	0.3934	0.022
Mof_H 	H 	0.0817	0.5687	0.3455	0.021
Mof_C 	C 	0.101	0.4562	0.3917	-0.104
Mof_H 	H 	0.0907	0.4285	0.3422	0.064
Mof_C 	C 	0.4103	0.546	0.8975	-0.007
Mof_H 	H 	0.4382	0.5736	0.8547	0.029
Mof_C 	C 	0.1312	0.4578	0.5258	-0.125
Mof_H 	H 	0.1375	0.4309	0.5762	0.071
Mof_C 	C 	0.3667	0.5431	0.0286	-0.014
Mof_H 	H 	0.354	0.5698	0.0781	0.033
Mof_C 	C 	0.1354	0.5382	0.5245	0.055
Mof_C 	C 	0.6509	0.0594	0.3705	-0.117
Mof_H 	H 	0.6967	0.0481	0.4093	0.095
Mof_H 	H 	0.6686	0.0328	0.3195	0.081
Mof_C 	C 	0.7306	0.1842	0.3088	-0.152
Mof_H 	H 	0.7695	0.1425	0.2929	0.088
Mof_C 	C 	0.6578	0.1615	0.3526	0.108
Mof_C 	C 	0.5996	0.2237	0.3764	-0.148
Mof_H 	H 	0.5509	0.2086	0.4057	0.093
Mof_C 	C 	0.6142	0.3086	0.3566	0.053
Mof_H 	H 	0.5753	0.3502	0.3725	0.011
Mof_C 	C 	0.687	0.3313	0.3128	-0.13
Mof_H 	H 	0.6968	0.388	0.2995	0.073
Mof_C 	C 	0.7452	0.269	0.289	0.054
Mof_H 	H 	0.7939	0.2842	0.2597	0.011
Mof_Zn	Zn	0.87471	0.99993	0.53593	1.232
Mof_Zn	Zn	0.6253	0.00012	0.03584	1.225
Mof_O 	O 	0.6264	0.0011	0.91114	-0.454
Mof_O 	O 	0.8736	0.9996	0.41219	-0.447
Mof_O 	O 	0.76	0.0007	0.0412	-0.375
Mof_O 	O 	0.7396	0.0004	0.5407	-0.391
Mof_O 	O 	0.8025	0.9992	0.66054	-0.345
Mof_O 	O 	0.69746	0.9995	0.161	-0.334
Mof_C 	C 	0.9329	0.0003	0.28	-0.036
Mof_C 	C 	0.5659	0.0015	0.7802	-0.063
Mof_O 	O 	0.0129	0.0005	0.40325	-0.49
Mof_O 	O 	0.4879	0.9993	0.90255	-0.505
Mof_C 	C 	0.645	0.9997	0.7431	-0.022
Mof_H 	H 	0.6945	0.9981	0.7748	0.073
Mof_C 	C 	0.5583	0.9988	0.8717	0.426
Mof_C 	C 	0.8549	0.0016	0.2414	-0.081
Mof_H 	H 	0.8053	0.0042	0.2727	0.075
Mof_C 	C 	0.9225	0.0006	0.11	-0.204
Mof_H 	H 	0.9185	0.0022	0.0531	0.144
Mof_C 	C 	0.5781	0.9992	0.6105	-0.132
Mof_H 	H 	0.5818	0.9983	0.5535	0.121
Mof_O 	O 	0.0713	0.9958	0.0977	-0.195
Mof_C 	C 	0.9409	0.0009	0.3716	0.388
Mof_O 	O 	0.4291	0.9998	0.5973	-0.192
Mof_C 	C 	0.7372	2.22203e-19	0.616	0.287
Mof_C 	C 	0.7632	0.0009	0.1156	0.248
Mof_C 	C 	0.0096	0.9992	0.2335	-0.146
Mof_H 	H 	0.0628	0.9983	0.2591	0.112
Mof_C 	C 	0.8488	0.9993	0.1583	0.06
Mof_C 	C 	0.6503	0.0002	0.6571	-0.011
Mof_C 	C 	0.4909	0.001	0.7349	-0.12
Mof_H 	H 	0.4378	0.0016	0.7606	0.093
Mof_C 	C 	0.4974	0.9997	0.6493	0.182
Mof_C 	C 	0.0024	0.9994	0.1485	0.23
Mof_N 	N 	0.6192	0.8682	0.0386	-0.235
Mof_N 	N 	0.8809	0.1295	0.5392	-0.251
Mof_N 	N 	0.6208	0.1337	0.0394	-0.242
Mof_N 	N 	0.8801	0.8688	0.5381	-0.239
Mof_C 	C 	0.8823	0.3179	0.5403	0.122
Mof_C 	C 	0.6165	0.3156	0.0402	0.121
Mof_C 	C 	0.8828	0.4102	0.5406	-0.081
Mof_C 	C 	0.6179	0.4063	0.0403	-0.049
Mof_C 	C 	0.6475	0.1872	0.9752	0.099
Mof_H 	H 	0.6674	0.1603	0.928	0.005
Mof_C 	C 	0.6477	0.8162	0.9749	0.07
Mof_H 	H 	0.6683	0.8436	0.9283	0.012
Mof_C 	C 	0.6473	0.2725	0.9743	-0.175
Mof_H 	H 	0.6681	0.3019	0.929	0.094
Mof_C 	C 	0.8501	0.1874	0.4771	0.09
Mof_H 	H 	0.8241	0.1622	0.4319	0.001
Mof_C 	C 	0.854	0.2728	0.4761	-0.175
Mof_H 	H 	0.8364	0.3016	0.4291	0.095
Mof_C 	C 	0.8517	0.8171	0.4764	0.077
Mof_H 	H 	0.8301	0.8441	0.43	0.01
Mof_C 	C 	0.8517	0.7289	0.4751	-0.135
Mof_H 	H 	0.8305	0.7	0.4295	0.078
Mof_C 	C 	0.914	0.8204	0.6007	0.074
Mof_H 	H 	0.9381	0.8495	0.6448	0.009
Mof_C 	C 	0.5855	0.1811	0.1022	0.091
Mof_H 	H 	0.5609	0.1524	0.1462	-0
Mof_C 	C 	0.9124	0.2619	0.6041	-0.159
Mof_H 	H 	0.9359	0.2874	0.6505	0.088
Mof_C 	C 	0.9098	0.1728	0.6031	0.098
Mof_H 	H 	0.929	0.1431	0.6488	-0.002
Mof_C 	C 	0.5847	0.269	0.1031	-0.171
Mof_H 	H 	0.5618	0.2971	0.1483	0.091
Mof_C 	C 	0.5884	0.8157	0.1016	0.093
Mof_H 	H 	0.5718	0.8437	0.1493	0.003
Mof_C 	C 	0.8822	0.6846	0.5396	0.064
Mof_C 	C 	0.6172	0.6814	0.0407	0.073
Mof_C 	C 	0.6176	0.5901	0.0413	0.009
Mof_C 	C 	0.8816	0.5916	0.5406	0.044
Mof_C 	C 	0.6487	0.731	0.9737	-0.135
Mof_H 	H 	0.6705	0.7032	0.9278	0.078
Mof_C 	C 	0.58	0.7337	0.1026	-0.149
Mof_H 	H 	0.5489	0.7084	0.1447	0.084
Mof_C 	C 	0.9154	0.7325	0.6037	-0.13
Mof_H 	H 	0.9388	0.7052	0.6491	0.076
Mof_C 	C 	0.6303	0.545	0.9738	-0.068
Mof_H 	H 	0.6378	0.5743	0.9248	0.052
Mof_C 	C 	0.5986	0.5364	0.1075	-0.071
Mof_H 	H 	0.5919	0.5615	0.1588	0.053
Mof_C 	C 	0.9019	0.459	0.6066	0.023
Mof_H 	H 	0.9183	0.4313	0.6545	0.021
Mof_C 	C 	0.899	0.5438	0.6083	-0.104
Mof_H 	H 	0.9093	0.5715	0.6578	0.065
Mof_C 	C 	0.5897	0.454	0.1025	-0.007
Mof_H 	H 	0.5618	0.4264	0.1453	0.029
Mof_C 	C 	0.8688	0.5422	0.4742	-0.126
Mof_H 	H 	0.8625	0.5691	0.4238	0.072
Mof_C 	C 	0.6333	0.4569	0.9714	-0.013
Mof_H 	H 	0.646	0.4302	0.9219	0.032
Mof_C 	C 	0.8646	0.4618	0.4755	0.056
Mof_C 	C 	0.3491	0.9406	0.6295	-0.121
Mof_H 	H 	0.3033	0.9519	0.5907	0.097
Mof_H 	H 	0.3314	0.9672	0.6805	0.086
Mof_C 	C 	0.2694	0.8158	0.6912	-0.154
Mof_H 	H 	0.2305	0.8575	0.7071	0.089
Mof_C 	C 	0.3422	0.8385	0.6474	0.111
Mof_C 	C 	0.4004	0.7763	0.6236	-0.15
Mof_H 	H 	0.4491	0.7914	0.5943	0.095
Mof_C 	C 	0.3858	0.6914	0.6434	0.055
Mof_H 	H 	0.4247	0.6498	0.6275	0.01
Mof_C 	C 	0.313	0.6687	0.6872	-0.131
Mof_H 	H 	0.3032	0.612	0.7005	0.074
Mof_C 	C 	0.2548	0.731	0.711	0.056
Mof_H 	H 	0.2061	0.7158	0.7403	0.011
_end
