# CIF file generated by openbabel 3.1.0, see https://openbabel.org
data_I
_chemical_name_common 'image0'
_cell_length_a 11.279
_cell_length_b 10.679
_cell_length_c 15.428
_cell_angle_alpha 90
_cell_angle_beta 95.276
_cell_angle_gamma 90
_space_group_name_H-M_alt 'P 1'
_space_group_name_Hall 'P 1'
loop_
    _symmetry_equiv_pos_as_xyz
    x,y,z
loop_
    _atom_site_label
    _atom_site_type_symbol
    _atom_site_fract_x
    _atom_site_fract_y
    _atom_site_fract_z
    _atom_site_occupancy
    Co1      Co       0.84900    0.54034    0.01117    1.000
    O1       O        0.91110    0.41260    0.09665    1.000
    O2       O        0.10980    0.38740    0.10118    1.000
    O3       O        0.22750    0.07870    0.44710    1.000
    O4       O        0.32450    0.15050    0.33640    1.000
    O5       O        0.78640    0.11890    0.43131    1.000
    O6       O        0.70620    0.27900    0.35090    1.000
    C1       C        0.01080    0.29980    0.21410    1.000
    C2       C        0.11580    0.25040    0.25420    1.000
    H1       H        0.18660    0.26170    0.22870    1.000
    C3       C        0.11660    0.18440    0.33180    1.000
    C4       C        0.01020    0.16670    0.36920    1.000
    H2       H        0.01010    0.12000    0.42010    1.000
    C5       C        0.90350    0.21770    0.33160    1.000
    C6       C        0.90490    0.28240    0.25320    1.000
    H3       H        0.83420    0.31460    0.22640    1.000
    C7       C        0.00970    0.37150    0.12990    1.000
    C8       C        0.23290    0.13480    0.37440    1.000
    C9       C        0.78800    0.20480    0.37360    1.000
    Co2      Co       0.65100    0.04034    0.48883    1.000
    O7       O        0.58890    0.91260    0.40335    1.000
    O8       O        0.39020    0.88740    0.39882    1.000
    O9       O        0.27250    0.57870    0.05290    1.000
    O10      O        0.17550    0.65050    0.16360    1.000
    O11      O        0.71360    0.61890    0.06869    1.000
    O12      O        0.79380    0.77900    0.14910    1.000
    C10      C        0.48920    0.79980    0.28590    1.000
    C11      C        0.38420    0.75040    0.24580    1.000
    H4       H        0.31340    0.76170    0.27130    1.000
    C12      C        0.38340    0.68440    0.16820    1.000
    C13      C        0.48980    0.66670    0.13080    1.000
    H5       H        0.48990    0.62000    0.07990    1.000
    C14      C        0.59650    0.71770    0.16840    1.000
    C15      C        0.59510    0.78240    0.24680    1.000
    H6       H        0.66580    0.81460    0.27360    1.000
    C16      C        0.49030    0.87150    0.37010    1.000
    C17      C        0.26710    0.63480    0.12560    1.000
    C18      C        0.71200    0.70480    0.12640    1.000
    Co3      Co       0.15100    0.45966    0.98883    1.000
    O13      O        0.08890    0.58740    0.90335    1.000
    O14      O        0.89020    0.61260    0.89882    1.000
    O15      O        0.77250    0.92130    0.55290    1.000
    O16      O        0.67550    0.84950    0.66360    1.000
    O17      O        0.21360    0.88110    0.56869    1.000
    O18      O        0.29380    0.72100    0.64910    1.000
    C19      C        0.98920    0.70020    0.78590    1.000
    C20      C        0.88420    0.74960    0.74580    1.000
    H7       H        0.81340    0.73830    0.77130    1.000
    C21      C        0.88340    0.81560    0.66820    1.000
    C22      C        0.98980    0.83330    0.63080    1.000
    H8       H        0.98990    0.88000    0.57990    1.000
    C23      C        0.09650    0.78230    0.66840    1.000
    C24      C        0.09510    0.71760    0.74680    1.000
    H9       H        0.16580    0.68540    0.77360    1.000
    C25      C        0.99030    0.62850    0.87010    1.000
    C26      C        0.76710    0.86520    0.62560    1.000
    C27      C        0.21200    0.79520    0.62640    1.000
    Co4      Co       0.34900    0.95966    0.51117    1.000
    O19      O        0.41110    0.08740    0.59665    1.000
    O20      O        0.60980    0.11260    0.60118    1.000
    O21      O        0.72750    0.42130    0.94710    1.000
    O22      O        0.82450    0.34950    0.83640    1.000
    O23      O        0.28640    0.38110    0.93131    1.000
    O24      O        0.20620    0.22100    0.85090    1.000
    C28      C        0.51080    0.20020    0.71410    1.000
    C29      C        0.61580    0.24960    0.75420    1.000
    H10      H        0.68660    0.23830    0.72870    1.000
    C30      C        0.61660    0.31560    0.83180    1.000
    C31      C        0.51020    0.33330    0.86920    1.000
    H11      H        0.51010    0.38000    0.92010    1.000
    C32      C        0.40350    0.28230    0.83160    1.000
    C33      C        0.40490    0.21760    0.75320    1.000
    H12      H        0.33420    0.18540    0.72640    1.000
    C34      C        0.50970    0.12850    0.62990    1.000
    C35      C        0.73290    0.36520    0.87440    1.000
    C36      C        0.28800    0.29520    0.87360    1.000
