data_functionalizedCrystal
_audit_creation_method	'EQeq! by Chris Wilmer'
_symmetry_space_group_name_H-M	'P1'
_symmetry_Int_Tables_number	1
_symmetry_cell_setting	triclinic
loop_
_symmetry_equiv_pos_as_xyz
  x,y,z
_cell_length_a	22.1238
_cell_length_b	7.2671
_cell_length_c	13.8675
_cell_angle_alpha	90
_cell_angle_beta	90
_cell_angle_gamma	90
loop_
_atom_site_label
_atom_site_type_symbol
_atom_site_fract_x
_atom_site_fract_y
_atom_site_fract_z
_atom_site_charge
Mof_N 	N 	0.56381	0.3446	0.5642	-0.22
Mof_C 	C 	0.61106	0.6011	0.3873	0.094
Mof_H 	H 	0.6218	0.4792	0.3761	-0.032
Mof_C 	C 	0.6998	0.6454	0.2185	-0.064
Mof_C 	C 	0.7447	0.6503	0.3358	-0.07
Mof_H 	H 	0.666	0.5705	0.1997	0.032
Mof_H 	H 	0.7419	0.5895	0.3971	0.05
Mof_N 	N 	0.06381	0.8446	0.0642	-0.245
Mof_C 	C 	0.11106	0.1011	0.8873	0.023
Mof_H 	H 	0.1218	0.9792	0.8761	0.041
Mof_C 	C 	0.1998	0.1454	0.7185	-0.062
Mof_C 	C 	0.2447	0.1503	0.8358	-0.071
Mof_H 	H 	0.166	0.0705	0.6997	0.029
Mof_H 	H 	0.2419	0.0895	0.8971	0.057
Mof_N 	N 	0.43619	0.1554	0.5642	-0.212
Mof_C 	C 	0.38894	0.8989	0.3873	0.177
Mof_H 	H 	0.3782	0.0208	0.3761	-0.089
Mof_C 	C 	0.3002	0.8546	0.2185	-0.063
Mof_C 	C 	0.2553	0.8497	0.3358	-0.065
Mof_H 	H 	0.334	0.9295	0.1997	0.045
Mof_H 	H 	0.2581	0.9105	0.3971	0.057
Mof_N 	N 	0.93619	0.6554	0.0642	-0.213
Mof_C 	C 	0.88894	0.3989	0.8873	0.109
Mof_H 	H 	0.8782	0.5208	0.8761	-0.006
Mof_C 	C 	0.8002	0.3546	0.7185	-0.061
Mof_C 	C 	0.7553	0.3497	0.8358	-0.065
Mof_H 	H 	0.834	0.4295	0.6997	0.053
Mof_H 	H 	0.7581	0.4105	0.8971	0.067
Mof_N 	N 	0.43619	0.8446	0.4358	-0.225
Mof_C 	C 	0.38894	0.1011	0.6127	0.015
Mof_H 	H 	0.3782	0.9792	0.6239	0.035
Mof_C 	C 	0.3002	0.1454	0.7815	-0.054
Mof_C 	C 	0.2553	0.1503	0.6642	-0.066
Mof_H 	H 	0.334	0.0705	0.8003	0.041
Mof_H 	H 	0.2581	0.0895	0.6029	0.035
Mof_N 	N 	0.93619	0.3446	0.9358	-0.179
Mof_C 	C 	0.88894	0.6011	0.1127	0.089
Mof_H 	H 	0.8782	0.4792	0.1239	-0.033
Mof_C 	C 	0.8002	0.6454	0.2815	-0.058
Mof_C 	C 	0.7553	0.6503	0.1642	-0.067
Mof_H 	H 	0.834	0.5705	0.3003	0.046
Mof_H 	H 	0.7581	0.5895	0.1029	0.029
Mof_N 	N 	0.56381	0.6554	0.4358	-0.221
Mof_C 	C 	0.61106	0.3989	0.6127	0.096
Mof_H 	H 	0.6218	0.5208	0.6239	-0.021
Mof_C 	C 	0.6998	0.3546	0.7815	-0.05
Mof_C 	C 	0.7447	0.3497	0.6642	-0.055
Mof_H 	H 	0.666	0.4295	0.8003	0.052
Mof_H 	H 	0.7419	0.4105	0.6029	0.047
Mof_N 	N 	0.06381	0.1554	0.9358	-0.196
Mof_C 	C 	0.11106	0.8989	0.1127	0.166
Mof_H 	H 	0.1218	0.0208	0.1239	-0.1
Mof_C 	C 	0.1998	0.8546	0.2815	-0.054
Mof_C 	C 	0.2447	0.8497	0.1642	-0.057
Mof_H 	H 	0.166	0.9295	0.3003	0.046
Mof_H 	H 	0.2419	0.9105	0.1029	0.038
Mof_N 	N 	0.43619	0.6554	0.4358	-0.221
Mof_C 	C 	0.38894	0.3989	0.6127	0.096
Mof_H 	H 	0.3782	0.5208	0.6239	-0.021
Mof_C 	C 	0.3002	0.3546	0.7815	-0.052
Mof_C 	C 	0.2553	0.3497	0.6642	-0.058
Mof_H 	H 	0.334	0.4295	0.8003	0.053
Mof_H 	H 	0.2581	0.4105	0.6029	0.044
Mof_N 	N 	0.93619	0.1554	0.9358	-0.171
Mof_C 	C 	0.88894	0.8989	0.1127	0.172
Mof_H 	H 	0.8782	0.0208	0.1239	-0.09
Mof_C 	C 	0.8002	0.8546	0.2815	-0.055
Mof_C 	C 	0.7553	0.8497	0.1642	-0.059
Mof_H 	H 	0.834	0.9295	0.3003	0.058
Mof_H 	H 	0.7581	0.9105	0.1029	0.039
Mof_N 	N 	0.56381	0.8446	0.4358	-0.225
Mof_C 	C 	0.61106	0.1011	0.6127	0.016
Mof_H 	H 	0.6218	0.9792	0.6239	0.035
Mof_C 	C 	0.6998	0.1454	0.7815	-0.053
Mof_C 	C 	0.7447	0.1503	0.6642	-0.063
Mof_H 	H 	0.666	0.0705	0.8003	0.04
Mof_H 	H 	0.7419	0.0895	0.6029	0.038
Mof_N 	N 	0.06381	0.3446	0.9358	-0.204
Mof_C 	C 	0.11106	0.6011	0.1127	0.081
Mof_H 	H 	0.1218	0.4792	0.1239	-0.042
Mof_C 	C 	0.1998	0.6454	0.2815	-0.056
Mof_C 	C 	0.2447	0.6503	0.1642	-0.065
Mof_H 	H 	0.166	0.5705	0.3003	0.033
Mof_H 	H 	0.2419	0.5895	0.1029	0.028
Mof_N 	N 	0.56381	0.1554	0.5642	-0.212
Mof_C 	C 	0.61106	0.8989	0.3873	0.176
Mof_H 	H 	0.6218	0.0208	0.3761	-0.088
Mof_C 	C 	0.6998	0.8546	0.2185	-0.062
Mof_C 	C 	0.7447	0.8497	0.3358	-0.062
Mof_H 	H 	0.666	0.9295	0.1997	0.045
Mof_H 	H 	0.7419	0.9105	0.3971	0.059
Mof_N 	N 	0.06381	0.6554	0.0642	-0.241
Mof_C 	C 	0.11106	0.3989	0.8873	0.102
Mof_H 	H 	0.1218	0.5208	0.8761	-0.014
Mof_C 	C 	0.1998	0.3546	0.7185	-0.059
Mof_C 	C 	0.2447	0.3497	0.8358	-0.063
Mof_H 	H 	0.166	0.4295	0.6997	0.041
Mof_H 	H 	0.2419	0.4105	0.8971	0.066
Mof_N 	N 	0.43619	0.3446	0.5642	-0.22
Mof_C 	C 	0.38894	0.6011	0.3873	0.094
Mof_H 	H 	0.3782	0.4792	0.3761	-0.032
Mof_C 	C 	0.3002	0.6454	0.2185	-0.066
Mof_C 	C 	0.2553	0.6503	0.3358	-0.074
Mof_H 	H 	0.334	0.5705	0.1997	0.032
Mof_H 	H 	0.2581	0.5895	0.3971	0.048
Mof_N 	N 	0.93619	0.8446	0.0642	-0.217
Mof_C 	C 	0.88894	0.1011	0.8873	0.032
Mof_H 	H 	0.8782	0.9792	0.8761	0.048
Mof_C 	C 	0.8002	0.1454	0.7185	-0.063
Mof_C 	C 	0.7553	0.1503	0.8358	-0.072
Mof_H 	H 	0.834	0.0705	0.6997	0.041
Mof_H 	H 	0.7581	0.0895	0.8971	0.058
Mof_Cu	Cu	0.5	0.5	0.5	0.828
Mof_Cu	Cu	-0	0	-0	0.745
Mof_Cu	Cu	0.5	0	0.5	0.808
Mof_Cu	Cu	1.41528e-33	0.5	-0	0.765
Mof_N 	N 	0.6421	0.75	0.3557	-0.175
Mof_C 	C 	0.6983	0.75	0.3032	0.128
Mof_N 	N 	0.1421	0.25	0.8557	-0.148
Mof_C 	C 	0.1983	0.25	0.8032	0.119
Mof_N 	N 	0.3579	0.75	0.3557	-0.176
Mof_C 	C 	0.3017	0.75	0.3032	0.131
Mof_N 	N 	0.8579	0.25	0.8557	-0.148
Mof_C 	C 	0.8017	0.25	0.8032	0.125
Mof_N 	N 	0.3579	0.25	0.6443	-0.147
Mof_C 	C 	0.3017	0.25	0.6968	0.109
Mof_N 	N 	0.8579	0.75	0.1443	-0.173
Mof_C 	C 	0.8017	0.75	0.1968	0.12
Mof_N 	N 	0.6421	0.25	0.6443	-0.146
Mof_C 	C 	0.6983	0.25	0.6968	0.106
Mof_N 	N 	0.1421	0.75	0.1443	-0.175
Mof_C 	C 	0.1983	0.75	0.1968	0.114
_end
