data_functionalizedCrystal
_audit_creation_method	'EQeq! by Chris Wilmer'
_symmetry_space_group_name_H-M	'P1'
_symmetry_Int_Tables_number	1
_symmetry_cell_setting	triclinic
loop_
_symmetry_equiv_pos_as_xyz
  x,y,z
_cell_length_a	21.607
_cell_length_b	21.607
_cell_length_c	21.607
_cell_angle_alpha	90
_cell_angle_beta	90
_cell_angle_gamma	90
loop_
_atom_site_label
_atom_site_type_symbol
_atom_site_fract_x
_atom_site_fract_y
_atom_site_fract_z
_atom_site_charge
Mof_Cu	Cu	1.64377e-33	0	0.43841	0.9
Mof_Cu	Cu	0.5	0.5	0.93841	0.922
Mof_Cu	Cu	-2.89929e-33	-5.00492e-33	0.56159	0.902
Mof_Cu	Cu	0.5	0.5	0.06159	0.912
Mof_Cu	Cu	0.43841	0	-0	0.9
Mof_Cu	Cu	0.93841	0.5	0.5	0.922
Mof_Cu	Cu	0.56159	0	-0	0.902
Mof_Cu	Cu	0.06159	0.5	0.5	0.912
Mof_Cu	Cu	-0	0.43841	-0	0.9
Mof_Cu	Cu	0.5	0.93841	0.5	0.922
Mof_Cu	Cu	-5.00492e-33	0.56159	-0	0.902
Mof_Cu	Cu	0.5	0.06159	0.5	0.912
Mof_O 	O 	0.0899	0	0.448	-0.408
Mof_C 	C 	0.2145	0	0.4466	0.036
Mof_O 	O 	0.5899	0.5	0.948	-0.352
Mof_C 	C 	0.7145	0.5	0.9466	0.097
Mof_O 	O 	0.9101	0	0.448	-0.383
Mof_C 	C 	0.7855	0	0.4466	0.042
Mof_O 	O 	0.4101	0.5	0.948	-0.352
Mof_C 	C 	0.2855	0.5	0.9466	0.096
Mof_O 	O 	0.9101	0	0.552	-0.381
Mof_C 	C 	0.7855	-5.00492e-33	0.5534	0.045
Mof_O 	O 	0.4101	0.5	0.052	-0.383
Mof_C 	C 	0.2855	0.5	0.0534	0.061
Mof_O 	O 	0.0899	0	0.552	-0.406
Mof_C 	C 	0.2145	-5.00492e-33	0.5534	0.039
Mof_O 	O 	0.5899	0.5	0.052	-0.383
Mof_C 	C 	0.7145	0.5	0.0534	0.063
Mof_O 	O 	0.448	0.0899	-0	-0.408
Mof_C 	C 	0.4466	0.2145	-0	0.036
Mof_O 	O 	0.948	0.5899	0.5	-0.352
Mof_C 	C 	0.9466	0.7145	0.5	0.097
Mof_O 	O 	0.448	0.9101	-0	-0.383
Mof_C 	C 	0.4466	0.7855	-0	0.042
Mof_O 	O 	0.948	0.4101	0.5	-0.352
Mof_C 	C 	0.9466	0.2855	0.5	0.096
Mof_O 	O 	0.552	0.9101	-0	-0.381
Mof_C 	C 	0.5534	0.7855	-0	0.045
Mof_O 	O 	0.052	0.4101	0.5	-0.383
Mof_C 	C 	0.0534	0.2855	0.5	0.061
Mof_O 	O 	0.552	0.0899	-0	-0.406
Mof_C 	C 	0.5534	0.2145	-0	0.039
Mof_O 	O 	0.052	0.5899	0.5	-0.383
Mof_C 	C 	0.0534	0.7145	0.5	0.063
Mof_O 	O 	-9.14159e-34	0.448	0.0899	-0.408
Mof_C 	C 	3.30671e-33	0.4466	0.2145	0.036
Mof_O 	O 	0.5	0.948	0.5899	-0.352
Mof_C 	C 	0.5	0.9466	0.7145	0.097
Mof_O 	O 	1.34222e-32	0.448	0.9101	-0.383
Mof_C 	C 	2.94515e-33	0.4466	0.7855	0.042
Mof_O 	O 	0.5	0.948	0.4101	-0.352
Mof_C 	C 	0.5	0.9466	0.2855	0.096
Mof_O 	O 	-6.59751e-33	0.552	0.9101	-0.381
Mof_C 	C 	2.94515e-33	0.5534	0.7855	0.045
Mof_O 	O 	0.5	0.052	0.4101	-0.383
Mof_C 	C 	0.5	0.0534	0.2855	0.061
Mof_O 	O 	-9.14159e-34	0.552	0.0899	-0.406
Mof_C 	C 	3.30671e-33	0.5534	0.2145	0.039
Mof_O 	O 	0.5	0.052	0.5899	-0.383
Mof_C 	C 	0.5	0.0534	0.7145	0.063
Mof_O 	O 	-2.93525e-33	0.0899	0.552	-0.406
Mof_C 	C 	2.07492e-33	0.2145	0.5534	0.039
Mof_O 	O 	0.5	0.5899	0.052	-0.383
Mof_C 	C 	0.5	0.7145	0.0534	0.063
Mof_O 	O 	-2.93525e-33	0.9101	0.552	-0.381
Mof_C 	C 	2.07492e-33	0.7855	0.5534	0.045
Mof_O 	O 	0.5	0.4101	0.052	-0.383
Mof_C 	C 	0.5	0.2855	0.0534	0.061
Mof_O 	O 	1.66945e-32	0.9101	0.448	-0.383
Mof_C 	C 	6.6794e-33	0.7855	0.4466	0.042
Mof_O 	O 	0.5	0.4101	0.948	-0.352
Mof_C 	C 	0.5	0.2855	0.9466	0.096
Mof_O 	O 	-3.32519e-33	0.0899	0.448	-0.408
Mof_C 	C 	1.67448e-33	0.2145	0.4466	0.036
Mof_O 	O 	0.5	0.5899	0.948	-0.352
Mof_C 	C 	0.5	0.7145	0.9466	0.097
Mof_O 	O 	0.0899	0.448	-0	-0.408
Mof_C 	C 	0.2145	0.4466	-0	0.036
Mof_O 	O 	0.5899	0.948	0.5	-0.352
Mof_C 	C 	0.7145	0.9466	0.5	0.097
Mof_O 	O 	0.9101	0.448	-0	-0.383
Mof_C 	C 	0.7855	0.4466	-0	0.042
Mof_O 	O 	0.4101	0.948	0.5	-0.352
Mof_C 	C 	0.2855	0.9466	0.5	0.096
Mof_O 	O 	0.9101	0.552	-0	-0.381
Mof_C 	C 	0.7855	0.5534	-0	0.045
Mof_O 	O 	0.4101	0.052	0.5	-0.383
Mof_C 	C 	0.2855	0.0534	0.5	0.061
Mof_O 	O 	0.0899	0.552	-0	-0.406
Mof_C 	C 	0.2145	0.5534	-0	0.039
Mof_O 	O 	0.5899	0.052	0.5	-0.383
Mof_C 	C 	0.7145	0.0534	0.5	0.063
Mof_O 	O 	0.448	0	0.9101	-0.383
Mof_C 	C 	0.4466	0	0.7855	0.042
Mof_O 	O 	0.948	0.5	0.4101	-0.352
Mof_C 	C 	0.9466	0.5	0.2855	0.096
Mof_O 	O 	0.448	0	0.0899	-0.408
Mof_C 	C 	0.4466	2.50246e-33	0.2145	0.036
Mof_O 	O 	0.948	0.5	0.5899	-0.352
Mof_C 	C 	0.9466	0.5	0.7145	0.097
Mof_O 	O 	0.552	0	0.0899	-0.406
Mof_C 	C 	0.5534	2.50246e-33	0.2145	0.039
Mof_O 	O 	0.052	0.5	0.5899	-0.383
Mof_C 	C 	0.0534	0.5	0.7145	0.063
Mof_O 	O 	0.552	0	0.9101	-0.381
Mof_C 	C 	0.5534	0	0.7855	0.045
Mof_O 	O 	0.052	0.5	0.4101	-0.383
Mof_C 	C 	0.0534	0.5	0.2855	0.061
Mof_C 	C 	0.1147	-5.00492e-33	0.5	0.436
Mof_C 	C 	0.1844	-5.00492e-33	0.5	-0.227
Mof_C 	C 	0.6147	0.5	-0	0.383
Mof_C 	C 	0.6844	0.5	-0	-0.197
Mof_C 	C 	0.8853	-5.00492e-33	0.5	0.432
Mof_C 	C 	0.8156	-5.00492e-33	0.5	-0.224
Mof_C 	C 	0.3853	0.5	-0	0.383
Mof_C 	C 	0.3156	0.5	-0	-0.197
Mof_C 	C 	0.5	0.1147	-0	0.436
Mof_C 	C 	0.5	0.1844	-0	-0.227
Mof_C 	C 	-8.13514e-33	0.6147	0.5	0.383
Mof_C 	C 	1.8747e-33	0.6844	0.5	-0.197
Mof_C 	C 	0.5	0.8853	-0	0.432
Mof_C 	C 	0.5	0.8156	-0	-0.224
Mof_C 	C 	-3.13022e-33	0.3853	0.5	0.383
Mof_C 	C 	-3.13022e-33	0.3156	0.5	-0.197
Mof_C 	C 	-3.32363e-33	0.5	0.1147	0.436
Mof_C 	C 	-1.81107e-33	0.5	0.1844	-0.227
Mof_C 	C 	0.5	-5.00492e-33	0.6147	0.383
Mof_C 	C 	0.5	0	0.6844	-0.197
Mof_C 	C 	-6.69049e-33	0.5	0.8853	0.432
Mof_C 	C 	-2.69715e-32	0.5	0.8156	-0.224
Mof_C 	C 	0.5	0	0.3853	0.383
Mof_C 	C 	0.5	0	0.3156	-0.197
Mof_C 	C 	-3.13022e-33	0.1147	0.5	0.436
Mof_C 	C 	-3.13022e-33	0.1844	0.5	-0.227
Mof_C 	C 	0.5	0.6147	-0	0.383
Mof_C 	C 	0.5	0.6844	-0	-0.197
Mof_C 	C 	1.8747e-33	0.8853	0.5	0.432
Mof_C 	C 	-1.8145e-32	0.8156	0.5	-0.224
Mof_C 	C 	0.5	0.3853	-0	0.383
Mof_C 	C 	0.5	0.3156	-0	-0.197
Mof_C 	C 	0.1147	0.5	-0	0.436
Mof_C 	C 	0.1844	0.5	-0	-0.227
Mof_C 	C 	0.6147	-5.00492e-33	0.5	0.383
Mof_C 	C 	0.6844	-5.00492e-33	0.5	-0.197
Mof_C 	C 	0.8853	0.5	-0	0.432
Mof_C 	C 	0.8156	0.5	-0	-0.224
Mof_C 	C 	0.3853	-5.00492e-33	0.5	0.383
Mof_C 	C 	0.3156	-5.00492e-33	0.5	-0.197
Mof_C 	C 	0.5	0	0.8853	0.432
Mof_C 	C 	0.5	-1.00098e-32	0.8156	-0.224
Mof_C 	C 	-3.56027e-33	0.5	0.3853	0.383
Mof_C 	C 	-1.31915e-33	0.5	0.3156	-0.197
Mof_C 	C 	0.5	0	0.1147	0.436
Mof_C 	C 	0.5	0	0.1844	-0.227
Mof_C 	C 	-7.70508e-33	0.5	0.6147	0.383
Mof_C 	C 	-2.43883e-33	0.5	0.6844	-0.197
Mof_C 	C 	0.2162	0.0511	0.5	0.12
Mof_Br	Br	0.177	0.1309	0.5	-0.115
Mof_C 	C 	0.7162	0.5511	-0	0.079
Mof_Br	Br	0.677	0.6309	-0	-0.116
Mof_C 	C 	0.7838	0.9489	0.5	0.154
Mof_Br	Br	0.823	0.8691	0.5	-0.097
Mof_C 	C 	0.2838	0.4489	-0	0.079
Mof_Br	Br	0.323	0.3691	-0	-0.124
Mof_C 	C 	0.7838	0.0511	0.5	0.118
Mof_Br	Br	0.823	0.1309	0.5	-0.107
Mof_C 	C 	0.2838	0.5511	-0	0.079
Mof_Br	Br	0.323	0.6309	-0	-0.121
Mof_C 	C 	0.2162	0.9489	0.5	0.157
Mof_Br	Br	0.177	0.8691	0.5	-0.105
Mof_C 	C 	0.7162	0.4489	-0	0.079
Mof_Br	Br	0.677	0.3691	-0	-0.118
Mof_C 	C 	0.5	0.2162	0.0511	0.12
Mof_Br	Br	0.5	0.177	0.1309	-0.115
Mof_C 	C 	2.06629e-33	0.7162	0.5511	0.079
Mof_Br	Br	-2.63942e-33	0.677	0.6309	-0.116
Mof_C 	C 	0.5	0.7838	0.9489	0.154
Mof_Br	Br	0.5	0.823	0.8691	-0.097
Mof_C 	C 	-3.32181e-33	0.2838	0.4489	0.079
Mof_Br	Br	-3.62101e-33	0.323	0.3691	-0.124
Mof_C 	C 	0.5	0.7838	0.0511	0.118
Mof_Br	Br	0.5	0.823	0.1309	-0.107
Mof_C 	C 	-2.93862e-33	0.2838	0.5511	0.079
Mof_Br	Br	2.3655e-33	0.323	0.6309	-0.121
Mof_C 	C 	0.5	0.2162	0.9489	0.157
Mof_Br	Br	0.5	0.177	0.8691	-0.105
Mof_C 	C 	1.68311e-33	0.7162	0.4489	0.079
Mof_Br	Br	-8.62593e-33	0.677	0.3691	-0.118
Mof_C 	C 	0.0511	0.5	0.2162	0.12
Mof_Br	Br	0.1309	0.5	0.177	-0.115
Mof_C 	C 	0.5511	5.00492e-33	0.7162	0.079
Mof_Br	Br	0.6309	-1.00098e-32	0.677	-0.116
Mof_C 	C 	0.9489	0.5	0.7838	0.154
Mof_Br	Br	0.8691	0.5	0.823	-0.097
Mof_C 	C 	0.4489	-2.50246e-33	0.2838	0.079
Mof_Br	Br	0.3691	0	0.323	-0.124
Mof_C 	C 	0.0511	0.5	0.7838	0.118
Mof_Br	Br	0.1309	0.5	0.823	-0.107
Mof_C 	C 	0.5511	-2.50246e-33	0.2838	0.079
Mof_Br	Br	0.6309	0	0.323	-0.121
Mof_C 	C 	0.9489	0.5	0.2162	0.157
Mof_Br	Br	0.8691	0.5	0.177	-0.105
Mof_C 	C 	0.4489	5.00492e-33	0.7162	0.079
Mof_Br	Br	0.3691	-1.00098e-32	0.677	-0.118
Mof_C 	C 	0.0511	0.2162	0.5	0.12
Mof_Br	Br	0.1309	0.177	0.5	-0.115
Mof_C 	C 	0.5511	0.7162	-0	0.079
Mof_Br	Br	0.6309	0.677	-0	-0.116
Mof_C 	C 	0.9489	0.7838	0.5	0.154
Mof_Br	Br	0.8691	0.823	0.5	-0.097
Mof_C 	C 	0.4489	0.2838	-0	0.079
Mof_Br	Br	0.3691	0.323	-0	-0.124
Mof_C 	C 	0.0511	0.7838	0.5	0.118
Mof_Br	Br	0.1309	0.823	0.5	-0.107
Mof_C 	C 	0.5511	0.2838	-0	0.079
Mof_Br	Br	0.6309	0.323	-0	-0.121
Mof_C 	C 	0.9489	0.2162	0.5	0.157
Mof_Br	Br	0.8691	0.177	0.5	-0.105
Mof_C 	C 	0.4489	0.7162	-0	0.079
Mof_Br	Br	0.3691	0.677	-0	-0.118
Mof_C 	C 	0.2162	0.5	0.9489	0.157
Mof_Br	Br	0.177	0.5	0.8691	-0.105
Mof_C 	C 	0.7162	0	0.4489	0.079
Mof_Br	Br	0.677	0	0.3691	-0.118
Mof_C 	C 	0.7838	0.5	0.0511	0.118
Mof_Br	Br	0.823	0.5	0.1309	-0.107
Mof_C 	C 	0.2838	-5.00492e-33	0.5511	0.079
Mof_Br	Br	0.323	0	0.6309	-0.121
Mof_C 	C 	0.7838	0.5	0.9489	0.154
Mof_Br	Br	0.823	0.5	0.8691	-0.097
Mof_C 	C 	0.2838	0	0.4489	0.079
Mof_Br	Br	0.323	0	0.3691	-0.124
Mof_C 	C 	0.2162	0.5	0.0511	0.12
Mof_Br	Br	0.177	0.5	0.1309	-0.115
Mof_C 	C 	0.7162	-5.00492e-33	0.5511	0.079
Mof_Br	Br	0.677	0	0.6309	-0.116
Mof_C 	C 	0.5	0.0511	0.7838	0.118
Mof_Br	Br	0.5	0.1309	0.823	-0.107
Mof_C 	C 	-1.43838e-33	0.5511	0.2838	0.079
Mof_Br	Br	3.71352e-33	0.6309	0.323	-0.121
Mof_C 	C 	0.5	0.9489	0.2162	0.157
Mof_Br	Br	0.5	0.8691	0.177	-0.105
Mof_C 	C 	-2.3196e-33	0.4489	0.7162	0.079
Mof_Br	Br	-7.47149e-33	0.3691	0.677	-0.118
Mof_C 	C 	0.5	0.0511	0.2162	0.12
Mof_Br	Br	0.5	0.1309	0.177	-0.115
Mof_C 	C 	-2.3196e-33	0.5511	0.7162	0.079
Mof_Br	Br	-7.47149e-33	0.6309	0.677	-0.116
Mof_C 	C 	0.5	0.9489	0.7838	0.154
Mof_Br	Br	0.5	0.8691	0.823	-0.097
Mof_C 	C 	-1.43838e-33	0.4489	0.2838	0.079
Mof_Br	Br	-1.2914e-33	0.3691	0.323	-0.124
_end
