data_functionalizedCrystal
_audit_creation_method	'EQeq! by Chris Wilmer'
_symmetry_space_group_name_H-M	'P1'
_symmetry_Int_Tables_number	1
_symmetry_cell_setting	triclinic
loop_
_symmetry_equiv_pos_as_xyz
  x,y,z
_cell_length_a	8.0355
_cell_length_b	23.4222
_cell_length_c	23.4222
_cell_angle_alpha	88.3139
_cell_angle_beta	80.1228
_cell_angle_gamma	80.1231
loop_
_atom_site_label
_atom_site_type_symbol
_atom_site_fract_x
_atom_site_fract_y
_atom_site_fract_z
_atom_site_charge
Mof_Zn	Zn	0.14115	0.06228	0.05354	1.245
Mof_Zn	Zn	0.80531	0.05354	0.93772	1.246
Mof_Zn	Zn	0.25697	0.93772	0.94646	1.245
Mof_Zn	Zn	0.5	0	-0	1.225
Mof_Zn	Zn	0.79657	0.94646	0.06228	1.245
Mof_Fe	Fe	0.25	0.5	0.5	0.863
Mof_H 	H 	0.226	0.706	0.4578	0.076
Mof_H 	H 	0.3385	0.0039	0.6315	0.059
Mof_H 	H 	0.4196	0.3745	0.8803	0.292
Mof_H 	H 	0.0016	0.1684	0.6092	0.291
Mof_H 	H 	0.9434	0.3983	0.8513	0.064
Mof_H 	H 	0.6576	0.3685	0.0039	0.059
Mof_H 	H 	0.8354	0.1312	0.3068	0.061
Mof_H 	H 	0.8051	0.3622	0.1114	0.292
Mof_H 	H 	0.6437	0.6997	0.8779	0.064
Mof_H 	H 	0.9218	0.0099	0.7097	0.068
Mof_H 	H 	0.8294	0.8218	0.622	0.295
Mof_H 	H 	0.83	0.3908	0.1684	0.294
Mof_H 	H 	0.1624	0.3744	0.9914	0.051
Mof_H 	H 	0.7362	0.0532	0.5	0.312
Mof_H 	H 	0.7638	0.5	0.9468	0.303
Mof_H 	H 	0.7297	0.0082	0.1988	0.115
Mof_H 	H 	0.2059	0.1197	0.3745	0.294
Mof_H 	H 	0.8657	0.7472	0.5092	0.081
Mof_H 	H 	0.6615	0.0081	0.4679	0.314
Mof_H 	H 	0.8853	0.2151	0.0279	0.105
Mof_H 	H 	0.8578	0.3068	0.8688	0.07
Mof_H 	H 	0.0881	0.172	0.4092	0.3
Mof_H 	H 	0.2787	0.6378	0.8886	0.289
Mof_H 	H 	0.0683	0.2903	0.0099	0.074
Mof_H 	H 	0.2106	0.5	0.0532	0.31
Mof_H 	H 	0.6519	0.5069	0.8657	0.057
Mof_H 	H 	0.5901	0.2804	0.9836	0.072
Mof_H 	H 	0.5969	0.5226	0.6706	0.101
Mof_H 	H 	0.2053	0.8513	0.6017	0.068
Mof_H 	H 	0.3162	0.4578	0.294	0.075
Mof_H 	H 	0.9739	0.9961	0.3685	0.061
Mof_H 	H 	0.2213	0.3003	0.1221	0.061
Mof_H 	H 	0.1809	0.9918	0.4642	0.306
Mof_H 	H 	0.6434	0.7981	0.0297	0.117
Mof_H 	H 	0.2732	0.1782	0.378	0.295
Mof_H 	H 	0.8462	0.9914	0.6256	0.056
Mof_H 	H 	0.1283	0.7849	0.9721	0.103
Mof_H 	H 	0.8541	0.7196	0.0164	0.081
Mof_H 	H 	0.575	0.1427	0.6125	0.065
Mof_H 	H 	0.193	0.6017	0.1487	0.073
Mof_H 	H 	0.2621	0.8012	0.0082	0.114
Mof_H 	H 	0.4784	0.8779	0.3003	0.062
Mof_H 	H 	0.6693	0.828	0.5908	0.3
Mof_H 	H 	0.3871	0.4908	0.7472	0.079
Mof_H 	H 	0.781	0.8149	0.9789	0.119
Mof_H 	H 	0.3488	0.378	0.8218	0.292
Mof_H 	H 	0.4824	0.8657	0.4931	0.058
Mof_H 	H 	0.3304	0.5321	0.0081	0.313
Mof_H 	H 	0.1221	0.2528	0.4908	0.081
Mof_H 	H 	0.2894	0.9468	0.5	0.305
Mof_H 	H 	0.7792	0.8316	0.3908	0.295
Mof_H 	H 	0.03	0.6315	0.9961	0.049
Mof_H 	H 	0.5585	0.9703	0.7981	0.114
Mof_H 	H 	0.7001	0.8803	0.6255	0.293
Mof_H 	H 	0.3549	0.4642	0.0082	0.312
Mof_H 	H 	0.4179	0.2876	0.474	0.071
Mof_H 	H 	0.9701	0.8323	0.3623	0.296
Mof_H 	H 	0.0835	0.1114	0.6378	0.29
Mof_H 	H 	0.8125	0.6125	0.8573	0.063
Mof_H 	H 	0.7325	0.6706	0.4774	0.101
Mof_H 	H 	0.197	0.496	0.2056	0.062
Mof_H 	H 	0.307	0.7944	0.496	0.052
Mof_H 	H 	0.2734	0.8688	0.6932	0.064
Mof_H 	H 	0.4263	0.9836	0.7196	0.071
Mof_H 	H 	0.0715	0.1988	0.9918	0.109
Mof_H 	H 	0.7901	0.4774	0.3294	0.107
Mof_H 	H 	0.3269	0.0297	0.2019	0.117
Mof_H 	H 	0.1647	0.1677	0.6377	0.292
Mof_H 	H 	0.5486	0.622	0.1782	0.295
Mof_H 	H 	0.1976	0.6377	0.8323	0.291
Mof_H 	H 	0.3892	0.6092	0.8316	0.291
Mof_H 	H 	0.8805	0.3294	0.5226	0.1
Mof_H 	H 	0.9367	0.9918	0.8012	0.12
Mof_H 	H 	0.8412	0.1343	0.5069	0.057
Mof_H 	H 	0.2823	0.3875	0.1427	0.065
Mof_H 	H 	0.3302	0.8573	0.3875	0.065
Mof_H 	H 	0.0334	0.6932	0.1312	0.06
Mof_H 	H 	0.8273	0.5358	0.9918	0.304
Mof_H 	H 	0.3685	0.7097	0.9901	0.06
Mof_H 	H 	0.4712	0.2019	0.9703	0.114
Mof_H 	H 	0.5974	0.2056	0.504	0.053
Mof_H 	H 	0.1795	0.7124	0.526	0.07
Mof_H 	H 	0.4632	0.0086	0.3744	0.065
Mof_H 	H 	0.0245	0.4931	0.1343	0.044
Mof_H 	H 	0.6566	0.1221	0.6997	0.062
Mof_H 	H 	0.1081	0.474	0.7124	0.071
Mof_H 	H 	0.1295	0.0164	0.2804	0.075
Mof_H 	H 	0.7399	0.5908	0.172	0.301
Mof_H 	H 	0.0868	0.0279	0.7849	0.109
Mof_H 	H 	0.2945	0.526	0.2876	0.069
Mof_H 	H 	0.3898	0.294	0.5422	0.076
Mof_H 	H 	0.6583	0.1487	0.3983	0.074
Mof_H 	H 	0.068	0.5422	0.706	0.077
Mof_H 	H 	0.6744	0.6255	0.1197	0.295
Mof_H 	H 	0.6369	0.0082	0.5358	0.313
Mof_H 	H 	0.6676	0.3623	0.1677	0.294
Mof_H 	H 	0.4041	0.0211	0.8149	0.118
Mof_H 	H 	0.8706	0.4679	0.9919	0.306
Mof_H 	H 	0.2401	0.9789	0.1851	0.117
Mof_H 	H 	0.8996	0.9721	0.2151	0.105
Mof_H 	H 	0.5748	0.1851	0.0211	0.118
Mof_H 	H 	0.6251	0.5092	0.2528	0.074
Mof_H 	H 	0.5282	0.6256	0.0086	0.064
Mof_H 	H 	0.1375	0.9919	0.5321	0.307
Mof_H 	H 	0.5027	0.4092	0.828	0.298
Mof_H 	H 	0.8986	0.504	0.7944	0.054
Mof_H 	H 	0.8327	0.8886	0.3622	0.293
Mof_H 	H 	0.6414	0.9901	0.2903	0.059
Mof_C 	C 	0.3711	0.6044	0.0794	0.148
Mof_C 	C 	0.3731	0.0907	0.5573	-0.35
Mof_C 	C 	0.8512	0.1733	0.5063	-0.135
Mof_C 	C 	0.3491	0.9898	0.1886	-0.241
Mof_C 	C 	0.9771	0.9768	0.689	-0.092
Mof_C 	C 	0.4623	0.1886	0.0102	-0.236
Mof_C 	C 	0.9505	0.2005	0.9909	-0.215
Mof_C 	C 	0.0145	0.504	0.9268	0.402
Mof_C 	C 	0.6758	0.7081	0.4863	-0.092
Mof_C 	C 	0.1344	0.6789	0.1063	-0.077
Mof_C 	C 	0.9773	0.9049	0.5485	-0.339
Mof_C 	C 	0.9692	0.3763	0.8833	-0.104
Mof_C 	C 	0.6853	0.4939	0.1475	-0.33
Mof_C 	C 	0.4742	0.5485	0.0951	-0.352
Mof_C 	C 	0.5287	0.302	0.0154	-0.098
Mof_C 	C 	0.7253	0.2753	0.5101	0.129
Mof_C 	C 	0.7481	0.0599	0.2893	0.114
Mof_C 	C 	0.4272	0.3121	0.5055	-0.116
Mof_C 	C 	0.1769	0.9679	0.4983	-0.958
Mof_C 	C 	0.4847	0.502	0.7566	-0.118
Mof_C 	C 	0.2222	0.1272	0.558	0.389
Mof_C 	C 	0.5943	0.5464	0.131	0.387
Mof_C 	C 	0.3958	0.282	0.051	0.125
Mof_C 	C 	0.4762	0.3879	0.0771	0.124
Mof_C 	C 	0.543	0.1109	0.6335	-0.117
Mof_C 	C 	0.1073	0.1453	0.6161	-0.885
Mof_C 	C 	0.2747	0.131	0.4536	0.389
Mof_C 	C 	0.4649	0.9852	0.1292	0.461
Mof_C 	C 	0.3461	0.3665	0.1109	-0.117
Mof_C 	C 	0.3068	0.4993	0.3771	0.312
Mof_C 	C 	0.3339	0.689	0.0232	-0.079
Mof_C 	C 	0.7907	0.5062	0.7844	-0.078
Mof_C 	C 	0.0549	0.3956	0.9206	0.12
Mof_C 	C 	0.0673	0.5055	0.6879	-0.12
Mof_C 	C 	0.6953	0.8129	0.4945	0.145
Mof_C 	C 	0.6161	0.5137	0.7081	-0.093
Mof_C 	C 	0.849	0.0091	0.2005	-0.224
Mof_C 	C 	0.5308	0.8267	0.4937	-0.142
Mof_C 	C 	0.1359	0.9229	0.3879	0.125
Mof_C 	C 	0.1939	0.6229	0.4993	0.313
Mof_C 	C 	0.4559	0.0154	0.698	-0.097
Mof_C 	C 	0.0813	0.4938	0.2156	-0.107
Mof_C 	C 	0.4918	0.5055	0.8129	0.142
Mof_C 	C 	0.6431	0.0321	0.5017	-0.975
Mof_C 	C 	0.4249	0.7844	0.4938	-0.077
Mof_C 	C 	0.1867	0.8937	0.6789	-0.085
Mof_C 	C 	0.0586	0.9909	0.7995	-0.236
Mof_C 	C 	0.5532	0.051	0.718	0.125
Mof_C 	C 	0.8102	0.4945	0.1871	0.125
Mof_C 	C 	0.1475	0.8833	0.6237	-0.122
Mof_C 	C 	0.936	0.9669	0.6385	-0.109
Mof_C 	C 	0.0767	0.9722	0.3544	-0.108
Mof_C 	C 	0.3095	0.3145	0.0979	-0.084
Mof_C 	C 	0.3248	0.4983	0.0321	-0.972
Mof_C 	C 	0.9755	0.4937	0.1733	-0.108
Mof_C 	C 	0.5793	0.0148	0.8708	0.465
Mof_C 	C 	0.3161	0.3771	0.5007	0.313
Mof_C 	C 	0.9412	0.6121	0.9229	0.118
Mof_C 	C 	0.2874	0.8891	0.3665	-0.117
Mof_C 	C 	0.7593	0.1063	0.3211	-0.075
Mof_C 	C 	0.4059	0.1292	0.0148	0.464
Mof_C 	C 	0.5362	0.4427	0.0907	-0.349
Mof_C 	C 	0.8379	0.4863	0.2919	-0.11
Mof_C 	C 	0.7587	0.7566	0.498	-0.12
Mof_C 	C 	0.8593	0.869	0.5464	0.385
Mof_C 	C 	0.0302	0.8607	0.0217	0.405
Mof_C 	C 	0.8552	0.5017	0.9679	-0.948
Mof_C 	C 	0.4255	0.6385	0.0331	-0.129
Mof_C 	C 	0.7031	0.2156	0.5062	-0.079
Mof_C 	C 	0.7433	0.498	0.2434	-0.102
Mof_C 	C 	0.8235	0.6335	0.8891	-0.109
Mof_C 	C 	0.6506	0.442	0.1272	0.387
Mof_C 	C 	0.8687	0.8547	0.3839	-0.893
Mof_C 	C 	0.0971	0.3615	0.9669	-0.097
Mof_C 	C 	0.9074	0.8728	0.442	0.393
Mof_C 	C 	0.1693	0.9846	0.302	-0.104
Mof_C 	C 	0.3267	0.5061	0.8525	-0.334
Mof_C 	C 	0.9481	0.0217	0.1393	0.417
Mof_C 	C 	0.1178	0.4515	0.9049	-0.339
Mof_C 	C 	0.7219	0.6855	0.9021	-0.093
Mof_C 	C 	0.6545	0.1167	0.3763	-0.135
Mof_C 	C 	0.1832	0.5007	0.6229	0.314
Mof_C 	C 	0.7474	0.3839	0.1453	-0.888
Mof_C 	C 	0.5689	0.3544	0.0278	-0.103
Mof_C 	C 	0.1091	0.9783	0.8607	0.411
Mof_C 	C 	0.7545	0.8478	0.6012	-0.897
Mof_C 	C 	0.5495	0.0794	0.3956	0.15
Mof_C 	C 	0.0211	0.9093	0.4427	-0.352
Mof_C 	C 	0.0027	0.1871	0.5055	0.141
Mof_C 	C 	0.8461	0.698	0.9846	-0.116
Mof_C 	C 	0.5926	0.0979	0.6855	-0.084
Mof_C 	C 	0.7646	0.5101	0.7247	0.13
Mof_C 	C 	0.2448	0.6879	0.4945	-0.115
Mof_C 	C 	0.0245	0.9206	0.6044	0.13
Mof_C 	C 	0.7288	0.718	0.949	0.134
Mof_C 	C 	0.5275	0.0102	0.8114	-0.236
Mof_C 	C 	0.5107	0.7247	0.4899	0.129
Mof_C 	C 	0.4033	0.0278	0.6456	-0.104
Mof_C 	C 	0.1672	0.1475	0.5061	-0.338
Mof_C 	C 	0.5414	0.0331	0.3615	-0.132
Mof_C 	C 	0.376	0.9021	0.3145	-0.085
Mof_C 	C 	0.6611	0.8114	0.9898	-0.24
Mof_C 	C 	0.8208	0.8525	0.4939	-0.338
Mof_C 	C 	0.1419	0.7995	0.0091	-0.219
Mof_C 	C 	0.3222	0.949	0.282	0.126
Mof_C 	C 	0.2288	0.6237	0.1167	-0.134
Mof_C 	C 	0.2766	0.6161	0.8547	-0.882
Mof_C 	C 	0.2035	0.1522	0.3988	-0.901
Mof_C 	C 	0.2198	0.558	0.8728	0.384
Mof_C 	C 	0.2717	0.4536	0.869	0.381
Mof_C 	C 	0.9994	0.4899	0.2753	0.151
Mof_C 	C 	0.0696	0.5573	0.9093	-0.344
Mof_C 	C 	0.0973	0.9401	0.7107	0.12
Mof_C 	C 	0.4467	0.0771	0.6121	0.125
Mof_C 	C 	0.6429	0.0232	0.311	-0.075
Mof_C 	C 	0.6443	0.6012	0.1522	-0.9
Mof_C 	C 	0.192	0.7107	0.0599	0.116
Mof_C 	C 	0.9196	0.3211	0.8937	-0.101
Mof_C 	C 	0.4453	0.496	0.0732	0.416
Mof_C 	C 	0.8702	0.2919	0.5137	-0.088
Mof_C 	C 	0.0133	0.2434	0.502	-0.123
Mof_C 	C 	0.4307	0.0951	0.4515	-0.354
Mof_C 	C 	0.4815	0.0732	0.504	0.418
Mof_C 	C 	0.5499	0.8708	0.9852	0.462
Mof_C 	C 	0.0587	0.9268	0.496	0.407
Mof_C 	C 	0.9126	0.1393	0.9783	0.406
Mof_C 	C 	0.9626	0.2893	0.9401	0.142
Mof_C 	C 	0.3977	0.3988	0.8478	-0.893
Mof_C 	C 	0.9511	0.6456	0.9722	-0.085
Mof_C 	C 	0.0461	0.311	0.9768	-0.118
Mof_C 	C 	0.6425	0.5063	0.8267	-0.139
Mof_C 	C 	0.2607	0.4945	0.3121	-0.112
Mof_O 	O 	0.1553	0.9447	0.7633	-0.155
Mof_O 	O 	0.3476	0.2294	0.0456	-0.157
Mof_O 	O 	0.1556	0.3722	0.5106	-0.251
Mof_O 	O 	0.4371	0.8718	0.9542	-0.483
Mof_O 	O 	0.2229	0.9382	0.8666	-0.461
Mof_O 	O 	0.9538	0.985	0.0992	-0.516
Mof_O 	O 	0.3136	0.5795	0.4913	-0.331
Mof_O 	O 	0.4222	0.6772	0.4984	-0.165
Mof_O 	O 	0.3844	0.4205	0.5087	-0.331
Mof_O 	O 	0.9105	0.8666	0.0618	-0.456
Mof_O 	O 	0.038	0.015	0.9008	-0.516
Mof_O 	O 	0.0612	0.9008	0.985	-0.516
Mof_O 	O 	0.6226	0.7706	0.9544	-0.158
Mof_O 	O 	0.1069	0.5087	0.5795	-0.333
Mof_O 	O 	0.0384	0.6278	0.4894	-0.251
Mof_O 	O 	0.423	0.9544	0.2294	-0.156
Mof_O 	O 	0.5051	0.9894	0.9118	-0.556
Mof_O 	O 	0.9	0.2367	0.9447	-0.162
Mof_O 	O 	0.0277	0.0618	0.1334	-0.465
Mof_O 	O 	0.6087	0.9542	0.1282	-0.483
Mof_O 	O 	0.2447	0	-0	-0.679
Mof_O 	O 	0.4063	0.0106	0.0882	-0.552
Mof_O 	O 	0.0794	0.4984	0.3228	-0.172
Mof_O 	O 	0.4722	0.4894	0.3722	-0.249
Mof_O 	O 	0.6911	0.0458	0.8718	-0.483
Mof_O 	O 	0.8633	0.0553	0.2367	-0.154
Mof_O 	O 	0.2631	0.1282	0.0458	-0.484
Mof_O 	O 	0.8389	0.1334	0.9382	-0.459
Mof_O 	O 	0.0814	0.7633	0.0553	-0.158
Mof_O 	O 	0.7553	0	-0	-0.678
Mof_O 	O 	0.1951	0.4913	0.4205	-0.332
Mof_O 	O 	0.5978	0.3228	0.5016	-0.165
Mof_O 	O 	0.5831	0.9118	0.0106	-0.553
Mof_O 	O 	0.6068	0.0456	0.7706	-0.156
Mof_O 	O 	0.947	0.0992	0.015	-0.511
Mof_O 	O 	0.5055	0.0882	0.9894	-0.556
Mof_O 	O 	0.3338	0.5106	0.6278	-0.25
Mof_O 	O 	0.9006	0.5016	0.6772	-0.162
_end
