data_functionalizedCrystal
_audit_creation_method	'EQeq! by Chris Wilmer'
_symmetry_space_group_name_H-M	'P1'
_symmetry_Int_Tables_number	1
_symmetry_cell_setting	triclinic
loop_
_symmetry_equiv_pos_as_xyz
  x,y,z
_cell_length_a	15.6261
_cell_length_b	15.6261
_cell_length_c	15.9604
_cell_angle_alpha	90
_cell_angle_beta	90
_cell_angle_gamma	120
loop_
_atom_site_label
_atom_site_type_symbol
_atom_site_fract_x
_atom_site_fract_y
_atom_site_fract_z
_atom_site_charge
Mof_O 	O 	0.6553	0.4845	0.8414	-0.632
Mof_C 	C 	0.4414	0.4075	0.9652	0.04
Mof_O 	O 	0.5155	0.1708	0.8414	-0.632
Mof_C 	C 	0.5925	0.0339	0.9652	0.04
Mof_O 	O 	0.8292	0.3447	0.8414	-0.632
Mof_C 	C 	0.9661	0.5586	0.9652	0.04
Mof_O 	O 	0.3447	0.5155	0.3414	-0.632
Mof_C 	C 	0.5586	0.5925	0.4652	0.04
Mof_O 	O 	0.4845	0.8292	0.3414	-0.633
Mof_C 	C 	0.4075	0.9661	0.4652	0.039
Mof_O 	O 	0.1708	0.6553	0.3414	-0.633
Mof_C 	C 	0.0339	0.4414	0.4652	0.039
Mof_O 	O 	0.4845	0.6553	0.1586	-0.633
Mof_C 	C 	0.4075	0.4414	0.0348	0.039
Mof_O 	O 	0.1708	0.5155	0.1586	-0.633
Mof_C 	C 	0.0339	0.5925	0.0348	0.039
Mof_O 	O 	0.3447	0.8292	0.1586	-0.633
Mof_C 	C 	0.5586	0.9661	0.0348	0.039
Mof_O 	O 	0.5155	0.3447	0.6586	-0.633
Mof_C 	C 	0.5925	0.5586	0.5348	0.039
Mof_O 	O 	0.8292	0.4845	0.6586	-0.633
Mof_C 	C 	0.9661	0.4075	0.5348	0.039
Mof_O 	O 	0.6553	0.1708	0.6586	-0.633
Mof_C 	C 	0.4414	0.0339	0.5348	0.039
Mof_O 	O 	0.3447	0.5155	0.1586	-0.633
Mof_C 	C 	0.5586	0.5925	0.0348	0.039
Mof_O 	O 	0.4845	0.8292	0.1586	-0.633
Mof_C 	C 	0.4075	0.9661	0.0348	0.039
Mof_O 	O 	0.1708	0.6553	0.1586	-0.633
Mof_C 	C 	0.0339	0.4414	0.0348	0.039
Mof_O 	O 	0.6553	0.4845	0.6586	-0.633
Mof_C 	C 	0.4414	0.4075	0.5348	0.039
Mof_O 	O 	0.5155	0.1708	0.6586	-0.633
Mof_C 	C 	0.5925	0.0339	0.5348	0.039
Mof_O 	O 	0.8292	0.3447	0.6586	-0.633
Mof_C 	C 	0.9661	0.5586	0.5348	0.039
Mof_O 	O 	0.5155	0.3447	0.8414	-0.633
Mof_C 	C 	0.5925	0.5586	0.9652	0.039
Mof_O 	O 	0.8292	0.4845	0.8414	-0.633
Mof_C 	C 	0.9661	0.4075	0.9652	0.039
Mof_O 	O 	0.6553	0.1708	0.8414	-0.633
Mof_C 	C 	0.4414	0.0339	0.9652	0.039
Mof_O 	O 	0.4845	0.6553	0.3414	-0.633
Mof_C 	C 	0.4075	0.4414	0.4652	0.039
Mof_O 	O 	0.1708	0.5155	0.3414	-0.633
Mof_C 	C 	0.0339	0.5925	0.4652	0.039
Mof_O 	O 	0.3447	0.8292	0.3414	-0.633
Mof_C 	C 	0.5586	0.9661	0.4652	0.039
Mof_Cr	Cr	0.7352	0.4704	0.75	2.043
Mof_Cr	Cr	0.5296	0.2648	0.75	2.043
Mof_Cr	Cr	0.7352	0.2648	0.75	2.043
Mof_Cr	Cr	0.2648	0.5296	0.25	2.043
Mof_Cr	Cr	0.4704	0.7352	0.25	2.043
Mof_Cr	Cr	0.2648	0.7352	0.25	2.043
Mof_O 	O 	0.66667	0.33333	0.75	-1.213
Mof_O 	O 	0.33333	0.66667	0.25	-1.213
Mof_C 	C 	0.5757	0.4243	0.8786	0.56
Mof_C 	C 	0.5425	0.4575	0.9483	-0.192
Mof_C 	C 	0.5757	0.1514	0.8786	0.56
Mof_C 	C 	0.5425	0.085	0.9483	-0.192
Mof_C 	C 	0.8486	0.4243	0.8786	0.56
Mof_C 	C 	0.915	0.4575	0.9483	-0.192
Mof_C 	C 	0.4243	0.5757	0.3786	0.56
Mof_C 	C 	0.4575	0.5425	0.4483	-0.192
Mof_C 	C 	0.4243	0.8486	0.3786	0.56
Mof_C 	C 	0.4575	0.915	0.4483	-0.192
Mof_C 	C 	0.1514	0.5757	0.3786	0.56
Mof_C 	C 	0.085	0.5425	0.4483	-0.192
Mof_C 	C 	0.4243	0.5757	0.1214	0.56
Mof_C 	C 	0.4575	0.5425	0.0517	-0.192
Mof_C 	C 	0.1514	0.5757	0.1214	0.56
Mof_C 	C 	0.085	0.5425	0.0517	-0.192
Mof_C 	C 	0.4243	0.8486	0.1214	0.56
Mof_C 	C 	0.4575	0.915	0.0517	-0.192
Mof_C 	C 	0.5757	0.4243	0.6214	0.56
Mof_C 	C 	0.5425	0.4575	0.5517	-0.192
Mof_C 	C 	0.8486	0.4243	0.6214	0.56
Mof_C 	C 	0.915	0.4575	0.5517	-0.192
Mof_C 	C 	0.5757	0.1514	0.6214	0.56
Mof_C 	C 	0.5425	0.085	0.5517	-0.192
_end
