data_functionalizedCrystal
_audit_creation_method	'EQeq! by Chris Wilmer'
_symmetry_space_group_name_H-M	'P1'
_symmetry_Int_Tables_number	1
_symmetry_cell_setting	triclinic
loop_
_symmetry_equiv_pos_as_xyz
  x,y,z
_cell_length_a	13.5231
_cell_length_b	29.5615
_cell_length_c	29.5615
_cell_angle_alpha	87.0011
_cell_angle_beta	76.7778
_cell_angle_gamma	76.7779
loop_
_atom_site_label
_atom_site_type_symbol
_atom_site_fract_x
_atom_site_fract_y
_atom_site_fract_z
_atom_site_charge
Mof_Cd	Cd	0.03393	0.94954	0.88433	0.471
Mof_Cd	Cd	0.24797	0.01041	0.75112	0.388
Mof_Cd	Cd	0.53289	0.94169	0.61101	0.48
Mof_Cd	Cd	0.36779	0.55046	0.61567	0.472
Mof_Cd	Cd	0.50951	0.48959	0.74888	0.388
Mof_Cd	Cd	0.58559	0.55831	0.88899	0.48
Mof_Cd	Cd	0.91825	0.11567	0.44955	0.472
Mof_Cd	Cd	0.9991	0.24888	0.5104	0.387
Mof_Cd	Cd	0.1439	0.38899	0.44169	0.48
Mof_Cd	Cd	0.98347	0.38433	0.05045	0.471
Mof_Cd	Cd	0.25838	0.25112	0.9896	0.387
Mof_Cd	Cd	0.47458	0.11101	0.05831	0.48
Mof_Cd	Cd	0.96607	0.05046	0.11567	0.471
Mof_Cd	Cd	0.75203	0.98959	0.24888	0.388
Mof_Cd	Cd	0.46711	0.05831	0.38899	0.48
Mof_Cd	Cd	0.63221	0.44954	0.38433	0.472
Mof_Cd	Cd	0.49049	0.51041	0.25112	0.388
Mof_Cd	Cd	0.41441	0.44169	0.11101	0.48
Mof_Cd	Cd	0.08175	0.88433	0.55045	0.471
Mof_Cd	Cd	0.0009	0.75112	0.4896	0.386
Mof_Cd	Cd	0.8561	0.61101	0.55831	0.479
Mof_Cd	Cd	0.01653	0.61567	0.94955	0.47
Mof_Cd	Cd	0.74162	0.74888	0.0104	0.386
Mof_Cd	Cd	0.52542	0.88899	0.94169	0.479
Mof_H 	H 	0.5789	0.8583	0.7931	0.059
Mof_H 	H 	0.583	0.8197	0.7289	0.035
Mof_H 	H 	0.4324	0.8319	0.7003	0.07
Mof_H 	H 	0.0361	0.8897	0.6659	0.057
Mof_H 	H 	0.0398	0.8393	0.7293	0.039
Mof_H 	H 	0.1658	0.8361	0.7723	0.064
Mof_H 	H 	0.5273	0.0476	0.8316	0.062
Mof_H 	H 	0.8132	0.0686	0.8316	0.067
Mof_H 	H 	0.7021	0.0381	0.7941	0.038
Mof_H 	H 	0.6604	0.165	0.9238	0.075
Mof_H 	H 	0.753	0.2131	0.9477	0.034
Mof_H 	H 	0.9273	0.1834	0.9528	0.061
Mof_H 	H 	0.0197	0.9718	0.782	0.014
Mof_H 	H 	0.9264	0.9695	0.7253	0.082
Mof_H 	H 	0.7183	0.9175	0.8255	0.095
Mof_H 	H 	0.8225	0.9218	0.8748	0.036
Mof_H 	H 	0.8661	0.9316	0.6746	0.085
Mof_H 	H 	0.7617	0.9305	0.6231	0.034
Mof_H 	H 	0.5093	0.9604	0.7208	0.026
Mof_H 	H 	0.6056	0.9594	0.7768	0.083
Mof_H 	H 	0.7303	0.6417	0.7069	0.059
Mof_H 	H 	0.6316	0.6803	0.7711	0.035
Mof_H 	H 	0.4646	0.6681	0.7997	0.07
Mof_H 	H 	0.0917	0.6103	0.8341	0.057
Mof_H 	H 	0.1084	0.6607	0.7707	0.039
Mof_H 	H 	0.2742	0.6639	0.7277	0.064
Mof_H 	H 	0.9065	0.4524	0.6684	0.062
Mof_H 	H 	0.2134	0.4314	0.6684	0.067
Mof_H 	H 	0.0343	0.4619	0.7059	0.038
Mof_H 	H 	0.2492	0.335	0.5762	0.075
Mof_H 	H 	0.4138	0.2869	0.5523	0.034
Mof_H 	H 	0.5635	0.3166	0.5472	0.062
Mof_H 	H 	0.2735	0.5282	0.718	0.015
Mof_H 	H 	0.1212	0.5305	0.7747	0.081
Mof_H 	H 	0.9613	0.5825	0.6745	0.095
Mof_H 	H 	0.1191	0.5782	0.6252	0.036
Mof_H 	H 	0.9723	0.5684	0.8254	0.085
Mof_H 	H 	0.8153	0.5695	0.8769	0.034
Mof_H 	H 	0.6905	0.5396	0.7792	0.026
Mof_H 	H 	0.8418	0.5406	0.7232	0.083
Mof_H 	H 	0.372	0.2069	0.3583	0.059
Mof_H 	H 	0.3119	0.2711	0.3197	0.035
Mof_H 	H 	0.1327	0.2997	0.3319	0.07
Mof_H 	H 	0.702	0.3341	0.3897	0.057
Mof_H 	H 	0.7691	0.2707	0.3393	0.039
Mof_H 	H 	0.9381	0.2277	0.3361	0.064
Mof_H 	H 	0.3589	0.1684	0.5476	0.062
Mof_H 	H 	0.6448	0.1684	0.5686	0.067
Mof_H 	H 	0.4962	0.2059	0.5381	0.038
Mof_H 	H 	0.5842	0.0762	0.665	0.076
Mof_H 	H 	0.7007	0.0523	0.7131	0.034
Mof_H 	H 	0.8801	0.0472	0.6834	0.062
Mof_H 	H 	0.8017	0.218	0.4718	0.015
Mof_H 	H 	0.6517	0.2747	0.4695	0.081
Mof_H 	H 	0.5438	0.1745	0.4175	0.095
Mof_H 	H 	0.6973	0.1252	0.4218	0.036
Mof_H 	H 	0.5407	0.3254	0.4316	0.085
Mof_H 	H 	0.3848	0.3769	0.4305	0.034
Mof_H 	H 	0.2301	0.2792	0.4604	0.026
Mof_H 	H 	0.3824	0.2232	0.4594	0.083
Mof_H 	H 	0.4372	0.2931	0.1417	0.059
Mof_H 	H 	0.4027	0.2289	0.1803	0.035
Mof_H 	H 	0.2643	0.2003	0.1681	0.07
Mof_H 	H 	0.9258	0.1659	0.1103	0.057
Mof_H 	H 	0.8791	0.2293	0.1607	0.04
Mof_H 	H 	0.0019	0.2723	0.1639	0.064
Mof_H 	H 	0.5749	0.3316	0.9524	0.062
Mof_H 	H 	0.8818	0.3316	0.9314	0.067
Mof_H 	H 	0.7402	0.2941	0.9619	0.038
Mof_H 	H 	0.8254	0.4238	0.835	0.075
Mof_H 	H 	0.9661	0.4477	0.7869	0.034
Mof_H 	H 	0.1107	0.4528	0.8166	0.062
Mof_H 	H 	0.9915	0.282	0.0282	0.015
Mof_H 	H 	0.8959	0.2253	0.0305	0.081
Mof_H 	H 	0.6358	0.3255	0.0825	0.095
Mof_H 	H 	0.7443	0.3748	0.0782	0.036
Mof_H 	H 	0.7977	0.1746	0.0684	0.085
Mof_H 	H 	0.6922	0.1231	0.0695	0.034
Mof_H 	H 	0.4697	0.2208	0.0396	0.026
Mof_H 	H 	0.565	0.2768	0.0406	0.083
Mof_H 	H 	0.4211	0.1417	0.2069	0.059
Mof_H 	H 	0.417	0.1803	0.2711	0.035
Mof_H 	H 	0.5676	0.1681	0.2997	0.07
Mof_H 	H 	0.9639	0.1103	0.3341	0.057
Mof_H 	H 	0.9602	0.1607	0.2707	0.039
Mof_H 	H 	0.8342	0.1639	0.2277	0.064
Mof_H 	H 	0.4727	0.9524	0.1684	0.062
Mof_H 	H 	0.1868	0.9314	0.1684	0.067
Mof_H 	H 	0.2979	0.9619	0.2059	0.038
Mof_H 	H 	0.3396	0.835	0.0762	0.075
Mof_H 	H 	0.247	0.7869	0.0523	0.034
Mof_H 	H 	0.0727	0.8166	0.0472	0.061
Mof_H 	H 	0.9803	0.0282	0.218	0.014
Mof_H 	H 	0.0736	0.0305	0.2747	0.082
Mof_H 	H 	0.2817	0.0825	0.1745	0.095
Mof_H 	H 	0.1775	0.0782	0.1252	0.036
Mof_H 	H 	0.1339	0.0684	0.3254	0.085
Mof_H 	H 	0.2383	0.0695	0.3769	0.034
Mof_H 	H 	0.4907	0.0396	0.2792	0.026
Mof_H 	H 	0.3944	0.0406	0.2232	0.083
Mof_H 	H 	0.2697	0.3583	0.2931	0.059
Mof_H 	H 	0.3684	0.3197	0.2289	0.035
Mof_H 	H 	0.5354	0.3319	0.2003	0.07
Mof_H 	H 	0.9083	0.3897	0.1659	0.057
Mof_H 	H 	0.8916	0.3393	0.2293	0.039
Mof_H 	H 	0.7258	0.3361	0.2723	0.064
Mof_H 	H 	0.0935	0.5476	0.3316	0.062
Mof_H 	H 	0.7866	0.5686	0.3316	0.067
Mof_H 	H 	0.9657	0.5381	0.2941	0.038
Mof_H 	H 	0.7508	0.665	0.4238	0.075
Mof_H 	H 	0.5862	0.7131	0.4477	0.034
Mof_H 	H 	0.4365	0.6834	0.4528	0.062
Mof_H 	H 	0.7265	0.4718	0.282	0.015
Mof_H 	H 	0.8788	0.4695	0.2253	0.081
Mof_H 	H 	0.0387	0.4175	0.3255	0.095
Mof_H 	H 	0.8809	0.4218	0.3748	0.036
Mof_H 	H 	0.0277	0.4316	0.1746	0.085
Mof_H 	H 	0.1847	0.4305	0.1231	0.034
Mof_H 	H 	0.3095	0.4604	0.2208	0.026
Mof_H 	H 	0.1582	0.4594	0.2768	0.083
Mof_H 	H 	0.628	0.7931	0.6417	0.059
Mof_H 	H 	0.6881	0.7289	0.6803	0.035
Mof_H 	H 	0.8673	0.7003	0.6681	0.07
Mof_H 	H 	0.298	0.6659	0.6103	0.057
Mof_H 	H 	0.2309	0.7293	0.6607	0.039
Mof_H 	H 	0.0619	0.7723	0.6639	0.064
Mof_H 	H 	0.6411	0.8316	0.4524	0.062
Mof_H 	H 	0.3552	0.8316	0.4314	0.067
Mof_H 	H 	0.5038	0.7941	0.4619	0.038
Mof_H 	H 	0.4158	0.9238	0.335	0.076
Mof_H 	H 	0.2993	0.9477	0.2869	0.034
Mof_H 	H 	0.1199	0.9528	0.3166	0.062
Mof_H 	H 	0.1983	0.782	0.5282	0.015
Mof_H 	H 	0.3483	0.7253	0.5305	0.081
Mof_H 	H 	0.4562	0.8255	0.5825	0.095
Mof_H 	H 	0.3027	0.8748	0.5782	0.036
Mof_H 	H 	0.4593	0.6746	0.5684	0.085
Mof_H 	H 	0.6152	0.6231	0.5695	0.034
Mof_H 	H 	0.7699	0.7208	0.5396	0.026
Mof_H 	H 	0.6176	0.7768	0.5406	0.083
Mof_H 	H 	0.5628	0.7069	0.8583	0.059
Mof_H 	H 	0.5973	0.7711	0.8197	0.035
Mof_H 	H 	0.7357	0.7997	0.8319	0.07
Mof_H 	H 	0.0742	0.8341	0.8897	0.057
Mof_H 	H 	0.1209	0.7707	0.8393	0.04
Mof_H 	H 	0.9981	0.7277	0.8361	0.064
Mof_H 	H 	0.4251	0.6684	0.0476	0.062
Mof_H 	H 	0.1182	0.6684	0.0686	0.067
Mof_H 	H 	0.2598	0.7059	0.0381	0.038
Mof_H 	H 	0.1746	0.5762	0.165	0.075
Mof_H 	H 	0.0339	0.5523	0.2131	0.034
Mof_H 	H 	0.8893	0.5472	0.1834	0.062
Mof_H 	H 	0.0085	0.718	0.9718	0.015
Mof_H 	H 	0.1041	0.7747	0.9695	0.081
Mof_H 	H 	0.3642	0.6745	0.9175	0.095
Mof_H 	H 	0.2557	0.6252	0.9218	0.036
Mof_H 	H 	0.2023	0.8254	0.9316	0.085
Mof_H 	H 	0.3078	0.8769	0.9305	0.034
Mof_H 	H 	0.5303	0.7792	0.9604	0.026
Mof_H 	H 	0.435	0.7232	0.9594	0.083
Mof_C 	C 	0.33827	0.87191	0.75135	0.041
Mof_C 	C 	0.33364	0.89311	0.79341	-0.075
Mof_C 	C 	0.42639	0.88871	0.80831	-0.027
Mof_C 	C 	0.51767	0.86125	0.78281	-0.049
Mof_C 	C 	0.52153	0.8391	0.74444	-0.005
Mof_C 	C 	0.43016	0.8458	0.72808	-0.083
Mof_C 	C 	0.24504	0.87872	0.7308	0.035
Mof_C 	C 	0.24418	0.9079	0.69154	-0.08
Mof_C 	C 	0.16192	0.91264	0.66652	-0.038
Mof_C 	C 	0.08913	0.88718	0.68176	-0.04
Mof_C 	C 	0.08982	0.85697	0.72059	-0.016
Mof_C 	C 	0.16677	0.85424	0.74562	-0.076
Mof_C 	C 	0.43137	0.91337	0.84969	0.289
Mof_C 	C 	0.23079	0.92017	0.81985	0.322
Mof_C 	C 	0.33178	0.93099	0.67385	0.346
Mof_C 	C 	0.15658	0.94421	0.62843	0.285
Mof_C 	C 	0.57511	0.05451	0.84687	-0.047
Mof_C 	C 	0.54296	0.06878	0.8943	-0.006
Mof_C 	C 	0.60917	0.08148	0.91578	-0.053
Mof_C 	C 	0.71101	0.0842	0.89178	0.04
Mof_C 	C 	0.74537	0.06836	0.8473	-0.071
Mof_C 	C 	0.67726	0.05101	0.82367	-0.009
Mof_C 	C 	0.93477	0.11847	0.93139	-0.009
Mof_C 	C 	0.87634	0.08992	0.9146	-0.067
Mof_C 	C 	0.77665	0.1085	0.9126	0.058
Mof_C 	C 	0.7297	0.15347	0.92513	-0.089
Mof_C 	C 	0.78495	0.18235	0.93995	0.003
Mof_C 	C 	0.8896	0.16451	0.94309	-0.052
Mof_C 	C 	0.4326	0.06895	0.91905	0.265
Mof_C 	C 	0.57055	0.09451	0.96659	0.287
Mof_C 	C 	0.9336	0.04105	0.90135	0.307
Mof_C 	C 	0.03956	0.09758	0.9417	0.29
Mof_C 	C 	0.9596	0.96016	0.78984	0.091
Mof_C 	C 	0.90242	0.9601	0.75566	-0.136
Mof_C 	C 	0.80906	0.94555	0.76853	0.054
Mof_C 	C 	0.77839	0.92887	0.81555	-0.133
Mof_C 	C 	0.84227	0.93083	0.84403	0.085
Mof_C 	C 	0.74512	0.94385	0.73291	0.055
Mof_C 	C 	0.79417	0.93633	0.68493	-0.124
Mof_C 	C 	0.73032	0.93645	0.65431	0.081
Mof_C 	C 	0.58169	0.95364	0.71178	0.074
Mof_C 	C 	0.63936	0.95328	0.7458	-0.132
Mof_C 	C 	0.46153	0.62809	0.74865	0.041
Mof_C 	C 	0.52016	0.60689	0.70659	-0.075
Mof_C 	C 	0.62341	0.61129	0.69169	-0.027
Mof_C 	C 	0.66173	0.63875	0.71719	-0.049
Mof_C 	C 	0.60507	0.6609	0.75556	-0.005
Mof_C 	C 	0.50404	0.6542	0.77192	-0.083
Mof_C 	C 	0.35456	0.62128	0.7692	0.035
Mof_C 	C 	0.34362	0.5921	0.80846	-0.08
Mof_C 	C 	0.24108	0.58736	0.83348	-0.038
Mof_C 	C 	0.15807	0.61282	0.81824	-0.04
Mof_C 	C 	0.16738	0.64303	0.77941	-0.016
Mof_C 	C 	0.26663	0.64576	0.75438	-0.076
Mof_C 	C 	0.69443	0.58663	0.65031	0.289
Mof_C 	C 	0.47081	0.57983	0.68015	0.322
Mof_C 	C 	0.43662	0.56901	0.82615	0.346
Mof_C 	C 	0.22922	0.55579	0.87157	0.285
Mof_C 	C 	0.97649	0.44549	0.65313	-0.047
Mof_C 	C 	0.00604	0.43122	0.6057	-0.006
Mof_C 	C 	0.10643	0.41852	0.58422	-0.053
Mof_C 	C 	0.18699	0.4158	0.60822	0.04
Mof_C 	C 	0.16103	0.43164	0.6527	-0.071
Mof_C 	C 	0.05194	0.44899	0.67633	-0.008
Mof_C 	C 	0.48463	0.38153	0.56861	-0.008
Mof_C 	C 	0.38086	0.41008	0.5854	-0.067
Mof_C 	C 	0.29775	0.3915	0.5874	0.058
Mof_C 	C 	0.3083	0.34653	0.57487	-0.089
Mof_C 	C 	0.40725	0.31765	0.56005	0.004
Mof_C 	C 	0.4972	0.33549	0.55691	-0.052
Mof_C 	C 	0.9206	0.43105	0.58095	0.265
Mof_C 	C 	0.13165	0.40549	0.53341	0.287
Mof_C 	C 	0.376	0.45895	0.59865	0.308
Mof_C 	C 	0.57884	0.40242	0.5583	0.289
Mof_C 	C 	0.2096	0.53984	0.71016	0.089
Mof_C 	C 	0.11818	0.5399	0.74434	-0.135
Mof_C 	C 	0.02314	0.55445	0.73147	0.053
Mof_C 	C 	0.02281	0.57113	0.68445	-0.133
Mof_C 	C 	0.11713	0.56917	0.65597	0.085
Mof_C 	C 	0.92188	0.55615	0.76709	0.055
Mof_C 	C 	0.91543	0.56367	0.81507	-0.125
Mof_C 	C 	0.82108	0.56355	0.84569	0.081
Mof_C 	C 	0.74711	0.54636	0.78822	0.074
Mof_C 	C 	0.83844	0.54672	0.7542	-0.132
Mof_C 	C 	0.08962	0.24865	0.37191	0.042
Mof_C 	C 	0.12705	0.20659	0.39311	-0.076
Mof_C 	C 	0.2347	0.19169	0.38871	-0.026
Mof_C 	C 	0.30048	0.21719	0.36125	-0.05
Mof_C 	C 	0.26597	0.25556	0.3391	-0.004
Mof_C 	C 	0.15824	0.27192	0.3458	-0.083
Mof_C 	C 	0.97584	0.2692	0.37872	0.035
Mof_C 	C 	0.93572	0.30846	0.4079	-0.08
Mof_C 	C 	0.82844	0.33348	0.41264	-0.038
Mof_C 	C 	0.77089	0.31824	0.38718	-0.04
Mof_C 	C 	0.81041	0.27941	0.35697	-0.016
Mof_C 	C 	0.91239	0.25438	0.35424	-0.076
Mof_C 	C 	0.28106	0.15031	0.41337	0.289
Mof_C 	C 	0.05064	0.18015	0.42017	0.323
Mof_C 	C 	0.00563	0.32615	0.43099	0.346
Mof_C 	C 	0.78501	0.37157	0.44421	0.285
Mof_C 	C 	0.42198	0.15313	0.55451	-0.046
Mof_C 	C 	0.43726	0.1057	0.56878	-0.006
Mof_C 	C 	0.52495	0.08422	0.58148	-0.053
Mof_C 	C 	0.60279	0.10822	0.5842	0.04
Mof_C 	C 	0.59267	0.1527	0.56836	-0.071
Mof_C 	C 	0.50093	0.17633	0.55101	-0.009
Mof_C 	C 	0.86616	0.06861	0.61847	-0.007
Mof_C 	C 	0.79094	0.0854	0.58992	-0.068
Mof_C 	C 	0.68925	0.0874	0.6085	0.058
Mof_C 	C 	0.65483	0.07487	0.65347	-0.09
Mof_C 	C 	0.7249	0.06005	0.68235	0.004
Mof_C 	C 	0.83269	0.05691	0.66451	-0.053
Mof_C 	C 	0.35165	0.08095	0.56895	0.265
Mof_C 	C 	0.53714	0.03341	0.59451	0.287
Mof_C 	C 	0.83495	0.09865	0.54105	0.308
Mof_C 	C 	0.98126	0.0583	0.59758	0.287
Mof_C 	C 	0.74944	0.21016	0.46016	0.089
Mof_C 	C 	0.65808	0.24434	0.4601	-0.135
Mof_C 	C 	0.57759	0.23147	0.44555	0.053
Mof_C 	C 	0.59394	0.18445	0.42887	-0.132
Mof_C 	C 	0.6863	0.15597	0.43083	0.085
Mof_C 	C 	0.47803	0.26709	0.44385	0.055
Mof_C 	C 	0.4791	0.31507	0.43633	-0.125
Mof_C 	C 	0.38463	0.34569	0.43645	0.081
Mof_C 	C 	0.29347	0.28822	0.45364	0.074
Mof_C 	C 	0.38516	0.2542	0.45328	-0.132
Mof_C 	C 	0.21018	0.25135	0.12809	0.041
Mof_C 	C 	0.22675	0.29341	0.10689	-0.075
Mof_C 	C 	0.3151	0.30831	0.11129	-0.027
Mof_C 	C 	0.37892	0.28281	0.13875	-0.049
Mof_C 	C 	0.36063	0.24444	0.1609	-0.005
Mof_C 	C 	0.27596	0.22808	0.1542	-0.083
Mof_C 	C 	0.12376	0.2308	0.12128	0.035
Mof_C 	C 	0.15208	0.19154	0.0921	-0.08
Mof_C 	C 	0.07456	0.16652	0.08736	-0.037
Mof_C 	C 	0.97631	0.18176	0.11282	-0.041
Mof_C 	C 	0.94679	0.22059	0.14303	-0.017
Mof_C 	C 	0.02101	0.24562	0.14576	-0.075
Mof_C 	C 	0.34474	0.34969	0.08663	0.289
Mof_C 	C 	0.15096	0.31985	0.07983	0.322
Mof_C 	C 	0.26277	0.17385	0.06901	0.346
Mof_C 	C 	0.10079	0.12843	0.05579	0.284
Mof_C 	C 	0.62962	0.34687	0.94549	-0.046
Mof_C 	C 	0.61174	0.3943	0.93122	-0.006
Mof_C 	C 	0.69065	0.41578	0.91852	-0.053
Mof_C 	C 	0.79521	0.39178	0.9158	0.04
Mof_C 	C 	0.81373	0.3473	0.93164	-0.071
Mof_C 	C 	0.72827	0.32367	0.94899	-0.009
Mof_C 	C 	0.05324	0.43139	0.88153	-0.008
Mof_C 	C 	0.96626	0.4146	0.91008	-0.067
Mof_C 	C 	0.88515	0.4126	0.8915	0.058
Mof_C 	C 	0.88317	0.42513	0.84653	-0.089
Mof_C 	C 	0.9673	0.43995	0.81765	0.003
Mof_C 	C 	0.05411	0.44309	0.83549	-0.052
Mof_C 	C 	0.50155	0.41905	0.93105	0.265
Mof_C 	C 	0.66506	0.46659	0.90549	0.287
Mof_C 	C 	0.97465	0.40135	0.95895	0.307
Mof_C 	C 	0.13714	0.4417	0.90242	0.289
Mof_C 	C 	0.91976	0.28984	0.03984	0.089
Mof_C 	C 	0.86252	0.25566	0.0399	-0.136
Mof_C 	C 	0.75461	0.26853	0.05445	0.053
Mof_C 	C 	0.70726	0.31555	0.07113	-0.132
Mof_C 	C 	0.7731	0.34403	0.06917	0.085
Mof_C 	C 	0.68897	0.23291	0.05615	0.055
Mof_C 	C 	0.7305	0.18493	0.06367	-0.125
Mof_C 	C 	0.66677	0.15431	0.06355	0.081
Mof_C 	C 	0.53533	0.21178	0.04636	0.074
Mof_C 	C 	0.59264	0.2458	0.04672	-0.132
Mof_C 	C 	0.66173	0.12809	0.24865	0.041
Mof_C 	C 	0.66636	0.10689	0.20659	-0.075
Mof_C 	C 	0.57361	0.11129	0.19169	-0.027
Mof_C 	C 	0.48233	0.13875	0.21719	-0.049
Mof_C 	C 	0.47847	0.1609	0.25556	-0.005
Mof_C 	C 	0.56984	0.1542	0.27192	-0.083
Mof_C 	C 	0.75496	0.12128	0.2692	0.035
Mof_C 	C 	0.75582	0.0921	0.30846	-0.08
Mof_C 	C 	0.83808	0.08736	0.33348	-0.038
Mof_C 	C 	0.91087	0.11282	0.31824	-0.04
Mof_C 	C 	0.91018	0.14303	0.27941	-0.016
Mof_C 	C 	0.83323	0.14576	0.25438	-0.076
Mof_C 	C 	0.56863	0.08663	0.15031	0.289
Mof_C 	C 	0.76921	0.07983	0.18015	0.322
Mof_C 	C 	0.66822	0.06901	0.32615	0.346
Mof_C 	C 	0.84342	0.05579	0.37157	0.285
Mof_C 	C 	0.42489	0.94549	0.15313	-0.047
Mof_C 	C 	0.45704	0.93122	0.1057	-0.006
Mof_C 	C 	0.39083	0.91852	0.08422	-0.053
Mof_C 	C 	0.28899	0.9158	0.10822	0.04
Mof_C 	C 	0.25463	0.93164	0.1527	-0.071
Mof_C 	C 	0.32274	0.94899	0.17633	-0.009
Mof_C 	C 	0.06523	0.88153	0.06861	-0.009
Mof_C 	C 	0.12366	0.91008	0.0854	-0.067
Mof_C 	C 	0.22335	0.8915	0.0874	0.058
Mof_C 	C 	0.2703	0.84653	0.07487	-0.089
Mof_C 	C 	0.21505	0.81765	0.06005	0.003
Mof_C 	C 	0.1104	0.83549	0.05691	-0.052
Mof_C 	C 	0.5674	0.93105	0.08095	0.265
Mof_C 	C 	0.42945	0.90549	0.03341	0.287
Mof_C 	C 	0.0664	0.95895	0.09865	0.307
Mof_C 	C 	0.96044	0.90242	0.0583	0.29
Mof_C 	C 	0.0404	0.03984	0.21016	0.091
Mof_C 	C 	0.09758	0.0399	0.24434	-0.136
Mof_C 	C 	0.19094	0.05445	0.23147	0.054
Mof_C 	C 	0.22161	0.07113	0.18445	-0.133
Mof_C 	C 	0.15773	0.06917	0.15597	0.085
Mof_C 	C 	0.25488	0.05615	0.26709	0.055
Mof_C 	C 	0.20583	0.06367	0.31507	-0.124
Mof_C 	C 	0.26968	0.06355	0.34569	0.081
Mof_C 	C 	0.41831	0.04636	0.28822	0.074
Mof_C 	C 	0.36064	0.04672	0.2542	-0.132
Mof_C 	C 	0.53847	0.37191	0.25135	0.041
Mof_C 	C 	0.47984	0.39311	0.29341	-0.075
Mof_C 	C 	0.37659	0.38871	0.30831	-0.027
Mof_C 	C 	0.33827	0.36125	0.28281	-0.049
Mof_C 	C 	0.39493	0.3391	0.24444	-0.005
Mof_C 	C 	0.49596	0.3458	0.22808	-0.083
Mof_C 	C 	0.64544	0.37872	0.2308	0.035
Mof_C 	C 	0.65638	0.4079	0.19154	-0.08
Mof_C 	C 	0.75892	0.41264	0.16652	-0.038
Mof_C 	C 	0.84193	0.38718	0.18176	-0.04
Mof_C 	C 	0.83262	0.35697	0.22059	-0.016
Mof_C 	C 	0.73337	0.35424	0.24562	-0.076
Mof_C 	C 	0.30557	0.41337	0.34969	0.289
Mof_C 	C 	0.52919	0.42017	0.31985	0.322
Mof_C 	C 	0.56338	0.43099	0.17385	0.346
Mof_C 	C 	0.77078	0.44421	0.12843	0.285
Mof_C 	C 	0.02351	0.55451	0.34687	-0.047
Mof_C 	C 	0.99396	0.56878	0.3943	-0.006
Mof_C 	C 	0.89357	0.58148	0.41578	-0.053
Mof_C 	C 	0.81301	0.5842	0.39178	0.04
Mof_C 	C 	0.83897	0.56836	0.3473	-0.071
Mof_C 	C 	0.94806	0.55101	0.32367	-0.008
Mof_C 	C 	0.51537	0.61847	0.43139	-0.008
Mof_C 	C 	0.61914	0.58992	0.4146	-0.067
Mof_C 	C 	0.70225	0.6085	0.4126	0.058
Mof_C 	C 	0.6917	0.65347	0.42513	-0.089
Mof_C 	C 	0.59275	0.68235	0.43995	0.004
Mof_C 	C 	0.5028	0.66451	0.44309	-0.052
Mof_C 	C 	0.0794	0.56895	0.41905	0.265
Mof_C 	C 	0.86835	0.59451	0.46659	0.287
Mof_C 	C 	0.624	0.54105	0.40135	0.308
Mof_C 	C 	0.42116	0.59758	0.4417	0.289
Mof_C 	C 	0.7904	0.46016	0.28984	0.089
Mof_C 	C 	0.88182	0.4601	0.25566	-0.135
Mof_C 	C 	0.97686	0.44555	0.26853	0.053
Mof_C 	C 	0.97719	0.42887	0.31555	-0.133
Mof_C 	C 	0.88287	0.43083	0.34403	0.085
Mof_C 	C 	0.07812	0.44385	0.23291	0.055
Mof_C 	C 	0.08457	0.43633	0.18493	-0.125
Mof_C 	C 	0.17892	0.43645	0.15431	0.081
Mof_C 	C 	0.25289	0.45364	0.21178	0.074
Mof_C 	C 	0.16156	0.45328	0.2458	-0.132
Mof_C 	C 	0.91038	0.75135	0.62809	0.042
Mof_C 	C 	0.87295	0.79341	0.60689	-0.076
Mof_C 	C 	0.7653	0.80831	0.61129	-0.026
Mof_C 	C 	0.69952	0.78281	0.63875	-0.05
Mof_C 	C 	0.73403	0.74444	0.6609	-0.004
Mof_C 	C 	0.84176	0.72808	0.6542	-0.083
Mof_C 	C 	0.02416	0.7308	0.62128	0.035
Mof_C 	C 	0.06428	0.69154	0.5921	-0.08
Mof_C 	C 	0.17156	0.66652	0.58736	-0.038
Mof_C 	C 	0.22911	0.68176	0.61282	-0.04
Mof_C 	C 	0.18959	0.72059	0.64303	-0.016
Mof_C 	C 	0.08761	0.74562	0.64576	-0.076
Mof_C 	C 	0.71894	0.84969	0.58663	0.289
Mof_C 	C 	0.94936	0.81985	0.57983	0.323
Mof_C 	C 	0.99437	0.67385	0.56901	0.346
Mof_C 	C 	0.21499	0.62843	0.55579	0.285
Mof_C 	C 	0.57802	0.84687	0.44549	-0.046
Mof_C 	C 	0.56274	0.8943	0.43122	-0.006
Mof_C 	C 	0.47505	0.91578	0.41852	-0.053
Mof_C 	C 	0.39721	0.89178	0.4158	0.04
Mof_C 	C 	0.40733	0.8473	0.43164	-0.071
Mof_C 	C 	0.49907	0.82367	0.44899	-0.009
Mof_C 	C 	0.13384	0.93139	0.38153	-0.007
Mof_C 	C 	0.20906	0.9146	0.41008	-0.068
Mof_C 	C 	0.31075	0.9126	0.3915	0.058
Mof_C 	C 	0.34517	0.92513	0.34653	-0.09
Mof_C 	C 	0.2751	0.93995	0.31765	0.004
Mof_C 	C 	0.16731	0.94309	0.33549	-0.053
Mof_C 	C 	0.64835	0.91905	0.43105	0.265
Mof_C 	C 	0.46286	0.96659	0.40549	0.287
Mof_C 	C 	0.16505	0.90135	0.45895	0.308
Mof_C 	C 	0.01874	0.9417	0.40242	0.287
Mof_C 	C 	0.25056	0.78984	0.53984	0.089
Mof_C 	C 	0.34192	0.75566	0.5399	-0.135
Mof_C 	C 	0.42241	0.76853	0.55445	0.053
Mof_C 	C 	0.40606	0.81555	0.57113	-0.132
Mof_C 	C 	0.3137	0.84403	0.56917	0.085
Mof_C 	C 	0.52197	0.73291	0.55615	0.055
Mof_C 	C 	0.5209	0.68493	0.56367	-0.125
Mof_C 	C 	0.61537	0.65431	0.56355	0.081
Mof_C 	C 	0.70653	0.71178	0.54636	0.074
Mof_C 	C 	0.61484	0.7458	0.54672	-0.132
Mof_C 	C 	0.78982	0.74865	0.87191	0.041
Mof_C 	C 	0.77325	0.70659	0.89311	-0.075
Mof_C 	C 	0.6849	0.69169	0.88871	-0.027
Mof_C 	C 	0.62108	0.71719	0.86125	-0.049
Mof_C 	C 	0.63937	0.75556	0.8391	-0.005
Mof_C 	C 	0.72404	0.77192	0.8458	-0.083
Mof_C 	C 	0.87624	0.7692	0.87872	0.035
Mof_C 	C 	0.84792	0.80846	0.9079	-0.08
Mof_C 	C 	0.92544	0.83348	0.91264	-0.037
Mof_C 	C 	0.02369	0.81824	0.88718	-0.041
Mof_C 	C 	0.05321	0.77941	0.85697	-0.017
Mof_C 	C 	0.97899	0.75438	0.85424	-0.075
Mof_C 	C 	0.65526	0.65031	0.91337	0.289
Mof_C 	C 	0.84904	0.68015	0.92017	0.322
Mof_C 	C 	0.73723	0.82615	0.93099	0.346
Mof_C 	C 	0.89921	0.87157	0.94421	0.284
Mof_C 	C 	0.37038	0.65313	0.05451	-0.046
Mof_C 	C 	0.38826	0.6057	0.06878	-0.006
Mof_C 	C 	0.30935	0.58422	0.08148	-0.053
Mof_C 	C 	0.20479	0.60822	0.0842	0.04
Mof_C 	C 	0.18627	0.6527	0.06836	-0.071
Mof_C 	C 	0.27173	0.67633	0.05101	-0.009
Mof_C 	C 	0.94676	0.56861	0.11847	-0.008
Mof_C 	C 	0.03374	0.5854	0.08992	-0.067
Mof_C 	C 	0.11485	0.5874	0.1085	0.058
Mof_C 	C 	0.11683	0.57487	0.15347	-0.089
Mof_C 	C 	0.0327	0.56005	0.18235	0.003
Mof_C 	C 	0.94589	0.55691	0.16451	-0.052
Mof_C 	C 	0.49845	0.58095	0.06895	0.265
Mof_C 	C 	0.33494	0.53341	0.09451	0.287
Mof_C 	C 	0.02535	0.59865	0.04105	0.307
Mof_C 	C 	0.86286	0.5583	0.09758	0.289
Mof_C 	C 	0.08024	0.71016	0.96016	0.089
Mof_C 	C 	0.13748	0.74434	0.9601	-0.136
Mof_C 	C 	0.24539	0.73147	0.94555	0.053
Mof_C 	C 	0.29274	0.68445	0.92887	-0.132
Mof_C 	C 	0.2269	0.65597	0.93083	0.085
Mof_C 	C 	0.31103	0.76709	0.94385	0.055
Mof_C 	C 	0.2695	0.81507	0.93633	-0.125
Mof_C 	C 	0.33323	0.84569	0.93645	0.081
Mof_C 	C 	0.46467	0.78822	0.95364	0.074
Mof_C 	C 	0.40736	0.7542	0.95328	-0.132
Mof_N 	N 	0.93301	0.945	0.83118	-0.151
Mof_N 	N 	0.62708	0.94462	0.66682	-0.143
Mof_N 	N 	0.20919	0.555	0.66882	-0.151
Mof_N 	N 	0.73852	0.55538	0.83318	-0.143
Mof_N 	N 	0.76419	0.16882	0.445	-0.151
Mof_N 	N 	0.2939	0.33318	0.44462	-0.143
Mof_N 	N 	0.87801	0.33118	0.055	-0.151
Mof_N 	N 	0.5717	0.16682	0.05538	-0.143
Mof_N 	N 	0.06699	0.055	0.16882	-0.151
Mof_N 	N 	0.37292	0.05538	0.33318	-0.143
Mof_N 	N 	0.79081	0.445	0.33118	-0.151
Mof_N 	N 	0.26148	0.44462	0.16682	-0.143
Mof_N 	N 	0.23581	0.83118	0.555	-0.151
Mof_N 	N 	0.7061	0.66682	0.55538	-0.143
Mof_N 	N 	0.12199	0.66882	0.945	-0.151
Mof_N 	N 	0.4283	0.83318	0.94462	-0.143
Mof_O 	O 	0.18903	0.95981	0.80473	-0.284
Mof_O 	O 	0.18382	0.90161	0.85375	-0.29
Mof_O 	O 	0.36454	0.95035	0.86257	-0.216
Mof_O 	O 	0.50377	0.89817	0.86949	-0.277
Mof_O 	O 	0.34947	0.9606	0.69626	-0.298
Mof_O 	O 	0.39177	0.91366	0.6368	-0.279
Mof_O 	O 	0.18907	0.98176	0.6283	-0.182
Mof_O 	O 	0.12194	0.93486	0.59566	-0.245
Mof_O 	O 	0.61725	0.07358	0.99552	-0.233
Mof_O 	O 	0.48647	0.12586	0.9778	-0.242
Mof_O 	O 	0.41696	0.0407	0.95198	-0.173
Mof_O 	O 	0.35703	0.09758	0.90776	-0.176
Mof_O 	O 	0.02135	0.03296	0.87674	-0.256
Mof_O 	O 	0.88737	0.00926	0.9182	-0.231
Mof_O 	O 	0.11163	0.11852	0.92402	-0.184
Mof_O 	O 	0.05116	0.06525	0.96763	-0.187
Mof_O 	O 	0.45357	0.54019	0.69527	-0.284
Mof_O 	O 	0.43918	0.59839	0.64625	-0.29
Mof_O 	O 	0.67746	0.54965	0.63743	-0.216
Mof_O 	O 	0.77143	0.60183	0.63051	-0.277
Mof_O 	O 	0.50633	0.5394	0.80374	-0.297
Mof_O 	O 	0.44223	0.58634	0.8632	-0.279
Mof_O 	O 	0.29913	0.51824	0.8717	-0.182
Mof_O 	O 	0.15246	0.56514	0.90434	-0.245
Mof_O 	O 	0.18635	0.42642	0.50448	-0.233
Mof_O 	O 	0.09013	0.37414	0.5222	-0.241
Mof_O 	O 	0.90964	0.4593	0.54802	-0.172
Mof_O 	O 	0.86237	0.40242	0.59224	-0.176
Mof_O 	O 	0.43105	0.46704	0.62326	-0.257
Mof_O 	O 	0.31483	0.49074	0.5818	-0.231
Mof_O 	O 	0.65417	0.38148	0.57598	-0.184
Mof_O 	O 	0.58404	0.43475	0.53237	-0.187
Mof_O 	O 	0.99376	0.19527	0.45981	-0.284
Mof_O 	O 	0.03757	0.14625	0.40161	-0.29
Mof_O 	O 	0.22711	0.13743	0.45035	-0.216
Mof_O 	O 	0.37326	0.13051	0.39817	-0.277
Mof_O 	O 	0.04573	0.30374	0.4606	-0.297
Mof_O 	O 	0.02857	0.3632	0.41366	-0.279
Mof_O 	O 	0.81737	0.3717	0.48176	-0.182
Mof_O 	O 	0.7176	0.40434	0.43486	-0.245
Mof_O 	O 	0.61277	0.00448	0.57358	-0.233
Mof_O 	O 	0.46427	0.0222	0.62586	-0.242
Mof_O 	O 	0.36894	0.04802	0.5407	-0.172
Mof_O 	O 	0.26479	0.09224	0.59758	-0.176
Mof_O 	O 	0.89809	0.12326	0.53296	-0.258
Mof_O 	O 	0.80557	0.0818	0.50926	-0.231
Mof_O 	O 	0.03565	0.07598	0.61852	-0.182
Mof_O 	O 	0.01879	0.03237	0.56525	-0.186
Mof_O 	O 	0.14884	0.30473	0.04019	-0.283
Mof_O 	O 	0.08543	0.35375	0.09839	-0.29
Mof_O 	O 	0.31489	0.36257	0.04965	-0.216
Mof_O 	O 	0.40194	0.36949	0.10183	-0.277
Mof_O 	O 	0.31007	0.19626	0.0394	-0.298
Mof_O 	O 	0.30543	0.1368	0.08634	-0.279
Mof_O 	O 	0.17083	0.1283	0.01824	-0.182
Mof_O 	O 	0.0568	0.09566	0.06514	-0.245
Mof_O 	O 	0.69083	0.49552	0.92642	-0.233
Mof_O 	O 	0.61233	0.4778	0.87414	-0.242
Mof_O 	O 	0.45766	0.45198	0.9593	-0.172
Mof_O 	O 	0.45461	0.40776	0.90242	-0.176
Mof_O 	O 	0.05431	0.37674	0.96704	-0.257
Mof_O 	O 	0.89663	0.4182	0.99074	-0.231
Mof_O 	O 	0.23015	0.42402	0.88148	-0.184
Mof_O 	O 	0.11641	0.46763	0.93475	-0.187
Mof_O 	O 	0.81097	0.04019	0.19527	-0.284
Mof_O 	O 	0.81618	0.09839	0.14625	-0.29
Mof_O 	O 	0.63546	0.04965	0.13743	-0.216
Mof_O 	O 	0.49623	0.10183	0.13051	-0.277
Mof_O 	O 	0.65053	0.0394	0.30374	-0.298
Mof_O 	O 	0.60823	0.08634	0.3632	-0.279
Mof_O 	O 	0.81093	0.01824	0.3717	-0.182
Mof_O 	O 	0.87806	0.06514	0.40434	-0.245
Mof_O 	O 	0.38275	0.92642	0.00448	-0.233
Mof_O 	O 	0.51353	0.87414	0.0222	-0.242
Mof_O 	O 	0.58304	0.9593	0.04802	-0.173
Mof_O 	O 	0.64297	0.90242	0.09224	-0.176
Mof_O 	O 	0.97865	0.96704	0.12326	-0.256
Mof_O 	O 	0.11263	0.99074	0.0818	-0.231
Mof_O 	O 	0.88837	0.88148	0.07598	-0.184
Mof_O 	O 	0.94884	0.93475	0.03237	-0.187
Mof_O 	O 	0.54643	0.45981	0.30473	-0.284
Mof_O 	O 	0.56082	0.40161	0.35375	-0.29
Mof_O 	O 	0.32254	0.45035	0.36257	-0.216
Mof_O 	O 	0.22857	0.39817	0.36949	-0.277
Mof_O 	O 	0.49367	0.4606	0.19626	-0.297
Mof_O 	O 	0.55777	0.41366	0.1368	-0.279
Mof_O 	O 	0.70087	0.48176	0.1283	-0.182
Mof_O 	O 	0.84754	0.43486	0.09566	-0.245
Mof_O 	O 	0.81365	0.57358	0.49552	-0.233
Mof_O 	O 	0.90987	0.62586	0.4778	-0.241
Mof_O 	O 	0.09036	0.5407	0.45198	-0.172
Mof_O 	O 	0.13763	0.59758	0.40776	-0.176
Mof_O 	O 	0.56895	0.53296	0.37674	-0.257
Mof_O 	O 	0.68517	0.50926	0.4182	-0.231
Mof_O 	O 	0.34583	0.61852	0.42402	-0.184
Mof_O 	O 	0.41596	0.56525	0.46763	-0.187
Mof_O 	O 	0.00624	0.80473	0.54019	-0.284
Mof_O 	O 	0.96243	0.85375	0.59839	-0.29
Mof_O 	O 	0.77289	0.86257	0.54965	-0.216
Mof_O 	O 	0.62674	0.86949	0.60183	-0.277
Mof_O 	O 	0.95427	0.69626	0.5394	-0.297
Mof_O 	O 	0.97143	0.6368	0.58634	-0.279
Mof_O 	O 	0.18263	0.6283	0.51824	-0.182
Mof_O 	O 	0.2824	0.59566	0.56514	-0.245
Mof_O 	O 	0.38723	0.99552	0.42642	-0.233
Mof_O 	O 	0.53573	0.9778	0.37414	-0.242
Mof_O 	O 	0.63106	0.95198	0.4593	-0.172
Mof_O 	O 	0.73521	0.90776	0.40242	-0.176
Mof_O 	O 	0.10191	0.87674	0.46704	-0.258
Mof_O 	O 	0.19443	0.9182	0.49074	-0.231
Mof_O 	O 	0.96435	0.92402	0.38148	-0.182
Mof_O 	O 	0.98121	0.96763	0.43475	-0.186
Mof_O 	O 	0.85116	0.69527	0.95981	-0.283
Mof_O 	O 	0.91457	0.64625	0.90161	-0.29
Mof_O 	O 	0.68511	0.63743	0.95035	-0.216
Mof_O 	O 	0.59806	0.63051	0.89817	-0.277
Mof_O 	O 	0.68993	0.80374	0.9606	-0.298
Mof_O 	O 	0.69457	0.8632	0.91366	-0.279
Mof_O 	O 	0.82917	0.8717	0.98176	-0.182
Mof_O 	O 	0.9432	0.90434	0.93486	-0.245
Mof_O 	O 	0.30917	0.50448	0.07358	-0.233
Mof_O 	O 	0.38767	0.5222	0.12586	-0.242
Mof_O 	O 	0.54234	0.54802	0.0407	-0.172
Mof_O 	O 	0.54539	0.59224	0.09758	-0.176
Mof_O 	O 	0.94569	0.62326	0.03296	-0.257
Mof_O 	O 	0.10337	0.5818	0.00926	-0.231
Mof_O 	O 	0.76985	0.57598	0.11852	-0.184
Mof_O 	O 	0.88359	0.53237	0.06525	-0.187
_end
