# CIF file generated by openbabel 3.1.0, see https://openbabel.org
data_I
_chemical_name_common 'image0'
_cell_length_a 27.5185
_cell_length_b 10.4247
_cell_length_c 14.8656
_cell_angle_alpha 90
_cell_angle_beta 117.541
_cell_angle_gamma 90
_space_group_name_H-M_alt 'P 1'
_space_group_name_Hall 'P 1'
loop_
    _symmetry_equiv_pos_as_xyz
    x,y,z
loop_
    _atom_site_label
    _atom_site_type_symbol
    _atom_site_fract_x
    _atom_site_fract_y
    _atom_site_fract_z
    _atom_site_occupancy
    Zn1      Zn       0.29130    0.36024    0.03377    1.000
    O1       O        0.16737    0.25020    0.02130    1.000
    C1       C        0.15585    0.43410    0.10480    1.000
    O2       O        0.23291    0.39990    0.07940    1.000
    C2       C        0.37680    0.84860    0.14750    1.000
    H1       H        0.37180    0.84380    0.20780    1.000
    H2       H        0.35630    0.92230    0.10860    1.000
    N1       N        0.35260    0.73250    0.08640    1.000
    N2       N        0.01258    0.53500    0.03750    1.000
    C3       C        0.09873    0.43650    0.05310    1.000
    H3       H        0.07980    0.38290    0.99770    1.000
    N3       N        0.32220    0.53590    0.04420    1.000
    C4       C        0.07029    0.52030    0.08530    1.000
    C5       C        0.18804    0.35300    0.06510    1.000
    C6       C        0.32720    0.59100    0.96280    1.000
    H4       H        0.31860    0.55310    0.90060    1.000
    C7       C        0.34740    0.71170    0.99390    1.000
    H5       H        0.35620    0.77020    0.95640    1.000
    C8       C        0.33500    0.60400    0.21350    1.000
    H6       H        0.29810    0.58520    0.20000    1.000
    H7       H        0.34730    0.68060    0.25380    1.000
    H8       H        0.35850    0.53380    0.24980    1.000
    C9       C        0.33700    0.62380    0.11390    1.000
    C10      C        0.43550    0.87200    0.17980    1.000
    H9       H        0.44570    0.95390    0.21470    1.000
    H10      H        0.44090    0.87830    0.11990    1.000
    C11      C        0.18416    0.50820    0.19060    1.000
    H11      H        0.22220    0.50350    0.22590    1.000
    C12      C        0.15598    0.59010    0.22450    1.000
    C13      C        0.09917    0.59780    0.17050    1.000
    H12      H        0.08030    0.65470    0.19120    1.000
    C14      C        0.18718    0.66460    0.32150    1.000
    O3       O        0.16589    0.76530    0.33190    1.000
    O4       O        0.23153    0.61610    0.38450    1.000
    C15      C        0.47450    0.76630    0.25100    1.000
    H13      H        0.48060    0.78110    0.31980    1.000
    H14      H        0.45730    0.68290    0.22960    1.000
    Zn2      Zn       0.79130    0.86024    0.03377    1.000
    O5       O        0.66737    0.75020    0.02130    1.000
    C16      C        0.65585    0.93410    0.10480    1.000
    O6       O        0.73291    0.89990    0.07940    1.000
    C17      C        0.87680    0.34860    0.14750    1.000
    H15      H        0.87180    0.34380    0.20780    1.000
    H16      H        0.85630    0.42230    0.10860    1.000
    N4       N        0.85260    0.23250    0.08640    1.000
    N5       N        0.51258    0.03500    0.03750    1.000
    C18      C        0.59873    0.93650    0.05310    1.000
    H17      H        0.57980    0.88290    0.99770    1.000
    N6       N        0.82220    0.03590    0.04420    1.000
    C19      C        0.57029    0.02030    0.08530    1.000
    C20      C        0.68804    0.85300    0.06510    1.000
    C21      C        0.82720    0.09100    0.96280    1.000
    H18      H        0.81860    0.05310    0.90060    1.000
    C22      C        0.84740    0.21170    0.99390    1.000
    H19      H        0.85620    0.27020    0.95640    1.000
    C23      C        0.83500    0.10400    0.21350    1.000
    H20      H        0.79810    0.08520    0.20000    1.000
    H21      H        0.84730    0.18060    0.25380    1.000
    H22      H        0.85850    0.03380    0.24980    1.000
    C24      C        0.83700    0.12380    0.11390    1.000
    C25      C        0.93550    0.37200    0.17980    1.000
    H23      H        0.94570    0.45390    0.21470    1.000
    H24      H        0.94090    0.37830    0.11990    1.000
    C26      C        0.68416    0.00820    0.19060    1.000
    H25      H        0.72220    0.00350    0.22590    1.000
    C27      C        0.65598    0.09010    0.22450    1.000
    C28      C        0.59917    0.09780    0.17050    1.000
    H26      H        0.58030    0.15470    0.19120    1.000
    C29      C        0.68718    0.16460    0.32150    1.000
    O7       O        0.66589    0.26530    0.33190    1.000
    O8       O        0.73153    0.11610    0.38450    1.000
    C30      C        0.97450    0.26630    0.25100    1.000
    H27      H        0.98060    0.28110    0.31980    1.000
    H28      H        0.95730    0.18290    0.22960    1.000
    Zn3      Zn       0.70870    0.36024    0.46623    1.000
    O9       O        0.83263    0.25020    0.47870    1.000
    C31      C        0.84415    0.43410    0.39520    1.000
    O10      O        0.76709    0.39990    0.42060    1.000
    C32      C        0.62320    0.84860    0.35250    1.000
    H29      H        0.62820    0.84380    0.29220    1.000
    H30      H        0.64370    0.92230    0.39140    1.000
    N7       N        0.64740    0.73250    0.41360    1.000
    N8       N        0.98742    0.53500    0.46250    1.000
    C33      C        0.90127    0.43650    0.44690    1.000
    H31      H        0.92020    0.38290    0.50230    1.000
    N9       N        0.67780    0.53590    0.45580    1.000
    C34      C        0.92971    0.52030    0.41470    1.000
    C35      C        0.81196    0.35300    0.43490    1.000
    C36      C        0.67280    0.59100    0.53720    1.000
    H32      H        0.68140    0.55310    0.59940    1.000
    C37      C        0.65260    0.71170    0.50610    1.000
    H33      H        0.64380    0.77020    0.54360    1.000
    C38      C        0.66500    0.60400    0.28650    1.000
    H34      H        0.70190    0.58520    0.30000    1.000
    H35      H        0.65270    0.68060    0.24620    1.000
    H36      H        0.64150    0.53380    0.25020    1.000
    C39      C        0.66300    0.62380    0.38610    1.000
    C40      C        0.56450    0.87200    0.32020    1.000
    H37      H        0.55430    0.95390    0.28530    1.000
    H38      H        0.55910    0.87830    0.38010    1.000
    C41      C        0.81584    0.50820    0.30940    1.000
    H39      H        0.77780    0.50350    0.27410    1.000
    C42      C        0.84402    0.59010    0.27550    1.000
    C43      C        0.90083    0.59780    0.32950    1.000
    H40      H        0.91970    0.65470    0.30880    1.000
    C44      C        0.81282    0.66460    0.17850    1.000
    O11      O        0.83411    0.76530    0.16810    1.000
    O12      O        0.76847    0.61610    0.11550    1.000
    C45      C        0.52550    0.76630    0.24900    1.000
    H41      H        0.51940    0.78110    0.18020    1.000
    H42      H        0.54270    0.68290    0.27040    1.000
    Zn4      Zn       0.20870    0.86024    0.46623    1.000
    O13      O        0.33263    0.75020    0.47870    1.000
    C46      C        0.34415    0.93410    0.39520    1.000
    O14      O        0.26709    0.89990    0.42060    1.000
    C47      C        0.12320    0.34860    0.35250    1.000
    H43      H        0.12820    0.34380    0.29220    1.000
    H44      H        0.14370    0.42230    0.39140    1.000
    N10      N        0.14740    0.23250    0.41360    1.000
    N11      N        0.48742    0.03500    0.46250    1.000
    C48      C        0.40127    0.93650    0.44690    1.000
    H45      H        0.42020    0.88290    0.50230    1.000
    N12      N        0.17780    0.03590    0.45580    1.000
    C49      C        0.42971    0.02030    0.41470    1.000
    C50      C        0.31196    0.85300    0.43490    1.000
    C51      C        0.17280    0.09100    0.53720    1.000
    H46      H        0.18140    0.05310    0.59940    1.000
    C52      C        0.15260    0.21170    0.50610    1.000
    H47      H        0.14380    0.27020    0.54360    1.000
    C53      C        0.16500    0.10400    0.28650    1.000
    H48      H        0.20190    0.08520    0.30000    1.000
    H49      H        0.15270    0.18060    0.24620    1.000
    H50      H        0.14150    0.03380    0.25020    1.000
    C54      C        0.16300    0.12380    0.38610    1.000
    C55      C        0.06450    0.37200    0.32020    1.000
    H51      H        0.05430    0.45390    0.28530    1.000
    H52      H        0.05910    0.37830    0.38010    1.000
    C56      C        0.31584    0.00820    0.30940    1.000
    H53      H        0.27780    0.00350    0.27410    1.000
    C57      C        0.34402    0.09010    0.27550    1.000
    C58      C        0.40083    0.09780    0.32950    1.000
    H54      H        0.41970    0.15470    0.30880    1.000
    C59      C        0.31282    0.16460    0.17850    1.000
    O15      O        0.33411    0.26530    0.16810    1.000
    O16      O        0.26847    0.11610    0.11550    1.000
    C60      C        0.02550    0.26630    0.24900    1.000
    H55      H        0.01940    0.28110    0.18020    1.000
    H56      H        0.04270    0.18290    0.27040    1.000
    Zn5      Zn       0.70870    0.63976    0.96623    1.000
    O17      O        0.83263    0.74980    0.97870    1.000
    C61      C        0.84415    0.56590    0.89520    1.000
    O18      O        0.76709    0.60010    0.92060    1.000
    C62      C        0.62320    0.15140    0.85250    1.000
    H57      H        0.62820    0.15620    0.79220    1.000
    H58      H        0.64370    0.07770    0.89140    1.000
    N13      N        0.64740    0.26750    0.91360    1.000
    N14      N        0.98742    0.46500    0.96250    1.000
    C63      C        0.90127    0.56350    0.94690    1.000
    H59      H        0.92020    0.61710    0.00230    1.000
    N15      N        0.67780    0.46410    0.95580    1.000
    C64      C        0.92971    0.47970    0.91470    1.000
    C65      C        0.81196    0.64700    0.93490    1.000
    C66      C        0.67280    0.40900    0.03720    1.000
    H60      H        0.68140    0.44690    0.09940    1.000
    C67      C        0.65260    0.28830    0.00610    1.000
    H61      H        0.64380    0.22980    0.04360    1.000
    C68      C        0.66500    0.39600    0.78650    1.000
    H62      H        0.70190    0.41480    0.80000    1.000
    H63      H        0.65270    0.31940    0.74620    1.000
    H64      H        0.64150    0.46620    0.75020    1.000
    C69      C        0.66300    0.37620    0.88610    1.000
    C70      C        0.56450    0.12800    0.82020    1.000
    H65      H        0.55430    0.04610    0.78530    1.000
    H66      H        0.55910    0.12170    0.88010    1.000
    C71      C        0.81584    0.49180    0.80940    1.000
    H67      H        0.77780    0.49650    0.77410    1.000
    C72      C        0.84402    0.40990    0.77550    1.000
    C73      C        0.90083    0.40220    0.82950    1.000
    H68      H        0.91970    0.34530    0.80880    1.000
    C74      C        0.81282    0.33540    0.67850    1.000
    O19      O        0.83411    0.23470    0.66810    1.000
    O20      O        0.76847    0.38390    0.61550    1.000
    C75      C        0.52550    0.23370    0.74900    1.000
    H69      H        0.51940    0.21890    0.68020    1.000
    H70      H        0.54270    0.31710    0.77040    1.000
    Zn6      Zn       0.20870    0.13976    0.96623    1.000
    O21      O        0.33263    0.24980    0.97870    1.000
    C76      C        0.34415    0.06590    0.89520    1.000
    O22      O        0.26709    0.10010    0.92060    1.000
    C77      C        0.12320    0.65140    0.85250    1.000
    H71      H        0.12820    0.65620    0.79220    1.000
    H72      H        0.14370    0.57770    0.89140    1.000
    N16      N        0.14740    0.76750    0.91360    1.000
    N17      N        0.48742    0.96500    0.96250    1.000
    C78      C        0.40127    0.06350    0.94690    1.000
    H73      H        0.42020    0.11710    0.00230    1.000
    N18      N        0.17780    0.96410    0.95580    1.000
    C79      C        0.42971    0.97970    0.91470    1.000
    C80      C        0.31196    0.14700    0.93490    1.000
    C81      C        0.17280    0.90900    0.03720    1.000
    H74      H        0.18140    0.94690    0.09940    1.000
    C82      C        0.15260    0.78830    0.00610    1.000
    H75      H        0.14380    0.72980    0.04360    1.000
    C83      C        0.16500    0.89600    0.78650    1.000
    H76      H        0.20190    0.91480    0.80000    1.000
    H77      H        0.15270    0.81940    0.74620    1.000
    H78      H        0.14150    0.96620    0.75020    1.000
    C84      C        0.16300    0.87620    0.88610    1.000
    C85      C        0.06450    0.62800    0.82020    1.000
    H79      H        0.05430    0.54610    0.78530    1.000
    H80      H        0.05910    0.62170    0.88010    1.000
    C86      C        0.31584    0.99180    0.80940    1.000
    H81      H        0.27780    0.99650    0.77410    1.000
    C87      C        0.34402    0.90990    0.77550    1.000
    C88      C        0.40083    0.90220    0.82950    1.000
    H82      H        0.41970    0.84530    0.80880    1.000
    C89      C        0.31282    0.83540    0.67850    1.000
    O23      O        0.33411    0.73470    0.66810    1.000
    O24      O        0.26847    0.88390    0.61550    1.000
    C90      C        0.02550    0.73370    0.74900    1.000
    H83      H        0.01940    0.71890    0.68020    1.000
    H84      H        0.04270    0.81710    0.77040    1.000
    Zn7      Zn       0.29130    0.63976    0.53377    1.000
    O25      O        0.16737    0.74980    0.52130    1.000
    C91      C        0.15585    0.56590    0.60480    1.000
    O26      O        0.23291    0.60010    0.57940    1.000
    C92      C        0.37680    0.15140    0.64750    1.000
    H85      H        0.37180    0.15620    0.70780    1.000
    H86      H        0.35630    0.07770    0.60860    1.000
    N19      N        0.35260    0.26750    0.58640    1.000
    N20      N        0.01258    0.46500    0.53750    1.000
    C93      C        0.09873    0.56350    0.55310    1.000
    H87      H        0.07980    0.61710    0.49770    1.000
    N21      N        0.32220    0.46410    0.54420    1.000
    C94      C        0.07029    0.47970    0.58530    1.000
    C95      C        0.18804    0.64700    0.56510    1.000
    C96      C        0.32720    0.40900    0.46280    1.000
    H88      H        0.31860    0.44690    0.40060    1.000
    C97      C        0.34740    0.28830    0.49390    1.000
    H89      H        0.35620    0.22980    0.45640    1.000
    C98      C        0.33500    0.39600    0.71350    1.000
    H90      H        0.29810    0.41480    0.70000    1.000
    H91      H        0.34730    0.31940    0.75380    1.000
    H92      H        0.35850    0.46620    0.74980    1.000
    C99      C        0.33700    0.37620    0.61390    1.000
    C100     C        0.43550    0.12800    0.67980    1.000
    H93      H        0.44570    0.04610    0.71470    1.000
    H94      H        0.44090    0.12170    0.61990    1.000
    C101     C        0.18416    0.49180    0.69060    1.000
    H95      H        0.22220    0.49650    0.72590    1.000
    C102     C        0.15598    0.40990    0.72450    1.000
    C103     C        0.09917    0.40220    0.67050    1.000
    H96      H        0.08030    0.34530    0.69120    1.000
    C104     C        0.18718    0.33540    0.82150    1.000
    O27      O        0.16589    0.23470    0.83190    1.000
    O28      O        0.23153    0.38390    0.88450    1.000
    C105     C        0.47450    0.23370    0.75100    1.000
    H97      H        0.48060    0.21890    0.81980    1.000
    H98      H        0.45730    0.31710    0.72960    1.000
    Zn8      Zn       0.79130    0.13976    0.53377    1.000
    O29      O        0.66737    0.24980    0.52130    1.000
    C106     C        0.65585    0.06590    0.60480    1.000
    O30      O        0.73291    0.10010    0.57940    1.000
    C107     C        0.87680    0.65140    0.64750    1.000
    H99      H        0.87180    0.65620    0.70780    1.000
    H100     H        0.85630    0.57770    0.60860    1.000
    N22      N        0.85260    0.76750    0.58640    1.000
    N23      N        0.51258    0.96500    0.53750    1.000
    C108     C        0.59873    0.06350    0.55310    1.000
    H101     H        0.57980    0.11710    0.49770    1.000
    N24      N        0.82220    0.96410    0.54420    1.000
    C109     C        0.57029    0.97970    0.58530    1.000
    C110     C        0.68804    0.14700    0.56510    1.000
    C111     C        0.82720    0.90900    0.46280    1.000
    H102     H        0.81860    0.94690    0.40060    1.000
    C112     C        0.84740    0.78830    0.49390    1.000
    H103     H        0.85620    0.72980    0.45640    1.000
    C113     C        0.83500    0.89600    0.71350    1.000
    H104     H        0.79810    0.91480    0.70000    1.000
    H105     H        0.84730    0.81940    0.75380    1.000
    H106     H        0.85850    0.96620    0.74980    1.000
    C114     C        0.83700    0.87620    0.61390    1.000
    C115     C        0.93550    0.62800    0.67980    1.000
    H107     H        0.94570    0.54610    0.71470    1.000
    H108     H        0.94090    0.62170    0.61990    1.000
    C116     C        0.68416    0.99180    0.69060    1.000
    H109     H        0.72220    0.99650    0.72590    1.000
    C117     C        0.65598    0.90990    0.72450    1.000
    C118     C        0.59917    0.90220    0.67050    1.000
    H110     H        0.58030    0.84530    0.69120    1.000
    C119     C        0.68718    0.83540    0.82150    1.000
    O31      O        0.66589    0.73470    0.83190    1.000
    O32      O        0.73153    0.88390    0.88450    1.000
    C120     C        0.97450    0.73370    0.75100    1.000
    H111     H        0.98060    0.71890    0.81980    1.000
    H112     H        0.95730    0.81710    0.72960    1.000
