data_functionalizedCrystal
_audit_creation_method	'EQeq! by Chris Wilmer'
_symmetry_space_group_name_H-M	'P1'
_symmetry_Int_Tables_number	1
_symmetry_cell_setting	triclinic
loop_
_symmetry_equiv_pos_as_xyz
  x,y,z
_cell_length_a	8.2
_cell_length_b	8.2
_cell_length_c	18.606
_cell_angle_alpha	90
_cell_angle_beta	90
_cell_angle_gamma	120
loop_
_atom_site_label
_atom_site_type_symbol
_atom_site_fract_x
_atom_site_fract_y
_atom_site_fract_z
_atom_site_charge
Mof_S 	S 	0.3478	0.1684	0.4284	-0.189
Mof_C 	C 	0.331	0.3272	0.3793	0.086
Mof_N 	N 	0.3259	0.4388	0.3437	-0.291
Mof_S 	S 	0.8316	0.1794	0.4284	-0.128
Mof_C 	C 	0.6728	0.0038	0.3793	0.041
Mof_N 	N 	0.5612	0.8871	0.3437	-0.252
Mof_S 	S 	0.8206	0.6522	0.4284	-0.139
Mof_C 	C 	0.9962	0.669	0.3793	0.148
Mof_N 	N 	0.1129	0.6741	0.3437	-0.319
Mof_S 	S 	0.6522	0.8316	0.9284	-0.094
Mof_C 	C 	0.669	0.6728	0.8793	0.095
Mof_N 	N 	0.6741	0.5612	0.8437	-0.28
Mof_S 	S 	0.1684	0.8206	0.9284	-0.149
Mof_C 	C 	0.3272	0.9962	0.8793	0.141
Mof_N 	N 	0.4388	0.1129	0.8437	-0.32
Mof_S 	S 	0.1794	0.3478	0.9284	-0.141
Mof_C 	C 	0.0038	0.331	0.8793	0.033
Mof_N 	N 	0.8871	0.3259	0.8437	-0.251
Mof_S 	S 	0.6522	0.8316	0.5716	-0.118
Mof_C 	C 	0.669	0.6728	0.6207	0.094
Mof_N 	N 	0.6741	0.5612	0.6563	-0.282
Mof_S 	S 	0.1684	0.8206	0.5716	-0.174
Mof_C 	C 	0.3272	0.9962	0.6207	0.141
Mof_N 	N 	0.4388	0.1129	0.6563	-0.322
Mof_S 	S 	0.1794	0.3478	0.5716	-0.166
Mof_C 	C 	0.0038	0.331	0.6207	0.032
Mof_N 	N 	0.8871	0.3259	0.6563	-0.253
Mof_S 	S 	0.3478	0.1684	0.0716	-0.198
Mof_C 	C 	0.331	0.3272	0.1207	0.085
Mof_N 	N 	0.3259	0.4388	0.1563	-0.293
Mof_S 	S 	0.8316	0.1794	0.0716	-0.138
Mof_C 	C 	0.6728	0.0038	0.1207	0.041
Mof_N 	N 	0.5612	0.8871	0.1563	-0.253
Mof_S 	S 	0.8206	0.6522	0.0716	-0.149
Mof_C 	C 	0.9962	0.669	0.1207	0.147
Mof_N 	N 	0.1129	0.6741	0.1563	-0.32
Mof_Bi	Bi	1.16495e-32	0	0.5	0.487
Mof_Bi	Bi	-0	0	-0	0.438
Mof_Nd	Nd	0.33333	0.66667	0.25	1.602
Mof_Nd	Nd	0.66667	0.33333	0.75	1.608
_end
