data_functionalizedCrystal
_audit_creation_method	'EQeq! by Chris Wilmer'
_symmetry_space_group_name_H-M	'P1'
_symmetry_Int_Tables_number	1
_symmetry_cell_setting	triclinic
loop_
_symmetry_equiv_pos_as_xyz
  x,y,z
_cell_length_a	41.587
_cell_length_b	17.465
_cell_length_c	17.9499
_cell_angle_alpha	90
_cell_angle_beta	90
_cell_angle_gamma	90
loop_
_atom_site_label
_atom_site_type_symbol
_atom_site_fract_x
_atom_site_fract_y
_atom_site_fract_z
_atom_site_charge
Mof_C 	C 	0.19142	0.4849	0.1172	0.328
Mof_C 	C 	0.16475	0.4838	0.1738	-0.105
Mof_C 	C 	0.1554	0.4177	0.2085	0.034
Mof_H 	H 	0.1662	0.3723	0.1981	0.04
Mof_C 	C 	0.12995	0.417	0.2592	-0.115
Mof_H 	H 	0.1242	0.3719	0.2832	0.068
Mof_C 	C 	0.11332	0.484	0.2734	0.057
Mof_C 	C 	0.12292	0.5504	0.238	-0.118
Mof_H 	H 	0.1122	0.596	0.2482	0.066
Mof_C 	C 	0.14784	0.5503	0.1882	0.039
Mof_H 	H 	0.1534	0.5954	0.1639	0.031
Mof_C 	C 	0.08476	0.4836	0.3245	-0.005
Mof_C 	C 	0.03034	0.4894	0.4178	0.071
Mof_C 	C 	0.0838	0.4422	0.3906	-0.025
Mof_H 	H 	0.1017	0.4137	0.4051	0.03
Mof_C 	C 	0.05632	0.4427	0.4358	-0.054
Mof_H 	H 	0.0554	0.4118	0.4779	0.043
Mof_C 	C 	0.0305	0.5297	0.3509	-0.055
Mof_H 	H 	0.0125	0.5575	0.3364	0.038
Mof_C 	C 	0.05762	0.5281	0.3061	-0.031
Mof_H 	H 	0.0579	0.5571	0.2626	0.037
Mof_C 	C 	0.339	0.3854	0.941	-0.004
Mof_H 	H 	0.3313	0.4235	0.9096	0.043
Mof_C 	C 	0.3685	0.3516	0.9249	-0.051
Mof_H 	H 	0.3798	0.3655	0.8823	0.04
Mof_C 	C 	0.3648	0.2793	0.038	-0.053
Mof_H 	H 	0.3743	0.2453	0.0713	0.041
Mof_C 	C 	0.33482	0.3114	0.0543	-0.021
Mof_H 	H 	0.3242	0.2987	0.0981	0.048
Mof_C 	C 	0.4159	0.2312	0.8815	-0.071
Mof_H 	H 	0.3991	0.2313	0.8474	0.05
Mof_C 	C 	0.44527	0.1969	0.863	-0.011
Mof_H 	H 	0.4489	0.1811	0.8142	0.031
Mof_C 	C 	0.46455	0.2211	0.9877	0.016
Mof_H 	H 	0.4806	0.2179	0.0238	0.015
Mof_C 	C 	0.43623	0.2607	0.0047	-0.103
Mof_H 	H 	0.4341	0.2862	0.05	0.057
Mof_C 	C 	0.5368	0.9928	0.7901	-0.237
Mof_H 	H 	0.5214	0.9971	0.7527	0.096
Mof_C 	C 	0.5646	0.9513	0.7738	0.168
Mof_H 	H 	0.568	0.9311	0.7265	-0.043
Mof_C 	C 	0.58593	0.9851	0.8952	-0.03
Mof_H 	H 	0.6035	0.9888	0.9272	0.031
Mof_C 	C 	0.55683	0.0233	0.9092	-0.061
Mof_H 	H 	0.5545	0.0472	0.9552	0.051
Mof_C 	C 	0.64485	0.9053	0.8575	-0.038
Mof_H 	H 	0.645	0.9403	0.8965	0.038
Mof_C 	C 	0.67284	0.8607	0.8425	-0.024
Mof_H 	H 	0.6914	0.8659	0.871	0.047
Mof_C 	C 	0.64863	0.8159	0.7281	0.013
Mof_H 	H 	0.6514	0.7922	0.6822	0.027
Mof_C 	C 	0.62083	0.8607	0.7428	-0.049
Mof_H 	H 	0.6052	0.8659	0.706	0.037
Mof_C 	C 	0.28808	0.3963	0.0184	0.31
Mof_C 	C 	0.32066	0.364	0.0027	-0.095
Mof_C 	C 	0.38069	0.2982	0.9718	0.056
Mof_C 	C 	0.4117	0.2615	0.9541	0.007
Mof_C 	C 	0.46978	0.1857	0.9182	0.052
Mof_C 	C 	0.53041	0.0281	0.8576	0.084
Mof_C 	C 	0.58688	0.941	0.8295	-0.016
Mof_C 	C 	0.2395	0.4775	0.2806	0.16
Mof_C 	C 	0.2759	0.5495	0.1985	-0.004
Mof_C 	C 	0.2305	0.6134	0.2707	0.04
Mof_Cd	Cd	0.242	0.33341	0.14948	0.483
Mof_O 	O 	0.27905	0.4023	0.0856	-0.286
Mof_O 	O 	0.27145	0.418	0.9654	-0.281
Mof_O 	O 	0.20642	0.4236	0.1026	-0.294
Mof_O 	O 	0.19724	0.5443	0.0834	-0.283
Mof_C 	C 	0.61646	0.8975	0.812	0.044
Mof_C 	C 	0.67135	0.8085	0.7831	-0.099
Mof_C 	C 	0.7004	0.7585	0.7671	0.36
Mof_O 	O 	0.70378	0.7315	0.7066	-0.32
Mof_O 	O 	0.7197	0.7491	0.8198	-0.305
Mof_C 	C 	0.0631	0.4213	0.3282	-0.026
Mof_H 	H 	0.0669	0.3775	0.3001	0.034
Mof_C 	C 	0.0359	0.4252	0.3736	-0.064
Mof_H 	H 	0.0215	0.3846	0.3744	0.046
Mof_C 	C 	0.0535	0.5473	0.4182	-0.065
Mof_H 	H 	0.0509	0.5885	0.4506	0.046
Mof_C 	C 	0.0801	0.5454	0.3718	-0.022
Mof_H 	H 	0.0949	0.5854	0.3724	0.029
Mof_C 	C 	0.3459	0.3755	0.0506	0.022
Mof_H 	H 	0.3433	0.4042	0.0939	0.029
Mof_C 	C 	0.3754	0.3435	0.0331	-0.076
Mof_H 	H 	0.3927	0.3533	0.0646	0.045
Mof_C 	C 	0.3548	0.2908	0.9212	-0.072
Mof_H 	H 	0.3577	0.2637	0.8771	0.052
Mof_C 	C 	0.32532	0.323	0.9363	0.015
Mof_H 	H 	0.3085	0.3177	0.9026	0.037
Mof_C 	C 	0.44889	0.1531	0.9704	-0.11
Mof_H 	H 	0.4541	0.1073	0.994	0.063
Mof_C 	C 	0.41912	0.188	0.9842	0.024
Mof_H 	H 	0.404	0.1628	0.0134	0.009
Mof_C 	C 	0.43541	0.2962	0.9099	0.004
Mof_H 	H 	0.4329	0.3472	0.896	0.024
Mof_C 	C 	0.46286	0.2562	0.886	-0.093
Mof_H 	H 	0.4762	0.2766	0.8494	0.056
Mof_C 	C 	0.56	0.9117	0.8733	-0.052
Mof_H 	H 	0.5618	0.8631	0.8941	0.045
Mof_C 	C 	0.5316	0.9534	0.8857	-0.052
Mof_H 	H 	0.5143	0.9323	0.9113	0.036
Mof_C 	C 	0.5514	0.0514	0.803	0.117
Mof_H 	H 	0.5491	0.0986	0.7796	-0.016
Mof_C 	C 	0.57697	-7.74501e-33	0.7833	-0.177
Mof_H 	H 	0.5873	0.0066	0.7378	0.088
Mof_C 	C 	0.65312	0.803	0.8509	0.028
Mof_H 	H 	0.6605	0.7692	0.8871	0.019
Mof_C 	C 	0.62622	0.8459	0.8675	-0.095
Mof_H 	H 	0.6153	0.8409	0.9125	0.052
Mof_C 	C 	0.62732	0.8918	0.738	-0.042
Mof_H 	H 	0.6165	0.9161	0.6994	0.028
Mof_C 	C 	0.65402	0.8499	0.7247	-0.017
Mof_H 	H 	0.6617	0.8472	0.6762	0.032
Mof_C 	C 	0.30858	0.5151	0.6172	0.329
Mof_C 	C 	0.33525	0.5162	0.6738	-0.103
Mof_C 	C 	0.3446	0.5823	0.7085	0.034
Mof_H 	H 	0.3338	0.6277	0.6981	0.041
Mof_C 	C 	0.37005	0.583	0.7592	-0.113
Mof_H 	H 	0.3758	0.6281	0.7832	0.068
Mof_C 	C 	0.38668	0.516	0.7734	0.056
Mof_C 	C 	0.37708	0.4496	0.738	-0.117
Mof_H 	H 	0.3878	0.404	0.7482	0.067
Mof_C 	C 	0.35216	0.4497	0.6882	0.039
Mof_H 	H 	0.3466	0.4046	0.6639	0.033
Mof_C 	C 	0.41524	0.5164	0.8245	-0.004
Mof_C 	C 	0.46966	0.5106	0.9178	0.068
Mof_C 	C 	0.4162	0.5578	0.8906	-0.026
Mof_H 	H 	0.3983	0.5863	0.9051	0.031
Mof_C 	C 	0.44368	0.5573	0.9358	-0.052
Mof_H 	H 	0.4446	0.5882	0.9779	0.044
Mof_C 	C 	0.4695	0.4703	0.8509	-0.053
Mof_H 	H 	0.4875	0.4425	0.8364	0.037
Mof_C 	C 	0.44238	0.4719	0.8061	-0.033
Mof_H 	H 	0.4421	0.4429	0.7626	0.039
Mof_C 	C 	0.161	0.6146	0.441	-0.011
Mof_H 	H 	0.1687	0.5765	0.4096	0.045
Mof_C 	C 	0.1315	0.6484	0.4249	-0.046
Mof_H 	H 	0.1202	0.6345	0.3823	0.037
Mof_C 	C 	0.1352	0.7207	0.538	-0.049
Mof_H 	H 	0.1257	0.7547	0.5713	0.04
Mof_C 	C 	0.16518	0.6886	0.5543	-0.026
Mof_H 	H 	0.1758	0.7013	0.5981	0.049
Mof_C 	C 	0.0841	0.7688	0.3815	-0.04
Mof_H 	H 	0.1009	0.7687	0.3474	0.037
Mof_C 	C 	0.05473	0.8031	0.363	-0.045
Mof_H 	H 	0.0511	0.8189	0.3142	0.044
Mof_C 	C 	0.03545	0.7789	0.4877	-0.039
Mof_H 	H 	0.0194	0.7821	0.5238	0.036
Mof_C 	C 	0.06377	0.7393	0.5047	-0.047
Mof_H 	H 	0.0659	0.7138	0.55	0.038
Mof_C 	C 	0.9632	0.0072	0.2901	-0.271
Mof_H 	H 	0.9786	0.0029	0.2527	0.115
Mof_C 	C 	0.9354	0.0487	0.2738	0.318
Mof_H 	H 	0.932	0.0689	0.2265	-0.088
Mof_C 	C 	0.91407	0.0149	0.3952	0.069
Mof_H 	H 	0.8965	0.0112	0.4272	0.006
Mof_C 	C 	0.94317	0.9767	0.4092	-0.149
Mof_H 	H 	0.9455	0.9528	0.4552	0.075
Mof_C 	C 	0.85515	0.0947	0.3575	-0.034
Mof_H 	H 	0.855	0.0597	0.3965	0.044
Mof_C 	C 	0.82716	0.1393	0.3425	-0.021
Mof_H 	H 	0.8086	0.1341	0.371	0.051
Mof_C 	C 	0.85137	0.1841	0.2281	0.025
Mof_H 	H 	0.8486	0.2078	0.1822	0.024
Mof_C 	C 	0.87917	0.1393	0.2428	-0.04
Mof_H 	H 	0.8948	0.1341	0.206	0.036
Mof_C 	C 	0.21192	0.6037	0.5184	0.313
Mof_C 	C 	0.17934	0.636	0.5027	-0.086
Mof_C 	C 	0.11931	0.7018	0.4718	0.046
Mof_C 	C 	0.0883	0.7385	0.4541	0.002
Mof_C 	C 	0.03022	0.8143	0.4182	0.059
Mof_C 	C 	0.96959	0.9719	0.3576	0.027
Mof_C 	C 	0.91312	0.059	0.3295	-0.026
Mof_C 	C 	0.2605	0.5225	0.7806	0.16
Mof_C 	C 	0.2241	0.4505	0.6985	-0.004
Mof_C 	C 	0.2695	0.3866	0.7707	0.044
Mof_Cd	Cd	0.258	0.66659	0.64948	0.482
Mof_O 	O 	0.22095	0.5977	0.5856	-0.286
Mof_O 	O 	0.22855	0.582	0.4654	-0.286
Mof_O 	O 	0.29358	0.5764	0.6026	-0.294
Mof_O 	O 	0.30276	0.4557	0.5834	-0.281
Mof_C 	C 	0.88354	0.1025	0.312	0.054
Mof_C 	C 	0.82865	0.1915	0.2831	-0.1
Mof_C 	C 	0.7996	0.2415	0.2671	0.362
Mof_O 	O 	0.79622	0.2685	0.2066	-0.319
Mof_O 	O 	0.7803	0.2509	0.3198	-0.303
Mof_C 	C 	0.4369	0.5787	0.8282	-0.026
Mof_H 	H 	0.4331	0.6225	0.8001	0.035
Mof_C 	C 	0.4641	0.5748	0.8736	-0.063
Mof_H 	H 	0.4785	0.6154	0.8744	0.046
Mof_C 	C 	0.4465	0.4527	0.9182	-0.065
Mof_H 	H 	0.4491	0.4115	0.9506	0.048
Mof_C 	C 	0.4199	0.4546	0.8718	-0.021
Mof_H 	H 	0.4051	0.4146	0.8724	0.029
Mof_C 	C 	0.1541	0.6245	0.5506	0.019
Mof_H 	H 	0.1567	0.5958	0.5939	0.03
Mof_C 	C 	0.1246	0.6565	0.5331	-0.068
Mof_H 	H 	0.1073	0.6467	0.5646	0.043
Mof_C 	C 	0.1452	0.7092	0.4212	-0.071
Mof_H 	H 	0.1423	0.7363	0.3771	0.049
Mof_C 	C 	0.17468	0.677	0.4363	0.009
Mof_H 	H 	0.1915	0.6823	0.4026	0.036
Mof_C 	C 	0.05111	0.8469	0.4704	-0.066
Mof_H 	H 	0.0459	0.8927	0.494	0.04
Mof_C 	C 	0.08088	0.812	0.4842	-0.022
Mof_H 	H 	0.096	0.8372	0.5134	0.027
Mof_C 	C 	0.06459	0.7038	0.4099	-0.026
Mof_H 	H 	0.0671	0.6528	0.396	0.035
Mof_C 	C 	0.03714	0.7438	0.386	-0.061
Mof_H 	H 	0.0238	0.7234	0.3494	0.045
Mof_C 	C 	0.94	0.0883	0.3733	-0.122
Mof_H 	H 	0.9382	0.1369	0.3941	0.067
Mof_C 	C 	0.9684	0.0466	0.3857	0.053
Mof_H 	H 	0.9857	0.0677	0.4113	0.006
Mof_C 	C 	0.9486	0.9486	0.303	0.18
Mof_H 	H 	0.9509	0.9014	0.2796	-0.045
Mof_C 	C 	0.92303	0	0.2833	-0.304
Mof_H 	H 	0.9127	0.9934	0.2378	0.103
Mof_C 	C 	0.84688	0.197	0.3509	0.03
Mof_H 	H 	0.8395	0.2308	0.3871	0.018
Mof_C 	C 	0.87378	0.1541	0.3675	-0.104
Mof_H 	H 	0.8847	0.1591	0.4125	0.056
Mof_C 	C 	0.87268	0.1082	0.238	-0.054
Mof_H 	H 	0.8835	0.0839	0.1994	0.039
Mof_C 	C 	0.84598	0.1501	0.2247	-0.027
Mof_H 	H 	0.8383	0.1528	0.1762	0.038
Mof_C 	C 	0.30858	0.4849	0.3828	0.329
Mof_C 	C 	0.33525	0.4838	0.3262	-0.103
Mof_C 	C 	0.3446	0.4177	0.2915	0.035
Mof_H 	H 	0.3338	0.3723	0.3019	0.041
Mof_C 	C 	0.37005	0.417	0.2408	-0.113
Mof_H 	H 	0.3758	0.3719	0.2168	0.068
Mof_C 	C 	0.38668	0.484	0.2266	0.056
Mof_C 	C 	0.37708	0.5504	0.262	-0.118
Mof_H 	H 	0.3878	0.596	0.2518	0.066
Mof_C 	C 	0.35216	0.5503	0.3118	0.039
Mof_H 	H 	0.3466	0.5954	0.3361	0.032
Mof_C 	C 	0.41524	0.4836	0.1755	-0.005
Mof_C 	C 	0.46966	0.4894	0.0822	0.073
Mof_C 	C 	0.4162	0.4422	0.1094	-0.026
Mof_H 	H 	0.3983	0.4137	0.0949	0.03
Mof_C 	C 	0.44368	0.4427	0.0642	-0.055
Mof_H 	H 	0.4446	0.4118	0.0221	0.041
Mof_C 	C 	0.4695	0.5297	0.1491	-0.055
Mof_H 	H 	0.4875	0.5575	0.1636	0.038
Mof_C 	C 	0.44238	0.5281	0.1939	-0.031
Mof_H 	H 	0.4421	0.5571	0.2374	0.038
Mof_C 	C 	0.161	0.3854	0.559	-0.011
Mof_H 	H 	0.1687	0.4235	0.5904	0.045
Mof_C 	C 	0.1315	0.3516	0.5751	-0.046
Mof_H 	H 	0.1202	0.3655	0.6177	0.038
Mof_C 	C 	0.1352	0.2793	0.462	-0.048
Mof_H 	H 	0.1257	0.2453	0.4287	0.04
Mof_C 	C 	0.16518	0.3114	0.4457	-0.025
Mof_H 	H 	0.1758	0.2987	0.4019	0.049
Mof_C 	C 	0.0841	0.2312	0.6185	-0.046
Mof_H 	H 	0.1009	0.2313	0.6526	0.041
Mof_C 	C 	0.05473	0.1969	0.637	-0.037
Mof_H 	H 	0.0511	0.1811	0.6858	0.041
Mof_C 	C 	0.03545	0.2211	0.5123	-0.031
Mof_H 	H 	0.0194	0.2179	0.4762	0.033
Mof_C 	C 	0.06377	0.2607	0.4953	-0.055
Mof_H 	H 	0.0659	0.2862	0.45	0.041
Mof_C 	C 	0.9632	0.9928	0.7099	-0.237
Mof_H 	H 	0.9786	0.9971	0.7473	0.096
Mof_C 	C 	0.9354	0.9513	0.7262	0.166
Mof_H 	H 	0.932	0.9311	0.7735	-0.042
Mof_C 	C 	0.91407	0.9851	0.6048	-0.031
Mof_H 	H 	0.8965	0.9888	0.5728	0.03
Mof_C 	C 	0.94317	0.0233	0.5908	-0.062
Mof_H 	H 	0.9455	0.0472	0.5448	0.051
Mof_C 	C 	0.85515	0.9053	0.6425	-0.036
Mof_H 	H 	0.855	0.9403	0.6035	0.037
Mof_C 	C 	0.82716	0.8607	0.6575	-0.025
Mof_H 	H 	0.8086	0.8659	0.629	0.047
Mof_C 	C 	0.85137	0.8159	0.7719	0.013
Mof_H 	H 	0.8486	0.7922	0.8178	0.028
Mof_C 	C 	0.87917	0.8607	0.7572	-0.049
Mof_H 	H 	0.8948	0.8659	0.794	0.038
Mof_C 	C 	0.21192	0.3963	0.4816	0.314
Mof_C 	C 	0.17934	0.364	0.4973	-0.085
Mof_C 	C 	0.11931	0.2982	0.5282	0.046
Mof_C 	C 	0.0883	0.2615	0.5459	0.004
Mof_C 	C 	0.03022	0.1857	0.5818	0.054
Mof_C 	C 	0.96959	0.0281	0.6424	0.084
Mof_C 	C 	0.91312	0.941	0.6705	-0.017
Mof_C 	C 	0.2605	0.4775	0.2194	0.16
Mof_C 	C 	0.2241	0.5495	0.3015	-0.004
Mof_C 	C 	0.2695	0.6134	0.2293	0.04
Mof_Cd	Cd	0.258	0.33341	0.35052	0.484
Mof_O 	O 	0.22095	0.4023	0.4144	-0.286
Mof_O 	O 	0.22855	0.418	0.5346	-0.286
Mof_O 	O 	0.29358	0.4236	0.3974	-0.293
Mof_O 	O 	0.30276	0.5443	0.4166	-0.282
Mof_C 	C 	0.88354	0.8975	0.688	0.045
Mof_C 	C 	0.82865	0.8085	0.7169	-0.099
Mof_C 	C 	0.7996	0.7585	0.7329	0.36
Mof_O 	O 	0.79622	0.7315	0.7934	-0.319
Mof_O 	O 	0.7803	0.7491	0.6802	-0.305
Mof_C 	C 	0.4369	0.4213	0.1718	-0.025
Mof_H 	H 	0.4331	0.3775	0.1999	0.034
Mof_C 	C 	0.4641	0.4252	0.1264	-0.065
Mof_H 	H 	0.4785	0.3846	0.1256	0.046
Mof_C 	C 	0.4465	0.5473	0.0818	-0.067
Mof_H 	H 	0.4491	0.5885	0.0494	0.044
Mof_C 	C 	0.4199	0.5454	0.1282	-0.023
Mof_H 	H 	0.4051	0.5854	0.1276	0.028
Mof_C 	C 	0.1541	0.3755	0.4494	0.018
Mof_H 	H 	0.1567	0.4042	0.4061	0.031
Mof_C 	C 	0.1246	0.3435	0.4669	-0.068
Mof_H 	H 	0.1073	0.3533	0.4354	0.043
Mof_C 	C 	0.1452	0.2908	0.5788	-0.069
Mof_H 	H 	0.1423	0.2637	0.6229	0.051
Mof_C 	C 	0.17468	0.323	0.5637	0.009
Mof_H 	H 	0.1915	0.3177	0.5974	0.038
Mof_C 	C 	0.05111	0.1531	0.5296	-0.073
Mof_H 	H 	0.0459	0.1073	0.506	0.048
Mof_C 	C 	0.08088	0.188	0.5158	-0.016
Mof_H 	H 	0.096	0.1628	0.4866	0.026
Mof_C 	C 	0.06459	0.2962	0.5901	-0.022
Mof_H 	H 	0.0671	0.3472	0.604	0.033
Mof_C 	C 	0.03714	0.2562	0.614	-0.066
Mof_H 	H 	0.0238	0.2766	0.6506	0.047
Mof_C 	C 	0.94	0.9117	0.6267	-0.052
Mof_H 	H 	0.9382	0.8631	0.6059	0.044
Mof_C 	C 	0.9684	0.9534	0.6143	-0.053
Mof_H 	H 	0.9857	0.9323	0.5887	0.035
Mof_C 	C 	0.9486	0.0514	0.697	0.116
Mof_H 	H 	0.9509	0.0986	0.7204	-0.017
Mof_C 	C 	0.92303	0	0.7167	-0.175
Mof_H 	H 	0.9127	0.0066	0.7622	0.088
Mof_C 	C 	0.84688	0.803	0.6491	0.03
Mof_H 	H 	0.8395	0.7692	0.6129	0.018
Mof_C 	C 	0.87378	0.8459	0.6325	-0.098
Mof_H 	H 	0.8847	0.8409	0.5875	0.054
Mof_C 	C 	0.87268	0.8918	0.762	-0.042
Mof_H 	H 	0.8835	0.9161	0.8006	0.028
Mof_C 	C 	0.84598	0.8499	0.7753	-0.017
Mof_H 	H 	0.8383	0.8472	0.8238	0.032
Mof_C 	C 	0.19142	0.5151	0.8828	0.328
Mof_C 	C 	0.16475	0.5162	0.8262	-0.102
Mof_C 	C 	0.1554	0.5823	0.7915	0.034
Mof_H 	H 	0.1662	0.6277	0.8019	0.041
Mof_C 	C 	0.12995	0.583	0.7408	-0.113
Mof_H 	H 	0.1242	0.6281	0.7168	0.068
Mof_C 	C 	0.11332	0.516	0.7266	0.056
Mof_C 	C 	0.12292	0.4496	0.762	-0.117
Mof_H 	H 	0.1122	0.404	0.7518	0.067
Mof_C 	C 	0.14784	0.4497	0.8118	0.038
Mof_H 	H 	0.1534	0.4046	0.8361	0.034
Mof_C 	C 	0.08476	0.5164	0.6755	-0.004
Mof_C 	C 	0.03034	0.5106	0.5822	0.07
Mof_C 	C 	0.0838	0.5578	0.6094	-0.026
Mof_H 	H 	0.1017	0.5863	0.5949	0.031
Mof_C 	C 	0.05632	0.5573	0.5642	-0.053
Mof_H 	H 	0.0554	0.5882	0.5221	0.043
Mof_C 	C 	0.0305	0.4703	0.6491	-0.054
Mof_H 	H 	0.0125	0.4425	0.6636	0.038
Mof_C 	C 	0.05762	0.4719	0.6939	-0.032
Mof_H 	H 	0.0579	0.4429	0.7374	0.039
Mof_C 	C 	0.339	0.6146	0.059	-0.019
Mof_H 	H 	0.3313	0.5765	0.0904	0.047
Mof_C 	C 	0.3685	0.6484	0.0751	-0.041
Mof_H 	H 	0.3798	0.6345	0.1177	0.036
Mof_C 	C 	0.3648	0.7207	0.962	-0.043
Mof_H 	H 	0.3743	0.7547	0.9287	0.039
Mof_C 	C 	0.33482	0.6886	0.9457	-0.029
Mof_H 	H 	0.3242	0.7013	0.9019	0.05
Mof_C 	C 	0.4159	0.7688	0.1185	-0.013
Mof_H 	H 	0.3991	0.7687	0.1526	0.028
Mof_C 	C 	0.44527	0.8031	0.137	-0.073
Mof_H 	H 	0.4489	0.8189	0.1858	0.054
Mof_C 	C 	0.46455	0.7789	0.0123	-0.091
Mof_H 	H 	0.4806	0.7821	0.9762	0.055
Mof_C 	C 	0.43623	0.7393	0.9953	0.005
Mof_H 	H 	0.4341	0.7138	0.95	0.021
Mof_C 	C 	0.5368	0.0072	0.2099	-0.27
Mof_H 	H 	0.5214	0.0029	0.2473	0.115
Mof_C 	C 	0.5646	0.0487	0.2262	0.316
Mof_H 	H 	0.568	0.0689	0.2735	-0.087
Mof_C 	C 	0.58593	0.0149	0.1048	0.069
Mof_H 	H 	0.6035	0.0112	0.0728	0.005
Mof_C 	C 	0.55683	0.9767	0.0908	-0.152
Mof_H 	H 	0.5545	0.9528	0.0448	0.075
Mof_C 	C 	0.64485	0.0947	0.1425	-0.033
Mof_H 	H 	0.645	0.0597	0.1035	0.043
Mof_C 	C 	0.67284	0.1393	0.1575	-0.023
Mof_H 	H 	0.6914	0.1341	0.129	0.051
Mof_C 	C 	0.64863	0.1841	0.2719	0.025
Mof_H 	H 	0.6514	0.2078	0.3178	0.024
Mof_C 	C 	0.62083	0.1393	0.2572	-0.04
Mof_H 	H 	0.6052	0.1341	0.294	0.037
Mof_C 	C 	0.28808	0.6037	0.9816	0.316
Mof_C 	C 	0.32066	0.636	0.9973	-0.075
Mof_C 	C 	0.38069	0.7018	0.0282	0.036
Mof_C 	C 	0.4117	0.7385	0.0459	-0.001
Mof_C 	C 	0.46978	0.8143	0.0818	0.061
Mof_C 	C 	0.53041	0.9719	0.1424	0.028
Mof_C 	C 	0.58688	0.059	0.1705	-0.027
Mof_C 	C 	0.2395	0.5225	0.7194	0.16
Mof_C 	C 	0.2759	0.4505	0.8015	-0.004
Mof_C 	C 	0.2305	0.3866	0.7293	0.044
Mof_Cd	Cd	0.242	0.66659	0.85052	0.483
Mof_O 	O 	0.27905	0.5977	0.9144	-0.286
Mof_O 	O 	0.27145	0.582	0.0346	-0.29
Mof_O 	O 	0.20642	0.5764	0.8974	-0.292
Mof_O 	O 	0.19724	0.4557	0.9166	-0.278
Mof_C 	C 	0.61646	0.1025	0.188	0.055
Mof_C 	C 	0.67135	0.1915	0.2169	-0.1
Mof_C 	C 	0.7004	0.2415	0.2329	0.362
Mof_O 	O 	0.70378	0.2685	0.2934	-0.318
Mof_O 	O 	0.7197	0.2509	0.1802	-0.303
Mof_C 	C 	0.0631	0.5787	0.6718	-0.026
Mof_H 	H 	0.0669	0.6225	0.6999	0.035
Mof_C 	C 	0.0359	0.5748	0.6264	-0.063
Mof_H 	H 	0.0215	0.6154	0.6256	0.046
Mof_C 	C 	0.0535	0.4527	0.5818	-0.065
Mof_H 	H 	0.0509	0.4115	0.5494	0.046
Mof_C 	C 	0.0801	0.4546	0.6282	-0.022
Mof_H 	H 	0.0949	0.4146	0.6276	0.029
Mof_C 	C 	0.3459	0.6245	0.9494	0.014
Mof_H 	H 	0.3433	0.5958	0.9061	0.032
Mof_C 	C 	0.3754	0.6565	0.9669	-0.061
Mof_H 	H 	0.3927	0.6467	0.9354	0.041
Mof_C 	C 	0.3548	0.7092	0.0788	-0.068
Mof_H 	H 	0.3577	0.7363	0.1229	0.048
Mof_C 	C 	0.32532	0.677	0.0637	0.003
Mof_H 	H 	0.3085	0.6823	0.0974	0.037
Mof_C 	C 	0.44889	0.8469	0.0296	-0.026
Mof_H 	H 	0.4541	0.8927	0.006	0.024
Mof_C 	C 	0.41912	0.812	0.0158	-0.065
Mof_H 	H 	0.404	0.8372	0.9866	0.046
Mof_C 	C 	0.43541	0.7038	0.0901	-0.054
Mof_H 	H 	0.4329	0.6528	0.104	0.045
Mof_C 	C 	0.46286	0.7438	0.114	-0.033
Mof_H 	H 	0.4762	0.7234	0.1506	0.035
Mof_C 	C 	0.56	0.0883	0.1267	-0.121
Mof_H 	H 	0.5618	0.1369	0.1059	0.067
Mof_C 	C 	0.5316	0.0466	0.1143	0.051
Mof_H 	H 	0.5143	0.0677	0.0887	0.006
Mof_C 	C 	0.5514	0.9486	0.197	0.178
Mof_H 	H 	0.5491	0.9014	0.2204	-0.045
Mof_C 	C 	0.57697	0	0.2167	-0.301
Mof_H 	H 	0.5873	0.9934	0.2622	0.103
Mof_C 	C 	0.65312	0.197	0.1491	0.032
Mof_H 	H 	0.6605	0.2308	0.1129	0.017
Mof_C 	C 	0.62622	0.1541	0.1325	-0.107
Mof_H 	H 	0.6153	0.1591	0.0875	0.058
Mof_C 	C 	0.62732	0.1082	0.262	-0.054
Mof_H 	H 	0.6165	0.0839	0.3006	0.04
Mof_C 	C 	0.65402	0.1501	0.2753	-0.027
Mof_H 	H 	0.6617	0.1528	0.3238	0.038
Mof_C 	C 	0.80858	0.5151	0.8828	0.328
Mof_C 	C 	0.83525	0.5162	0.8262	-0.102
Mof_C 	C 	0.8446	0.5823	0.7915	0.034
Mof_H 	H 	0.8338	0.6277	0.8019	0.041
Mof_C 	C 	0.87005	0.583	0.7408	-0.113
Mof_H 	H 	0.8758	0.6281	0.7168	0.068
Mof_C 	C 	0.88668	0.516	0.7266	0.056
Mof_C 	C 	0.87708	0.4496	0.762	-0.116
Mof_H 	H 	0.8878	0.404	0.7518	0.067
Mof_C 	C 	0.85216	0.4497	0.8118	0.038
Mof_H 	H 	0.8466	0.4046	0.8361	0.034
Mof_C 	C 	0.91524	0.5164	0.6755	-0.003
Mof_C 	C 	0.96966	0.5106	0.5822	0.069
Mof_C 	C 	0.9162	0.5578	0.6094	-0.026
Mof_H 	H 	0.8983	0.5863	0.5949	0.031
Mof_C 	C 	0.94368	0.5573	0.5642	-0.052
Mof_H 	H 	0.9446	0.5882	0.5221	0.042
Mof_C 	C 	0.9695	0.4703	0.6491	-0.053
Mof_H 	H 	0.9875	0.4425	0.6636	0.037
Mof_C 	C 	0.94238	0.4719	0.6939	-0.033
Mof_H 	H 	0.9421	0.4429	0.7374	0.039
Mof_C 	C 	0.661	0.6146	0.059	-0.019
Mof_H 	H 	0.6687	0.5765	0.0904	0.047
Mof_C 	C 	0.6315	0.6484	0.0751	-0.041
Mof_H 	H 	0.6202	0.6345	0.1177	0.036
Mof_C 	C 	0.6352	0.7207	0.962	-0.043
Mof_H 	H 	0.6257	0.7547	0.9287	0.039
Mof_C 	C 	0.66518	0.6886	0.9457	-0.029
Mof_H 	H 	0.6758	0.7013	0.9019	0.05
Mof_C 	C 	0.5841	0.7688	0.1185	-0.013
Mof_H 	H 	0.6009	0.7687	0.1526	0.028
Mof_C 	C 	0.55473	0.8031	0.137	-0.073
Mof_H 	H 	0.5511	0.8189	0.1858	0.054
Mof_C 	C 	0.53545	0.7789	0.0123	-0.091
Mof_H 	H 	0.5194	0.7821	0.9762	0.055
Mof_C 	C 	0.56377	0.7393	0.9953	0.005
Mof_H 	H 	0.5659	0.7138	0.95	0.021
Mof_C 	C 	0.4632	0.0072	0.2099	-0.27
Mof_H 	H 	0.4786	0.0029	0.2473	0.115
Mof_C 	C 	0.4354	0.0487	0.2262	0.316
Mof_H 	H 	0.432	0.0689	0.2735	-0.087
Mof_C 	C 	0.41407	0.0149	0.1048	0.069
Mof_H 	H 	0.3965	0.0112	0.0728	0.005
Mof_C 	C 	0.44317	0.9767	0.0908	-0.152
Mof_H 	H 	0.4455	0.9528	0.0448	0.075
Mof_C 	C 	0.35515	0.0947	0.1425	-0.033
Mof_H 	H 	0.355	0.0597	0.1035	0.043
Mof_C 	C 	0.32716	0.1393	0.1575	-0.023
Mof_H 	H 	0.3086	0.1341	0.129	0.051
Mof_C 	C 	0.35137	0.1841	0.2719	0.025
Mof_H 	H 	0.3486	0.2078	0.3178	0.024
Mof_C 	C 	0.37917	0.1393	0.2572	-0.04
Mof_H 	H 	0.3948	0.1341	0.294	0.037
Mof_C 	C 	0.71192	0.6037	0.9816	0.316
Mof_C 	C 	0.67934	0.636	0.9973	-0.075
Mof_C 	C 	0.61931	0.7018	0.0282	0.036
Mof_C 	C 	0.5883	0.7385	0.0459	-0.001
Mof_C 	C 	0.53022	0.8143	0.0818	0.061
Mof_C 	C 	0.46959	0.9719	0.1424	0.028
Mof_C 	C 	0.41312	0.059	0.1705	-0.027
Mof_C 	C 	0.7605	0.5225	0.7194	0.16
Mof_C 	C 	0.7241	0.4505	0.8015	-0.004
Mof_C 	C 	0.7695	0.3866	0.7293	0.044
Mof_Cd	Cd	0.758	0.66659	0.85052	0.483
Mof_O 	O 	0.72095	0.5977	0.9144	-0.286
Mof_O 	O 	0.72855	0.582	0.0346	-0.29
Mof_O 	O 	0.79358	0.5764	0.8974	-0.292
Mof_O 	O 	0.80276	0.4557	0.9166	-0.278
Mof_C 	C 	0.38354	0.1025	0.188	0.055
Mof_C 	C 	0.32865	0.1915	0.2169	-0.1
Mof_C 	C 	0.2996	0.2415	0.2329	0.362
Mof_O 	O 	0.29622	0.2685	0.2934	-0.318
Mof_O 	O 	0.2803	0.2509	0.1802	-0.303
Mof_C 	C 	0.9369	0.5787	0.6718	-0.026
Mof_H 	H 	0.9331	0.6225	0.6999	0.035
Mof_C 	C 	0.9641	0.5748	0.6264	-0.063
Mof_H 	H 	0.9785	0.6154	0.6256	0.046
Mof_C 	C 	0.9465	0.4527	0.5818	-0.065
Mof_H 	H 	0.9491	0.4115	0.5494	0.046
Mof_C 	C 	0.9199	0.4546	0.6282	-0.022
Mof_H 	H 	0.9051	0.4146	0.6276	0.029
Mof_C 	C 	0.6541	0.6245	0.9494	0.014
Mof_H 	H 	0.6567	0.5958	0.9061	0.032
Mof_C 	C 	0.6246	0.6565	0.9669	-0.061
Mof_H 	H 	0.6073	0.6467	0.9354	0.041
Mof_C 	C 	0.6452	0.7092	0.0788	-0.068
Mof_H 	H 	0.6423	0.7363	0.1229	0.048
Mof_C 	C 	0.67468	0.677	0.0637	0.003
Mof_H 	H 	0.6915	0.6823	0.0974	0.037
Mof_C 	C 	0.55111	0.8469	0.0296	-0.026
Mof_H 	H 	0.5459	0.8927	0.006	0.024
Mof_C 	C 	0.58088	0.812	0.0158	-0.065
Mof_H 	H 	0.596	0.8372	0.9866	0.046
Mof_C 	C 	0.56459	0.7038	0.0901	-0.054
Mof_H 	H 	0.5671	0.6528	0.104	0.045
Mof_C 	C 	0.53714	0.7438	0.114	-0.033
Mof_H 	H 	0.5238	0.7234	0.1506	0.035
Mof_C 	C 	0.44	0.0883	0.1267	-0.121
Mof_H 	H 	0.4382	0.1369	0.1059	0.067
Mof_C 	C 	0.4684	0.0466	0.1143	0.051
Mof_H 	H 	0.4857	0.0677	0.0887	0.006
Mof_C 	C 	0.4486	0.9486	0.197	0.178
Mof_H 	H 	0.4509	0.9014	0.2204	-0.045
Mof_C 	C 	0.42303	0	0.2167	-0.301
Mof_H 	H 	0.4127	0.9934	0.2622	0.103
Mof_C 	C 	0.34688	0.197	0.1491	0.032
Mof_H 	H 	0.3395	0.2308	0.1129	0.017
Mof_C 	C 	0.37378	0.1541	0.1325	-0.107
Mof_H 	H 	0.3847	0.1591	0.0875	0.058
Mof_C 	C 	0.37268	0.1082	0.262	-0.054
Mof_H 	H 	0.3835	0.0839	0.3006	0.04
Mof_C 	C 	0.34598	0.1501	0.2753	-0.027
Mof_H 	H 	0.3383	0.1528	0.3238	0.038
Mof_C 	C 	0.69142	0.4849	0.3828	0.329
Mof_C 	C 	0.66475	0.4838	0.3262	-0.103
Mof_C 	C 	0.6554	0.4177	0.2915	0.035
Mof_H 	H 	0.6662	0.3723	0.3019	0.041
Mof_C 	C 	0.62995	0.417	0.2408	-0.113
Mof_H 	H 	0.6242	0.3719	0.2168	0.068
Mof_C 	C 	0.61332	0.484	0.2266	0.056
Mof_C 	C 	0.62292	0.5504	0.262	-0.118
Mof_H 	H 	0.6122	0.596	0.2518	0.066
Mof_C 	C 	0.64784	0.5503	0.3118	0.039
Mof_H 	H 	0.6534	0.5954	0.3361	0.032
Mof_C 	C 	0.58476	0.4836	0.1755	-0.005
Mof_C 	C 	0.53034	0.4894	0.0822	0.073
Mof_C 	C 	0.5838	0.4422	0.1094	-0.026
Mof_H 	H 	0.6017	0.4137	0.0949	0.03
Mof_C 	C 	0.55632	0.4427	0.0642	-0.055
Mof_H 	H 	0.5554	0.4118	0.0221	0.041
Mof_C 	C 	0.5305	0.5297	0.1491	-0.055
Mof_H 	H 	0.5125	0.5575	0.1636	0.038
Mof_C 	C 	0.55762	0.5281	0.1939	-0.031
Mof_H 	H 	0.5579	0.5571	0.2374	0.038
Mof_C 	C 	0.839	0.3854	0.559	-0.011
Mof_H 	H 	0.8313	0.4235	0.5904	0.045
Mof_C 	C 	0.8685	0.3516	0.5751	-0.046
Mof_H 	H 	0.8798	0.3655	0.6177	0.038
Mof_C 	C 	0.8648	0.2793	0.462	-0.048
Mof_H 	H 	0.8743	0.2453	0.4287	0.04
Mof_C 	C 	0.83482	0.3114	0.4457	-0.025
Mof_H 	H 	0.8242	0.2987	0.4019	0.049
Mof_C 	C 	0.9159	0.2312	0.6185	-0.047
Mof_H 	H 	0.8991	0.2313	0.6526	0.042
Mof_C 	C 	0.94527	0.1969	0.637	-0.037
Mof_H 	H 	0.9489	0.1811	0.6858	0.04
Mof_C 	C 	0.96455	0.2211	0.5123	-0.031
Mof_H 	H 	0.9806	0.2179	0.4762	0.032
Mof_C 	C 	0.93623	0.2607	0.4953	-0.055
Mof_H 	H 	0.9341	0.2862	0.45	0.041
Mof_C 	C 	0.0368	0.9928	0.7099	-0.237
Mof_H 	H 	0.0214	0.9971	0.7473	0.096
Mof_C 	C 	0.0646	0.9513	0.7262	0.166
Mof_H 	H 	0.068	0.9311	0.7735	-0.042
Mof_C 	C 	0.08593	0.9851	0.6048	-0.03
Mof_H 	H 	0.1035	0.9888	0.5728	0.03
Mof_C 	C 	0.05683	0.0233	0.5908	-0.062
Mof_H 	H 	0.0545	0.0472	0.5448	0.051
Mof_C 	C 	0.14485	0.9053	0.6425	-0.036
Mof_H 	H 	0.145	0.9403	0.6035	0.037
Mof_C 	C 	0.17284	0.8607	0.6575	-0.025
Mof_H 	H 	0.1914	0.8659	0.629	0.047
Mof_C 	C 	0.14863	0.8159	0.7719	0.013
Mof_H 	H 	0.1514	0.7922	0.8178	0.028
Mof_C 	C 	0.12083	0.8607	0.7572	-0.049
Mof_H 	H 	0.1052	0.8659	0.794	0.038
Mof_C 	C 	0.78808	0.3963	0.4816	0.314
Mof_C 	C 	0.82066	0.364	0.4973	-0.085
Mof_C 	C 	0.88069	0.2982	0.5282	0.046
Mof_C 	C 	0.9117	0.2615	0.5459	0.005
Mof_C 	C 	0.96978	0.1857	0.5818	0.053
Mof_C 	C 	0.03041	0.0281	0.6424	0.085
Mof_C 	C 	0.08688	0.941	0.6705	-0.017
Mof_C 	C 	0.7395	0.4775	0.2194	0.16
Mof_C 	C 	0.7759	0.5495	0.3015	-0.004
Mof_C 	C 	0.7305	0.6134	0.2293	0.04
Mof_Cd	Cd	0.742	0.33341	0.35052	0.484
Mof_O 	O 	0.77905	0.4023	0.4144	-0.286
Mof_O 	O 	0.77145	0.418	0.5346	-0.286
Mof_O 	O 	0.70642	0.4236	0.3974	-0.293
Mof_O 	O 	0.69724	0.5443	0.4166	-0.282
Mof_C 	C 	0.11646	0.8975	0.688	0.045
Mof_C 	C 	0.17135	0.8085	0.7169	-0.099
Mof_C 	C 	0.2004	0.7585	0.7329	0.36
Mof_O 	O 	0.20378	0.7315	0.7934	-0.319
Mof_O 	O 	0.2197	0.7491	0.6802	-0.305
Mof_C 	C 	0.5631	0.4213	0.1718	-0.025
Mof_H 	H 	0.5669	0.3775	0.1999	0.034
Mof_C 	C 	0.5359	0.4252	0.1264	-0.065
Mof_H 	H 	0.5215	0.3846	0.1256	0.046
Mof_C 	C 	0.5535	0.5473	0.0818	-0.067
Mof_H 	H 	0.5509	0.5885	0.0494	0.044
Mof_C 	C 	0.5801	0.5454	0.1282	-0.023
Mof_H 	H 	0.5949	0.5854	0.1276	0.028
Mof_C 	C 	0.8459	0.3755	0.4494	0.018
Mof_H 	H 	0.8433	0.4042	0.4061	0.031
Mof_C 	C 	0.8754	0.3435	0.4669	-0.068
Mof_H 	H 	0.8927	0.3533	0.4354	0.043
Mof_C 	C 	0.8548	0.2908	0.5788	-0.069
Mof_H 	H 	0.8577	0.2637	0.6229	0.051
Mof_C 	C 	0.82532	0.323	0.5637	0.009
Mof_H 	H 	0.8085	0.3177	0.5974	0.038
Mof_C 	C 	0.94889	0.1531	0.5296	-0.073
Mof_H 	H 	0.9541	0.1073	0.506	0.048
Mof_C 	C 	0.91912	0.188	0.5158	-0.016
Mof_H 	H 	0.904	0.1628	0.4866	0.026
Mof_C 	C 	0.93541	0.2962	0.5901	-0.022
Mof_H 	H 	0.9329	0.3472	0.604	0.033
Mof_C 	C 	0.96286	0.2562	0.614	-0.066
Mof_H 	H 	0.9762	0.2766	0.6506	0.047
Mof_C 	C 	0.06	0.9117	0.6267	-0.051
Mof_H 	H 	0.0618	0.8631	0.6059	0.044
Mof_C 	C 	0.0316	0.9534	0.6143	-0.053
Mof_H 	H 	0.0143	0.9323	0.5887	0.036
Mof_C 	C 	0.0514	0.0514	0.697	0.116
Mof_H 	H 	0.0491	0.0986	0.7204	-0.016
Mof_C 	C 	0.07697	0	0.7167	-0.175
Mof_H 	H 	0.0873	0.0066	0.7622	0.088
Mof_C 	C 	0.15312	0.803	0.6491	0.03
Mof_H 	H 	0.1605	0.7692	0.6129	0.018
Mof_C 	C 	0.12622	0.8459	0.6325	-0.098
Mof_H 	H 	0.1153	0.8409	0.5875	0.054
Mof_C 	C 	0.12732	0.8918	0.762	-0.042
Mof_H 	H 	0.1165	0.9161	0.8006	0.028
Mof_C 	C 	0.15402	0.8499	0.7753	-0.017
Mof_H 	H 	0.1617	0.8472	0.8238	0.032
Mof_C 	C 	0.69142	0.5151	0.6172	0.329
Mof_C 	C 	0.66475	0.5162	0.6738	-0.103
Mof_C 	C 	0.6554	0.5823	0.7085	0.034
Mof_H 	H 	0.6662	0.6277	0.6981	0.041
Mof_C 	C 	0.62995	0.583	0.7592	-0.113
Mof_H 	H 	0.6242	0.6281	0.7832	0.068
Mof_C 	C 	0.61332	0.516	0.7734	0.056
Mof_C 	C 	0.62292	0.4496	0.738	-0.117
Mof_H 	H 	0.6122	0.404	0.7482	0.067
Mof_C 	C 	0.64784	0.4497	0.6882	0.039
Mof_H 	H 	0.6534	0.4046	0.6639	0.033
Mof_C 	C 	0.58476	0.5164	0.8245	-0.004
Mof_C 	C 	0.53034	0.5106	0.9178	0.068
Mof_C 	C 	0.5838	0.5578	0.8906	-0.026
Mof_H 	H 	0.6017	0.5863	0.9051	0.031
Mof_C 	C 	0.55632	0.5573	0.9358	-0.052
Mof_H 	H 	0.5554	0.5882	0.9779	0.044
Mof_C 	C 	0.5305	0.4703	0.8509	-0.053
Mof_H 	H 	0.5125	0.4425	0.8364	0.037
Mof_C 	C 	0.55762	0.4719	0.8061	-0.033
Mof_H 	H 	0.5579	0.4429	0.7626	0.039
Mof_C 	C 	0.839	0.6146	0.441	-0.011
Mof_H 	H 	0.8313	0.5765	0.4096	0.045
Mof_C 	C 	0.8685	0.6484	0.4249	-0.046
Mof_H 	H 	0.8798	0.6345	0.3823	0.037
Mof_C 	C 	0.8648	0.7207	0.538	-0.049
Mof_H 	H 	0.8743	0.7547	0.5713	0.04
Mof_C 	C 	0.83482	0.6886	0.5543	-0.026
Mof_H 	H 	0.8242	0.7013	0.5981	0.049
Mof_C 	C 	0.9159	0.7688	0.3815	-0.041
Mof_H 	H 	0.8991	0.7687	0.3474	0.037
Mof_C 	C 	0.94527	0.8031	0.363	-0.045
Mof_H 	H 	0.9489	0.8189	0.3142	0.044
Mof_C 	C 	0.96455	0.7789	0.4877	-0.039
Mof_H 	H 	0.9806	0.7821	0.5238	0.036
Mof_C 	C 	0.93623	0.7393	0.5047	-0.047
Mof_H 	H 	0.9341	0.7138	0.55	0.039
Mof_C 	C 	0.0368	0.0072	0.2901	-0.271
Mof_H 	H 	0.0214	0.0029	0.2527	0.116
Mof_C 	C 	0.0646	0.0487	0.2738	0.319
Mof_H 	H 	0.068	0.0689	0.2265	-0.088
Mof_C 	C 	0.08593	0.0149	0.3952	0.069
Mof_H 	H 	0.1035	0.0112	0.4272	0.006
Mof_C 	C 	0.05683	0.9767	0.4092	-0.15
Mof_H 	H 	0.0545	0.9528	0.4552	0.075
Mof_C 	C 	0.14485	0.0947	0.3575	-0.034
Mof_H 	H 	0.145	0.0597	0.3965	0.044
Mof_C 	C 	0.17284	0.1393	0.3425	-0.021
Mof_H 	H 	0.1914	0.1341	0.371	0.051
Mof_C 	C 	0.14863	0.1841	0.2281	0.025
Mof_H 	H 	0.1514	0.2078	0.1822	0.024
Mof_C 	C 	0.12083	0.1393	0.2428	-0.04
Mof_H 	H 	0.1052	0.1341	0.206	0.036
Mof_C 	C 	0.78808	0.6037	0.5184	0.313
Mof_C 	C 	0.82066	0.636	0.5027	-0.086
Mof_C 	C 	0.88069	0.7018	0.4718	0.046
Mof_C 	C 	0.9117	0.7385	0.4541	0.003
Mof_C 	C 	0.96978	0.8143	0.4182	0.058
Mof_C 	C 	0.03041	0.9719	0.3576	0.028
Mof_C 	C 	0.08688	0.059	0.3295	-0.026
Mof_C 	C 	0.7395	0.5225	0.7806	0.16
Mof_C 	C 	0.7759	0.4505	0.6985	-0.004
Mof_C 	C 	0.7305	0.3866	0.7707	0.044
Mof_Cd	Cd	0.742	0.66659	0.64948	0.482
Mof_O 	O 	0.77905	0.5977	0.5856	-0.286
Mof_O 	O 	0.77145	0.582	0.4654	-0.286
Mof_O 	O 	0.70642	0.5764	0.6026	-0.294
Mof_O 	O 	0.69724	0.4557	0.5834	-0.281
Mof_C 	C 	0.11646	0.1025	0.312	0.055
Mof_C 	C 	0.17135	0.1915	0.2831	-0.1
Mof_C 	C 	0.2004	0.2415	0.2671	0.362
Mof_O 	O 	0.20378	0.2685	0.2066	-0.319
Mof_O 	O 	0.2197	0.2509	0.3198	-0.303
Mof_C 	C 	0.5631	0.5787	0.8282	-0.026
Mof_H 	H 	0.5669	0.6225	0.8001	0.035
Mof_C 	C 	0.5359	0.5748	0.8736	-0.063
Mof_H 	H 	0.5215	0.6154	0.8744	0.046
Mof_C 	C 	0.5535	0.4527	0.9182	-0.065
Mof_H 	H 	0.5509	0.4115	0.9506	0.048
Mof_C 	C 	0.5801	0.4546	0.8718	-0.021
Mof_H 	H 	0.5949	0.4146	0.8724	0.029
Mof_C 	C 	0.8459	0.6245	0.5506	0.019
Mof_H 	H 	0.8433	0.5958	0.5939	0.03
Mof_C 	C 	0.8754	0.6565	0.5331	-0.068
Mof_H 	H 	0.8927	0.6467	0.5646	0.043
Mof_C 	C 	0.8548	0.7092	0.4212	-0.071
Mof_H 	H 	0.8577	0.7363	0.3771	0.049
Mof_C 	C 	0.82532	0.677	0.4363	0.009
Mof_H 	H 	0.8085	0.6823	0.4026	0.036
Mof_C 	C 	0.94889	0.8469	0.4704	-0.066
Mof_H 	H 	0.9541	0.8927	0.494	0.04
Mof_C 	C 	0.91912	0.812	0.4842	-0.022
Mof_H 	H 	0.904	0.8372	0.5134	0.027
Mof_C 	C 	0.93541	0.7038	0.4099	-0.026
Mof_H 	H 	0.9329	0.6528	0.396	0.035
Mof_C 	C 	0.96286	0.7438	0.386	-0.061
Mof_H 	H 	0.9762	0.7234	0.3494	0.044
Mof_C 	C 	0.06	0.0883	0.3733	-0.121
Mof_H 	H 	0.0618	0.1369	0.3941	0.067
Mof_C 	C 	0.0316	0.0466	0.3857	0.052
Mof_H 	H 	0.0143	0.0677	0.4113	0.007
Mof_C 	C 	0.0514	0.9486	0.303	0.179
Mof_H 	H 	0.0491	0.9014	0.2796	-0.045
Mof_C 	C 	0.07697	0	0.2833	-0.304
Mof_H 	H 	0.0873	0.9934	0.2378	0.103
Mof_C 	C 	0.15312	0.197	0.3509	0.031
Mof_H 	H 	0.1605	0.2308	0.3871	0.018
Mof_C 	C 	0.12622	0.1541	0.3675	-0.104
Mof_H 	H 	0.1153	0.1591	0.4125	0.056
Mof_C 	C 	0.12732	0.1082	0.238	-0.054
Mof_H 	H 	0.1165	0.0839	0.1994	0.04
Mof_C 	C 	0.15402	0.1501	0.2247	-0.027
Mof_H 	H 	0.1617	0.1528	0.1762	0.038
Mof_C 	C 	0.80858	0.4849	0.1172	0.329
Mof_C 	C 	0.83525	0.4838	0.1738	-0.104
Mof_C 	C 	0.8446	0.4177	0.2085	0.035
Mof_H 	H 	0.8338	0.3723	0.1981	0.041
Mof_C 	C 	0.87005	0.417	0.2592	-0.114
Mof_H 	H 	0.8758	0.3719	0.2832	0.068
Mof_C 	C 	0.88668	0.484	0.2734	0.056
Mof_C 	C 	0.87708	0.5504	0.238	-0.118
Mof_H 	H 	0.8878	0.596	0.2482	0.066
Mof_C 	C 	0.85216	0.5503	0.1882	0.039
Mof_H 	H 	0.8466	0.5954	0.1639	0.031
Mof_C 	C 	0.91524	0.4836	0.3245	-0.004
Mof_C 	C 	0.96966	0.4894	0.4178	0.07
Mof_C 	C 	0.9162	0.4422	0.3906	-0.026
Mof_H 	H 	0.8983	0.4137	0.4051	0.031
Mof_C 	C 	0.94368	0.4427	0.4358	-0.053
Mof_H 	H 	0.9446	0.4118	0.4779	0.042
Mof_C 	C 	0.9695	0.5297	0.3509	-0.054
Mof_H 	H 	0.9875	0.5575	0.3364	0.037
Mof_C 	C 	0.94238	0.5281	0.3061	-0.032
Mof_H 	H 	0.9421	0.5571	0.2626	0.038
Mof_C 	C 	0.661	0.3854	0.941	-0.004
Mof_H 	H 	0.6687	0.4235	0.9096	0.043
Mof_C 	C 	0.6315	0.3516	0.9249	-0.051
Mof_H 	H 	0.6202	0.3655	0.8823	0.04
Mof_C 	C 	0.6352	0.2793	0.038	-0.053
Mof_H 	H 	0.6257	0.2453	0.0713	0.041
Mof_C 	C 	0.66518	0.3114	0.0543	-0.021
Mof_H 	H 	0.6758	0.2987	0.0981	0.048
Mof_C 	C 	0.5841	0.2312	0.8815	-0.071
Mof_H 	H 	0.6009	0.2313	0.8474	0.05
Mof_C 	C 	0.55473	0.1969	0.863	-0.011
Mof_H 	H 	0.5511	0.1811	0.8142	0.031
Mof_C 	C 	0.53545	0.2211	0.9877	0.016
Mof_H 	H 	0.5194	0.2179	0.0238	0.015
Mof_C 	C 	0.56377	0.2607	0.0047	-0.103
Mof_H 	H 	0.5659	0.2862	0.05	0.057
Mof_C 	C 	0.4632	0.9928	0.7901	-0.237
Mof_H 	H 	0.4786	0.9971	0.7527	0.096
Mof_C 	C 	0.4354	0.9513	0.7738	0.168
Mof_H 	H 	0.432	0.9311	0.7265	-0.043
Mof_C 	C 	0.41407	0.9851	0.8952	-0.03
Mof_H 	H 	0.3965	0.9888	0.9272	0.031
Mof_C 	C 	0.44317	0.0233	0.9092	-0.061
Mof_H 	H 	0.4455	0.0472	0.9552	0.051
Mof_C 	C 	0.35515	0.9053	0.8575	-0.038
Mof_H 	H 	0.355	0.9403	0.8965	0.038
Mof_C 	C 	0.32716	0.8607	0.8425	-0.024
Mof_H 	H 	0.3086	0.8659	0.871	0.047
Mof_C 	C 	0.35137	0.8159	0.7281	0.013
Mof_H 	H 	0.3486	0.7922	0.6822	0.027
Mof_C 	C 	0.37917	0.8607	0.7428	-0.049
Mof_H 	H 	0.3948	0.8659	0.706	0.037
Mof_C 	C 	0.71192	0.3963	0.0184	0.31
Mof_C 	C 	0.67934	0.364	0.0027	-0.095
Mof_C 	C 	0.61931	0.2982	0.9718	0.056
Mof_C 	C 	0.5883	0.2615	0.9541	0.007
Mof_C 	C 	0.53022	0.1857	0.9182	0.052
Mof_C 	C 	0.46959	0.0281	0.8576	0.084
Mof_C 	C 	0.41312	0.941	0.8295	-0.016
Mof_C 	C 	0.7605	0.4775	0.2806	0.16
Mof_C 	C 	0.7241	0.5495	0.1985	-0.004
Mof_C 	C 	0.7695	0.6134	0.2707	0.04
Mof_Cd	Cd	0.758	0.33341	0.14948	0.483
Mof_O 	O 	0.72095	0.4023	0.0856	-0.286
Mof_O 	O 	0.72855	0.418	0.9654	-0.281
Mof_O 	O 	0.79358	0.4236	0.1026	-0.294
Mof_O 	O 	0.80276	0.5443	0.0834	-0.283
Mof_C 	C 	0.38354	0.8975	0.812	0.044
Mof_C 	C 	0.32865	0.8085	0.7831	-0.099
Mof_C 	C 	0.2996	0.7585	0.7671	0.36
Mof_O 	O 	0.29622	0.7315	0.7066	-0.32
Mof_O 	O 	0.2803	0.7491	0.8198	-0.305
Mof_C 	C 	0.9369	0.4213	0.3282	-0.026
Mof_H 	H 	0.9331	0.3775	0.3001	0.034
Mof_C 	C 	0.9641	0.4252	0.3736	-0.064
Mof_H 	H 	0.9785	0.3846	0.3744	0.045
Mof_C 	C 	0.9465	0.5473	0.4182	-0.065
Mof_H 	H 	0.9491	0.5885	0.4506	0.046
Mof_C 	C 	0.9199	0.5454	0.3718	-0.022
Mof_H 	H 	0.9051	0.5854	0.3724	0.029
Mof_C 	C 	0.6541	0.3755	0.0506	0.022
Mof_H 	H 	0.6567	0.4042	0.0939	0.029
Mof_C 	C 	0.6246	0.3435	0.0331	-0.076
Mof_H 	H 	0.6073	0.3533	0.0646	0.045
Mof_C 	C 	0.6452	0.2908	0.9212	-0.072
Mof_H 	H 	0.6423	0.2637	0.8771	0.052
Mof_C 	C 	0.67468	0.323	0.9363	0.015
Mof_H 	H 	0.6915	0.3177	0.9026	0.037
Mof_C 	C 	0.55111	0.1531	0.9704	-0.11
Mof_H 	H 	0.5459	0.1073	0.994	0.063
Mof_C 	C 	0.58088	0.188	0.9842	0.024
Mof_H 	H 	0.596	0.1628	0.0134	0.009
Mof_C 	C 	0.56459	0.2962	0.9099	0.004
Mof_H 	H 	0.5671	0.3472	0.896	0.024
Mof_C 	C 	0.53714	0.2562	0.886	-0.093
Mof_H 	H 	0.5238	0.2766	0.8494	0.056
Mof_C 	C 	0.44	0.9117	0.8733	-0.052
Mof_H 	H 	0.4382	0.8631	0.8941	0.045
Mof_C 	C 	0.4684	0.9534	0.8857	-0.052
Mof_H 	H 	0.4857	0.9323	0.9113	0.036
Mof_C 	C 	0.4486	0.0514	0.803	0.117
Mof_H 	H 	0.4509	0.0986	0.7796	-0.016
Mof_C 	C 	0.42303	-7.74501e-33	0.7833	-0.177
Mof_H 	H 	0.4127	0.0066	0.7378	0.088
Mof_C 	C 	0.34688	0.803	0.8509	0.028
Mof_H 	H 	0.3395	0.7692	0.8871	0.019
Mof_C 	C 	0.37378	0.8459	0.8675	-0.095
Mof_H 	H 	0.3847	0.8409	0.9125	0.052
Mof_C 	C 	0.37268	0.8918	0.738	-0.042
Mof_H 	H 	0.3835	0.9161	0.6994	0.028
Mof_C 	C 	0.34598	0.8499	0.7247	-0.017
Mof_H 	H 	0.3383	0.8472	0.6762	0.032
Mof_C 	C 	4.62163e-33	0.4942	0.4629	-0.05
Mof_C 	C 	0.5	0.5058	0.9629	-0.042
Mof_C 	C 	0.5	0.4942	0.0371	-0.058
Mof_C 	C 	4.74171e-33	0.5058	0.5371	-0.049
Mof_C 	C 	0.5	0.1426	0.9004	-0.039
Mof_C 	C 	0.5	0.072	0.8737	-0.057
Mof_C 	C 	2.58423e-33	0.8574	0.4004	-0.051
Mof_C 	C 	-1.33148e-33	0.928	0.3737	-0.036
Mof_C 	C 	9.70349e-34	0.1426	0.5996	-0.04
Mof_C 	C 	1.01356e-33	0.072	0.6263	-0.057
Mof_C 	C 	0.5	0.8574	0.0996	-0.054
Mof_C 	C 	0.5	0.928	0.1263	-0.037
Mof_N 	N 	0.25	0.5466	0.25	-0.16
Mof_O 	O 	0.25	0.4176	0.25	-0.307
Mof_N 	N 	0.25	0.4534	0.75	-0.16
Mof_O 	O 	0.25	0.5824	0.75	-0.307
Mof_N 	N 	0.75	0.4534	0.75	-0.16
Mof_O 	O 	0.75	0.5824	0.75	-0.307
Mof_N 	N 	0.75	0.5466	0.25	-0.16
Mof_O 	O 	0.75	0.4176	0.25	-0.307
Mof_Cd	Cd	0.23401	0.5	-0	0.494
Mof_Cd	Cd	0.26599	0.5	0.5	0.499
Mof_Cd	Cd	0.76599	0.5	-0	0.494
Mof_Cd	Cd	0.73401	0.5	0.5	0.499
_end
