data_functionalizedCrystal
_audit_creation_method	'EQeq! by Chris Wilmer'
_symmetry_space_group_name_H-M	'P1'
_symmetry_Int_Tables_number	1
_symmetry_cell_setting	triclinic
loop_
_symmetry_equiv_pos_as_xyz
  x,y,z
_cell_length_a	20.695
_cell_length_b	9.9595
_cell_length_c	23.715
_cell_angle_alpha	90
_cell_angle_beta	101
_cell_angle_gamma	90
loop_
_atom_site_label
_atom_site_type_symbol
_atom_site_fract_x
_atom_site_fract_y
_atom_site_fract_z
_atom_site_charge
Mof_V 	V 	0.4399	0.57763	0.56418	1.706
Mof_V 	V 	0.27876	0.40827	0.72234	1.698
Mof_V 	V 	0.32622	0.90373	0.67284	1.699
Mof_P 	P 	0.44188	0.31474	0.49544	0.491
Mof_P 	P 	0.39394	0.87118	0.56065	0.548
Mof_P 	P 	0.28552	0.62312	0.82518	0.532
Mof_P 	P 	0.3103	0.61583	0.62369	0.568
Mof_O 	O 	0.40511	0.4454	0.50299	-0.503
Mof_O 	O 	0.40745	0.2527	0.43585	-0.195
Mof_O 	O 	0.43284	0.2147	0.54137	-0.225
Mof_O 	O 	0.51436	0.34133	0.49547	-0.516
Mof_O 	O 	0.34485	0.8131	0.50956	-0.486
Mof_O 	O 	0.43638	0.7603	0.592	-0.563
Mof_O 	O 	0.43961	0.9664	0.53367	-0.175
Mof_O 	O 	0.35963	0.95015	0.60139	-0.506
Mof_O 	O 	0.2759	0.58231	0.76128	-0.589
Mof_O 	O 	0.35518	0.58834	0.85614	-0.27
Mof_O 	O 	0.23541	0.5504	0.85511	-0.502
Mof_O 	O 	0.2742	0.77508	0.82874	-0.496
Mof_O 	O 	0.26888	0.51281	0.64969	-0.493
Mof_O 	O 	0.34869	0.70825	0.6704	-0.563
Mof_O 	O 	0.26134	0.7029	0.58276	-0.514
Mof_O 	O 	0.35719	0.53824	0.59298	-0.551
Mof_O 	O 	0.24201	0.33338	0.78664	-0.689
Mof_O 	O 	0.2228	0.9342	0.52463	-0.547
Mof_H 	H 	0.1837	0.9466	0.5115	0.262
Mof_V 	V 	0.9399	0.07763	0.56418	1.708
Mof_V 	V 	0.77876	0.90827	0.72234	1.697
Mof_V 	V 	0.82622	0.40373	0.67284	1.701
Mof_P 	P 	0.94188	0.81474	0.49544	0.492
Mof_P 	P 	0.89394	0.37118	0.56065	0.549
Mof_P 	P 	0.78552	0.12312	0.82518	0.532
Mof_P 	P 	0.8103	0.11583	0.62369	0.568
Mof_O 	O 	0.90511	0.9454	0.50299	-0.504
Mof_O 	O 	0.90745	0.7527	0.43585	-0.195
Mof_O 	O 	0.93284	0.7147	0.54137	-0.227
Mof_O 	O 	0.01436	0.84133	0.49547	-0.517
Mof_O 	O 	0.84485	0.3131	0.50956	-0.485
Mof_O 	O 	0.93638	0.2603	0.592	-0.563
Mof_O 	O 	0.93961	0.4664	0.53367	-0.174
Mof_O 	O 	0.85963	0.45015	0.60139	-0.505
Mof_O 	O 	0.7759	0.08231	0.76128	-0.587
Mof_O 	O 	0.85518	0.08834	0.85614	-0.269
Mof_O 	O 	0.73541	0.0504	0.85511	-0.499
Mof_O 	O 	0.7742	0.27508	0.82874	-0.495
Mof_O 	O 	0.76888	0.01281	0.64969	-0.491
Mof_O 	O 	0.84869	0.20825	0.6704	-0.562
Mof_O 	O 	0.76134	0.2029	0.58276	-0.513
Mof_O 	O 	0.85719	0.03824	0.59298	-0.55
Mof_O 	O 	0.74201	0.83338	0.78664	-0.691
Mof_O 	O 	0.7228	0.4342	0.52463	-0.546
Mof_H 	H 	0.6837	0.4466	0.5115	0.262
Mof_V 	V 	0.5601	0.57763	0.93582	1.712
Mof_V 	V 	0.72124	0.40827	0.77766	1.699
Mof_V 	V 	0.67378	0.90373	0.82716	1.7
Mof_P 	P 	0.55812	0.31474	0.00456	0.396
Mof_P 	P 	0.60606	0.87118	0.93935	0.546
Mof_P 	P 	0.71448	0.62312	0.67482	0.531
Mof_P 	P 	0.6897	0.61583	0.87631	0.568
Mof_O 	O 	0.59489	0.4454	0.99701	-0.436
Mof_O 	O 	0.59255	0.2527	0.06415	-0.201
Mof_O 	O 	0.56716	0.2147	0.95863	-0.171
Mof_O 	O 	0.48564	0.34133	0.00453	-0.53
Mof_O 	O 	0.65515	0.8131	0.99044	-0.452
Mof_O 	O 	0.56362	0.7603	0.908	-0.56
Mof_O 	O 	0.56039	0.9664	0.96633	-0.154
Mof_O 	O 	0.64037	0.95015	0.89861	-0.502
Mof_O 	O 	0.7241	0.58231	0.73872	-0.589
Mof_O 	O 	0.64482	0.58834	0.64386	-0.278
Mof_O 	O 	0.76459	0.5504	0.64489	-0.507
Mof_O 	O 	0.7258	0.77508	0.67126	-0.5
Mof_O 	O 	0.73112	0.51281	0.85031	-0.486
Mof_O 	O 	0.65131	0.70825	0.8296	-0.563
Mof_O 	O 	0.73866	0.7029	0.91724	-0.491
Mof_O 	O 	0.64281	0.53824	0.90702	-0.539
Mof_O 	O 	0.75799	0.33338	0.71336	-0.691
Mof_O 	O 	0.7772	0.9342	0.97537	-0.527
Mof_H 	H 	0.8163	0.9466	0.9885	0.288
Mof_V 	V 	0.0601	0.07763	0.93582	1.712
Mof_V 	V 	0.22124	0.90827	0.77766	1.697
Mof_V 	V 	0.17378	0.40373	0.82716	1.701
Mof_P 	P 	0.05812	0.81474	0.00456	0.397
Mof_P 	P 	0.10606	0.37118	0.93935	0.546
Mof_P 	P 	0.21448	0.12312	0.67482	0.531
Mof_P 	P 	0.1897	0.11583	0.87631	0.568
Mof_O 	O 	0.09489	0.9454	0.99701	-0.439
Mof_O 	O 	0.09255	0.7527	0.06415	-0.202
Mof_O 	O 	0.06716	0.7147	0.95863	-0.174
Mof_O 	O 	0.98564	0.84133	0.00453	-0.529
Mof_O 	O 	0.15515	0.3131	0.99044	-0.451
Mof_O 	O 	0.06362	0.2603	0.908	-0.559
Mof_O 	O 	0.06039	0.4664	0.96633	-0.152
Mof_O 	O 	0.14037	0.45015	0.89861	-0.5
Mof_O 	O 	0.2241	0.08231	0.73872	-0.586
Mof_O 	O 	0.14482	0.08834	0.64386	-0.276
Mof_O 	O 	0.26459	0.0504	0.64489	-0.504
Mof_O 	O 	0.2258	0.27508	0.67126	-0.499
Mof_O 	O 	0.23112	0.01281	0.85031	-0.484
Mof_O 	O 	0.15131	0.20825	0.8296	-0.562
Mof_O 	O 	0.23866	0.2029	0.91724	-0.489
Mof_O 	O 	0.14281	0.03824	0.90702	-0.538
Mof_O 	O 	0.25799	0.83338	0.71336	-0.693
Mof_O 	O 	0.2772	0.4342	0.97537	-0.525
Mof_H 	H 	0.3163	0.4466	0.9885	0.29
Mof_V 	V 	0.5601	0.42237	0.43582	1.707
Mof_V 	V 	0.72124	0.59173	0.27766	1.698
Mof_V 	V 	0.67378	0.09627	0.32716	1.7
Mof_P 	P 	0.55812	0.68526	0.50456	0.492
Mof_P 	P 	0.60606	0.12882	0.43935	0.549
Mof_P 	P 	0.71448	0.37688	0.17482	0.531
Mof_P 	P 	0.6897	0.38417	0.37631	0.568
Mof_O 	O 	0.59489	0.5546	0.49701	-0.503
Mof_O 	O 	0.59255	0.7473	0.56415	-0.195
Mof_O 	O 	0.56716	0.7853	0.45863	-0.227
Mof_O 	O 	0.48564	0.65867	0.50453	-0.516
Mof_O 	O 	0.65515	0.1869	0.49044	-0.485
Mof_O 	O 	0.56362	0.2397	0.408	-0.563
Mof_O 	O 	0.56039	0.0336	0.46633	-0.173
Mof_O 	O 	0.64037	0.04985	0.39861	-0.505
Mof_O 	O 	0.7241	0.41769	0.23872	-0.59
Mof_O 	O 	0.64482	0.41166	0.14386	-0.286
Mof_O 	O 	0.76459	0.4496	0.14489	-0.512
Mof_O 	O 	0.7258	0.22492	0.17126	-0.504
Mof_O 	O 	0.73112	0.48719	0.35031	-0.493
Mof_O 	O 	0.65131	0.29175	0.3296	-0.563
Mof_O 	O 	0.73866	0.2971	0.41724	-0.514
Mof_O 	O 	0.64281	0.46176	0.40702	-0.551
Mof_O 	O 	0.75799	0.66662	0.21336	-0.693
Mof_O 	O 	0.7772	0.0658	0.47537	-0.546
Mof_H 	H 	0.8163	0.0534	0.4885	0.263
Mof_V 	V 	0.0601	0.92237	0.43582	1.707
Mof_V 	V 	0.22124	0.09173	0.27766	1.697
Mof_V 	V 	0.17378	0.59627	0.32716	1.7
Mof_P 	P 	0.05812	0.18526	0.50456	0.492
Mof_P 	P 	0.10606	0.62882	0.43935	0.549
Mof_P 	P 	0.21448	0.87688	0.17482	0.531
Mof_P 	P 	0.1897	0.88417	0.37631	0.568
Mof_O 	O 	0.09489	0.0546	0.49701	-0.502
Mof_O 	O 	0.09255	0.2473	0.56415	-0.195
Mof_O 	O 	0.06716	0.2853	0.45863	-0.227
Mof_O 	O 	0.98564	0.15867	0.50453	-0.516
Mof_O 	O 	0.15515	0.6869	0.49044	-0.486
Mof_O 	O 	0.06362	0.7397	0.408	-0.563
Mof_O 	O 	0.06039	0.5336	0.46633	-0.174
Mof_O 	O 	0.14037	0.54985	0.39861	-0.505
Mof_O 	O 	0.2241	0.91769	0.23872	-0.589
Mof_O 	O 	0.14482	0.91166	0.14386	-0.285
Mof_O 	O 	0.26459	0.9496	0.14489	-0.511
Mof_O 	O 	0.2258	0.72492	0.17126	-0.504
Mof_O 	O 	0.23112	0.98719	0.35031	-0.493
Mof_O 	O 	0.15131	0.79175	0.3296	-0.563
Mof_O 	O 	0.23866	0.7971	0.41724	-0.514
Mof_O 	O 	0.14281	0.96176	0.40702	-0.551
Mof_O 	O 	0.25799	0.16662	0.21336	-0.694
Mof_O 	O 	0.2772	0.5658	0.47537	-0.546
Mof_H 	H 	0.3163	0.5534	0.4885	0.262
Mof_V 	V 	0.4399	0.42237	0.06418	1.703
Mof_V 	V 	0.27876	0.59173	0.22234	1.698
Mof_V 	V 	0.32622	0.09627	0.17284	1.7
Mof_P 	P 	0.44188	0.68526	0.99544	0.586
Mof_P 	P 	0.39394	0.12882	0.06065	0.551
Mof_P 	P 	0.28552	0.37688	0.32518	0.531
Mof_P 	P 	0.3103	0.38417	0.12369	0.568
Mof_O 	O 	0.40511	0.5546	0.00299	-0.569
Mof_O 	O 	0.40745	0.7473	0.93585	-0.189
Mof_O 	O 	0.43284	0.7853	0.04137	-0.28
Mof_O 	O 	0.51436	0.65867	0.99547	-0.503
Mof_O 	O 	0.34485	0.1869	0.00956	-0.512
Mof_O 	O 	0.43638	0.2397	0.092	-0.567
Mof_O 	O 	0.43961	0.0336	0.03367	-0.196
Mof_O 	O 	0.35963	0.04985	0.10139	-0.509
Mof_O 	O 	0.2759	0.41769	0.26128	-0.59
Mof_O 	O 	0.35518	0.41166	0.35614	-0.278
Mof_O 	O 	0.23541	0.4496	0.35511	-0.507
Mof_O 	O 	0.2742	0.22492	0.32874	-0.5
Mof_O 	O 	0.26888	0.48719	0.14969	-0.5
Mof_O 	O 	0.34869	0.29175	0.1704	-0.563
Mof_O 	O 	0.26134	0.2971	0.08276	-0.529
Mof_O 	O 	0.35719	0.46176	0.09298	-0.562
Mof_O 	O 	0.24201	0.66662	0.28664	-0.692
Mof_O 	O 	0.2228	0.0658	0.02463	-0.558
Mof_H 	H 	0.1837	0.0534	0.0115	0.233
Mof_V 	V 	0.9399	0.92237	0.06418	1.704
Mof_V 	V 	0.77876	0.09173	0.22234	1.697
Mof_V 	V 	0.82622	0.59627	0.17284	1.701
Mof_P 	P 	0.94188	0.18526	0.99544	0.583
Mof_P 	P 	0.89394	0.62882	0.06065	0.551
Mof_P 	P 	0.78552	0.87688	0.32518	0.531
Mof_P 	P 	0.8103	0.88417	0.12369	0.568
Mof_O 	O 	0.90511	0.0546	0.00299	-0.567
Mof_O 	O 	0.90745	0.2473	0.93585	-0.188
Mof_O 	O 	0.93284	0.2853	0.04137	-0.28
Mof_O 	O 	0.01436	0.15867	0.99547	-0.501
Mof_O 	O 	0.84485	0.6869	0.00956	-0.511
Mof_O 	O 	0.93638	0.7397	0.092	-0.566
Mof_O 	O 	0.93961	0.5336	0.03367	-0.196
Mof_O 	O 	0.85963	0.54985	0.10139	-0.509
Mof_O 	O 	0.7759	0.91769	0.26128	-0.589
Mof_O 	O 	0.85518	0.91166	0.35614	-0.277
Mof_O 	O 	0.73541	0.9496	0.35511	-0.507
Mof_O 	O 	0.7742	0.72492	0.32874	-0.5
Mof_O 	O 	0.76888	0.98719	0.14969	-0.499
Mof_O 	O 	0.84869	0.79175	0.1704	-0.563
Mof_O 	O 	0.76134	0.7971	0.08276	-0.528
Mof_O 	O 	0.85719	0.96176	0.09298	-0.561
Mof_O 	O 	0.74201	0.16662	0.28664	-0.692
Mof_O 	O 	0.7228	0.5658	0.02463	-0.557
Mof_H 	H 	0.6837	0.5534	0.0115	0.234
Mof_V 	V 	0.25	0.75	0.5	1.783
Mof_V 	V 	0.75	0.75	-0	1.757
Mof_V 	V 	0.75	0.25	0.5	1.783
Mof_V 	V 	0.25	0.25	-0	1.756
_end
