# CIF file generated by openbabel 3.1.0, see https://openbabel.org
data_I
_chemical_name_common 'image0'
_cell_length_a 9.5603
_cell_length_b 12.1386
_cell_length_c 15.9458
_cell_angle_alpha 88.455
_cell_angle_beta 74.417
_cell_angle_gamma 70.233
_space_group_name_H-M_alt 'P 1'
_space_group_name_Hall 'P 1'
loop_
    _symmetry_equiv_pos_as_xyz
    x,y,z
loop_
    _atom_site_label
    _atom_site_type_symbol
    _atom_site_fract_x
    _atom_site_fract_y
    _atom_site_fract_z
    _atom_site_occupancy
    Ce1      Ce       0.29554    0.97447    0.01829    1.000
    O1       O        0.12540    0.88350    0.11778    1.000
    O2       O        0.01090    0.75750    0.09946    1.000
    H1       H        0.99180    0.79980    0.05850    1.000
    O3       O        0.23690    0.06280    0.16735    1.000
    O4       O        0.44120    0.09820    0.08460    1.000
    O5       O        0.53420    0.16920    0.90960    1.000
    O6       O        0.32130    0.12400    0.92131    1.000
    O7       O        0.20630    0.89060    0.91296    1.000
    O8       O        0.96970    0.87830    0.96102    1.000
    C1       C        0.22380    0.55110    0.43960    1.000
    C2       C        0.27300    0.42810    0.44050    1.000
    C3       C        0.30440    0.37640    0.51550    1.000
    H2       H        0.33980    0.29320    0.51490    1.000
    C4       C        0.28670    0.44050    0.59170    1.000
    C5       C        0.23320    0.56440    0.59210    1.000
    C6       C        0.20740    0.61500    0.51550    1.000
    H3       H        0.17690    0.69800    0.51490    1.000
    C7       C        0.18390    0.61610    0.36360    1.000
    C8       C        0.11270    0.57600    0.31060    1.000
    H4       H        0.08510    0.50820    0.32460    1.000
    C9       C        0.08230    0.63380    0.23840    1.000
    H5       H        0.03730    0.60390    0.20210    1.000
    C10      C        0.11710    0.73540    0.21810    1.000
    C11      C        0.18390    0.77890    0.27150    1.000
    H6       H        0.20700    0.84880    0.25860    1.000
    C12      C        0.21620    0.71960    0.34320    1.000
    H7       H        0.26120    0.74960    0.37950    1.000
    C13      C        0.08600    0.79890    0.14080    1.000
    C14      C        0.29400    0.34630    0.36610    1.000
    C15      C        0.40270    0.33710    0.28670    1.000
    H8       H        0.46470    0.38550    0.27770    1.000
    C16      C        0.42150    0.25730    0.22000    1.000
    H9       H        0.49970    0.24900    0.16680    1.000
    C17      C        0.32760    0.19010    0.23020    1.000
    C18      C        0.21820    0.19910    0.31020    1.000
    H10      H        0.15350    0.15280    0.31810    1.000
    C19      C        0.20300    0.27440    0.37790    1.000
    H11      H        0.13060    0.27770    0.43270    1.000
    C20      C        0.33650    0.11220    0.15750    1.000
    C21      C        0.32220    0.37410    0.66790    1.000
    C22      C        0.27990    0.27520    0.68730    1.000
    H12      H        0.23010    0.25040    0.65110    1.000
    C23      C        0.30860    0.21270    0.75780    1.000
    H13      H        0.27490    0.14740    0.77110    1.000
    C24      C        0.38710    0.24450    0.80990    1.000
    C25      C        0.43470    0.34070    0.78980    1.000
    H14      H        0.49030    0.36230    0.82380    1.000
    C26      C        0.40110    0.40530    0.71970    1.000
    H15      H        0.43250    0.47170    0.70700    1.000
    C27      C        0.41700    0.17510    0.88640    1.000
    C28      C        0.19520    0.64300    0.67130    1.000
    C29      C        0.09640    0.62950    0.74950    1.000
    H16      H        0.05330    0.56910    0.75250    1.000
    C30      C        0.06000    0.70320    0.82320    1.000
    H17      H        0.98940    0.69470    0.87550    1.000
    C31      C        0.12660    0.78950    0.82060    1.000
    C32      C        0.22410    0.80430    0.74280    1.000
    H18      H        0.26980    0.86300    0.74060    1.000
    C33      C        0.25560    0.73370    0.66800    1.000
    H19      H        0.31850    0.74720    0.61440    1.000
    C34      C        0.09920    0.85910    0.90250    1.000
    Ce2      Ce       0.70446    0.02553    0.98171    1.000
    O9       O        0.87460    0.11650    0.88222    1.000
    O10      O        0.98910    0.24250    0.90054    1.000
    H20      H        0.00820    0.20020    0.94150    1.000
    O11      O        0.76310    0.93720    0.83265    1.000
    O12      O        0.55880    0.90180    0.91540    1.000
    O13      O        0.46580    0.83080    0.09040    1.000
    O14      O        0.67870    0.87600    0.07869    1.000
    O15      O        0.79370    0.10940    0.08704    1.000
    O16      O        0.03030    0.12170    0.03898    1.000
    C35      C        0.77620    0.44890    0.56040    1.000
    C36      C        0.72700    0.57190    0.55950    1.000
    C37      C        0.69560    0.62360    0.48450    1.000
    H21      H        0.66020    0.70680    0.48510    1.000
    C38      C        0.71330    0.55950    0.40830    1.000
    C39      C        0.76680    0.43560    0.40790    1.000
    C40      C        0.79260    0.38500    0.48450    1.000
    H22      H        0.82310    0.30200    0.48510    1.000
    C41      C        0.81610    0.38390    0.63640    1.000
    C42      C        0.88730    0.42400    0.68940    1.000
    H23      H        0.91490    0.49180    0.67540    1.000
    C43      C        0.91770    0.36620    0.76160    1.000
    H24      H        0.96270    0.39610    0.79790    1.000
    C44      C        0.88290    0.26460    0.78190    1.000
    C45      C        0.81610    0.22110    0.72850    1.000
    H25      H        0.79300    0.15120    0.74140    1.000
    C46      C        0.78380    0.28040    0.65680    1.000
    H26      H        0.73880    0.25040    0.62050    1.000
    C47      C        0.91400    0.20110    0.85920    1.000
    C48      C        0.70600    0.65370    0.63390    1.000
    C49      C        0.59730    0.66290    0.71330    1.000
    H27      H        0.53530    0.61450    0.72230    1.000
    C50      C        0.57850    0.74270    0.78000    1.000
    H28      H        0.50030    0.75100    0.83320    1.000
    C51      C        0.67240    0.80990    0.76980    1.000
    C52      C        0.78180    0.80090    0.68980    1.000
    H29      H        0.84650    0.84720    0.68190    1.000
    C53      C        0.79700    0.72560    0.62210    1.000
    H30      H        0.86940    0.72230    0.56730    1.000
    C54      C        0.66350    0.88780    0.84250    1.000
    C55      C        0.67780    0.62590    0.33210    1.000
    C56      C        0.72010    0.72480    0.31270    1.000
    H31      H        0.76990    0.74960    0.34890    1.000
    C57      C        0.69140    0.78730    0.24220    1.000
    H32      H        0.72510    0.85260    0.22890    1.000
    C58      C        0.61290    0.75550    0.19010    1.000
    C59      C        0.56530    0.65930    0.21020    1.000
    H33      H        0.50970    0.63770    0.17620    1.000
    C60      C        0.59890    0.59470    0.28030    1.000
    H34      H        0.56750    0.52830    0.29300    1.000
    C61      C        0.58300    0.82490    0.11360    1.000
    C62      C        0.80480    0.35700    0.32870    1.000
    C63      C        0.90360    0.37050    0.25050    1.000
    H35      H        0.94670    0.43090    0.24750    1.000
    C64      C        0.94000    0.29680    0.17680    1.000
    H36      H        0.01060    0.30530    0.12450    1.000
    C65      C        0.87340    0.21050    0.17940    1.000
    C66      C        0.77590    0.19570    0.25720    1.000
    H37      H        0.73020    0.13700    0.25940    1.000
    C67      C        0.74440    0.26630    0.33200    1.000
    H38      H        0.68150    0.25280    0.38560    1.000
    C68      C        0.90080    0.14090    0.09750    1.000
