data_functionalizedCrystal
_audit_creation_method	'EQeq! by Chris Wilmer'
_symmetry_space_group_name_H-M	'P1'
_symmetry_Int_Tables_number	1
_symmetry_cell_setting	triclinic
loop_
_symmetry_equiv_pos_as_xyz
  x,y,z
_cell_length_a	34.1814
_cell_length_b	34.1814
_cell_length_c	34.1814
_cell_angle_alpha	90
_cell_angle_beta	90
_cell_angle_gamma	90
loop_
_atom_site_label
_atom_site_type_symbol
_atom_site_fract_x
_atom_site_fract_y
_atom_site_fract_z
_atom_site_charge
Mof_C 	C 	0.019	0.7166	0.0745	-0.043
Mof_C 	C 	0.0521	0.7783	0.1045	-0.025
Mof_C 	C 	0.1064	0.8979	0.0441	-0.152
Mof_H 	H 	0.1215	0.8912	0.0217	0.073
Mof_C 	C 	0.0919	0.9361	0.0469	0.315
Mof_C 	C 	0.0692	0.9453	0.0788	-0.261
Mof_H 	H 	0.0581	0.9707	0.0815	0.154
Mof_C 	C 	0.0626	0.9169	0.1071	0.051
Mof_H 	H 	0.0472	0.9227	0.1294	0.018
Mof_C 	C 	0.0787	0.8803	0.1024	-0.029
Mof_H 	H 	0.0745	0.8613	0.1222	0.038
Mof_C 	C 	0.1277	0.731	0.0492	0.041
Mof_H 	H 	0.1	0.7327	0.0496	0.031
Mof_C 	C 	0.1459	0.6962	0.0387	-0.042
Mof_C 	C 	0.1857	0.6927	0.0385	0.012
Mof_H 	H 	0.1978	0.6688	0.0311	0.029
Mof_C 	C 	0.2072	0.7231	0.049	-0.108
Mof_H 	H 	0.2349	0.7211	0.0493	0.074
Mof_C 	C 	0.1896	0.7574	0.0592	0.071
Mof_H 	H 	0.2056	0.7787	0.0668	0.002
Mof_C 	C 	0.101	0.9659	0.015	-0.882
Mof_H 	H 	0.1283	0.9706	0.0173	0.391
Mof_H 	H 	0.0961	0.9558	0.9896	-0.065
Mof_C 	C 	0.1243	0.6608	0.0248	0.044
Mof_H 	H 	0.1422	0.6441	0.0093	0.058
Mof_H 	H 	0.1153	0.6455	0.0476	-0.013
Mof_N 	N 	0.03	0.699	0.0482	-0.108
Mof_N 	N 	0.079	0.7929	0.0908	-0.181
Mof_N 	N 	0.10016	0.8704	0.0713	-0.137
Mof_N 	N 	0.15	0.7625	0.0589	-0.186
Mof_O 	O 	0.0914	0.6717	0.0013	-0.362
Mof_H 	H 	0.0704	0.679	0.992	0.258
Mof_O 	O 	0.0799	0.0001	0.0174	-0.814
Mof_H 	H 	0.0581	0.011	0.022	0.309
Mof_H 	H 	0.1105	0.9524	0.9927	0.289
Mof_H 	H 	0.0784	0.9802	0.0072	0.751
Mof_C 	C 	0.1194	0.6622	0.0316	0.057
Mof_H 	H 	0.135	0.6391	0.0235	-0.024
Mof_H 	H 	0.1054	0.6555	0.056	0.041
Mof_O 	O 	0.1275	0.9947	0.0279	-0.173
Mof_H 	H 	0.1476	0.9922	0.0131	0.041
Mof_C 	C 	0.519	0.2166	0.5745	-0.043
Mof_C 	C 	0.5521	0.2783	0.6045	-0.026
Mof_C 	C 	0.6064	0.3979	0.5441	-0.147
Mof_H 	H 	0.6215	0.3912	0.5217	0.071
Mof_C 	C 	0.5919	0.4361	0.5469	0.303
Mof_C 	C 	0.5692	0.4453	0.5788	-0.254
Mof_H 	H 	0.5581	0.4707	0.5815	0.149
Mof_C 	C 	0.5626	0.4169	0.6071	0.045
Mof_H 	H 	0.5472	0.4227	0.6294	0.019
Mof_C 	C 	0.5787	0.3803	0.6024	-0.027
Mof_H 	H 	0.5745	0.3613	0.6222	0.036
Mof_C 	C 	0.6277	0.231	0.5492	0.04
Mof_H 	H 	0.6	0.2327	0.5496	0.03
Mof_C 	C 	0.6459	0.1962	0.5387	-0.041
Mof_C 	C 	0.6857	0.1927	0.5385	0.011
Mof_H 	H 	0.6978	0.1688	0.5311	0.029
Mof_C 	C 	0.7072	0.2231	0.549	-0.109
Mof_H 	H 	0.7349	0.2211	0.5493	0.073
Mof_C 	C 	0.6896	0.2574	0.5592	0.07
Mof_H 	H 	0.7056	0.2787	0.5668	0.001
Mof_C 	C 	0.601	0.4659	0.515	-0.853
Mof_H 	H 	0.6283	0.4706	0.5173	0.383
Mof_H 	H 	0.5961	0.4558	0.4896	-0.067
Mof_C 	C 	0.6243	0.1608	0.5248	0.041
Mof_H 	H 	0.6422	0.1441	0.5093	0.058
Mof_H 	H 	0.6153	0.1455	0.5476	-0.012
Mof_N 	N 	0.53	0.199	0.5482	-0.108
Mof_N 	N 	0.579	0.2929	0.5908	-0.181
Mof_N 	N 	0.60016	0.3704	0.5713	-0.14
Mof_N 	N 	0.65	0.2625	0.5589	-0.187
Mof_O 	O 	0.5914	0.1717	0.5013	-0.356
Mof_H 	H 	0.5704	0.179	0.492	0.252
Mof_O 	O 	0.5799	0.5001	0.5174	-0.801
Mof_H 	H 	0.5581	0.511	0.522	0.306
Mof_H 	H 	0.6105	0.4524	0.4927	0.277
Mof_H 	H 	0.5784	0.4802	0.5072	0.732
Mof_C 	C 	0.6194	0.1622	0.5316	0.056
Mof_H 	H 	0.635	0.1391	0.5235	-0.024
Mof_H 	H 	0.6054	0.1555	0.556	0.04
Mof_O 	O 	0.6275	0.4947	0.5279	-0.18
Mof_H 	H 	0.6476	0.4922	0.5131	0.046
Mof_C 	C 	0.481	0.2834	0.5745	-0.043
Mof_C 	C 	0.4479	0.2217	0.6045	-0.026
Mof_C 	C 	0.3936	0.1021	0.5441	-0.146
Mof_H 	H 	0.3785	0.1088	0.5217	0.07
Mof_C 	C 	0.4081	0.0639	0.5469	0.3
Mof_C 	C 	0.4308	0.0547	0.5788	-0.251
Mof_H 	H 	0.4419	0.0293	0.5815	0.147
Mof_C 	C 	0.4374	0.0831	0.6071	0.043
Mof_H 	H 	0.4528	0.0773	0.6294	0.02
Mof_C 	C 	0.4213	0.1197	0.6024	-0.026
Mof_H 	H 	0.4255	0.1387	0.6222	0.036
Mof_C 	C 	0.3723	0.269	0.5492	0.04
Mof_H 	H 	0.4	0.2673	0.5496	0.03
Mof_C 	C 	0.3541	0.3038	0.5387	-0.041
Mof_C 	C 	0.3143	0.3073	0.5385	0.011
Mof_H 	H 	0.3022	0.3312	0.5311	0.029
Mof_C 	C 	0.2928	0.2769	0.549	-0.109
Mof_H 	H 	0.2651	0.2789	0.5493	0.073
Mof_C 	C 	0.3104	0.2426	0.5592	0.07
Mof_H 	H 	0.2944	0.2213	0.5668	0.001
Mof_C 	C 	0.399	0.0341	0.515	-0.844
Mof_H 	H 	0.3717	0.0294	0.5173	0.382
Mof_H 	H 	0.4039	0.0442	0.4896	-0.063
Mof_C 	C 	0.3757	0.3392	0.5248	0.041
Mof_H 	H 	0.3578	0.3559	0.5093	0.059
Mof_H 	H 	0.3847	0.3545	0.5476	-0.012
Mof_N 	N 	0.47	0.301	0.5482	-0.108
Mof_N 	N 	0.421	0.2071	0.5908	-0.181
Mof_N 	N 	0.39984	0.1296	0.5713	-0.141
Mof_N 	N 	0.35	0.2375	0.5589	-0.187
Mof_O 	O 	0.4086	0.3283	0.5013	-0.356
Mof_H 	H 	0.4296	0.321	0.492	0.252
Mof_O 	O 	0.4201	0.9999	0.5174	-0.787
Mof_H 	H 	0.4419	0.989	0.522	0.303
Mof_H 	H 	0.3895	0.0476	0.4927	0.272
Mof_H 	H 	0.4216	0.0198	0.5072	0.72
Mof_C 	C 	0.3806	0.3378	0.5316	0.056
Mof_H 	H 	0.365	0.3609	0.5235	-0.024
Mof_H 	H 	0.3946	0.3445	0.556	0.04
Mof_O 	O 	0.3725	0.0053	0.5279	-0.185
Mof_H 	H 	0.3524	0.0078	0.5131	0.047
Mof_C 	C 	0.981	0.7834	0.0745	-0.04
Mof_C 	C 	0.9479	0.7217	0.1045	-0.023
Mof_C 	C 	0.8936	0.6021	0.0441	-0.152
Mof_H 	H 	0.8785	0.6088	0.0217	0.071
Mof_C 	C 	0.9081	0.5639	0.0469	0.311
Mof_C 	C 	0.9308	0.5547	0.0788	-0.259
Mof_H 	H 	0.9419	0.5293	0.0815	0.151
Mof_C 	C 	0.9374	0.5831	0.1071	0.048
Mof_H 	H 	0.9528	0.5773	0.1294	0.019
Mof_C 	C 	0.9213	0.6197	0.1024	-0.029
Mof_H 	H 	0.9255	0.6387	0.1222	0.037
Mof_C 	C 	0.8723	0.769	0.0492	0.04
Mof_H 	H 	0.9	0.7673	0.0496	0.03
Mof_C 	C 	0.8541	0.8038	0.0387	-0.043
Mof_C 	C 	0.8143	0.8073	0.0385	0.012
Mof_H 	H 	0.8022	0.8312	0.0311	0.028
Mof_C 	C 	0.7928	0.7769	0.049	-0.11
Mof_H 	H 	0.7651	0.7789	0.0493	0.073
Mof_C 	C 	0.8104	0.7426	0.0592	0.07
Mof_H 	H 	0.7944	0.7213	0.0668	0.001
Mof_C 	C 	0.899	0.5341	0.015	-0.875
Mof_H 	H 	0.8717	0.5294	0.0173	0.389
Mof_H 	H 	0.9039	0.5442	0.9896	-0.063
Mof_C 	C 	0.8757	0.8392	0.0248	0.043
Mof_H 	H 	0.8578	0.8559	0.0093	0.058
Mof_H 	H 	0.8847	0.8545	0.0476	-0.014
Mof_N 	N 	0.97	0.801	0.0482	-0.108
Mof_N 	N 	0.921	0.7071	0.0908	-0.182
Mof_N 	N 	0.89984	0.6296	0.0713	-0.139
Mof_N 	N 	0.85	0.7375	0.0589	-0.187
Mof_O 	O 	0.9086	0.8283	0.0013	-0.363
Mof_H 	H 	0.9296	0.821	0.992	0.258
Mof_O 	O 	0.9201	0.4999	0.0174	-0.803
Mof_H 	H 	0.9419	0.489	0.022	0.306
Mof_H 	H 	0.8895	0.5476	0.9927	0.283
Mof_H 	H 	0.9216	0.5198	0.0072	0.739
Mof_C 	C 	0.8806	0.8378	0.0316	0.057
Mof_H 	H 	0.865	0.8609	0.0235	-0.025
Mof_H 	H 	0.8946	0.8445	0.056	0.041
Mof_O 	O 	0.8725	0.5053	0.0279	-0.177
Mof_H 	H 	0.8524	0.5078	0.0131	0.042
Mof_C 	C 	0.981	0.2166	0.4255	-0.039
Mof_C 	C 	0.9479	0.2783	0.3955	-0.023
Mof_C 	C 	0.8936	0.3979	0.4559	-0.147
Mof_H 	H 	0.8785	0.3912	0.4783	0.071
Mof_C 	C 	0.9081	0.4361	0.4531	0.303
Mof_C 	C 	0.9308	0.4453	0.4212	-0.253
Mof_H 	H 	0.9419	0.4707	0.4185	0.15
Mof_C 	C 	0.9374	0.4169	0.3929	0.044
Mof_H 	H 	0.9528	0.4227	0.3706	0.02
Mof_C 	C 	0.9213	0.3803	0.3976	-0.027
Mof_H 	H 	0.9255	0.3613	0.3778	0.036
Mof_C 	C 	0.8723	0.231	0.4508	0.04
Mof_H 	H 	0.9	0.2327	0.4504	0.03
Mof_C 	C 	0.8541	0.1962	0.4613	-0.041
Mof_C 	C 	0.8143	0.1927	0.4615	0.011
Mof_H 	H 	0.8022	0.1688	0.4689	0.029
Mof_C 	C 	0.7928	0.2231	0.451	-0.109
Mof_H 	H 	0.7651	0.2211	0.4507	0.073
Mof_C 	C 	0.8104	0.2574	0.4408	0.07
Mof_H 	H 	0.7944	0.2787	0.4332	0.001
Mof_C 	C 	0.899	0.4659	0.485	-0.853
Mof_H 	H 	0.8717	0.4706	0.4827	0.383
Mof_H 	H 	0.9039	0.4558	0.5104	-0.066
Mof_C 	C 	0.8757	0.1608	0.4752	0.042
Mof_H 	H 	0.8578	0.1441	0.4907	0.059
Mof_H 	H 	0.8847	0.1455	0.4524	-0.012
Mof_N 	N 	0.97	0.199	0.4518	-0.108
Mof_N 	N 	0.921	0.2929	0.4092	-0.182
Mof_N 	N 	0.89984	0.3704	0.4287	-0.14
Mof_N 	N 	0.85	0.2625	0.4411	-0.187
Mof_O 	O 	0.9086	0.1717	0.4987	-0.356
Mof_H 	H 	0.9296	0.179	0.508	0.252
Mof_O 	O 	0.9201	0.5001	0.4826	-0.801
Mof_H 	H 	0.9419	0.511	0.478	0.307
Mof_H 	H 	0.8895	0.4524	0.5073	0.277
Mof_H 	H 	0.9216	0.4802	0.4928	0.732
Mof_C 	C 	0.8806	0.1622	0.4684	0.056
Mof_H 	H 	0.865	0.1391	0.4765	-0.024
Mof_H 	H 	0.8946	0.1555	0.444	0.04
Mof_O 	O 	0.8725	0.4947	0.4721	-0.179
Mof_H 	H 	0.8524	0.4922	0.4869	0.046
Mof_C 	C 	0.481	0.7166	0.9255	-0.043
Mof_C 	C 	0.4479	0.7783	0.8955	-0.025
Mof_C 	C 	0.3936	0.8979	0.9559	-0.145
Mof_H 	H 	0.3785	0.8912	0.9783	0.071
Mof_C 	C 	0.4081	0.9361	0.9531	0.3
Mof_C 	C 	0.4308	0.9453	0.9212	-0.251
Mof_H 	H 	0.4419	0.9707	0.9185	0.15
Mof_C 	C 	0.4374	0.9169	0.8929	0.043
Mof_H 	H 	0.4528	0.9227	0.8706	0.02
Mof_C 	C 	0.4213	0.8803	0.8976	-0.026
Mof_H 	H 	0.4255	0.8613	0.8778	0.036
Mof_C 	C 	0.3723	0.731	0.9508	0.039
Mof_H 	H 	0.4	0.7327	0.9504	0.031
Mof_C 	C 	0.3541	0.6962	0.9613	-0.039
Mof_C 	C 	0.3143	0.6927	0.9615	0.01
Mof_H 	H 	0.3022	0.6688	0.9689	0.029
Mof_C 	C 	0.2928	0.7231	0.951	-0.108
Mof_H 	H 	0.2651	0.7211	0.9507	0.074
Mof_C 	C 	0.3104	0.7574	0.9408	0.07
Mof_H 	H 	0.2944	0.7787	0.9332	0.001
Mof_C 	C 	0.399	0.9659	0.985	-0.839
Mof_H 	H 	0.3717	0.9706	0.9827	0.378
Mof_H 	H 	0.4039	0.9558	0.0104	-0.073
Mof_C 	C 	0.3757	0.6608	0.9752	0.04
Mof_H 	H 	0.3578	0.6441	0.9907	0.06
Mof_H 	H 	0.3847	0.6455	0.9524	-0.011
Mof_N 	N 	0.47	0.699	0.9518	-0.107
Mof_N 	N 	0.421	0.7929	0.9092	-0.182
Mof_N 	N 	0.39984	0.8704	0.9287	-0.141
Mof_N 	N 	0.35	0.7625	0.9411	-0.187
Mof_O 	O 	0.4086	0.6717	0.9987	-0.349
Mof_H 	H 	0.4296	0.679	0.008	0.246
Mof_O 	O 	0.4201	0.0001	0.9826	-0.813
Mof_H 	H 	0.4419	0.011	0.978	0.311
Mof_H 	H 	0.3895	0.9524	0.0073	0.276
Mof_H 	H 	0.4216	0.9802	0.9928	0.737
Mof_C 	C 	0.3806	0.6622	0.9684	0.054
Mof_H 	H 	0.365	0.6391	0.9765	-0.024
Mof_H 	H 	0.3946	0.6555	0.944	0.039
Mof_O 	O 	0.3725	0.9947	0.9721	-0.177
Mof_H 	H 	0.3524	0.9922	0.9869	0.049
Mof_C 	C 	0.519	0.7834	0.9255	-0.043
Mof_C 	C 	0.5521	0.7217	0.8955	-0.025
Mof_C 	C 	0.6064	0.6021	0.9559	-0.143
Mof_H 	H 	0.6215	0.6088	0.9783	0.07
Mof_C 	C 	0.5919	0.5639	0.9531	0.296
Mof_C 	C 	0.5692	0.5547	0.9212	-0.248
Mof_H 	H 	0.5581	0.5293	0.9185	0.147
Mof_C 	C 	0.5626	0.5831	0.8929	0.041
Mof_H 	H 	0.5472	0.5773	0.8706	0.02
Mof_C 	C 	0.5787	0.6197	0.8976	-0.025
Mof_H 	H 	0.5745	0.6387	0.8778	0.035
Mof_C 	C 	0.6277	0.769	0.9508	0.039
Mof_H 	H 	0.6	0.7673	0.9504	0.031
Mof_C 	C 	0.6459	0.8038	0.9613	-0.039
Mof_C 	C 	0.6857	0.8073	0.9615	0.01
Mof_H 	H 	0.6978	0.8312	0.9689	0.029
Mof_C 	C 	0.7072	0.7769	0.951	-0.108
Mof_H 	H 	0.7349	0.7789	0.9507	0.074
Mof_C 	C 	0.6896	0.7426	0.9408	0.07
Mof_H 	H 	0.7056	0.7213	0.9332	0.001
Mof_C 	C 	0.601	0.5341	0.985	-0.83
Mof_H 	H 	0.6283	0.5294	0.9827	0.377
Mof_H 	H 	0.5961	0.5442	0.0104	-0.07
Mof_C 	C 	0.6243	0.8392	0.9752	0.04
Mof_H 	H 	0.6422	0.8559	0.9907	0.06
Mof_H 	H 	0.6153	0.8545	0.9524	-0.011
Mof_N 	N 	0.53	0.801	0.9518	-0.107
Mof_N 	N 	0.579	0.7071	0.9092	-0.182
Mof_N 	N 	0.60016	0.6296	0.9287	-0.141
Mof_N 	N 	0.65	0.7375	0.9411	-0.187
Mof_O 	O 	0.5914	0.8283	0.9987	-0.349
Mof_H 	H 	0.5704	0.821	0.008	0.246
Mof_O 	O 	0.5799	0.4999	0.9826	-0.799
Mof_H 	H 	0.5581	0.489	0.978	0.307
Mof_H 	H 	0.6105	0.5476	0.0073	0.271
Mof_H 	H 	0.5784	0.5198	0.9928	0.725
Mof_C 	C 	0.6194	0.8378	0.9684	0.054
Mof_H 	H 	0.635	0.8609	0.9765	-0.024
Mof_H 	H 	0.6054	0.8445	0.944	0.039
Mof_O 	O 	0.6275	0.5053	0.9721	-0.182
Mof_H 	H 	0.6476	0.5078	0.9869	0.05
Mof_C 	C 	0.019	0.2834	0.4255	-0.044
Mof_C 	C 	0.0521	0.2217	0.3955	-0.025
Mof_C 	C 	0.1064	0.1021	0.4559	-0.146
Mof_H 	H 	0.1215	0.1088	0.4783	0.07
Mof_C 	C 	0.0919	0.0639	0.4531	0.3
Mof_C 	C 	0.0692	0.0547	0.4212	-0.251
Mof_H 	H 	0.0581	0.0293	0.4185	0.147
Mof_C 	C 	0.0626	0.0831	0.3929	0.043
Mof_H 	H 	0.0472	0.0773	0.3706	0.019
Mof_C 	C 	0.0787	0.1197	0.3976	-0.026
Mof_H 	H 	0.0745	0.1387	0.3778	0.035
Mof_C 	C 	0.1277	0.269	0.4508	0.04
Mof_H 	H 	0.1	0.2673	0.4504	0.03
Mof_C 	C 	0.1459	0.3038	0.4613	-0.041
Mof_C 	C 	0.1857	0.3073	0.4615	0.011
Mof_H 	H 	0.1978	0.3312	0.4689	0.029
Mof_C 	C 	0.2072	0.2769	0.451	-0.109
Mof_H 	H 	0.2349	0.2789	0.4507	0.073
Mof_C 	C 	0.1896	0.2426	0.4408	0.07
Mof_H 	H 	0.2056	0.2213	0.4332	0.001
Mof_C 	C 	0.101	0.0341	0.485	-0.844
Mof_H 	H 	0.1283	0.0294	0.4827	0.382
Mof_H 	H 	0.0961	0.0442	0.5104	-0.064
Mof_C 	C 	0.1243	0.3392	0.4752	0.041
Mof_H 	H 	0.1422	0.3559	0.4907	0.059
Mof_H 	H 	0.1153	0.3545	0.4524	-0.012
Mof_N 	N 	0.03	0.301	0.4518	-0.108
Mof_N 	N 	0.079	0.2071	0.4092	-0.182
Mof_N 	N 	0.10016	0.1296	0.4287	-0.141
Mof_N 	N 	0.15	0.2375	0.4411	-0.187
Mof_O 	O 	0.0914	0.3283	0.4987	-0.356
Mof_H 	H 	0.0704	0.321	0.508	0.251
Mof_O 	O 	0.0799	0.9999	0.4826	-0.787
Mof_H 	H 	0.0581	0.989	0.478	0.302
Mof_H 	H 	0.1105	0.0476	0.5073	0.272
Mof_H 	H 	0.0784	0.0198	0.4928	0.72
Mof_C 	C 	0.1194	0.3378	0.4684	0.055
Mof_H 	H 	0.135	0.3609	0.4765	-0.024
Mof_H 	H 	0.1054	0.3445	0.444	0.04
Mof_O 	O 	0.1275	0.0053	0.4721	-0.185
Mof_H 	H 	0.1476	0.0078	0.4869	0.047
Mof_C 	C 	0.0745	0.019	0.7166	-0.044
Mof_C 	C 	0.1045	0.0521	0.7783	-0.026
Mof_C 	C 	0.0441	0.1064	0.8979	-0.153
Mof_H 	H 	0.0217	0.1215	0.8912	0.072
Mof_C 	C 	0.0469	0.0919	0.9361	0.314
Mof_C 	C 	0.0788	0.0692	0.9453	-0.262
Mof_H 	H 	0.0815	0.0581	0.9707	0.153
Mof_C 	C 	0.1071	0.0626	0.9169	0.05
Mof_H 	H 	0.1294	0.0472	0.9227	0.017
Mof_C 	C 	0.1024	0.0787	0.8803	-0.03
Mof_H 	H 	0.1222	0.0745	0.8613	0.037
Mof_C 	C 	0.0492	0.1277	0.731	0.04
Mof_H 	H 	0.0496	0.1	0.7327	0.03
Mof_C 	C 	0.0387	0.1459	0.6962	-0.043
Mof_C 	C 	0.0385	0.1857	0.6927	0.011
Mof_H 	H 	0.0311	0.1978	0.6688	0.028
Mof_C 	C 	0.049	0.2072	0.7231	-0.109
Mof_H 	H 	0.0493	0.2349	0.7211	0.073
Mof_C 	C 	0.0592	0.1896	0.7574	0.07
Mof_H 	H 	0.0668	0.2056	0.7787	0.001
Mof_C 	C 	0.015	0.101	0.9659	-0.883
Mof_H 	H 	0.0173	0.1283	0.9706	0.39
Mof_H 	H 	0.9896	0.0961	0.9558	-0.066
Mof_C 	C 	0.0248	0.1243	0.6608	0.043
Mof_H 	H 	0.0093	0.1422	0.6441	0.057
Mof_H 	H 	0.0476	0.1153	0.6455	-0.014
Mof_N 	N 	0.0482	0.03	0.699	-0.109
Mof_N 	N 	0.0908	0.079	0.7929	-0.182
Mof_N 	N 	0.0713	0.10016	0.8704	-0.138
Mof_N 	N 	0.0589	0.15	0.7625	-0.187
Mof_O 	O 	0.0013	0.0914	0.6717	-0.363
Mof_H 	H 	0.992	0.0704	0.679	0.257
Mof_O 	O 	0.0174	0.0799	0.0001	-0.815
Mof_H 	H 	0.022	0.0581	0.011	0.308
Mof_H 	H 	0.9927	0.1105	0.9524	0.288
Mof_H 	H 	0.0072	0.0784	0.9802	0.75
Mof_C 	C 	0.0316	0.1194	0.6622	0.057
Mof_H 	H 	0.0235	0.135	0.6391	-0.024
Mof_H 	H 	0.056	0.1054	0.6555	0.041
Mof_O 	O 	0.0279	0.1275	0.9947	-0.173
Mof_H 	H 	0.0131	0.1476	0.9922	0.041
Mof_C 	C 	0.5745	0.519	0.2166	-0.043
Mof_C 	C 	0.6045	0.5521	0.2783	-0.026
Mof_C 	C 	0.5441	0.6064	0.3979	-0.147
Mof_H 	H 	0.5217	0.6215	0.3912	0.071
Mof_C 	C 	0.5469	0.5919	0.4361	0.303
Mof_C 	C 	0.5788	0.5692	0.4453	-0.254
Mof_H 	H 	0.5815	0.5581	0.4707	0.149
Mof_C 	C 	0.6071	0.5626	0.4169	0.045
Mof_H 	H 	0.6294	0.5472	0.4227	0.019
Mof_C 	C 	0.6024	0.5787	0.3803	-0.027
Mof_H 	H 	0.6222	0.5745	0.3613	0.036
Mof_C 	C 	0.5492	0.6277	0.231	0.04
Mof_H 	H 	0.5496	0.6	0.2327	0.03
Mof_C 	C 	0.5387	0.6459	0.1962	-0.041
Mof_C 	C 	0.5385	0.6857	0.1927	0.011
Mof_H 	H 	0.5311	0.6978	0.1688	0.029
Mof_C 	C 	0.549	0.7072	0.2231	-0.109
Mof_H 	H 	0.5493	0.7349	0.2211	0.073
Mof_C 	C 	0.5592	0.6896	0.2574	0.07
Mof_H 	H 	0.5668	0.7056	0.2787	0.001
Mof_C 	C 	0.515	0.601	0.4659	-0.853
Mof_H 	H 	0.5173	0.6283	0.4706	0.383
Mof_H 	H 	0.4896	0.5961	0.4558	-0.067
Mof_C 	C 	0.5248	0.6243	0.1608	0.041
Mof_H 	H 	0.5093	0.6422	0.1441	0.058
Mof_H 	H 	0.5476	0.6153	0.1455	-0.012
Mof_N 	N 	0.5482	0.53	0.199	-0.108
Mof_N 	N 	0.5908	0.579	0.2929	-0.181
Mof_N 	N 	0.5713	0.60016	0.3704	-0.14
Mof_N 	N 	0.5589	0.65	0.2625	-0.187
Mof_O 	O 	0.5013	0.5914	0.1717	-0.356
Mof_H 	H 	0.492	0.5704	0.179	0.252
Mof_O 	O 	0.5174	0.5799	0.5001	-0.801
Mof_H 	H 	0.522	0.5581	0.511	0.306
Mof_H 	H 	0.4927	0.6105	0.4524	0.277
Mof_H 	H 	0.5072	0.5784	0.4802	0.732
Mof_C 	C 	0.5316	0.6194	0.1622	0.056
Mof_H 	H 	0.5235	0.635	0.1391	-0.024
Mof_H 	H 	0.556	0.6054	0.1555	0.04
Mof_O 	O 	0.5279	0.6275	0.4947	-0.18
Mof_H 	H 	0.5131	0.6476	0.4922	0.046
Mof_C 	C 	0.5745	0.481	0.2834	-0.043
Mof_C 	C 	0.6045	0.4479	0.2217	-0.026
Mof_C 	C 	0.5441	0.3936	0.1021	-0.146
Mof_H 	H 	0.5217	0.3785	0.1088	0.07
Mof_C 	C 	0.5469	0.4081	0.0639	0.3
Mof_C 	C 	0.5788	0.4308	0.0547	-0.251
Mof_H 	H 	0.5815	0.4419	0.0293	0.147
Mof_C 	C 	0.6071	0.4374	0.0831	0.043
Mof_H 	H 	0.6294	0.4528	0.0773	0.02
Mof_C 	C 	0.6024	0.4213	0.1197	-0.026
Mof_H 	H 	0.6222	0.4255	0.1387	0.036
Mof_C 	C 	0.5492	0.3723	0.269	0.04
Mof_H 	H 	0.5496	0.4	0.2673	0.03
Mof_C 	C 	0.5387	0.3541	0.3038	-0.041
Mof_C 	C 	0.5385	0.3143	0.3073	0.011
Mof_H 	H 	0.5311	0.3022	0.3312	0.029
Mof_C 	C 	0.549	0.2928	0.2769	-0.109
Mof_H 	H 	0.5493	0.2651	0.2789	0.073
Mof_C 	C 	0.5592	0.3104	0.2426	0.07
Mof_H 	H 	0.5668	0.2944	0.2213	0.001
Mof_C 	C 	0.515	0.399	0.0341	-0.844
Mof_H 	H 	0.5173	0.3717	0.0294	0.382
Mof_H 	H 	0.4896	0.4039	0.0442	-0.063
Mof_C 	C 	0.5248	0.3757	0.3392	0.041
Mof_H 	H 	0.5093	0.3578	0.3559	0.059
Mof_H 	H 	0.5476	0.3847	0.3545	-0.012
Mof_N 	N 	0.5482	0.47	0.301	-0.108
Mof_N 	N 	0.5908	0.421	0.2071	-0.181
Mof_N 	N 	0.5713	0.39984	0.1296	-0.141
Mof_N 	N 	0.5589	0.35	0.2375	-0.187
Mof_O 	O 	0.5013	0.4086	0.3283	-0.356
Mof_H 	H 	0.492	0.4296	0.321	0.252
Mof_O 	O 	0.5174	0.4201	0.9999	-0.787
Mof_H 	H 	0.522	0.4419	0.989	0.303
Mof_H 	H 	0.4927	0.3895	0.0476	0.272
Mof_H 	H 	0.5072	0.4216	0.0198	0.72
Mof_C 	C 	0.5316	0.3806	0.3378	0.056
Mof_H 	H 	0.5235	0.365	0.3609	-0.024
Mof_H 	H 	0.556	0.3946	0.3445	0.04
Mof_O 	O 	0.5279	0.3725	0.0053	-0.185
Mof_H 	H 	0.5131	0.3524	0.0078	0.047
Mof_C 	C 	0.0745	0.981	0.7834	-0.04
Mof_C 	C 	0.1045	0.9479	0.7217	-0.023
Mof_C 	C 	0.0441	0.8936	0.6021	-0.152
Mof_H 	H 	0.0217	0.8785	0.6088	0.071
Mof_C 	C 	0.0469	0.9081	0.5639	0.311
Mof_C 	C 	0.0788	0.9308	0.5547	-0.259
Mof_H 	H 	0.0815	0.9419	0.5293	0.151
Mof_C 	C 	0.1071	0.9374	0.5831	0.048
Mof_H 	H 	0.1294	0.9528	0.5773	0.019
Mof_C 	C 	0.1024	0.9213	0.6197	-0.029
Mof_H 	H 	0.1222	0.9255	0.6387	0.037
Mof_C 	C 	0.0492	0.8723	0.769	0.04
Mof_H 	H 	0.0496	0.9	0.7673	0.03
Mof_C 	C 	0.0387	0.8541	0.8038	-0.043
Mof_C 	C 	0.0385	0.8143	0.8073	0.012
Mof_H 	H 	0.0311	0.8022	0.8312	0.028
Mof_C 	C 	0.049	0.7928	0.7769	-0.11
Mof_H 	H 	0.0493	0.7651	0.7789	0.073
Mof_C 	C 	0.0592	0.8104	0.7426	0.07
Mof_H 	H 	0.0668	0.7944	0.7213	0.001
Mof_C 	C 	0.015	0.899	0.5341	-0.875
Mof_H 	H 	0.0173	0.8717	0.5294	0.389
Mof_H 	H 	0.9896	0.9039	0.5442	-0.063
Mof_C 	C 	0.0248	0.8757	0.8392	0.043
Mof_H 	H 	0.0093	0.8578	0.8559	0.058
Mof_H 	H 	0.0476	0.8847	0.8545	-0.014
Mof_N 	N 	0.0482	0.97	0.801	-0.108
Mof_N 	N 	0.0908	0.921	0.7071	-0.182
Mof_N 	N 	0.0713	0.89984	0.6296	-0.139
Mof_N 	N 	0.0589	0.85	0.7375	-0.187
Mof_O 	O 	0.0013	0.9086	0.8283	-0.363
Mof_H 	H 	0.992	0.9296	0.821	0.258
Mof_O 	O 	0.0174	0.9201	0.4999	-0.803
Mof_H 	H 	0.022	0.9419	0.489	0.306
Mof_H 	H 	0.9927	0.8895	0.5476	0.283
Mof_H 	H 	0.0072	0.9216	0.5198	0.739
Mof_C 	C 	0.0316	0.8806	0.8378	0.057
Mof_H 	H 	0.0235	0.865	0.8609	-0.025
Mof_H 	H 	0.056	0.8946	0.8445	0.041
Mof_O 	O 	0.0279	0.8725	0.5053	-0.177
Mof_H 	H 	0.0131	0.8524	0.5078	0.042
Mof_C 	C 	0.4255	0.981	0.2166	-0.039
Mof_C 	C 	0.3955	0.9479	0.2783	-0.023
Mof_C 	C 	0.4559	0.8936	0.3979	-0.147
Mof_H 	H 	0.4783	0.8785	0.3912	0.071
Mof_C 	C 	0.4531	0.9081	0.4361	0.303
Mof_C 	C 	0.4212	0.9308	0.4453	-0.253
Mof_H 	H 	0.4185	0.9419	0.4707	0.15
Mof_C 	C 	0.3929	0.9374	0.4169	0.044
Mof_H 	H 	0.3706	0.9528	0.4227	0.02
Mof_C 	C 	0.3976	0.9213	0.3803	-0.027
Mof_H 	H 	0.3778	0.9255	0.3613	0.036
Mof_C 	C 	0.4508	0.8723	0.231	0.04
Mof_H 	H 	0.4504	0.9	0.2327	0.03
Mof_C 	C 	0.4613	0.8541	0.1962	-0.041
Mof_C 	C 	0.4615	0.8143	0.1927	0.011
Mof_H 	H 	0.4689	0.8022	0.1688	0.029
Mof_C 	C 	0.451	0.7928	0.2231	-0.109
Mof_H 	H 	0.4507	0.7651	0.2211	0.073
Mof_C 	C 	0.4408	0.8104	0.2574	0.07
Mof_H 	H 	0.4332	0.7944	0.2787	0.001
Mof_C 	C 	0.485	0.899	0.4659	-0.853
Mof_H 	H 	0.4827	0.8717	0.4706	0.383
Mof_H 	H 	0.5104	0.9039	0.4558	-0.066
Mof_C 	C 	0.4752	0.8757	0.1608	0.042
Mof_H 	H 	0.4907	0.8578	0.1441	0.059
Mof_H 	H 	0.4524	0.8847	0.1455	-0.012
Mof_N 	N 	0.4518	0.97	0.199	-0.108
Mof_N 	N 	0.4092	0.921	0.2929	-0.182
Mof_N 	N 	0.4287	0.89984	0.3704	-0.14
Mof_N 	N 	0.4411	0.85	0.2625	-0.187
Mof_O 	O 	0.4987	0.9086	0.1717	-0.356
Mof_H 	H 	0.508	0.9296	0.179	0.252
Mof_O 	O 	0.4826	0.9201	0.5001	-0.801
Mof_H 	H 	0.478	0.9419	0.511	0.307
Mof_H 	H 	0.5073	0.8895	0.4524	0.277
Mof_H 	H 	0.4928	0.9216	0.4802	0.732
Mof_C 	C 	0.4684	0.8806	0.1622	0.056
Mof_H 	H 	0.4765	0.865	0.1391	-0.024
Mof_H 	H 	0.444	0.8946	0.1555	0.04
Mof_O 	O 	0.4721	0.8725	0.4947	-0.179
Mof_H 	H 	0.4869	0.8524	0.4922	0.046
Mof_C 	C 	0.9255	0.481	0.7166	-0.043
Mof_C 	C 	0.8955	0.4479	0.7783	-0.025
Mof_C 	C 	0.9559	0.3936	0.8979	-0.145
Mof_H 	H 	0.9783	0.3785	0.8912	0.071
Mof_C 	C 	0.9531	0.4081	0.9361	0.3
Mof_C 	C 	0.9212	0.4308	0.9453	-0.251
Mof_H 	H 	0.9185	0.4419	0.9707	0.15
Mof_C 	C 	0.8929	0.4374	0.9169	0.043
Mof_H 	H 	0.8706	0.4528	0.9227	0.02
Mof_C 	C 	0.8976	0.4213	0.8803	-0.026
Mof_H 	H 	0.8778	0.4255	0.8613	0.036
Mof_C 	C 	0.9508	0.3723	0.731	0.039
Mof_H 	H 	0.9504	0.4	0.7327	0.031
Mof_C 	C 	0.9613	0.3541	0.6962	-0.039
Mof_C 	C 	0.9615	0.3143	0.6927	0.01
Mof_H 	H 	0.9689	0.3022	0.6688	0.029
Mof_C 	C 	0.951	0.2928	0.7231	-0.108
Mof_H 	H 	0.9507	0.2651	0.7211	0.074
Mof_C 	C 	0.9408	0.3104	0.7574	0.07
Mof_H 	H 	0.9332	0.2944	0.7787	0.001
Mof_C 	C 	0.985	0.399	0.9659	-0.839
Mof_H 	H 	0.9827	0.3717	0.9706	0.378
Mof_H 	H 	0.0104	0.4039	0.9558	-0.073
Mof_C 	C 	0.9752	0.3757	0.6608	0.04
Mof_H 	H 	0.9907	0.3578	0.6441	0.06
Mof_H 	H 	0.9524	0.3847	0.6455	-0.011
Mof_N 	N 	0.9518	0.47	0.699	-0.107
Mof_N 	N 	0.9092	0.421	0.7929	-0.182
Mof_N 	N 	0.9287	0.39984	0.8704	-0.141
Mof_N 	N 	0.9411	0.35	0.7625	-0.187
Mof_O 	O 	0.9987	0.4086	0.6717	-0.349
Mof_H 	H 	0.008	0.4296	0.679	0.246
Mof_O 	O 	0.9826	0.4201	0.0001	-0.813
Mof_H 	H 	0.978	0.4419	0.011	0.311
Mof_H 	H 	0.0073	0.3895	0.9524	0.276
Mof_H 	H 	0.9928	0.4216	0.9802	0.737
Mof_C 	C 	0.9684	0.3806	0.6622	0.054
Mof_H 	H 	0.9765	0.365	0.6391	-0.024
Mof_H 	H 	0.944	0.3946	0.6555	0.039
Mof_O 	O 	0.9721	0.3725	0.9947	-0.177
Mof_H 	H 	0.9869	0.3524	0.9922	0.049
Mof_C 	C 	0.9255	0.519	0.7834	-0.043
Mof_C 	C 	0.8955	0.5521	0.7217	-0.025
Mof_C 	C 	0.9559	0.6064	0.6021	-0.143
Mof_H 	H 	0.9783	0.6215	0.6088	0.07
Mof_C 	C 	0.9531	0.5919	0.5639	0.296
Mof_C 	C 	0.9212	0.5692	0.5547	-0.248
Mof_H 	H 	0.9185	0.5581	0.5293	0.147
Mof_C 	C 	0.8929	0.5626	0.5831	0.041
Mof_H 	H 	0.8706	0.5472	0.5773	0.02
Mof_C 	C 	0.8976	0.5787	0.6197	-0.025
Mof_H 	H 	0.8778	0.5745	0.6387	0.035
Mof_C 	C 	0.9508	0.6277	0.769	0.039
Mof_H 	H 	0.9504	0.6	0.7673	0.031
Mof_C 	C 	0.9613	0.6459	0.8038	-0.039
Mof_C 	C 	0.9615	0.6857	0.8073	0.01
Mof_H 	H 	0.9689	0.6978	0.8312	0.029
Mof_C 	C 	0.951	0.7072	0.7769	-0.108
Mof_H 	H 	0.9507	0.7349	0.7789	0.074
Mof_C 	C 	0.9408	0.6896	0.7426	0.07
Mof_H 	H 	0.9332	0.7056	0.7213	0.001
Mof_C 	C 	0.985	0.601	0.5341	-0.83
Mof_H 	H 	0.9827	0.6283	0.5294	0.377
Mof_H 	H 	0.0104	0.5961	0.5442	-0.07
Mof_C 	C 	0.9752	0.6243	0.8392	0.04
Mof_H 	H 	0.9907	0.6422	0.8559	0.06
Mof_H 	H 	0.9524	0.6153	0.8545	-0.011
Mof_N 	N 	0.9518	0.53	0.801	-0.107
Mof_N 	N 	0.9092	0.579	0.7071	-0.182
Mof_N 	N 	0.9287	0.60016	0.6296	-0.141
Mof_N 	N 	0.9411	0.65	0.7375	-0.187
Mof_O 	O 	0.9987	0.5914	0.8283	-0.349
Mof_H 	H 	0.008	0.5704	0.821	0.246
Mof_O 	O 	0.9826	0.5799	0.4999	-0.799
Mof_H 	H 	0.978	0.5581	0.489	0.307
Mof_H 	H 	0.0073	0.6105	0.5476	0.271
Mof_H 	H 	0.9928	0.5784	0.5198	0.725
Mof_C 	C 	0.9684	0.6194	0.8378	0.054
Mof_H 	H 	0.9765	0.635	0.8609	-0.024
Mof_H 	H 	0.944	0.6054	0.8445	0.039
Mof_O 	O 	0.9721	0.6275	0.5053	-0.182
Mof_H 	H 	0.9869	0.6476	0.5078	0.05
Mof_C 	C 	0.4255	0.019	0.2834	-0.044
Mof_C 	C 	0.3955	0.0521	0.2217	-0.025
Mof_C 	C 	0.4559	0.1064	0.1021	-0.146
Mof_H 	H 	0.4783	0.1215	0.1088	0.07
Mof_C 	C 	0.4531	0.0919	0.0639	0.3
Mof_C 	C 	0.4212	0.0692	0.0547	-0.251
Mof_H 	H 	0.4185	0.0581	0.0293	0.147
Mof_C 	C 	0.3929	0.0626	0.0831	0.043
Mof_H 	H 	0.3706	0.0472	0.0773	0.019
Mof_C 	C 	0.3976	0.0787	0.1197	-0.026
Mof_H 	H 	0.3778	0.0745	0.1387	0.035
Mof_C 	C 	0.4508	0.1277	0.269	0.04
Mof_H 	H 	0.4504	0.1	0.2673	0.03
Mof_C 	C 	0.4613	0.1459	0.3038	-0.041
Mof_C 	C 	0.4615	0.1857	0.3073	0.011
Mof_H 	H 	0.4689	0.1978	0.3312	0.029
Mof_C 	C 	0.451	0.2072	0.2769	-0.109
Mof_H 	H 	0.4507	0.2349	0.2789	0.073
Mof_C 	C 	0.4408	0.1896	0.2426	0.07
Mof_H 	H 	0.4332	0.2056	0.2213	0.001
Mof_C 	C 	0.485	0.101	0.0341	-0.844
Mof_H 	H 	0.4827	0.1283	0.0294	0.382
Mof_H 	H 	0.5104	0.0961	0.0442	-0.064
Mof_C 	C 	0.4752	0.1243	0.3392	0.041
Mof_H 	H 	0.4907	0.1422	0.3559	0.059
Mof_H 	H 	0.4524	0.1153	0.3545	-0.012
Mof_N 	N 	0.4518	0.03	0.301	-0.108
Mof_N 	N 	0.4092	0.079	0.2071	-0.182
Mof_N 	N 	0.4287	0.10016	0.1296	-0.141
Mof_N 	N 	0.4411	0.15	0.2375	-0.187
Mof_O 	O 	0.4987	0.0914	0.3283	-0.356
Mof_H 	H 	0.508	0.0704	0.321	0.251
Mof_O 	O 	0.4826	0.0799	0.9999	-0.787
Mof_H 	H 	0.478	0.0581	0.989	0.302
Mof_H 	H 	0.5073	0.1105	0.0476	0.272
Mof_H 	H 	0.4928	0.0784	0.0198	0.72
Mof_C 	C 	0.4684	0.1194	0.3378	0.055
Mof_H 	H 	0.4765	0.135	0.3609	-0.024
Mof_H 	H 	0.444	0.1054	0.3445	0.04
Mof_O 	O 	0.4721	0.1275	0.0053	-0.185
Mof_H 	H 	0.4869	0.1476	0.0078	0.047
Mof_C 	C 	0.7166	0.0745	0.019	-0.044
Mof_C 	C 	0.7783	0.1045	0.0521	-0.026
Mof_C 	C 	0.8979	0.0441	0.1064	-0.153
Mof_H 	H 	0.8912	0.0217	0.1215	0.072
Mof_C 	C 	0.9361	0.0469	0.0919	0.314
Mof_C 	C 	0.9453	0.0788	0.0692	-0.262
Mof_H 	H 	0.9707	0.0815	0.0581	0.153
Mof_C 	C 	0.9169	0.1071	0.0626	0.05
Mof_H 	H 	0.9227	0.1294	0.0472	0.017
Mof_C 	C 	0.8803	0.1024	0.0787	-0.03
Mof_H 	H 	0.8613	0.1222	0.0745	0.037
Mof_C 	C 	0.731	0.0492	0.1277	0.04
Mof_H 	H 	0.7327	0.0496	0.1	0.03
Mof_C 	C 	0.6962	0.0387	0.1459	-0.043
Mof_C 	C 	0.6927	0.0385	0.1857	0.011
Mof_H 	H 	0.6688	0.0311	0.1978	0.028
Mof_C 	C 	0.7231	0.049	0.2072	-0.109
Mof_H 	H 	0.7211	0.0493	0.2349	0.073
Mof_C 	C 	0.7574	0.0592	0.1896	0.07
Mof_H 	H 	0.7787	0.0668	0.2056	0.001
Mof_C 	C 	0.9659	0.015	0.101	-0.883
Mof_H 	H 	0.9706	0.0173	0.1283	0.39
Mof_H 	H 	0.9558	0.9896	0.0961	-0.066
Mof_C 	C 	0.6608	0.0248	0.1243	0.043
Mof_H 	H 	0.6441	0.0093	0.1422	0.057
Mof_H 	H 	0.6455	0.0476	0.1153	-0.014
Mof_N 	N 	0.699	0.0482	0.03	-0.109
Mof_N 	N 	0.7929	0.0908	0.079	-0.182
Mof_N 	N 	0.8704	0.0713	0.10016	-0.138
Mof_N 	N 	0.7625	0.0589	0.15	-0.187
Mof_O 	O 	0.6717	0.0013	0.0914	-0.363
Mof_H 	H 	0.679	0.992	0.0704	0.257
Mof_O 	O 	0.0001	0.0174	0.0799	-0.815
Mof_H 	H 	0.011	0.022	0.0581	0.308
Mof_H 	H 	0.9524	0.9927	0.1105	0.288
Mof_H 	H 	0.9802	0.0072	0.0784	0.75
Mof_C 	C 	0.6622	0.0316	0.1194	0.057
Mof_H 	H 	0.6391	0.0235	0.135	-0.024
Mof_H 	H 	0.6555	0.056	0.1054	0.041
Mof_O 	O 	0.9947	0.0279	0.1275	-0.173
Mof_H 	H 	0.9922	0.0131	0.1476	0.041
Mof_C 	C 	0.2166	0.5745	0.519	-0.043
Mof_C 	C 	0.2783	0.6045	0.5521	-0.026
Mof_C 	C 	0.3979	0.5441	0.6064	-0.147
Mof_H 	H 	0.3912	0.5217	0.6215	0.071
Mof_C 	C 	0.4361	0.5469	0.5919	0.303
Mof_C 	C 	0.4453	0.5788	0.5692	-0.254
Mof_H 	H 	0.4707	0.5815	0.5581	0.149
Mof_C 	C 	0.4169	0.6071	0.5626	0.045
Mof_H 	H 	0.4227	0.6294	0.5472	0.019
Mof_C 	C 	0.3803	0.6024	0.5787	-0.027
Mof_H 	H 	0.3613	0.6222	0.5745	0.036
Mof_C 	C 	0.231	0.5492	0.6277	0.04
Mof_H 	H 	0.2327	0.5496	0.6	0.03
Mof_C 	C 	0.1962	0.5387	0.6459	-0.041
Mof_C 	C 	0.1927	0.5385	0.6857	0.011
Mof_H 	H 	0.1688	0.5311	0.6978	0.029
Mof_C 	C 	0.2231	0.549	0.7072	-0.109
Mof_H 	H 	0.2211	0.5493	0.7349	0.073
Mof_C 	C 	0.2574	0.5592	0.6896	0.07
Mof_H 	H 	0.2787	0.5668	0.7056	0.001
Mof_C 	C 	0.4659	0.515	0.601	-0.853
Mof_H 	H 	0.4706	0.5173	0.6283	0.383
Mof_H 	H 	0.4558	0.4896	0.5961	-0.067
Mof_C 	C 	0.1608	0.5248	0.6243	0.041
Mof_H 	H 	0.1441	0.5093	0.6422	0.058
Mof_H 	H 	0.1455	0.5476	0.6153	-0.012
Mof_N 	N 	0.199	0.5482	0.53	-0.108
Mof_N 	N 	0.2929	0.5908	0.579	-0.181
Mof_N 	N 	0.3704	0.5713	0.60016	-0.14
Mof_N 	N 	0.2625	0.5589	0.65	-0.187
Mof_O 	O 	0.1717	0.5013	0.5914	-0.356
Mof_H 	H 	0.179	0.492	0.5704	0.252
Mof_O 	O 	0.5001	0.5174	0.5799	-0.801
Mof_H 	H 	0.511	0.522	0.5581	0.306
Mof_H 	H 	0.4524	0.4927	0.6105	0.277
Mof_H 	H 	0.4802	0.5072	0.5784	0.732
Mof_C 	C 	0.1622	0.5316	0.6194	0.056
Mof_H 	H 	0.1391	0.5235	0.635	-0.024
Mof_H 	H 	0.1555	0.556	0.6054	0.04
Mof_O 	O 	0.4947	0.5279	0.6275	-0.18
Mof_H 	H 	0.4922	0.5131	0.6476	0.046
Mof_C 	C 	0.2834	0.5745	0.481	-0.043
Mof_C 	C 	0.2217	0.6045	0.4479	-0.026
Mof_C 	C 	0.1021	0.5441	0.3936	-0.146
Mof_H 	H 	0.1088	0.5217	0.3785	0.07
Mof_C 	C 	0.0639	0.5469	0.4081	0.3
Mof_C 	C 	0.0547	0.5788	0.4308	-0.251
Mof_H 	H 	0.0293	0.5815	0.4419	0.147
Mof_C 	C 	0.0831	0.6071	0.4374	0.043
Mof_H 	H 	0.0773	0.6294	0.4528	0.02
Mof_C 	C 	0.1197	0.6024	0.4213	-0.026
Mof_H 	H 	0.1387	0.6222	0.4255	0.036
Mof_C 	C 	0.269	0.5492	0.3723	0.04
Mof_H 	H 	0.2673	0.5496	0.4	0.03
Mof_C 	C 	0.3038	0.5387	0.3541	-0.041
Mof_C 	C 	0.3073	0.5385	0.3143	0.011
Mof_H 	H 	0.3312	0.5311	0.3022	0.029
Mof_C 	C 	0.2769	0.549	0.2928	-0.109
Mof_H 	H 	0.2789	0.5493	0.2651	0.073
Mof_C 	C 	0.2426	0.5592	0.3104	0.07
Mof_H 	H 	0.2213	0.5668	0.2944	0.001
Mof_C 	C 	0.0341	0.515	0.399	-0.844
Mof_H 	H 	0.0294	0.5173	0.3717	0.382
Mof_H 	H 	0.0442	0.4896	0.4039	-0.063
Mof_C 	C 	0.3392	0.5248	0.3757	0.041
Mof_H 	H 	0.3559	0.5093	0.3578	0.059
Mof_H 	H 	0.3545	0.5476	0.3847	-0.012
Mof_N 	N 	0.301	0.5482	0.47	-0.108
Mof_N 	N 	0.2071	0.5908	0.421	-0.181
Mof_N 	N 	0.1296	0.5713	0.39984	-0.141
Mof_N 	N 	0.2375	0.5589	0.35	-0.187
Mof_O 	O 	0.3283	0.5013	0.4086	-0.356
Mof_H 	H 	0.321	0.492	0.4296	0.252
Mof_O 	O 	0.9999	0.5174	0.4201	-0.787
Mof_H 	H 	0.989	0.522	0.4419	0.303
Mof_H 	H 	0.0476	0.4927	0.3895	0.272
Mof_H 	H 	0.0198	0.5072	0.4216	0.72
Mof_C 	C 	0.3378	0.5316	0.3806	0.056
Mof_H 	H 	0.3609	0.5235	0.365	-0.024
Mof_H 	H 	0.3445	0.556	0.3946	0.04
Mof_O 	O 	0.0053	0.5279	0.3725	-0.185
Mof_H 	H 	0.0078	0.5131	0.3524	0.047
Mof_C 	C 	0.7834	0.0745	0.981	-0.04
Mof_C 	C 	0.7217	0.1045	0.9479	-0.023
Mof_C 	C 	0.6021	0.0441	0.8936	-0.152
Mof_H 	H 	0.6088	0.0217	0.8785	0.071
Mof_C 	C 	0.5639	0.0469	0.9081	0.311
Mof_C 	C 	0.5547	0.0788	0.9308	-0.259
Mof_H 	H 	0.5293	0.0815	0.9419	0.151
Mof_C 	C 	0.5831	0.1071	0.9374	0.048
Mof_H 	H 	0.5773	0.1294	0.9528	0.019
Mof_C 	C 	0.6197	0.1024	0.9213	-0.029
Mof_H 	H 	0.6387	0.1222	0.9255	0.037
Mof_C 	C 	0.769	0.0492	0.8723	0.04
Mof_H 	H 	0.7673	0.0496	0.9	0.03
Mof_C 	C 	0.8038	0.0387	0.8541	-0.043
Mof_C 	C 	0.8073	0.0385	0.8143	0.012
Mof_H 	H 	0.8312	0.0311	0.8022	0.028
Mof_C 	C 	0.7769	0.049	0.7928	-0.11
Mof_H 	H 	0.7789	0.0493	0.7651	0.073
Mof_C 	C 	0.7426	0.0592	0.8104	0.07
Mof_H 	H 	0.7213	0.0668	0.7944	0.001
Mof_C 	C 	0.5341	0.015	0.899	-0.875
Mof_H 	H 	0.5294	0.0173	0.8717	0.389
Mof_H 	H 	0.5442	0.9896	0.9039	-0.063
Mof_C 	C 	0.8392	0.0248	0.8757	0.043
Mof_H 	H 	0.8559	0.0093	0.8578	0.058
Mof_H 	H 	0.8545	0.0476	0.8847	-0.014
Mof_N 	N 	0.801	0.0482	0.97	-0.108
Mof_N 	N 	0.7071	0.0908	0.921	-0.182
Mof_N 	N 	0.6296	0.0713	0.89984	-0.139
Mof_N 	N 	0.7375	0.0589	0.85	-0.187
Mof_O 	O 	0.8283	0.0013	0.9086	-0.363
Mof_H 	H 	0.821	0.992	0.9296	0.258
Mof_O 	O 	0.4999	0.0174	0.9201	-0.803
Mof_H 	H 	0.489	0.022	0.9419	0.306
Mof_H 	H 	0.5476	0.9927	0.8895	0.283
Mof_H 	H 	0.5198	0.0072	0.9216	0.739
Mof_C 	C 	0.8378	0.0316	0.8806	0.057
Mof_H 	H 	0.8609	0.0235	0.865	-0.025
Mof_H 	H 	0.8445	0.056	0.8946	0.041
Mof_O 	O 	0.5053	0.0279	0.8725	-0.177
Mof_H 	H 	0.5078	0.0131	0.8524	0.042
Mof_C 	C 	0.2166	0.4255	0.981	-0.039
Mof_C 	C 	0.2783	0.3955	0.9479	-0.023
Mof_C 	C 	0.3979	0.4559	0.8936	-0.147
Mof_H 	H 	0.3912	0.4783	0.8785	0.071
Mof_C 	C 	0.4361	0.4531	0.9081	0.303
Mof_C 	C 	0.4453	0.4212	0.9308	-0.253
Mof_H 	H 	0.4707	0.4185	0.9419	0.15
Mof_C 	C 	0.4169	0.3929	0.9374	0.044
Mof_H 	H 	0.4227	0.3706	0.9528	0.02
Mof_C 	C 	0.3803	0.3976	0.9213	-0.027
Mof_H 	H 	0.3613	0.3778	0.9255	0.036
Mof_C 	C 	0.231	0.4508	0.8723	0.04
Mof_H 	H 	0.2327	0.4504	0.9	0.03
Mof_C 	C 	0.1962	0.4613	0.8541	-0.041
Mof_C 	C 	0.1927	0.4615	0.8143	0.011
Mof_H 	H 	0.1688	0.4689	0.8022	0.029
Mof_C 	C 	0.2231	0.451	0.7928	-0.109
Mof_H 	H 	0.2211	0.4507	0.7651	0.073
Mof_C 	C 	0.2574	0.4408	0.8104	0.07
Mof_H 	H 	0.2787	0.4332	0.7944	0.001
Mof_C 	C 	0.4659	0.485	0.899	-0.853
Mof_H 	H 	0.4706	0.4827	0.8717	0.383
Mof_H 	H 	0.4558	0.5104	0.9039	-0.066
Mof_C 	C 	0.1608	0.4752	0.8757	0.042
Mof_H 	H 	0.1441	0.4907	0.8578	0.059
Mof_H 	H 	0.1455	0.4524	0.8847	-0.012
Mof_N 	N 	0.199	0.4518	0.97	-0.108
Mof_N 	N 	0.2929	0.4092	0.921	-0.182
Mof_N 	N 	0.3704	0.4287	0.89984	-0.14
Mof_N 	N 	0.2625	0.4411	0.85	-0.187
Mof_O 	O 	0.1717	0.4987	0.9086	-0.356
Mof_H 	H 	0.179	0.508	0.9296	0.252
Mof_O 	O 	0.5001	0.4826	0.9201	-0.801
Mof_H 	H 	0.511	0.478	0.9419	0.307
Mof_H 	H 	0.4524	0.5073	0.8895	0.277
Mof_H 	H 	0.4802	0.4928	0.9216	0.732
Mof_C 	C 	0.1622	0.4684	0.8806	0.056
Mof_H 	H 	0.1391	0.4765	0.865	-0.024
Mof_H 	H 	0.1555	0.444	0.8946	0.04
Mof_O 	O 	0.4947	0.4721	0.8725	-0.179
Mof_H 	H 	0.4922	0.4869	0.8524	0.046
Mof_C 	C 	0.7166	0.9255	0.481	-0.043
Mof_C 	C 	0.7783	0.8955	0.4479	-0.025
Mof_C 	C 	0.8979	0.9559	0.3936	-0.145
Mof_H 	H 	0.8912	0.9783	0.3785	0.071
Mof_C 	C 	0.9361	0.9531	0.4081	0.3
Mof_C 	C 	0.9453	0.9212	0.4308	-0.251
Mof_H 	H 	0.9707	0.9185	0.4419	0.15
Mof_C 	C 	0.9169	0.8929	0.4374	0.043
Mof_H 	H 	0.9227	0.8706	0.4528	0.02
Mof_C 	C 	0.8803	0.8976	0.4213	-0.026
Mof_H 	H 	0.8613	0.8778	0.4255	0.036
Mof_C 	C 	0.731	0.9508	0.3723	0.039
Mof_H 	H 	0.7327	0.9504	0.4	0.031
Mof_C 	C 	0.6962	0.9613	0.3541	-0.039
Mof_C 	C 	0.6927	0.9615	0.3143	0.01
Mof_H 	H 	0.6688	0.9689	0.3022	0.029
Mof_C 	C 	0.7231	0.951	0.2928	-0.108
Mof_H 	H 	0.7211	0.9507	0.2651	0.074
Mof_C 	C 	0.7574	0.9408	0.3104	0.07
Mof_H 	H 	0.7787	0.9332	0.2944	0.001
Mof_C 	C 	0.9659	0.985	0.399	-0.839
Mof_H 	H 	0.9706	0.9827	0.3717	0.378
Mof_H 	H 	0.9558	0.0104	0.4039	-0.073
Mof_C 	C 	0.6608	0.9752	0.3757	0.04
Mof_H 	H 	0.6441	0.9907	0.3578	0.06
Mof_H 	H 	0.6455	0.9524	0.3847	-0.011
Mof_N 	N 	0.699	0.9518	0.47	-0.107
Mof_N 	N 	0.7929	0.9092	0.421	-0.182
Mof_N 	N 	0.8704	0.9287	0.39984	-0.141
Mof_N 	N 	0.7625	0.9411	0.35	-0.187
Mof_O 	O 	0.6717	0.9987	0.4086	-0.349
Mof_H 	H 	0.679	0.008	0.4296	0.246
Mof_O 	O 	0.0001	0.9826	0.4201	-0.813
Mof_H 	H 	0.011	0.978	0.4419	0.311
Mof_H 	H 	0.9524	0.0073	0.3895	0.276
Mof_H 	H 	0.9802	0.9928	0.4216	0.737
Mof_C 	C 	0.6622	0.9684	0.3806	0.054
Mof_H 	H 	0.6391	0.9765	0.365	-0.024
Mof_H 	H 	0.6555	0.944	0.3946	0.039
Mof_O 	O 	0.9947	0.9721	0.3725	-0.177
Mof_H 	H 	0.9922	0.9869	0.3524	0.049
Mof_C 	C 	0.7834	0.9255	0.519	-0.043
Mof_C 	C 	0.7217	0.8955	0.5521	-0.025
Mof_C 	C 	0.6021	0.9559	0.6064	-0.143
Mof_H 	H 	0.6088	0.9783	0.6215	0.07
Mof_C 	C 	0.5639	0.9531	0.5919	0.296
Mof_C 	C 	0.5547	0.9212	0.5692	-0.248
Mof_H 	H 	0.5293	0.9185	0.5581	0.147
Mof_C 	C 	0.5831	0.8929	0.5626	0.041
Mof_H 	H 	0.5773	0.8706	0.5472	0.02
Mof_C 	C 	0.6197	0.8976	0.5787	-0.025
Mof_H 	H 	0.6387	0.8778	0.5745	0.035
Mof_C 	C 	0.769	0.9508	0.6277	0.039
Mof_H 	H 	0.7673	0.9504	0.6	0.031
Mof_C 	C 	0.8038	0.9613	0.6459	-0.039
Mof_C 	C 	0.8073	0.9615	0.6857	0.01
Mof_H 	H 	0.8312	0.9689	0.6978	0.029
Mof_C 	C 	0.7769	0.951	0.7072	-0.108
Mof_H 	H 	0.7789	0.9507	0.7349	0.074
Mof_C 	C 	0.7426	0.9408	0.6896	0.07
Mof_H 	H 	0.7213	0.9332	0.7056	0.001
Mof_C 	C 	0.5341	0.985	0.601	-0.83
Mof_H 	H 	0.5294	0.9827	0.6283	0.377
Mof_H 	H 	0.5442	0.0104	0.5961	-0.07
Mof_C 	C 	0.8392	0.9752	0.6243	0.04
Mof_H 	H 	0.8559	0.9907	0.6422	0.06
Mof_H 	H 	0.8545	0.9524	0.6153	-0.011
Mof_N 	N 	0.801	0.9518	0.53	-0.107
Mof_N 	N 	0.7071	0.9092	0.579	-0.182
Mof_N 	N 	0.6296	0.9287	0.60016	-0.141
Mof_N 	N 	0.7375	0.9411	0.65	-0.187
Mof_O 	O 	0.8283	0.9987	0.5914	-0.349
Mof_H 	H 	0.821	0.008	0.5704	0.246
Mof_O 	O 	0.4999	0.9826	0.5799	-0.799
Mof_H 	H 	0.489	0.978	0.5581	0.307
Mof_H 	H 	0.5476	0.0073	0.6105	0.271
Mof_H 	H 	0.5198	0.9928	0.5784	0.725
Mof_C 	C 	0.8378	0.9684	0.6194	0.054
Mof_H 	H 	0.8609	0.9765	0.635	-0.024
Mof_H 	H 	0.8445	0.944	0.6054	0.039
Mof_O 	O 	0.5053	0.9721	0.6275	-0.182
Mof_H 	H 	0.5078	0.9869	0.6476	0.05
Mof_C 	C 	0.2834	0.4255	0.019	-0.044
Mof_C 	C 	0.2217	0.3955	0.0521	-0.025
Mof_C 	C 	0.1021	0.4559	0.1064	-0.146
Mof_H 	H 	0.1088	0.4783	0.1215	0.07
Mof_C 	C 	0.0639	0.4531	0.0919	0.3
Mof_C 	C 	0.0547	0.4212	0.0692	-0.251
Mof_H 	H 	0.0293	0.4185	0.0581	0.147
Mof_C 	C 	0.0831	0.3929	0.0626	0.043
Mof_H 	H 	0.0773	0.3706	0.0472	0.019
Mof_C 	C 	0.1197	0.3976	0.0787	-0.026
Mof_H 	H 	0.1387	0.3778	0.0745	0.035
Mof_C 	C 	0.269	0.4508	0.1277	0.04
Mof_H 	H 	0.2673	0.4504	0.1	0.03
Mof_C 	C 	0.3038	0.4613	0.1459	-0.041
Mof_C 	C 	0.3073	0.4615	0.1857	0.011
Mof_H 	H 	0.3312	0.4689	0.1978	0.029
Mof_C 	C 	0.2769	0.451	0.2072	-0.109
Mof_H 	H 	0.2789	0.4507	0.2349	0.073
Mof_C 	C 	0.2426	0.4408	0.1896	0.07
Mof_H 	H 	0.2213	0.4332	0.2056	0.001
Mof_C 	C 	0.0341	0.485	0.101	-0.844
Mof_H 	H 	0.0294	0.4827	0.1283	0.382
Mof_H 	H 	0.0442	0.5104	0.0961	-0.064
Mof_C 	C 	0.3392	0.4752	0.1243	0.041
Mof_H 	H 	0.3559	0.4907	0.1422	0.059
Mof_H 	H 	0.3545	0.4524	0.1153	-0.012
Mof_N 	N 	0.301	0.4518	0.03	-0.108
Mof_N 	N 	0.2071	0.4092	0.079	-0.182
Mof_N 	N 	0.1296	0.4287	0.10016	-0.141
Mof_N 	N 	0.2375	0.4411	0.15	-0.187
Mof_O 	O 	0.3283	0.4987	0.0914	-0.356
Mof_H 	H 	0.321	0.508	0.0704	0.251
Mof_O 	O 	0.9999	0.4826	0.0799	-0.787
Mof_H 	H 	0.989	0.478	0.0581	0.302
Mof_H 	H 	0.0476	0.5073	0.1105	0.272
Mof_H 	H 	0.0198	0.4928	0.0784	0.72
Mof_C 	C 	0.3378	0.4684	0.1194	0.055
Mof_H 	H 	0.3609	0.4765	0.135	-0.024
Mof_H 	H 	0.3445	0.444	0.1054	0.04
Mof_O 	O 	0.0053	0.4721	0.1275	-0.185
Mof_H 	H 	0.0078	0.4869	0.1476	0.047
Mof_C 	C 	0.4666	0.269	0.1755	-0.043
Mof_C 	C 	0.5283	0.3021	0.1455	-0.026
Mof_C 	C 	0.6479	0.3564	0.2059	-0.147
Mof_H 	H 	0.6412	0.3715	0.2283	0.071
Mof_C 	C 	0.6861	0.3419	0.2031	0.303
Mof_C 	C 	0.6953	0.3192	0.1712	-0.253
Mof_H 	H 	0.7207	0.3081	0.1685	0.149
Mof_C 	C 	0.6669	0.3126	0.1429	0.044
Mof_H 	H 	0.6727	0.2972	0.1206	0.019
Mof_C 	C 	0.6303	0.3287	0.1476	-0.027
Mof_H 	H 	0.6113	0.3245	0.1278	0.036
Mof_C 	C 	0.481	0.3777	0.2008	0.04
Mof_H 	H 	0.4827	0.35	0.2004	0.03
Mof_C 	C 	0.4462	0.3959	0.2113	-0.041
Mof_C 	C 	0.4427	0.4357	0.2115	0.011
Mof_H 	H 	0.4188	0.4478	0.2189	0.029
Mof_C 	C 	0.4731	0.4572	0.201	-0.109
Mof_H 	H 	0.4711	0.4849	0.2007	0.073
Mof_C 	C 	0.5074	0.4396	0.1908	0.07
Mof_H 	H 	0.5287	0.4556	0.1832	0.001
Mof_C 	C 	0.7159	0.351	0.235	-0.853
Mof_H 	H 	0.7206	0.3783	0.2327	0.383
Mof_H 	H 	0.7058	0.3461	0.2604	-0.067
Mof_C 	C 	0.4108	0.3743	0.2252	0.041
Mof_H 	H 	0.3941	0.3922	0.2407	0.059
Mof_H 	H 	0.3955	0.3653	0.2024	-0.012
Mof_N 	N 	0.449	0.28	0.2018	-0.108
Mof_N 	N 	0.5429	0.329	0.1592	-0.181
Mof_N 	N 	0.6204	0.35016	0.1787	-0.14
Mof_N 	N 	0.5125	0.4	0.1911	-0.187
Mof_O 	O 	0.4217	0.3414	0.2487	-0.356
Mof_H 	H 	0.429	0.3204	0.258	0.252
Mof_O 	O 	0.7501	0.3299	0.2326	-0.801
Mof_H 	H 	0.761	0.3081	0.228	0.306
Mof_H 	H 	0.7024	0.3605	0.2573	0.277
Mof_H 	H 	0.7302	0.3284	0.2428	0.732
Mof_C 	C 	0.4122	0.3694	0.2184	0.056
Mof_H 	H 	0.3891	0.385	0.2265	-0.024
Mof_H 	H 	0.4055	0.3554	0.194	0.04
Mof_O 	O 	0.7447	0.3775	0.2221	-0.18
Mof_H 	H 	0.7422	0.3976	0.2369	0.046
Mof_C 	C 	0.9666	0.769	0.6755	-0.04
Mof_C 	C 	0.0283	0.8021	0.6455	-0.026
Mof_C 	C 	0.1479	0.8564	0.7059	-0.147
Mof_H 	H 	0.1412	0.8715	0.7283	0.071
Mof_C 	C 	0.1861	0.8419	0.7031	0.303
Mof_C 	C 	0.1953	0.8192	0.6712	-0.253
Mof_H 	H 	0.2207	0.8081	0.6685	0.149
Mof_C 	C 	0.1669	0.8126	0.6429	0.045
Mof_H 	H 	0.1727	0.7972	0.6206	0.019
Mof_C 	C 	0.1303	0.8287	0.6476	-0.027
Mof_H 	H 	0.1113	0.8245	0.6278	0.036
Mof_C 	C 	0.981	0.8777	0.7008	0.043
Mof_H 	H 	0.9827	0.85	0.7004	0.03
Mof_C 	C 	0.9462	0.8959	0.7113	-0.039
Mof_C 	C 	0.9427	0.9357	0.7115	0.006
Mof_H 	H 	0.9188	0.9478	0.7189	0.031
Mof_C 	C 	0.9731	0.9572	0.701	-0.099
Mof_H 	H 	0.9711	0.9849	0.7007	0.072
Mof_C 	C 	0.0074	0.9396	0.6908	0.062
Mof_H 	H 	0.0287	0.9556	0.6832	0.004
Mof_C 	C 	0.2159	0.851	0.735	-0.853
Mof_H 	H 	0.2206	0.8783	0.7327	0.383
Mof_H 	H 	0.2058	0.8461	0.7604	-0.067
Mof_C 	C 	0.9108	0.8743	0.7252	0.041
Mof_H 	H 	0.8941	0.8922	0.7407	0.059
Mof_H 	H 	0.8955	0.8653	0.7024	-0.012
Mof_N 	N 	0.949	0.78	0.7018	-0.108
Mof_N 	N 	0.0429	0.829	0.6592	-0.182
Mof_N 	N 	0.1204	0.85016	0.6787	-0.14
Mof_N 	N 	0.0125	0.9	0.6911	-0.188
Mof_O 	O 	0.9217	0.8414	0.7487	-0.356
Mof_H 	H 	0.929	0.8204	0.758	0.252
Mof_O 	O 	0.2501	0.8299	0.7326	-0.801
Mof_H 	H 	0.261	0.8081	0.728	0.306
Mof_H 	H 	0.2024	0.8605	0.7573	0.277
Mof_H 	H 	0.2302	0.8284	0.7428	0.732
Mof_C 	C 	0.9122	0.8694	0.7184	0.055
Mof_H 	H 	0.8891	0.885	0.7265	-0.025
Mof_H 	H 	0.9055	0.8554	0.694	0.04
Mof_O 	O 	0.2447	0.8775	0.7221	-0.18
Mof_H 	H 	0.2422	0.8976	0.7369	0.046
Mof_C 	C 	0.0334	0.731	0.6755	-0.043
Mof_C 	C 	0.9717	0.6979	0.6455	-0.023
Mof_C 	C 	0.8521	0.6436	0.7059	-0.147
Mof_H 	H 	0.8588	0.6285	0.7283	0.071
Mof_C 	C 	0.8139	0.6581	0.7031	0.303
Mof_C 	C 	0.8047	0.6808	0.6712	-0.253
Mof_H 	H 	0.7793	0.6919	0.6685	0.149
Mof_C 	C 	0.8331	0.6874	0.6429	0.044
Mof_H 	H 	0.8273	0.7028	0.6206	0.019
Mof_C 	C 	0.8697	0.6713	0.6476	-0.027
Mof_H 	H 	0.8887	0.6755	0.6278	0.036
Mof_C 	C 	0.019	0.6223	0.7008	0.037
Mof_H 	H 	0.0173	0.65	0.7004	0.03
Mof_C 	C 	0.0538	0.6041	0.7113	-0.043
Mof_C 	C 	0.0573	0.5643	0.7115	0.015
Mof_H 	H 	0.0812	0.5522	0.7189	0.027
Mof_C 	C 	0.0269	0.5428	0.701	-0.118
Mof_H 	H 	0.0289	0.5151	0.7007	0.076
Mof_C 	C 	0.9926	0.5604	0.6908	0.078
Mof_H 	H 	0.9713	0.5444	0.6832	-0.001
Mof_C 	C 	0.7841	0.649	0.735	-0.853
Mof_H 	H 	0.7794	0.6217	0.7327	0.383
Mof_H 	H 	0.7942	0.6539	0.7604	-0.067
Mof_C 	C 	0.0892	0.6257	0.7252	0.042
Mof_H 	H 	0.1059	0.6078	0.7407	0.058
Mof_H 	H 	0.1045	0.6347	0.7024	-0.013
Mof_N 	N 	0.051	0.72	0.7018	-0.108
Mof_N 	N 	0.9571	0.671	0.6592	-0.182
Mof_N 	N 	0.8796	0.64984	0.6787	-0.14
Mof_N 	N 	0.9875	0.6	0.6911	-0.186
Mof_O 	O 	0.0783	0.6586	0.7487	-0.356
Mof_H 	H 	0.071	0.6796	0.758	0.252
Mof_O 	O 	0.7499	0.6701	0.7326	-0.801
Mof_H 	H 	0.739	0.6919	0.728	0.306
Mof_H 	H 	0.7976	0.6395	0.7573	0.277
Mof_H 	H 	0.7698	0.6716	0.7428	0.732
Mof_C 	C 	0.0878	0.6306	0.7184	0.056
Mof_H 	H 	0.1109	0.615	0.7265	-0.024
Mof_H 	H 	0.0945	0.6446	0.694	0.04
Mof_O 	O 	0.7553	0.6225	0.7221	-0.18
Mof_H 	H 	0.7578	0.6024	0.7369	0.046
Mof_C 	C 	0.5334	0.231	0.1755	-0.043
Mof_C 	C 	0.4717	0.1979	0.1455	-0.026
Mof_C 	C 	0.3521	0.1436	0.2059	-0.147
Mof_H 	H 	0.3588	0.1285	0.2283	0.071
Mof_C 	C 	0.3139	0.1581	0.2031	0.303
Mof_C 	C 	0.3047	0.1808	0.1712	-0.254
Mof_H 	H 	0.2793	0.1919	0.1685	0.149
Mof_C 	C 	0.3331	0.1874	0.1429	0.044
Mof_H 	H 	0.3273	0.2028	0.1206	0.019
Mof_C 	C 	0.3697	0.1713	0.1476	-0.027
Mof_H 	H 	0.3887	0.1755	0.1278	0.036
Mof_C 	C 	0.519	0.1223	0.2008	0.04
Mof_H 	H 	0.5173	0.15	0.2004	0.03
Mof_C 	C 	0.5538	0.1041	0.2113	-0.041
Mof_C 	C 	0.5573	0.0643	0.2115	0.011
Mof_H 	H 	0.5812	0.0522	0.2189	0.028
Mof_C 	C 	0.5269	0.0428	0.201	-0.109
Mof_H 	H 	0.5289	0.0151	0.2007	0.072
Mof_C 	C 	0.4926	0.0604	0.1908	0.07
Mof_H 	H 	0.4713	0.0444	0.1832	0
Mof_C 	C 	0.2841	0.149	0.235	-0.853
Mof_H 	H 	0.2794	0.1217	0.2327	0.383
Mof_H 	H 	0.2942	0.1539	0.2604	-0.066
Mof_C 	C 	0.5892	0.1257	0.2252	0.041
Mof_H 	H 	0.6059	0.1078	0.2407	0.058
Mof_H 	H 	0.6045	0.1347	0.2024	-0.012
Mof_N 	N 	0.551	0.22	0.2018	-0.108
Mof_N 	N 	0.4571	0.171	0.1592	-0.181
Mof_N 	N 	0.3796	0.14984	0.1787	-0.14
Mof_N 	N 	0.4875	0.1	0.1911	-0.187
Mof_O 	O 	0.5783	0.1586	0.2487	-0.356
Mof_H 	H 	0.571	0.1796	0.258	0.252
Mof_O 	O 	0.2499	0.1701	0.2326	-0.801
Mof_H 	H 	0.239	0.1919	0.228	0.306
Mof_H 	H 	0.2976	0.1395	0.2573	0.277
Mof_H 	H 	0.2698	0.1716	0.2428	0.732
Mof_C 	C 	0.5878	0.1306	0.2184	0.056
Mof_H 	H 	0.6109	0.115	0.2265	-0.024
Mof_H 	H 	0.5945	0.1446	0.194	0.04
Mof_O 	O 	0.2553	0.1225	0.2221	-0.18
Mof_H 	H 	0.2578	0.1024	0.2369	0.046
Mof_C 	C 	0.9666	0.231	0.8245	-0.04
Mof_C 	C 	0.0283	0.1979	0.8545	-0.026
Mof_C 	C 	0.1479	0.1436	0.7941	-0.148
Mof_H 	H 	0.1412	0.1285	0.7717	0.071
Mof_C 	C 	0.1861	0.1581	0.7969	0.303
Mof_C 	C 	0.1953	0.1808	0.8288	-0.254
Mof_H 	H 	0.2207	0.1919	0.8315	0.149
Mof_C 	C 	0.1669	0.1874	0.8571	0.045
Mof_H 	H 	0.1727	0.2028	0.8794	0.019
Mof_C 	C 	0.1303	0.1713	0.8524	-0.027
Mof_H 	H 	0.1113	0.1755	0.8722	0.036
Mof_C 	C 	0.981	0.1223	0.7992	0.042
Mof_H 	H 	0.9827	0.15	0.7996	0.03
Mof_C 	C 	0.9462	0.1041	0.7887	-0.039
Mof_C 	C 	0.9427	0.0643	0.7885	0.006
Mof_H 	H 	0.9188	0.0522	0.7811	0.03
Mof_C 	C 	0.9731	0.0428	0.799	-0.099
Mof_H 	H 	0.9711	0.0151	0.7993	0.07
Mof_C 	C 	0.0074	0.0604	0.8092	0.061
Mof_H 	H 	0.0287	0.0444	0.8168	0.003
Mof_C 	C 	0.2159	0.149	0.765	-0.853
Mof_H 	H 	0.2206	0.1217	0.7673	0.383
Mof_H 	H 	0.2058	0.1539	0.7396	-0.066
Mof_C 	C 	0.9108	0.1257	0.7748	0.041
Mof_H 	H 	0.8941	0.1078	0.7593	0.059
Mof_H 	H 	0.8955	0.1347	0.7976	-0.012
Mof_N 	N 	0.949	0.22	0.7982	-0.108
Mof_N 	N 	0.0429	0.171	0.8408	-0.182
Mof_N 	N 	0.1204	0.14984	0.8213	-0.14
Mof_N 	N 	0.0125	0.1	0.8089	-0.188
Mof_O 	O 	0.9217	0.1586	0.7513	-0.356
Mof_H 	H 	0.929	0.1796	0.742	0.252
Mof_O 	O 	0.2501	0.1701	0.7674	-0.801
Mof_H 	H 	0.261	0.1919	0.772	0.306
Mof_H 	H 	0.2024	0.1395	0.7427	0.277
Mof_H 	H 	0.2302	0.1716	0.7572	0.732
Mof_C 	C 	0.9122	0.1306	0.7816	0.055
Mof_H 	H 	0.8891	0.115	0.7735	-0.024
Mof_H 	H 	0.9055	0.1446	0.806	0.04
Mof_O 	O 	0.2447	0.1225	0.7779	-0.18
Mof_H 	H 	0.2422	0.1024	0.7631	0.046
Mof_C 	C 	0.4666	0.731	0.3245	-0.043
Mof_C 	C 	0.5283	0.6979	0.3545	-0.026
Mof_C 	C 	0.6479	0.6436	0.2941	-0.147
Mof_H 	H 	0.6412	0.6285	0.2717	0.071
Mof_C 	C 	0.6861	0.6581	0.2969	0.303
Mof_C 	C 	0.6953	0.6808	0.3288	-0.254
Mof_H 	H 	0.7207	0.6919	0.3315	0.149
Mof_C 	C 	0.6669	0.6874	0.3571	0.045
Mof_H 	H 	0.6727	0.7028	0.3794	0.019
Mof_C 	C 	0.6303	0.6713	0.3524	-0.027
Mof_H 	H 	0.6113	0.6755	0.3722	0.036
Mof_C 	C 	0.481	0.6223	0.2992	0.04
Mof_H 	H 	0.4827	0.65	0.2996	0.03
Mof_C 	C 	0.4462	0.6041	0.2887	-0.041
Mof_C 	C 	0.4427	0.5643	0.2885	0.011
Mof_H 	H 	0.4188	0.5522	0.2811	0.029
Mof_C 	C 	0.4731	0.5428	0.299	-0.109
Mof_H 	H 	0.4711	0.5151	0.2993	0.073
Mof_C 	C 	0.5074	0.5604	0.3092	0.07
Mof_H 	H 	0.5287	0.5444	0.3168	0.001
Mof_C 	C 	0.7159	0.649	0.265	-0.853
Mof_H 	H 	0.7206	0.6217	0.2673	0.383
Mof_H 	H 	0.7058	0.6539	0.2396	-0.067
Mof_C 	C 	0.4108	0.6257	0.2748	0.041
Mof_H 	H 	0.3941	0.6078	0.2593	0.059
Mof_H 	H 	0.3955	0.6347	0.2976	-0.012
Mof_N 	N 	0.449	0.72	0.2982	-0.108
Mof_N 	N 	0.5429	0.671	0.3408	-0.181
Mof_N 	N 	0.6204	0.64984	0.3213	-0.14
Mof_N 	N 	0.5125	0.6	0.3089	-0.187
Mof_O 	O 	0.4217	0.6586	0.2513	-0.356
Mof_H 	H 	0.429	0.6796	0.242	0.252
Mof_O 	O 	0.7501	0.6701	0.2674	-0.801
Mof_H 	H 	0.761	0.6919	0.272	0.306
Mof_H 	H 	0.7024	0.6395	0.2427	0.277
Mof_H 	H 	0.7302	0.6716	0.2572	0.732
Mof_C 	C 	0.4122	0.6306	0.2816	0.056
Mof_H 	H 	0.3891	0.615	0.2735	-0.024
Mof_H 	H 	0.4055	0.6446	0.306	0.04
Mof_O 	O 	0.7447	0.6225	0.2779	-0.18
Mof_H 	H 	0.7422	0.6024	0.2631	0.046
Mof_C 	C 	0.5334	0.769	0.3245	-0.043
Mof_C 	C 	0.4717	0.8021	0.3545	-0.026
Mof_C 	C 	0.3521	0.8564	0.2941	-0.147
Mof_H 	H 	0.3588	0.8715	0.2717	0.071
Mof_C 	C 	0.3139	0.8419	0.2969	0.303
Mof_C 	C 	0.3047	0.8192	0.3288	-0.253
Mof_H 	H 	0.2793	0.8081	0.3315	0.149
Mof_C 	C 	0.3331	0.8126	0.3571	0.044
Mof_H 	H 	0.3273	0.7972	0.3794	0.019
Mof_C 	C 	0.3697	0.8287	0.3524	-0.027
Mof_H 	H 	0.3887	0.8245	0.3722	0.036
Mof_C 	C 	0.519	0.8777	0.2992	0.04
Mof_H 	H 	0.5173	0.85	0.2996	0.03
Mof_C 	C 	0.5538	0.8959	0.2887	-0.041
Mof_C 	C 	0.5573	0.9357	0.2885	0.011
Mof_H 	H 	0.5812	0.9478	0.2811	0.029
Mof_C 	C 	0.5269	0.9572	0.299	-0.108
Mof_H 	H 	0.5289	0.9849	0.2993	0.075
Mof_C 	C 	0.4926	0.9396	0.3092	0.07
Mof_H 	H 	0.4713	0.9556	0.3168	0.002
Mof_C 	C 	0.2841	0.851	0.265	-0.853
Mof_H 	H 	0.2794	0.8783	0.2673	0.383
Mof_H 	H 	0.2942	0.8461	0.2396	-0.067
Mof_C 	C 	0.5892	0.8743	0.2748	0.041
Mof_H 	H 	0.6059	0.8922	0.2593	0.059
Mof_H 	H 	0.6045	0.8653	0.2976	-0.012
Mof_N 	N 	0.551	0.78	0.2982	-0.108
Mof_N 	N 	0.4571	0.829	0.3408	-0.182
Mof_N 	N 	0.3796	0.85016	0.3213	-0.14
Mof_N 	N 	0.4875	0.9	0.3089	-0.187
Mof_O 	O 	0.5783	0.8414	0.2513	-0.356
Mof_H 	H 	0.571	0.8204	0.242	0.252
Mof_O 	O 	0.2499	0.8299	0.2674	-0.801
Mof_H 	H 	0.239	0.8081	0.272	0.306
Mof_H 	H 	0.2976	0.8605	0.2427	0.277
Mof_H 	H 	0.2698	0.8284	0.2572	0.732
Mof_C 	C 	0.5878	0.8694	0.2816	0.056
Mof_H 	H 	0.6109	0.885	0.2735	-0.025
Mof_H 	H 	0.5945	0.8554	0.306	0.04
Mof_O 	O 	0.2553	0.8775	0.2779	-0.18
Mof_H 	H 	0.2578	0.8976	0.2631	0.046
Mof_C 	C 	0.0334	0.269	0.8245	-0.043
Mof_C 	C 	0.9717	0.3021	0.8545	-0.023
Mof_C 	C 	0.8521	0.3564	0.7941	-0.147
Mof_H 	H 	0.8588	0.3715	0.7717	0.071
Mof_C 	C 	0.8139	0.3419	0.7969	0.303
Mof_C 	C 	0.8047	0.3192	0.8288	-0.254
Mof_H 	H 	0.7793	0.3081	0.8315	0.149
Mof_C 	C 	0.8331	0.3126	0.8571	0.045
Mof_H 	H 	0.8273	0.2972	0.8794	0.019
Mof_C 	C 	0.8697	0.3287	0.8524	-0.027
Mof_H 	H 	0.8887	0.3245	0.8722	0.036
Mof_C 	C 	0.019	0.3777	0.7992	0.037
Mof_H 	H 	0.0173	0.35	0.7996	0.03
Mof_C 	C 	0.0538	0.3959	0.7887	-0.043
Mof_C 	C 	0.0573	0.4357	0.7885	0.015
Mof_H 	H 	0.0812	0.4478	0.7811	0.027
Mof_C 	C 	0.0269	0.4572	0.799	-0.118
Mof_H 	H 	0.0289	0.4849	0.7993	0.076
Mof_C 	C 	0.9926	0.4396	0.8092	0.078
Mof_H 	H 	0.9713	0.4556	0.8168	-0.001
Mof_C 	C 	0.7841	0.351	0.765	-0.853
Mof_H 	H 	0.7794	0.3783	0.7673	0.383
Mof_H 	H 	0.7942	0.3461	0.7396	-0.067
Mof_C 	C 	0.0892	0.3743	0.7748	0.042
Mof_H 	H 	0.1059	0.3922	0.7593	0.058
Mof_H 	H 	0.1045	0.3653	0.7976	-0.013
Mof_N 	N 	0.051	0.28	0.7982	-0.108
Mof_N 	N 	0.9571	0.329	0.8408	-0.182
Mof_N 	N 	0.8796	0.35016	0.8213	-0.14
Mof_N 	N 	0.9875	0.4	0.8089	-0.186
Mof_O 	O 	0.0783	0.3414	0.7513	-0.357
Mof_H 	H 	0.071	0.3204	0.742	0.252
Mof_O 	O 	0.7499	0.3299	0.7674	-0.801
Mof_H 	H 	0.739	0.3081	0.772	0.306
Mof_H 	H 	0.7976	0.3605	0.7427	0.277
Mof_H 	H 	0.7698	0.3284	0.7572	0.732
Mof_C 	C 	0.0878	0.3694	0.7816	0.056
Mof_H 	H 	0.1109	0.385	0.7735	-0.024
Mof_H 	H 	0.0945	0.3554	0.806	0.04
Mof_O 	O 	0.7553	0.3775	0.7779	-0.18
Mof_H 	H 	0.7578	0.3976	0.7631	0.046
Mof_C 	C 	0.769	0.3245	0.5334	-0.043
Mof_C 	C 	0.8021	0.3545	0.4717	-0.026
Mof_C 	C 	0.8564	0.2941	0.3521	-0.147
Mof_H 	H 	0.8715	0.2717	0.3588	0.071
Mof_C 	C 	0.8419	0.2969	0.3139	0.303
Mof_C 	C 	0.8192	0.3288	0.3047	-0.253
Mof_H 	H 	0.8081	0.3315	0.2793	0.149
Mof_C 	C 	0.8126	0.3571	0.3331	0.044
Mof_H 	H 	0.7972	0.3794	0.3273	0.019
Mof_C 	C 	0.8287	0.3524	0.3697	-0.027
Mof_H 	H 	0.8245	0.3722	0.3887	0.036
Mof_C 	C 	0.8777	0.2992	0.519	0.04
Mof_H 	H 	0.85	0.2996	0.5173	0.03
Mof_C 	C 	0.8959	0.2887	0.5538	-0.041
Mof_C 	C 	0.9357	0.2885	0.5573	0.011
Mof_H 	H 	0.9478	0.2811	0.5812	0.029
Mof_C 	C 	0.9572	0.299	0.5269	-0.108
Mof_H 	H 	0.9849	0.2993	0.5289	0.075
Mof_C 	C 	0.9396	0.3092	0.4926	0.07
Mof_H 	H 	0.9556	0.3168	0.4713	0.002
Mof_C 	C 	0.851	0.265	0.2841	-0.853
Mof_H 	H 	0.8783	0.2673	0.2794	0.383
Mof_H 	H 	0.8461	0.2396	0.2942	-0.067
Mof_C 	C 	0.8743	0.2748	0.5892	0.041
Mof_H 	H 	0.8922	0.2593	0.6059	0.059
Mof_H 	H 	0.8653	0.2976	0.6045	-0.012
Mof_N 	N 	0.78	0.2982	0.551	-0.108
Mof_N 	N 	0.829	0.3408	0.4571	-0.182
Mof_N 	N 	0.85016	0.3213	0.3796	-0.14
Mof_N 	N 	0.9	0.3089	0.4875	-0.187
Mof_O 	O 	0.8414	0.2513	0.5783	-0.356
Mof_H 	H 	0.8204	0.242	0.571	0.252
Mof_O 	O 	0.8299	0.2674	0.2499	-0.801
Mof_H 	H 	0.8081	0.272	0.239	0.306
Mof_H 	H 	0.8605	0.2427	0.2976	0.277
Mof_H 	H 	0.8284	0.2572	0.2698	0.732
Mof_C 	C 	0.8694	0.2816	0.5878	0.056
Mof_H 	H 	0.885	0.2735	0.6109	-0.025
Mof_H 	H 	0.8554	0.306	0.5945	0.04
Mof_O 	O 	0.8775	0.2779	0.2553	-0.18
Mof_H 	H 	0.8976	0.2631	0.2578	0.046
Mof_C 	C 	0.269	0.8245	0.0334	-0.043
Mof_C 	C 	0.3021	0.8545	0.9717	-0.023
Mof_C 	C 	0.3564	0.7941	0.8521	-0.147
Mof_H 	H 	0.3715	0.7717	0.8588	0.071
Mof_C 	C 	0.3419	0.7969	0.8139	0.303
Mof_C 	C 	0.3192	0.8288	0.8047	-0.254
Mof_H 	H 	0.3081	0.8315	0.7793	0.149
Mof_C 	C 	0.3126	0.8571	0.8331	0.045
Mof_H 	H 	0.2972	0.8794	0.8273	0.019
Mof_C 	C 	0.3287	0.8524	0.8697	-0.027
Mof_H 	H 	0.3245	0.8722	0.8887	0.036
Mof_C 	C 	0.3777	0.7992	0.019	0.037
Mof_H 	H 	0.35	0.7996	0.0173	0.03
Mof_C 	C 	0.3959	0.7887	0.0538	-0.043
Mof_C 	C 	0.4357	0.7885	0.0573	0.015
Mof_H 	H 	0.4478	0.7811	0.0812	0.027
Mof_C 	C 	0.4572	0.799	0.0269	-0.118
Mof_H 	H 	0.4849	0.7993	0.0289	0.076
Mof_C 	C 	0.4396	0.8092	0.9926	0.078
Mof_H 	H 	0.4556	0.8168	0.9713	-0.001
Mof_C 	C 	0.351	0.765	0.7841	-0.853
Mof_H 	H 	0.3783	0.7673	0.7794	0.383
Mof_H 	H 	0.3461	0.7396	0.7942	-0.067
Mof_C 	C 	0.3743	0.7748	0.0892	0.042
Mof_H 	H 	0.3922	0.7593	0.1059	0.058
Mof_H 	H 	0.3653	0.7976	0.1045	-0.013
Mof_N 	N 	0.28	0.7982	0.051	-0.108
Mof_N 	N 	0.329	0.8408	0.9571	-0.182
Mof_N 	N 	0.35016	0.8213	0.8796	-0.14
Mof_N 	N 	0.4	0.8089	0.9875	-0.186
Mof_O 	O 	0.3414	0.7513	0.0783	-0.357
Mof_H 	H 	0.3204	0.742	0.071	0.252
Mof_O 	O 	0.3299	0.7674	0.7499	-0.801
Mof_H 	H 	0.3081	0.772	0.739	0.306
Mof_H 	H 	0.3605	0.7427	0.7976	0.277
Mof_H 	H 	0.3284	0.7572	0.7698	0.732
Mof_C 	C 	0.3694	0.7816	0.0878	0.056
Mof_H 	H 	0.385	0.7735	0.1109	-0.024
Mof_H 	H 	0.3554	0.806	0.0945	0.04
Mof_O 	O 	0.3775	0.7779	0.7553	-0.18
Mof_H 	H 	0.3976	0.7631	0.7578	0.046
Mof_C 	C 	0.231	0.8245	0.9666	-0.04
Mof_C 	C 	0.1979	0.8545	0.0283	-0.026
Mof_C 	C 	0.1436	0.7941	0.1479	-0.148
Mof_H 	H 	0.1285	0.7717	0.1412	0.071
Mof_C 	C 	0.1581	0.7969	0.1861	0.303
Mof_C 	C 	0.1808	0.8288	0.1953	-0.254
Mof_H 	H 	0.1919	0.8315	0.2207	0.149
Mof_C 	C 	0.1874	0.8571	0.1669	0.045
Mof_H 	H 	0.2028	0.8794	0.1727	0.019
Mof_C 	C 	0.1713	0.8524	0.1303	-0.027
Mof_H 	H 	0.1755	0.8722	0.1113	0.036
Mof_C 	C 	0.1223	0.7992	0.981	0.042
Mof_H 	H 	0.15	0.7996	0.9827	0.03
Mof_C 	C 	0.1041	0.7887	0.9462	-0.039
Mof_C 	C 	0.0643	0.7885	0.9427	0.006
Mof_H 	H 	0.0522	0.7811	0.9188	0.03
Mof_C 	C 	0.0428	0.799	0.9731	-0.099
Mof_H 	H 	0.0151	0.7993	0.9711	0.07
Mof_C 	C 	0.0604	0.8092	0.0074	0.061
Mof_H 	H 	0.0444	0.8168	0.0287	0.003
Mof_C 	C 	0.149	0.765	0.2159	-0.853
Mof_H 	H 	0.1217	0.7673	0.2206	0.383
Mof_H 	H 	0.1539	0.7396	0.2058	-0.066
Mof_C 	C 	0.1257	0.7748	0.9108	0.041
Mof_H 	H 	0.1078	0.7593	0.8941	0.059
Mof_H 	H 	0.1347	0.7976	0.8955	-0.012
Mof_N 	N 	0.22	0.7982	0.949	-0.108
Mof_N 	N 	0.171	0.8408	0.0429	-0.182
Mof_N 	N 	0.14984	0.8213	0.1204	-0.14
Mof_N 	N 	0.1	0.8089	0.0125	-0.188
Mof_O 	O 	0.1586	0.7513	0.9217	-0.356
Mof_H 	H 	0.1796	0.742	0.929	0.252
Mof_O 	O 	0.1701	0.7674	0.2501	-0.801
Mof_H 	H 	0.1919	0.772	0.261	0.306
Mof_H 	H 	0.1395	0.7427	0.2024	0.277
Mof_H 	H 	0.1716	0.7572	0.2302	0.732
Mof_C 	C 	0.1306	0.7816	0.9122	0.055
Mof_H 	H 	0.115	0.7735	0.8891	-0.024
Mof_H 	H 	0.1446	0.806	0.9055	0.04
Mof_O 	O 	0.1225	0.7779	0.2447	-0.18
Mof_H 	H 	0.1024	0.7631	0.2422	0.046
Mof_C 	C 	0.731	0.3245	0.4666	-0.043
Mof_C 	C 	0.6979	0.3545	0.5283	-0.026
Mof_C 	C 	0.6436	0.2941	0.6479	-0.147
Mof_H 	H 	0.6285	0.2717	0.6412	0.071
Mof_C 	C 	0.6581	0.2969	0.6861	0.303
Mof_C 	C 	0.6808	0.3288	0.6953	-0.254
Mof_H 	H 	0.6919	0.3315	0.7207	0.149
Mof_C 	C 	0.6874	0.3571	0.6669	0.045
Mof_H 	H 	0.7028	0.3794	0.6727	0.019
Mof_C 	C 	0.6713	0.3524	0.6303	-0.027
Mof_H 	H 	0.6755	0.3722	0.6113	0.036
Mof_C 	C 	0.6223	0.2992	0.481	0.04
Mof_H 	H 	0.65	0.2996	0.4827	0.03
Mof_C 	C 	0.6041	0.2887	0.4462	-0.041
Mof_C 	C 	0.5643	0.2885	0.4427	0.011
Mof_H 	H 	0.5522	0.2811	0.4188	0.029
Mof_C 	C 	0.5428	0.299	0.4731	-0.109
Mof_H 	H 	0.5151	0.2993	0.4711	0.073
Mof_C 	C 	0.5604	0.3092	0.5074	0.07
Mof_H 	H 	0.5444	0.3168	0.5287	0.001
Mof_C 	C 	0.649	0.265	0.7159	-0.853
Mof_H 	H 	0.6217	0.2673	0.7206	0.383
Mof_H 	H 	0.6539	0.2396	0.7058	-0.067
Mof_C 	C 	0.6257	0.2748	0.4108	0.041
Mof_H 	H 	0.6078	0.2593	0.3941	0.059
Mof_H 	H 	0.6347	0.2976	0.3955	-0.012
Mof_N 	N 	0.72	0.2982	0.449	-0.108
Mof_N 	N 	0.671	0.3408	0.5429	-0.181
Mof_N 	N 	0.64984	0.3213	0.6204	-0.14
Mof_N 	N 	0.6	0.3089	0.5125	-0.187
Mof_O 	O 	0.6586	0.2513	0.4217	-0.356
Mof_H 	H 	0.6796	0.242	0.429	0.252
Mof_O 	O 	0.6701	0.2674	0.7501	-0.801
Mof_H 	H 	0.6919	0.272	0.761	0.306
Mof_H 	H 	0.6395	0.2427	0.7024	0.277
Mof_H 	H 	0.6716	0.2572	0.7302	0.732
Mof_C 	C 	0.6306	0.2816	0.4122	0.056
Mof_H 	H 	0.615	0.2735	0.3891	-0.024
Mof_H 	H 	0.6446	0.306	0.4055	0.04
Mof_O 	O 	0.6225	0.2779	0.7447	-0.18
Mof_H 	H 	0.6024	0.2631	0.7422	0.046
Mof_C 	C 	0.731	0.6755	0.0334	-0.043
Mof_C 	C 	0.6979	0.6455	0.9717	-0.023
Mof_C 	C 	0.6436	0.7059	0.8521	-0.147
Mof_H 	H 	0.6285	0.7283	0.8588	0.071
Mof_C 	C 	0.6581	0.7031	0.8139	0.303
Mof_C 	C 	0.6808	0.6712	0.8047	-0.253
Mof_H 	H 	0.6919	0.6685	0.7793	0.149
Mof_C 	C 	0.6874	0.6429	0.8331	0.044
Mof_H 	H 	0.7028	0.6206	0.8273	0.019
Mof_C 	C 	0.6713	0.6476	0.8697	-0.027
Mof_H 	H 	0.6755	0.6278	0.8887	0.036
Mof_C 	C 	0.6223	0.7008	0.019	0.037
Mof_H 	H 	0.65	0.7004	0.0173	0.03
Mof_C 	C 	0.6041	0.7113	0.0538	-0.043
Mof_C 	C 	0.5643	0.7115	0.0573	0.015
Mof_H 	H 	0.5522	0.7189	0.0812	0.027
Mof_C 	C 	0.5428	0.701	0.0269	-0.118
Mof_H 	H 	0.5151	0.7007	0.0289	0.076
Mof_C 	C 	0.5604	0.6908	0.9926	0.078
Mof_H 	H 	0.5444	0.6832	0.9713	-0.001
Mof_C 	C 	0.649	0.735	0.7841	-0.853
Mof_H 	H 	0.6217	0.7327	0.7794	0.383
Mof_H 	H 	0.6539	0.7604	0.7942	-0.067
Mof_C 	C 	0.6257	0.7252	0.0892	0.042
Mof_H 	H 	0.6078	0.7407	0.1059	0.058
Mof_H 	H 	0.6347	0.7024	0.1045	-0.013
Mof_N 	N 	0.72	0.7018	0.051	-0.108
Mof_N 	N 	0.671	0.6592	0.9571	-0.182
Mof_N 	N 	0.64984	0.6787	0.8796	-0.14
Mof_N 	N 	0.6	0.6911	0.9875	-0.186
Mof_O 	O 	0.6586	0.7487	0.0783	-0.356
Mof_H 	H 	0.6796	0.758	0.071	0.252
Mof_O 	O 	0.6701	0.7326	0.7499	-0.801
Mof_H 	H 	0.6919	0.728	0.739	0.306
Mof_H 	H 	0.6395	0.7573	0.7976	0.277
Mof_H 	H 	0.6716	0.7428	0.7698	0.732
Mof_C 	C 	0.6306	0.7184	0.0878	0.056
Mof_H 	H 	0.615	0.7265	0.1109	-0.024
Mof_H 	H 	0.6446	0.694	0.0945	0.04
Mof_O 	O 	0.6225	0.7221	0.7553	-0.18
Mof_H 	H 	0.6024	0.7369	0.7578	0.046
Mof_C 	C 	0.231	0.1755	0.5334	-0.043
Mof_C 	C 	0.1979	0.1455	0.4717	-0.026
Mof_C 	C 	0.1436	0.2059	0.3521	-0.147
Mof_H 	H 	0.1285	0.2283	0.3588	0.071
Mof_C 	C 	0.1581	0.2031	0.3139	0.303
Mof_C 	C 	0.1808	0.1712	0.3047	-0.254
Mof_H 	H 	0.1919	0.1685	0.2793	0.149
Mof_C 	C 	0.1874	0.1429	0.3331	0.044
Mof_H 	H 	0.2028	0.1206	0.3273	0.019
Mof_C 	C 	0.1713	0.1476	0.3697	-0.027
Mof_H 	H 	0.1755	0.1278	0.3887	0.036
Mof_C 	C 	0.1223	0.2008	0.519	0.04
Mof_H 	H 	0.15	0.2004	0.5173	0.03
Mof_C 	C 	0.1041	0.2113	0.5538	-0.041
Mof_C 	C 	0.0643	0.2115	0.5573	0.011
Mof_H 	H 	0.0522	0.2189	0.5812	0.028
Mof_C 	C 	0.0428	0.201	0.5269	-0.109
Mof_H 	H 	0.0151	0.2007	0.5289	0.072
Mof_C 	C 	0.0604	0.1908	0.4926	0.07
Mof_H 	H 	0.0444	0.1832	0.4713	0
Mof_C 	C 	0.149	0.235	0.2841	-0.853
Mof_H 	H 	0.1217	0.2327	0.2794	0.383
Mof_H 	H 	0.1539	0.2604	0.2942	-0.066
Mof_C 	C 	0.1257	0.2252	0.5892	0.041
Mof_H 	H 	0.1078	0.2407	0.6059	0.058
Mof_H 	H 	0.1347	0.2024	0.6045	-0.012
Mof_N 	N 	0.22	0.2018	0.551	-0.108
Mof_N 	N 	0.171	0.1592	0.4571	-0.181
Mof_N 	N 	0.14984	0.1787	0.3796	-0.14
Mof_N 	N 	0.1	0.1911	0.4875	-0.187
Mof_O 	O 	0.1586	0.2487	0.5783	-0.356
Mof_H 	H 	0.1796	0.258	0.571	0.252
Mof_O 	O 	0.1701	0.2326	0.2499	-0.801
Mof_H 	H 	0.1919	0.228	0.239	0.306
Mof_H 	H 	0.1395	0.2573	0.2976	0.277
Mof_H 	H 	0.1716	0.2428	0.2698	0.732
Mof_C 	C 	0.1306	0.2184	0.5878	0.056
Mof_H 	H 	0.115	0.2265	0.6109	-0.024
Mof_H 	H 	0.1446	0.194	0.5945	0.04
Mof_O 	O 	0.1225	0.2221	0.2553	-0.18
Mof_H 	H 	0.1024	0.2369	0.2578	0.046
Mof_C 	C 	0.269	0.1755	0.4666	-0.043
Mof_C 	C 	0.3021	0.1455	0.5283	-0.026
Mof_C 	C 	0.3564	0.2059	0.6479	-0.147
Mof_H 	H 	0.3715	0.2283	0.6412	0.071
Mof_C 	C 	0.3419	0.2031	0.6861	0.303
Mof_C 	C 	0.3192	0.1712	0.6953	-0.253
Mof_H 	H 	0.3081	0.1685	0.7207	0.149
Mof_C 	C 	0.3126	0.1429	0.6669	0.044
Mof_H 	H 	0.2972	0.1206	0.6727	0.019
Mof_C 	C 	0.3287	0.1476	0.6303	-0.027
Mof_H 	H 	0.3245	0.1278	0.6113	0.036
Mof_C 	C 	0.3777	0.2008	0.481	0.04
Mof_H 	H 	0.35	0.2004	0.4827	0.03
Mof_C 	C 	0.3959	0.2113	0.4462	-0.041
Mof_C 	C 	0.4357	0.2115	0.4427	0.011
Mof_H 	H 	0.4478	0.2189	0.4188	0.029
Mof_C 	C 	0.4572	0.201	0.4731	-0.109
Mof_H 	H 	0.4849	0.2007	0.4711	0.073
Mof_C 	C 	0.4396	0.1908	0.5074	0.07
Mof_H 	H 	0.4556	0.1832	0.5287	0.001
Mof_C 	C 	0.351	0.235	0.7159	-0.853
Mof_H 	H 	0.3783	0.2327	0.7206	0.383
Mof_H 	H 	0.3461	0.2604	0.7058	-0.067
Mof_C 	C 	0.3743	0.2252	0.4108	0.041
Mof_H 	H 	0.3922	0.2407	0.3941	0.059
Mof_H 	H 	0.3653	0.2024	0.3955	-0.012
Mof_N 	N 	0.28	0.2018	0.449	-0.108
Mof_N 	N 	0.329	0.1592	0.5429	-0.181
Mof_N 	N 	0.35016	0.1787	0.6204	-0.14
Mof_N 	N 	0.4	0.1911	0.5125	-0.187
Mof_O 	O 	0.3414	0.2487	0.4217	-0.356
Mof_H 	H 	0.3204	0.258	0.429	0.252
Mof_O 	O 	0.3299	0.2326	0.7501	-0.801
Mof_H 	H 	0.3081	0.228	0.761	0.306
Mof_H 	H 	0.3605	0.2573	0.7024	0.277
Mof_H 	H 	0.3284	0.2428	0.7302	0.732
Mof_C 	C 	0.3694	0.2184	0.4122	0.056
Mof_H 	H 	0.385	0.2265	0.3891	-0.024
Mof_H 	H 	0.3554	0.194	0.4055	0.04
Mof_O 	O 	0.3775	0.2221	0.7447	-0.18
Mof_H 	H 	0.3976	0.2369	0.7422	0.046
Mof_C 	C 	0.769	0.6755	0.9666	-0.04
Mof_C 	C 	0.8021	0.6455	0.0283	-0.026
Mof_C 	C 	0.8564	0.7059	0.1479	-0.147
Mof_H 	H 	0.8715	0.7283	0.1412	0.071
Mof_C 	C 	0.8419	0.7031	0.1861	0.303
Mof_C 	C 	0.8192	0.6712	0.1953	-0.253
Mof_H 	H 	0.8081	0.6685	0.2207	0.149
Mof_C 	C 	0.8126	0.6429	0.1669	0.045
Mof_H 	H 	0.7972	0.6206	0.1727	0.019
Mof_C 	C 	0.8287	0.6476	0.1303	-0.027
Mof_H 	H 	0.8245	0.6278	0.1113	0.036
Mof_C 	C 	0.8777	0.7008	0.981	0.043
Mof_H 	H 	0.85	0.7004	0.9827	0.03
Mof_C 	C 	0.8959	0.7113	0.9462	-0.039
Mof_C 	C 	0.9357	0.7115	0.9427	0.006
Mof_H 	H 	0.9478	0.7189	0.9188	0.031
Mof_C 	C 	0.9572	0.701	0.9731	-0.099
Mof_H 	H 	0.9849	0.7007	0.9711	0.072
Mof_C 	C 	0.9396	0.6908	0.0074	0.062
Mof_H 	H 	0.9556	0.6832	0.0287	0.004
Mof_C 	C 	0.851	0.735	0.2159	-0.853
Mof_H 	H 	0.8783	0.7327	0.2206	0.383
Mof_H 	H 	0.8461	0.7604	0.2058	-0.067
Mof_C 	C 	0.8743	0.7252	0.9108	0.041
Mof_H 	H 	0.8922	0.7407	0.8941	0.059
Mof_H 	H 	0.8653	0.7024	0.8955	-0.012
Mof_N 	N 	0.78	0.7018	0.949	-0.108
Mof_N 	N 	0.829	0.6592	0.0429	-0.182
Mof_N 	N 	0.85016	0.6787	0.1204	-0.14
Mof_N 	N 	0.9	0.6911	0.0125	-0.188
Mof_O 	O 	0.8414	0.7487	0.9217	-0.356
Mof_H 	H 	0.8204	0.758	0.929	0.252
Mof_O 	O 	0.8299	0.7326	0.2501	-0.801
Mof_H 	H 	0.8081	0.728	0.261	0.306
Mof_H 	H 	0.8605	0.7573	0.2024	0.277
Mof_H 	H 	0.8284	0.7428	0.2302	0.732
Mof_C 	C 	0.8694	0.7184	0.9122	0.055
Mof_H 	H 	0.885	0.7265	0.8891	-0.025
Mof_H 	H 	0.8554	0.694	0.9055	0.04
Mof_O 	O 	0.8775	0.7221	0.2447	-0.18
Mof_H 	H 	0.8976	0.7369	0.2422	0.046
Mof_C 	C 	0.8245	0.9666	0.231	-0.04
Mof_C 	C 	0.8545	0.0283	0.1979	-0.026
Mof_C 	C 	0.7941	0.1479	0.1436	-0.148
Mof_H 	H 	0.7717	0.1412	0.1285	0.071
Mof_C 	C 	0.7969	0.1861	0.1581	0.303
Mof_C 	C 	0.8288	0.1953	0.1808	-0.254
Mof_H 	H 	0.8315	0.2207	0.1919	0.149
Mof_C 	C 	0.8571	0.1669	0.1874	0.045
Mof_H 	H 	0.8794	0.1727	0.2028	0.019
Mof_C 	C 	0.8524	0.1303	0.1713	-0.027
Mof_H 	H 	0.8722	0.1113	0.1755	0.036
Mof_C 	C 	0.7992	0.981	0.1223	0.042
Mof_H 	H 	0.7996	0.9827	0.15	0.03
Mof_C 	C 	0.7887	0.9462	0.1041	-0.039
Mof_C 	C 	0.7885	0.9427	0.0643	0.006
Mof_H 	H 	0.7811	0.9188	0.0522	0.03
Mof_C 	C 	0.799	0.9731	0.0428	-0.099
Mof_H 	H 	0.7993	0.9711	0.0151	0.07
Mof_C 	C 	0.8092	0.0074	0.0604	0.061
Mof_H 	H 	0.8168	0.0287	0.0444	0.003
Mof_C 	C 	0.765	0.2159	0.149	-0.853
Mof_H 	H 	0.7673	0.2206	0.1217	0.383
Mof_H 	H 	0.7396	0.2058	0.1539	-0.066
Mof_C 	C 	0.7748	0.9108	0.1257	0.041
Mof_H 	H 	0.7593	0.8941	0.1078	0.059
Mof_H 	H 	0.7976	0.8955	0.1347	-0.012
Mof_N 	N 	0.7982	0.949	0.22	-0.108
Mof_N 	N 	0.8408	0.0429	0.171	-0.182
Mof_N 	N 	0.8213	0.1204	0.14984	-0.14
Mof_N 	N 	0.8089	0.0125	0.1	-0.188
Mof_O 	O 	0.7513	0.9217	0.1586	-0.356
Mof_H 	H 	0.742	0.929	0.1796	0.252
Mof_O 	O 	0.7674	0.2501	0.1701	-0.801
Mof_H 	H 	0.772	0.261	0.1919	0.306
Mof_H 	H 	0.7427	0.2024	0.1395	0.277
Mof_H 	H 	0.7572	0.2302	0.1716	0.732
Mof_C 	C 	0.7816	0.9122	0.1306	0.055
Mof_H 	H 	0.7735	0.8891	0.115	-0.024
Mof_H 	H 	0.806	0.9055	0.1446	0.04
Mof_O 	O 	0.7779	0.2447	0.1225	-0.18
Mof_H 	H 	0.7631	0.2422	0.1024	0.046
Mof_C 	C 	0.3245	0.4666	0.731	-0.043
Mof_C 	C 	0.3545	0.5283	0.6979	-0.026
Mof_C 	C 	0.2941	0.6479	0.6436	-0.147
Mof_H 	H 	0.2717	0.6412	0.6285	0.071
Mof_C 	C 	0.2969	0.6861	0.6581	0.303
Mof_C 	C 	0.3288	0.6953	0.6808	-0.254
Mof_H 	H 	0.3315	0.7207	0.6919	0.149
Mof_C 	C 	0.3571	0.6669	0.6874	0.045
Mof_H 	H 	0.3794	0.6727	0.7028	0.019
Mof_C 	C 	0.3524	0.6303	0.6713	-0.027
Mof_H 	H 	0.3722	0.6113	0.6755	0.036
Mof_C 	C 	0.2992	0.481	0.6223	0.04
Mof_H 	H 	0.2996	0.4827	0.65	0.03
Mof_C 	C 	0.2887	0.4462	0.6041	-0.041
Mof_C 	C 	0.2885	0.4427	0.5643	0.011
Mof_H 	H 	0.2811	0.4188	0.5522	0.029
Mof_C 	C 	0.299	0.4731	0.5428	-0.109
Mof_H 	H 	0.2993	0.4711	0.5151	0.073
Mof_C 	C 	0.3092	0.5074	0.5604	0.07
Mof_H 	H 	0.3168	0.5287	0.5444	0.001
Mof_C 	C 	0.265	0.7159	0.649	-0.853
Mof_H 	H 	0.2673	0.7206	0.6217	0.383
Mof_H 	H 	0.2396	0.7058	0.6539	-0.067
Mof_C 	C 	0.2748	0.4108	0.6257	0.041
Mof_H 	H 	0.2593	0.3941	0.6078	0.059
Mof_H 	H 	0.2976	0.3955	0.6347	-0.012
Mof_N 	N 	0.2982	0.449	0.72	-0.108
Mof_N 	N 	0.3408	0.5429	0.671	-0.181
Mof_N 	N 	0.3213	0.6204	0.64984	-0.14
Mof_N 	N 	0.3089	0.5125	0.6	-0.187
Mof_O 	O 	0.2513	0.4217	0.6586	-0.356
Mof_H 	H 	0.242	0.429	0.6796	0.252
Mof_O 	O 	0.2674	0.7501	0.6701	-0.801
Mof_H 	H 	0.272	0.761	0.6919	0.306
Mof_H 	H 	0.2427	0.7024	0.6395	0.277
Mof_H 	H 	0.2572	0.7302	0.6716	0.732
Mof_C 	C 	0.2816	0.4122	0.6306	0.056
Mof_H 	H 	0.2735	0.3891	0.615	-0.024
Mof_H 	H 	0.306	0.4055	0.6446	0.04
Mof_O 	O 	0.2779	0.7447	0.6225	-0.18
Mof_H 	H 	0.2631	0.7422	0.6024	0.046
Mof_C 	C 	0.3245	0.5334	0.769	-0.043
Mof_C 	C 	0.3545	0.4717	0.8021	-0.026
Mof_C 	C 	0.2941	0.3521	0.8564	-0.147
Mof_H 	H 	0.2717	0.3588	0.8715	0.071
Mof_C 	C 	0.2969	0.3139	0.8419	0.303
Mof_C 	C 	0.3288	0.3047	0.8192	-0.253
Mof_H 	H 	0.3315	0.2793	0.8081	0.149
Mof_C 	C 	0.3571	0.3331	0.8126	0.044
Mof_H 	H 	0.3794	0.3273	0.7972	0.019
Mof_C 	C 	0.3524	0.3697	0.8287	-0.027
Mof_H 	H 	0.3722	0.3887	0.8245	0.036
Mof_C 	C 	0.2992	0.519	0.8777	0.04
Mof_H 	H 	0.2996	0.5173	0.85	0.03
Mof_C 	C 	0.2887	0.5538	0.8959	-0.041
Mof_C 	C 	0.2885	0.5573	0.9357	0.011
Mof_H 	H 	0.2811	0.5812	0.9478	0.029
Mof_C 	C 	0.299	0.5269	0.9572	-0.108
Mof_H 	H 	0.2993	0.5289	0.9849	0.075
Mof_C 	C 	0.3092	0.4926	0.9396	0.07
Mof_H 	H 	0.3168	0.4713	0.9556	0.002
Mof_C 	C 	0.265	0.2841	0.851	-0.853
Mof_H 	H 	0.2673	0.2794	0.8783	0.383
Mof_H 	H 	0.2396	0.2942	0.8461	-0.067
Mof_C 	C 	0.2748	0.5892	0.8743	0.041
Mof_H 	H 	0.2593	0.6059	0.8922	0.059
Mof_H 	H 	0.2976	0.6045	0.8653	-0.012
Mof_N 	N 	0.2982	0.551	0.78	-0.108
Mof_N 	N 	0.3408	0.4571	0.829	-0.182
Mof_N 	N 	0.3213	0.3796	0.85016	-0.14
Mof_N 	N 	0.3089	0.4875	0.9	-0.187
Mof_O 	O 	0.2513	0.5783	0.8414	-0.356
Mof_H 	H 	0.242	0.571	0.8204	0.252
Mof_O 	O 	0.2674	0.2499	0.8299	-0.801
Mof_H 	H 	0.272	0.239	0.8081	0.306
Mof_H 	H 	0.2427	0.2976	0.8605	0.277
Mof_H 	H 	0.2572	0.2698	0.8284	0.732
Mof_C 	C 	0.2816	0.5878	0.8694	0.056
Mof_H 	H 	0.2735	0.6109	0.885	-0.025
Mof_H 	H 	0.306	0.5945	0.8554	0.04
Mof_O 	O 	0.2779	0.2553	0.8775	-0.18
Mof_H 	H 	0.2631	0.2578	0.8976	0.046
Mof_C 	C 	0.8245	0.0334	0.269	-0.043
Mof_C 	C 	0.8545	0.9717	0.3021	-0.023
Mof_C 	C 	0.7941	0.8521	0.3564	-0.147
Mof_H 	H 	0.7717	0.8588	0.3715	0.071
Mof_C 	C 	0.7969	0.8139	0.3419	0.303
Mof_C 	C 	0.8288	0.8047	0.3192	-0.254
Mof_H 	H 	0.8315	0.7793	0.3081	0.149
Mof_C 	C 	0.8571	0.8331	0.3126	0.045
Mof_H 	H 	0.8794	0.8273	0.2972	0.019
Mof_C 	C 	0.8524	0.8697	0.3287	-0.027
Mof_H 	H 	0.8722	0.8887	0.3245	0.036
Mof_C 	C 	0.7992	0.019	0.3777	0.037
Mof_H 	H 	0.7996	0.0173	0.35	0.03
Mof_C 	C 	0.7887	0.0538	0.3959	-0.043
Mof_C 	C 	0.7885	0.0573	0.4357	0.015
Mof_H 	H 	0.7811	0.0812	0.4478	0.027
Mof_C 	C 	0.799	0.0269	0.4572	-0.118
Mof_H 	H 	0.7993	0.0289	0.4849	0.076
Mof_C 	C 	0.8092	0.9926	0.4396	0.078
Mof_H 	H 	0.8168	0.9713	0.4556	-0.001
Mof_C 	C 	0.765	0.7841	0.351	-0.853
Mof_H 	H 	0.7673	0.7794	0.3783	0.383
Mof_H 	H 	0.7396	0.7942	0.3461	-0.067
Mof_C 	C 	0.7748	0.0892	0.3743	0.042
Mof_H 	H 	0.7593	0.1059	0.3922	0.058
Mof_H 	H 	0.7976	0.1045	0.3653	-0.013
Mof_N 	N 	0.7982	0.051	0.28	-0.108
Mof_N 	N 	0.8408	0.9571	0.329	-0.182
Mof_N 	N 	0.8213	0.8796	0.35016	-0.14
Mof_N 	N 	0.8089	0.9875	0.4	-0.186
Mof_O 	O 	0.7513	0.0783	0.3414	-0.357
Mof_H 	H 	0.742	0.071	0.3204	0.252
Mof_O 	O 	0.7674	0.7499	0.3299	-0.801
Mof_H 	H 	0.772	0.739	0.3081	0.306
Mof_H 	H 	0.7427	0.7976	0.3605	0.277
Mof_H 	H 	0.7572	0.7698	0.3284	0.732
Mof_C 	C 	0.7816	0.0878	0.3694	0.056
Mof_H 	H 	0.7735	0.1109	0.385	-0.024
Mof_H 	H 	0.806	0.0945	0.3554	0.04
Mof_O 	O 	0.7779	0.7553	0.3775	-0.18
Mof_H 	H 	0.7631	0.7578	0.3976	0.046
Mof_C 	C 	0.1755	0.4666	0.269	-0.043
Mof_C 	C 	0.1455	0.5283	0.3021	-0.026
Mof_C 	C 	0.2059	0.6479	0.3564	-0.147
Mof_H 	H 	0.2283	0.6412	0.3715	0.071
Mof_C 	C 	0.2031	0.6861	0.3419	0.303
Mof_C 	C 	0.1712	0.6953	0.3192	-0.253
Mof_H 	H 	0.1685	0.7207	0.3081	0.149
Mof_C 	C 	0.1429	0.6669	0.3126	0.044
Mof_H 	H 	0.1206	0.6727	0.2972	0.019
Mof_C 	C 	0.1476	0.6303	0.3287	-0.027
Mof_H 	H 	0.1278	0.6113	0.3245	0.036
Mof_C 	C 	0.2008	0.481	0.3777	0.04
Mof_H 	H 	0.2004	0.4827	0.35	0.03
Mof_C 	C 	0.2113	0.4462	0.3959	-0.041
Mof_C 	C 	0.2115	0.4427	0.4357	0.011
Mof_H 	H 	0.2189	0.4188	0.4478	0.029
Mof_C 	C 	0.201	0.4731	0.4572	-0.109
Mof_H 	H 	0.2007	0.4711	0.4849	0.073
Mof_C 	C 	0.1908	0.5074	0.4396	0.07
Mof_H 	H 	0.1832	0.5287	0.4556	0.001
Mof_C 	C 	0.235	0.7159	0.351	-0.853
Mof_H 	H 	0.2327	0.7206	0.3783	0.383
Mof_H 	H 	0.2604	0.7058	0.3461	-0.067
Mof_C 	C 	0.2252	0.4108	0.3743	0.041
Mof_H 	H 	0.2407	0.3941	0.3922	0.059
Mof_H 	H 	0.2024	0.3955	0.3653	-0.012
Mof_N 	N 	0.2018	0.449	0.28	-0.108
Mof_N 	N 	0.1592	0.5429	0.329	-0.181
Mof_N 	N 	0.1787	0.6204	0.35016	-0.14
Mof_N 	N 	0.1911	0.5125	0.4	-0.187
Mof_O 	O 	0.2487	0.4217	0.3414	-0.356
Mof_H 	H 	0.258	0.429	0.3204	0.252
Mof_O 	O 	0.2326	0.7501	0.3299	-0.801
Mof_H 	H 	0.228	0.761	0.3081	0.306
Mof_H 	H 	0.2573	0.7024	0.3605	0.277
Mof_H 	H 	0.2428	0.7302	0.3284	0.732
Mof_C 	C 	0.2184	0.4122	0.3694	0.056
Mof_H 	H 	0.2265	0.3891	0.385	-0.024
Mof_H 	H 	0.194	0.4055	0.3554	0.04
Mof_O 	O 	0.2221	0.7447	0.3775	-0.18
Mof_H 	H 	0.2369	0.7422	0.3976	0.046
Mof_C 	C 	0.6755	0.9666	0.769	-0.04
Mof_C 	C 	0.6455	0.0283	0.8021	-0.026
Mof_C 	C 	0.7059	0.1479	0.8564	-0.147
Mof_H 	H 	0.7283	0.1412	0.8715	0.071
Mof_C 	C 	0.7031	0.1861	0.8419	0.303
Mof_C 	C 	0.6712	0.1953	0.8192	-0.253
Mof_H 	H 	0.6685	0.2207	0.8081	0.149
Mof_C 	C 	0.6429	0.1669	0.8126	0.045
Mof_H 	H 	0.6206	0.1727	0.7972	0.019
Mof_C 	C 	0.6476	0.1303	0.8287	-0.027
Mof_H 	H 	0.6278	0.1113	0.8245	0.036
Mof_C 	C 	0.7008	0.981	0.8777	0.043
Mof_H 	H 	0.7004	0.9827	0.85	0.03
Mof_C 	C 	0.7113	0.9462	0.8959	-0.039
Mof_C 	C 	0.7115	0.9427	0.9357	0.006
Mof_H 	H 	0.7189	0.9188	0.9478	0.031
Mof_C 	C 	0.701	0.9731	0.9572	-0.099
Mof_H 	H 	0.7007	0.9711	0.9849	0.072
Mof_C 	C 	0.6908	0.0074	0.9396	0.062
Mof_H 	H 	0.6832	0.0287	0.9556	0.004
Mof_C 	C 	0.735	0.2159	0.851	-0.853
Mof_H 	H 	0.7327	0.2206	0.8783	0.383
Mof_H 	H 	0.7604	0.2058	0.8461	-0.067
Mof_C 	C 	0.7252	0.9108	0.8743	0.041
Mof_H 	H 	0.7407	0.8941	0.8922	0.059
Mof_H 	H 	0.7024	0.8955	0.8653	-0.012
Mof_N 	N 	0.7018	0.949	0.78	-0.108
Mof_N 	N 	0.6592	0.0429	0.829	-0.182
Mof_N 	N 	0.6787	0.1204	0.85016	-0.14
Mof_N 	N 	0.6911	0.0125	0.9	-0.188
Mof_O 	O 	0.7487	0.9217	0.8414	-0.356
Mof_H 	H 	0.758	0.929	0.8204	0.252
Mof_O 	O 	0.7326	0.2501	0.8299	-0.801
Mof_H 	H 	0.728	0.261	0.8081	0.306
Mof_H 	H 	0.7573	0.2024	0.8605	0.277
Mof_H 	H 	0.7428	0.2302	0.8284	0.732
Mof_C 	C 	0.7184	0.9122	0.8694	0.055
Mof_H 	H 	0.7265	0.8891	0.885	-0.025
Mof_H 	H 	0.694	0.9055	0.8554	0.04
Mof_O 	O 	0.7221	0.2447	0.8775	-0.18
Mof_H 	H 	0.7369	0.2422	0.8976	0.046
Mof_C 	C 	0.6755	0.0334	0.731	-0.043
Mof_C 	C 	0.6455	0.9717	0.6979	-0.023
Mof_C 	C 	0.7059	0.8521	0.6436	-0.147
Mof_H 	H 	0.7283	0.8588	0.6285	0.071
Mof_C 	C 	0.7031	0.8139	0.6581	0.303
Mof_C 	C 	0.6712	0.8047	0.6808	-0.253
Mof_H 	H 	0.6685	0.7793	0.6919	0.149
Mof_C 	C 	0.6429	0.8331	0.6874	0.044
Mof_H 	H 	0.6206	0.8273	0.7028	0.019
Mof_C 	C 	0.6476	0.8697	0.6713	-0.027
Mof_H 	H 	0.6278	0.8887	0.6755	0.036
Mof_C 	C 	0.7008	0.019	0.6223	0.037
Mof_H 	H 	0.7004	0.0173	0.65	0.03
Mof_C 	C 	0.7113	0.0538	0.6041	-0.043
Mof_C 	C 	0.7115	0.0573	0.5643	0.015
Mof_H 	H 	0.7189	0.0812	0.5522	0.027
Mof_C 	C 	0.701	0.0269	0.5428	-0.118
Mof_H 	H 	0.7007	0.0289	0.5151	0.076
Mof_C 	C 	0.6908	0.9926	0.5604	0.078
Mof_H 	H 	0.6832	0.9713	0.5444	-0.001
Mof_C 	C 	0.735	0.7841	0.649	-0.853
Mof_H 	H 	0.7327	0.7794	0.6217	0.383
Mof_H 	H 	0.7604	0.7942	0.6539	-0.067
Mof_C 	C 	0.7252	0.0892	0.6257	0.042
Mof_H 	H 	0.7407	0.1059	0.6078	0.058
Mof_H 	H 	0.7024	0.1045	0.6347	-0.013
Mof_N 	N 	0.7018	0.051	0.72	-0.108
Mof_N 	N 	0.6592	0.9571	0.671	-0.182
Mof_N 	N 	0.6787	0.8796	0.64984	-0.14
Mof_N 	N 	0.6911	0.9875	0.6	-0.186
Mof_O 	O 	0.7487	0.0783	0.6586	-0.356
Mof_H 	H 	0.758	0.071	0.6796	0.252
Mof_O 	O 	0.7326	0.7499	0.6701	-0.801
Mof_H 	H 	0.728	0.739	0.6919	0.306
Mof_H 	H 	0.7573	0.7976	0.6395	0.277
Mof_H 	H 	0.7428	0.7698	0.6716	0.732
Mof_C 	C 	0.7184	0.0878	0.6306	0.056
Mof_H 	H 	0.7265	0.1109	0.615	-0.024
Mof_H 	H 	0.694	0.0945	0.6446	0.04
Mof_O 	O 	0.7221	0.7553	0.6225	-0.18
Mof_H 	H 	0.7369	0.7578	0.6024	0.046
Mof_C 	C 	0.1755	0.5334	0.231	-0.043
Mof_C 	C 	0.1455	0.4717	0.1979	-0.026
Mof_C 	C 	0.2059	0.3521	0.1436	-0.147
Mof_H 	H 	0.2283	0.3588	0.1285	0.071
Mof_C 	C 	0.2031	0.3139	0.1581	0.303
Mof_C 	C 	0.1712	0.3047	0.1808	-0.254
Mof_H 	H 	0.1685	0.2793	0.1919	0.149
Mof_C 	C 	0.1429	0.3331	0.1874	0.044
Mof_H 	H 	0.1206	0.3273	0.2028	0.019
Mof_C 	C 	0.1476	0.3697	0.1713	-0.027
Mof_H 	H 	0.1278	0.3887	0.1755	0.036
Mof_C 	C 	0.2008	0.519	0.1223	0.04
Mof_H 	H 	0.2004	0.5173	0.15	0.03
Mof_C 	C 	0.2113	0.5538	0.1041	-0.041
Mof_C 	C 	0.2115	0.5573	0.0643	0.011
Mof_H 	H 	0.2189	0.5812	0.0522	0.028
Mof_C 	C 	0.201	0.5269	0.0428	-0.109
Mof_H 	H 	0.2007	0.5289	0.0151	0.072
Mof_C 	C 	0.1908	0.4926	0.0604	0.07
Mof_H 	H 	0.1832	0.4713	0.0444	0
Mof_C 	C 	0.235	0.2841	0.149	-0.853
Mof_H 	H 	0.2327	0.2794	0.1217	0.383
Mof_H 	H 	0.2604	0.2942	0.1539	-0.066
Mof_C 	C 	0.2252	0.5892	0.1257	0.041
Mof_H 	H 	0.2407	0.6059	0.1078	0.058
Mof_H 	H 	0.2024	0.6045	0.1347	-0.012
Mof_N 	N 	0.2018	0.551	0.22	-0.108
Mof_N 	N 	0.1592	0.4571	0.171	-0.181
Mof_N 	N 	0.1787	0.3796	0.14984	-0.14
Mof_N 	N 	0.1911	0.4875	0.1	-0.187
Mof_O 	O 	0.2487	0.5783	0.1586	-0.356
Mof_H 	H 	0.258	0.571	0.1796	0.252
Mof_O 	O 	0.2326	0.2499	0.1701	-0.801
Mof_H 	H 	0.228	0.239	0.1919	0.306
Mof_H 	H 	0.2573	0.2976	0.1395	0.277
Mof_H 	H 	0.2428	0.2698	0.1716	0.732
Mof_C 	C 	0.2184	0.5878	0.1306	0.056
Mof_H 	H 	0.2265	0.6109	0.115	-0.024
Mof_H 	H 	0.194	0.5945	0.1446	0.04
Mof_O 	O 	0.2221	0.2553	0.1225	-0.18
Mof_H 	H 	0.2369	0.2578	0.1024	0.046
Mof_C 	C 	0.981	0.2834	0.9255	-0.039
Mof_C 	C 	0.9479	0.2217	0.8955	-0.023
Mof_C 	C 	0.8936	0.1021	0.9559	-0.141
Mof_H 	H 	0.8785	0.1088	0.9783	0.07
Mof_C 	C 	0.9081	0.0639	0.9531	0.292
Mof_C 	C 	0.9308	0.0547	0.9212	-0.245
Mof_H 	H 	0.9419	0.0293	0.9185	0.146
Mof_C 	C 	0.9374	0.0831	0.8929	0.039
Mof_H 	H 	0.9528	0.0773	0.8706	0.022
Mof_C 	C 	0.9213	0.1197	0.8976	-0.024
Mof_H 	H 	0.9255	0.1387	0.8778	0.035
Mof_C 	C 	0.8723	0.269	0.9508	0.04
Mof_H 	H 	0.9	0.2673	0.9504	0.031
Mof_C 	C 	0.8541	0.3038	0.9613	-0.039
Mof_C 	C 	0.8143	0.3073	0.9615	0.01
Mof_H 	H 	0.8022	0.3312	0.9689	0.029
Mof_C 	C 	0.7928	0.2769	0.951	-0.108
Mof_H 	H 	0.7651	0.2789	0.9507	0.074
Mof_C 	C 	0.8104	0.2426	0.9408	0.07
Mof_H 	H 	0.7944	0.2213	0.9332	0.001
Mof_C 	C 	0.899	0.0341	0.985	-0.822
Mof_H 	H 	0.8717	0.0294	0.9827	0.376
Mof_H 	H 	0.9039	0.0442	0.0104	-0.067
Mof_C 	C 	0.8757	0.3392	0.9752	0.04
Mof_H 	H 	0.8578	0.3559	0.9907	0.06
Mof_H 	H 	0.8847	0.3545	0.9524	-0.011
Mof_N 	N 	0.97	0.301	0.9518	-0.107
Mof_N 	N 	0.921	0.2071	0.9092	-0.182
Mof_N 	N 	0.89984	0.1296	0.9287	-0.142
Mof_N 	N 	0.85	0.2375	0.9411	-0.187
Mof_O 	O 	0.9086	0.3283	0.9987	-0.349
Mof_H 	H 	0.9296	0.321	0.008	0.247
Mof_O 	O 	0.9201	0.9999	0.9826	-0.786
Mof_H 	H 	0.9419	0.989	0.978	0.304
Mof_H 	H 	0.8895	0.0476	0.0073	0.266
Mof_H 	H 	0.9216	0.0198	0.9928	0.714
Mof_C 	C 	0.8806	0.3378	0.9684	0.054
Mof_H 	H 	0.865	0.3609	0.9765	-0.024
Mof_H 	H 	0.8946	0.3445	0.944	0.039
Mof_O 	O 	0.8725	0.0053	0.9721	-0.187
Mof_H 	H 	0.8524	0.0078	0.9869	0.051
Mof_C 	C 	0.481	0.7834	0.4255	-0.043
Mof_C 	C 	0.4479	0.7217	0.3955	-0.026
Mof_C 	C 	0.3936	0.6021	0.4559	-0.147
Mof_H 	H 	0.3785	0.6088	0.4783	0.071
Mof_C 	C 	0.4081	0.5639	0.4531	0.303
Mof_C 	C 	0.4308	0.5547	0.4212	-0.254
Mof_H 	H 	0.4419	0.5293	0.4185	0.149
Mof_C 	C 	0.4374	0.5831	0.3929	0.045
Mof_H 	H 	0.4528	0.5773	0.3706	0.019
Mof_C 	C 	0.4213	0.6197	0.3976	-0.027
Mof_H 	H 	0.4255	0.6387	0.3778	0.036
Mof_C 	C 	0.3723	0.769	0.4508	0.04
Mof_H 	H 	0.4	0.7673	0.4504	0.03
Mof_C 	C 	0.3541	0.8038	0.4613	-0.041
Mof_C 	C 	0.3143	0.8073	0.4615	0.011
Mof_H 	H 	0.3022	0.8312	0.4689	0.029
Mof_C 	C 	0.2928	0.7769	0.451	-0.109
Mof_H 	H 	0.2651	0.7789	0.4507	0.073
Mof_C 	C 	0.3104	0.7426	0.4408	0.07
Mof_H 	H 	0.2944	0.7213	0.4332	0.001
Mof_C 	C 	0.399	0.5341	0.485	-0.853
Mof_H 	H 	0.3717	0.5294	0.4827	0.383
Mof_H 	H 	0.4039	0.5442	0.5104	-0.067
Mof_C 	C 	0.3757	0.8392	0.4752	0.041
Mof_H 	H 	0.3578	0.8559	0.4907	0.059
Mof_H 	H 	0.3847	0.8545	0.4524	-0.012
Mof_N 	N 	0.47	0.801	0.4518	-0.108
Mof_N 	N 	0.421	0.7071	0.4092	-0.181
Mof_N 	N 	0.39984	0.6296	0.4287	-0.14
Mof_N 	N 	0.35	0.7375	0.4411	-0.187
Mof_O 	O 	0.4086	0.8283	0.4987	-0.356
Mof_H 	H 	0.4296	0.821	0.508	0.252
Mof_O 	O 	0.4201	0.4999	0.4826	-0.801
Mof_H 	H 	0.4419	0.489	0.478	0.306
Mof_H 	H 	0.3895	0.5476	0.5073	0.277
Mof_H 	H 	0.4216	0.5198	0.4928	0.732
Mof_C 	C 	0.3806	0.8378	0.4684	0.056
Mof_H 	H 	0.365	0.8609	0.4765	-0.024
Mof_H 	H 	0.3946	0.8445	0.444	0.04
Mof_O 	O 	0.3725	0.5053	0.4721	-0.18
Mof_H 	H 	0.3524	0.5078	0.4869	0.046
Mof_C 	C 	0.519	0.7166	0.4255	-0.043
Mof_C 	C 	0.5521	0.7783	0.3955	-0.026
Mof_C 	C 	0.6064	0.8979	0.4559	-0.149
Mof_H 	H 	0.6215	0.8912	0.4783	0.071
Mof_C 	C 	0.5919	0.9361	0.4531	0.307
Mof_C 	C 	0.5692	0.9453	0.4212	-0.256
Mof_H 	H 	0.5581	0.9707	0.4185	0.151
Mof_C 	C 	0.5626	0.9169	0.3929	0.046
Mof_H 	H 	0.5472	0.9227	0.3706	0.019
Mof_C 	C 	0.5787	0.8803	0.3976	-0.028
Mof_H 	H 	0.5745	0.8613	0.3778	0.036
Mof_C 	C 	0.6277	0.731	0.4508	0.04
Mof_H 	H 	0.6	0.7327	0.4504	0.03
Mof_C 	C 	0.6459	0.6962	0.4613	-0.041
Mof_C 	C 	0.6857	0.6927	0.4615	0.011
Mof_H 	H 	0.6978	0.6688	0.4689	0.029
Mof_C 	C 	0.7072	0.7231	0.451	-0.109
Mof_H 	H 	0.7349	0.7211	0.4507	0.073
Mof_C 	C 	0.6896	0.7574	0.4408	0.07
Mof_H 	H 	0.7056	0.7787	0.4332	0.001
Mof_C 	C 	0.601	0.9659	0.485	-0.861
Mof_H 	H 	0.6283	0.9706	0.4827	0.384
Mof_H 	H 	0.5961	0.9558	0.5104	-0.07
Mof_C 	C 	0.6243	0.6608	0.4752	0.041
Mof_H 	H 	0.6422	0.6441	0.4907	0.059
Mof_H 	H 	0.6153	0.6455	0.4524	-0.012
Mof_N 	N 	0.53	0.699	0.4518	-0.108
Mof_N 	N 	0.579	0.7929	0.4092	-0.181
Mof_N 	N 	0.60016	0.8704	0.4287	-0.14
Mof_N 	N 	0.65	0.7625	0.4411	-0.187
Mof_O 	O 	0.5914	0.6717	0.4987	-0.356
Mof_H 	H 	0.5704	0.679	0.508	0.252
Mof_O 	O 	0.5799	0.0001	0.4826	-0.814
Mof_H 	H 	0.5581	0.011	0.478	0.31
Mof_H 	H 	0.6105	0.9524	0.5073	0.282
Mof_H 	H 	0.5784	0.9802	0.4928	0.744
Mof_C 	C 	0.6194	0.6622	0.4684	0.056
Mof_H 	H 	0.635	0.6391	0.4765	-0.024
Mof_H 	H 	0.6054	0.6555	0.444	0.04
Mof_O 	O 	0.6275	0.9947	0.4721	-0.175
Mof_H 	H 	0.6476	0.9922	0.4869	0.045
Mof_C 	C 	0.019	0.2166	0.9255	-0.044
Mof_C 	C 	0.0521	0.2783	0.8955	-0.025
Mof_C 	C 	0.1064	0.3979	0.9559	-0.143
Mof_H 	H 	0.1215	0.3912	0.9783	0.07
Mof_C 	C 	0.0919	0.4361	0.9531	0.296
Mof_C 	C 	0.0692	0.4453	0.9212	-0.248
Mof_H 	H 	0.0581	0.4707	0.9185	0.147
Mof_C 	C 	0.0626	0.4169	0.8929	0.041
Mof_H 	H 	0.0472	0.4227	0.8706	0.02
Mof_C 	C 	0.0787	0.3803	0.8976	-0.026
Mof_H 	H 	0.0745	0.3613	0.8778	0.035
Mof_C 	C 	0.1277	0.231	0.9508	0.04
Mof_H 	H 	0.1	0.2327	0.9504	0.03
Mof_C 	C 	0.1459	0.1962	0.9613	-0.039
Mof_C 	C 	0.1857	0.1927	0.9615	0.01
Mof_H 	H 	0.1978	0.1688	0.9689	0.029
Mof_C 	C 	0.2072	0.2231	0.951	-0.108
Mof_H 	H 	0.2349	0.2211	0.9507	0.074
Mof_C 	C 	0.1896	0.2574	0.9408	0.07
Mof_H 	H 	0.2056	0.2787	0.9332	0.001
Mof_C 	C 	0.101	0.4659	0.985	-0.83
Mof_H 	H 	0.1283	0.4706	0.9827	0.377
Mof_H 	H 	0.0961	0.4558	0.0104	-0.07
Mof_C 	C 	0.1243	0.1608	0.9752	0.04
Mof_H 	H 	0.1422	0.1441	0.9907	0.059
Mof_H 	H 	0.1153	0.1455	0.9524	-0.011
Mof_N 	N 	0.03	0.199	0.9518	-0.108
Mof_N 	N 	0.079	0.2929	0.9092	-0.182
Mof_N 	N 	0.10016	0.3704	0.9287	-0.141
Mof_N 	N 	0.15	0.2625	0.9411	-0.187
Mof_O 	O 	0.0914	0.1717	0.9987	-0.35
Mof_H 	H 	0.0704	0.179	0.008	0.246
Mof_O 	O 	0.0799	0.5001	0.9826	-0.799
Mof_H 	H 	0.0581	0.511	0.978	0.307
Mof_H 	H 	0.1105	0.4524	0.0073	0.271
Mof_H 	H 	0.0784	0.4802	0.9928	0.725
Mof_C 	C 	0.1194	0.1622	0.9684	0.054
Mof_H 	H 	0.135	0.1391	0.9765	-0.024
Mof_H 	H 	0.1054	0.1555	0.944	0.039
Mof_O 	O 	0.1275	0.4947	0.9721	-0.182
Mof_H 	H 	0.1476	0.4922	0.9869	0.05
Mof_C 	C 	0.019	0.7834	0.5745	-0.044
Mof_C 	C 	0.0521	0.7217	0.6045	-0.025
Mof_C 	C 	0.1064	0.6021	0.5441	-0.147
Mof_H 	H 	0.1215	0.6088	0.5217	0.071
Mof_C 	C 	0.0919	0.5639	0.5469	0.303
Mof_C 	C 	0.0692	0.5547	0.5788	-0.254
Mof_H 	H 	0.0581	0.5293	0.5815	0.149
Mof_C 	C 	0.0626	0.5831	0.6071	0.045
Mof_H 	H 	0.0472	0.5773	0.6294	0.019
Mof_C 	C 	0.0787	0.6197	0.6024	-0.027
Mof_H 	H 	0.0745	0.6387	0.6222	0.036
Mof_C 	C 	0.1277	0.769	0.5492	0.04
Mof_H 	H 	0.1	0.7673	0.5496	0.03
Mof_C 	C 	0.1459	0.8038	0.5387	-0.041
Mof_C 	C 	0.1857	0.8073	0.5385	0.011
Mof_H 	H 	0.1978	0.8312	0.5311	0.029
Mof_C 	C 	0.2072	0.7769	0.549	-0.109
Mof_H 	H 	0.2349	0.7789	0.5493	0.073
Mof_C 	C 	0.1896	0.7426	0.5592	0.07
Mof_H 	H 	0.2056	0.7213	0.5668	0.001
Mof_C 	C 	0.101	0.5341	0.515	-0.852
Mof_H 	H 	0.1283	0.5294	0.5173	0.383
Mof_H 	H 	0.0961	0.5442	0.4896	-0.067
Mof_C 	C 	0.1243	0.8392	0.5248	0.041
Mof_H 	H 	0.1422	0.8559	0.5093	0.059
Mof_H 	H 	0.1153	0.8545	0.5476	-0.012
Mof_N 	N 	0.03	0.801	0.5482	-0.108
Mof_N 	N 	0.079	0.7071	0.5908	-0.182
Mof_N 	N 	0.10016	0.6296	0.5713	-0.14
Mof_N 	N 	0.15	0.7375	0.5589	-0.187
Mof_O 	O 	0.0914	0.8283	0.5013	-0.356
Mof_H 	H 	0.0704	0.821	0.492	0.251
Mof_O 	O 	0.0799	0.4999	0.5174	-0.8
Mof_H 	H 	0.0581	0.489	0.522	0.306
Mof_H 	H 	0.1105	0.5476	0.4927	0.277
Mof_H 	H 	0.0784	0.5198	0.5072	0.731
Mof_C 	C 	0.1194	0.8378	0.5316	0.055
Mof_H 	H 	0.135	0.8609	0.5235	-0.024
Mof_H 	H 	0.1054	0.8445	0.556	0.04
Mof_O 	O 	0.1275	0.5053	0.5279	-0.18
Mof_H 	H 	0.1476	0.5078	0.5131	0.046
Mof_C 	C 	0.519	0.2834	0.0745	-0.043
Mof_C 	C 	0.5521	0.2217	0.1045	-0.026
Mof_C 	C 	0.6064	0.1021	0.0441	-0.15
Mof_H 	H 	0.6215	0.1088	0.0217	0.07
Mof_C 	C 	0.5919	0.0639	0.0469	0.307
Mof_C 	C 	0.5692	0.0547	0.0788	-0.256
Mof_H 	H 	0.5581	0.0293	0.0815	0.149
Mof_C 	C 	0.5626	0.0831	0.1071	0.046
Mof_H 	H 	0.5472	0.0773	0.1294	0.019
Mof_C 	C 	0.5787	0.1197	0.1024	-0.028
Mof_H 	H 	0.5745	0.1387	0.1222	0.036
Mof_C 	C 	0.6277	0.269	0.0492	0.04
Mof_H 	H 	0.6	0.2673	0.0496	0.03
Mof_C 	C 	0.6459	0.3038	0.0387	-0.043
Mof_C 	C 	0.6857	0.3073	0.0385	0.012
Mof_H 	H 	0.6978	0.3312	0.0311	0.028
Mof_C 	C 	0.7072	0.2769	0.049	-0.109
Mof_H 	H 	0.7349	0.2789	0.0493	0.073
Mof_C 	C 	0.6896	0.2426	0.0592	0.07
Mof_H 	H 	0.7056	0.2213	0.0668	0.001
Mof_C 	C 	0.601	0.0341	0.015	-0.867
Mof_H 	H 	0.6283	0.0294	0.0173	0.388
Mof_H 	H 	0.5961	0.0442	0.9896	-0.06
Mof_C 	C 	0.6243	0.3392	0.0248	0.043
Mof_H 	H 	0.6422	0.3559	0.0093	0.058
Mof_H 	H 	0.6153	0.3545	0.0476	-0.014
Mof_N 	N 	0.53	0.301	0.0482	-0.108
Mof_N 	N 	0.579	0.2071	0.0908	-0.181
Mof_N 	N 	0.60016	0.1296	0.0713	-0.14
Mof_N 	N 	0.65	0.2375	0.0589	-0.187
Mof_O 	O 	0.5914	0.3283	0.0013	-0.363
Mof_H 	H 	0.5704	0.321	0.992	0.258
Mof_O 	O 	0.5799	0.9999	0.0174	-0.789
Mof_H 	H 	0.5581	0.989	0.022	0.302
Mof_H 	H 	0.6105	0.0476	0.9927	0.277
Mof_H 	H 	0.5784	0.0198	0.0072	0.727
Mof_C 	C 	0.6194	0.3378	0.0316	0.057
Mof_H 	H 	0.635	0.3609	0.0235	-0.025
Mof_H 	H 	0.6054	0.3445	0.056	0.041
Mof_O 	O 	0.6275	0.0053	0.0279	-0.182
Mof_H 	H 	0.6476	0.0078	0.0131	0.043
Mof_C 	C 	0.481	0.2166	0.0745	-0.043
Mof_C 	C 	0.4479	0.2783	0.1045	-0.026
Mof_C 	C 	0.3936	0.3979	0.0441	-0.152
Mof_H 	H 	0.3785	0.3912	0.0217	0.071
Mof_C 	C 	0.4081	0.4361	0.0469	0.311
Mof_C 	C 	0.4308	0.4453	0.0788	-0.259
Mof_H 	H 	0.4419	0.4707	0.0815	0.151
Mof_C 	C 	0.4374	0.4169	0.1071	0.048
Mof_H 	H 	0.4528	0.4227	0.1294	0.018
Mof_C 	C 	0.4213	0.3803	0.1024	-0.029
Mof_H 	H 	0.4255	0.3613	0.1222	0.037
Mof_C 	C 	0.3723	0.231	0.0492	0.04
Mof_H 	H 	0.4	0.2327	0.0496	0.03
Mof_C 	C 	0.3541	0.1962	0.0387	-0.043
Mof_C 	C 	0.3143	0.1927	0.0385	0.012
Mof_H 	H 	0.3022	0.1688	0.0311	0.028
Mof_C 	C 	0.2928	0.2231	0.049	-0.109
Mof_H 	H 	0.2651	0.2211	0.0493	0.073
Mof_C 	C 	0.3104	0.2574	0.0592	0.07
Mof_H 	H 	0.2944	0.2787	0.0668	0.001
Mof_C 	C 	0.399	0.4659	0.015	-0.875
Mof_H 	H 	0.3717	0.4706	0.0173	0.389
Mof_H 	H 	0.4039	0.4558	0.9896	-0.063
Mof_C 	C 	0.3757	0.1608	0.0248	0.043
Mof_H 	H 	0.3578	0.1441	0.0093	0.057
Mof_H 	H 	0.3847	0.1455	0.0476	-0.014
Mof_N 	N 	0.47	0.199	0.0482	-0.108
Mof_N 	N 	0.421	0.2929	0.0908	-0.181
Mof_N 	N 	0.39984	0.3704	0.0713	-0.139
Mof_N 	N 	0.35	0.2625	0.0589	-0.187
Mof_O 	O 	0.4086	0.1717	0.0013	-0.363
Mof_H 	H 	0.4296	0.179	0.992	0.258
Mof_O 	O 	0.4201	0.5001	0.0174	-0.802
Mof_H 	H 	0.4419	0.511	0.022	0.305
Mof_H 	H 	0.3895	0.4524	0.9927	0.283
Mof_H 	H 	0.4216	0.4802	0.0072	0.738
Mof_C 	C 	0.3806	0.1622	0.0316	0.057
Mof_H 	H 	0.365	0.1391	0.0235	-0.025
Mof_H 	H 	0.3946	0.1555	0.056	0.041
Mof_O 	O 	0.3725	0.4947	0.0279	-0.177
Mof_H 	H 	0.3524	0.4922	0.0131	0.042
Mof_C 	C 	0.981	0.7166	0.5745	-0.039
Mof_C 	C 	0.9479	0.7783	0.6045	-0.023
Mof_C 	C 	0.8936	0.8979	0.5441	-0.149
Mof_H 	H 	0.8785	0.8912	0.5217	0.071
Mof_C 	C 	0.9081	0.9361	0.5469	0.307
Mof_C 	C 	0.9308	0.9453	0.5788	-0.256
Mof_H 	H 	0.9419	0.9707	0.5815	0.152
Mof_C 	C 	0.9374	0.9169	0.6071	0.046
Mof_H 	H 	0.9528	0.9227	0.6294	0.02
Mof_C 	C 	0.9213	0.8803	0.6024	-0.028
Mof_H 	H 	0.9255	0.8613	0.6222	0.036
Mof_C 	C 	0.8723	0.731	0.5492	0.04
Mof_H 	H 	0.9	0.7327	0.5496	0.03
Mof_C 	C 	0.8541	0.6962	0.5387	-0.041
Mof_C 	C 	0.8143	0.6927	0.5385	0.011
Mof_H 	H 	0.8022	0.6688	0.5311	0.029
Mof_C 	C 	0.7928	0.7231	0.549	-0.109
Mof_H 	H 	0.7651	0.7211	0.5493	0.073
Mof_C 	C 	0.8104	0.7574	0.5592	0.07
Mof_H 	H 	0.7944	0.7787	0.5668	0.001
Mof_C 	C 	0.899	0.9659	0.515	-0.861
Mof_H 	H 	0.8717	0.9706	0.5173	0.384
Mof_H 	H 	0.9039	0.9558	0.4896	-0.07
Mof_C 	C 	0.8757	0.6608	0.5248	0.042
Mof_H 	H 	0.8578	0.6441	0.5093	0.059
Mof_H 	H 	0.8847	0.6455	0.5476	-0.012
Mof_N 	N 	0.97	0.699	0.5482	-0.108
Mof_N 	N 	0.921	0.7929	0.5908	-0.182
Mof_N 	N 	0.89984	0.8704	0.5713	-0.14
Mof_N 	N 	0.85	0.7625	0.5589	-0.187
Mof_O 	O 	0.9086	0.6717	0.5013	-0.356
Mof_H 	H 	0.9296	0.679	0.492	0.252
Mof_O 	O 	0.9201	0.0001	0.5174	-0.815
Mof_H 	H 	0.9419	0.011	0.522	0.31
Mof_H 	H 	0.8895	0.9524	0.4927	0.282
Mof_H 	H 	0.9216	0.9802	0.5072	0.744
Mof_C 	C 	0.8806	0.6622	0.5316	0.056
Mof_H 	H 	0.865	0.6391	0.5235	-0.024
Mof_H 	H 	0.8946	0.6555	0.556	0.04
Mof_O 	O 	0.8725	0.9947	0.5279	-0.175
Mof_H 	H 	0.8524	0.9922	0.5131	0.045
Mof_C 	C 	0.9255	0.981	0.2834	-0.039
Mof_C 	C 	0.8955	0.9479	0.2217	-0.023
Mof_C 	C 	0.9559	0.8936	0.1021	-0.141
Mof_H 	H 	0.9783	0.8785	0.1088	0.07
Mof_C 	C 	0.9531	0.9081	0.0639	0.292
Mof_C 	C 	0.9212	0.9308	0.0547	-0.245
Mof_H 	H 	0.9185	0.9419	0.0293	0.146
Mof_C 	C 	0.8929	0.9374	0.0831	0.039
Mof_H 	H 	0.8706	0.9528	0.0773	0.022
Mof_C 	C 	0.8976	0.9213	0.1197	-0.024
Mof_H 	H 	0.8778	0.9255	0.1387	0.035
Mof_C 	C 	0.9508	0.8723	0.269	0.04
Mof_H 	H 	0.9504	0.9	0.2673	0.031
Mof_C 	C 	0.9613	0.8541	0.3038	-0.039
Mof_C 	C 	0.9615	0.8143	0.3073	0.01
Mof_H 	H 	0.9689	0.8022	0.3312	0.029
Mof_C 	C 	0.951	0.7928	0.2769	-0.108
Mof_H 	H 	0.9507	0.7651	0.2789	0.074
Mof_C 	C 	0.9408	0.8104	0.2426	0.07
Mof_H 	H 	0.9332	0.7944	0.2213	0.001
Mof_C 	C 	0.985	0.899	0.0341	-0.822
Mof_H 	H 	0.9827	0.8717	0.0294	0.376
Mof_H 	H 	0.0104	0.9039	0.0442	-0.067
Mof_C 	C 	0.9752	0.8757	0.3392	0.04
Mof_H 	H 	0.9907	0.8578	0.3559	0.06
Mof_H 	H 	0.9524	0.8847	0.3545	-0.011
Mof_N 	N 	0.9518	0.97	0.301	-0.107
Mof_N 	N 	0.9092	0.921	0.2071	-0.182
Mof_N 	N 	0.9287	0.89984	0.1296	-0.142
Mof_N 	N 	0.9411	0.85	0.2375	-0.187
Mof_O 	O 	0.9987	0.9086	0.3283	-0.349
Mof_H 	H 	0.008	0.9296	0.321	0.247
Mof_O 	O 	0.9826	0.9201	0.9999	-0.786
Mof_H 	H 	0.978	0.9419	0.989	0.304
Mof_H 	H 	0.0073	0.8895	0.0476	0.266
Mof_H 	H 	0.9928	0.9216	0.0198	0.714
Mof_C 	C 	0.9684	0.8806	0.3378	0.054
Mof_H 	H 	0.9765	0.865	0.3609	-0.024
Mof_H 	H 	0.944	0.8946	0.3445	0.039
Mof_O 	O 	0.9721	0.8725	0.0053	-0.187
Mof_H 	H 	0.9869	0.8524	0.0078	0.051
Mof_C 	C 	0.4255	0.481	0.7834	-0.043
Mof_C 	C 	0.3955	0.4479	0.7217	-0.026
Mof_C 	C 	0.4559	0.3936	0.6021	-0.147
Mof_H 	H 	0.4783	0.3785	0.6088	0.071
Mof_C 	C 	0.4531	0.4081	0.5639	0.303
Mof_C 	C 	0.4212	0.4308	0.5547	-0.254
Mof_H 	H 	0.4185	0.4419	0.5293	0.149
Mof_C 	C 	0.3929	0.4374	0.5831	0.045
Mof_H 	H 	0.3706	0.4528	0.5773	0.019
Mof_C 	C 	0.3976	0.4213	0.6197	-0.027
Mof_H 	H 	0.3778	0.4255	0.6387	0.036
Mof_C 	C 	0.4508	0.3723	0.769	0.04
Mof_H 	H 	0.4504	0.4	0.7673	0.03
Mof_C 	C 	0.4613	0.3541	0.8038	-0.041
Mof_C 	C 	0.4615	0.3143	0.8073	0.011
Mof_H 	H 	0.4689	0.3022	0.8312	0.029
Mof_C 	C 	0.451	0.2928	0.7769	-0.109
Mof_H 	H 	0.4507	0.2651	0.7789	0.073
Mof_C 	C 	0.4408	0.3104	0.7426	0.07
Mof_H 	H 	0.4332	0.2944	0.7213	0.001
Mof_C 	C 	0.485	0.399	0.5341	-0.853
Mof_H 	H 	0.4827	0.3717	0.5294	0.383
Mof_H 	H 	0.5104	0.4039	0.5442	-0.067
Mof_C 	C 	0.4752	0.3757	0.8392	0.041
Mof_H 	H 	0.4907	0.3578	0.8559	0.059
Mof_H 	H 	0.4524	0.3847	0.8545	-0.012
Mof_N 	N 	0.4518	0.47	0.801	-0.108
Mof_N 	N 	0.4092	0.421	0.7071	-0.181
Mof_N 	N 	0.4287	0.39984	0.6296	-0.14
Mof_N 	N 	0.4411	0.35	0.7375	-0.187
Mof_O 	O 	0.4987	0.4086	0.8283	-0.356
Mof_H 	H 	0.508	0.4296	0.821	0.252
Mof_O 	O 	0.4826	0.4201	0.4999	-0.801
Mof_H 	H 	0.478	0.4419	0.489	0.306
Mof_H 	H 	0.5073	0.3895	0.5476	0.277
Mof_H 	H 	0.4928	0.4216	0.5198	0.732
Mof_C 	C 	0.4684	0.3806	0.8378	0.056
Mof_H 	H 	0.4765	0.365	0.8609	-0.024
Mof_H 	H 	0.444	0.3946	0.8445	0.04
Mof_O 	O 	0.4721	0.3725	0.5053	-0.18
Mof_H 	H 	0.4869	0.3524	0.5078	0.046
Mof_C 	C 	0.4255	0.519	0.7166	-0.043
Mof_C 	C 	0.3955	0.5521	0.7783	-0.026
Mof_C 	C 	0.4559	0.6064	0.8979	-0.149
Mof_H 	H 	0.4783	0.6215	0.8912	0.071
Mof_C 	C 	0.4531	0.5919	0.9361	0.307
Mof_C 	C 	0.4212	0.5692	0.9453	-0.256
Mof_H 	H 	0.4185	0.5581	0.9707	0.151
Mof_C 	C 	0.3929	0.5626	0.9169	0.046
Mof_H 	H 	0.3706	0.5472	0.9227	0.019
Mof_C 	C 	0.3976	0.5787	0.8803	-0.028
Mof_H 	H 	0.3778	0.5745	0.8613	0.036
Mof_C 	C 	0.4508	0.6277	0.731	0.04
Mof_H 	H 	0.4504	0.6	0.7327	0.03
Mof_C 	C 	0.4613	0.6459	0.6962	-0.041
Mof_C 	C 	0.4615	0.6857	0.6927	0.011
Mof_H 	H 	0.4689	0.6978	0.6688	0.029
Mof_C 	C 	0.451	0.7072	0.7231	-0.109
Mof_H 	H 	0.4507	0.7349	0.7211	0.073
Mof_C 	C 	0.4408	0.6896	0.7574	0.07
Mof_H 	H 	0.4332	0.7056	0.7787	0.001
Mof_C 	C 	0.485	0.601	0.9659	-0.861
Mof_H 	H 	0.4827	0.6283	0.9706	0.384
Mof_H 	H 	0.5104	0.5961	0.9558	-0.07
Mof_C 	C 	0.4752	0.6243	0.6608	0.041
Mof_H 	H 	0.4907	0.6422	0.6441	0.059
Mof_H 	H 	0.4524	0.6153	0.6455	-0.012
Mof_N 	N 	0.4518	0.53	0.699	-0.108
Mof_N 	N 	0.4092	0.579	0.7929	-0.181
Mof_N 	N 	0.4287	0.60016	0.8704	-0.14
Mof_N 	N 	0.4411	0.65	0.7625	-0.187
Mof_O 	O 	0.4987	0.5914	0.6717	-0.356
Mof_H 	H 	0.508	0.5704	0.679	0.252
Mof_O 	O 	0.4826	0.5799	0.0001	-0.814
Mof_H 	H 	0.478	0.5581	0.011	0.31
Mof_H 	H 	0.5073	0.6105	0.9524	0.282
Mof_H 	H 	0.4928	0.5784	0.9802	0.744
Mof_C 	C 	0.4684	0.6194	0.6622	0.056
Mof_H 	H 	0.4765	0.635	0.6391	-0.024
Mof_H 	H 	0.444	0.6054	0.6555	0.04
Mof_O 	O 	0.4721	0.6275	0.9947	-0.175
Mof_H 	H 	0.4869	0.6476	0.9922	0.045
Mof_C 	C 	0.9255	0.019	0.2166	-0.044
Mof_C 	C 	0.8955	0.0521	0.2783	-0.025
Mof_C 	C 	0.9559	0.1064	0.3979	-0.143
Mof_H 	H 	0.9783	0.1215	0.3912	0.07
Mof_C 	C 	0.9531	0.0919	0.4361	0.296
Mof_C 	C 	0.9212	0.0692	0.4453	-0.248
Mof_H 	H 	0.9185	0.0581	0.4707	0.147
Mof_C 	C 	0.8929	0.0626	0.4169	0.041
Mof_H 	H 	0.8706	0.0472	0.4227	0.02
Mof_C 	C 	0.8976	0.0787	0.3803	-0.026
Mof_H 	H 	0.8778	0.0745	0.3613	0.035
Mof_C 	C 	0.9508	0.1277	0.231	0.04
Mof_H 	H 	0.9504	0.1	0.2327	0.03
Mof_C 	C 	0.9613	0.1459	0.1962	-0.039
Mof_C 	C 	0.9615	0.1857	0.1927	0.01
Mof_H 	H 	0.9689	0.1978	0.1688	0.029
Mof_C 	C 	0.951	0.2072	0.2231	-0.108
Mof_H 	H 	0.9507	0.2349	0.2211	0.074
Mof_C 	C 	0.9408	0.1896	0.2574	0.07
Mof_H 	H 	0.9332	0.2056	0.2787	0.001
Mof_C 	C 	0.985	0.101	0.4659	-0.83
Mof_H 	H 	0.9827	0.1283	0.4706	0.377
Mof_H 	H 	0.0104	0.0961	0.4558	-0.07
Mof_C 	C 	0.9752	0.1243	0.1608	0.04
Mof_H 	H 	0.9907	0.1422	0.1441	0.059
Mof_H 	H 	0.9524	0.1153	0.1455	-0.011
Mof_N 	N 	0.9518	0.03	0.199	-0.108
Mof_N 	N 	0.9092	0.079	0.2929	-0.182
Mof_N 	N 	0.9287	0.10016	0.3704	-0.141
Mof_N 	N 	0.9411	0.15	0.2625	-0.187
Mof_O 	O 	0.9987	0.0914	0.1717	-0.35
Mof_H 	H 	0.008	0.0704	0.179	0.246
Mof_O 	O 	0.9826	0.0799	0.5001	-0.799
Mof_H 	H 	0.978	0.0581	0.511	0.307
Mof_H 	H 	0.0073	0.1105	0.4524	0.271
Mof_H 	H 	0.9928	0.0784	0.4802	0.725
Mof_C 	C 	0.9684	0.1194	0.1622	0.054
Mof_H 	H 	0.9765	0.135	0.1391	-0.024
Mof_H 	H 	0.944	0.1054	0.1555	0.039
Mof_O 	O 	0.9721	0.1275	0.4947	-0.182
Mof_H 	H 	0.9869	0.1476	0.4922	0.05
Mof_C 	C 	0.5745	0.019	0.7834	-0.044
Mof_C 	C 	0.6045	0.0521	0.7217	-0.025
Mof_C 	C 	0.5441	0.1064	0.6021	-0.147
Mof_H 	H 	0.5217	0.1215	0.6088	0.071
Mof_C 	C 	0.5469	0.0919	0.5639	0.303
Mof_C 	C 	0.5788	0.0692	0.5547	-0.254
Mof_H 	H 	0.5815	0.0581	0.5293	0.149
Mof_C 	C 	0.6071	0.0626	0.5831	0.045
Mof_H 	H 	0.6294	0.0472	0.5773	0.019
Mof_C 	C 	0.6024	0.0787	0.6197	-0.027
Mof_H 	H 	0.6222	0.0745	0.6387	0.036
Mof_C 	C 	0.5492	0.1277	0.769	0.04
Mof_H 	H 	0.5496	0.1	0.7673	0.03
Mof_C 	C 	0.5387	0.1459	0.8038	-0.041
Mof_C 	C 	0.5385	0.1857	0.8073	0.011
Mof_H 	H 	0.5311	0.1978	0.8312	0.029
Mof_C 	C 	0.549	0.2072	0.7769	-0.109
Mof_H 	H 	0.5493	0.2349	0.7789	0.073
Mof_C 	C 	0.5592	0.1896	0.7426	0.07
Mof_H 	H 	0.5668	0.2056	0.7213	0.001
Mof_C 	C 	0.515	0.101	0.5341	-0.852
Mof_H 	H 	0.5173	0.1283	0.5294	0.383
Mof_H 	H 	0.4896	0.0961	0.5442	-0.067
Mof_C 	C 	0.5248	0.1243	0.8392	0.041
Mof_H 	H 	0.5093	0.1422	0.8559	0.059
Mof_H 	H 	0.5476	0.1153	0.8545	-0.012
Mof_N 	N 	0.5482	0.03	0.801	-0.108
Mof_N 	N 	0.5908	0.079	0.7071	-0.182
Mof_N 	N 	0.5713	0.10016	0.6296	-0.14
Mof_N 	N 	0.5589	0.15	0.7375	-0.187
Mof_O 	O 	0.5013	0.0914	0.8283	-0.356
Mof_H 	H 	0.492	0.0704	0.821	0.251
Mof_O 	O 	0.5174	0.0799	0.4999	-0.8
Mof_H 	H 	0.522	0.0581	0.489	0.306
Mof_H 	H 	0.4927	0.1105	0.5476	0.277
Mof_H 	H 	0.5072	0.0784	0.5198	0.731
Mof_C 	C 	0.5316	0.1194	0.8378	0.055
Mof_H 	H 	0.5235	0.135	0.8609	-0.024
Mof_H 	H 	0.556	0.1054	0.8445	0.04
Mof_O 	O 	0.5279	0.1275	0.5053	-0.18
Mof_H 	H 	0.5131	0.1476	0.5078	0.046
Mof_C 	C 	0.0745	0.519	0.2834	-0.043
Mof_C 	C 	0.1045	0.5521	0.2217	-0.026
Mof_C 	C 	0.0441	0.6064	0.1021	-0.15
Mof_H 	H 	0.0217	0.6215	0.1088	0.07
Mof_C 	C 	0.0469	0.5919	0.0639	0.307
Mof_C 	C 	0.0788	0.5692	0.0547	-0.256
Mof_H 	H 	0.0815	0.5581	0.0293	0.149
Mof_C 	C 	0.1071	0.5626	0.0831	0.046
Mof_H 	H 	0.1294	0.5472	0.0773	0.019
Mof_C 	C 	0.1024	0.5787	0.1197	-0.028
Mof_H 	H 	0.1222	0.5745	0.1387	0.036
Mof_C 	C 	0.0492	0.6277	0.269	0.04
Mof_H 	H 	0.0496	0.6	0.2673	0.03
Mof_C 	C 	0.0387	0.6459	0.3038	-0.043
Mof_C 	C 	0.0385	0.6857	0.3073	0.012
Mof_H 	H 	0.0311	0.6978	0.3312	0.028
Mof_C 	C 	0.049	0.7072	0.2769	-0.109
Mof_H 	H 	0.0493	0.7349	0.2789	0.073
Mof_C 	C 	0.0592	0.6896	0.2426	0.07
Mof_H 	H 	0.0668	0.7056	0.2213	0.001
Mof_C 	C 	0.015	0.601	0.0341	-0.867
Mof_H 	H 	0.0173	0.6283	0.0294	0.388
Mof_H 	H 	0.9896	0.5961	0.0442	-0.06
Mof_C 	C 	0.0248	0.6243	0.3392	0.043
Mof_H 	H 	0.0093	0.6422	0.3559	0.058
Mof_H 	H 	0.0476	0.6153	0.3545	-0.014
Mof_N 	N 	0.0482	0.53	0.301	-0.108
Mof_N 	N 	0.0908	0.579	0.2071	-0.181
Mof_N 	N 	0.0713	0.60016	0.1296	-0.14
Mof_N 	N 	0.0589	0.65	0.2375	-0.187
Mof_O 	O 	0.0013	0.5914	0.3283	-0.363
Mof_H 	H 	0.992	0.5704	0.321	0.258
Mof_O 	O 	0.0174	0.5799	0.9999	-0.789
Mof_H 	H 	0.022	0.5581	0.989	0.302
Mof_H 	H 	0.9927	0.6105	0.0476	0.277
Mof_H 	H 	0.0072	0.5784	0.0198	0.727
Mof_C 	C 	0.0316	0.6194	0.3378	0.057
Mof_H 	H 	0.0235	0.635	0.3609	-0.025
Mof_H 	H 	0.056	0.6054	0.3445	0.041
Mof_O 	O 	0.0279	0.6275	0.0053	-0.182
Mof_H 	H 	0.0131	0.6476	0.0078	0.043
Mof_C 	C 	0.0745	0.481	0.2166	-0.043
Mof_C 	C 	0.1045	0.4479	0.2783	-0.026
Mof_C 	C 	0.0441	0.3936	0.3979	-0.152
Mof_H 	H 	0.0217	0.3785	0.3912	0.071
Mof_C 	C 	0.0469	0.4081	0.4361	0.311
Mof_C 	C 	0.0788	0.4308	0.4453	-0.259
Mof_H 	H 	0.0815	0.4419	0.4707	0.151
Mof_C 	C 	0.1071	0.4374	0.4169	0.048
Mof_H 	H 	0.1294	0.4528	0.4227	0.018
Mof_C 	C 	0.1024	0.4213	0.3803	-0.029
Mof_H 	H 	0.1222	0.4255	0.3613	0.037
Mof_C 	C 	0.0492	0.3723	0.231	0.04
Mof_H 	H 	0.0496	0.4	0.2327	0.03
Mof_C 	C 	0.0387	0.3541	0.1962	-0.043
Mof_C 	C 	0.0385	0.3143	0.1927	0.012
Mof_H 	H 	0.0311	0.3022	0.1688	0.028
Mof_C 	C 	0.049	0.2928	0.2231	-0.109
Mof_H 	H 	0.0493	0.2651	0.2211	0.073
Mof_C 	C 	0.0592	0.3104	0.2574	0.07
Mof_H 	H 	0.0668	0.2944	0.2787	0.001
Mof_C 	C 	0.015	0.399	0.4659	-0.875
Mof_H 	H 	0.0173	0.3717	0.4706	0.389
Mof_H 	H 	0.9896	0.4039	0.4558	-0.063
Mof_C 	C 	0.0248	0.3757	0.1608	0.043
Mof_H 	H 	0.0093	0.3578	0.1441	0.057
Mof_H 	H 	0.0476	0.3847	0.1455	-0.014
Mof_N 	N 	0.0482	0.47	0.199	-0.108
Mof_N 	N 	0.0908	0.421	0.2929	-0.181
Mof_N 	N 	0.0713	0.39984	0.3704	-0.139
Mof_N 	N 	0.0589	0.35	0.2625	-0.187
Mof_O 	O 	0.0013	0.4086	0.1717	-0.363
Mof_H 	H 	0.992	0.4296	0.179	0.258
Mof_O 	O 	0.0174	0.4201	0.5001	-0.802
Mof_H 	H 	0.022	0.4419	0.511	0.305
Mof_H 	H 	0.9927	0.3895	0.4524	0.283
Mof_H 	H 	0.0072	0.4216	0.4802	0.738
Mof_C 	C 	0.0316	0.3806	0.1622	0.057
Mof_H 	H 	0.0235	0.365	0.1391	-0.025
Mof_H 	H 	0.056	0.3946	0.1555	0.041
Mof_O 	O 	0.0279	0.3725	0.4947	-0.177
Mof_H 	H 	0.0131	0.3524	0.4922	0.042
Mof_C 	C 	0.5745	0.981	0.7166	-0.039
Mof_C 	C 	0.6045	0.9479	0.7783	-0.023
Mof_C 	C 	0.5441	0.8936	0.8979	-0.149
Mof_H 	H 	0.5217	0.8785	0.8912	0.071
Mof_C 	C 	0.5469	0.9081	0.9361	0.307
Mof_C 	C 	0.5788	0.9308	0.9453	-0.256
Mof_H 	H 	0.5815	0.9419	0.9707	0.152
Mof_C 	C 	0.6071	0.9374	0.9169	0.046
Mof_H 	H 	0.6294	0.9528	0.9227	0.02
Mof_C 	C 	0.6024	0.9213	0.8803	-0.028
Mof_H 	H 	0.6222	0.9255	0.8613	0.036
Mof_C 	C 	0.5492	0.8723	0.731	0.04
Mof_H 	H 	0.5496	0.9	0.7327	0.03
Mof_C 	C 	0.5387	0.8541	0.6962	-0.041
Mof_C 	C 	0.5385	0.8143	0.6927	0.011
Mof_H 	H 	0.5311	0.8022	0.6688	0.029
Mof_C 	C 	0.549	0.7928	0.7231	-0.109
Mof_H 	H 	0.5493	0.7651	0.7211	0.073
Mof_C 	C 	0.5592	0.8104	0.7574	0.07
Mof_H 	H 	0.5668	0.7944	0.7787	0.001
Mof_C 	C 	0.515	0.899	0.9659	-0.861
Mof_H 	H 	0.5173	0.8717	0.9706	0.384
Mof_H 	H 	0.4896	0.9039	0.9558	-0.07
Mof_C 	C 	0.5248	0.8757	0.6608	0.042
Mof_H 	H 	0.5093	0.8578	0.6441	0.059
Mof_H 	H 	0.5476	0.8847	0.6455	-0.012
Mof_N 	N 	0.5482	0.97	0.699	-0.108
Mof_N 	N 	0.5908	0.921	0.7929	-0.182
Mof_N 	N 	0.5713	0.89984	0.8704	-0.14
Mof_N 	N 	0.5589	0.85	0.7625	-0.187
Mof_O 	O 	0.5013	0.9086	0.6717	-0.356
Mof_H 	H 	0.492	0.9296	0.679	0.252
Mof_O 	O 	0.5174	0.9201	0.0001	-0.815
Mof_H 	H 	0.522	0.9419	0.011	0.31
Mof_H 	H 	0.4927	0.8895	0.9524	0.282
Mof_H 	H 	0.5072	0.9216	0.9802	0.744
Mof_C 	C 	0.5316	0.8806	0.6622	0.056
Mof_H 	H 	0.5235	0.865	0.6391	-0.024
Mof_H 	H 	0.556	0.8946	0.6555	0.04
Mof_O 	O 	0.5279	0.8725	0.9947	-0.175
Mof_H 	H 	0.5131	0.8524	0.9922	0.045
Mof_C 	C 	0.2834	0.9255	0.981	-0.039
Mof_C 	C 	0.2217	0.8955	0.9479	-0.023
Mof_C 	C 	0.1021	0.9559	0.8936	-0.141
Mof_H 	H 	0.1088	0.9783	0.8785	0.07
Mof_C 	C 	0.0639	0.9531	0.9081	0.292
Mof_C 	C 	0.0547	0.9212	0.9308	-0.245
Mof_H 	H 	0.0293	0.9185	0.9419	0.146
Mof_C 	C 	0.0831	0.8929	0.9374	0.039
Mof_H 	H 	0.0773	0.8706	0.9528	0.022
Mof_C 	C 	0.1197	0.8976	0.9213	-0.024
Mof_H 	H 	0.1387	0.8778	0.9255	0.035
Mof_C 	C 	0.269	0.9508	0.8723	0.04
Mof_H 	H 	0.2673	0.9504	0.9	0.031
Mof_C 	C 	0.3038	0.9613	0.8541	-0.039
Mof_C 	C 	0.3073	0.9615	0.8143	0.01
Mof_H 	H 	0.3312	0.9689	0.8022	0.029
Mof_C 	C 	0.2769	0.951	0.7928	-0.108
Mof_H 	H 	0.2789	0.9507	0.7651	0.074
Mof_C 	C 	0.2426	0.9408	0.8104	0.07
Mof_H 	H 	0.2213	0.9332	0.7944	0.001
Mof_C 	C 	0.0341	0.985	0.899	-0.822
Mof_H 	H 	0.0294	0.9827	0.8717	0.376
Mof_H 	H 	0.0442	0.0104	0.9039	-0.067
Mof_C 	C 	0.3392	0.9752	0.8757	0.04
Mof_H 	H 	0.3559	0.9907	0.8578	0.06
Mof_H 	H 	0.3545	0.9524	0.8847	-0.011
Mof_N 	N 	0.301	0.9518	0.97	-0.107
Mof_N 	N 	0.2071	0.9092	0.921	-0.182
Mof_N 	N 	0.1296	0.9287	0.89984	-0.142
Mof_N 	N 	0.2375	0.9411	0.85	-0.187
Mof_O 	O 	0.3283	0.9987	0.9086	-0.349
Mof_H 	H 	0.321	0.008	0.9296	0.247
Mof_O 	O 	0.9999	0.9826	0.9201	-0.786
Mof_H 	H 	0.989	0.978	0.9419	0.304
Mof_H 	H 	0.0476	0.0073	0.8895	0.266
Mof_H 	H 	0.0198	0.9928	0.9216	0.714
Mof_C 	C 	0.3378	0.9684	0.8806	0.054
Mof_H 	H 	0.3609	0.9765	0.865	-0.024
Mof_H 	H 	0.3445	0.944	0.8946	0.039
Mof_O 	O 	0.0053	0.9721	0.8725	-0.187
Mof_H 	H 	0.0078	0.9869	0.8524	0.051
Mof_C 	C 	0.7834	0.4255	0.481	-0.043
Mof_C 	C 	0.7217	0.3955	0.4479	-0.026
Mof_C 	C 	0.6021	0.4559	0.3936	-0.147
Mof_H 	H 	0.6088	0.4783	0.3785	0.071
Mof_C 	C 	0.5639	0.4531	0.4081	0.303
Mof_C 	C 	0.5547	0.4212	0.4308	-0.254
Mof_H 	H 	0.5293	0.4185	0.4419	0.149
Mof_C 	C 	0.5831	0.3929	0.4374	0.045
Mof_H 	H 	0.5773	0.3706	0.4528	0.019
Mof_C 	C 	0.6197	0.3976	0.4213	-0.027
Mof_H 	H 	0.6387	0.3778	0.4255	0.036
Mof_C 	C 	0.769	0.4508	0.3723	0.04
Mof_H 	H 	0.7673	0.4504	0.4	0.03
Mof_C 	C 	0.8038	0.4613	0.3541	-0.041
Mof_C 	C 	0.8073	0.4615	0.3143	0.011
Mof_H 	H 	0.8312	0.4689	0.3022	0.029
Mof_C 	C 	0.7769	0.451	0.2928	-0.109
Mof_H 	H 	0.7789	0.4507	0.2651	0.073
Mof_C 	C 	0.7426	0.4408	0.3104	0.07
Mof_H 	H 	0.7213	0.4332	0.2944	0.001
Mof_C 	C 	0.5341	0.485	0.399	-0.853
Mof_H 	H 	0.5294	0.4827	0.3717	0.383
Mof_H 	H 	0.5442	0.5104	0.4039	-0.067
Mof_C 	C 	0.8392	0.4752	0.3757	0.041
Mof_H 	H 	0.8559	0.4907	0.3578	0.059
Mof_H 	H 	0.8545	0.4524	0.3847	-0.012
Mof_N 	N 	0.801	0.4518	0.47	-0.108
Mof_N 	N 	0.7071	0.4092	0.421	-0.181
Mof_N 	N 	0.6296	0.4287	0.39984	-0.14
Mof_N 	N 	0.7375	0.4411	0.35	-0.187
Mof_O 	O 	0.8283	0.4987	0.4086	-0.356
Mof_H 	H 	0.821	0.508	0.4296	0.252
Mof_O 	O 	0.4999	0.4826	0.4201	-0.801
Mof_H 	H 	0.489	0.478	0.4419	0.306
Mof_H 	H 	0.5476	0.5073	0.3895	0.277
Mof_H 	H 	0.5198	0.4928	0.4216	0.732
Mof_C 	C 	0.8378	0.4684	0.3806	0.056
Mof_H 	H 	0.8609	0.4765	0.365	-0.024
Mof_H 	H 	0.8445	0.444	0.3946	0.04
Mof_O 	O 	0.5053	0.4721	0.3725	-0.18
Mof_H 	H 	0.5078	0.4869	0.3524	0.046
Mof_C 	C 	0.7166	0.4255	0.519	-0.043
Mof_C 	C 	0.7783	0.3955	0.5521	-0.026
Mof_C 	C 	0.8979	0.4559	0.6064	-0.149
Mof_H 	H 	0.8912	0.4783	0.6215	0.071
Mof_C 	C 	0.9361	0.4531	0.5919	0.307
Mof_C 	C 	0.9453	0.4212	0.5692	-0.256
Mof_H 	H 	0.9707	0.4185	0.5581	0.151
Mof_C 	C 	0.9169	0.3929	0.5626	0.046
Mof_H 	H 	0.9227	0.3706	0.5472	0.019
Mof_C 	C 	0.8803	0.3976	0.5787	-0.028
Mof_H 	H 	0.8613	0.3778	0.5745	0.036
Mof_C 	C 	0.731	0.4508	0.6277	0.04
Mof_H 	H 	0.7327	0.4504	0.6	0.03
Mof_C 	C 	0.6962	0.4613	0.6459	-0.041
Mof_C 	C 	0.6927	0.4615	0.6857	0.011
Mof_H 	H 	0.6688	0.4689	0.6978	0.029
Mof_C 	C 	0.7231	0.451	0.7072	-0.109
Mof_H 	H 	0.7211	0.4507	0.7349	0.073
Mof_C 	C 	0.7574	0.4408	0.6896	0.07
Mof_H 	H 	0.7787	0.4332	0.7056	0.001
Mof_C 	C 	0.9659	0.485	0.601	-0.861
Mof_H 	H 	0.9706	0.4827	0.6283	0.384
Mof_H 	H 	0.9558	0.5104	0.5961	-0.07
Mof_C 	C 	0.6608	0.4752	0.6243	0.041
Mof_H 	H 	0.6441	0.4907	0.6422	0.059
Mof_H 	H 	0.6455	0.4524	0.6153	-0.012
Mof_N 	N 	0.699	0.4518	0.53	-0.108
Mof_N 	N 	0.7929	0.4092	0.579	-0.181
Mof_N 	N 	0.8704	0.4287	0.60016	-0.14
Mof_N 	N 	0.7625	0.4411	0.65	-0.187
Mof_O 	O 	0.6717	0.4987	0.5914	-0.356
Mof_H 	H 	0.679	0.508	0.5704	0.252
Mof_O 	O 	0.0001	0.4826	0.5799	-0.814
Mof_H 	H 	0.011	0.478	0.5581	0.31
Mof_H 	H 	0.9524	0.5073	0.6105	0.282
Mof_H 	H 	0.9802	0.4928	0.5784	0.744
Mof_C 	C 	0.6622	0.4684	0.6194	0.056
Mof_H 	H 	0.6391	0.4765	0.635	-0.024
Mof_H 	H 	0.6555	0.444	0.6054	0.04
Mof_O 	O 	0.9947	0.4721	0.6275	-0.175
Mof_H 	H 	0.9922	0.4869	0.6476	0.045
Mof_C 	C 	0.2166	0.9255	0.019	-0.044
Mof_C 	C 	0.2783	0.8955	0.0521	-0.025
Mof_C 	C 	0.3979	0.9559	0.1064	-0.143
Mof_H 	H 	0.3912	0.9783	0.1215	0.07
Mof_C 	C 	0.4361	0.9531	0.0919	0.296
Mof_C 	C 	0.4453	0.9212	0.0692	-0.248
Mof_H 	H 	0.4707	0.9185	0.0581	0.147
Mof_C 	C 	0.4169	0.8929	0.0626	0.041
Mof_H 	H 	0.4227	0.8706	0.0472	0.02
Mof_C 	C 	0.3803	0.8976	0.0787	-0.026
Mof_H 	H 	0.3613	0.8778	0.0745	0.035
Mof_C 	C 	0.231	0.9508	0.1277	0.04
Mof_H 	H 	0.2327	0.9504	0.1	0.03
Mof_C 	C 	0.1962	0.9613	0.1459	-0.039
Mof_C 	C 	0.1927	0.9615	0.1857	0.01
Mof_H 	H 	0.1688	0.9689	0.1978	0.029
Mof_C 	C 	0.2231	0.951	0.2072	-0.108
Mof_H 	H 	0.2211	0.9507	0.2349	0.074
Mof_C 	C 	0.2574	0.9408	0.1896	0.07
Mof_H 	H 	0.2787	0.9332	0.2056	0.001
Mof_C 	C 	0.4659	0.985	0.101	-0.83
Mof_H 	H 	0.4706	0.9827	0.1283	0.377
Mof_H 	H 	0.4558	0.0104	0.0961	-0.07
Mof_C 	C 	0.1608	0.9752	0.1243	0.04
Mof_H 	H 	0.1441	0.9907	0.1422	0.059
Mof_H 	H 	0.1455	0.9524	0.1153	-0.011
Mof_N 	N 	0.199	0.9518	0.03	-0.108
Mof_N 	N 	0.2929	0.9092	0.079	-0.182
Mof_N 	N 	0.3704	0.9287	0.10016	-0.141
Mof_N 	N 	0.2625	0.9411	0.15	-0.187
Mof_O 	O 	0.1717	0.9987	0.0914	-0.35
Mof_H 	H 	0.179	0.008	0.0704	0.246
Mof_O 	O 	0.5001	0.9826	0.0799	-0.799
Mof_H 	H 	0.511	0.978	0.0581	0.307
Mof_H 	H 	0.4524	0.0073	0.1105	0.271
Mof_H 	H 	0.4802	0.9928	0.0784	0.725
Mof_C 	C 	0.1622	0.9684	0.1194	0.054
Mof_H 	H 	0.1391	0.9765	0.135	-0.024
Mof_H 	H 	0.1555	0.944	0.1054	0.039
Mof_O 	O 	0.4947	0.9721	0.1275	-0.182
Mof_H 	H 	0.4922	0.9869	0.1476	0.05
Mof_C 	C 	0.7834	0.5745	0.019	-0.044
Mof_C 	C 	0.7217	0.6045	0.0521	-0.025
Mof_C 	C 	0.6021	0.5441	0.1064	-0.147
Mof_H 	H 	0.6088	0.5217	0.1215	0.071
Mof_C 	C 	0.5639	0.5469	0.0919	0.303
Mof_C 	C 	0.5547	0.5788	0.0692	-0.254
Mof_H 	H 	0.5293	0.5815	0.0581	0.149
Mof_C 	C 	0.5831	0.6071	0.0626	0.045
Mof_H 	H 	0.5773	0.6294	0.0472	0.019
Mof_C 	C 	0.6197	0.6024	0.0787	-0.027
Mof_H 	H 	0.6387	0.6222	0.0745	0.036
Mof_C 	C 	0.769	0.5492	0.1277	0.04
Mof_H 	H 	0.7673	0.5496	0.1	0.03
Mof_C 	C 	0.8038	0.5387	0.1459	-0.041
Mof_C 	C 	0.8073	0.5385	0.1857	0.011
Mof_H 	H 	0.8312	0.5311	0.1978	0.029
Mof_C 	C 	0.7769	0.549	0.2072	-0.109
Mof_H 	H 	0.7789	0.5493	0.2349	0.073
Mof_C 	C 	0.7426	0.5592	0.1896	0.07
Mof_H 	H 	0.7213	0.5668	0.2056	0.001
Mof_C 	C 	0.5341	0.515	0.101	-0.852
Mof_H 	H 	0.5294	0.5173	0.1283	0.383
Mof_H 	H 	0.5442	0.4896	0.0961	-0.067
Mof_C 	C 	0.8392	0.5248	0.1243	0.041
Mof_H 	H 	0.8559	0.5093	0.1422	0.059
Mof_H 	H 	0.8545	0.5476	0.1153	-0.012
Mof_N 	N 	0.801	0.5482	0.03	-0.108
Mof_N 	N 	0.7071	0.5908	0.079	-0.182
Mof_N 	N 	0.6296	0.5713	0.10016	-0.14
Mof_N 	N 	0.7375	0.5589	0.15	-0.187
Mof_O 	O 	0.8283	0.5013	0.0914	-0.356
Mof_H 	H 	0.821	0.492	0.0704	0.251
Mof_O 	O 	0.4999	0.5174	0.0799	-0.8
Mof_H 	H 	0.489	0.522	0.0581	0.306
Mof_H 	H 	0.5476	0.4927	0.1105	0.277
Mof_H 	H 	0.5198	0.5072	0.0784	0.731
Mof_C 	C 	0.8378	0.5316	0.1194	0.055
Mof_H 	H 	0.8609	0.5235	0.135	-0.024
Mof_H 	H 	0.8445	0.556	0.1054	0.04
Mof_O 	O 	0.5053	0.5279	0.1275	-0.18
Mof_H 	H 	0.5078	0.5131	0.1476	0.046
Mof_C 	C 	0.2834	0.0745	0.519	-0.043
Mof_C 	C 	0.2217	0.1045	0.5521	-0.026
Mof_C 	C 	0.1021	0.0441	0.6064	-0.15
Mof_H 	H 	0.1088	0.0217	0.6215	0.07
Mof_C 	C 	0.0639	0.0469	0.5919	0.307
Mof_C 	C 	0.0547	0.0788	0.5692	-0.256
Mof_H 	H 	0.0293	0.0815	0.5581	0.149
Mof_C 	C 	0.0831	0.1071	0.5626	0.046
Mof_H 	H 	0.0773	0.1294	0.5472	0.019
Mof_C 	C 	0.1197	0.1024	0.5787	-0.028
Mof_H 	H 	0.1387	0.1222	0.5745	0.036
Mof_C 	C 	0.269	0.0492	0.6277	0.04
Mof_H 	H 	0.2673	0.0496	0.6	0.03
Mof_C 	C 	0.3038	0.0387	0.6459	-0.043
Mof_C 	C 	0.3073	0.0385	0.6857	0.012
Mof_H 	H 	0.3312	0.0311	0.6978	0.028
Mof_C 	C 	0.2769	0.049	0.7072	-0.109
Mof_H 	H 	0.2789	0.0493	0.7349	0.073
Mof_C 	C 	0.2426	0.0592	0.6896	0.07
Mof_H 	H 	0.2213	0.0668	0.7056	0.001
Mof_C 	C 	0.0341	0.015	0.601	-0.867
Mof_H 	H 	0.0294	0.0173	0.6283	0.388
Mof_H 	H 	0.0442	0.9896	0.5961	-0.06
Mof_C 	C 	0.3392	0.0248	0.6243	0.043
Mof_H 	H 	0.3559	0.0093	0.6422	0.058
Mof_H 	H 	0.3545	0.0476	0.6153	-0.014
Mof_N 	N 	0.301	0.0482	0.53	-0.108
Mof_N 	N 	0.2071	0.0908	0.579	-0.181
Mof_N 	N 	0.1296	0.0713	0.60016	-0.14
Mof_N 	N 	0.2375	0.0589	0.65	-0.187
Mof_O 	O 	0.3283	0.0013	0.5914	-0.363
Mof_H 	H 	0.321	0.992	0.5704	0.258
Mof_O 	O 	0.9999	0.0174	0.5799	-0.789
Mof_H 	H 	0.989	0.022	0.5581	0.302
Mof_H 	H 	0.0476	0.9927	0.6105	0.277
Mof_H 	H 	0.0198	0.0072	0.5784	0.727
Mof_C 	C 	0.3378	0.0316	0.6194	0.057
Mof_H 	H 	0.3609	0.0235	0.635	-0.025
Mof_H 	H 	0.3445	0.056	0.6054	0.041
Mof_O 	O 	0.0053	0.0279	0.6275	-0.182
Mof_H 	H 	0.0078	0.0131	0.6476	0.043
Mof_C 	C 	0.2166	0.0745	0.481	-0.043
Mof_C 	C 	0.2783	0.1045	0.4479	-0.026
Mof_C 	C 	0.3979	0.0441	0.3936	-0.152
Mof_H 	H 	0.3912	0.0217	0.3785	0.071
Mof_C 	C 	0.4361	0.0469	0.4081	0.311
Mof_C 	C 	0.4453	0.0788	0.4308	-0.259
Mof_H 	H 	0.4707	0.0815	0.4419	0.151
Mof_C 	C 	0.4169	0.1071	0.4374	0.048
Mof_H 	H 	0.4227	0.1294	0.4528	0.018
Mof_C 	C 	0.3803	0.1024	0.4213	-0.029
Mof_H 	H 	0.3613	0.1222	0.4255	0.037
Mof_C 	C 	0.231	0.0492	0.3723	0.04
Mof_H 	H 	0.2327	0.0496	0.4	0.03
Mof_C 	C 	0.1962	0.0387	0.3541	-0.043
Mof_C 	C 	0.1927	0.0385	0.3143	0.012
Mof_H 	H 	0.1688	0.0311	0.3022	0.028
Mof_C 	C 	0.2231	0.049	0.2928	-0.109
Mof_H 	H 	0.2211	0.0493	0.2651	0.073
Mof_C 	C 	0.2574	0.0592	0.3104	0.07
Mof_H 	H 	0.2787	0.0668	0.2944	0.001
Mof_C 	C 	0.4659	0.015	0.399	-0.875
Mof_H 	H 	0.4706	0.0173	0.3717	0.389
Mof_H 	H 	0.4558	0.9896	0.4039	-0.063
Mof_C 	C 	0.1608	0.0248	0.3757	0.043
Mof_H 	H 	0.1441	0.0093	0.3578	0.057
Mof_H 	H 	0.1455	0.0476	0.3847	-0.014
Mof_N 	N 	0.199	0.0482	0.47	-0.108
Mof_N 	N 	0.2929	0.0908	0.421	-0.181
Mof_N 	N 	0.3704	0.0713	0.39984	-0.139
Mof_N 	N 	0.2625	0.0589	0.35	-0.187
Mof_O 	O 	0.1717	0.0013	0.4086	-0.363
Mof_H 	H 	0.179	0.992	0.4296	0.258
Mof_O 	O 	0.5001	0.0174	0.4201	-0.802
Mof_H 	H 	0.511	0.022	0.4419	0.305
Mof_H 	H 	0.4524	0.9927	0.3895	0.283
Mof_H 	H 	0.4802	0.0072	0.4216	0.738
Mof_C 	C 	0.1622	0.0316	0.3806	0.057
Mof_H 	H 	0.1391	0.0235	0.365	-0.025
Mof_H 	H 	0.1555	0.056	0.3946	0.041
Mof_O 	O 	0.4947	0.0279	0.3725	-0.177
Mof_H 	H 	0.4922	0.0131	0.3524	0.042
Mof_C 	C 	0.7166	0.5745	0.981	-0.039
Mof_C 	C 	0.7783	0.6045	0.9479	-0.023
Mof_C 	C 	0.8979	0.5441	0.8936	-0.149
Mof_H 	H 	0.8912	0.5217	0.8785	0.071
Mof_C 	C 	0.9361	0.5469	0.9081	0.307
Mof_C 	C 	0.9453	0.5788	0.9308	-0.256
Mof_H 	H 	0.9707	0.5815	0.9419	0.152
Mof_C 	C 	0.9169	0.6071	0.9374	0.046
Mof_H 	H 	0.9227	0.6294	0.9528	0.02
Mof_C 	C 	0.8803	0.6024	0.9213	-0.028
Mof_H 	H 	0.8613	0.6222	0.9255	0.036
Mof_C 	C 	0.731	0.5492	0.8723	0.04
Mof_H 	H 	0.7327	0.5496	0.9	0.03
Mof_C 	C 	0.6962	0.5387	0.8541	-0.041
Mof_C 	C 	0.6927	0.5385	0.8143	0.011
Mof_H 	H 	0.6688	0.5311	0.8022	0.029
Mof_C 	C 	0.7231	0.549	0.7928	-0.109
Mof_H 	H 	0.7211	0.5493	0.7651	0.073
Mof_C 	C 	0.7574	0.5592	0.8104	0.07
Mof_H 	H 	0.7787	0.5668	0.7944	0.001
Mof_C 	C 	0.9659	0.515	0.899	-0.861
Mof_H 	H 	0.9706	0.5173	0.8717	0.384
Mof_H 	H 	0.9558	0.4896	0.9039	-0.07
Mof_C 	C 	0.6608	0.5248	0.8757	0.042
Mof_H 	H 	0.6441	0.5093	0.8578	0.059
Mof_H 	H 	0.6455	0.5476	0.8847	-0.012
Mof_N 	N 	0.699	0.5482	0.97	-0.108
Mof_N 	N 	0.7929	0.5908	0.921	-0.182
Mof_N 	N 	0.8704	0.5713	0.89984	-0.14
Mof_N 	N 	0.7625	0.5589	0.85	-0.187
Mof_O 	O 	0.6717	0.5013	0.9086	-0.356
Mof_H 	H 	0.679	0.492	0.9296	0.252
Mof_O 	O 	0.0001	0.5174	0.9201	-0.815
Mof_H 	H 	0.011	0.522	0.9419	0.31
Mof_H 	H 	0.9524	0.4927	0.8895	0.282
Mof_H 	H 	0.9802	0.5072	0.9216	0.744
Mof_C 	C 	0.6622	0.5316	0.8806	0.056
Mof_H 	H 	0.6391	0.5235	0.865	-0.024
Mof_H 	H 	0.6555	0.556	0.8946	0.04
Mof_O 	O 	0.9947	0.5279	0.8725	-0.175
Mof_H 	H 	0.9922	0.5131	0.8524	0.045
Mof_C 	C 	0.5334	0.731	0.8245	-0.043
Mof_C 	C 	0.4717	0.6979	0.8545	-0.026
Mof_C 	C 	0.3521	0.6436	0.7941	-0.147
Mof_H 	H 	0.3588	0.6285	0.7717	0.071
Mof_C 	C 	0.3139	0.6581	0.7969	0.303
Mof_C 	C 	0.3047	0.6808	0.8288	-0.254
Mof_H 	H 	0.2793	0.6919	0.8315	0.149
Mof_C 	C 	0.3331	0.6874	0.8571	0.045
Mof_H 	H 	0.3273	0.7028	0.8794	0.019
Mof_C 	C 	0.3697	0.6713	0.8524	-0.027
Mof_H 	H 	0.3887	0.6755	0.8722	0.036
Mof_C 	C 	0.519	0.6223	0.7992	0.04
Mof_H 	H 	0.5173	0.65	0.7996	0.03
Mof_C 	C 	0.5538	0.6041	0.7887	-0.041
Mof_C 	C 	0.5573	0.5643	0.7885	0.011
Mof_H 	H 	0.5812	0.5522	0.7811	0.029
Mof_C 	C 	0.5269	0.5428	0.799	-0.109
Mof_H 	H 	0.5289	0.5151	0.7993	0.073
Mof_C 	C 	0.4926	0.5604	0.8092	0.07
Mof_H 	H 	0.4713	0.5444	0.8168	0.001
Mof_C 	C 	0.2841	0.649	0.765	-0.853
Mof_H 	H 	0.2794	0.6217	0.7673	0.383
Mof_H 	H 	0.2942	0.6539	0.7396	-0.067
Mof_C 	C 	0.5892	0.6257	0.7748	0.041
Mof_H 	H 	0.6059	0.6078	0.7593	0.059
Mof_H 	H 	0.6045	0.6347	0.7976	-0.012
Mof_N 	N 	0.551	0.72	0.7982	-0.108
Mof_N 	N 	0.4571	0.671	0.8408	-0.181
Mof_N 	N 	0.3796	0.64984	0.8213	-0.14
Mof_N 	N 	0.4875	0.6	0.8089	-0.187
Mof_O 	O 	0.5783	0.6586	0.7513	-0.356
Mof_H 	H 	0.571	0.6796	0.742	0.252
Mof_O 	O 	0.2499	0.6701	0.7674	-0.801
Mof_H 	H 	0.239	0.6919	0.772	0.306
Mof_H 	H 	0.2976	0.6395	0.7427	0.277
Mof_H 	H 	0.2698	0.6716	0.7572	0.732
Mof_C 	C 	0.5878	0.6306	0.7816	0.056
Mof_H 	H 	0.6109	0.615	0.7735	-0.024
Mof_H 	H 	0.5945	0.6446	0.806	0.04
Mof_O 	O 	0.2553	0.6225	0.7779	-0.18
Mof_H 	H 	0.2578	0.6024	0.7631	0.046
Mof_C 	C 	0.0334	0.231	0.3245	-0.043
Mof_C 	C 	0.9717	0.1979	0.3545	-0.023
Mof_C 	C 	0.8521	0.1436	0.2941	-0.147
Mof_H 	H 	0.8588	0.1285	0.2717	0.071
Mof_C 	C 	0.8139	0.1581	0.2969	0.303
Mof_C 	C 	0.8047	0.1808	0.3288	-0.254
Mof_H 	H 	0.7793	0.1919	0.3315	0.149
Mof_C 	C 	0.8331	0.1874	0.3571	0.044
Mof_H 	H 	0.8273	0.2028	0.3794	0.019
Mof_C 	C 	0.8697	0.1713	0.3524	-0.027
Mof_H 	H 	0.8887	0.1755	0.3722	0.036
Mof_C 	C 	0.019	0.1223	0.2992	0.037
Mof_H 	H 	0.0173	0.15	0.2996	0.03
Mof_C 	C 	0.0538	0.1041	0.2887	-0.043
Mof_C 	C 	0.0573	0.0643	0.2885	0.015
Mof_H 	H 	0.0812	0.0522	0.2811	0.026
Mof_C 	C 	0.0269	0.0428	0.299	-0.118
Mof_H 	H 	0.0289	0.0151	0.2993	0.074
Mof_C 	C 	0.9926	0.0604	0.3092	0.078
Mof_H 	H 	0.9713	0.0444	0.3168	-0.002
Mof_C 	C 	0.7841	0.149	0.265	-0.853
Mof_H 	H 	0.7794	0.1217	0.2673	0.383
Mof_H 	H 	0.7942	0.1539	0.2396	-0.067
Mof_C 	C 	0.0892	0.1257	0.2748	0.042
Mof_H 	H 	0.1059	0.1078	0.2593	0.058
Mof_H 	H 	0.1045	0.1347	0.2976	-0.013
Mof_N 	N 	0.051	0.22	0.2982	-0.108
Mof_N 	N 	0.9571	0.171	0.3408	-0.182
Mof_N 	N 	0.8796	0.14984	0.3213	-0.14
Mof_N 	N 	0.9875	0.1	0.3089	-0.186
Mof_O 	O 	0.0783	0.1586	0.2513	-0.357
Mof_H 	H 	0.071	0.1796	0.242	0.252
Mof_O 	O 	0.7499	0.1701	0.2674	-0.801
Mof_H 	H 	0.739	0.1919	0.272	0.306
Mof_H 	H 	0.7976	0.1395	0.2427	0.277
Mof_H 	H 	0.7698	0.1716	0.2572	0.732
Mof_C 	C 	0.0878	0.1306	0.2816	0.056
Mof_H 	H 	0.1109	0.115	0.2735	-0.024
Mof_H 	H 	0.0945	0.1446	0.306	0.04
Mof_O 	O 	0.7553	0.1225	0.2779	-0.18
Mof_H 	H 	0.7578	0.1024	0.2631	0.046
Mof_C 	C 	0.9666	0.269	0.3245	-0.04
Mof_C 	C 	0.0283	0.3021	0.3545	-0.026
Mof_C 	C 	0.1479	0.3564	0.2941	-0.147
Mof_H 	H 	0.1412	0.3715	0.2717	0.071
Mof_C 	C 	0.1861	0.3419	0.2969	0.303
Mof_C 	C 	0.1953	0.3192	0.3288	-0.254
Mof_H 	H 	0.2207	0.3081	0.3315	0.149
Mof_C 	C 	0.1669	0.3126	0.3571	0.045
Mof_H 	H 	0.1727	0.2972	0.3794	0.019
Mof_C 	C 	0.1303	0.3287	0.3524	-0.027
Mof_H 	H 	0.1113	0.3245	0.3722	0.036
Mof_C 	C 	0.981	0.3777	0.2992	0.043
Mof_H 	H 	0.9827	0.35	0.2996	0.03
Mof_C 	C 	0.9462	0.3959	0.2887	-0.039
Mof_C 	C 	0.9427	0.4357	0.2885	0.006
Mof_H 	H 	0.9188	0.4478	0.2811	0.03
Mof_C 	C 	0.9731	0.4572	0.299	-0.099
Mof_H 	H 	0.9711	0.4849	0.2993	0.071
Mof_C 	C 	0.0074	0.4396	0.3092	0.062
Mof_H 	H 	0.0287	0.4556	0.3168	0.003
Mof_C 	C 	0.2159	0.351	0.265	-0.853
Mof_H 	H 	0.2206	0.3783	0.2673	0.383
Mof_H 	H 	0.2058	0.3461	0.2396	-0.066
Mof_C 	C 	0.9108	0.3743	0.2748	0.041
Mof_H 	H 	0.8941	0.3922	0.2593	0.059
Mof_H 	H 	0.8955	0.3653	0.2976	-0.012
Mof_N 	N 	0.949	0.28	0.2982	-0.108
Mof_N 	N 	0.0429	0.329	0.3408	-0.182
Mof_N 	N 	0.1204	0.35016	0.3213	-0.14
Mof_N 	N 	0.0125	0.4	0.3089	-0.188
Mof_O 	O 	0.9217	0.3414	0.2513	-0.356
Mof_H 	H 	0.929	0.3204	0.242	0.252
Mof_O 	O 	0.2501	0.3299	0.2674	-0.801
Mof_H 	H 	0.261	0.3081	0.272	0.306
Mof_H 	H 	0.2024	0.3605	0.2427	0.277
Mof_H 	H 	0.2302	0.3284	0.2572	0.732
Mof_C 	C 	0.9122	0.3694	0.2816	0.055
Mof_H 	H 	0.8891	0.385	0.2735	-0.024
Mof_H 	H 	0.9055	0.3554	0.306	0.04
Mof_O 	O 	0.2447	0.3775	0.2779	-0.18
Mof_H 	H 	0.2422	0.3976	0.2631	0.046
Mof_C 	C 	0.4666	0.769	0.8245	-0.043
Mof_C 	C 	0.5283	0.8021	0.8545	-0.026
Mof_C 	C 	0.6479	0.8564	0.7941	-0.147
Mof_H 	H 	0.6412	0.8715	0.7717	0.071
Mof_C 	C 	0.6861	0.8419	0.7969	0.303
Mof_C 	C 	0.6953	0.8192	0.8288	-0.253
Mof_H 	H 	0.7207	0.8081	0.8315	0.149
Mof_C 	C 	0.6669	0.8126	0.8571	0.045
Mof_H 	H 	0.6727	0.7972	0.8794	0.019
Mof_C 	C 	0.6303	0.8287	0.8524	-0.027
Mof_H 	H 	0.6113	0.8245	0.8722	0.036
Mof_C 	C 	0.481	0.8777	0.7992	0.04
Mof_H 	H 	0.4827	0.85	0.7996	0.03
Mof_C 	C 	0.4462	0.8959	0.7887	-0.041
Mof_C 	C 	0.4427	0.9357	0.7885	0.011
Mof_H 	H 	0.4188	0.9478	0.7811	0.029
Mof_C 	C 	0.4731	0.9572	0.799	-0.108
Mof_H 	H 	0.4711	0.9849	0.7993	0.075
Mof_C 	C 	0.5074	0.9396	0.8092	0.07
Mof_H 	H 	0.5287	0.9556	0.8168	0.002
Mof_C 	C 	0.7159	0.851	0.765	-0.853
Mof_H 	H 	0.7206	0.8783	0.7673	0.383
Mof_H 	H 	0.7058	0.8461	0.7396	-0.067
Mof_C 	C 	0.4108	0.8743	0.7748	0.041
Mof_H 	H 	0.3941	0.8922	0.7593	0.059
Mof_H 	H 	0.3955	0.8653	0.7976	-0.012
Mof_N 	N 	0.449	0.78	0.7982	-0.108
Mof_N 	N 	0.5429	0.829	0.8408	-0.181
Mof_N 	N 	0.6204	0.85016	0.8213	-0.14
Mof_N 	N 	0.5125	0.9	0.8089	-0.187
Mof_O 	O 	0.4217	0.8414	0.7513	-0.356
Mof_H 	H 	0.429	0.8204	0.742	0.252
Mof_O 	O 	0.7501	0.8299	0.7674	-0.801
Mof_H 	H 	0.761	0.8081	0.772	0.306
Mof_H 	H 	0.7024	0.8605	0.7427	0.277
Mof_H 	H 	0.7302	0.8284	0.7572	0.732
Mof_C 	C 	0.4122	0.8694	0.7816	0.056
Mof_H 	H 	0.3891	0.885	0.7735	-0.025
Mof_H 	H 	0.4055	0.8554	0.806	0.04
Mof_O 	O 	0.7447	0.8775	0.7779	-0.179
Mof_H 	H 	0.7422	0.8976	0.7631	0.046
Mof_C 	C 	0.0334	0.769	0.1755	-0.043
Mof_C 	C 	0.9717	0.8021	0.1455	-0.022
Mof_C 	C 	0.8521	0.8564	0.2059	-0.147
Mof_H 	H 	0.8588	0.8715	0.2283	0.071
Mof_C 	C 	0.8139	0.8419	0.2031	0.303
Mof_C 	C 	0.8047	0.8192	0.1712	-0.253
Mof_H 	H 	0.7793	0.8081	0.1685	0.149
Mof_C 	C 	0.8331	0.8126	0.1429	0.044
Mof_H 	H 	0.8273	0.7972	0.1206	0.019
Mof_C 	C 	0.8697	0.8287	0.1476	-0.027
Mof_H 	H 	0.8887	0.8245	0.1278	0.036
Mof_C 	C 	0.019	0.8777	0.2008	0.037
Mof_H 	H 	0.0173	0.85	0.2004	0.03
Mof_C 	C 	0.0538	0.8959	0.2113	-0.043
Mof_C 	C 	0.0573	0.9357	0.2115	0.016
Mof_H 	H 	0.0812	0.9478	0.2189	0.027
Mof_C 	C 	0.0269	0.9572	0.201	-0.118
Mof_H 	H 	0.0289	0.9849	0.2007	0.077
Mof_C 	C 	0.9926	0.9396	0.1908	0.078
Mof_H 	H 	0.9713	0.9556	0.1832	-0.001
Mof_C 	C 	0.7841	0.851	0.235	-0.852
Mof_H 	H 	0.7794	0.8783	0.2327	0.383
Mof_H 	H 	0.7942	0.8461	0.2604	-0.067
Mof_C 	C 	0.0892	0.8743	0.2252	0.042
Mof_H 	H 	0.1059	0.8922	0.2407	0.059
Mof_H 	H 	0.1045	0.8653	0.2024	-0.012
Mof_N 	N 	0.051	0.78	0.2018	-0.108
Mof_N 	N 	0.9571	0.829	0.1592	-0.182
Mof_N 	N 	0.8796	0.85016	0.1787	-0.14
Mof_N 	N 	0.9875	0.9	0.1911	-0.186
Mof_O 	O 	0.0783	0.8414	0.2487	-0.356
Mof_H 	H 	0.071	0.8204	0.258	0.252
Mof_O 	O 	0.7499	0.8299	0.2326	-0.801
Mof_H 	H 	0.739	0.8081	0.228	0.306
Mof_H 	H 	0.7976	0.8605	0.2573	0.277
Mof_H 	H 	0.7698	0.8284	0.2428	0.732
Mof_C 	C 	0.0878	0.8694	0.2184	0.056
Mof_H 	H 	0.1109	0.885	0.2265	-0.025
Mof_H 	H 	0.0945	0.8554	0.194	0.04
Mof_O 	O 	0.7553	0.8775	0.2221	-0.18
Mof_H 	H 	0.7578	0.8976	0.2369	0.046
Mof_C 	C 	0.5334	0.269	0.6755	-0.043
Mof_C 	C 	0.4717	0.3021	0.6455	-0.026
Mof_C 	C 	0.3521	0.3564	0.7059	-0.147
Mof_H 	H 	0.3588	0.3715	0.7283	0.071
Mof_C 	C 	0.3139	0.3419	0.7031	0.303
Mof_C 	C 	0.3047	0.3192	0.6712	-0.254
Mof_H 	H 	0.2793	0.3081	0.6685	0.149
Mof_C 	C 	0.3331	0.3126	0.6429	0.045
Mof_H 	H 	0.3273	0.2972	0.6206	0.019
Mof_C 	C 	0.3697	0.3287	0.6476	-0.027
Mof_H 	H 	0.3887	0.3245	0.6278	0.036
Mof_C 	C 	0.519	0.3777	0.7008	0.04
Mof_H 	H 	0.5173	0.35	0.7004	0.03
Mof_C 	C 	0.5538	0.3959	0.7113	-0.041
Mof_C 	C 	0.5573	0.4357	0.7115	0.011
Mof_H 	H 	0.5812	0.4478	0.7189	0.029
Mof_C 	C 	0.5269	0.4572	0.701	-0.109
Mof_H 	H 	0.5289	0.4849	0.7007	0.073
Mof_C 	C 	0.4926	0.4396	0.6908	0.07
Mof_H 	H 	0.4713	0.4556	0.6832	0.001
Mof_C 	C 	0.2841	0.351	0.735	-0.853
Mof_H 	H 	0.2794	0.3783	0.7327	0.383
Mof_H 	H 	0.2942	0.3461	0.7604	-0.067
Mof_C 	C 	0.5892	0.3743	0.7252	0.041
Mof_H 	H 	0.6059	0.3922	0.7407	0.059
Mof_H 	H 	0.6045	0.3653	0.7024	-0.012
Mof_N 	N 	0.551	0.28	0.7018	-0.108
Mof_N 	N 	0.4571	0.329	0.6592	-0.181
Mof_N 	N 	0.3796	0.35016	0.6787	-0.14
Mof_N 	N 	0.4875	0.4	0.6911	-0.187
Mof_O 	O 	0.5783	0.3414	0.7487	-0.356
Mof_H 	H 	0.571	0.3204	0.758	0.252
Mof_O 	O 	0.2499	0.3299	0.7326	-0.801
Mof_H 	H 	0.239	0.3081	0.728	0.306
Mof_H 	H 	0.2976	0.3605	0.7573	0.277
Mof_H 	H 	0.2698	0.3284	0.7428	0.732
Mof_C 	C 	0.5878	0.3694	0.7184	0.056
Mof_H 	H 	0.6109	0.385	0.7265	-0.024
Mof_H 	H 	0.5945	0.3554	0.694	0.04
Mof_O 	O 	0.2553	0.3775	0.7221	-0.18
Mof_H 	H 	0.2578	0.3976	0.7369	0.046
Mof_C 	C 	0.4666	0.231	0.6755	-0.043
Mof_C 	C 	0.5283	0.1979	0.6455	-0.026
Mof_C 	C 	0.6479	0.1436	0.7059	-0.148
Mof_H 	H 	0.6412	0.1285	0.7283	0.071
Mof_C 	C 	0.6861	0.1581	0.7031	0.303
Mof_C 	C 	0.6953	0.1808	0.6712	-0.254
Mof_H 	H 	0.7207	0.1919	0.6685	0.149
Mof_C 	C 	0.6669	0.1874	0.6429	0.045
Mof_H 	H 	0.6727	0.2028	0.6206	0.019
Mof_C 	C 	0.6303	0.1713	0.6476	-0.027
Mof_H 	H 	0.6113	0.1755	0.6278	0.036
Mof_C 	C 	0.481	0.1223	0.7008	0.04
Mof_H 	H 	0.4827	0.15	0.7004	0.03
Mof_C 	C 	0.4462	0.1041	0.7113	-0.041
Mof_C 	C 	0.4427	0.0643	0.7115	0.011
Mof_H 	H 	0.4188	0.0522	0.7189	0.028
Mof_C 	C 	0.4731	0.0428	0.701	-0.109
Mof_H 	H 	0.4711	0.0151	0.7007	0.072
Mof_C 	C 	0.5074	0.0604	0.6908	0.07
Mof_H 	H 	0.5287	0.0444	0.6832	0
Mof_C 	C 	0.7159	0.149	0.735	-0.853
Mof_H 	H 	0.7206	0.1217	0.7327	0.383
Mof_H 	H 	0.7058	0.1539	0.7604	-0.067
Mof_C 	C 	0.4108	0.1257	0.7252	0.041
Mof_H 	H 	0.3941	0.1078	0.7407	0.058
Mof_H 	H 	0.3955	0.1347	0.7024	-0.012
Mof_N 	N 	0.449	0.22	0.7018	-0.108
Mof_N 	N 	0.5429	0.171	0.6592	-0.181
Mof_N 	N 	0.6204	0.14984	0.6787	-0.14
Mof_N 	N 	0.5125	0.1	0.6911	-0.187
Mof_O 	O 	0.4217	0.1586	0.7487	-0.356
Mof_H 	H 	0.429	0.1796	0.758	0.252
Mof_O 	O 	0.7501	0.1701	0.7326	-0.801
Mof_H 	H 	0.761	0.1919	0.728	0.306
Mof_H 	H 	0.7024	0.1395	0.7573	0.277
Mof_H 	H 	0.7302	0.1716	0.7428	0.732
Mof_C 	C 	0.4122	0.1306	0.7184	0.056
Mof_H 	H 	0.3891	0.115	0.7265	-0.024
Mof_H 	H 	0.4055	0.1446	0.694	0.04
Mof_O 	O 	0.7447	0.1225	0.7221	-0.18
Mof_H 	H 	0.7422	0.1024	0.7369	0.046
Mof_C 	C 	0.9666	0.731	0.1755	-0.04
Mof_C 	C 	0.0283	0.6979	0.1455	-0.026
Mof_C 	C 	0.1479	0.6436	0.2059	-0.147
Mof_H 	H 	0.1412	0.6285	0.2283	0.071
Mof_C 	C 	0.1861	0.6581	0.2031	0.303
Mof_C 	C 	0.1953	0.6808	0.1712	-0.254
Mof_H 	H 	0.2207	0.6919	0.1685	0.149
Mof_C 	C 	0.1669	0.6874	0.1429	0.045
Mof_H 	H 	0.1727	0.7028	0.1206	0.019
Mof_C 	C 	0.1303	0.6713	0.1476	-0.027
Mof_H 	H 	0.1113	0.6755	0.1278	0.036
Mof_C 	C 	0.981	0.6223	0.2008	0.043
Mof_H 	H 	0.9827	0.65	0.2004	0.03
Mof_C 	C 	0.9462	0.6041	0.2113	-0.039
Mof_C 	C 	0.9427	0.5643	0.2115	0.006
Mof_H 	H 	0.9188	0.5522	0.2189	0.03
Mof_C 	C 	0.9731	0.5428	0.201	-0.099
Mof_H 	H 	0.9711	0.5151	0.2007	0.071
Mof_C 	C 	0.0074	0.5604	0.1908	0.062
Mof_H 	H 	0.0287	0.5444	0.1832	0.003
Mof_C 	C 	0.2159	0.649	0.235	-0.853
Mof_H 	H 	0.2206	0.6217	0.2327	0.383
Mof_H 	H 	0.2058	0.6539	0.2604	-0.067
Mof_C 	C 	0.9108	0.6257	0.2252	0.041
Mof_H 	H 	0.8941	0.6078	0.2407	0.059
Mof_H 	H 	0.8955	0.6347	0.2024	-0.012
Mof_N 	N 	0.949	0.72	0.2018	-0.108
Mof_N 	N 	0.0429	0.671	0.1592	-0.182
Mof_N 	N 	0.1204	0.64984	0.1787	-0.14
Mof_N 	N 	0.0125	0.6	0.1911	-0.188
Mof_O 	O 	0.9217	0.6586	0.2487	-0.356
Mof_H 	H 	0.929	0.6796	0.258	0.252
Mof_O 	O 	0.2501	0.6701	0.2326	-0.801
Mof_H 	H 	0.261	0.6919	0.228	0.306
Mof_H 	H 	0.2024	0.6395	0.2573	0.277
Mof_H 	H 	0.2302	0.6716	0.2428	0.732
Mof_C 	C 	0.9122	0.6306	0.2184	0.055
Mof_H 	H 	0.8891	0.615	0.2265	-0.024
Mof_H 	H 	0.9055	0.6446	0.194	0.04
Mof_O 	O 	0.2447	0.6225	0.2221	-0.18
Mof_H 	H 	0.2422	0.6024	0.2369	0.046
Mof_C 	C 	0.231	0.6755	0.4666	-0.043
Mof_C 	C 	0.1979	0.6455	0.5283	-0.026
Mof_C 	C 	0.1436	0.7059	0.6479	-0.148
Mof_H 	H 	0.1285	0.7283	0.6412	0.071
Mof_C 	C 	0.1581	0.7031	0.6861	0.303
Mof_C 	C 	0.1808	0.6712	0.6953	-0.254
Mof_H 	H 	0.1919	0.6685	0.7207	0.149
Mof_C 	C 	0.1874	0.6429	0.6669	0.045
Mof_H 	H 	0.2028	0.6206	0.6727	0.019
Mof_C 	C 	0.1713	0.6476	0.6303	-0.027
Mof_H 	H 	0.1755	0.6278	0.6113	0.036
Mof_C 	C 	0.1223	0.7008	0.481	0.04
Mof_H 	H 	0.15	0.7004	0.4827	0.03
Mof_C 	C 	0.1041	0.7113	0.4462	-0.041
Mof_C 	C 	0.0643	0.7115	0.4427	0.011
Mof_H 	H 	0.0522	0.7189	0.4188	0.028
Mof_C 	C 	0.0428	0.701	0.4731	-0.109
Mof_H 	H 	0.0151	0.7007	0.4711	0.072
Mof_C 	C 	0.0604	0.6908	0.5074	0.07
Mof_H 	H 	0.0444	0.6832	0.5287	0
Mof_C 	C 	0.149	0.735	0.7159	-0.853
Mof_H 	H 	0.1217	0.7327	0.7206	0.383
Mof_H 	H 	0.1539	0.7604	0.7058	-0.067
Mof_C 	C 	0.1257	0.7252	0.4108	0.041
Mof_H 	H 	0.1078	0.7407	0.3941	0.058
Mof_H 	H 	0.1347	0.7024	0.3955	-0.012
Mof_N 	N 	0.22	0.7018	0.449	-0.108
Mof_N 	N 	0.171	0.6592	0.5429	-0.181
Mof_N 	N 	0.14984	0.6787	0.6204	-0.14
Mof_N 	N 	0.1	0.6911	0.5125	-0.187
Mof_O 	O 	0.1586	0.7487	0.4217	-0.356
Mof_H 	H 	0.1796	0.758	0.429	0.252
Mof_O 	O 	0.1701	0.7326	0.7501	-0.801
Mof_H 	H 	0.1919	0.728	0.761	0.306
Mof_H 	H 	0.1395	0.7573	0.7024	0.277
Mof_H 	H 	0.1716	0.7428	0.7302	0.732
Mof_C 	C 	0.1306	0.7184	0.4122	0.056
Mof_H 	H 	0.115	0.7265	0.3891	-0.024
Mof_H 	H 	0.1446	0.694	0.4055	0.04
Mof_O 	O 	0.1225	0.7221	0.7447	-0.18
Mof_H 	H 	0.1024	0.7369	0.7422	0.046
Mof_C 	C 	0.731	0.1755	0.9666	-0.04
Mof_C 	C 	0.6979	0.1455	0.0283	-0.026
Mof_C 	C 	0.6436	0.2059	0.1479	-0.147
Mof_H 	H 	0.6285	0.2283	0.1412	0.071
Mof_C 	C 	0.6581	0.2031	0.1861	0.303
Mof_C 	C 	0.6808	0.1712	0.1953	-0.254
Mof_H 	H 	0.6919	0.1685	0.2207	0.149
Mof_C 	C 	0.6874	0.1429	0.1669	0.045
Mof_H 	H 	0.7028	0.1206	0.1727	0.019
Mof_C 	C 	0.6713	0.1476	0.1303	-0.027
Mof_H 	H 	0.6755	0.1278	0.1113	0.036
Mof_C 	C 	0.6223	0.2008	0.981	0.043
Mof_H 	H 	0.65	0.2004	0.9827	0.03
Mof_C 	C 	0.6041	0.2113	0.9462	-0.039
Mof_C 	C 	0.5643	0.2115	0.9427	0.006
Mof_H 	H 	0.5522	0.2189	0.9188	0.03
Mof_C 	C 	0.5428	0.201	0.9731	-0.099
Mof_H 	H 	0.5151	0.2007	0.9711	0.071
Mof_C 	C 	0.5604	0.1908	0.0074	0.062
Mof_H 	H 	0.5444	0.1832	0.0287	0.003
Mof_C 	C 	0.649	0.235	0.2159	-0.853
Mof_H 	H 	0.6217	0.2327	0.2206	0.383
Mof_H 	H 	0.6539	0.2604	0.2058	-0.067
Mof_C 	C 	0.6257	0.2252	0.9108	0.041
Mof_H 	H 	0.6078	0.2407	0.8941	0.059
Mof_H 	H 	0.6347	0.2024	0.8955	-0.012
Mof_N 	N 	0.72	0.2018	0.949	-0.108
Mof_N 	N 	0.671	0.1592	0.0429	-0.182
Mof_N 	N 	0.64984	0.1787	0.1204	-0.14
Mof_N 	N 	0.6	0.1911	0.0125	-0.188
Mof_O 	O 	0.6586	0.2487	0.9217	-0.356
Mof_H 	H 	0.6796	0.258	0.929	0.252
Mof_O 	O 	0.6701	0.2326	0.2501	-0.801
Mof_H 	H 	0.6919	0.228	0.261	0.306
Mof_H 	H 	0.6395	0.2573	0.2024	0.277
Mof_H 	H 	0.6716	0.2428	0.2302	0.732
Mof_C 	C 	0.6306	0.2184	0.9122	0.055
Mof_H 	H 	0.615	0.2265	0.8891	-0.024
Mof_H 	H 	0.6446	0.194	0.9055	0.04
Mof_O 	O 	0.6225	0.2221	0.2447	-0.18
Mof_H 	H 	0.6024	0.2369	0.2422	0.046
Mof_C 	C 	0.769	0.1755	0.0334	-0.043
Mof_C 	C 	0.8021	0.1455	0.9717	-0.022
Mof_C 	C 	0.8564	0.2059	0.8521	-0.147
Mof_H 	H 	0.8715	0.2283	0.8588	0.071
Mof_C 	C 	0.8419	0.2031	0.8139	0.303
Mof_C 	C 	0.8192	0.1712	0.8047	-0.253
Mof_H 	H 	0.8081	0.1685	0.7793	0.149
Mof_C 	C 	0.8126	0.1429	0.8331	0.044
Mof_H 	H 	0.7972	0.1206	0.8273	0.019
Mof_C 	C 	0.8287	0.1476	0.8697	-0.027
Mof_H 	H 	0.8245	0.1278	0.8887	0.036
Mof_C 	C 	0.8777	0.2008	0.019	0.037
Mof_H 	H 	0.85	0.2004	0.0173	0.03
Mof_C 	C 	0.8959	0.2113	0.0538	-0.043
Mof_C 	C 	0.9357	0.2115	0.0573	0.016
Mof_H 	H 	0.9478	0.2189	0.0812	0.027
Mof_C 	C 	0.9572	0.201	0.0269	-0.118
Mof_H 	H 	0.9849	0.2007	0.0289	0.077
Mof_C 	C 	0.9396	0.1908	0.9926	0.078
Mof_H 	H 	0.9556	0.1832	0.9713	-0.001
Mof_C 	C 	0.851	0.235	0.7841	-0.852
Mof_H 	H 	0.8783	0.2327	0.7794	0.383
Mof_H 	H 	0.8461	0.2604	0.7942	-0.067
Mof_C 	C 	0.8743	0.2252	0.0892	0.042
Mof_H 	H 	0.8922	0.2407	0.1059	0.059
Mof_H 	H 	0.8653	0.2024	0.1045	-0.012
Mof_N 	N 	0.78	0.2018	0.051	-0.108
Mof_N 	N 	0.829	0.1592	0.9571	-0.182
Mof_N 	N 	0.85016	0.1787	0.8796	-0.14
Mof_N 	N 	0.9	0.1911	0.9875	-0.186
Mof_O 	O 	0.8414	0.2487	0.0783	-0.356
Mof_H 	H 	0.8204	0.258	0.071	0.252
Mof_O 	O 	0.8299	0.2326	0.7499	-0.801
Mof_H 	H 	0.8081	0.228	0.739	0.306
Mof_H 	H 	0.8605	0.2573	0.7976	0.277
Mof_H 	H 	0.8284	0.2428	0.7698	0.732
Mof_C 	C 	0.8694	0.2184	0.0878	0.056
Mof_H 	H 	0.885	0.2265	0.1109	-0.025
Mof_H 	H 	0.8554	0.194	0.0945	0.04
Mof_O 	O 	0.8775	0.2221	0.7553	-0.18
Mof_H 	H 	0.8976	0.2369	0.7578	0.046
Mof_C 	C 	0.269	0.6755	0.5334	-0.043
Mof_C 	C 	0.3021	0.6455	0.4717	-0.026
Mof_C 	C 	0.3564	0.7059	0.3521	-0.147
Mof_H 	H 	0.3715	0.7283	0.3588	0.071
Mof_C 	C 	0.3419	0.7031	0.3139	0.303
Mof_C 	C 	0.3192	0.6712	0.3047	-0.254
Mof_H 	H 	0.3081	0.6685	0.2793	0.149
Mof_C 	C 	0.3126	0.6429	0.3331	0.045
Mof_H 	H 	0.2972	0.6206	0.3273	0.019
Mof_C 	C 	0.3287	0.6476	0.3697	-0.027
Mof_H 	H 	0.3245	0.6278	0.3887	0.036
Mof_C 	C 	0.3777	0.7008	0.519	0.04
Mof_H 	H 	0.35	0.7004	0.5173	0.03
Mof_C 	C 	0.3959	0.7113	0.5538	-0.041
Mof_C 	C 	0.4357	0.7115	0.5573	0.011
Mof_H 	H 	0.4478	0.7189	0.5812	0.029
Mof_C 	C 	0.4572	0.701	0.5269	-0.109
Mof_H 	H 	0.4849	0.7007	0.5289	0.073
Mof_C 	C 	0.4396	0.6908	0.4926	0.07
Mof_H 	H 	0.4556	0.6832	0.4713	0.001
Mof_C 	C 	0.351	0.735	0.2841	-0.853
Mof_H 	H 	0.3783	0.7327	0.2794	0.383
Mof_H 	H 	0.3461	0.7604	0.2942	-0.067
Mof_C 	C 	0.3743	0.7252	0.5892	0.041
Mof_H 	H 	0.3922	0.7407	0.6059	0.059
Mof_H 	H 	0.3653	0.7024	0.6045	-0.012
Mof_N 	N 	0.28	0.7018	0.551	-0.108
Mof_N 	N 	0.329	0.6592	0.4571	-0.181
Mof_N 	N 	0.35016	0.6787	0.3796	-0.14
Mof_N 	N 	0.4	0.6911	0.4875	-0.187
Mof_O 	O 	0.3414	0.7487	0.5783	-0.356
Mof_H 	H 	0.3204	0.758	0.571	0.252
Mof_O 	O 	0.3299	0.7326	0.2499	-0.801
Mof_H 	H 	0.3081	0.728	0.239	0.306
Mof_H 	H 	0.3605	0.7573	0.2976	0.277
Mof_H 	H 	0.3284	0.7428	0.2698	0.732
Mof_C 	C 	0.3694	0.7184	0.5878	0.056
Mof_H 	H 	0.385	0.7265	0.6109	-0.024
Mof_H 	H 	0.3554	0.694	0.5945	0.04
Mof_O 	O 	0.3775	0.7221	0.2553	-0.18
Mof_H 	H 	0.3976	0.7369	0.2578	0.046
Mof_C 	C 	0.269	0.3245	0.9666	-0.04
Mof_C 	C 	0.3021	0.3545	0.0283	-0.026
Mof_C 	C 	0.3564	0.2941	0.1479	-0.147
Mof_H 	H 	0.3715	0.2717	0.1412	0.071
Mof_C 	C 	0.3419	0.2969	0.1861	0.303
Mof_C 	C 	0.3192	0.3288	0.1953	-0.254
Mof_H 	H 	0.3081	0.3315	0.2207	0.149
Mof_C 	C 	0.3126	0.3571	0.1669	0.045
Mof_H 	H 	0.2972	0.3794	0.1727	0.019
Mof_C 	C 	0.3287	0.3524	0.1303	-0.027
Mof_H 	H 	0.3245	0.3722	0.1113	0.036
Mof_C 	C 	0.3777	0.2992	0.981	0.043
Mof_H 	H 	0.35	0.2996	0.9827	0.03
Mof_C 	C 	0.3959	0.2887	0.9462	-0.039
Mof_C 	C 	0.4357	0.2885	0.9427	0.006
Mof_H 	H 	0.4478	0.2811	0.9188	0.03
Mof_C 	C 	0.4572	0.299	0.9731	-0.099
Mof_H 	H 	0.4849	0.2993	0.9711	0.071
Mof_C 	C 	0.4396	0.3092	0.0074	0.062
Mof_H 	H 	0.4556	0.3168	0.0287	0.003
Mof_C 	C 	0.351	0.265	0.2159	-0.853
Mof_H 	H 	0.3783	0.2673	0.2206	0.383
Mof_H 	H 	0.3461	0.2396	0.2058	-0.066
Mof_C 	C 	0.3743	0.2748	0.9108	0.041
Mof_H 	H 	0.3922	0.2593	0.8941	0.059
Mof_H 	H 	0.3653	0.2976	0.8955	-0.012
Mof_N 	N 	0.28	0.2982	0.949	-0.108
Mof_N 	N 	0.329	0.3408	0.0429	-0.182
Mof_N 	N 	0.35016	0.3213	0.1204	-0.14
Mof_N 	N 	0.4	0.3089	0.0125	-0.188
Mof_O 	O 	0.3414	0.2513	0.9217	-0.356
Mof_H 	H 	0.3204	0.242	0.929	0.252
Mof_O 	O 	0.3299	0.2674	0.2501	-0.801
Mof_H 	H 	0.3081	0.272	0.261	0.306
Mof_H 	H 	0.3605	0.2427	0.2024	0.277
Mof_H 	H 	0.3284	0.2572	0.2302	0.732
Mof_C 	C 	0.3694	0.2816	0.9122	0.055
Mof_H 	H 	0.385	0.2735	0.8891	-0.024
Mof_H 	H 	0.3554	0.306	0.9055	0.04
Mof_O 	O 	0.3775	0.2779	0.2447	-0.18
Mof_H 	H 	0.3976	0.2631	0.2422	0.046
Mof_C 	C 	0.769	0.8245	0.4666	-0.043
Mof_C 	C 	0.8021	0.8545	0.5283	-0.026
Mof_C 	C 	0.8564	0.7941	0.6479	-0.147
Mof_H 	H 	0.8715	0.7717	0.6412	0.071
Mof_C 	C 	0.8419	0.7969	0.6861	0.303
Mof_C 	C 	0.8192	0.8288	0.6953	-0.253
Mof_H 	H 	0.8081	0.8315	0.7207	0.149
Mof_C 	C 	0.8126	0.8571	0.6669	0.045
Mof_H 	H 	0.7972	0.8794	0.6727	0.019
Mof_C 	C 	0.8287	0.8524	0.6303	-0.027
Mof_H 	H 	0.8245	0.8722	0.6113	0.036
Mof_C 	C 	0.8777	0.7992	0.481	0.04
Mof_H 	H 	0.85	0.7996	0.4827	0.03
Mof_C 	C 	0.8959	0.7887	0.4462	-0.041
Mof_C 	C 	0.9357	0.7885	0.4427	0.011
Mof_H 	H 	0.9478	0.7811	0.4188	0.029
Mof_C 	C 	0.9572	0.799	0.4731	-0.108
Mof_H 	H 	0.9849	0.7993	0.4711	0.075
Mof_C 	C 	0.9396	0.8092	0.5074	0.07
Mof_H 	H 	0.9556	0.8168	0.5287	0.002
Mof_C 	C 	0.851	0.765	0.7159	-0.853
Mof_H 	H 	0.8783	0.7673	0.7206	0.383
Mof_H 	H 	0.8461	0.7396	0.7058	-0.067
Mof_C 	C 	0.8743	0.7748	0.4108	0.041
Mof_H 	H 	0.8922	0.7593	0.3941	0.059
Mof_H 	H 	0.8653	0.7976	0.3955	-0.012
Mof_N 	N 	0.78	0.7982	0.449	-0.108
Mof_N 	N 	0.829	0.8408	0.5429	-0.181
Mof_N 	N 	0.85016	0.8213	0.6204	-0.14
Mof_N 	N 	0.9	0.8089	0.5125	-0.187
Mof_O 	O 	0.8414	0.7513	0.4217	-0.356
Mof_H 	H 	0.8204	0.742	0.429	0.252
Mof_O 	O 	0.8299	0.7674	0.7501	-0.801
Mof_H 	H 	0.8081	0.772	0.761	0.306
Mof_H 	H 	0.8605	0.7427	0.7024	0.277
Mof_H 	H 	0.8284	0.7572	0.7302	0.732
Mof_C 	C 	0.8694	0.7816	0.4122	0.056
Mof_H 	H 	0.885	0.7735	0.3891	-0.025
Mof_H 	H 	0.8554	0.806	0.4055	0.04
Mof_O 	O 	0.8775	0.7779	0.7447	-0.179
Mof_H 	H 	0.8976	0.7631	0.7422	0.046
Mof_C 	C 	0.731	0.8245	0.5334	-0.043
Mof_C 	C 	0.6979	0.8545	0.4717	-0.026
Mof_C 	C 	0.6436	0.7941	0.3521	-0.147
Mof_H 	H 	0.6285	0.7717	0.3588	0.071
Mof_C 	C 	0.6581	0.7969	0.3139	0.303
Mof_C 	C 	0.6808	0.8288	0.3047	-0.254
Mof_H 	H 	0.6919	0.8315	0.2793	0.149
Mof_C 	C 	0.6874	0.8571	0.3331	0.045
Mof_H 	H 	0.7028	0.8794	0.3273	0.019
Mof_C 	C 	0.6713	0.8524	0.3697	-0.027
Mof_H 	H 	0.6755	0.8722	0.3887	0.036
Mof_C 	C 	0.6223	0.7992	0.519	0.04
Mof_H 	H 	0.65	0.7996	0.5173	0.03
Mof_C 	C 	0.6041	0.7887	0.5538	-0.041
Mof_C 	C 	0.5643	0.7885	0.5573	0.011
Mof_H 	H 	0.5522	0.7811	0.5812	0.029
Mof_C 	C 	0.5428	0.799	0.5269	-0.109
Mof_H 	H 	0.5151	0.7993	0.5289	0.073
Mof_C 	C 	0.5604	0.8092	0.4926	0.07
Mof_H 	H 	0.5444	0.8168	0.4713	0.001
Mof_C 	C 	0.649	0.765	0.2841	-0.853
Mof_H 	H 	0.6217	0.7673	0.2794	0.383
Mof_H 	H 	0.6539	0.7396	0.2942	-0.067
Mof_C 	C 	0.6257	0.7748	0.5892	0.041
Mof_H 	H 	0.6078	0.7593	0.6059	0.059
Mof_H 	H 	0.6347	0.7976	0.6045	-0.012
Mof_N 	N 	0.72	0.7982	0.551	-0.108
Mof_N 	N 	0.671	0.8408	0.4571	-0.181
Mof_N 	N 	0.64984	0.8213	0.3796	-0.14
Mof_N 	N 	0.6	0.8089	0.4875	-0.187
Mof_O 	O 	0.6586	0.7513	0.5783	-0.356
Mof_H 	H 	0.6796	0.742	0.571	0.252
Mof_O 	O 	0.6701	0.7674	0.2499	-0.801
Mof_H 	H 	0.6919	0.772	0.239	0.306
Mof_H 	H 	0.6395	0.7427	0.2976	0.277
Mof_H 	H 	0.6716	0.7572	0.2698	0.732
Mof_C 	C 	0.6306	0.7816	0.5878	0.056
Mof_H 	H 	0.615	0.7735	0.6109	-0.024
Mof_H 	H 	0.6446	0.806	0.5945	0.04
Mof_O 	O 	0.6225	0.7779	0.2553	-0.18
Mof_H 	H 	0.6024	0.7631	0.2578	0.046
Mof_C 	C 	0.231	0.3245	0.0334	-0.043
Mof_C 	C 	0.1979	0.3545	0.9717	-0.023
Mof_C 	C 	0.1436	0.2941	0.8521	-0.147
Mof_H 	H 	0.1285	0.2717	0.8588	0.071
Mof_C 	C 	0.1581	0.2969	0.8139	0.303
Mof_C 	C 	0.1808	0.3288	0.8047	-0.254
Mof_H 	H 	0.1919	0.3315	0.7793	0.149
Mof_C 	C 	0.1874	0.3571	0.8331	0.044
Mof_H 	H 	0.2028	0.3794	0.8273	0.019
Mof_C 	C 	0.1713	0.3524	0.8697	-0.027
Mof_H 	H 	0.1755	0.3722	0.8887	0.036
Mof_C 	C 	0.1223	0.2992	0.019	0.037
Mof_H 	H 	0.15	0.2996	0.0173	0.03
Mof_C 	C 	0.1041	0.2887	0.0538	-0.043
Mof_C 	C 	0.0643	0.2885	0.0573	0.015
Mof_H 	H 	0.0522	0.2811	0.0812	0.026
Mof_C 	C 	0.0428	0.299	0.0269	-0.118
Mof_H 	H 	0.0151	0.2993	0.0289	0.074
Mof_C 	C 	0.0604	0.3092	0.9926	0.078
Mof_H 	H 	0.0444	0.3168	0.9713	-0.002
Mof_C 	C 	0.149	0.265	0.7841	-0.853
Mof_H 	H 	0.1217	0.2673	0.7794	0.383
Mof_H 	H 	0.1539	0.2396	0.7942	-0.067
Mof_C 	C 	0.1257	0.2748	0.0892	0.042
Mof_H 	H 	0.1078	0.2593	0.1059	0.058
Mof_H 	H 	0.1347	0.2976	0.1045	-0.013
Mof_N 	N 	0.22	0.2982	0.051	-0.108
Mof_N 	N 	0.171	0.3408	0.9571	-0.182
Mof_N 	N 	0.14984	0.3213	0.8796	-0.14
Mof_N 	N 	0.1	0.3089	0.9875	-0.186
Mof_O 	O 	0.1586	0.2513	0.0783	-0.357
Mof_H 	H 	0.1796	0.242	0.071	0.252
Mof_O 	O 	0.1701	0.2674	0.7499	-0.801
Mof_H 	H 	0.1919	0.272	0.739	0.306
Mof_H 	H 	0.1395	0.2427	0.7976	0.277
Mof_H 	H 	0.1716	0.2572	0.7698	0.732
Mof_C 	C 	0.1306	0.2816	0.0878	0.056
Mof_H 	H 	0.115	0.2735	0.1109	-0.024
Mof_H 	H 	0.1446	0.306	0.0945	0.04
Mof_O 	O 	0.1225	0.2779	0.7553	-0.18
Mof_H 	H 	0.1024	0.2631	0.7578	0.046
Mof_C 	C 	0.1755	0.0334	0.769	-0.043
Mof_C 	C 	0.1455	0.9717	0.8021	-0.022
Mof_C 	C 	0.2059	0.8521	0.8564	-0.147
Mof_H 	H 	0.2283	0.8588	0.8715	0.071
Mof_C 	C 	0.2031	0.8139	0.8419	0.303
Mof_C 	C 	0.1712	0.8047	0.8192	-0.253
Mof_H 	H 	0.1685	0.7793	0.8081	0.149
Mof_C 	C 	0.1429	0.8331	0.8126	0.044
Mof_H 	H 	0.1206	0.8273	0.7972	0.019
Mof_C 	C 	0.1476	0.8697	0.8287	-0.027
Mof_H 	H 	0.1278	0.8887	0.8245	0.036
Mof_C 	C 	0.2008	0.019	0.8777	0.037
Mof_H 	H 	0.2004	0.0173	0.85	0.03
Mof_C 	C 	0.2113	0.0538	0.8959	-0.043
Mof_C 	C 	0.2115	0.0573	0.9357	0.016
Mof_H 	H 	0.2189	0.0812	0.9478	0.027
Mof_C 	C 	0.201	0.0269	0.9572	-0.118
Mof_H 	H 	0.2007	0.0289	0.9849	0.077
Mof_C 	C 	0.1908	0.9926	0.9396	0.078
Mof_H 	H 	0.1832	0.9713	0.9556	-0.001
Mof_C 	C 	0.235	0.7841	0.851	-0.852
Mof_H 	H 	0.2327	0.7794	0.8783	0.383
Mof_H 	H 	0.2604	0.7942	0.8461	-0.067
Mof_C 	C 	0.2252	0.0892	0.8743	0.042
Mof_H 	H 	0.2407	0.1059	0.8922	0.059
Mof_H 	H 	0.2024	0.1045	0.8653	-0.012
Mof_N 	N 	0.2018	0.051	0.78	-0.108
Mof_N 	N 	0.1592	0.9571	0.829	-0.182
Mof_N 	N 	0.1787	0.8796	0.85016	-0.14
Mof_N 	N 	0.1911	0.9875	0.9	-0.186
Mof_O 	O 	0.2487	0.0783	0.8414	-0.356
Mof_H 	H 	0.258	0.071	0.8204	0.252
Mof_O 	O 	0.2326	0.7499	0.8299	-0.801
Mof_H 	H 	0.228	0.739	0.8081	0.306
Mof_H 	H 	0.2573	0.7976	0.8605	0.277
Mof_H 	H 	0.2428	0.7698	0.8284	0.732
Mof_C 	C 	0.2184	0.0878	0.8694	0.056
Mof_H 	H 	0.2265	0.1109	0.885	-0.025
Mof_H 	H 	0.194	0.0945	0.8554	0.04
Mof_O 	O 	0.2221	0.7553	0.8775	-0.18
Mof_H 	H 	0.2369	0.7578	0.8976	0.046
Mof_C 	C 	0.6755	0.5334	0.269	-0.043
Mof_C 	C 	0.6455	0.4717	0.3021	-0.026
Mof_C 	C 	0.7059	0.3521	0.3564	-0.147
Mof_H 	H 	0.7283	0.3588	0.3715	0.071
Mof_C 	C 	0.7031	0.3139	0.3419	0.303
Mof_C 	C 	0.6712	0.3047	0.3192	-0.254
Mof_H 	H 	0.6685	0.2793	0.3081	0.149
Mof_C 	C 	0.6429	0.3331	0.3126	0.045
Mof_H 	H 	0.6206	0.3273	0.2972	0.019
Mof_C 	C 	0.6476	0.3697	0.3287	-0.027
Mof_H 	H 	0.6278	0.3887	0.3245	0.036
Mof_C 	C 	0.7008	0.519	0.3777	0.04
Mof_H 	H 	0.7004	0.5173	0.35	0.03
Mof_C 	C 	0.7113	0.5538	0.3959	-0.041
Mof_C 	C 	0.7115	0.5573	0.4357	0.011
Mof_H 	H 	0.7189	0.5812	0.4478	0.029
Mof_C 	C 	0.701	0.5269	0.4572	-0.109
Mof_H 	H 	0.7007	0.5289	0.4849	0.073
Mof_C 	C 	0.6908	0.4926	0.4396	0.07
Mof_H 	H 	0.6832	0.4713	0.4556	0.001
Mof_C 	C 	0.735	0.2841	0.351	-0.853
Mof_H 	H 	0.7327	0.2794	0.3783	0.383
Mof_H 	H 	0.7604	0.2942	0.3461	-0.067
Mof_C 	C 	0.7252	0.5892	0.3743	0.041
Mof_H 	H 	0.7407	0.6059	0.3922	0.059
Mof_H 	H 	0.7024	0.6045	0.3653	-0.012
Mof_N 	N 	0.7018	0.551	0.28	-0.108
Mof_N 	N 	0.6592	0.4571	0.329	-0.181
Mof_N 	N 	0.6787	0.3796	0.35016	-0.14
Mof_N 	N 	0.6911	0.4875	0.4	-0.187
Mof_O 	O 	0.7487	0.5783	0.3414	-0.356
Mof_H 	H 	0.758	0.571	0.3204	0.252
Mof_O 	O 	0.7326	0.2499	0.3299	-0.801
Mof_H 	H 	0.728	0.239	0.3081	0.306
Mof_H 	H 	0.7573	0.2976	0.3605	0.277
Mof_H 	H 	0.7428	0.2698	0.3284	0.732
Mof_C 	C 	0.7184	0.5878	0.3694	0.056
Mof_H 	H 	0.7265	0.6109	0.385	-0.024
Mof_H 	H 	0.694	0.5945	0.3554	0.04
Mof_O 	O 	0.7221	0.2553	0.3775	-0.18
Mof_H 	H 	0.7369	0.2578	0.3976	0.046
Mof_C 	C 	0.6755	0.4666	0.231	-0.043
Mof_C 	C 	0.6455	0.5283	0.1979	-0.026
Mof_C 	C 	0.7059	0.6479	0.1436	-0.148
Mof_H 	H 	0.7283	0.6412	0.1285	0.071
Mof_C 	C 	0.7031	0.6861	0.1581	0.303
Mof_C 	C 	0.6712	0.6953	0.1808	-0.254
Mof_H 	H 	0.6685	0.7207	0.1919	0.149
Mof_C 	C 	0.6429	0.6669	0.1874	0.045
Mof_H 	H 	0.6206	0.6727	0.2028	0.019
Mof_C 	C 	0.6476	0.6303	0.1713	-0.027
Mof_H 	H 	0.6278	0.6113	0.1755	0.036
Mof_C 	C 	0.7008	0.481	0.1223	0.04
Mof_H 	H 	0.7004	0.4827	0.15	0.03
Mof_C 	C 	0.7113	0.4462	0.1041	-0.041
Mof_C 	C 	0.7115	0.4427	0.0643	0.011
Mof_H 	H 	0.7189	0.4188	0.0522	0.028
Mof_C 	C 	0.701	0.4731	0.0428	-0.109
Mof_H 	H 	0.7007	0.4711	0.0151	0.072
Mof_C 	C 	0.6908	0.5074	0.0604	0.07
Mof_H 	H 	0.6832	0.5287	0.0444	0
Mof_C 	C 	0.735	0.7159	0.149	-0.853
Mof_H 	H 	0.7327	0.7206	0.1217	0.383
Mof_H 	H 	0.7604	0.7058	0.1539	-0.067
Mof_C 	C 	0.7252	0.4108	0.1257	0.041
Mof_H 	H 	0.7407	0.3941	0.1078	0.058
Mof_H 	H 	0.7024	0.3955	0.1347	-0.012
Mof_N 	N 	0.7018	0.449	0.22	-0.108
Mof_N 	N 	0.6592	0.5429	0.171	-0.181
Mof_N 	N 	0.6787	0.6204	0.14984	-0.14
Mof_N 	N 	0.6911	0.5125	0.1	-0.187
Mof_O 	O 	0.7487	0.4217	0.1586	-0.356
Mof_H 	H 	0.758	0.429	0.1796	0.252
Mof_O 	O 	0.7326	0.7501	0.1701	-0.801
Mof_H 	H 	0.728	0.761	0.1919	0.306
Mof_H 	H 	0.7573	0.7024	0.1395	0.277
Mof_H 	H 	0.7428	0.7302	0.1716	0.732
Mof_C 	C 	0.7184	0.4122	0.1306	0.056
Mof_H 	H 	0.7265	0.3891	0.115	-0.024
Mof_H 	H 	0.694	0.4055	0.1446	0.04
Mof_O 	O 	0.7221	0.7447	0.1225	-0.18
Mof_H 	H 	0.7369	0.7422	0.1024	0.046
Mof_C 	C 	0.1755	0.9666	0.731	-0.04
Mof_C 	C 	0.1455	0.0283	0.6979	-0.026
Mof_C 	C 	0.2059	0.1479	0.6436	-0.147
Mof_H 	H 	0.2283	0.1412	0.6285	0.071
Mof_C 	C 	0.2031	0.1861	0.6581	0.303
Mof_C 	C 	0.1712	0.1953	0.6808	-0.254
Mof_H 	H 	0.1685	0.2207	0.6919	0.149
Mof_C 	C 	0.1429	0.1669	0.6874	0.045
Mof_H 	H 	0.1206	0.1727	0.7028	0.019
Mof_C 	C 	0.1476	0.1303	0.6713	-0.027
Mof_H 	H 	0.1278	0.1113	0.6755	0.036
Mof_C 	C 	0.2008	0.981	0.6223	0.043
Mof_H 	H 	0.2004	0.9827	0.65	0.03
Mof_C 	C 	0.2113	0.9462	0.6041	-0.039
Mof_C 	C 	0.2115	0.9427	0.5643	0.006
Mof_H 	H 	0.2189	0.9188	0.5522	0.03
Mof_C 	C 	0.201	0.9731	0.5428	-0.099
Mof_H 	H 	0.2007	0.9711	0.5151	0.071
Mof_C 	C 	0.1908	0.0074	0.5604	0.062
Mof_H 	H 	0.1832	0.0287	0.5444	0.003
Mof_C 	C 	0.235	0.2159	0.649	-0.853
Mof_H 	H 	0.2327	0.2206	0.6217	0.383
Mof_H 	H 	0.2604	0.2058	0.6539	-0.067
Mof_C 	C 	0.2252	0.9108	0.6257	0.041
Mof_H 	H 	0.2407	0.8941	0.6078	0.059
Mof_H 	H 	0.2024	0.8955	0.6347	-0.012
Mof_N 	N 	0.2018	0.949	0.72	-0.108
Mof_N 	N 	0.1592	0.0429	0.671	-0.182
Mof_N 	N 	0.1787	0.1204	0.64984	-0.14
Mof_N 	N 	0.1911	0.0125	0.6	-0.188
Mof_O 	O 	0.2487	0.9217	0.6586	-0.356
Mof_H 	H 	0.258	0.929	0.6796	0.252
Mof_O 	O 	0.2326	0.2501	0.6701	-0.801
Mof_H 	H 	0.228	0.261	0.6919	0.306
Mof_H 	H 	0.2573	0.2024	0.6395	0.277
Mof_H 	H 	0.2428	0.2302	0.6716	0.732
Mof_C 	C 	0.2184	0.9122	0.6306	0.055
Mof_H 	H 	0.2265	0.8891	0.615	-0.024
Mof_H 	H 	0.194	0.9055	0.6446	0.04
Mof_O 	O 	0.2221	0.2447	0.6225	-0.18
Mof_H 	H 	0.2369	0.2422	0.6024	0.046
Mof_C 	C 	0.8245	0.5334	0.731	-0.043
Mof_C 	C 	0.8545	0.4717	0.6979	-0.026
Mof_C 	C 	0.7941	0.3521	0.6436	-0.147
Mof_H 	H 	0.7717	0.3588	0.6285	0.071
Mof_C 	C 	0.7969	0.3139	0.6581	0.303
Mof_C 	C 	0.8288	0.3047	0.6808	-0.254
Mof_H 	H 	0.8315	0.2793	0.6919	0.149
Mof_C 	C 	0.8571	0.3331	0.6874	0.045
Mof_H 	H 	0.8794	0.3273	0.7028	0.019
Mof_C 	C 	0.8524	0.3697	0.6713	-0.027
Mof_H 	H 	0.8722	0.3887	0.6755	0.036
Mof_C 	C 	0.7992	0.519	0.6223	0.04
Mof_H 	H 	0.7996	0.5173	0.65	0.03
Mof_C 	C 	0.7887	0.5538	0.6041	-0.041
Mof_C 	C 	0.7885	0.5573	0.5643	0.011
Mof_H 	H 	0.7811	0.5812	0.5522	0.029
Mof_C 	C 	0.799	0.5269	0.5428	-0.109
Mof_H 	H 	0.7993	0.5289	0.5151	0.073
Mof_C 	C 	0.8092	0.4926	0.5604	0.07
Mof_H 	H 	0.8168	0.4713	0.5444	0.001
Mof_C 	C 	0.765	0.2841	0.649	-0.853
Mof_H 	H 	0.7673	0.2794	0.6217	0.383
Mof_H 	H 	0.7396	0.2942	0.6539	-0.067
Mof_C 	C 	0.7748	0.5892	0.6257	0.041
Mof_H 	H 	0.7593	0.6059	0.6078	0.059
Mof_H 	H 	0.7976	0.6045	0.6347	-0.012
Mof_N 	N 	0.7982	0.551	0.72	-0.108
Mof_N 	N 	0.8408	0.4571	0.671	-0.181
Mof_N 	N 	0.8213	0.3796	0.64984	-0.14
Mof_N 	N 	0.8089	0.4875	0.6	-0.187
Mof_O 	O 	0.7513	0.5783	0.6586	-0.356
Mof_H 	H 	0.742	0.571	0.6796	0.252
Mof_O 	O 	0.7674	0.2499	0.6701	-0.801
Mof_H 	H 	0.772	0.239	0.6919	0.306
Mof_H 	H 	0.7427	0.2976	0.6395	0.277
Mof_H 	H 	0.7572	0.2698	0.6716	0.732
Mof_C 	C 	0.7816	0.5878	0.6306	0.056
Mof_H 	H 	0.7735	0.6109	0.615	-0.024
Mof_H 	H 	0.806	0.5945	0.6446	0.04
Mof_O 	O 	0.7779	0.2553	0.6225	-0.18
Mof_H 	H 	0.7631	0.2578	0.6024	0.046
Mof_C 	C 	0.3245	0.0334	0.231	-0.043
Mof_C 	C 	0.3545	0.9717	0.1979	-0.023
Mof_C 	C 	0.2941	0.8521	0.1436	-0.147
Mof_H 	H 	0.2717	0.8588	0.1285	0.071
Mof_C 	C 	0.2969	0.8139	0.1581	0.303
Mof_C 	C 	0.3288	0.8047	0.1808	-0.254
Mof_H 	H 	0.3315	0.7793	0.1919	0.149
Mof_C 	C 	0.3571	0.8331	0.1874	0.044
Mof_H 	H 	0.3794	0.8273	0.2028	0.019
Mof_C 	C 	0.3524	0.8697	0.1713	-0.027
Mof_H 	H 	0.3722	0.8887	0.1755	0.036
Mof_C 	C 	0.2992	0.019	0.1223	0.037
Mof_H 	H 	0.2996	0.0173	0.15	0.03
Mof_C 	C 	0.2887	0.0538	0.1041	-0.043
Mof_C 	C 	0.2885	0.0573	0.0643	0.015
Mof_H 	H 	0.2811	0.0812	0.0522	0.026
Mof_C 	C 	0.299	0.0269	0.0428	-0.118
Mof_H 	H 	0.2993	0.0289	0.0151	0.074
Mof_C 	C 	0.3092	0.9926	0.0604	0.078
Mof_H 	H 	0.3168	0.9713	0.0444	-0.002
Mof_C 	C 	0.265	0.7841	0.149	-0.853
Mof_H 	H 	0.2673	0.7794	0.1217	0.383
Mof_H 	H 	0.2396	0.7942	0.1539	-0.067
Mof_C 	C 	0.2748	0.0892	0.1257	0.042
Mof_H 	H 	0.2593	0.1059	0.1078	0.058
Mof_H 	H 	0.2976	0.1045	0.1347	-0.013
Mof_N 	N 	0.2982	0.051	0.22	-0.108
Mof_N 	N 	0.3408	0.9571	0.171	-0.182
Mof_N 	N 	0.3213	0.8796	0.14984	-0.14
Mof_N 	N 	0.3089	0.9875	0.1	-0.186
Mof_O 	O 	0.2513	0.0783	0.1586	-0.357
Mof_H 	H 	0.242	0.071	0.1796	0.252
Mof_O 	O 	0.2674	0.7499	0.1701	-0.801
Mof_H 	H 	0.272	0.739	0.1919	0.306
Mof_H 	H 	0.2427	0.7976	0.1395	0.277
Mof_H 	H 	0.2572	0.7698	0.1716	0.732
Mof_C 	C 	0.2816	0.0878	0.1306	0.056
Mof_H 	H 	0.2735	0.1109	0.115	-0.024
Mof_H 	H 	0.306	0.0945	0.1446	0.04
Mof_O 	O 	0.2779	0.7553	0.1225	-0.18
Mof_H 	H 	0.2631	0.7578	0.1024	0.046
Mof_C 	C 	0.3245	0.9666	0.269	-0.04
Mof_C 	C 	0.3545	0.0283	0.3021	-0.026
Mof_C 	C 	0.2941	0.1479	0.3564	-0.147
Mof_H 	H 	0.2717	0.1412	0.3715	0.071
Mof_C 	C 	0.2969	0.1861	0.3419	0.303
Mof_C 	C 	0.3288	0.1953	0.3192	-0.254
Mof_H 	H 	0.3315	0.2207	0.3081	0.149
Mof_C 	C 	0.3571	0.1669	0.3126	0.045
Mof_H 	H 	0.3794	0.1727	0.2972	0.019
Mof_C 	C 	0.3524	0.1303	0.3287	-0.027
Mof_H 	H 	0.3722	0.1113	0.3245	0.036
Mof_C 	C 	0.2992	0.981	0.3777	0.043
Mof_H 	H 	0.2996	0.9827	0.35	0.03
Mof_C 	C 	0.2887	0.9462	0.3959	-0.039
Mof_C 	C 	0.2885	0.9427	0.4357	0.006
Mof_H 	H 	0.2811	0.9188	0.4478	0.03
Mof_C 	C 	0.299	0.9731	0.4572	-0.099
Mof_H 	H 	0.2993	0.9711	0.4849	0.071
Mof_C 	C 	0.3092	0.0074	0.4396	0.062
Mof_H 	H 	0.3168	0.0287	0.4556	0.003
Mof_C 	C 	0.265	0.2159	0.351	-0.853
Mof_H 	H 	0.2673	0.2206	0.3783	0.383
Mof_H 	H 	0.2396	0.2058	0.3461	-0.066
Mof_C 	C 	0.2748	0.9108	0.3743	0.041
Mof_H 	H 	0.2593	0.8941	0.3922	0.059
Mof_H 	H 	0.2976	0.8955	0.3653	-0.012
Mof_N 	N 	0.2982	0.949	0.28	-0.108
Mof_N 	N 	0.3408	0.0429	0.329	-0.182
Mof_N 	N 	0.3213	0.1204	0.35016	-0.14
Mof_N 	N 	0.3089	0.0125	0.4	-0.188
Mof_O 	O 	0.2513	0.9217	0.3414	-0.356
Mof_H 	H 	0.242	0.929	0.3204	0.252
Mof_O 	O 	0.2674	0.2501	0.3299	-0.801
Mof_H 	H 	0.272	0.261	0.3081	0.306
Mof_H 	H 	0.2427	0.2024	0.3605	0.277
Mof_H 	H 	0.2572	0.2302	0.3284	0.732
Mof_C 	C 	0.2816	0.9122	0.3694	0.055
Mof_H 	H 	0.2735	0.8891	0.385	-0.024
Mof_H 	H 	0.306	0.9055	0.3554	0.04
Mof_O 	O 	0.2779	0.2447	0.3775	-0.18
Mof_H 	H 	0.2631	0.2422	0.3976	0.046
Mof_C 	C 	0.8245	0.4666	0.769	-0.043
Mof_C 	C 	0.8545	0.5283	0.8021	-0.026
Mof_C 	C 	0.7941	0.6479	0.8564	-0.147
Mof_H 	H 	0.7717	0.6412	0.8715	0.071
Mof_C 	C 	0.7969	0.6861	0.8419	0.303
Mof_C 	C 	0.8288	0.6953	0.8192	-0.253
Mof_H 	H 	0.8315	0.7207	0.8081	0.149
Mof_C 	C 	0.8571	0.6669	0.8126	0.045
Mof_H 	H 	0.8794	0.6727	0.7972	0.019
Mof_C 	C 	0.8524	0.6303	0.8287	-0.027
Mof_H 	H 	0.8722	0.6113	0.8245	0.036
Mof_C 	C 	0.7992	0.481	0.8777	0.04
Mof_H 	H 	0.7996	0.4827	0.85	0.03
Mof_C 	C 	0.7887	0.4462	0.8959	-0.041
Mof_C 	C 	0.7885	0.4427	0.9357	0.011
Mof_H 	H 	0.7811	0.4188	0.9478	0.029
Mof_C 	C 	0.799	0.4731	0.9572	-0.108
Mof_H 	H 	0.7993	0.4711	0.9849	0.075
Mof_C 	C 	0.8092	0.5074	0.9396	0.07
Mof_H 	H 	0.8168	0.5287	0.9556	0.002
Mof_C 	C 	0.765	0.7159	0.851	-0.853
Mof_H 	H 	0.7673	0.7206	0.8783	0.383
Mof_H 	H 	0.7396	0.7058	0.8461	-0.067
Mof_C 	C 	0.7748	0.4108	0.8743	0.041
Mof_H 	H 	0.7593	0.3941	0.8922	0.059
Mof_H 	H 	0.7976	0.3955	0.8653	-0.012
Mof_N 	N 	0.7982	0.449	0.78	-0.108
Mof_N 	N 	0.8408	0.5429	0.829	-0.181
Mof_N 	N 	0.8213	0.6204	0.85016	-0.14
Mof_N 	N 	0.8089	0.5125	0.9	-0.187
Mof_O 	O 	0.7513	0.4217	0.8414	-0.356
Mof_H 	H 	0.742	0.429	0.8204	0.252
Mof_O 	O 	0.7674	0.7501	0.8299	-0.801
Mof_H 	H 	0.772	0.761	0.8081	0.306
Mof_H 	H 	0.7427	0.7024	0.8605	0.277
Mof_H 	H 	0.7572	0.7302	0.8284	0.732
Mof_C 	C 	0.7816	0.4122	0.8694	0.056
Mof_H 	H 	0.7735	0.3891	0.885	-0.025
Mof_H 	H 	0.806	0.4055	0.8554	0.04
Mof_O 	O 	0.7779	0.7447	0.8775	-0.179
Mof_H 	H 	0.7631	0.7422	0.8976	0.046
Mof_Fe	Fe	0.125	0.81617	0.06617	0.713
Mof_Fe	Fe	0.625	0.31617	0.56617	0.714
Mof_Fe	Fe	0.375	0.18383	0.56617	0.714
Mof_Fe	Fe	0.875	0.68383	0.06617	0.713
Mof_Fe	Fe	0.875	0.31617	0.43383	0.714
Mof_Fe	Fe	0.375	0.81617	0.93383	0.714
Mof_Fe	Fe	0.625	0.68383	0.93383	0.714
Mof_Fe	Fe	0.125	0.18383	0.43383	0.714
Mof_Fe	Fe	0.06617	0.125	0.81617	0.713
Mof_Fe	Fe	0.56617	0.625	0.31617	0.714
Mof_Fe	Fe	0.56617	0.375	0.18383	0.714
Mof_Fe	Fe	0.06617	0.875	0.68383	0.713
Mof_Fe	Fe	0.43383	0.875	0.31617	0.714
Mof_Fe	Fe	0.93383	0.375	0.81617	0.714
Mof_Fe	Fe	0.93383	0.625	0.68383	0.714
Mof_Fe	Fe	0.43383	0.125	0.18383	0.714
Mof_Fe	Fe	0.81617	0.06617	0.125	0.713
Mof_Fe	Fe	0.31617	0.56617	0.625	0.714
Mof_Fe	Fe	0.18383	0.56617	0.375	0.714
Mof_Fe	Fe	0.68383	0.06617	0.875	0.713
Mof_Fe	Fe	0.31617	0.43383	0.875	0.714
Mof_Fe	Fe	0.81617	0.93383	0.375	0.714
Mof_Fe	Fe	0.68383	0.93383	0.625	0.714
Mof_Fe	Fe	0.18383	0.43383	0.125	0.714
Mof_Fe	Fe	0.875	0.18383	0.93383	0.715
Mof_Fe	Fe	0.375	0.68383	0.43383	0.714
Mof_Fe	Fe	0.625	0.81617	0.43383	0.714
Mof_Fe	Fe	0.125	0.31617	0.93383	0.714
Mof_Fe	Fe	0.125	0.68383	0.56617	0.714
Mof_Fe	Fe	0.625	0.18383	0.06617	0.713
Mof_Fe	Fe	0.375	0.31617	0.06617	0.713
Mof_Fe	Fe	0.875	0.81617	0.56617	0.714
Mof_Fe	Fe	0.93383	0.875	0.18383	0.715
Mof_Fe	Fe	0.43383	0.375	0.68383	0.714
Mof_Fe	Fe	0.43383	0.625	0.81617	0.714
Mof_Fe	Fe	0.93383	0.125	0.31617	0.714
Mof_Fe	Fe	0.56617	0.125	0.68383	0.714
Mof_Fe	Fe	0.06617	0.625	0.18383	0.713
Mof_Fe	Fe	0.06617	0.375	0.31617	0.713
Mof_Fe	Fe	0.56617	0.875	0.81617	0.714
Mof_Fe	Fe	0.18383	0.93383	0.875	0.715
Mof_Fe	Fe	0.68383	0.43383	0.375	0.714
Mof_Fe	Fe	0.81617	0.43383	0.625	0.714
Mof_Fe	Fe	0.31617	0.93383	0.125	0.714
Mof_Fe	Fe	0.68383	0.56617	0.125	0.714
Mof_Fe	Fe	0.18383	0.06617	0.625	0.713
Mof_Fe	Fe	0.31617	0.06617	0.375	0.713
Mof_Fe	Fe	0.81617	0.56617	0.875	0.714
Mof_W 	W 	6.7896e-33	0.75	0.125	0.511
Mof_W 	W 	0.5	0.25	0.625	0.518
Mof_W 	W 	1.40602e-33	0.25	0.375	0.511
Mof_W 	W 	0.5	0.75	0.875	0.518
Mof_W 	W 	0.125	0	0.75	0.511
Mof_W 	W 	0.625	0.5	0.25	0.518
Mof_W 	W 	0.375	0	0.25	0.511
Mof_W 	W 	0.875	0.5	0.75	0.518
Mof_W 	W 	0.75	0.125	-0	0.511
Mof_W 	W 	0.25	0.625	0.5	0.518
Mof_W 	W 	0.25	0.375	-0	0.511
Mof_W 	W 	0.75	0.875	0.5	0.518
Mof_W 	W 	0.5	0.25	0.125	0.518
Mof_W 	W 	-7.77011e-33	0.75	0.625	0.511
Mof_W 	W 	3.28072e-33	0.25	0.875	0.511
Mof_W 	W 	0.5	0.75	0.375	0.518
Mof_W 	W 	0.75	0.375	0.5	0.518
Mof_W 	W 	0.25	0.875	-0	0.511
Mof_W 	W 	0.75	0.625	-0	0.511
Mof_W 	W 	0.25	0.125	0.5	0.518
Mof_W 	W 	0.875	0	0.25	0.511
Mof_W 	W 	0.375	0.5	0.75	0.518
Mof_W 	W 	0.125	0.5	0.25	0.518
Mof_W 	W 	0.625	0	0.75	0.511
_end
