# CIF file generated by openbabel 3.1.0, see https://openbabel.org
data_I
_chemical_name_common 'image0'
_cell_length_a 21.0818
_cell_length_b 9.4766
_cell_length_c 33.6467
_cell_angle_alpha 90
_cell_angle_beta 126.573
_cell_angle_gamma 90
_space_group_name_H-M_alt 'P 1'
_space_group_name_Hall 'P 1'
loop_
    _symmetry_equiv_pos_as_xyz
    x,y,z
loop_
    _atom_site_label
    _atom_site_type_symbol
    _atom_site_fract_x
    _atom_site_fract_y
    _atom_site_fract_z
    _atom_site_occupancy
    Ba1      Ba       0.02340    0.31807    0.27788    1.000
    Ba2      Ba       0.12985    0.96353    0.36969    1.000
    P1       P        0.49356    0.23430    0.34615    1.000
    P2       P        0.43370    0.44270    0.27510    1.000
    P3       P        0.51167    0.51590    0.37301    1.000
    O1       O        0.45300    0.11030    0.35540    1.000
    O2       O        0.34930    0.47860    0.22600    1.000
    O3       O        0.47950    0.59630    0.39940    1.000
    O4       O        0.59340    0.59400    0.39810    1.000
    O5       O        0.47890    0.46700    0.25100    1.000
    O6       O        0.56420    0.15090    0.35310    1.000
    O7       O        0.09440    0.06790    0.27820    1.000
    O8       O        0.08600    0.96000    0.21630    1.000
    O9       O        0.02660    0.39730    0.20040    1.000
    O10      O        0.01750    0.62300    0.17820    1.000
    O11      O        0.11150    0.54130    0.29910    1.000
    O12      O        0.12720    0.77050    0.31050    1.000
    O13      O        0.90610    0.61070    0.61950    1.000
    O14      O        0.83220    0.76000    0.62650    1.000
    O15      O        0.84700    0.59290    0.37950    1.000
    O16      O        0.84750    0.35900    0.37070    1.000
    O17      O        0.87320    0.92440    0.55820    1.000
    O18      O        0.88120    0.81020    0.50440    1.000
    N1       N        0.43870    0.28380    0.28990    1.000
    N2       N        0.46000    0.55810    0.31660    1.000
    N3       N        0.52180    0.35400    0.38660    1.000
    C1       C        0.37030    0.09570    0.32900    1.000
    C2       C        0.32620    0.03980    0.28300    1.000
    H1       H        0.34930    0.01630    0.26750    1.000
    C3       C        0.24520    0.01740    0.25890    1.000
    H2       H        0.21480    0.97540    0.22780    1.000
    C4       C        0.21040    0.05810    0.28170    1.000
    C5       C        0.25670    0.11510    0.32860    1.000
    H3       H        0.23390    0.14180    0.34410    1.000
    C6       C        0.33760    0.13270    0.35280    1.000
    H4       H        0.36920    0.16900    0.38480    1.000
    C7       C        0.12460    0.02800    0.25680    1.000
    C8       C        0.28070    0.48260    0.22480    1.000
    C9       C        0.23690    0.36220    0.21260    1.000
    H5       H        0.25540    0.27640    0.20980    1.000
    C10      C        0.16470    0.37090    0.20430    1.000
    H6       H        0.13490    0.28950    0.19690    1.000
    C11      C        0.13550    0.50010    0.20700    1.000
    C12      C        0.18270    0.62120    0.22090    1.000
    H7       H        0.16460    0.70770    0.22350    1.000
    C13      C        0.25650    0.61090    0.23080    1.000
    H8       H        0.28920    0.68950    0.24120    1.000
    C14      C        0.05520    0.50780    0.19530    1.000
    C15      C        0.39860    0.60630    0.37740    1.000
    C16      C        0.35430    0.48420    0.36760    1.000
    H9       H        0.37700    0.39500    0.37480    1.000
    C17      C        0.27560    0.50180    0.34680    1.000
    H10      H        0.24460    0.42180    0.33870    1.000
    C18      C        0.24030    0.63200    0.33740    1.000
    C19      C        0.28750    0.74880    0.34890    1.000
    H11      H        0.26560    0.83820    0.34350    1.000
    C20      C        0.36600    0.73680    0.36830    1.000
    H12      H        0.39630    0.81700    0.37500    1.000
    C21      C        0.15380    0.64580    0.31440    1.000
    C22      C        0.65130    0.60680    0.44990    1.000
    C23      C        0.64350    0.70690    0.47600    1.000
    H13      H        0.59790    0.76130    0.46080    1.000
    C24      C        0.70480    0.72530    0.52560    1.000
    H14      H        0.70060    0.79500    0.54340    1.000
    C25      C        0.77300    0.64210    0.54970    1.000
    C26      C        0.77860    0.54400    0.52120    1.000
    H15      H        0.82430    0.49020    0.53600    1.000
    C27      C        0.71850    0.52400    0.47170    1.000
    H16      H        0.72300    0.45660    0.45340    1.000
    C28      C        0.84160    0.67200    0.60180    1.000
    C29      C        0.56230    0.46600    0.28310    1.000
    C30      C        0.60170    0.59260    0.30330    1.000
    H17      H        0.57390    0.67560    0.29750    1.000
    C31      C        0.68390    0.59310    0.33230    1.000
    H18      H        0.71130    0.67750    0.34540    1.000
    C32      C        0.72600    0.46560    0.34210    1.000
    C33      C        0.68430    0.34230    0.32260    1.000
    H19      H        0.71160    0.25820    0.32910    1.000
    C34      C        0.60220    0.33950    0.29340    1.000
    H20      H        0.57480    0.25480    0.28100    1.000
    C35      C        0.81380    0.47330    0.36690    1.000
    C36      C        0.63110    0.08760    0.39490    1.000
    C37      C        0.67220    0.14520    0.44120    1.000
    H21      H        0.65440    0.22690    0.44690    1.000
    C38      C        0.74240    0.07840    0.48020    1.000
    H22      H        0.76980    0.11500    0.51200    1.000
    C39      C        0.77030    0.96350    0.47210    1.000
    C40      C        0.72790    0.90700    0.42500    1.000
    H23      H        0.74590    0.82580    0.41910    1.000
    C41      C        0.65930    0.97050    0.38690    1.000
    H24      H        0.63170    0.93270    0.35520    1.000
    C42      C        0.84610    0.89520    0.51410    1.000
    Ba3      Ba       0.00284    0.78476    0.09780    1.000
    Ba4      Ba       0.97660    0.81807    0.22212    1.000
    Ba5      Ba       0.87015    0.46353    0.13031    1.000
    P4       P        0.50644    0.73430    0.15385    1.000
    P5       P        0.56630    0.94270    0.22490    1.000
    P6       P        0.48833    0.01590    0.12699    1.000
    O19      O        0.54700    0.61030    0.14460    1.000
    O20      O        0.65070    0.97860    0.27400    1.000
    O21      O        0.52050    0.09630    0.10060    1.000
    O22      O        0.40660    0.09400    0.10190    1.000
    O23      O        0.52110    0.96700    0.24900    1.000
    O24      O        0.43580    0.65090    0.14690    1.000
    O25      O        0.90560    0.56790    0.22180    1.000
    O26      O        0.91400    0.46000    0.28370    1.000
    O27      O        0.97340    0.89730    0.29960    1.000
    O28      O        0.98250    0.12300    0.32180    1.000
    O29      O        0.88850    0.04130    0.20090    1.000
    O30      O        0.87280    0.27050    0.18950    1.000
    O31      O        0.09390    0.11070    0.88050    1.000
    O32      O        0.16780    0.26000    0.87350    1.000
    O33      O        0.15300    0.09290    0.12050    1.000
    O34      O        0.15250    0.85900    0.12930    1.000
    O35      O        0.12680    0.42440    0.94180    1.000
    O36      O        0.11880    0.31020    0.99560    1.000
    N4       N        0.56130    0.78380    0.21010    1.000
    N5       N        0.54000    0.05810    0.18340    1.000
    N6       N        0.47820    0.85400    0.11340    1.000
    C43      C        0.62970    0.59570    0.17100    1.000
    C44      C        0.67380    0.53980    0.21700    1.000
    H25      H        0.65070    0.51630    0.23250    1.000
    C45      C        0.75480    0.51740    0.24110    1.000
    H26      H        0.78520    0.47540    0.27220    1.000
    C46      C        0.78960    0.55810    0.21830    1.000
    C47      C        0.74330    0.61510    0.17140    1.000
    H27      H        0.76610    0.64180    0.15590    1.000
    C48      C        0.66240    0.63270    0.14720    1.000
    H28      H        0.63080    0.66900    0.11520    1.000
    C49      C        0.87540    0.52800    0.24320    1.000
    C50      C        0.71930    0.98260    0.27520    1.000
    C51      C        0.76310    0.86220    0.28740    1.000
    H29      H        0.74460    0.77640    0.29020    1.000
    C52      C        0.83530    0.87090    0.29570    1.000
    H30      H        0.86510    0.78950    0.30310    1.000
    C53      C        0.86450    0.00010    0.29300    1.000
    C54      C        0.81730    0.12120    0.27910    1.000
    H31      H        0.83540    0.20770    0.27650    1.000
    C55      C        0.74350    0.11090    0.26920    1.000
    H32      H        0.71080    0.18950    0.25880    1.000
    C56      C        0.94480    0.00780    0.30470    1.000
    C57      C        0.60140    0.10630    0.12260    1.000
    C58      C        0.64570    0.98420    0.13240    1.000
    H33      H        0.62300    0.89500    0.12520    1.000
    C59      C        0.72440    0.00180    0.15320    1.000
    H34      H        0.75540    0.92180    0.16130    1.000
    C60      C        0.75970    0.13200    0.16260    1.000
    C61      C        0.71250    0.24880    0.15110    1.000
    H35      H        0.73440    0.33820    0.15650    1.000
    C62      C        0.63400    0.23680    0.13170    1.000
    H36      H        0.60370    0.31700    0.12500    1.000
    C63      C        0.84620    0.14580    0.18560    1.000
    C64      C        0.34870    0.10680    0.05010    1.000
    C65      C        0.35650    0.20690    0.02400    1.000
    H37      H        0.40210    0.26130    0.03920    1.000
    C66      C        0.29520    0.22530    0.97440    1.000
    H38      H        0.29940    0.29500    0.95660    1.000
    C67      C        0.22700    0.14210    0.95030    1.000
    C68      C        0.22140    0.04400    0.97880    1.000
    H39      H        0.17570    0.99020    0.96400    1.000
    C69      C        0.28150    0.02400    0.02830    1.000
    H40      H        0.27700    0.95660    0.04660    1.000
    C70      C        0.15840    0.17200    0.89820    1.000
    C71      C        0.43770    0.96600    0.21690    1.000
    C72      C        0.39830    0.09260    0.19670    1.000
    H41      H        0.42610    0.17560    0.20250    1.000
    C73      C        0.31610    0.09310    0.16770    1.000
    H42      H        0.28870    0.17750    0.15460    1.000
    C74      C        0.27400    0.96560    0.15790    1.000
    C75      C        0.31570    0.84230    0.17740    1.000
    H43      H        0.28840    0.75820    0.17090    1.000
    C76      C        0.39780    0.83950    0.20660    1.000
    H44      H        0.42520    0.75480    0.21900    1.000
    C77      C        0.18620    0.97330    0.13310    1.000
    C78      C        0.36890    0.58760    0.10510    1.000
    C79      C        0.32780    0.64520    0.05880    1.000
    H45      H        0.34560    0.72690    0.05310    1.000
    C80      C        0.25760    0.57840    0.01980    1.000
    H46      H        0.23020    0.61500    0.98800    1.000
    C81      C        0.22970    0.46350    0.02790    1.000
    C82      C        0.27210    0.40700    0.07500    1.000
    H47      H        0.25410    0.32580    0.08090    1.000
    C83      C        0.34070    0.47050    0.11310    1.000
    H48      H        0.36830    0.43270    0.14480    1.000
    C84      C        0.15390    0.39520    0.98590    1.000
    Ba6      Ba       0.99716    0.28476    0.40220    1.000
    Ba7      Ba       0.97660    0.68193    0.72212    1.000
    Ba8      Ba       0.87015    0.03647    0.63031    1.000
    P7       P        0.50644    0.76570    0.65385    1.000
    P8       P        0.56630    0.55730    0.72490    1.000
    P9       P        0.48833    0.48410    0.62699    1.000
    O37      O        0.54700    0.88970    0.64460    1.000
    O38      O        0.65070    0.52140    0.77400    1.000
    O39      O        0.52050    0.40370    0.60060    1.000
    O40      O        0.40660    0.40600    0.60190    1.000
    O41      O        0.52110    0.53300    0.74900    1.000
    O42      O        0.43580    0.84910    0.64690    1.000
    O43      O        0.90560    0.93210    0.72180    1.000
    O44      O        0.91400    0.04000    0.78370    1.000
    O45      O        0.97340    0.60270    0.79960    1.000
    O46      O        0.98250    0.37700    0.82180    1.000
    O47      O        0.88850    0.45870    0.70090    1.000
    O48      O        0.87280    0.22950    0.68950    1.000
    O49      O        0.09390    0.38930    0.38050    1.000
    O50      O        0.16780    0.24000    0.37350    1.000
    O51      O        0.15300    0.40710    0.62050    1.000
    O52      O        0.15250    0.64100    0.62930    1.000
    O53      O        0.12680    0.07560    0.44180    1.000
    O54      O        0.11880    0.18980    0.49560    1.000
    N7       N        0.56130    0.71620    0.71010    1.000
    N8       N        0.54000    0.44190    0.68340    1.000
    N9       N        0.47820    0.64600    0.61340    1.000
    C85      C        0.62970    0.90430    0.67100    1.000
    C86      C        0.67380    0.96020    0.71700    1.000
    H49      H        0.65070    0.98370    0.73250    1.000
    C87      C        0.75480    0.98260    0.74110    1.000
    H50      H        0.78520    0.02460    0.77220    1.000
    C88      C        0.78960    0.94190    0.71830    1.000
    C89      C        0.74330    0.88490    0.67140    1.000
    H51      H        0.76610    0.85820    0.65590    1.000
    C90      C        0.66240    0.86730    0.64720    1.000
    H52      H        0.63080    0.83100    0.61520    1.000
    C91      C        0.87540    0.97200    0.74320    1.000
    C92      C        0.71930    0.51740    0.77520    1.000
    C93      C        0.76310    0.63780    0.78740    1.000
    H53      H        0.74460    0.72360    0.79020    1.000
    C94      C        0.83530    0.62910    0.79570    1.000
    H54      H        0.86510    0.71050    0.80310    1.000
    C95      C        0.86450    0.49990    0.79300    1.000
    C96      C        0.81730    0.37880    0.77910    1.000
    H55      H        0.83540    0.29230    0.77650    1.000
    C97      C        0.74350    0.38910    0.76920    1.000
    H56      H        0.71080    0.31050    0.75880    1.000
    C98      C        0.94480    0.49220    0.80470    1.000
    C99      C        0.60140    0.39370    0.62260    1.000
    C100     C        0.64570    0.51580    0.63240    1.000
    H57      H        0.62300    0.60500    0.62520    1.000
    C101     C        0.72440    0.49820    0.65320    1.000
    H58      H        0.75540    0.57820    0.66130    1.000
    C102     C        0.75970    0.36800    0.66260    1.000
    C103     C        0.71250    0.25120    0.65110    1.000
    H59      H        0.73440    0.16180    0.65650    1.000
    C104     C        0.63400    0.26320    0.63170    1.000
    H60      H        0.60370    0.18300    0.62500    1.000
    C105     C        0.84620    0.35420    0.68560    1.000
    C106     C        0.34870    0.39320    0.55010    1.000
    C107     C        0.35650    0.29310    0.52400    1.000
    H61      H        0.40210    0.23870    0.53920    1.000
    C108     C        0.29520    0.27470    0.47440    1.000
    H62      H        0.29940    0.20500    0.45660    1.000
    C109     C        0.22700    0.35790    0.45030    1.000
    C110     C        0.22140    0.45600    0.47880    1.000
    H63      H        0.17570    0.50980    0.46400    1.000
    C111     C        0.28150    0.47600    0.52830    1.000
    H64      H        0.27700    0.54340    0.54660    1.000
    C112     C        0.15840    0.32800    0.39820    1.000
    C113     C        0.43770    0.53400    0.71690    1.000
    C114     C        0.39830    0.40740    0.69670    1.000
    H65      H        0.42610    0.32440    0.70250    1.000
    C115     C        0.31610    0.40690    0.66770    1.000
    H66      H        0.28870    0.32250    0.65460    1.000
    C116     C        0.27400    0.53440    0.65790    1.000
    C117     C        0.31570    0.65770    0.67740    1.000
    H67      H        0.28840    0.74180    0.67090    1.000
    C118     C        0.39780    0.66050    0.70660    1.000
    H68      H        0.42520    0.74520    0.71900    1.000
    C119     C        0.18620    0.52670    0.63310    1.000
    C120     C        0.36890    0.91240    0.60510    1.000
    C121     C        0.32780    0.85480    0.55880    1.000
    H69      H        0.34560    0.77310    0.55310    1.000
    C122     C        0.25760    0.92160    0.51980    1.000
    H70      H        0.23020    0.88500    0.48800    1.000
    C123     C        0.22970    0.03650    0.52790    1.000
    C124     C        0.27210    0.09300    0.57500    1.000
    H71      H        0.25410    0.17420    0.58090    1.000
    C125     C        0.34070    0.02950    0.61310    1.000
    H72      H        0.36830    0.06730    0.64480    1.000
    C126     C        0.15390    0.10480    0.48590    1.000
    Ba9      Ba       0.99716    0.21524    0.90220    1.000
    Ba10     Ba       0.02340    0.18193    0.77788    1.000
    Ba11     Ba       0.12985    0.53647    0.86969    1.000
    P10      P        0.49356    0.26570    0.84615    1.000
    P11      P        0.43370    0.05730    0.77510    1.000
    P12      P        0.51167    0.98410    0.87301    1.000
    O55      O        0.45300    0.38970    0.85540    1.000
    O56      O        0.34930    0.02140    0.72600    1.000
    O57      O        0.47950    0.90370    0.89940    1.000
    O58      O        0.59340    0.90600    0.89810    1.000
    O59      O        0.47890    0.03300    0.75100    1.000
    O60      O        0.56420    0.34910    0.85310    1.000
    O61      O        0.09440    0.43210    0.77820    1.000
    O62      O        0.08600    0.54000    0.71630    1.000
    O63      O        0.02660    0.10270    0.70040    1.000
    O64      O        0.01750    0.87700    0.67820    1.000
    O65      O        0.11150    0.95870    0.79910    1.000
    O66      O        0.12720    0.72950    0.81050    1.000
    O67      O        0.90610    0.88930    0.11950    1.000
    O68      O        0.83220    0.74000    0.12650    1.000
    O69      O        0.84700    0.90710    0.87950    1.000
    O70      O        0.84750    0.14100    0.87070    1.000
    O71      O        0.87320    0.57560    0.05820    1.000
    O72      O        0.88120    0.68980    0.00440    1.000
    N10      N        0.43870    0.21620    0.78990    1.000
    N11      N        0.46000    0.94190    0.81660    1.000
    N12      N        0.52180    0.14600    0.88660    1.000
    C127     C        0.37030    0.40430    0.82900    1.000
    C128     C        0.32620    0.46020    0.78300    1.000
    H73      H        0.34930    0.48370    0.76750    1.000
    C129     C        0.24520    0.48260    0.75890    1.000
    H74      H        0.21480    0.52460    0.72780    1.000
    C130     C        0.21040    0.44190    0.78170    1.000
    C131     C        0.25670    0.38490    0.82860    1.000
    H75      H        0.23390    0.35820    0.84410    1.000
    C132     C        0.33760    0.36730    0.85280    1.000
    H76      H        0.36920    0.33100    0.88480    1.000
    C133     C        0.12460    0.47200    0.75680    1.000
    C134     C        0.28070    0.01740    0.72480    1.000
    C135     C        0.23690    0.13780    0.71260    1.000
    H77      H        0.25540    0.22360    0.70980    1.000
    C136     C        0.16470    0.12910    0.70430    1.000
    H78      H        0.13490    0.21050    0.69690    1.000
    C137     C        0.13550    0.99990    0.70700    1.000
    C138     C        0.18270    0.87880    0.72090    1.000
    H79      H        0.16460    0.79230    0.72350    1.000
    C139     C        0.25650    0.88910    0.73080    1.000
    H80      H        0.28920    0.81050    0.74120    1.000
    C140     C        0.05520    0.99220    0.69530    1.000
    C141     C        0.39860    0.89370    0.87740    1.000
    C142     C        0.35430    0.01580    0.86760    1.000
    H81      H        0.37700    0.10500    0.87480    1.000
    C143     C        0.27560    0.99820    0.84680    1.000
    H82      H        0.24460    0.07820    0.83870    1.000
    C144     C        0.24030    0.86800    0.83740    1.000
    C145     C        0.28750    0.75120    0.84890    1.000
    H83      H        0.26560    0.66180    0.84350    1.000
    C146     C        0.36600    0.76320    0.86830    1.000
    H84      H        0.39630    0.68300    0.87500    1.000
    C147     C        0.15380    0.85420    0.81440    1.000
    C148     C        0.65130    0.89320    0.94990    1.000
    C149     C        0.64350    0.79310    0.97600    1.000
    H85      H        0.59790    0.73870    0.96080    1.000
    C150     C        0.70480    0.77470    0.02560    1.000
    H86      H        0.70060    0.70500    0.04340    1.000
    C151     C        0.77300    0.85790    0.04970    1.000
    C152     C        0.77860    0.95600    0.02120    1.000
    H87      H        0.82430    0.00980    0.03600    1.000
    C153     C        0.71850    0.97600    0.97170    1.000
    H88      H        0.72300    0.04340    0.95340    1.000
    C154     C        0.84160    0.82800    0.10180    1.000
    C155     C        0.56230    0.03400    0.78310    1.000
    C156     C        0.60170    0.90740    0.80330    1.000
    H89      H        0.57390    0.82440    0.79750    1.000
    C157     C        0.68390    0.90690    0.83230    1.000
    H90      H        0.71130    0.82250    0.84540    1.000
    C158     C        0.72600    0.03440    0.84210    1.000
    C159     C        0.68430    0.15770    0.82260    1.000
    H91      H        0.71160    0.24180    0.82910    1.000
    C160     C        0.60220    0.16050    0.79340    1.000
    H92      H        0.57480    0.24520    0.78100    1.000
    C161     C        0.81380    0.02670    0.86690    1.000
    C162     C        0.63110    0.41240    0.89490    1.000
    C163     C        0.67220    0.35480    0.94120    1.000
    H93      H        0.65440    0.27310    0.94690    1.000
    C164     C        0.74240    0.42160    0.98020    1.000
    H94      H        0.76980    0.38500    0.01200    1.000
    C165     C        0.77030    0.53650    0.97210    1.000
    C166     C        0.72790    0.59300    0.92500    1.000
    H95      H        0.74590    0.67420    0.91910    1.000
    C167     C        0.65930    0.52950    0.88690    1.000
    H96      H        0.63170    0.56730    0.85520    1.000
    C168     C        0.84610    0.60480    0.01410    1.000
    Ba12     Ba       0.00284    0.71524    0.59780    1.000
