data_functionalizedCrystal
_audit_creation_method	'EQeq! by Chris Wilmer'
_symmetry_space_group_name_H-M	'P1'
_symmetry_Int_Tables_number	1
_symmetry_cell_setting	triclinic
loop_
_symmetry_equiv_pos_as_xyz
  x,y,z
_cell_length_a	26.8514
_cell_length_b	26.8514
_cell_length_c	26.8514
_cell_angle_alpha	90
_cell_angle_beta	90
_cell_angle_gamma	90
loop_
_atom_site_label
_atom_site_type_symbol
_atom_site_fract_x
_atom_site_fract_y
_atom_site_fract_z
_atom_site_charge
Mof_O 	O 	0.12872	0.06758	0.99844	-0.591
Mof_O 	O 	0.8712	0.06833	0.00162	-0.606
Mof_O 	O 	0.00141	0.12902	0.93316	-0.555
Mof_O 	O 	0.99839	0.12753	0.06944	-0.662
Mof_O 	O 	0.99917	0.06621	0.12965	-0.648
Mof_O 	O 	0.00156	0.06928	0.87158	-0.578
Mof_O 	O 	0.93226	0.12851	0.00256	-0.633
Mof_O 	O 	0.06793	0.12811	0.99923	-0.589
Mof_Zr	Zr	3e-05	0.08761	0.00078	3.246
Mof_O 	O 	0.9547	0.04446	0.04564	-1.267
Mof_O 	O 	0.04532	0.04507	0.95512	-1.226
Mof_C 	C 	0.11429	0.11401	0.99791	0.481
Mof_C 	C 	0.88579	0.11466	0.00287	0.489
Mof_C 	C 	0.00202	0.11554	0.88654	0.467
Mof_C 	C 	0.99843	0.11266	0.1157	0.506
Mof_H 	H 	0.93387	0.06664	0.93412	0.318
Mof_O 	O 	0.95507	0.04513	0.95515	-1.509
Mof_H 	H 	0.06625	0.06506	0.06666	0.337
Mof_O 	O 	0.04488	0.04393	0.04541	-1.443
Mof_O 	O 	0.87065	0.93207	0.99675	-0.635
Mof_O 	O 	0.12832	0.93094	0.00268	-0.615
Mof_O 	O 	0.93164	0.99933	0.87078	-0.69
Mof_O 	O 	0.93129	0.00057	0.12868	-0.607
Mof_O 	O 	0.06823	0.99697	0.12899	-0.638
Mof_O 	O 	0.06857	0.00249	0.87125	-0.6
Mof_O 	O 	0.99635	0.87145	0.9309	-0.665
Mof_O 	O 	0.0006	0.87022	0.06684	-0.565
Mof_O 	O 	0.99903	0.93255	0.87038	-0.71
Mof_O 	O 	0.00079	0.93008	0.12831	-0.614
Mof_O 	O 	0.8712	0.9992	0.93168	-0.651
Mof_O 	O 	0.12906	0.99934	0.93235	-0.695
Mof_O 	O 	0.12864	0.99777	0.06809	-0.635
Mof_O 	O 	0.871	0.00128	0.06759	-0.584
Mof_O 	O 	0.93112	0.87098	0.99831	-0.64
Mof_O 	O 	0.06735	0.87034	0.99946	-0.592
Mof_Zr	Zr	0.91167	0.99998	0.9997	3.225
Mof_Zr	Zr	0.08803	0.99925	0.00012	3.227
Mof_Zr	Zr	2e-05	0.0005	0.91143	3.256
Mof_Zr	Zr	0.99981	0.99866	0.08837	3.212
Mof_Zr	Zr	0.99937	0.91142	0.9992	3.223
Mof_O 	O 	0.04489	0.95365	0.04495	-1.259
Mof_O 	O 	0.95455	0.95504	0.95411	-1.304
Mof_C 	C 	0.88489	0.88566	0.99666	0.5
Mof_C 	C 	0.11369	0.88468	0.00184	0.485
Mof_C 	C 	0.88521	0.99873	0.88525	0.493
Mof_C 	C 	0.88493	0.00183	0.11405	0.475
Mof_C 	C 	0.11466	0.99676	0.11453	0.478
Mof_C 	C 	0.11484	0.00117	0.886	0.558
Mof_C 	C 	0.99672	0.8862	0.8847	0.526
Mof_C 	C 	0.00104	0.88385	0.11339	0.476
Mof_H 	H 	0.06572	0.93355	0.93338	0.323
Mof_O 	O 	0.04458	0.9549	0.95465	-1.484
Mof_H 	H 	0.93309	0.9332	0.06554	0.294
Mof_O 	O 	0.95456	0.95446	0.04451	-1.555
Mof_O 	O 	0.62826	0.56676	0.99822	-0.631
Mof_O 	O 	0.37085	0.56694	0.0016	-0.627
Mof_O 	O 	0.50148	0.62852	0.93294	-0.619
Mof_O 	O 	0.49752	0.62706	0.06942	-0.637
Mof_O 	O 	0.49932	0.56565	0.12956	-0.625
Mof_O 	O 	0.50085	0.56867	0.87143	-0.637
Mof_O 	O 	0.43117	0.628	0.00105	-0.63
Mof_O 	O 	0.56806	0.62789	0.00063	-0.635
Mof_Zr	Zr	0.49961	0.58735	0.00067	3.234
Mof_O 	O 	0.4545	0.5439	0.04568	-1.267
Mof_O 	O 	0.54479	0.54468	0.95485	-1.265
Mof_C 	C 	0.61443	0.61325	0.99978	0.493
Mof_C 	C 	0.38479	0.6134	0.0009	0.477
Mof_C 	C 	0.50182	0.61495	0.88633	0.488
Mof_C 	C 	0.49808	0.61209	0.11564	0.495
Mof_H 	H 	0.4334	0.56561	0.93404	0.313
Mof_O 	O 	0.45466	0.54436	0.95529	-1.498
Mof_H 	H 	0.56597	0.56428	0.06649	0.315
Mof_O 	O 	0.54459	0.54336	0.04505	-1.5
Mof_O 	O 	0.3707	0.43084	0.9986	-0.62
Mof_O 	O 	0.62825	0.43047	0.00023	-0.623
Mof_O 	O 	0.43096	0.49843	0.87097	-0.636
Mof_O 	O 	0.43146	0.49991	0.12889	-0.633
Mof_O 	O 	0.5683	0.4962	0.12857	-0.628
Mof_O 	O 	0.56767	0.50204	0.87077	-0.637
Mof_O 	O 	0.49646	0.37087	0.93103	-0.621
Mof_O 	O 	0.50136	0.36977	0.06676	-0.62
Mof_O 	O 	0.49809	0.43181	0.87041	-0.636
Mof_O 	O 	0.50115	0.42956	0.12824	-0.637
Mof_O 	O 	0.37079	0.49736	0.93212	-0.621
Mof_O 	O 	0.62838	0.49951	0.93164	-0.619
Mof_O 	O 	0.62849	0.4965	0.06743	-0.624
Mof_O 	O 	0.37104	0.50055	0.06798	-0.617
Mof_O 	O 	0.43154	0.37014	0.99854	-0.621
Mof_O 	O 	0.56727	0.36994	0.99939	-0.626
Mof_Zr	Zr	0.41154	0.49899	1e-05	3.234
Mof_Zr	Zr	0.58765	0.4987	0.99957	3.235
Mof_Zr	Zr	0.49942	0.49991	0.91134	3.234
Mof_Zr	Zr	0.49982	0.49812	0.08826	3.234
Mof_Zr	Zr	0.49941	0.41092	0.99918	3.235
Mof_O 	O 	0.54494	0.45316	0.04475	-1.27
Mof_O 	O 	0.45427	0.45425	0.9542	-1.267
Mof_C 	C 	0.38522	0.3845	0.99864	0.485
Mof_C 	C 	0.61365	0.38416	0.99958	0.489
Mof_C 	C 	0.38463	0.49707	0.88563	0.489
Mof_C 	C 	0.38506	0.5011	0.1144	0.49
Mof_C 	C 	0.61464	0.49554	0.11392	0.489
Mof_C 	C 	0.614	0.50116	0.88535	0.494
Mof_C 	C 	0.49625	0.38542	0.88479	0.494
Mof_C 	C 	0.50187	0.38333	0.11331	0.49
Mof_H 	H 	0.56523	0.43316	0.93276	0.315
Mof_O 	O 	0.54419	0.45438	0.95426	-1.501
Mof_H 	H 	0.43344	0.43244	0.06598	0.314
Mof_O 	O 	0.45467	0.45371	0.04471	-1.505
Mof_O 	O 	0.12857	0.56849	0.4979	-0.633
Mof_O 	O 	0.87124	0.56909	0.50139	-0.64
Mof_O 	O 	0.0023	0.62902	0.43135	-0.582
Mof_O 	O 	0.99822	0.62901	0.56748	-0.646
Mof_O 	O 	0.99955	0.56884	0.62866	-0.644
Mof_O 	O 	0.00124	0.56825	0.37052	-0.586
Mof_O 	O 	0.93226	0.62933	0.50106	-0.642
Mof_O 	O 	0.06783	0.629	0.49841	-0.608
Mof_Zr	Zr	0.99995	0.5884	0.49953	3.223
Mof_O 	O 	0.95462	0.54574	0.54496	-1.287
Mof_O 	O 	0.0452	0.54552	0.45428	-1.249
Mof_C 	C 	0.11421	0.61492	0.49751	0.479
Mof_C 	C 	0.88582	0.61543	0.50208	0.49
Mof_C 	C 	0.00293	0.61451	0.38501	0.465
Mof_C 	C 	0.99917	0.61517	0.61396	0.356
Mof_H 	H 	0.93377	0.56693	0.43339	0.303
Mof_O 	O 	0.95487	0.54547	0.45459	-1.533
Mof_H 	H 	0.06608	0.5665	0.56572	0.321
Mof_O 	O 	0.0447	0.54519	0.54466	-1.465
Mof_O 	O 	0.87067	0.43278	0.49828	-0.617
Mof_O 	O 	0.12826	0.43223	0.5023	-0.622
Mof_O 	O 	0.93138	0.49902	0.37079	-0.655
Mof_O 	O 	0.93121	0.50331	0.62854	-0.658
Mof_O 	O 	0.06799	0.49882	0.62871	-0.61
Mof_O 	O 	0.06813	0.50137	0.37089	-0.602
Mof_O 	O 	0.99671	0.37159	0.43094	-0.67
Mof_O 	O 	0.00151	0.37136	0.56777	-0.592
Mof_O 	O 	0.99872	0.43258	0.37087	-0.679
Mof_O 	O 	0.00111	0.4321	0.62869	-0.586
Mof_O 	O 	0.8707	0.49992	0.43173	-0.631
Mof_O 	O 	0.12871	0.5006	0.4319	-0.634
Mof_O 	O 	0.1286	0.49941	0.56773	-0.629
Mof_O 	O 	0.87088	0.50199	0.56756	-0.635
Mof_O 	O 	0.93076	0.37155	0.4985	-0.655
Mof_O 	O 	0.06762	0.37137	0.50018	-0.616
Mof_Zr	Zr	0.91156	0.50065	0.49967	3.235
Mof_Zr	Zr	0.08784	0.50024	0.49977	3.234
Mof_Zr	Zr	0.99975	0.50038	0.41139	3.223
Mof_Zr	Zr	0.99966	0.50041	0.58816	3.222
Mof_Zr	Zr	0.99927	0.41193	0.49954	3.222
Mof_O 	O 	0.04461	0.45502	0.54489	-1.243
Mof_O 	O 	0.95424	0.45523	0.4543	-1.287
Mof_C 	C 	0.88442	0.38624	0.49793	0.492
Mof_C 	C 	0.11397	0.3859	0.50212	0.485
Mof_C 	C 	0.88503	0.49951	0.38537	0.488
Mof_C 	C 	0.88484	0.50421	0.61394	0.493
Mof_C 	C 	0.11431	0.49915	0.6141	0.483
Mof_C 	C 	0.11445	0.50075	0.38553	0.482
Mof_C 	C 	0.99653	0.38621	0.38453	0.5
Mof_C 	C 	0.00267	0.38576	0.61415	0.466
Mof_H 	H 	0.06558	0.43382	0.43362	0.324
Mof_O 	O 	0.04443	0.45526	0.4548	-1.462
Mof_H 	H 	0.93332	0.43438	0.56613	0.305
Mof_O 	O 	0.95461	0.45549	0.54476	-1.526
Mof_O 	O 	0.62842	0.06807	0.49619	-0.617
Mof_O 	O 	0.37083	0.06631	0.50189	-0.632
Mof_O 	O 	0.50133	0.12831	0.43097	-0.64
Mof_O 	O 	0.49682	0.1285	0.5666	-0.643
Mof_O 	O 	0.49979	0.06885	0.62799	-0.618
Mof_O 	O 	0.50138	0.06744	0.37032	-0.616
Mof_O 	O 	0.43027	0.1278	0.49933	-0.626
Mof_O 	O 	0.56743	0.1287	0.49781	-0.638
Mof_Zr	Zr	0.49925	0.08776	0.49899	3.234
Mof_O 	O 	0.45462	0.04467	0.54475	-1.249
Mof_O 	O 	0.54484	0.04488	0.4539	-1.252
Mof_C 	C 	0.61383	0.11437	0.49569	0.476
Mof_C 	C 	0.38395	0.11284	0.50063	0.483
Mof_C 	C 	0.50275	0.11378	0.38471	0.485
Mof_C 	C 	0.49826	0.11513	0.61309	0.489
Mof_H 	H 	0.43333	0.06526	0.43307	0.32
Mof_O 	O 	0.45455	0.04407	0.45441	-1.471
Mof_H 	H 	0.5661	0.0665	0.5648	0.319
Mof_O 	O 	0.5448	0.04492	0.54392	-1.469
Mof_O 	O 	0.37149	0.93047	0.499	-0.654
Mof_O 	O 	0.62889	0.93163	0.5008	-0.652
Mof_O 	O 	0.43138	0.99751	0.37062	-0.672
Mof_O 	O 	0.43237	0.00218	0.62888	-0.596
Mof_O 	O 	0.56895	0.99947	0.62816	-0.649
Mof_O 	O 	0.56789	0.00077	0.37034	-0.616
Mof_O 	O 	0.49712	0.87083	0.43103	-0.631
Mof_O 	O 	0.5032	0.87097	0.56789	-0.637
Mof_O 	O 	0.49899	0.93161	0.37074	-0.659
Mof_O 	O 	0.50264	0.93183	0.62867	-0.658
Mof_O 	O 	0.37083	0.99826	0.43177	-0.677
Mof_O 	O 	0.62871	2e-05	0.43112	-0.621
Mof_O 	O 	0.62922	0.99936	0.5669	-0.653
Mof_O 	O 	0.37166	0.00022	0.56821	-0.597
Mof_O 	O 	0.43262	0.8701	0.49958	-0.638
Mof_O 	O 	0.56824	0.87072	0.49951	-0.644
Mof_Zr	Zr	0.41185	0.99883	0.49982	3.225
Mof_Zr	Zr	0.58813	0.99979	0.49912	3.224
Mof_Zr	Zr	0.49971	0.99944	0.41114	3.225
Mof_Zr	Zr	0.50044	4e-05	0.58793	3.244
Mof_Zr	Zr	0.50026	0.91128	0.49957	3.235
Mof_O 	O 	0.54554	0.95459	0.54473	-1.286
Mof_O 	O 	0.4547	0.95387	0.45428	-1.285
Mof_C 	C 	0.38623	0.88421	0.49956	0.491
Mof_C 	C 	0.6145	0.88526	0.5	0.486
Mof_C 	C 	0.3851	0.99779	0.38533	0.498
Mof_C 	C 	0.38593	0.00262	0.61456	0.471
Mof_C 	C 	0.61522	0.99971	0.61336	0.373
Mof_C 	C 	0.61425	0.00027	0.38482	0.594
Mof_C 	C 	0.49677	0.8853	0.38457	0.493
Mof_C 	C 	0.50436	0.88544	0.61423	0.487
Mof_H 	H 	0.56586	0.93328	0.43305	0.303
Mof_O 	O 	0.54482	0.95464	0.4544	-1.526
Mof_H 	H 	0.43462	0.93332	0.56654	0.304
Mof_O 	O 	0.45557	0.95451	0.54493	-1.527
Mof_C 	C 	0.15386	0.15419	0.99637	-0.157
Mof_C 	C 	0.20463	0.14163	0.00154	0.061
Mof_C 	C 	0.2421	0.17831	0.00108	-0.085
Mof_C 	C 	0.23045	0.22916	0.99536	0.055
Mof_C 	C 	0.17988	0.24189	0.98972	-0.136
Mof_C 	C 	0.14186	0.20533	0.99005	0.224
Mof_C 	C 	0.27057	0.26879	0.9961	0.057
Mof_C 	C 	0.31259	0.26413	0.02718	-0.14
Mof_C 	C 	0.34942	0.30147	0.02976	0.228
Mof_C 	C 	0.34578	0.34475	0.99938	-0.181
Mof_C 	C 	0.30366	0.34948	0.96852	0.075
Mof_C 	C 	0.26678	0.31225	0.96685	-0.089
Mof_O 	O 	0.09219	0.21986	0.98397	-0.243
Mof_O 	O 	0.38745	0.29498	0.06479	-0.283
Mof_H 	H 	0.21565	0.10313	0.00626	0.057
Mof_H 	H 	0.28048	0.16657	0.0048	0.064
Mof_H 	H 	0.16954	0.28066	0.98593	0.076
Mof_H 	H 	0.31613	0.23209	0.0514	0.087
Mof_H 	H 	0.29961	0.3819	0.94485	0.043
Mof_H 	H 	0.23555	0.31731	0.94188	0.061
Mof_H 	H 	0.08745	0.25704	0.97946	0.161
Mof_H 	H 	0.40663	0.32621	0.07329	0.161
Mof_C 	C 	0.15391	0.65501	0.49672	-0.18
Mof_C 	C 	0.2048	0.64193	0.49852	0.066
Mof_C 	C 	0.24249	0.67836	0.49847	-0.087
Mof_C 	C 	0.23094	0.72948	0.49642	0.049
Mof_C 	C 	0.18029	0.74282	0.49438	-0.14
Mof_C 	C 	0.14203	0.70654	0.49454	0.222
Mof_C 	C 	0.27128	0.7688	0.49713	0.052
Mof_C 	C 	0.31446	0.76277	0.52632	-0.14
Mof_C 	C 	0.35147	0.79996	0.52902	0.23
Mof_C 	C 	0.34684	0.84437	0.50042	-0.199
Mof_C 	C 	0.30357	0.85033	0.47138	0.075
Mof_C 	C 	0.2665	0.81333	0.46978	-0.095
Mof_O 	O 	0.09226	0.7218	0.49259	-0.261
Mof_O 	O 	0.39068	0.79207	0.56243	-0.289
Mof_H 	H 	0.21577	0.60316	0.50011	0.041
Mof_H 	H 	0.28093	0.66628	0.4995	0.059
Mof_H 	H 	0.17014	0.78182	0.49359	0.07
Mof_H 	H 	0.31877	0.72974	0.54905	0.083
Mof_H 	H 	0.29868	0.88361	0.4491	0.028
Mof_H 	H 	0.23429	0.81941	0.44632	0.056
Mof_H 	H 	0.08764	0.75923	0.49104	0.156
Mof_H 	H 	0.40974	0.82304	0.57208	0.157
Mof_C 	C 	0.84524	0.84614	0.99578	-0.182
Mof_C 	C 	0.8499	0.80367	0.02603	0.062
Mof_C 	C 	0.81281	0.76669	0.02694	-0.094
Mof_C 	C 	0.76998	0.76986	0.99649	0.05
Mof_C 	C 	0.76583	0.81225	0.9655	-0.145
Mof_C 	C 	0.80255	0.85026	0.96532	0.223
Mof_C 	C 	0.73016	0.72942	0.99724	0.051
Mof_C 	C 	0.74165	0.68008	0.01122	-0.144
Mof_C 	C 	0.70486	0.64279	0.01498	0.231
Mof_C 	C 	0.6547	0.65282	0.0008	-0.198
Mof_C 	C 	0.64333	0.70205	0.98631	0.075
Mof_C 	C 	0.68001	0.7396	0.98514	-0.093
Mof_O 	O 	0.79755	0.8915	0.9339	-0.269
Mof_O 	O 	0.71976	0.59713	0.03509	-0.29
Mof_H 	H 	0.88199	0.79961	0.05015	0.025
Mof_H 	H 	0.8177	0.73599	0.05251	0.051
Mof_H 	H 	0.7344	0.81581	0.94058	0.065
Mof_H 	H 	0.77949	0.66994	0.0205	0.078
Mof_H 	H 	0.60567	0.7118	0.97566	0.036
Mof_H 	H 	0.66851	0.77687	0.97514	0.051
Mof_H 	H 	0.76603	0.89112	0.91313	0.134
Mof_H 	H 	0.69295	0.57967	0.05492	0.169
Mof_C 	C 	0.84402	0.34673	0.49742	-0.183
Mof_C 	C 	0.85646	0.29606	0.49089	0.066
Mof_C 	C 	0.81972	0.25858	0.49035	-0.092
Mof_C 	C 	0.76887	0.27006	0.49648	0.051
Mof_C 	C 	0.75622	0.32057	0.50306	-0.144
Mof_C 	C 	0.79283	0.35861	0.50363	0.223
Mof_C 	C 	0.72921	0.22983	0.49581	0.051
Mof_C 	C 	0.73334	0.18795	0.46439	-0.136
Mof_C 	C 	0.69606	0.15088	0.46245	0.235
Mof_C 	C 	0.65341	0.15414	0.49377	-0.195
Mof_C 	C 	0.64929	0.19612	0.52492	0.075
Mof_C 	C 	0.68634	0.23321	0.52595	-0.091
Mof_O 	O 	0.77832	0.40815	0.51072	-0.267
Mof_O 	O 	0.70205	0.11288	0.4273	-0.282
Mof_H 	H 	0.89496	0.28511	0.48607	0.027
Mof_H 	H 	0.83143	0.22029	0.48579	0.056
Mof_H 	H 	0.71745	0.33085	0.50709	0.071
Mof_H 	H 	0.76496	0.18464	0.4396	0.084
Mof_H 	H 	0.6176	0.19983	0.54953	0.02
Mof_H 	H 	0.68171	0.26421	0.55128	0.056
Mof_H 	H 	0.74111	0.41283	0.515	0.146
Mof_H 	H 	0.67088	0.09313	0.41995	0.178
Mof_C 	C 	0.84621	0.15488	0.00385	-0.174
Mof_C 	C 	0.7953	0.14198	0.00149	0.066
Mof_C 	C 	0.75772	0.17854	0.00135	-0.089
Mof_C 	C 	0.76937	0.22963	0.00371	0.051
Mof_C 	C 	0.82008	0.24278	0.00649	-0.144
Mof_C 	C 	0.85825	0.20634	0.00658	0.22
Mof_C 	C 	0.72905	0.26904	0.00256	0.046
Mof_C 	C 	0.68599	0.26291	0.97318	-0.133
Mof_C 	C 	0.64887	0.29999	0.97029	0.229
Mof_C 	C 	0.65322	0.34445	0.99885	-0.182
Mof_C 	C 	0.69642	0.35058	0.02798	0.068
Mof_C 	C 	0.73361	0.31368	0.02981	-0.088
Mof_O 	O 	0.90808	0.22132	0.00919	-0.272
Mof_O 	O 	0.60979	0.29191	0.93676	-0.284
Mof_H 	H 	0.78421	0.10326	0.99954	0.05
Mof_H 	H 	0.71926	0.16655	0.99988	0.062
Mof_H 	H 	0.83036	0.28174	0.0076	0.065
Mof_H 	H 	0.68184	0.22984	0.95048	0.083
Mof_H 	H 	0.70114	0.38389	0.05023	0.042
Mof_H 	H 	0.76569	0.3199	0.0534	0.053
Mof_H 	H 	0.91285	0.25872	0.01103	0.132
Mof_H 	H 	0.59059	0.3228	0.92708	0.161
Mof_C 	C 	0.84631	0.65562	0.50334	-0.187
Mof_C 	C 	0.79557	0.64305	0.49784	0.065
Mof_C 	C 	0.75811	0.67969	0.49791	-0.088
Mof_C 	C 	0.76971	0.73053	0.50359	0.048
Mof_C 	C 	0.82024	0.74331	0.50958	-0.146
Mof_C 	C 	0.85827	0.70676	0.50961	0.22
Mof_C 	C 	0.72956	0.77008	0.50258	0.051
Mof_C 	C 	0.68781	0.76544	0.47112	-0.139
Mof_C 	C 	0.65084	0.80264	0.46848	0.232
Mof_C 	C 	0.65409	0.84571	0.49918	-0.201
Mof_C 	C 	0.69598	0.85046	0.53034	0.076
Mof_C 	C 	0.733	0.81339	0.53207	-0.094
Mof_O 	O 	0.90791	0.72128	0.51602	-0.28
Mof_O 	O 	0.61304	0.79618	0.43319	-0.292
Mof_H 	H 	0.78456	0.60455	0.49315	0.04
Mof_H 	H 	0.71976	0.66793	0.49395	0.06
Mof_H 	H 	0.83053	0.7821	0.51337	0.061
Mof_H 	H 	0.68458	0.7335	0.44672	0.082
Mof_H 	H 	0.69973	0.88275	0.55424	0.024
Mof_H 	H 	0.76402	0.8184	0.5573	0.05
Mof_H 	H 	0.91262	0.75848	0.52041	0.126
Mof_H 	H 	0.59366	0.82733	0.42482	0.153
Mof_C 	C 	0.15386	0.34643	0.50323	-0.18
Mof_C 	C 	0.14521	0.29966	0.48123	0.071
Mof_C 	C 	0.18219	0.26258	0.48064	-0.084
Mof_C 	C 	0.22921	0.27037	0.50281	0.053
Mof_C 	C 	0.23779	0.31708	0.52528	-0.14
Mof_C 	C 	0.20092	0.35488	0.52554	0.227
Mof_C 	C 	0.26868	0.2299	0.50267	0.053
Mof_C 	C 	0.25527	0.17928	0.50355	-0.135
Mof_C 	C 	0.29083	0.14081	0.50081	0.232
Mof_C 	C 	0.34299	0.15206	0.50018	-0.189
Mof_C 	C 	0.35615	0.20306	0.50021	0.07
Mof_C 	C 	0.31993	0.24105	0.50096	-0.088
Mof_O 	O 	0.21042	0.4004	0.54904	-0.266
Mof_O 	O 	0.27167	0.09246	0.4986	-0.277
Mof_H 	H 	0.10985	0.29195	0.4634	0.046
Mof_H 	H 	0.17391	0.22791	0.46187	0.066
Mof_H 	H 	0.27298	0.32414	0.54362	0.071
Mof_H 	H 	0.21639	0.16888	0.50574	0.092
Mof_H 	H 	0.39495	0.214	0.49941	0.04
Mof_H 	H 	0.33238	0.27934	0.49958	0.059
Mof_H 	H 	0.24488	0.40287	0.56426	0.146
Mof_H 	H 	0.29058	0.0689	0.47638	0.186
Mof_C 	C 	0.15314	0.84504	0.00281	-0.176
Mof_C 	C 	0.15126	0.80514	0.969	0.077
Mof_C 	C 	0.18857	0.76832	0.96833	-0.081
Mof_C 	C 	0.22873	0.76921	0.00236	0.047
Mof_C 	C 	0.23002	0.80899	0.03679	-0.141
Mof_C 	C 	0.19307	0.84672	0.03698	0.225
Mof_C 	C 	0.26871	0.72903	0.00194	0.043
Mof_C 	C 	0.25834	0.6805	0.98473	-0.128
Mof_C 	C 	0.29543	0.64346	0.98164	0.226
Mof_C 	C 	0.34454	0.6529	0.99945	-0.176
Mof_C 	C 	0.3548	0.70135	0.01698	0.061
Mof_C 	C 	0.31791	0.7387	0.01776	-0.087
Mof_O 	O 	0.19488	0.8851	0.0721	-0.262
Mof_O 	O 	0.28208	0.59878	0.95848	-0.278
Mof_H 	H 	0.12127	0.80303	0.94209	0.041
Mof_H 	H 	0.18606	0.73957	0.94025	0.061
Mof_H 	H 	0.2593	0.81056	0.0644	0.067
Mof_H 	H 	0.2212	0.67091	0.97243	0.087
Mof_H 	H 	0.39169	0.71057	0.03041	0.033
Mof_H 	H 	0.32846	0.77546	0.03039	0.049
Mof_H 	H 	0.22439	0.8829	0.09554	0.142
Mof_H 	H 	0.3104	0.58179	0.94042	0.169
Mof_C 	C 	0.99809	0.15192	0.15577	-0.263
Mof_C 	C 	0.97603	0.19859	0.14671	0.069
Mof_C 	C 	0.97499	0.2358	0.18354	-0.072
Mof_C 	C 	0.99671	0.22819	0.23079	-0.064
Mof_C 	C 	0.01907	0.18152	0.23984	-0.041
Mof_C 	C 	0.01979	0.14361	0.20313	0.298
Mof_C 	C 	0.99641	0.26882	0.27004	0.114
Mof_C 	C 	0.99785	0.31942	0.25646	-0.285
Mof_C 	C 	0.99552	0.3579	0.29203	0.276
Mof_C 	C 	0.99468	0.34671	0.34406	-0.231
Mof_C 	C 	0.99384	0.29581	0.35743	0.09
Mof_C 	C 	0.99422	0.25777	0.3213	-0.139
Mof_O 	O 	0.04331	0.09818	0.21305	-0.254
Mof_O 	O 	0.99381	0.40645	0.27346	-0.33
Mof_H 	H 	0.95871	0.20618	0.11108	0.035
Mof_H 	H 	0.95635	0.27047	0.17494	0.037
Mof_H 	H 	0.03706	0.17462	0.27522	0.074
Mof_H 	H 	0.00023	0.32974	0.21757	0.192
Mof_H 	H 	0.99278	0.28503	0.39627	0.013
Mof_H 	H 	0.9923	0.21952	0.33382	0.049
Mof_H 	H 	0.05812	0.09585	0.24769	0.157
Mof_H 	H 	0.9688	0.4284	0.29098	0.168
Mof_C 	C 	0.49483	0.34573	0.84529	-0.184
Mof_C 	C 	0.51832	0.35371	0.79915	0.07
Mof_C 	C 	0.51883	0.31666	0.76217	-0.09
Mof_C 	C 	0.49506	0.27035	0.76947	0.053
Mof_C 	C 	0.47102	0.26253	0.81552	-0.143
Mof_C 	C 	0.47091	0.29943	0.85325	0.229
Mof_C 	C 	0.49536	0.23071	0.72926	0.051
Mof_C 	C 	0.49662	0.24379	0.67852	-0.14
Mof_C 	C 	0.49979	0.20777	0.64056	0.229
Mof_C 	C 	0.49851	0.15588	0.65227	-0.189
Mof_C 	C 	0.49631	0.143	0.70324	0.072
Mof_C 	C 	0.49528	0.17952	0.74088	-0.088
Mof_O 	O 	0.44599	0.29076	0.89818	-0.263
Mof_O 	O 	0.50507	0.22572	0.59202	-0.288
Mof_H 	H 	0.53742	0.3885	0.79195	0.029
Mof_H 	H 	0.53882	0.32428	0.72804	0.056
Mof_H 	H 	0.45143	0.22795	0.82214	0.074
Mof_H 	H 	0.49605	0.28262	0.66772	0.081
Mof_H 	H 	0.49562	0.10426	0.71439	0.045
Mof_H 	H 	0.49506	0.16733	0.77928	0.062
Mof_H 	H 	0.42969	0.25678	0.90033	0.15
Mof_H 	H 	0.53058	0.20693	0.57175	0.163
Mof_C 	C 	0.99543	0.84679	0.84515	-0.303
Mof_C 	C 	0.02661	0.85061	0.80331	0.177
Mof_C 	C 	0.02739	0.8133	0.7666	-0.032
Mof_C 	C 	0.99589	0.77123	0.76947	0.003
Mof_C 	C 	0.964	0.76794	0.81122	-0.162
Mof_C 	C 	0.96394	0.80483	0.84899	0.247
Mof_C 	C 	0.99652	0.73125	0.72936	-0.098
Mof_C 	C 	0.01122	0.74236	0.68019	0.029
Mof_C 	C 	0.01505	0.70535	0.64323	0.139
Mof_C 	C 	0.00012	0.65545	0.65337	0.05
Mof_C 	C 	0.98485	0.64447	0.70242	-0.124
Mof_C 	C 	0.98366	0.68134	0.73973	0.001
Mof_O 	O 	0.93177	0.80071	0.88977	-0.277
Mof_O 	O 	0.03616	0.7196	0.59787	-0.242
Mof_H 	H 	0.05157	0.88209	0.79962	0.011
Mof_H 	H 	0.05367	0.81737	0.73638	0.053
Mof_H 	H 	0.93834	0.73707	0.81445	0.069
Mof_H 	H 	0.0211	0.78004	0.66997	0.057
Mof_H 	H 	0.97362	0.60698	0.71219	0.067
Mof_H 	H 	0.97307	0.67021	0.77695	0.021
Mof_H 	H 	0.91033	0.76965	0.88922	0.141
Mof_H 	H 	0.05632	0.69241	0.58141	0.175
Mof_C 	C 	0.49781	0.65125	0.15575	-0.186
Mof_C 	C 	0.47406	0.69722	0.14748	0.071
Mof_C 	C 	0.47308	0.73433	0.1844	-0.093
Mof_C 	C 	0.49664	0.72736	0.23087	0.05
Mof_C 	C 	0.52068	0.68138	0.23909	-0.145
Mof_C 	C 	0.52128	0.64353	0.20233	0.225
Mof_C 	C 	0.49646	0.76795	0.27014	0.049
Mof_C 	C 	0.49556	0.81856	0.25657	-0.143
Mof_C 	C 	0.49315	0.85694	0.29222	0.23
Mof_C 	C 	0.49476	0.84573	0.34423	-0.197
Mof_C 	C 	0.4963	0.79486	0.35759	0.071
Mof_C 	C 	0.49665	0.75685	0.32145	-0.09
Mof_O 	O 	0.54642	0.5988	0.21136	-0.28
Mof_O 	O 	0.48865	0.90536	0.27375	-0.304
Mof_H 	H 	0.45536	0.70428	0.11244	0.03
Mof_H 	H 	0.45308	0.76839	0.17648	0.052
Mof_H 	H 	0.54009	0.675	0.27383	0.069
Mof_H 	H 	0.49605	0.82896	0.21763	0.075
Mof_H 	H 	0.49723	0.78409	0.39644	0.04
Mof_H 	H 	0.4966	0.71857	0.33402	0.058
Mof_H 	H 	0.56243	0.59686	0.24549	0.14
Mof_H 	H 	0.46425	0.92663	0.29288	0.164
Mof_C 	C 	0.00124	0.84351	0.15275	-0.084
Mof_C 	C 	0.0093	0.85587	0.20319	0.058
Mof_C 	C 	0.00961	0.81923	0.24064	-0.088
Mof_C 	C 	0.0017	0.76864	0.22931	0.125
Mof_C 	C 	0.99347	0.75605	0.17905	-0.223
Mof_C 	C 	0.99311	0.7926	0.14102	0.138
Mof_C 	C 	0.00238	0.72917	0.26951	0.122
Mof_C 	C 	0.0355	0.73238	0.31011	-0.136
Mof_C 	C 	0.03747	0.69523	0.34719	0.223
Mof_C 	C 	0.00451	0.65386	0.34528	-0.091
Mof_C 	C 	0.97174	0.65049	0.30449	-0.023
Mof_C 	C 	0.97064	0.68741	0.26733	-0.165
Mof_O 	O 	0.98426	0.77836	0.09169	-0.286
Mof_O 	O 	0.07437	0.69978	0.38365	-0.28
Mof_H 	H 	0.01556	0.89422	0.21397	0.041
Mof_H 	H 	0.01544	0.83082	0.27881	0.064
Mof_H 	H 	0.98798	0.7174	0.16898	0.068
Mof_H 	H 	0.06157	0.76306	0.3123	0.084
Mof_H 	H 	0.94613	0.61944	0.30177	0.028
Mof_H 	H 	0.94413	0.68356	0.23721	0.057
Mof_H 	H 	0.97853	0.74132	0.08716	0.13
Mof_H 	H 	0.08078	0.66843	0.40345	0.177
Mof_C 	C 	0.5027	0.65547	0.84691	-0.18
Mof_C 	C 	0.50397	0.6428	0.79588	0.064
Mof_C 	C 	0.50442	0.67954	0.75843	-0.09
Mof_C 	C 	0.50348	0.73064	0.77027	0.048
Mof_C 	C 	0.50231	0.74358	0.82112	-0.144
Mof_C 	C 	0.50198	0.70695	0.85916	0.22
Mof_C 	C 	0.50414	0.77025	0.73001	0.05
Mof_C 	C 	0.53198	0.7638	0.68597	-0.14
Mof_C 	C 	0.53418	0.80093	0.64878	0.235
Mof_C 	C 	0.50641	0.84582	0.65404	-0.201
Mof_C 	C 	0.47885	0.85225	0.69826	0.071
Mof_C 	C 	0.47778	0.81532	0.73549	-0.095
Mof_O 	O 	0.501	0.72178	0.9091	-0.273
Mof_O 	O 	0.56627	0.79243	0.60863	-0.291
Mof_H 	H 	0.5045	0.60409	0.78459	0.033
Mof_H 	H 	0.50477	0.66768	0.7199	0.057
Mof_H 	H 	0.50247	0.78251	0.83157	0.064
Mof_H 	H 	0.55399	0.73039	0.681	0.082
Mof_H 	H 	0.45715	0.88582	0.70374	0.015
Mof_H 	H 	0.45534	0.82183	0.76834	0.051
Mof_H 	H 	0.50058	0.7592	0.91403	0.136
Mof_H 	H 	0.57602	0.82332	0.5895	0.175
Mof_C 	C 	0.50248	0.34292	0.1526	-0.182
Mof_C 	C 	0.50199	0.35567	0.2036	0.068
Mof_C 	C 	0.50209	0.31899	0.241	-0.091
Mof_C 	C 	0.50248	0.26796	0.22902	0.052
Mof_C 	C 	0.50299	0.2549	0.17825	-0.142
Mof_C 	C 	0.50315	0.29147	0.14026	0.227
Mof_C 	C 	0.50293	0.22852	0.26916	0.051
Mof_C 	C 	0.53057	0.23514	0.31324	-0.139
Mof_C 	C 	0.53269	0.19806	0.35036	0.234
Mof_C 	C 	0.5049	0.15324	0.34497	-0.193
Mof_C 	C 	0.47754	0.14665	0.30069	0.074
Mof_C 	C 	0.47664	0.18348	0.26345	-0.09
Mof_O 	O 	0.50422	0.27665	0.09032	-0.264
Mof_O 	O 	0.56474	0.20649	0.39054	-0.291
Mof_H 	H 	0.50137	0.39438	0.2149	0.034
Mof_H 	H 	0.50116	0.33077	0.27954	0.058
Mof_H 	H 	0.50418	0.21596	0.16788	0.075
Mof_H 	H 	0.55251	0.2686	0.31823	0.083
Mof_H 	H 	0.45591	0.11304	0.29515	0.04
Mof_H 	H 	0.45445	0.17697	0.23043	0.063
Mof_H 	H 	0.5045	0.23923	0.08537	0.151
Mof_H 	H 	0.57471	0.17549	0.40936	0.173
Mof_C 	C 	0.00254	0.15607	0.84715	-0.071
Mof_C 	C 	0.00598	0.14346	0.79622	0.056
Mof_C 	C 	0.00613	0.18017	0.75875	-0.08
Mof_C 	C 	0.00281	0.23121	0.77047	0.123
Mof_C 	C 	0.99944	0.24408	0.82125	-0.218
Mof_C 	C 	0.99923	0.20746	0.85931	0.136
Mof_C 	C 	0.0032	0.27078	0.73014	0.124
Mof_C 	C 	0.03204	0.26501	0.68664	-0.135
Mof_C 	C 	0.03382	0.30202	0.64932	0.223
Mof_C 	C 	0.00476	0.34614	0.65394	-0.093
Mof_C 	C 	0.97626	0.35197	0.69763	-0.024
Mof_C 	C 	0.97547	0.31511	0.73495	-0.165
Mof_O 	O 	0.99557	0.22219	0.90915	-0.276
Mof_O 	O 	0.06675	0.29425	0.60971	-0.278
Mof_H 	H 	0.00848	0.10481	0.78501	0.062
Mof_H 	H 	0.00814	0.16828	0.72029	0.074
Mof_H 	H 	0.99768	0.28297	0.83169	0.064
Mof_H 	H 	0.05511	0.23224	0.68217	0.09
Mof_H 	H 	0.95363	0.385	0.70262	0.026
Mof_H 	H 	0.9522	0.3211	0.76731	0.056
Mof_H 	H 	0.99331	0.25955	0.91405	0.126
Mof_H 	H 	0.07548	0.3252	0.59021	0.174
Mof_C 	C 	0.15492	0.99607	0.15417	-0.164
Mof_C 	C 	0.14216	0.99971	0.20507	0.002
Mof_C 	C 	0.17883	0.99983	0.24261	-0.173
Mof_C 	C 	0.22971	0.99536	0.23088	0.084
Mof_C 	C 	0.24278	0.9914	0.18032	-0.163
Mof_C 	C 	0.20635	0.99235	0.14215	0.217
Mof_C 	C 	0.26918	0.99584	0.27095	-0.042
Mof_C 	C 	0.26757	0.03081	0.30997	-0.059
Mof_C 	C 	0.30546	0.03333	0.34631	0.297
Mof_C 	C 	0.34533	0.99846	0.34587	-0.278
Mof_C 	C 	0.34679	0.96353	0.30678	0.081
Mof_C 	C 	0.30964	0.96247	0.26975	-0.082
Mof_O 	O 	0.22136	0.98999	0.09231	-0.272
Mof_O 	O 	0.30346	0.07275	0.38027	-0.296
Mof_H 	H 	0.10352	0.00285	0.21614	0.115
Mof_H 	H 	0.16723	0.00283	0.28112	0.131
Mof_H 	H 	0.28175	0.9887	0.17028	0.063
Mof_H 	H 	0.23777	0.05797	0.31111	0.081
Mof_H 	H 	0.3765	0.93637	0.30523	0.018
Mof_H 	H 	0.31216	0.93486	0.24048	0.049
Mof_H 	H 	0.25872	0.98736	0.08759	0.129
Mof_H 	H 	0.33546	0.07879	0.39918	0.162
Mof_C 	C 	0.34435	0.49581	0.8461	-0.182
Mof_C 	C 	0.3569	0.50123	0.79535	0.068
Mof_C 	C 	0.32026	0.50103	0.75785	-0.091
Mof_C 	C 	0.26938	0.49537	0.7694	0.052
Mof_C 	C 	0.25663	0.48952	0.81997	-0.143
Mof_C 	C 	0.29319	0.48956	0.85804	0.224
Mof_C 	C 	0.22981	0.49629	0.72916	0.051
Mof_C 	C 	0.23473	0.52726	0.68705	-0.136
Mof_C 	C 	0.19753	0.5299	0.65004	0.231
Mof_C 	C 	0.1541	0.49972	0.65357	-0.185
Mof_C 	C 	0.14913	0.46897	0.69577	0.077
Mof_C 	C 	0.18622	0.46723	0.73281	-0.087
Mof_O 	O 	0.27865	0.48326	0.90767	-0.269
Mof_O 	O 	0.20437	0.56479	0.61193	-0.29
Mof_H 	H 	0.39541	0.50589	0.78433	0.033
Mof_H 	H 	0.33206	0.50487	0.7195	0.057
Mof_H 	H 	0.21785	0.48576	0.83028	0.075
Mof_H 	H 	0.26687	0.55135	0.68357	0.082
Mof_H 	H 	0.1166	0.44544	0.69977	0.041
Mof_H 	H 	0.18095	0.44233	0.76406	0.061
Mof_H 	H 	0.24145	0.47894	0.91238	0.15
Mof_H 	H 	0.17328	0.57342	0.59258	0.158
Mof_C 	C 	0.84497	0.99802	0.84563	-0.194
Mof_C 	C 	0.85789	0.99577	0.79471	0.073
Mof_C 	C 	0.82132	0.99543	0.75711	-0.136
Mof_C 	C 	0.77021	0.99702	0.76878	0.113
Mof_C 	C 	0.75701	0.99908	0.81949	-0.255
Mof_C 	C 	0.79345	0.99983	0.85764	0.189
Mof_C 	C 	0.73084	0.99752	0.72845	-0.112
Mof_C 	C 	0.73802	0.02436	0.68396	0.023
Mof_C 	C 	0.70082	0.02713	0.64694	0.142
Mof_C 	C 	0.65522	0.00064	0.65276	0.016
Mof_C 	C 	0.64818	0.97386	0.69735	-0.102
Mof_C 	C 	0.68514	0.97244	0.73452	0.001
Mof_O 	O 	0.7784	0.00297	0.90743	-0.197
Mof_O 	O 	0.70997	0.05867	0.60648	-0.255
Mof_H 	H 	0.89663	0.99425	0.78364	0.004
Mof_H 	H 	0.83323	0.99332	0.71865	0.041
Mof_H 	H 	0.71806	0.00124	0.82964	0.153
Mof_H 	H 	0.77203	0.04538	0.67863	0.06
Mof_H 	H 	0.61402	0.95324	0.70329	0.064
Mof_H 	H 	0.67812	0.9509	0.76786	0.017
Mof_H 	H 	0.74097	0.00404	0.91217	0.15
Mof_H 	H 	0.67921	0.06981	0.58789	0.164
Mof_C 	C 	0.6549	0.49453	0.15349	-0.179
Mof_C 	C 	0.64236	0.50065	0.20417	0.065
Mof_C 	C 	0.67903	0.50105	0.24166	-0.09
Mof_C 	C 	0.72987	0.49507	0.23017	0.048
Mof_C 	C 	0.7426	0.48843	0.1797	-0.143
Mof_C 	C 	0.70604	0.48807	0.14163	0.219
Mof_C 	C 	0.76944	0.49631	0.27037	0.05
Mof_C 	C 	0.76519	0.52844	0.31167	-0.14
Mof_C 	C 	0.80247	0.53121	0.34863	0.23
Mof_C 	C 	0.84523	0.5	0.34587	-0.199
Mof_C 	C 	0.84942	0.46801	0.30453	0.075
Mof_C 	C 	0.81235	0.4662	0.26748	-0.095
Mof_O 	O 	0.72056	0.48113	0.09208	-0.272
Mof_O 	O 	0.7964	0.56708	0.38594	-0.293
Mof_H 	H 	0.60386	0.50546	0.21513	0.039
Mof_H 	H 	0.66729	0.50555	0.27996	0.056
Mof_H 	H 	0.78138	0.48435	0.16948	0.065
Mof_H 	H 	0.7335	0.55321	0.31454	0.08
Mof_H 	H 	0.88119	0.44345	0.30128	0.022
Mof_H 	H 	0.81703	0.44039	0.23689	0.054
Mof_H 	H 	0.75775	0.4767	0.08741	0.14
Mof_H 	H 	0.82751	0.57494	0.40558	0.152
Mof_C 	C 	0.15471	0.001	0.84678	-0.121
Mof_C 	C 	0.15105	0.03259	0.80523	0.075
Mof_C 	C 	0.18847	0.03365	0.76856	-0.09
Mof_C 	C 	0.2305	0.00201	0.77113	0.117
Mof_C 	C 	0.23362	0.96978	0.81264	-0.211
Mof_C 	C 	0.19667	0.96944	0.85036	0.17
Mof_C 	C 	0.27047	0.00257	0.73089	0.11
Mof_C 	C 	0.25958	0.0181	0.68189	-0.134
Mof_C 	C 	0.29654	0.02124	0.64477	0.225
Mof_C 	C 	0.34604	0.00489	0.65443	-0.107
Mof_C 	C 	0.3569	0.98908	0.70334	-0.012
Mof_C 	C 	0.32017	0.98851	0.74086	-0.152
Mof_O 	O 	0.20064	0.93677	0.89075	-0.278
Mof_O 	O 	0.28276	0.04319	0.5997	-0.268
Mof_H 	H 	0.11952	0.05751	0.80165	0.04
Mof_H 	H 	0.18444	0.06018	0.73856	0.065
Mof_H 	H 	0.26435	0.94395	0.81568	0.073
Mof_H 	H 	0.22214	0.02906	0.67191	0.094
Mof_H 	H 	0.39413	0.97677	0.71279	0.025
Mof_H 	H 	0.33128	0.97731	0.7779	0.051
Mof_H 	H 	0.23168	0.9153	0.89003	0.14
Mof_H 	H 	0.31085	0.06175	0.58293	0.18
Mof_C 	C 	0.34483	0.5025	0.15397	-0.178
Mof_C 	C 	0.3574	0.49767	0.20477	0.067
Mof_C 	C 	0.32072	0.49804	0.24225	-0.09
Mof_C 	C 	0.26982	0.50332	0.23059	0.053
Mof_C 	C 	0.25706	0.50855	0.17998	-0.142
Mof_C 	C 	0.29363	0.5083	0.14194	0.226
Mof_C 	C 	0.23019	0.50267	0.27075	0.052
Mof_C 	C 	0.23501	0.47202	0.31308	-0.135
Mof_C 	C 	0.1977	0.46961	0.34999	0.232
Mof_C 	C 	0.15427	0.49976	0.34611	-0.185
Mof_C 	C 	0.14938	0.53017	0.30366	0.078
Mof_C 	C 	0.18657	0.53165	0.26673	-0.087
Mof_O 	O 	0.27902	0.51389	0.09224	-0.264
Mof_O 	O 	0.20446	0.43501	0.38839	-0.285
Mof_H 	H 	0.39593	0.49335	0.21583	0.035
Mof_H 	H 	0.33249	0.49464	0.28065	0.058
Mof_H 	H 	0.21826	0.51197	0.16961	0.077
Mof_H 	H 	0.26719	0.44801	0.31683	0.083
Mof_H 	H 	0.11685	0.55365	0.29938	0.042
Mof_H 	H 	0.18137	0.55631	0.23527	0.063
Mof_H 	H 	0.2418	0.51796	0.08748	0.151
Mof_H 	H 	0.17331	0.42645	0.40769	0.163
Mof_C 	C 	0.84467	0.00326	0.15354	-0.092
Mof_C 	C 	0.85701	0.99674	0.2042	-0.026
Mof_C 	C 	0.82028	0.99697	0.24161	-0.15
Mof_C 	C 	0.76956	0.00379	0.23002	0.093
Mof_C 	C 	0.75704	0.01082	0.17955	-0.131
Mof_C 	C 	0.79368	0.01075	0.14159	0.213
Mof_C 	C 	0.72986	0.00285	0.27009	0.176
Mof_C 	C 	0.73401	0.97092	0.31155	-0.28
Mof_C 	C 	0.69669	0.96835	0.34841	0.311
Mof_C 	C 	0.65392	0.99949	0.34533	-0.402
Mof_C 	C 	0.64967	0.03117	0.30377	0.243
Mof_C 	C 	0.6869	0.03289	0.26689	-0.17
Mof_O 	O 	0.77941	0.01833	0.09205	-0.255
Mof_O 	O 	0.7027	0.93267	0.38593	-0.323
Mof_H 	H 	0.8954	0.99112	0.21519	0.015
Mof_H 	H 	0.83189	0.99221	0.27991	0.042
Mof_H 	H 	0.71836	0.01552	0.16922	0.076
Mof_H 	H 	0.76565	0.94612	0.31463	0.098
Mof_H 	H 	0.61765	0.05546	0.3002	-0.001
Mof_H 	H 	0.68225	0.05853	0.23614	0.082
Mof_H 	H 	0.74233	0.02361	0.08734	0.15
Mof_H 	H 	0.6715	0.92469	0.40539	0.152
Mof_C 	C 	0.65374	0.50133	0.84599	-0.185
Mof_C 	C 	0.6489	0.53173	0.80366	0.071
Mof_C 	C 	0.68616	0.53311	0.76683	-0.091
Mof_C 	C 	0.72925	0.50305	0.77016	0.049
Mof_C 	C 	0.73357	0.47197	0.81241	-0.144
Mof_C 	C 	0.69673	0.47127	0.8502	0.224
Mof_C 	C 	0.76916	0.50402	0.72994	0.05
Mof_C 	C 	0.75764	0.51712	0.68039	-0.142
Mof_C 	C 	0.79445	0.52038	0.64311	0.235
Mof_C 	C 	0.84468	0.50667	0.65352	-0.199
Mof_C 	C 	0.8561	0.49338	0.70306	0.07
Mof_C 	C 	0.81938	0.49266	0.74051	-0.095
Mof_O 	O 	0.70189	0.43968	0.89132	-0.278
Mof_O 	O 	0.77949	0.53933	0.59701	-0.291
Mof_H 	H 	0.61654	0.55547	0.79954	0.031
Mof_H 	H 	0.68119	0.55864	0.7361	0.056
Mof_H 	H 	0.7652	0.44731	0.81598	0.066
Mof_H 	H 	0.71972	0.52593	0.67006	0.082
Mof_H 	H 	0.89379	0.48314	0.71311	0.018
Mof_H 	H 	0.83086	0.48345	0.778	0.05
Mof_H 	H 	0.73363	0.41926	0.89101	0.142
Mof_H 	H 	0.80618	0.55907	0.57929	0.174
_end
