data_functionalizedCrystal
_audit_creation_method	'EQeq! by Chris Wilmer'
_symmetry_space_group_name_H-M	'P1'
_symmetry_Int_Tables_number	1
_symmetry_cell_setting	triclinic
loop_
_symmetry_equiv_pos_as_xyz
  x,y,z
_cell_length_a	28.833
_cell_length_b	41.687
_cell_length_c	30.561
_cell_angle_alpha	90
_cell_angle_beta	90
_cell_angle_gamma	90
loop_
_atom_site_label
_atom_site_type_symbol
_atom_site_fract_x
_atom_site_fract_y
_atom_site_fract_z
_atom_site_charge
Mof_Zn	Zn	0.56934	0.85402	0.83102	1.225
Mof_Zn	Zn	0.48159	0.85205	0.88989	1.213
Mof_Zn	Zn	0.51554	0.63621	0.32286	1.235
Mof_Zn	Zn	0.5038	0.91241	0.83133	1.228
Mof_Zn	Zn	0.47853	0.59247	0.23439	1.237
Mof_Zn	Zn	0.46905	0.84815	0.78641	1.206
Mof_H 	H 	0.6856	0.9027	0.7741	0.041
Mof_H 	H 	0.7386	0.9363	0.7399	0.079
Mof_H 	H 	0.6341	0.9813	0.6783	0.086
Mof_H 	H 	0.5811	0.9478	0.7125	0.04
Mof_H 	H 	0.7577	0.9999	0.7284	0.046
Mof_H 	H 	0.7443	0.0034	0.4371	0.05
Mof_H 	H 	0.6675	0.0071	0.4186	0.063
Mof_H 	H 	0.6075	0.0344	0.3842	0.05
Mof_H 	H 	0.6126	0.1026	0.4769	0.053
Mof_H 	H 	0.6725	0.0754	0.5113	0.063
Mof_H 	H 	0.5475	0.6475	0.1476	0.02
Mof_H 	H 	0.5954	0.6723	0.0969	0.091
Mof_H 	H 	0.6696	0.7112	0.1948	0.097
Mof_H 	H 	0.6216	0.6864	0.2455	0.026
Mof_H 	H 	0.6108	0.7283	0.076	0.044
Mof_H 	H 	0.417	0.7655	0.9156	0.046
Mof_H 	H 	0.3843	0.715	0.924	0.069
Mof_H 	H 	0.3383	0.7182	0.8	0.07
Mof_H 	H 	0.371	0.7687	0.7916	0.044
Mof_H 	H 	0.2745	0.6901	0.8395	0.046
Mof_H 	H 	0.4362	0.5318	0.9596	0.05
Mof_H 	H 	0.8174	0.0764	0.6607	0.068
Mof_H 	H 	0.8739	0.1055	0.6975	0.045
Mof_H 	H 	0.8958	0.0306	0.7777	0.043
Mof_H 	H 	0.8393	0.0015	0.7409	0.069
Mof_H 	H 	0.8547	0.014	0.4415	0.075
Mof_H 	H 	0.9124	0.9894	0.4005	0.041
Mof_H 	H 	0.8563	0.9032	0.4264	0.043
Mof_H 	H 	0.7987	0.9278	0.4674	0.081
Mof_H 	H 	0.9746	0.8034	0.1645	0.041
Mof_H 	H 	0.9354	0.7753	0.1104	0.07
Mof_H 	H 	0.837	0.751	0.1974	0.071
Mof_H 	H 	0.8762	0.7791	0.2515	0.041
Mof_H 	H 	0.9149	0.7343	0.0769	0.042
Mof_H 	H 	0.6892	0.7608	0.9613	0.071
Mof_H 	H 	0.6483	0.7907	0.9102	0.041
Mof_H 	H 	0.5473	0.8056	0.9985	0.043
Mof_H 	H 	0.5882	0.7757	0.0496	0.069
Mof_H 	H 	0.1954	0.6783	0.8715	0.087
Mof_H 	H 	0.1198	0.671	0.8475	0.026
Mof_H 	H 	0.1589	0.5915	0.783	0.027
Mof_H 	H 	0.2345	0.5988	0.8071	0.098
Mof_H 	H 	0.4653	0.4975	0.7837	0.035
Mof_H 	H 	0.4369	0.5419	0.8209	0.081
Mof_H 	H 	0.4124	0.4869	0.9263	0.086
Mof_H 	H 	0.4408	0.4425	0.8892	0.03
Mof_H 	H 	0.858	0.7215	0.9633	0.085
Mof_H 	H 	0.9064	0.6976	0.9121	0.019
Mof_H 	H 	0.9671	0.6464	0.0077	0.026
Mof_H 	H 	0.9187	0.6703	0.0588	0.096
Mof_H 	H 	0.0095	0.6206	0.9115	0.235
Mof_H 	H 	0.3651	0.5941	0.0448	0.067
Mof_H 	H 	0.3964	0.5908	0.1156	0.051
Mof_H 	H 	0.5202	0.5517	0.075	0.054
Mof_H 	H 	0.4887	0.56	0.0047	0.063
Mof_H 	H 	0.5317	0.578	0.1743	0.208
Mof_C 	C 	0.6281	0.9219	0.7467	-0.068
Mof_C 	C 	0.6753	0.9185	0.7549	0.031
Mof_C 	C 	0.707	0.9386	0.7344	-0.123
Mof_C 	C 	0.6916	0.9622	0.7057	0.098
Mof_C 	C 	0.6444	0.9656	0.6975	-0.117
Mof_C 	C 	0.6127	0.9455	0.718	0.03
Mof_C 	C 	0.723	0.981	0.6769	-0.067
Mof_C 	C 	0.7201	0.9812	0.6315	0.149
Mof_C 	C 	0.75	0.0004	0.6072	-0.03
Mof_C 	C 	0.7827	0.0194	0.6283	-0.02
Mof_C 	C 	0.7856	0.0192	0.6737	-0.013
Mof_C 	C 	0.7558	5.49772e-33	0.698	-0.036
Mof_C 	C 	0.7512	0.0019	0.5583	-0.023
Mof_C 	C 	0.7844	0.986	0.5335	0.135
Mof_C 	C 	0.7818	0.9866	0.4881	-0.06
Mof_C 	C 	0.746	0.003	0.4675	-0.047
Mof_C 	C 	0.7128	0.0189	0.4923	-0.002
Mof_C 	C 	0.7154	0.0184	0.5377	-0.04
Mof_C 	C 	0.6759	0.0386	0.4684	0.043
Mof_C 	C 	0.6565	0.02629	0.4303	-0.087
Mof_C 	C 	0.6206	0.0426	0.4097	-0.005
Mof_C 	C 	0.6041	0.0712	0.4271	-0.042
Mof_C 	C 	0.6236	0.0835	0.4652	-0.006
Mof_C 	C 	0.6595	0.0672	0.4858	-0.087
Mof_C 	C 	0.5798	0.6645	0.2016	-0.118
Mof_C 	C 	0.5719	0.6602	0.1571	0.065
Mof_C 	C 	0.6007	0.6751	0.1267	-0.153
Mof_C 	C 	0.6372	0.6942	0.1408	0.124
Mof_C 	C 	0.6451	0.69842	0.1853	-0.145
Mof_C 	C 	0.6164	0.6835	0.2157	0.061
Mof_C 	C 	0.6659	0.711	0.1093	-0.073
Mof_C 	C 	0.643	0.7284	0.0771	-0.033
Mof_C 	C 	0.6683	0.746	0.0467	-0.011
Mof_C 	C 	0.7164	0.7461	0.0484	-0.019
Mof_C 	C 	0.7394	0.7286	0.0805	-0.029
Mof_C 	C 	0.7141	0.7111	0.111	0.147
Mof_C 	C 	0.3972	0.77206	0.8528	-0.065
Mof_C 	C 	0.4012	0.756	0.8924	0.013
Mof_C 	C 	0.3817	0.7257	0.8975	-0.102
Mof_C 	C 	0.3581	0.71157	0.8628	0.056
Mof_C 	C 	0.3541	0.7277	0.8232	-0.102
Mof_C 	C 	0.3736	0.7579	0.8181	0.014
Mof_C 	C 	0.3367	0.67898	0.866	-0.012
Mof_C 	C 	0.3622	0.6542	0.8847	-0.029
Mof_C 	C 	0.3424	0.624	0.8895	-0.025
Mof_C 	C 	0.2972	0.61854	0.8755	0.147
Mof_C 	C 	0.2718	0.6433	0.8568	-0.074
Mof_C 	C 	0.2915	0.67353	0.852	-0.034
Mof_C 	C 	0.382	0.59989	0.9539	-0.034
Mof_C 	C 	0.4071	0.57489	0.9724	-0.001
Mof_C 	C 	0.4194	0.54849	0.9472	-0.044
Mof_C 	C 	0.4065	0.54709	0.9034	-0.059
Mof_C 	C 	0.3814	0.5721	0.8849	0.131
Mof_C 	C 	0.3691	0.59849	0.9101	-0.015
Mof_C 	C 	0.8228	0.0361	0.6972	0.058
Mof_C 	C 	0.8331	0.0672	0.6841	-0.101
Mof_C 	C 	0.867	0.08462	0.7062	0.012
Mof_C 	C 	0.8904	0.0709	0.7412	-0.06
Mof_C 	C 	0.8801	0.0398	0.7542	0.013
Mof_C 	C 	0.8462	0.02235	0.7322	-0.101
Mof_C 	C 	0.821	0.9733	0.4585	0.081
Mof_C 	C 	0.855	0.9918	0.4385	-0.118
Mof_C 	C 	0.8896	0.9771	0.4139	0.018
Mof_C 	C 	0.8901	0.9439	0.4094	-0.06
Mof_C 	C 	0.856	0.92545	0.4294	0.02
Mof_C 	C 	0.8215	0.9402	0.454	-0.112
Mof_C 	C 	0.9293	0.794	0.2133	-0.066
Mof_C 	C 	0.947	0.7929	0.1711	0.014
Mof_C 	C 	0.9235	0.776	0.1387	-0.104
Mof_C 	C 	0.8823	0.76033	0.1485	0.064
Mof_C 	C 	0.8646	0.76147	0.1908	-0.106
Mof_C 	C 	0.8881	0.7783	0.2232	0.017
Mof_C 	C 	0.7865	0.7291	0.0814	-0.03
Mof_C 	C 	0.8104	0.71561	0.0464	0.139
Mof_C 	C 	0.8585	0.71756	0.0448	-0.09
Mof_C 	C 	0.8827	0.733	0.078	-0.024
Mof_C 	C 	0.8588	0.74643	0.113	-0.02
Mof_C 	C 	0.8107	0.74448	0.1147	-0.029
Mof_C 	C 	0.6428	0.7653	0.0105	0.058
Mof_C 	C 	0.6608	0.76979	0.9688	-0.104
Mof_C 	C 	0.6363	0.7877	0.9381	0.019
Mof_C 	C 	0.5937	0.8011	0.9493	-0.071
Mof_C 	C 	0.5757	0.7966	0.991	0.017
Mof_C 	C 	0.6003	0.7787	0.0216	-0.103
Mof_C 	C 	0.2224	0.6393	0.8417	0.107
Mof_C 	C 	0.1881	0.6609	0.8538	-0.148
Mof_C 	C 	0.1428	0.65652	0.8394	0.06
Mof_C 	C 	0.1319	0.6305	0.8129	-0.118
Mof_C 	C 	0.1662	0.60886	0.8008	0.065
Mof_C 	C 	0.2115	0.61324	0.8152	-0.159
Mof_C 	C 	0.4559	0.46564	0.8327	-0.102
Mof_C 	C 	0.4547	0.4954	0.81227	0.044
Mof_C 	C 	0.4376	0.52199	0.8346	-0.125
Mof_C 	C 	0.4218	0.5188	0.8773	0.103
Mof_C 	C 	0.423	0.489	0.8977	-0.135
Mof_C 	C 	0.44	0.46245	0.8755	0.05
Mof_C 	C 	0.8836	0.6983	0.0161	0.133
Mof_C 	C 	0.8799	0.7065	0.9722	-0.154
Mof_C 	C 	0.9089	0.6921	0.9415	0.069
Mof_C 	C 	0.9416	0.6697	0.9548	-0.134
Mof_C 	C 	0.9453	0.6615	0.9988	0.081
Mof_C 	C 	0.9163	0.6758	0.0294	-0.165
Mof_C 	C 	0.9217	0.0903	0.7664	0.225
Mof_C 	C 	0.5943	0.9035	0.7705	0.224
Mof_C 	C 	0.9475	0.8186	0.2419	0.231
Mof_C 	C 	0.5532	0.6488	0.2343	0.268
Mof_C 	C 	0.9315	0.9287	0.3923	0.218
Mof_C 	C 	0.0845	0.6252	0.8003	0.285
Mof_C 	C 	0.4725	0.4385	0.8086	0.269
Mof_C 	C 	0.4207	0.802	0.8473	0.227
Mof_C 	C 	0.5651	0.0887	0.407	0.205
Mof_C 	C 	0.564	0.8151	0.9167	0.245
Mof_C 	C 	0.9637	0.6529	0.9205	0.305
Mof_C 	C 	0.4591	0.5711	0.1029	-0.058
Mof_C 	C 	0.4242	0.5757	0.0158	0.04
Mof_C 	C 	0.3948	0.5862	0.0498	-0.086
Mof_C 	C 	0.4145	0.5836	0.0923	-0
Mof_C 	C 	0.4909	0.5603	0.0701	-0.002
Mof_C 	C 	0.4695	0.5649	0.0282	-0.079
Mof_C 	C 	0.4737	0.5742	0.1478	0.252
Mof_O 	O 	0.5084	0.86523	0.8346	-0.948
Mof_O 	O 	0.8212	0.972	0.5532	-0.247
Mof_O 	O 	0.934	0.8172	0.2866	-0.398
Mof_O 	O 	0.6891	0.9643	0.6087	-0.254
Mof_O 	O 	0.9952	0.8249	0.2421	-0.408
Mof_O 	O 	0.7336	0.6921	0.1416	-0.255
Mof_O 	O 	0.5862	0.8234	0.877	-0.415
Mof_O 	O 	0.7883	0.7013	0.0113	-0.245
Mof_O 	O 	0.5249	0.83336	0.9289	-0.428
Mof_O 	O 	0.2728	0.591	0.8828	-0.243
Mof_O 	O 	0.5187	0.6252	0.222	-0.476
Mof_O 	O 	0.3705	0.5702	0.8406	-0.236
Mof_O 	O 	0.5525	0.6574	0.279	-0.42
Mof_O 	O 	0.4755	0.40818	0.8296	-0.455
Mof_O 	O 	0.4905	0.44126	0.7657	-0.422
Mof_O 	O 	0.4404	0.8147	0.8856	-0.42
Mof_O 	O 	0.4271	0.81379	0.8042	-0.423
Mof_O 	O 	0.0488	0.64327	0.8199	-0.45
Mof_O 	O 	0.0735	0.60224	0.7693	-0.442
Mof_O 	O 	0.9552	0.9421	0.3564	-0.39
Mof_O 	O 	0.9266	0.8955	0.3861	-0.373
Mof_O 	O 	0.5481	0.0761	0.3667	-0.428
Mof_O 	O 	0.5576	0.1201	0.4231	-0.423
Mof_O 	O 	0.5513	0.9175	0.7804	-0.378
Mof_O 	O 	0.6135	0.8798	0.7984	-0.407
Mof_O 	O 	0.9595	0.07286	0.784	-0.375
Mof_O 	O 	0.929	0.12252	0.7553	-0.428
Mof_O 	O 	0.9606	0.6544	0.876	-0.43
Mof_O 	O 	0.9986	0.6291	0.9334	-0.408
Mof_O 	O 	0.4457	0.584	0.1812	-0.41
Mof_O 	O 	0.5207	0.5657	0.1561	-0.41
Mof_H 	H 	0.85377	0.9821	0.53959	0.117
Mof_H 	H 	0.68028	0.97737	0.57816	0.119
Mof_H 	H 	0.77192	0.69431	0.13987	0.121
Mof_H 	H 	0.79934	0.71317	0.9805	0.109
Mof_H 	H 	0.23681	0.59396	0.87056	0.121
Mof_H 	H 	0.40188	0.57554	0.82085	0.108
Mof_H 	H 	0.3993	0.65867	0.89607	0.039
Mof_H 	H 	0.12802	0.62155	0.47463	0.041
Mof_H 	H 	0.80716	0.03516	0.60837	0.04
Mof_H 	H 	0.6882	0.03151	0.55804	0.038
Mof_H 	H 	0.73711	0.76054	0.02346	0.04
Mof_H 	H 	0.79109	0.75549	0.1434	0.038
Mof_Zn	Zn	0.43066	0.14598	0.33102	1.225
Mof_Zn	Zn	0.51841	0.14795	0.38989	1.213
Mof_Zn	Zn	0.48446	0.36379	0.82286	1.235
Mof_Zn	Zn	0.4962	0.08759	0.33133	1.228
Mof_Zn	Zn	0.52147	0.40753	0.73439	1.237
Mof_Zn	Zn	0.53095	0.15185	0.28641	1.206
Mof_H 	H 	0.3144	0.0973	0.2741	0.041
Mof_H 	H 	0.2614	0.0637	0.2399	0.079
Mof_H 	H 	0.3659	0.0187	0.1783	0.086
Mof_H 	H 	0.4189	0.0522	0.2125	0.041
Mof_H 	H 	0.2423	0.0001	0.2284	0.046
Mof_H 	H 	0.2557	0.9966	0.9371	0.051
Mof_H 	H 	0.3325	0.9929	0.9186	0.063
Mof_H 	H 	0.3925	0.9656	0.8842	0.05
Mof_H 	H 	0.3874	0.8974	0.9769	0.053
Mof_H 	H 	0.3275	0.9246	0.0113	0.063
Mof_H 	H 	0.4525	0.3525	0.6476	0.02
Mof_H 	H 	0.4046	0.3277	0.5969	0.091
Mof_H 	H 	0.3304	0.2888	0.6948	0.097
Mof_H 	H 	0.3784	0.3136	0.7455	0.026
Mof_H 	H 	0.3892	0.2717	0.576	0.044
Mof_H 	H 	0.583	0.2345	0.4156	0.046
Mof_H 	H 	0.6157	0.285	0.424	0.069
Mof_H 	H 	0.6617	0.2818	0.3	0.07
Mof_H 	H 	0.629	0.2313	0.2916	0.044
Mof_H 	H 	0.7255	0.3099	0.3395	0.046
Mof_H 	H 	0.5638	0.4682	0.4596	0.05
Mof_H 	H 	0.1826	0.9236	0.1607	0.068
Mof_H 	H 	0.1261	0.8945	0.1975	0.045
Mof_H 	H 	0.1042	0.9694	0.2777	0.043
Mof_H 	H 	0.1607	0.9985	0.2409	0.069
Mof_H 	H 	0.1453	0.986	0.9415	0.075
Mof_H 	H 	0.0876	0.0106	0.9005	0.042
Mof_H 	H 	0.1437	0.0968	0.9264	0.043
Mof_H 	H 	0.2013	0.0722	0.9674	0.081
Mof_H 	H 	0.0254	0.1966	0.6645	0.041
Mof_H 	H 	0.0646	0.2247	0.6104	0.07
Mof_H 	H 	0.163	0.249	0.6974	0.071
Mof_H 	H 	0.1238	0.2209	0.7515	0.041
Mof_H 	H 	0.0851	0.2657	0.5769	0.042
Mof_H 	H 	0.3108	0.2392	0.4613	0.071
Mof_H 	H 	0.3517	0.2093	0.4102	0.041
Mof_H 	H 	0.4527	0.1944	0.4985	0.043
Mof_H 	H 	0.4118	0.2243	0.5496	0.069
Mof_H 	H 	0.8046	0.3217	0.3715	0.087
Mof_H 	H 	0.8802	0.329	0.3475	0.026
Mof_H 	H 	0.8411	0.4085	0.283	0.027
Mof_H 	H 	0.7655	0.4012	0.3071	0.098
Mof_H 	H 	0.5347	0.5025	0.2837	0.035
Mof_H 	H 	0.5631	0.4581	0.3209	0.081
Mof_H 	H 	0.5876	0.5131	0.4263	0.086
Mof_H 	H 	0.5592	0.5575	0.3892	0.03
Mof_H 	H 	0.142	0.2785	0.4633	0.085
Mof_H 	H 	0.0936	0.3024	0.4121	0.019
Mof_H 	H 	0.0329	0.3536	0.5077	0.027
Mof_H 	H 	0.0813	0.3297	0.5588	0.096
Mof_H 	H 	0.9905	0.3794	0.4115	0.235
Mof_H 	H 	0.6349	0.4059	0.5448	0.067
Mof_H 	H 	0.6036	0.4092	0.6156	0.051
Mof_H 	H 	0.4798	0.4483	0.575	0.054
Mof_H 	H 	0.5113	0.44	0.5047	0.063
Mof_H 	H 	0.4683	0.422	0.6743	0.208
Mof_C 	C 	0.3719	0.0781	0.2467	-0.068
Mof_C 	C 	0.3247	0.0815	0.2549	0.031
Mof_C 	C 	0.293	0.0614	0.2344	-0.124
Mof_C 	C 	0.3084	0.0378	0.2057	0.098
Mof_C 	C 	0.3556	0.0344	0.1975	-0.117
Mof_C 	C 	0.3873	0.0545	0.218	0.03
Mof_C 	C 	0.277	0.019	0.1769	-0.067
Mof_C 	C 	0.2799	0.0188	0.1315	0.15
Mof_C 	C 	0.25	0.9996	0.1072	-0.031
Mof_C 	C 	0.2173	0.9806	0.1283	-0.02
Mof_C 	C 	0.2144	0.9808	0.1737	-0.014
Mof_C 	C 	0.2442	0	0.198	-0.036
Mof_C 	C 	0.2488	0.9981	0.0583	-0.023
Mof_C 	C 	0.2156	0.014	0.0335	0.135
Mof_C 	C 	0.2182	0.0134	0.9881	-0.059
Mof_C 	C 	0.254	0.997	0.9675	-0.048
Mof_C 	C 	0.2872	0.9811	0.9923	-0.002
Mof_C 	C 	0.2846	0.9816	0.0377	-0.04
Mof_C 	C 	0.3241	0.9614	0.9684	0.042
Mof_C 	C 	0.3435	0.97371	0.9303	-0.087
Mof_C 	C 	0.3794	0.9574	0.9097	-0.005
Mof_C 	C 	0.3959	0.9288	0.9271	-0.042
Mof_C 	C 	0.3764	0.9165	0.9652	-0.007
Mof_C 	C 	0.3405	0.9328	0.9858	-0.086
Mof_C 	C 	0.4202	0.3355	0.7016	-0.118
Mof_C 	C 	0.4281	0.3398	0.6571	0.065
Mof_C 	C 	0.3993	0.3249	0.6267	-0.153
Mof_C 	C 	0.3628	0.3058	0.6408	0.124
Mof_C 	C 	0.3549	0.30158	0.6853	-0.145
Mof_C 	C 	0.3836	0.3165	0.7157	0.061
Mof_C 	C 	0.3341	0.289	0.6093	-0.073
Mof_C 	C 	0.357	0.2716	0.5771	-0.033
Mof_C 	C 	0.3317	0.254	0.5467	-0.011
Mof_C 	C 	0.2836	0.2539	0.5484	-0.019
Mof_C 	C 	0.2606	0.2714	0.5805	-0.029
Mof_C 	C 	0.2859	0.2889	0.611	0.147
Mof_C 	C 	0.6028	0.22794	0.3528	-0.065
Mof_C 	C 	0.5988	0.244	0.3924	0.013
Mof_C 	C 	0.6183	0.2743	0.3975	-0.102
Mof_C 	C 	0.6419	0.28843	0.3628	0.056
Mof_C 	C 	0.6459	0.2723	0.3232	-0.102
Mof_C 	C 	0.6264	0.2421	0.3181	0.014
Mof_C 	C 	0.6633	0.32102	0.366	-0.012
Mof_C 	C 	0.6378	0.3458	0.3847	-0.029
Mof_C 	C 	0.6576	0.376	0.3895	-0.024
Mof_C 	C 	0.7028	0.38146	0.3755	0.147
Mof_C 	C 	0.7282	0.3567	0.3568	-0.074
Mof_C 	C 	0.7085	0.32647	0.352	-0.034
Mof_C 	C 	0.618	0.40011	0.4539	-0.033
Mof_C 	C 	0.5929	0.42511	0.4724	-0.001
Mof_C 	C 	0.5806	0.45151	0.4472	-0.044
Mof_C 	C 	0.5935	0.45291	0.4034	-0.059
Mof_C 	C 	0.6186	0.4279	0.3849	0.131
Mof_C 	C 	0.6309	0.40151	0.4101	-0.015
Mof_C 	C 	0.1772	0.9639	0.1972	0.058
Mof_C 	C 	0.1669	0.9328	0.1841	-0.101
Mof_C 	C 	0.133	0.91538	0.2062	0.012
Mof_C 	C 	0.1096	0.9291	0.2412	-0.06
Mof_C 	C 	0.1199	0.9602	0.2542	0.013
Mof_C 	C 	0.1538	0.97765	0.2322	-0.102
Mof_C 	C 	0.179	0.0267	0.9585	0.081
Mof_C 	C 	0.145	0.0082	0.9385	-0.117
Mof_C 	C 	0.1104	0.0229	0.9139	0.018
Mof_C 	C 	0.1099	0.0561	0.9094	-0.06
Mof_C 	C 	0.144	0.07455	0.9294	0.019
Mof_C 	C 	0.1785	0.0598	0.954	-0.111
Mof_C 	C 	0.0707	0.206	0.7133	-0.066
Mof_C 	C 	0.053	0.2071	0.6711	0.014
Mof_C 	C 	0.0765	0.224	0.6387	-0.104
Mof_C 	C 	0.1177	0.23967	0.6485	0.063
Mof_C 	C 	0.1354	0.23853	0.6908	-0.106
Mof_C 	C 	0.1119	0.2217	0.7232	0.017
Mof_C 	C 	0.2135	0.2709	0.5814	-0.03
Mof_C 	C 	0.1896	0.28439	0.5464	0.139
Mof_C 	C 	0.1415	0.28244	0.5448	-0.09
Mof_C 	C 	0.1173	0.267	0.578	-0.024
Mof_C 	C 	0.1412	0.25357	0.613	-0.02
Mof_C 	C 	0.1893	0.25552	0.6147	-0.029
Mof_C 	C 	0.3572	0.2347	0.5105	0.058
Mof_C 	C 	0.3392	0.23021	0.4688	-0.105
Mof_C 	C 	0.3637	0.2123	0.4381	0.019
Mof_C 	C 	0.4063	0.1989	0.4493	-0.071
Mof_C 	C 	0.4243	0.2034	0.491	0.016
Mof_C 	C 	0.3997	0.2213	0.5216	-0.102
Mof_C 	C 	0.7776	0.3607	0.3417	0.107
Mof_C 	C 	0.8119	0.3391	0.3538	-0.148
Mof_C 	C 	0.8572	0.34348	0.3394	0.06
Mof_C 	C 	0.8681	0.3695	0.3129	-0.118
Mof_C 	C 	0.8338	0.39114	0.3008	0.065
Mof_C 	C 	0.7885	0.38676	0.3152	-0.159
Mof_C 	C 	0.5441	0.53436	0.3327	-0.102
Mof_C 	C 	0.5453	0.5046	0.31227	0.044
Mof_C 	C 	0.5624	0.47801	0.3346	-0.125
Mof_C 	C 	0.5782	0.4812	0.3773	0.103
Mof_C 	C 	0.577	0.511	0.3977	-0.135
Mof_C 	C 	0.56	0.53755	0.3755	0.05
Mof_C 	C 	0.1164	0.3017	0.5161	0.133
Mof_C 	C 	0.1201	0.2935	0.4722	-0.154
Mof_C 	C 	0.0911	0.3079	0.4415	0.068
Mof_C 	C 	0.0584	0.3303	0.4548	-0.134
Mof_C 	C 	0.0547	0.3385	0.4988	0.08
Mof_C 	C 	0.0837	0.3242	0.5294	-0.165
Mof_C 	C 	0.0783	0.9097	0.2664	0.225
Mof_C 	C 	0.4057	0.0965	0.2705	0.224
Mof_C 	C 	0.0525	0.1814	0.7419	0.231
Mof_C 	C 	0.4468	0.3512	0.7343	0.268
Mof_C 	C 	0.0685	0.0713	0.8923	0.218
Mof_C 	C 	0.9155	0.3748	0.3003	0.285
Mof_C 	C 	0.5275	0.5615	0.3086	0.269
Mof_C 	C 	0.5793	0.198	0.3473	0.227
Mof_C 	C 	0.4349	0.9113	0.907	0.205
Mof_C 	C 	0.436	0.1849	0.4167	0.245
Mof_C 	C 	0.0363	0.3471	0.4205	0.305
Mof_C 	C 	0.5409	0.4289	0.6029	-0.058
Mof_C 	C 	0.5758	0.4243	0.5158	0.04
Mof_C 	C 	0.6052	0.4138	0.5498	-0.086
Mof_C 	C 	0.5855	0.4164	0.5923	-0
Mof_C 	C 	0.5091	0.4397	0.5701	-0.001
Mof_C 	C 	0.5305	0.4351	0.5282	-0.08
Mof_C 	C 	0.5263	0.4258	0.6478	0.252
Mof_O 	O 	0.4916	0.13477	0.3346	-0.948
Mof_O 	O 	0.1788	0.028	0.0532	-0.247
Mof_O 	O 	0.066	0.1828	0.7866	-0.398
Mof_O 	O 	0.3109	0.0357	0.1087	-0.254
Mof_O 	O 	0.0048	0.1751	0.7421	-0.408
Mof_O 	O 	0.2664	0.3079	0.6416	-0.255
Mof_O 	O 	0.4138	0.1766	0.377	-0.415
Mof_O 	O 	0.2117	0.2987	0.5113	-0.245
Mof_O 	O 	0.4751	0.16664	0.4289	-0.428
Mof_O 	O 	0.7272	0.409	0.3828	-0.243
Mof_O 	O 	0.4813	0.3748	0.722	-0.476
Mof_O 	O 	0.6295	0.4298	0.3406	-0.236
Mof_O 	O 	0.4475	0.3426	0.779	-0.42
Mof_O 	O 	0.5245	0.59182	0.3296	-0.455
Mof_O 	O 	0.5095	0.55874	0.2657	-0.422
Mof_O 	O 	0.5596	0.1853	0.3856	-0.42
Mof_O 	O 	0.5729	0.18621	0.3042	-0.423
Mof_O 	O 	0.9512	0.35673	0.3199	-0.449
Mof_O 	O 	0.9265	0.39776	0.2693	-0.442
Mof_O 	O 	0.0448	0.0579	0.8564	-0.39
Mof_O 	O 	0.0734	0.1045	0.8861	-0.373
Mof_O 	O 	0.4519	0.9239	0.8667	-0.428
Mof_O 	O 	0.4424	0.8799	0.9231	-0.423
Mof_O 	O 	0.4487	0.0825	0.2804	-0.378
Mof_O 	O 	0.3865	0.1202	0.2984	-0.407
Mof_O 	O 	0.0405	0.92714	0.284	-0.375
Mof_O 	O 	0.071	0.87748	0.2553	-0.428
Mof_O 	O 	0.0394	0.3456	0.376	-0.43
Mof_O 	O 	0.0014	0.3709	0.4334	-0.408
Mof_O 	O 	0.5543	0.416	0.6812	-0.41
Mof_O 	O 	0.4793	0.4343	0.6561	-0.41
Mof_H 	H 	0.14623	0.0179	0.03959	0.117
Mof_H 	H 	0.31972	0.02263	0.07816	0.119
Mof_H 	H 	0.22808	0.30569	0.63987	0.121
Mof_H 	H 	0.20066	0.28683	0.4805	0.109
Mof_H 	H 	0.76319	0.40604	0.37056	0.121
Mof_H 	H 	0.59812	0.42446	0.32085	0.108
Mof_H 	H 	0.6007	0.34133	0.39607	0.039
Mof_H 	H 	0.87198	0.37845	0.97463	0.041
Mof_H 	H 	0.19284	0.96484	0.10837	0.04
Mof_H 	H 	0.3118	0.96849	0.05804	0.038
Mof_H 	H 	0.26289	0.23946	0.52346	0.04
Mof_H 	H 	0.20891	0.24451	0.6434	0.038
Mof_Zn	Zn	0.06934	0.14598	0.83102	1.225
Mof_Zn	Zn	0.98159	0.14795	0.88989	1.213
Mof_Zn	Zn	0.01554	0.36379	0.32286	1.235
Mof_Zn	Zn	0.0038	0.08759	0.83133	1.228
Mof_Zn	Zn	0.97853	0.40753	0.23439	1.237
Mof_Zn	Zn	0.96905	0.15185	0.78641	1.206
Mof_H 	H 	0.1856	0.0973	0.7741	0.041
Mof_H 	H 	0.2386	0.0637	0.7399	0.079
Mof_H 	H 	0.1341	0.0187	0.6783	0.086
Mof_H 	H 	0.0811	0.0522	0.7125	0.041
Mof_H 	H 	0.2577	0.0001	0.7284	0.046
Mof_H 	H 	0.2443	0.9966	0.4371	0.051
Mof_H 	H 	0.1675	0.9929	0.4186	0.063
Mof_H 	H 	0.1075	0.9656	0.3842	0.05
Mof_H 	H 	0.1126	0.8974	0.4769	0.053
Mof_H 	H 	0.1725	0.9246	0.5113	0.063
Mof_H 	H 	0.0475	0.3525	0.1476	0.02
Mof_H 	H 	0.0954	0.3277	0.0969	0.091
Mof_H 	H 	0.1696	0.2888	0.1948	0.097
Mof_H 	H 	0.1216	0.3136	0.2455	0.026
Mof_H 	H 	0.1108	0.2717	0.076	0.044
Mof_H 	H 	0.917	0.2345	0.9156	0.046
Mof_H 	H 	0.8843	0.285	0.924	0.069
Mof_H 	H 	0.8383	0.2818	0.8	0.07
Mof_H 	H 	0.871	0.2313	0.7916	0.044
Mof_H 	H 	0.7745	0.3099	0.8395	0.046
Mof_H 	H 	0.9362	0.4682	0.9596	0.05
Mof_H 	H 	0.3174	0.9236	0.6607	0.068
Mof_H 	H 	0.3739	0.8945	0.6975	0.045
Mof_H 	H 	0.3958	0.9694	0.7777	0.043
Mof_H 	H 	0.3393	0.9985	0.7409	0.069
Mof_H 	H 	0.3547	0.986	0.4415	0.075
Mof_H 	H 	0.4124	0.0106	0.4005	0.041
Mof_H 	H 	0.3563	0.0968	0.4264	0.043
Mof_H 	H 	0.2987	0.0722	0.4674	0.081
Mof_H 	H 	0.4746	0.1966	0.1645	0.041
Mof_H 	H 	0.4354	0.2247	0.1104	0.07
Mof_H 	H 	0.337	0.249	0.1974	0.071
Mof_H 	H 	0.3762	0.2209	0.2515	0.041
Mof_H 	H 	0.4149	0.2657	0.0769	0.042
Mof_H 	H 	0.1892	0.2392	0.9613	0.071
Mof_H 	H 	0.1483	0.2093	0.9102	0.041
Mof_H 	H 	0.0473	0.1944	0.9985	0.043
Mof_H 	H 	0.0882	0.2243	0.0496	0.069
Mof_H 	H 	0.6954	0.3217	0.8715	0.087
Mof_H 	H 	0.6198	0.329	0.8475	0.026
Mof_H 	H 	0.6589	0.4085	0.783	0.027
Mof_H 	H 	0.7345	0.4012	0.8071	0.098
Mof_H 	H 	0.9653	0.5025	0.7837	0.035
Mof_H 	H 	0.9369	0.4581	0.8209	0.081
Mof_H 	H 	0.9124	0.5131	0.9263	0.086
Mof_H 	H 	0.9408	0.5575	0.8892	0.03
Mof_H 	H 	0.358	0.2785	0.9633	0.085
Mof_H 	H 	0.4064	0.3024	0.9121	0.019
Mof_H 	H 	0.4671	0.3536	0.0077	0.026
Mof_H 	H 	0.4187	0.3297	0.0588	0.096
Mof_H 	H 	0.5095	0.3794	0.9115	0.235
Mof_H 	H 	0.8651	0.4059	0.0448	0.067
Mof_H 	H 	0.8964	0.4092	0.1156	0.051
Mof_H 	H 	0.0202	0.4483	0.075	0.054
Mof_H 	H 	0.9887	0.44	0.0047	0.063
Mof_H 	H 	0.0317	0.422	0.1743	0.208
Mof_C 	C 	0.1281	0.0781	0.7467	-0.068
Mof_C 	C 	0.1753	0.0815	0.7549	0.031
Mof_C 	C 	0.207	0.0614	0.7344	-0.123
Mof_C 	C 	0.1916	0.0378	0.7057	0.098
Mof_C 	C 	0.1444	0.0344	0.6975	-0.117
Mof_C 	C 	0.1127	0.0545	0.718	0.03
Mof_C 	C 	0.223	0.019	0.6769	-0.067
Mof_C 	C 	0.2201	0.0188	0.6315	0.15
Mof_C 	C 	0.25	0.9996	0.6072	-0.03
Mof_C 	C 	0.2827	0.9806	0.6283	-0.02
Mof_C 	C 	0.2856	0.9808	0.6737	-0.014
Mof_C 	C 	0.2558	5.49772e-33	0.698	-0.036
Mof_C 	C 	0.2512	0.9981	0.5583	-0.023
Mof_C 	C 	0.2844	0.014	0.5335	0.136
Mof_C 	C 	0.2818	0.0134	0.4881	-0.059
Mof_C 	C 	0.246	0.997	0.4675	-0.048
Mof_C 	C 	0.2128	0.9811	0.4923	-0.002
Mof_C 	C 	0.2154	0.9816	0.5377	-0.04
Mof_C 	C 	0.1759	0.9614	0.4684	0.043
Mof_C 	C 	0.1565	0.97371	0.4303	-0.087
Mof_C 	C 	0.1206	0.9574	0.4097	-0.005
Mof_C 	C 	0.1041	0.9288	0.4271	-0.042
Mof_C 	C 	0.1236	0.9165	0.4652	-0.006
Mof_C 	C 	0.1595	0.9328	0.4858	-0.086
Mof_C 	C 	0.0798	0.3355	0.2016	-0.118
Mof_C 	C 	0.0719	0.3398	0.1571	0.065
Mof_C 	C 	0.1007	0.3249	0.1267	-0.153
Mof_C 	C 	0.1372	0.3058	0.1408	0.124
Mof_C 	C 	0.1451	0.30158	0.1853	-0.145
Mof_C 	C 	0.1164	0.3165	0.2157	0.061
Mof_C 	C 	0.1659	0.289	0.1093	-0.073
Mof_C 	C 	0.143	0.2716	0.0771	-0.033
Mof_C 	C 	0.1683	0.254	0.0467	-0.011
Mof_C 	C 	0.2164	0.2539	0.0484	-0.019
Mof_C 	C 	0.2394	0.2714	0.0805	-0.029
Mof_C 	C 	0.2141	0.2889	0.111	0.147
Mof_C 	C 	0.8972	0.22794	0.8528	-0.065
Mof_C 	C 	0.9012	0.244	0.8924	0.013
Mof_C 	C 	0.8817	0.2743	0.8975	-0.102
Mof_C 	C 	0.8581	0.28843	0.8628	0.056
Mof_C 	C 	0.8541	0.2723	0.8232	-0.102
Mof_C 	C 	0.8736	0.2421	0.8181	0.014
Mof_C 	C 	0.8367	0.32102	0.866	-0.012
Mof_C 	C 	0.8622	0.3458	0.8847	-0.029
Mof_C 	C 	0.8424	0.376	0.8895	-0.025
Mof_C 	C 	0.7972	0.38146	0.8755	0.147
Mof_C 	C 	0.7718	0.3567	0.8568	-0.074
Mof_C 	C 	0.7915	0.32647	0.852	-0.034
Mof_C 	C 	0.882	0.40011	0.9539	-0.034
Mof_C 	C 	0.9071	0.42511	0.9724	-0.001
Mof_C 	C 	0.9194	0.45151	0.9472	-0.044
Mof_C 	C 	0.9065	0.45291	0.9034	-0.059
Mof_C 	C 	0.8814	0.4279	0.8849	0.131
Mof_C 	C 	0.8691	0.40151	0.9101	-0.015
Mof_C 	C 	0.3228	0.9639	0.6972	0.058
Mof_C 	C 	0.3331	0.9328	0.6841	-0.101
Mof_C 	C 	0.367	0.91538	0.7062	0.012
Mof_C 	C 	0.3904	0.9291	0.7412	-0.06
Mof_C 	C 	0.3801	0.9602	0.7542	0.013
Mof_C 	C 	0.3462	0.97765	0.7322	-0.102
Mof_C 	C 	0.321	0.0267	0.4585	0.081
Mof_C 	C 	0.355	0.0082	0.4385	-0.117
Mof_C 	C 	0.3896	0.0229	0.4139	0.018
Mof_C 	C 	0.3901	0.0561	0.4094	-0.06
Mof_C 	C 	0.356	0.07455	0.4294	0.019
Mof_C 	C 	0.3215	0.0598	0.454	-0.111
Mof_C 	C 	0.4293	0.206	0.2133	-0.066
Mof_C 	C 	0.447	0.2071	0.1711	0.014
Mof_C 	C 	0.4235	0.224	0.1387	-0.104
Mof_C 	C 	0.3823	0.23967	0.1485	0.064
Mof_C 	C 	0.3646	0.23853	0.1908	-0.106
Mof_C 	C 	0.3881	0.2217	0.2232	0.017
Mof_C 	C 	0.2865	0.2709	0.0814	-0.03
Mof_C 	C 	0.3104	0.28439	0.0464	0.139
Mof_C 	C 	0.3585	0.28244	0.0448	-0.09
Mof_C 	C 	0.3827	0.267	0.078	-0.024
Mof_C 	C 	0.3588	0.25357	0.113	-0.02
Mof_C 	C 	0.3107	0.25552	0.1147	-0.029
Mof_C 	C 	0.1428	0.2347	0.0105	0.058
Mof_C 	C 	0.1608	0.23021	0.9688	-0.104
Mof_C 	C 	0.1363	0.2123	0.9381	0.019
Mof_C 	C 	0.0937	0.1989	0.9493	-0.071
Mof_C 	C 	0.0757	0.2034	0.991	0.017
Mof_C 	C 	0.1003	0.2213	0.0216	-0.103
Mof_C 	C 	0.7224	0.3607	0.8417	0.107
Mof_C 	C 	0.6881	0.3391	0.8538	-0.148
Mof_C 	C 	0.6428	0.34348	0.8394	0.06
Mof_C 	C 	0.6319	0.3695	0.8129	-0.118
Mof_C 	C 	0.6662	0.39114	0.8008	0.065
Mof_C 	C 	0.7115	0.38676	0.8152	-0.159
Mof_C 	C 	0.9559	0.53436	0.8327	-0.102
Mof_C 	C 	0.9547	0.5046	0.81227	0.044
Mof_C 	C 	0.9376	0.47801	0.8346	-0.125
Mof_C 	C 	0.9218	0.4812	0.8773	0.103
Mof_C 	C 	0.923	0.511	0.8977	-0.135
Mof_C 	C 	0.94	0.53755	0.8755	0.05
Mof_C 	C 	0.3836	0.3017	0.0161	0.133
Mof_C 	C 	0.3799	0.2935	0.9722	-0.154
Mof_C 	C 	0.4089	0.3079	0.9415	0.069
Mof_C 	C 	0.4416	0.3303	0.9548	-0.134
Mof_C 	C 	0.4453	0.3385	0.9988	0.081
Mof_C 	C 	0.4163	0.3242	0.0294	-0.165
Mof_C 	C 	0.4217	0.9097	0.7664	0.225
Mof_C 	C 	0.0943	0.0965	0.7705	0.224
Mof_C 	C 	0.4475	0.1814	0.2419	0.231
Mof_C 	C 	0.0532	0.3512	0.2343	0.268
Mof_C 	C 	0.4315	0.0713	0.3923	0.218
Mof_C 	C 	0.5845	0.3748	0.8003	0.285
Mof_C 	C 	0.9725	0.5615	0.8086	0.269
Mof_C 	C 	0.9207	0.198	0.8473	0.227
Mof_C 	C 	0.0651	0.9113	0.407	0.205
Mof_C 	C 	0.064	0.1849	0.9167	0.245
Mof_C 	C 	0.4637	0.3471	0.9205	0.305
Mof_C 	C 	0.9591	0.4289	0.1029	-0.058
Mof_C 	C 	0.9242	0.4243	0.0158	0.04
Mof_C 	C 	0.8948	0.4138	0.0498	-0.086
Mof_C 	C 	0.9145	0.4164	0.0923	-0
Mof_C 	C 	0.9909	0.4397	0.0701	-0.001
Mof_C 	C 	0.9695	0.4351	0.0282	-0.08
Mof_C 	C 	0.9737	0.4258	0.1478	0.252
Mof_O 	O 	0.0084	0.13477	0.8346	-0.948
Mof_O 	O 	0.3212	0.028	0.5532	-0.247
Mof_O 	O 	0.434	0.1828	0.2866	-0.398
Mof_O 	O 	0.1891	0.0357	0.6087	-0.254
Mof_O 	O 	0.4952	0.1751	0.2421	-0.408
Mof_O 	O 	0.2336	0.3079	0.1416	-0.255
Mof_O 	O 	0.0862	0.1766	0.877	-0.415
Mof_O 	O 	0.2883	0.2987	0.0113	-0.245
Mof_O 	O 	0.0249	0.16664	0.9289	-0.428
Mof_O 	O 	0.7728	0.409	0.8828	-0.243
Mof_O 	O 	0.0187	0.3748	0.222	-0.476
Mof_O 	O 	0.8705	0.4298	0.8406	-0.236
Mof_O 	O 	0.0525	0.3426	0.279	-0.42
Mof_O 	O 	0.9755	0.59182	0.8296	-0.455
Mof_O 	O 	0.9905	0.55874	0.7657	-0.422
Mof_O 	O 	0.9404	0.1853	0.8856	-0.42
Mof_O 	O 	0.9271	0.18621	0.8042	-0.423
Mof_O 	O 	0.5488	0.35673	0.8199	-0.45
Mof_O 	O 	0.5735	0.39776	0.7693	-0.442
Mof_O 	O 	0.4552	0.0579	0.3564	-0.39
Mof_O 	O 	0.4266	0.1045	0.3861	-0.373
Mof_O 	O 	0.0481	0.9239	0.3667	-0.428
Mof_O 	O 	0.0576	0.8799	0.4231	-0.423
Mof_O 	O 	0.0513	0.0825	0.7804	-0.378
Mof_O 	O 	0.1135	0.1202	0.7984	-0.407
Mof_O 	O 	0.4595	0.92714	0.784	-0.375
Mof_O 	O 	0.429	0.87748	0.7553	-0.428
Mof_O 	O 	0.4606	0.3456	0.876	-0.43
Mof_O 	O 	0.4986	0.3709	0.9334	-0.408
Mof_O 	O 	0.9457	0.416	0.1812	-0.41
Mof_O 	O 	0.0207	0.4343	0.1561	-0.41
Mof_H 	H 	0.35377	0.0179	0.53959	0.117
Mof_H 	H 	0.18028	0.02263	0.57816	0.119
Mof_H 	H 	0.27192	0.30569	0.13987	0.121
Mof_H 	H 	0.29934	0.28683	0.9805	0.109
Mof_H 	H 	0.73681	0.40604	0.87056	0.121
Mof_H 	H 	0.90188	0.42446	0.82085	0.108
Mof_H 	H 	0.8993	0.34133	0.89607	0.039
Mof_H 	H 	0.62802	0.37845	0.47463	0.041
Mof_H 	H 	0.30716	0.96484	0.60837	0.04
Mof_H 	H 	0.1882	0.96849	0.55804	0.038
Mof_H 	H 	0.23711	0.23946	0.02346	0.04
Mof_H 	H 	0.29109	0.24451	0.1434	0.038
Mof_Zn	Zn	0.93066	0.85402	0.33102	1.225
Mof_Zn	Zn	0.01841	0.85205	0.38989	1.213
Mof_Zn	Zn	0.98446	0.63621	0.82286	1.235
Mof_Zn	Zn	0.9962	0.91241	0.33133	1.228
Mof_Zn	Zn	0.02147	0.59247	0.73439	1.237
Mof_Zn	Zn	0.03095	0.84815	0.28641	1.206
Mof_H 	H 	0.8144	0.9027	0.2741	0.041
Mof_H 	H 	0.7614	0.9363	0.2399	0.079
Mof_H 	H 	0.8659	0.9813	0.1783	0.086
Mof_H 	H 	0.9189	0.9478	0.2125	0.041
Mof_H 	H 	0.7423	0.9999	0.2284	0.046
Mof_H 	H 	0.7557	0.0034	0.9371	0.051
Mof_H 	H 	0.8325	0.0071	0.9186	0.063
Mof_H 	H 	0.8925	0.0344	0.8842	0.05
Mof_H 	H 	0.8874	0.1026	0.9769	0.053
Mof_H 	H 	0.8275	0.0754	0.0113	0.063
Mof_H 	H 	0.9525	0.6475	0.6476	0.02
Mof_H 	H 	0.9046	0.6723	0.5969	0.091
Mof_H 	H 	0.8304	0.7112	0.6948	0.097
Mof_H 	H 	0.8784	0.6864	0.7455	0.027
Mof_H 	H 	0.8892	0.7283	0.576	0.044
Mof_H 	H 	0.083	0.7655	0.4156	0.046
Mof_H 	H 	0.1157	0.715	0.424	0.069
Mof_H 	H 	0.1617	0.7182	0.3	0.07
Mof_H 	H 	0.129	0.7687	0.2916	0.044
Mof_H 	H 	0.2255	0.6901	0.3395	0.046
Mof_H 	H 	0.0638	0.5318	0.4596	0.05
Mof_H 	H 	0.6826	0.0764	0.1607	0.068
Mof_H 	H 	0.6261	0.1055	0.1975	0.045
Mof_H 	H 	0.6042	0.0306	0.2777	0.043
Mof_H 	H 	0.6607	0.0015	0.2409	0.069
Mof_H 	H 	0.6453	0.014	0.9415	0.075
Mof_H 	H 	0.5876	0.9894	0.9005	0.041
Mof_H 	H 	0.6437	0.9032	0.9264	0.043
Mof_H 	H 	0.7013	0.9278	0.9674	0.081
Mof_H 	H 	0.5254	0.8034	0.6645	0.041
Mof_H 	H 	0.5646	0.7753	0.6104	0.07
Mof_H 	H 	0.663	0.751	0.6974	0.071
Mof_H 	H 	0.6238	0.7791	0.7515	0.041
Mof_H 	H 	0.5851	0.7343	0.5769	0.042
Mof_H 	H 	0.8108	0.7608	0.4613	0.071
Mof_H 	H 	0.8517	0.7907	0.4102	0.041
Mof_H 	H 	0.9527	0.8056	0.4985	0.043
Mof_H 	H 	0.9118	0.7757	0.5496	0.069
Mof_H 	H 	0.3046	0.6783	0.3715	0.087
Mof_H 	H 	0.3802	0.671	0.3475	0.026
Mof_H 	H 	0.3411	0.5915	0.283	0.027
Mof_H 	H 	0.2655	0.5988	0.3071	0.098
Mof_H 	H 	0.0347	0.4975	0.2837	0.035
Mof_H 	H 	0.0631	0.5419	0.3209	0.081
Mof_H 	H 	0.0876	0.4869	0.4263	0.086
Mof_H 	H 	0.0592	0.4425	0.3892	0.03
Mof_H 	H 	0.642	0.7215	0.4633	0.085
Mof_H 	H 	0.5936	0.6976	0.4121	0.019
Mof_H 	H 	0.5329	0.6464	0.5077	0.027
Mof_H 	H 	0.5813	0.6703	0.5588	0.096
Mof_H 	H 	0.4905	0.6206	0.4115	0.235
Mof_H 	H 	0.1349	0.5941	0.5448	0.067
Mof_H 	H 	0.1036	0.5908	0.6156	0.051
Mof_H 	H 	0.9798	0.5517	0.575	0.054
Mof_H 	H 	0.0113	0.56	0.5047	0.063
Mof_H 	H 	0.9683	0.578	0.6743	0.208
Mof_C 	C 	0.8719	0.9219	0.2467	-0.068
Mof_C 	C 	0.8247	0.9185	0.2549	0.031
Mof_C 	C 	0.793	0.9386	0.2344	-0.123
Mof_C 	C 	0.8084	0.9622	0.2057	0.098
Mof_C 	C 	0.8556	0.9656	0.1975	-0.117
Mof_C 	C 	0.8873	0.9455	0.218	0.03
Mof_C 	C 	0.777	0.981	0.1769	-0.067
Mof_C 	C 	0.7799	0.9812	0.1315	0.149
Mof_C 	C 	0.75	0.0004	0.1072	-0.03
Mof_C 	C 	0.7173	0.0194	0.1283	-0.02
Mof_C 	C 	0.7144	0.0192	0.1737	-0.013
Mof_C 	C 	0.7442	0	0.198	-0.036
Mof_C 	C 	0.7488	0.0019	0.0583	-0.023
Mof_C 	C 	0.7156	0.986	0.0335	0.135
Mof_C 	C 	0.7182	0.9866	0.9881	-0.059
Mof_C 	C 	0.754	0.003	0.9675	-0.047
Mof_C 	C 	0.7872	0.0189	0.9923	-0.002
Mof_C 	C 	0.7846	0.0184	0.0377	-0.04
Mof_C 	C 	0.8241	0.0386	0.9684	0.042
Mof_C 	C 	0.8435	0.02629	0.9303	-0.087
Mof_C 	C 	0.8794	0.0426	0.9097	-0.005
Mof_C 	C 	0.8959	0.0712	0.9271	-0.042
Mof_C 	C 	0.8764	0.0835	0.9652	-0.007
Mof_C 	C 	0.8405	0.0672	0.9858	-0.086
Mof_C 	C 	0.9202	0.6645	0.7016	-0.118
Mof_C 	C 	0.9281	0.6602	0.6571	0.065
Mof_C 	C 	0.8993	0.6751	0.6267	-0.153
Mof_C 	C 	0.8628	0.6942	0.6408	0.124
Mof_C 	C 	0.8549	0.69842	0.6853	-0.145
Mof_C 	C 	0.8836	0.6835	0.7157	0.061
Mof_C 	C 	0.8341	0.711	0.6093	-0.073
Mof_C 	C 	0.857	0.7284	0.5771	-0.033
Mof_C 	C 	0.8317	0.746	0.5467	-0.011
Mof_C 	C 	0.7836	0.7461	0.5484	-0.019
Mof_C 	C 	0.7606	0.7286	0.5805	-0.029
Mof_C 	C 	0.7859	0.7111	0.611	0.147
Mof_C 	C 	0.1028	0.77206	0.3528	-0.065
Mof_C 	C 	0.0988	0.756	0.3924	0.013
Mof_C 	C 	0.1183	0.7257	0.3975	-0.102
Mof_C 	C 	0.1419	0.71157	0.3628	0.056
Mof_C 	C 	0.1459	0.7277	0.3232	-0.102
Mof_C 	C 	0.1264	0.7579	0.3181	0.014
Mof_C 	C 	0.1633	0.67898	0.366	-0.012
Mof_C 	C 	0.1378	0.6542	0.3847	-0.029
Mof_C 	C 	0.1576	0.624	0.3895	-0.024
Mof_C 	C 	0.2028	0.61854	0.3755	0.147
Mof_C 	C 	0.2282	0.6433	0.3568	-0.074
Mof_C 	C 	0.2085	0.67353	0.352	-0.034
Mof_C 	C 	0.118	0.59989	0.4539	-0.033
Mof_C 	C 	0.0929	0.57489	0.4724	-0.001
Mof_C 	C 	0.0806	0.54849	0.4472	-0.044
Mof_C 	C 	0.0935	0.54709	0.4034	-0.059
Mof_C 	C 	0.1186	0.5721	0.3849	0.131
Mof_C 	C 	0.1309	0.59849	0.4101	-0.015
Mof_C 	C 	0.6772	0.0361	0.1972	0.058
Mof_C 	C 	0.6669	0.0672	0.1841	-0.101
Mof_C 	C 	0.633	0.08462	0.2062	0.012
Mof_C 	C 	0.6096	0.0709	0.2412	-0.06
Mof_C 	C 	0.6199	0.0398	0.2542	0.013
Mof_C 	C 	0.6538	0.02235	0.2322	-0.101
Mof_C 	C 	0.679	0.9733	0.9585	0.081
Mof_C 	C 	0.645	0.9918	0.9385	-0.118
Mof_C 	C 	0.6104	0.9771	0.9139	0.018
Mof_C 	C 	0.6099	0.9439	0.9094	-0.06
Mof_C 	C 	0.644	0.92545	0.9294	0.02
Mof_C 	C 	0.6785	0.9402	0.954	-0.112
Mof_C 	C 	0.5707	0.794	0.7133	-0.066
Mof_C 	C 	0.553	0.7929	0.6711	0.014
Mof_C 	C 	0.5765	0.776	0.6387	-0.104
Mof_C 	C 	0.6177	0.76033	0.6485	0.064
Mof_C 	C 	0.6354	0.76147	0.6908	-0.106
Mof_C 	C 	0.6119	0.7783	0.7232	0.017
Mof_C 	C 	0.7135	0.7291	0.5814	-0.03
Mof_C 	C 	0.6896	0.71561	0.5464	0.139
Mof_C 	C 	0.6415	0.71756	0.5448	-0.09
Mof_C 	C 	0.6173	0.733	0.578	-0.024
Mof_C 	C 	0.6412	0.74643	0.613	-0.02
Mof_C 	C 	0.6893	0.74448	0.6147	-0.029
Mof_C 	C 	0.8572	0.7653	0.5105	0.058
Mof_C 	C 	0.8392	0.76979	0.4688	-0.105
Mof_C 	C 	0.8637	0.7877	0.4381	0.019
Mof_C 	C 	0.9063	0.8011	0.4493	-0.071
Mof_C 	C 	0.9243	0.7966	0.491	0.016
Mof_C 	C 	0.8997	0.7787	0.5216	-0.102
Mof_C 	C 	0.2776	0.6393	0.3417	0.107
Mof_C 	C 	0.3119	0.6609	0.3538	-0.148
Mof_C 	C 	0.3572	0.65652	0.3394	0.06
Mof_C 	C 	0.3681	0.6305	0.3129	-0.118
Mof_C 	C 	0.3338	0.60886	0.3008	0.065
Mof_C 	C 	0.2885	0.61324	0.3152	-0.159
Mof_C 	C 	0.0441	0.46564	0.3327	-0.102
Mof_C 	C 	0.0453	0.4954	0.31227	0.044
Mof_C 	C 	0.0624	0.52199	0.3346	-0.125
Mof_C 	C 	0.0782	0.5188	0.3773	0.103
Mof_C 	C 	0.077	0.489	0.3977	-0.135
Mof_C 	C 	0.06	0.46245	0.3755	0.05
Mof_C 	C 	0.6164	0.6983	0.5161	0.133
Mof_C 	C 	0.6201	0.7065	0.4722	-0.154
Mof_C 	C 	0.5911	0.6921	0.4415	0.068
Mof_C 	C 	0.5584	0.6697	0.4548	-0.134
Mof_C 	C 	0.5547	0.6615	0.4988	0.08
Mof_C 	C 	0.5837	0.6758	0.5294	-0.165
Mof_C 	C 	0.5783	0.0903	0.2664	0.225
Mof_C 	C 	0.9057	0.9035	0.2705	0.224
Mof_C 	C 	0.5525	0.8186	0.7419	0.231
Mof_C 	C 	0.9468	0.6488	0.7343	0.268
Mof_C 	C 	0.5685	0.9287	0.8923	0.218
Mof_C 	C 	0.4155	0.6252	0.3003	0.285
Mof_C 	C 	0.0275	0.4385	0.3086	0.269
Mof_C 	C 	0.0793	0.802	0.3473	0.227
Mof_C 	C 	0.9349	0.0887	0.907	0.205
Mof_C 	C 	0.936	0.8151	0.4167	0.245
Mof_C 	C 	0.5363	0.6529	0.4205	0.305
Mof_C 	C 	0.0409	0.5711	0.6029	-0.058
Mof_C 	C 	0.0758	0.5757	0.5158	0.04
Mof_C 	C 	0.1052	0.5862	0.5498	-0.086
Mof_C 	C 	0.0855	0.5836	0.5923	-0
Mof_C 	C 	0.0091	0.5603	0.5701	-0.001
Mof_C 	C 	0.0305	0.5649	0.5282	-0.08
Mof_C 	C 	0.0263	0.5742	0.6478	0.252
Mof_O 	O 	0.9916	0.86523	0.3346	-0.948
Mof_O 	O 	0.6788	0.972	0.0532	-0.247
Mof_O 	O 	0.566	0.8172	0.7866	-0.398
Mof_O 	O 	0.8109	0.9643	0.1087	-0.254
Mof_O 	O 	0.5048	0.8249	0.7421	-0.408
Mof_O 	O 	0.7664	0.6921	0.6416	-0.255
Mof_O 	O 	0.9138	0.8234	0.377	-0.415
Mof_O 	O 	0.7117	0.7013	0.5113	-0.245
Mof_O 	O 	0.9751	0.83336	0.4289	-0.427
Mof_O 	O 	0.2272	0.591	0.3828	-0.243
Mof_O 	O 	0.9813	0.6252	0.722	-0.476
Mof_O 	O 	0.1295	0.5702	0.3406	-0.236
Mof_O 	O 	0.9475	0.6574	0.779	-0.42
Mof_O 	O 	0.0245	0.40818	0.3296	-0.455
Mof_O 	O 	0.0095	0.44126	0.2657	-0.422
Mof_O 	O 	0.0596	0.8147	0.3856	-0.42
Mof_O 	O 	0.0729	0.81379	0.3042	-0.423
Mof_O 	O 	0.4512	0.64327	0.3199	-0.45
Mof_O 	O 	0.4265	0.60224	0.2693	-0.442
Mof_O 	O 	0.5448	0.9421	0.8564	-0.39
Mof_O 	O 	0.5734	0.8955	0.8861	-0.373
Mof_O 	O 	0.9519	0.0761	0.8667	-0.428
Mof_O 	O 	0.9424	0.1201	0.9231	-0.423
Mof_O 	O 	0.9487	0.9175	0.2804	-0.378
Mof_O 	O 	0.8865	0.8798	0.2984	-0.407
Mof_O 	O 	0.5405	0.07286	0.284	-0.375
Mof_O 	O 	0.571	0.12252	0.2553	-0.428
Mof_O 	O 	0.5394	0.6544	0.376	-0.43
Mof_O 	O 	0.5014	0.6291	0.4334	-0.408
Mof_O 	O 	0.0543	0.584	0.6812	-0.41
Mof_O 	O 	0.9793	0.5657	0.6561	-0.41
Mof_H 	H 	0.64623	0.9821	0.03959	0.117
Mof_H 	H 	0.81972	0.97737	0.07816	0.119
Mof_H 	H 	0.72808	0.69431	0.63987	0.121
Mof_H 	H 	0.70066	0.71317	0.4805	0.109
Mof_H 	H 	0.26319	0.59396	0.37056	0.121
Mof_H 	H 	0.09812	0.57554	0.32085	0.108
Mof_H 	H 	0.1007	0.65867	0.39607	0.039
Mof_H 	H 	0.37198	0.62155	0.97463	0.041
Mof_H 	H 	0.69284	0.03516	0.10837	0.04
Mof_H 	H 	0.8118	0.03151	0.05804	0.038
Mof_H 	H 	0.76289	0.76054	0.52346	0.04
Mof_H 	H 	0.70891	0.75549	0.6434	0.038
_end
