data_functionalizedCrystal
_audit_creation_method	'EQeq! by Chris Wilmer'
_symmetry_space_group_name_H-M	'P1'
_symmetry_Int_Tables_number	1
_symmetry_cell_setting	triclinic
loop_
_symmetry_equiv_pos_as_xyz
  x,y,z
_cell_length_a	15.351
_cell_length_b	15.351
_cell_length_c	15.812
_cell_angle_alpha	90
_cell_angle_beta	90
_cell_angle_gamma	120
loop_
_atom_site_label
_atom_site_type_symbol
_atom_site_fract_x
_atom_site_fract_y
_atom_site_fract_z
_atom_site_charge
Mof_Tb	Tb	0.33333	0.66666	0.75	2.059
Mof_Tb	Tb	0.66667	0.33334	0.75	2.059
Mof_Tb	Tb	0.66667	0.33334	0.25	2.046
Mof_Tb	Tb	0.33333	0.66666	0.25	2.046
Mof_Mn	Mn	0.5	0	-0	0.698
Mof_Mn	Mn	0.5	0.5	-0	0.777
Mof_Mn	Mn	-0	0.5	-0	0.697
Mof_Mn	Mn	0.5	0	0.5	0.834
Mof_Mn	Mn	7.38991e-18	0.5	0.5	0.834
Mof_Mn	Mn	0.5	0.5	0.5	0.915
Mof_H 	H 	0.7087	0.9422	0.8438	0.083
Mof_H 	H 	0.2335	0.2913	0.8438	0.061
Mof_H 	H 	0.0578	0.7665	0.8438	0.057
Mof_H 	H 	0.2913	0.0578	0.8438	0.051
Mof_H 	H 	0.7665	0.7087	0.8438	0.073
Mof_H 	H 	0.9422	0.2335	0.8438	0.078
Mof_H 	H 	0.7665	0.0578	0.6562	0.042
Mof_H 	H 	0.9422	0.7087	0.6562	0.069
Mof_H 	H 	0.2913	0.2335	0.6562	0.046
Mof_H 	H 	0.2335	0.9422	0.6562	0.063
Mof_H 	H 	0.0578	0.2913	0.6562	0.036
Mof_H 	H 	0.7087	0.7665	0.6562	0.058
Mof_H 	H 	0.2913	0.0578	0.1562	0.023
Mof_H 	H 	0.7665	0.7087	0.1562	0.045
Mof_H 	H 	0.9422	0.2335	0.1562	0.051
Mof_H 	H 	0.7087	0.9422	0.1562	0.056
Mof_H 	H 	0.2335	0.2913	0.1562	0.032
Mof_H 	H 	0.0578	0.7665	0.1562	0.03
Mof_H 	H 	0.2335	0.9422	0.3438	0.061
Mof_H 	H 	0.0578	0.2913	0.3438	0.034
Mof_H 	H 	0.7087	0.7665	0.3438	0.056
Mof_H 	H 	0.7665	0.0578	0.3438	0.04
Mof_H 	H 	0.9422	0.7087	0.3438	0.067
Mof_H 	H 	0.2913	0.2335	0.3438	0.043
Mof_H 	H 	0.7975	0.89875	0.75	0.059
Mof_H 	H 	0.10125	0.2025	0.75	0.024
Mof_H 	H 	0.10125	0.89875	0.75	0.04
Mof_H 	H 	0.2025	0.10125	0.75	0.024
Mof_H 	H 	0.89875	0.7975	0.75	0.059
Mof_H 	H 	0.89875	0.10125	0.75	0.04
Mof_H 	H 	0.2025	0.10125	0.25	0.019
Mof_H 	H 	0.89875	0.7975	0.25	0.055
Mof_H 	H 	0.89875	0.10125	0.25	0.037
Mof_H 	H 	0.7975	0.89875	0.25	0.055
Mof_H 	H 	0.10125	0.2025	0.25	0.019
Mof_H 	H 	0.10125	0.89875	0.25	0.037
Mof_C 	C 	0.50615	0.8588	0.86001	0.347
Mof_C 	C 	0.5725	0.83794	0.80261	-0.003
Mof_C 	C 	0.67487	0.89	0.80536	-0.032
Mof_C 	C 	0.35265	0.49385	0.86001	0.352
Mof_C 	C 	0.26544	0.4275	0.80261	-0.018
Mof_C 	C 	0.21513	0.32513	0.80536	-0.037
Mof_C 	C 	0.1412	0.64735	0.86001	0.351
Mof_C 	C 	0.16206	0.73456	0.80261	-0.017
Mof_C 	C 	0.11	0.78487	0.80536	-0.036
Mof_C 	C 	0.49385	0.1412	0.86001	0.35
Mof_C 	C 	0.4275	0.16206	0.80261	-0.021
Mof_C 	C 	0.32513	0.11	0.80536	-0.038
Mof_C 	C 	0.64735	0.50615	0.86001	0.354
Mof_C 	C 	0.73456	0.5725	0.80261	-0.01
Mof_C 	C 	0.78487	0.67487	0.80536	-0.031
Mof_C 	C 	0.8588	0.35265	0.86001	0.347
Mof_C 	C 	0.83794	0.26544	0.80261	-0.006
Mof_C 	C 	0.89	0.21513	0.80536	-0.036
Mof_C 	C 	0.64735	0.1412	0.63999	0.36
Mof_C 	C 	0.73456	0.16206	0.69739	-0.029
Mof_C 	C 	0.78487	0.11	0.69464	-0.033
Mof_C 	C 	0.8588	0.50615	0.63999	0.356
Mof_C 	C 	0.83794	0.5725	0.69739	-0.015
Mof_C 	C 	0.89	0.67487	0.69464	-0.03
Mof_C 	C 	0.49385	0.35265	0.63999	0.361
Mof_C 	C 	0.4275	0.26544	0.69739	-0.03
Mof_C 	C 	0.32513	0.21513	0.69464	-0.035
Mof_C 	C 	0.35265	0.8588	0.63999	0.356
Mof_C 	C 	0.26544	0.83794	0.69739	-0.018
Mof_C 	C 	0.21513	0.89	0.69464	-0.034
Mof_C 	C 	0.1412	0.49385	0.63999	0.359
Mof_C 	C 	0.16206	0.4275	0.69739	-0.033
Mof_C 	C 	0.11	0.32513	0.69464	-0.036
Mof_C 	C 	0.50615	0.64735	0.63999	0.363
Mof_C 	C 	0.5725	0.73456	0.69739	-0.022
Mof_C 	C 	0.67487	0.78487	0.69464	-0.028
Mof_C 	C 	0.49385	0.1412	0.13999	0.354
Mof_C 	C 	0.4275	0.16206	0.19739	-0.043
Mof_C 	C 	0.32513	0.11	0.19464	-0.031
Mof_C 	C 	0.64735	0.50615	0.13999	0.358
Mof_C 	C 	0.73456	0.5725	0.19739	-0.031
Mof_C 	C 	0.78487	0.67487	0.19464	-0.023
Mof_C 	C 	0.8588	0.35265	0.13999	0.351
Mof_C 	C 	0.83794	0.26544	0.19739	-0.027
Mof_C 	C 	0.89	0.21513	0.19464	-0.028
Mof_C 	C 	0.50615	0.8588	0.13999	0.351
Mof_C 	C 	0.5725	0.83794	0.19739	-0.024
Mof_C 	C 	0.67487	0.89	0.19464	-0.024
Mof_C 	C 	0.35265	0.49385	0.13999	0.357
Mof_C 	C 	0.26544	0.4275	0.19739	-0.039
Mof_C 	C 	0.21513	0.32513	0.19464	-0.03
Mof_C 	C 	0.1412	0.64735	0.13999	0.355
Mof_C 	C 	0.16206	0.73456	0.19739	-0.038
Mof_C 	C 	0.11	0.78487	0.19464	-0.028
Mof_C 	C 	0.35265	0.8588	0.36001	0.356
Mof_C 	C 	0.26544	0.83794	0.30261	-0.023
Mof_C 	C 	0.21513	0.89	0.30536	-0.028
Mof_C 	C 	0.1412	0.49385	0.36001	0.36
Mof_C 	C 	0.16206	0.4275	0.30261	-0.038
Mof_C 	C 	0.11	0.32513	0.30536	-0.03
Mof_C 	C 	0.50615	0.64735	0.36001	0.364
Mof_C 	C 	0.5725	0.73456	0.30261	-0.027
Mof_C 	C 	0.67487	0.78487	0.30536	-0.022
Mof_C 	C 	0.64735	0.1412	0.36001	0.361
Mof_C 	C 	0.73456	0.16206	0.30261	-0.034
Mof_C 	C 	0.78487	0.11	0.30536	-0.027
Mof_C 	C 	0.8588	0.50615	0.36001	0.357
Mof_C 	C 	0.83794	0.5725	0.30261	-0.02
Mof_C 	C 	0.89	0.67487	0.30536	-0.024
Mof_C 	C 	0.49385	0.35265	0.36001	0.362
Mof_C 	C 	0.4275	0.26544	0.30261	-0.035
Mof_C 	C 	0.32513	0.21513	0.30536	-0.029
Mof_C 	C 	0.72756	0.86378	0.75	-0.023
Mof_C 	C 	0.13622	0.27244	0.75	-0.038
Mof_C 	C 	0.13622	0.86378	0.75	-0.029
Mof_C 	C 	0.27244	0.13622	0.75	-0.038
Mof_C 	C 	0.86378	0.72756	0.75	-0.023
Mof_C 	C 	0.86378	0.13622	0.75	-0.029
Mof_C 	C 	0.27244	0.13622	0.25	-0.053
Mof_C 	C 	0.86378	0.72756	0.25	-0.038
Mof_C 	C 	0.86378	0.13622	0.25	-0.044
Mof_C 	C 	0.72756	0.86378	0.25	-0.037
Mof_C 	C 	0.13622	0.27244	0.25	-0.053
Mof_C 	C 	0.13622	0.86378	0.25	-0.044
Mof_N 	N 	0.52077	0.76039	0.75	-0.203
Mof_N 	N 	0.23962	0.47924	0.75	-0.203
Mof_N 	N 	0.23962	0.76039	0.75	-0.203
Mof_N 	N 	0.47923	0.23961	0.75	-0.203
Mof_N 	N 	0.76038	0.52076	0.75	-0.203
Mof_N 	N 	0.76038	0.23961	0.75	-0.203
Mof_N 	N 	0.47923	0.23961	0.25	-0.2
Mof_N 	N 	0.76038	0.52076	0.25	-0.2
Mof_N 	N 	0.76038	0.23961	0.25	-0.2
Mof_N 	N 	0.52077	0.76039	0.25	-0.2
Mof_N 	N 	0.23962	0.47924	0.25	-0.2
Mof_N 	N 	0.23962	0.76039	0.25	-0.2
Mof_O 	O 	0.55078	0.935	0.90669	-0.274
Mof_O 	O 	0.4128	0.80038	0.85542	-0.416
Mof_O 	O 	0.38422	0.44922	0.90669	-0.313
Mof_O 	O 	0.38758	0.5872	0.85542	-0.427
Mof_O 	O 	0.065	0.61578	0.90669	-0.317
Mof_O 	O 	0.19962	0.61242	0.85542	-0.43
Mof_O 	O 	0.44922	0.065	0.90669	-0.319
Mof_O 	O 	0.5872	0.19962	0.85542	-0.43
Mof_O 	O 	0.61578	0.55078	0.90669	-0.309
Mof_O 	O 	0.61242	0.4128	0.85542	-0.426
Mof_O 	O 	0.935	0.38422	0.90669	-0.277
Mof_O 	O 	0.80038	0.38758	0.85542	-0.416
Mof_O 	O 	0.61578	0.065	0.59331	-0.377
Mof_O 	O 	0.61242	0.19962	0.64458	-0.455
Mof_O 	O 	0.935	0.55078	0.59331	-0.333
Mof_O 	O 	0.80038	0.4128	0.64458	-0.441
Mof_O 	O 	0.44922	0.38422	0.59331	-0.374
Mof_O 	O 	0.5872	0.38758	0.64458	-0.453
Mof_O 	O 	0.38422	0.935	0.59331	-0.335
Mof_O 	O 	0.38758	0.80038	0.64458	-0.441
Mof_O 	O 	0.065	0.44922	0.59331	-0.38
Mof_O 	O 	0.19962	0.5872	0.64458	-0.456
Mof_O 	O 	0.55078	0.61578	0.59331	-0.369
Mof_O 	O 	0.4128	0.61242	0.64458	-0.452
Mof_O 	O 	0.44922	0.065	0.09331	-0.386
Mof_O 	O 	0.5872	0.19962	0.14458	-0.464
Mof_O 	O 	0.61578	0.55078	0.09331	-0.376
Mof_O 	O 	0.61242	0.4128	0.14458	-0.46
Mof_O 	O 	0.935	0.38422	0.09331	-0.341
Mof_O 	O 	0.80038	0.38758	0.14458	-0.449
Mof_O 	O 	0.55078	0.935	0.09331	-0.339
Mof_O 	O 	0.4128	0.80038	0.14458	-0.449
Mof_O 	O 	0.38422	0.44922	0.09331	-0.381
Mof_O 	O 	0.38758	0.5872	0.14458	-0.461
Mof_O 	O 	0.065	0.61578	0.09331	-0.384
Mof_O 	O 	0.19962	0.61242	0.14458	-0.463
Mof_O 	O 	0.38422	0.935	0.40669	-0.335
Mof_O 	O 	0.38758	0.80038	0.35542	-0.44
Mof_O 	O 	0.065	0.44922	0.40669	-0.38
Mof_O 	O 	0.19962	0.5872	0.35542	-0.455
Mof_O 	O 	0.55078	0.61578	0.40669	-0.369
Mof_O 	O 	0.4128	0.61242	0.35542	-0.451
Mof_O 	O 	0.61578	0.065	0.40669	-0.377
Mof_O 	O 	0.61242	0.19962	0.35542	-0.454
Mof_O 	O 	0.935	0.55078	0.40669	-0.333
Mof_O 	O 	0.80038	0.4128	0.35542	-0.439
Mof_O 	O 	0.44922	0.38422	0.40669	-0.374
Mof_O 	O 	0.5872	0.38758	0.35542	-0.452
_end
