# CIF file generated by openbabel 3.1.0, see https://openbabel.org
data_I
_chemical_name_common 'image0'
_cell_length_a 17.5185
_cell_length_b 6.875
_cell_length_c 12.168
_cell_angle_alpha 90
_cell_angle_beta 90
_cell_angle_gamma 90
_space_group_name_H-M_alt 'P 1'
_space_group_name_Hall 'P 1'
loop_
    _symmetry_equiv_pos_as_xyz
    x,y,z
loop_
    _atom_site_label
    _atom_site_type_symbol
    _atom_site_fract_x
    _atom_site_fract_y
    _atom_site_fract_z
    _atom_site_occupancy
    O1       O        0.08936    0.91360    0.08920    1.000
    O2       O        0.42601    0.58800    0.38530    1.000
    C1       C        0.22700    0.57580    0.20150    1.000
    H1       H        0.20460    0.45840    0.18150    1.000
    C2       C        0.29420    0.57650    0.25950    1.000
    H2       H        0.31690    0.45920    0.27920    1.000
    O3       O        0.41064    0.08640    0.58920    1.000
    O4       O        0.07399    0.41200    0.88530    1.000
    C3       C        0.27300    0.42420    0.70150    1.000
    H3       H        0.29540    0.54160    0.68150    1.000
    C4       C        0.20580    0.42350    0.75950    1.000
    H4       H        0.18310    0.54080    0.77920    1.000
    O5       O        0.91064    0.41360    0.91080    1.000
    O6       O        0.57399    0.08800    0.61470    1.000
    C5       C        0.77300    0.07580    0.79850    1.000
    H5       H        0.79540    0.95840    0.81850    1.000
    C6       C        0.70580    0.07650    0.74050    1.000
    H6       H        0.68310    0.95920    0.72080    1.000
    O7       O        0.58936    0.58640    0.41080    1.000
    O8       O        0.92601    0.91200    0.11470    1.000
    C7       C        0.72700    0.92420    0.29850    1.000
    H7       H        0.70460    0.04160    0.31850    1.000
    C8       C        0.79420    0.92350    0.24050    1.000
    H8       H        0.81690    0.04080    0.22080    1.000
    O9       O        0.91064    0.08640    0.91080    1.000
    O10      O        0.57399    0.41200    0.61470    1.000
    C9       C        0.77300    0.42420    0.79850    1.000
    H9       H        0.79540    0.54160    0.81850    1.000
    C10      C        0.70580    0.42350    0.74050    1.000
    H10      H        0.68310    0.54080    0.72080    1.000
    O11      O        0.58936    0.91360    0.41080    1.000
    O12      O        0.92601    0.58800    0.11470    1.000
    C11      C        0.72700    0.57580    0.29850    1.000
    H11      H        0.70460    0.45840    0.31850    1.000
    C12      C        0.79420    0.57650    0.24050    1.000
    H12      H        0.81690    0.45920    0.22080    1.000
    O13      O        0.08936    0.58640    0.08920    1.000
    O14      O        0.42601    0.91200    0.38530    1.000
    C13      C        0.22700    0.92420    0.20150    1.000
    H13      H        0.20460    0.04160    0.18150    1.000
    C14      C        0.29420    0.92350    0.25950    1.000
    H14      H        0.31690    0.04080    0.27920    1.000
    O15      O        0.41064    0.41360    0.58920    1.000
    O16      O        0.07399    0.08800    0.88530    1.000
    C15      C        0.27300    0.07580    0.70150    1.000
    H15      H        0.29540    0.95840    0.68150    1.000
    C16      C        0.20580    0.07650    0.75950    1.000
    H16      H        0.18310    0.95920    0.77920    1.000
    V1       V        0.00000    0.00000    0.00000    1.000
    V2       V        0.50000    0.00000    0.50000    1.000
    V3       V        0.00000    0.50000    0.00000    1.000
    V4       V        0.50000    0.50000    0.50000    1.000
    O17      O        0.99320    0.75000    0.92550    1.000
    C17      C        0.32870    0.75000    0.28890    1.000
    C18      C        0.19250    0.75000    0.17280    1.000
    C19      C        0.39880    0.75000    0.35880    1.000
    C20      C        0.11820    0.75000    0.11180    1.000
    O18      O        0.50680    0.25000    0.42550    1.000
    C21      C        0.17130    0.25000    0.78890    1.000
    C22      C        0.30750    0.25000    0.67280    1.000
    C23      C        0.10120    0.25000    0.85880    1.000
    C24      C        0.38180    0.25000    0.61180    1.000
    O19      O        0.00680    0.25000    0.07450    1.000
    C25      C        0.67130    0.25000    0.71110    1.000
    C26      C        0.80750    0.25000    0.82720    1.000
    C27      C        0.60120    0.25000    0.64120    1.000
    C28      C        0.88180    0.25000    0.88820    1.000
    O20      O        0.49320    0.75000    0.57450    1.000
    C29      C        0.82870    0.75000    0.21110    1.000
    C30      C        0.69250    0.75000    0.32720    1.000
    C31      C        0.89880    0.75000    0.14120    1.000
    C32      C        0.61820    0.75000    0.38820    1.000
