# CIF file generated by openbabel 3.1.0, see https://openbabel.org
data_I
_chemical_name_common 'HORCUN_clean'
_cell_length_a 6.5495
_cell_length_b 9.5384
_cell_length_c 17.1693
_cell_angle_alpha 90
_cell_angle_beta 90
_cell_angle_gamma 90
_space_group_name_H-M_alt 'P 1'
_space_group_name_Hall 'P 1'
loop_
    _symmetry_equiv_pos_as_xyz
    x,y,z
loop_
    _atom_site_label
    _atom_site_type_symbol
    _atom_site_fract_x
    _atom_site_fract_y
    _atom_site_fract_z
    _atom_site_occupancy
    Er1      Er       0.75000    0.78338    0.62035    1.000
    Er2      Er       0.25000    0.71662    0.12035    1.000
    Er3      Er       0.25000    0.21662    0.37965    1.000
    Er4      Er       0.75000    0.28338    0.87965    1.000
    H1       H        0.75000    0.22890    0.65190    1.000
    H2       H        0.25000    0.27110    0.15190    1.000
    H3       H        0.25000    0.77110    0.34810    1.000
    H4       H        0.75000    0.72890    0.84810    1.000
    C1       C        0.75000    0.62910    0.45110    1.000
    C2       C        0.75000    0.50210    0.50540    1.000
    C3       C        0.75000    0.35970    0.48400    1.000
    C4       C        0.75000    0.30840    0.40060    1.000
    C5       C        0.75000    0.29730    0.61340    1.000
    C6       C        0.75000    0.43780    0.63450    1.000
    C7       C        0.75000    0.49180    0.71670    1.000
    C8       C        0.25000    0.87090    0.95110    1.000
    C9       C        0.25000    0.99790    0.00540    1.000
    C10      C        0.25000    0.14030    0.98400    1.000
    C11      C        0.25000    0.19160    0.90060    1.000
    C12      C        0.25000    0.20270    0.11340    1.000
    C13      C        0.25000    0.06220    0.13450    1.000
    C14      C        0.25000    0.00820    0.21670    1.000
    C15      C        0.25000    0.37090    0.54890    1.000
    C16      C        0.25000    0.49790    0.49460    1.000
    C17      C        0.25000    0.64030    0.51600    1.000
    C18      C        0.25000    0.69160    0.59940    1.000
    C19      C        0.25000    0.70270    0.38660    1.000
    C20      C        0.25000    0.56220    0.36550    1.000
    C21      C        0.25000    0.50820    0.28330    1.000
    C22      C        0.75000    0.12910    0.04890    1.000
    C23      C        0.75000    0.00210    0.99460    1.000
    C24      C        0.75000    0.85970    0.01600    1.000
    C25      C        0.75000    0.80840    0.09940    1.000
    C26      C        0.75000    0.79730    0.88660    1.000
    C27      C        0.75000    0.93780    0.86550    1.000
    C28      C        0.75000    0.99180    0.78330    1.000
    N1       N        0.75000    0.53650    0.58057    1.000
    N2       N        0.75000    0.25860    0.53840    1.000
    N3       N        0.25000    0.96350    0.08057    1.000
    N4       N        0.25000    0.24140    0.03840    1.000
    N5       N        0.25000    0.46350    0.41943    1.000
    N6       N        0.25000    0.74140    0.46160    1.000
    N7       N        0.75000    0.03650    0.91943    1.000
    N8       N        0.75000    0.75860    0.96160    1.000
    O1       O        0.91840    0.28690    0.36922    1.000
    O2       O        0.08160    0.21310    0.86922    1.000
    O3       O        0.41840    0.71310    0.63078    1.000
    O4       O        0.58160    0.78690    0.13078    1.000
    O5       O        0.08160    0.71310    0.63078    1.000
    O6       O        0.91840    0.78690    0.13078    1.000
    O7       O        0.58160    0.28690    0.36922    1.000
    O8       O        0.41840    0.21310    0.86922    1.000
    O9       O        0.75000    0.74630    0.48701    1.000
    O10      O        0.75000    0.61000    0.38082    1.000
    O11      O        0.75000    0.40500    0.77014    1.000
    O12      O        0.75000    0.62180    0.72443    1.000
    O13      O        0.25000    0.75370    0.98701    1.000
    O14      O        0.25000    0.89000    0.88082    1.000
    O15      O        0.25000    0.09500    0.27014    1.000
    O16      O        0.25000    0.87820    0.22443    1.000
    O17      O        0.25000    0.25370    0.51299    1.000
    O18      O        0.25000    0.39000    0.61918    1.000
    O19      O        0.25000    0.59500    0.22986    1.000
    O20      O        0.25000    0.37820    0.27557    1.000
    O21      O        0.75000    0.24630    0.01299    1.000
    O22      O        0.75000    0.11000    0.11918    1.000
    O23      O        0.75000    0.90500    0.72986    1.000
    O24      O        0.75000    0.12180    0.77557    1.000
