data_functionalizedCrystal
_audit_creation_method	'EQeq! by Chris Wilmer'
_symmetry_space_group_name_H-M	'P1'
_symmetry_Int_Tables_number	1
_symmetry_cell_setting	triclinic
loop_
_symmetry_equiv_pos_as_xyz
  x,y,z
_cell_length_a	24.934
_cell_length_b	13.2275
_cell_length_c	16.234
_cell_angle_alpha	90
_cell_angle_beta	127.52
_cell_angle_gamma	90
loop_
_atom_site_label
_atom_site_type_symbol
_atom_site_fract_x
_atom_site_fract_y
_atom_site_fract_z
_atom_site_charge
Mof_Cd	Cd	0.17145	0.20028	0.38257	0.448
Mof_C 	C 	0.1469	0.3952	0.5672	-0.091
Mof_C 	C 	0.0857	0.4101	0.5455	-0.024
Mof_H 	H 	0.0486	0.3713	0.4954	0.022
Mof_C 	C 	0.0793	0.4862	0.6005	-0.014
Mof_H 	H 	0.0365	0.502	0.5805	0.018
Mof_C 	C 	0.1356	0.5381	0.6841	-0.101
Mof_C 	C 	0.1967	0.5063	0.7133	-0.002
Mof_H 	H 	0.236	0.5312	0.7742	0.049
Mof_C 	C 	0.2018	0.4366	0.6532	-0.025
Mof_H 	H 	0.2444	0.4187	0.6735	0.066
Mof_C 	C 	0.1531	0.3239	0.5027	0.356
Mof_C 	C 	0.1279	0.6149	0.7434	0.383
Mof_C 	C 	0.0778	0.1061	0.1958	0.435
Mof_C 	C 	0.0376	0.0516	0.0948	-0.298
Mof_C 	C 	0.9683	0.0517	0.0331	0.242
Mof_H 	H 	0.9461	0.0877	0.0534	-0.032
Mof_C 	C 	0.0689	0.0022	0.06	0.172
Mof_H 	H 	0.1158	0.0047	0.0992	-0.016
Mof_O 	O 	0.10006	0.2863	0.4217	-0.442
Mof_O 	O 	0.21067	0.299	0.5308	-0.309
Mof_O 	O 	0.18056	0.6531	0.82	-0.308
Mof_O 	O 	0.0698	0.6381	0.7098	-0.439
Mof_O 	O 	0.1421	0.1037	0.2492	-0.322
Mof_O 	O 	0.04968	0.1497	0.2268	-0.456
Mof_Cd	Cd	0.67145	0.70028	0.38257	0.448
Mof_C 	C 	0.6469	0.8952	0.5672	-0.094
Mof_C 	C 	0.5857	0.9101	0.5455	-0.016
Mof_H 	H 	0.5486	0.8713	0.4954	0.034
Mof_C 	C 	0.5793	0.9862	0.6005	-0.015
Mof_H 	H 	0.5365	0.002	0.5805	0.037
Mof_C 	C 	0.6356	0.0381	0.6841	-0.094
Mof_C 	C 	0.6967	0.0063	0.7133	-0.005
Mof_H 	H 	0.736	0.0312	0.7742	0.05
Mof_C 	C 	0.7018	0.9366	0.6532	-0.019
Mof_H 	H 	0.7444	0.9187	0.6735	0.064
Mof_C 	C 	0.6531	0.8239	0.5027	0.362
Mof_C 	C 	0.6279	0.1149	0.7434	0.385
Mof_C 	C 	0.5778	0.6061	0.1958	0.37
Mof_C 	C 	0.5376	0.5516	0.0948	-0.088
Mof_C 	C 	0.4683	0.5517	0.0331	-0.013
Mof_H 	H 	0.4461	0.5877	0.0534	0.039
Mof_C 	C 	0.5689	0.5022	0.06	-0.021
Mof_H 	H 	0.6158	0.5047	0.0992	0.053
Mof_O 	O 	0.60006	0.7863	0.4217	-0.444
Mof_O 	O 	0.71067	0.799	0.5308	-0.31
Mof_O 	O 	0.68056	0.1531	0.82	-0.308
Mof_O 	O 	0.5698	0.1381	0.7098	-0.436
Mof_O 	O 	0.6421	0.6037	0.2492	-0.304
Mof_O 	O 	0.54968	0.6497	0.2268	-0.428
Mof_Cd	Cd	0.82855	0.20028	0.11743	0.454
Mof_C 	C 	0.8531	0.3952	0.9328	-0.081
Mof_C 	C 	0.9143	0.4101	0.9545	-0.019
Mof_H 	H 	0.9514	0.3713	0.0046	0.056
Mof_C 	C 	0.9207	0.4862	0.8995	-0.009
Mof_H 	H 	0.9635	0.502	0.9195	0.057
Mof_C 	C 	0.8644	0.5381	0.8159	-0.086
Mof_C 	C 	0.8033	0.5063	0.7867	-0.003
Mof_H 	H 	0.764	0.5312	0.7258	0.051
Mof_C 	C 	0.7982	0.4366	0.8468	-0.023
Mof_H 	H 	0.7556	0.4187	0.8265	0.067
Mof_C 	C 	0.8469	0.3239	0.9973	0.351
Mof_C 	C 	0.8721	0.6149	0.7566	0.377
Mof_C 	C 	0.9222	0.1061	0.3042	0.294
Mof_C 	C 	0.9624	0.0516	0.4052	0.124
Mof_C 	C 	0.0317	0.0517	0.4669	-0.258
Mof_H 	H 	0.0539	0.0877	0.4466	0.112
Mof_C 	C 	0.9311	0.0022	0.44	-0.208
Mof_H 	H 	0.8842	0.0047	0.4008	0.12
Mof_O 	O 	0.89994	0.2863	0.0783	-0.411
Mof_O 	O 	0.78933	0.299	0.9692	-0.306
Mof_O 	O 	0.81944	0.6531	0.68	-0.303
Mof_O 	O 	0.9302	0.6381	0.7902	-0.4
Mof_O 	O 	0.8579	0.1037	0.2508	-0.283
Mof_O 	O 	0.95032	0.1497	0.2732	-0.368
Mof_Cd	Cd	0.32855	0.70028	0.11743	0.447
Mof_C 	C 	0.3531	0.8952	0.9328	-0.096
Mof_C 	C 	0.4143	0.9101	0.9545	-0.012
Mof_H 	H 	0.4514	0.8713	0.0046	0.032
Mof_C 	C 	0.4207	0.9862	0.8995	-0.016
Mof_H 	H 	0.4635	0.002	0.9195	0.038
Mof_C 	C 	0.3644	0.0381	0.8159	-0.094
Mof_C 	C 	0.3033	0.0063	0.7867	-0.006
Mof_H 	H 	0.264	0.0312	0.7258	0.051
Mof_C 	C 	0.2982	0.9366	0.8468	-0.019
Mof_H 	H 	0.2556	0.9187	0.8265	0.065
Mof_C 	C 	0.3469	0.8239	0.9973	0.364
Mof_C 	C 	0.3721	0.1149	0.7566	0.385
Mof_C 	C 	0.4222	0.6061	0.3042	0.371
Mof_C 	C 	0.4624	0.5516	0.4052	-0.092
Mof_C 	C 	0.5317	0.5517	0.4669	-0.007
Mof_H 	H 	0.5539	0.5877	0.4466	0.038
Mof_C 	C 	0.4311	0.5022	0.44	-0.016
Mof_H 	H 	0.3842	0.5047	0.4008	0.051
Mof_O 	O 	0.39994	0.7863	0.0783	-0.445
Mof_O 	O 	0.28933	0.799	0.9692	-0.31
Mof_O 	O 	0.31944	0.1531	0.68	-0.309
Mof_O 	O 	0.4302	0.1381	0.7902	-0.436
Mof_O 	O 	0.3579	0.6037	0.2508	-0.306
Mof_O 	O 	0.45032	0.6497	0.2732	-0.428
Mof_Cd	Cd	0.82855	0.79972	0.61743	0.454
Mof_C 	C 	0.8531	0.6048	0.4328	-0.084
Mof_C 	C 	0.9143	0.5899	0.4545	-0.013
Mof_H 	H 	0.9514	0.6287	0.5046	0.054
Mof_C 	C 	0.9207	0.5138	0.3995	-0.012
Mof_H 	H 	0.9635	0.498	0.4195	0.059
Mof_C 	C 	0.8644	0.4619	0.3159	-0.084
Mof_C 	C 	0.8033	0.4937	0.2867	-0.005
Mof_H 	H 	0.764	0.4688	0.2258	0.051
Mof_C 	C 	0.7982	0.5634	0.3468	-0.021
Mof_H 	H 	0.7556	0.5813	0.3265	0.066
Mof_C 	C 	0.8469	0.6761	0.4973	0.354
Mof_C 	C 	0.8721	0.3851	0.2566	0.376
Mof_C 	C 	0.9222	0.8939	0.8042	0.294
Mof_C 	C 	0.9624	0.9484	0.9052	0.121
Mof_C 	C 	0.0317	0.9483	0.9669	-0.255
Mof_H 	H 	0.0539	0.9123	0.9466	0.111
Mof_C 	C 	0.9311	0.9978	0.94	-0.209
Mof_H 	H 	0.8842	0.9953	0.9008	0.12
Mof_O 	O 	0.89994	0.7137	0.5783	-0.412
Mof_O 	O 	0.78933	0.701	0.4692	-0.306
Mof_O 	O 	0.81944	0.3469	0.18	-0.302
Mof_O 	O 	0.9302	0.3619	0.2902	-0.399
Mof_O 	O 	0.8579	0.8963	0.7508	-0.283
Mof_O 	O 	0.95032	0.8503	0.7732	-0.369
Mof_Cd	Cd	0.32855	0.29972	0.61743	0.447
Mof_C 	C 	0.3531	0.1048	0.4328	-0.093
Mof_C 	C 	0.4143	0.0899	0.4545	-0.017
Mof_H 	H 	0.4514	0.1287	0.5046	0.034
Mof_C 	C 	0.4207	0.0138	0.3995	-0.014
Mof_H 	H 	0.4635	0.998	0.4195	0.037
Mof_C 	C 	0.3644	0.9619	0.3159	-0.095
Mof_C 	C 	0.3033	0.9937	0.2867	-0.004
Mof_H 	H 	0.264	0.9688	0.2258	0.05
Mof_C 	C 	0.2982	0.0634	0.3468	-0.022
Mof_H 	H 	0.2556	0.0813	0.3265	0.066
Mof_C 	C 	0.3469	0.1761	0.4973	0.361
Mof_C 	C 	0.3721	0.8851	0.2566	0.385
Mof_C 	C 	0.4222	0.3939	0.8042	0.372
Mof_C 	C 	0.4624	0.4484	0.9052	-0.095
Mof_C 	C 	0.5317	0.4483	0.9669	-0.003
Mof_H 	H 	0.5539	0.4123	0.9466	0.036
Mof_C 	C 	0.4311	0.4978	0.94	-0.012
Mof_H 	H 	0.3842	0.4953	0.9008	0.049
Mof_O 	O 	0.39994	0.2137	0.5783	-0.444
Mof_O 	O 	0.28933	0.201	0.4692	-0.31
Mof_O 	O 	0.31944	0.8469	0.18	-0.309
Mof_O 	O 	0.4302	0.8619	0.2902	-0.437
Mof_O 	O 	0.3579	0.3963	0.7508	-0.306
Mof_O 	O 	0.45032	0.3503	0.7732	-0.429
Mof_Cd	Cd	0.17145	0.79972	0.88257	0.447
Mof_C 	C 	0.1469	0.6048	0.0672	-0.091
Mof_C 	C 	0.0857	0.5899	0.0455	-0.026
Mof_H 	H 	0.0486	0.6287	0.9954	0.023
Mof_C 	C 	0.0793	0.5138	0.1005	-0.013
Mof_H 	H 	0.0365	0.498	0.0805	0.018
Mof_C 	C 	0.1356	0.4619	0.1841	-0.102
Mof_C 	C 	0.1967	0.4937	0.2133	-0.001
Mof_H 	H 	0.236	0.4688	0.2742	0.048
Mof_C 	C 	0.2018	0.5634	0.1532	-0.026
Mof_H 	H 	0.2444	0.5813	0.1735	0.066
Mof_C 	C 	0.1531	0.6761	0.0027	0.356
Mof_C 	C 	0.1279	0.3851	0.2434	0.383
Mof_C 	C 	0.0778	0.8939	0.6958	0.435
Mof_C 	C 	0.0376	0.9484	0.5948	-0.298
Mof_C 	C 	0.9683	0.9483	0.5331	0.24
Mof_H 	H 	0.9461	0.9123	0.5534	-0.032
Mof_C 	C 	0.0689	0.9978	0.56	0.174
Mof_H 	H 	0.1158	0.9953	0.5992	-0.016
Mof_O 	O 	0.10006	0.7137	0.9217	-0.441
Mof_O 	O 	0.21067	0.701	0.0308	-0.309
Mof_O 	O 	0.18056	0.3469	0.32	-0.308
Mof_O 	O 	0.0698	0.3619	0.2098	-0.439
Mof_O 	O 	0.1421	0.8963	0.7492	-0.322
Mof_O 	O 	0.04968	0.8503	0.7268	-0.456
Mof_Cd	Cd	0.67145	0.29972	0.88257	0.448
Mof_C 	C 	0.6469	0.1048	0.0672	-0.092
Mof_C 	C 	0.5857	0.0899	0.0455	-0.019
Mof_H 	H 	0.5486	0.1287	0.9954	0.036
Mof_C 	C 	0.5793	0.0138	0.1005	-0.013
Mof_H 	H 	0.5365	0.998	0.0805	0.036
Mof_C 	C 	0.6356	0.9619	0.1841	-0.095
Mof_C 	C 	0.6967	0.9937	0.2133	-0.004
Mof_H 	H 	0.736	0.9688	0.2742	0.05
Mof_C 	C 	0.7018	0.0634	0.1532	-0.021
Mof_H 	H 	0.7444	0.0813	0.1735	0.064
Mof_C 	C 	0.6531	0.1761	0.0027	0.36
Mof_C 	C 	0.6279	0.8851	0.2434	0.385
Mof_C 	C 	0.5778	0.3939	0.6958	0.371
Mof_C 	C 	0.5376	0.4484	0.5948	-0.091
Mof_C 	C 	0.4683	0.4483	0.5331	-0.008
Mof_H 	H 	0.4461	0.4123	0.5534	0.038
Mof_C 	C 	0.5689	0.4978	0.56	-0.017
Mof_H 	H 	0.6158	0.4953	0.5992	0.052
Mof_O 	O 	0.60006	0.2137	0.9217	-0.443
Mof_O 	O 	0.71067	0.201	0.0308	-0.31
Mof_O 	O 	0.68056	0.8469	0.32	-0.308
Mof_O 	O 	0.5698	0.8619	0.2098	-0.437
Mof_O 	O 	0.6421	0.3963	0.7492	-0.305
Mof_O 	O 	0.54968	0.3503	0.7268	-0.428
Mof_Ca	Ca	1.33855e-17	0.28959	0.25	1.386
Mof_Ca	Ca	0.5	0.78959	0.25	1.501
Mof_Ca	Ca	1.07084e-16	0.71041	0.75	1.386
Mof_Ca	Ca	0.5	0.21041	0.75	1.501
_end
