# CIF file generated by openbabel 3.1.0, see https://openbabel.org
data_I
_chemical_name_common 'image0'
_cell_length_a 8.4156
_cell_length_b 11.8504
_cell_length_c 8.9474
_cell_angle_alpha 90
_cell_angle_beta 90
_cell_angle_gamma 90
_space_group_name_H-M_alt 'P 1'
_space_group_name_Hall 'P 1'
loop_
    _symmetry_equiv_pos_as_xyz
    x,y,z
loop_
    _atom_site_label
    _atom_site_type_symbol
    _atom_site_fract_x
    _atom_site_fract_y
    _atom_site_fract_z
    _atom_site_occupancy
    O1       O        0.25631    0.40623    0.36867    1.000
    O2       O        0.40664    0.18276    0.41311    1.000
    O3       O        0.56200    0.19299    0.61162    1.000
    C1       C        0.52170    0.22121    0.48310    1.000
    H1       H        0.58310    0.27570    0.43550    1.000
    O4       O        0.24369    0.59377    0.36867    1.000
    O5       O        0.09336    0.81724    0.41311    1.000
    O6       O        0.93800    0.80701    0.61162    1.000
    C2       C        0.97830    0.77879    0.48310    1.000
    H2       H        0.91690    0.72430    0.43550    1.000
    O7       O        0.24369    0.90623    0.13133    1.000
    O8       O        0.09336    0.68276    0.08689    1.000
    O9       O        0.93800    0.69299    0.88838    1.000
    C3       C        0.97830    0.72121    0.01690    1.000
    H3       H        0.91690    0.77570    0.06450    1.000
    O10      O        0.25631    0.09377    0.13133    1.000
    O11      O        0.40664    0.31724    0.08689    1.000
    O12      O        0.56200    0.30701    0.88838    1.000
    C4       C        0.52170    0.27879    0.01690    1.000
    H4       H        0.58310    0.22430    0.06450    1.000
    O13      O        0.74369    0.59377    0.63133    1.000
    O14      O        0.59336    0.81724    0.58689    1.000
    O15      O        0.43800    0.80701    0.38838    1.000
    C5       C        0.47830    0.77879    0.51690    1.000
    H5       H        0.41690    0.72430    0.56450    1.000
    O16      O        0.75631    0.40623    0.63133    1.000
    O17      O        0.90664    0.18276    0.58689    1.000
    O18      O        0.06200    0.19299    0.38838    1.000
    C6       C        0.02170    0.22121    0.51690    1.000
    H6       H        0.08310    0.27570    0.56450    1.000
    O19      O        0.75631    0.09377    0.86867    1.000
    O20      O        0.90664    0.31724    0.91311    1.000
    O21      O        0.06200    0.30701    0.11162    1.000
    C7       C        0.02170    0.27879    0.98310    1.000
    H7       H        0.08310    0.22430    0.93550    1.000
    O22      O        0.74369    0.90623    0.86867    1.000
    O23      O        0.59336    0.68276    0.91311    1.000
    O24      O        0.43800    0.69299    0.11162    1.000
    C8       C        0.47830    0.72121    0.98310    1.000
    H8       H        0.41690    0.77570    0.93550    1.000
    Fe1      Fe       0.25243    0.25000    0.25000    1.000
    Fe2      Fe       0.24757    0.75000    0.25000    1.000
    Fe3      Fe       0.74757    0.75000    0.75000    1.000
    Fe4      Fe       0.75243    0.25000    0.75000    1.000
    C9       C        0.25000    0.50000    0.30650    1.000
    H9       H        0.25000    0.50000    0.20260    1.000
    C10      C        0.25000    0.00000    0.19350    1.000
    H10      H        0.25000    0.00000    0.29740    1.000
    C11      C        0.75000    0.50000    0.69350    1.000
    H11      H        0.75000    0.50000    0.79740    1.000
    C12      C        0.75000    0.00000    0.80650    1.000
    H12      H        0.75000    0.00000    0.70260    1.000
