data_functionalizedCrystal
_audit_creation_method	'EQeq! by Chris Wilmer'
_symmetry_space_group_name_H-M	'P1'
_symmetry_Int_Tables_number	1
_symmetry_cell_setting	triclinic
loop_
_symmetry_equiv_pos_as_xyz
  x,y,z
_cell_length_a	11.5837
_cell_length_b	14.7422
_cell_length_c	11.6194
_cell_angle_alpha	90
_cell_angle_beta	102.319
_cell_angle_gamma	90
loop_
_atom_site_label
_atom_site_type_symbol
_atom_site_fract_x
_atom_site_fract_y
_atom_site_fract_z
_atom_site_charge
Mof_Zn	Zn	0.99244	0.03205	0.74933	1.243
Mof_O 	O 	0.77412	0.00999	0.48566	-0.233
Mof_O 	O 	0.86493	0.95349	0.66118	-0.396
Mof_O 	O 	0.82222	0.83402	0.2218	-0.257
Mof_O 	O 	0.93251	0.91245	0.36848	-0.405
Mof_O 	O 	0.58823	0.56702	0.33444	-0.404
Mof_O 	O 	0.73029	0.50644	0.47455	-0.228
Mof_O 	O 	0.57525	0.58652	0.62525	-0.399
Mof_O 	O 	0.63964	0.69345	0.75696	-0.266
Mof_C 	C 	0.77315	0.84956	0.51788	-0.03
Mof_C 	C 	0.79071	0.80944	0.41383	-0.024
Mof_C 	C 	0.7555	0.7196	0.38914	-0.01
Mof_H 	H 	0.767	0.6934	0.3196	0.076
Mof_C 	C 	0.70378	0.66795	0.46506	-0.024
Mof_C 	C 	0.68644	0.70812	0.56935	-0.027
Mof_C 	C 	0.72034	0.79819	0.59319	-0.008
Mof_H 	H 	0.7072	0.8249	0.6618	0.08
Mof_C 	C 	0.80726	0.9465	0.5537	0.339
Mof_C 	C 	0.85216	0.85535	0.32751	0.315
Mof_C 	C 	0.67158	0.57102	0.42589	0.342
Mof_C 	C 	0.63045	0.65974	0.65769	0.314
Mof_Zn	Zn	0.50756	0.53205	0.75067	1.246
Mof_O 	O 	0.72588	0.50999	0.01434	-0.226
Mof_O 	O 	0.63507	0.45349	0.83882	-0.397
Mof_O 	O 	0.67778	0.33402	0.2782	-0.257
Mof_O 	O 	0.56749	0.41245	0.13152	-0.407
Mof_O 	O 	0.91177	0.06702	0.16556	-0.401
Mof_O 	O 	0.76971	0.00644	0.02545	-0.225
Mof_O 	O 	0.92475	0.08652	0.87475	-0.403
Mof_O 	O 	0.86036	0.19345	0.74304	-0.268
Mof_C 	C 	0.72685	0.34956	0.98212	-0.035
Mof_C 	C 	0.70929	0.30944	0.08617	-0.019
Mof_C 	C 	0.7445	0.2196	0.11086	-0.015
Mof_H 	H 	0.733	0.1934	0.1804	0.078
Mof_C 	C 	0.79622	0.16795	0.03494	-0.016
Mof_C 	C 	0.81356	0.20812	0.93065	-0.036
Mof_C 	C 	0.77966	0.29819	0.90681	-0.004
Mof_H 	H 	0.7928	0.3249	0.8382	0.078
Mof_C 	C 	0.69274	0.4465	0.9463	0.335
Mof_C 	C 	0.64784	0.35535	0.17249	0.314
Mof_C 	C 	0.82842	0.07102	0.07411	0.34
Mof_C 	C 	0.86955	0.15974	0.84231	0.316
Mof_Zn	Zn	0.00756	0.96795	0.25067	1.244
Mof_O 	O 	0.22588	0.99001	0.51434	-0.232
Mof_O 	O 	0.13507	0.04651	0.33882	-0.395
Mof_O 	O 	0.17778	0.16598	0.7782	-0.256
Mof_O 	O 	0.06749	0.08755	0.63152	-0.404
Mof_O 	O 	0.41177	0.43298	0.66556	-0.403
Mof_O 	O 	0.26971	0.49356	0.52545	-0.227
Mof_O 	O 	0.42475	0.41348	0.37475	-0.398
Mof_O 	O 	0.36036	0.30655	0.24304	-0.266
Mof_C 	C 	0.22685	0.15044	0.48212	-0.03
Mof_C 	C 	0.20929	0.19056	0.58617	-0.024
Mof_C 	C 	0.2445	0.2804	0.61086	-0.01
Mof_H 	H 	0.233	0.3066	0.6804	0.076
Mof_C 	C 	0.29622	0.33205	0.53494	-0.024
Mof_C 	C 	0.31356	0.29188	0.43065	-0.027
Mof_C 	C 	0.27966	0.20181	0.40681	-0.008
Mof_H 	H 	0.2928	0.1751	0.3382	0.08
Mof_C 	C 	0.19274	0.0535	0.4463	0.339
Mof_C 	C 	0.14784	0.14465	0.67249	0.315
Mof_C 	C 	0.32842	0.42898	0.57411	0.342
Mof_C 	C 	0.36955	0.34026	0.34231	0.314
Mof_Zn	Zn	0.49244	0.46795	0.24933	1.246
Mof_O 	O 	0.27412	0.49001	0.98566	-0.226
Mof_O 	O 	0.36493	0.54651	0.16118	-0.397
Mof_O 	O 	0.32222	0.66598	0.7218	-0.257
Mof_O 	O 	0.43251	0.58755	0.86848	-0.407
Mof_O 	O 	0.08823	0.93298	0.83444	-0.401
Mof_O 	O 	0.23029	0.99356	0.97455	-0.225
Mof_O 	O 	0.07525	0.91348	0.12525	-0.403
Mof_O 	O 	0.13964	0.80655	0.25696	-0.268
Mof_C 	C 	0.27315	0.65044	0.01788	-0.035
Mof_C 	C 	0.29071	0.69056	0.91383	-0.019
Mof_C 	C 	0.2555	0.7804	0.88914	-0.015
Mof_H 	H 	0.267	0.8066	0.8196	0.078
Mof_C 	C 	0.20378	0.83205	0.96506	-0.016
Mof_C 	C 	0.18644	0.79188	0.06935	-0.036
Mof_C 	C 	0.22034	0.70181	0.09319	-0.004
Mof_H 	H 	0.2072	0.6751	0.1618	0.078
Mof_C 	C 	0.30726	0.5535	0.0537	0.335
Mof_C 	C 	0.35216	0.64465	0.82751	0.314
Mof_C 	C 	0.17158	0.92898	0.92589	0.34
Mof_C 	C 	0.13045	0.84026	0.15769	0.316
_end
