# CIF file generated by openbabel 3.1.0, see https://openbabel.org
data_I
_chemical_name_common 'image0'
_cell_length_a 10.4787
_cell_length_b 20.0091
_cell_length_c 14.9594
_cell_angle_alpha 90
_cell_angle_beta 90
_cell_angle_gamma 90
_space_group_name_H-M_alt 'P 1'
_space_group_name_Hall 'P 1'
loop_
    _symmetry_equiv_pos_as_xyz
    x,y,z
loop_
    _atom_site_label
    _atom_site_type_symbol
    _atom_site_fract_x
    _atom_site_fract_y
    _atom_site_fract_z
    _atom_site_occupancy
    Zn1      Zn       0.07352    0.75628    0.38658    1.000
    Zn2      Zn       0.90568    0.58893    0.43416    1.000
    Zn3      Zn       0.36740    0.08386    0.98210    1.000
    P1       P        0.30773    0.76569    0.52151    1.000
    P2       P        0.13640    0.44127    0.07896    1.000
    O1       O        0.07530    0.83840    0.31400    1.000
    O2       O        0.92000    0.67910    0.18880    1.000
    O3       O        0.24500    0.74580    0.43480    1.000
    O4       O        0.94580    0.75800    0.47960    1.000
    O5       O        0.08700    0.93110    0.20190    1.000
    H1       H        0.14180    0.91100    0.17340    1.000
    O6       O        0.90790    0.59320    0.30200    1.000
    O7       O        0.73580    0.76710    0.39770    1.000
    H2       H        0.73790    0.80790    0.40260    1.000
    O8       O        0.29280    0.84000    0.53970    1.000
    O9       O        0.19070    0.50630    0.05050    1.000
    O10      O        0.24410    0.39350    0.10300    1.000
    O11      O        0.05290    0.40860    0.01190    1.000
    O12      O        0.94340    0.54400    0.83780    1.000
    H3       H        0.91840    0.56720    0.79620    1.000
    Zn4      Zn       0.42648    0.74372    0.88658    1.000
    Zn5      Zn       0.59432    0.91107    0.93416    1.000
    Zn6      Zn       0.13260    0.41614    0.48210    1.000
    P3       P        0.19227    0.73431    0.02151    1.000
    P4       P        0.36360    0.05873    0.57896    1.000
    O13      O        0.42470    0.66160    0.81400    1.000
    O14      O        0.58000    0.82090    0.68880    1.000
    O15      O        0.25500    0.75420    0.93480    1.000
    O16      O        0.55420    0.74200    0.97960    1.000
    O17      O        0.41300    0.56890    0.70190    1.000
    H4       H        0.35820    0.58900    0.67340    1.000
    O18      O        0.59210    0.90680    0.80200    1.000
    O19      O        0.76420    0.73290    0.89770    1.000
    H5       H        0.76210    0.69210    0.90260    1.000
    O20      O        0.20720    0.66000    0.03970    1.000
    O21      O        0.30930    0.99370    0.55050    1.000
    O22      O        0.25590    0.10650    0.60300    1.000
    O23      O        0.44710    0.09140    0.51190    1.000
    O24      O        0.55660    0.95600    0.33780    1.000
    H6       H        0.58160    0.93280    0.29620    1.000
    Zn7      Zn       0.92648    0.75628    0.11342    1.000
    Zn8      Zn       0.09432    0.58893    0.06584    1.000
    Zn9      Zn       0.63260    0.08386    0.51790    1.000
    P5       P        0.69227    0.76569    0.97849    1.000
    P6       P        0.86360    0.44127    0.42104    1.000
    O25      O        0.92470    0.83840    0.18600    1.000
    O26      O        0.08000    0.67910    0.31120    1.000
    O27      O        0.75500    0.74580    0.06520    1.000
    O28      O        0.05420    0.75800    0.02040    1.000
    O29      O        0.91300    0.93110    0.29810    1.000
    H7       H        0.85820    0.91100    0.32660    1.000
    O30      O        0.09210    0.59320    0.19800    1.000
    O31      O        0.26420    0.76710    0.10230    1.000
    H8       H        0.26210    0.80790    0.09740    1.000
    O32      O        0.70720    0.84000    0.96030    1.000
    O33      O        0.80930    0.50630    0.44950    1.000
    O34      O        0.75590    0.39350    0.39700    1.000
    O35      O        0.94710    0.40860    0.48810    1.000
    O36      O        0.05660    0.54400    0.66220    1.000
    H9       H        0.08160    0.56720    0.70380    1.000
    Zn10     Zn       0.57352    0.74372    0.61342    1.000
    Zn11     Zn       0.40568    0.91107    0.56584    1.000
    Zn12     Zn       0.86740    0.41614    0.01790    1.000
    P7       P        0.80773    0.73431    0.47849    1.000
    P8       P        0.63640    0.05873    0.92104    1.000
    O37      O        0.57530    0.66160    0.68600    1.000
    O38      O        0.42000    0.82090    0.81120    1.000
    O39      O        0.74500    0.75420    0.56520    1.000
    O40      O        0.44580    0.74200    0.52040    1.000
    O41      O        0.58700    0.56890    0.79810    1.000
    H10      H        0.64180    0.58900    0.82660    1.000
    O42      O        0.40790    0.90680    0.69800    1.000
    O43      O        0.23580    0.73290    0.60230    1.000
    H11      H        0.23790    0.69210    0.59740    1.000
    O44      O        0.79280    0.66000    0.46030    1.000
    O45      O        0.69070    0.99370    0.94950    1.000
    O46      O        0.74410    0.10650    0.89700    1.000
    O47      O        0.55290    0.09140    0.98810    1.000
    O48      O        0.44340    0.95600    0.16220    1.000
    H12      H        0.41840    0.93280    0.20380    1.000
    Zn13     Zn       0.92648    0.24372    0.61342    1.000
    Zn14     Zn       0.09432    0.41107    0.56584    1.000
    Zn15     Zn       0.63260    0.91614    0.01790    1.000
    P9       P        0.69227    0.23431    0.47849    1.000
    P10      P        0.86360    0.55873    0.92104    1.000
    O49      O        0.92470    0.16160    0.68600    1.000
    O50      O        0.08000    0.32090    0.81120    1.000
    O51      O        0.75500    0.25420    0.56520    1.000
    O52      O        0.05420    0.24200    0.52040    1.000
    O53      O        0.91300    0.06890    0.79810    1.000
    H13      H        0.85820    0.08900    0.82660    1.000
    O54      O        0.09210    0.40680    0.69800    1.000
    O55      O        0.26420    0.23290    0.60230    1.000
    H14      H        0.26210    0.19210    0.59740    1.000
    O56      O        0.70720    0.16000    0.46030    1.000
    O57      O        0.80930    0.49370    0.94950    1.000
    O58      O        0.75590    0.60650    0.89700    1.000
    O59      O        0.94710    0.59140    0.98810    1.000
    O60      O        0.05660    0.45600    0.16220    1.000
    H15      H        0.08160    0.43280    0.20380    1.000
    Zn16     Zn       0.57352    0.25628    0.11342    1.000
    Zn17     Zn       0.40568    0.08893    0.06584    1.000
    Zn18     Zn       0.86740    0.58386    0.51790    1.000
    P11      P        0.80773    0.26569    0.97849    1.000
    P12      P        0.63640    0.94127    0.42104    1.000
    O61      O        0.57530    0.33840    0.18600    1.000
    O62      O        0.42000    0.17910    0.31120    1.000
    O63      O        0.74500    0.24580    0.06520    1.000
    O64      O        0.44580    0.25800    0.02040    1.000
    O65      O        0.58700    0.43110    0.29810    1.000
    H16      H        0.64180    0.41100    0.32660    1.000
    O66      O        0.40790    0.09320    0.19800    1.000
    O67      O        0.23580    0.26710    0.10230    1.000
    H17      H        0.23790    0.30790    0.09740    1.000
    O68      O        0.79280    0.34000    0.96030    1.000
    O69      O        0.69070    0.00630    0.44950    1.000
    O70      O        0.74410    0.89350    0.39700    1.000
    O71      O        0.55290    0.90860    0.48810    1.000
    O72      O        0.44340    0.04400    0.66220    1.000
    H18      H        0.41840    0.06720    0.70380    1.000
    Zn19     Zn       0.07352    0.24372    0.88658    1.000
    Zn20     Zn       0.90568    0.41107    0.93416    1.000
    Zn21     Zn       0.36740    0.91614    0.48210    1.000
    P13      P        0.30773    0.23431    0.02151    1.000
    P14      P        0.13640    0.55873    0.57896    1.000
    O73      O        0.07530    0.16160    0.81400    1.000
    O74      O        0.92000    0.32090    0.68880    1.000
    O75      O        0.24500    0.25420    0.93480    1.000
    O76      O        0.94580    0.24200    0.97960    1.000
    O77      O        0.08700    0.06890    0.70190    1.000
    H19      H        0.14180    0.08900    0.67340    1.000
    O78      O        0.90790    0.40680    0.80200    1.000
    O79      O        0.73580    0.23290    0.89770    1.000
    H20      H        0.73790    0.19210    0.90260    1.000
    O80      O        0.29280    0.16000    0.03970    1.000
    O81      O        0.19070    0.49370    0.55050    1.000
    O82      O        0.24410    0.60650    0.60300    1.000
    O83      O        0.05290    0.59140    0.51190    1.000
    O84      O        0.94340    0.45600    0.33780    1.000
    H21      H        0.91840    0.43280    0.29620    1.000
    Zn22     Zn       0.42648    0.25628    0.38658    1.000
    Zn23     Zn       0.59432    0.08893    0.43416    1.000
    Zn24     Zn       0.13260    0.58386    0.98210    1.000
    P15      P        0.19227    0.26569    0.52151    1.000
    P16      P        0.36360    0.94127    0.07896    1.000
    O85      O        0.42470    0.33840    0.31400    1.000
    O86      O        0.58000    0.17910    0.18880    1.000
    O87      O        0.25500    0.24580    0.43480    1.000
    O88      O        0.55420    0.25800    0.47960    1.000
    O89      O        0.41300    0.43110    0.20190    1.000
    H22      H        0.35820    0.41100    0.17340    1.000
    O90      O        0.59210    0.09320    0.30200    1.000
    O91      O        0.76420    0.26710    0.39770    1.000
    H23      H        0.76210    0.30790    0.40260    1.000
    O92      O        0.20720    0.34000    0.53970    1.000
    O93      O        0.30930    0.00630    0.05050    1.000
    O94      O        0.25590    0.89350    0.10300    1.000
    O95      O        0.44710    0.90860    0.01190    1.000
    O96      O        0.55660    0.04400    0.83780    1.000
    H24      H        0.58160    0.06720    0.79620    1.000
    P17      P        0.00000    0.88021    0.25000    1.000
    P18      P        0.00000    0.63798    0.25000    1.000
    P19      P        0.50000    0.61979    0.75000    1.000
    P20      P        0.50000    0.86202    0.75000    1.000
    P21      P        0.00000    0.11979    0.75000    1.000
    P22      P        0.00000    0.36202    0.75000    1.000
    P23      P        0.50000    0.38021    0.25000    1.000
    P24      P        0.50000    0.13798    0.25000    1.000
