# CIF file generated by openbabel 3.1.0, see https://openbabel.org
data_I
_chemical_name_common 'image0'
_cell_length_a 8.709
_cell_length_b 11.587
_cell_length_c 8.28
_cell_angle_alpha 90
_cell_angle_beta 90
_cell_angle_gamma 90
_space_group_name_H-M_alt 'P 1'
_space_group_name_Hall 'P 1'
loop_
    _symmetry_equiv_pos_as_xyz
    x,y,z
loop_
    _atom_site_label
    _atom_site_type_symbol
    _atom_site_fract_x
    _atom_site_fract_y
    _atom_site_fract_z
    _atom_site_occupancy
    C1       C        0.97029    0.21972    0.02571    1.000
    H1       H        0.91800    0.28040    0.08000    1.000
    O1       O        0.24059    0.40404    0.11873    1.000
    O2       O        0.08746    0.17983    0.09078    1.000
    O3       O        0.91591    0.18578    0.89362    1.000
    C2       C        0.52971    0.78028    0.02571    1.000
    H2       H        0.58200    0.71960    0.08000    1.000
    O4       O        0.25941    0.59596    0.11873    1.000
    O5       O        0.41254    0.82017    0.09078    1.000
    O6       O        0.58409    0.81422    0.89362    1.000
    C3       C        0.52971    0.71972    0.47429    1.000
    H3       H        0.58200    0.78040    0.42000    1.000
    O7       O        0.25941    0.90404    0.38127    1.000
    O8       O        0.41254    0.67983    0.40922    1.000
    O9       O        0.58409    0.68578    0.60638    1.000
    C4       C        0.97029    0.28028    0.47429    1.000
    H4       H        0.91800    0.21960    0.42000    1.000
    O10      O        0.24059    0.09596    0.38127    1.000
    O11      O        0.08746    0.32017    0.40922    1.000
    O12      O        0.91591    0.31422    0.60638    1.000
    C5       C        0.02971    0.78028    0.97429    1.000
    H5       H        0.08200    0.71960    0.92000    1.000
    O13      O        0.75941    0.59596    0.88127    1.000
    O14      O        0.91254    0.82017    0.90922    1.000
    O15      O        0.08409    0.81422    0.10638    1.000
    C6       C        0.47029    0.21972    0.97429    1.000
    H6       H        0.41800    0.28040    0.92000    1.000
    O16      O        0.74059    0.40404    0.88127    1.000
    O17      O        0.58746    0.17983    0.90922    1.000
    O18      O        0.41591    0.18578    0.10638    1.000
    C7       C        0.47029    0.28028    0.52571    1.000
    H7       H        0.41800    0.21960    0.58000    1.000
    O19      O        0.74059    0.09596    0.61873    1.000
    O20      O        0.58746    0.32017    0.59078    1.000
    O21      O        0.41591    0.31422    0.39362    1.000
    C8       C        0.02971    0.71972    0.52571    1.000
    H8       H        0.08200    0.78040    0.58000    1.000
    O22      O        0.75941    0.90404    0.61873    1.000
    O23      O        0.91254    0.67983    0.59078    1.000
    O24      O        0.08409    0.68578    0.39362    1.000
    C9       C        0.25000    0.50000    0.18840    1.000
    H9       H        0.25000    0.50000    0.30310    1.000
    C10      C        0.25000    0.00000    0.31160    1.000
    H10      H        0.25000    0.00000    0.19690    1.000
    C11      C        0.75000    0.50000    0.81160    1.000
    H11      H        0.75000    0.50000    0.69690    1.000
    C12      C        0.75000    0.00000    0.68840    1.000
    H12      H        0.75000    0.00000    0.80310    1.000
    Mg1      Mg       0.24103    0.25000    0.25000    1.000
    Mg2      Mg       0.25897    0.75000    0.25000    1.000
    Mg3      Mg       0.75897    0.75000    0.75000    1.000
    Mg4      Mg       0.74103    0.25000    0.75000    1.000
