# CIF file generated by openbabel 3.1.0, see https://openbabel.org
data_I
_chemical_name_common 'image0'
_cell_length_a 30.057
_cell_length_b 16.187
_cell_length_c 21.894
_cell_angle_alpha 90
_cell_angle_beta 114.478
_cell_angle_gamma 90
_space_group_name_H-M_alt 'P 1'
_space_group_name_Hall 'P 1'
loop_
    _symmetry_equiv_pos_as_xyz
    x,y,z
loop_
    _atom_site_label
    _atom_site_type_symbol
    _atom_site_fract_x
    _atom_site_fract_y
    _atom_site_fract_z
    _atom_site_occupancy
    Zn1      Zn       0.70158    0.54852    0.47437    1.000
    O1       O        0.85120    0.09250    0.00273    1.000
    O2       O        0.80627    0.19880    0.98350    1.000
    O3       O        0.18156    0.07630    0.37863    1.000
    O4       O        0.23874    0.17035    0.41953    1.000
    O5       O        0.76653    0.53668    0.54644    1.000
    O6       O        0.79696    0.66605    0.56158    1.000
    N1       N        0.99709    0.36424    0.97809    1.000
    C1       C        0.84463    0.16750    0.99102    1.000
    C2       C        0.88368    0.21879    0.98488    1.000
    C3       C        0.92691    0.18349    0.99048    1.000
    H1       H        0.93110    0.12670    0.99630    1.000
    C4       C        0.96390    0.23101    0.98756    1.000
    H2       H        0.99280    0.20620    0.99130    1.000
    C5       C        0.95827    0.31554    0.97910    1.000
    C6       C        0.91495    0.35175    0.97285    1.000
    H3       H        0.91080    0.40860    0.96700    1.000
    C7       C        0.87786    0.30366    0.97522    1.000
    H4       H        0.84860    0.32830    0.97030    1.000
    C8       C        0.04619    0.36007    0.02401    1.000
    C9       C        0.06695    0.31479    0.08354    1.000
    H5       H        0.04760    0.28180    0.09760    1.000
    C10      C        0.11695    0.32004    0.12113    1.000
    C11      C        0.14536    0.37267    0.09991    1.000
    H6       H        0.17890    0.37630    0.12560    1.000
    C12      C        0.12424    0.41886    0.04170    1.000
    H7       H        0.14340    0.45350    0.02850    1.000
    C13      C        0.07421    0.41301    0.00306    1.000
    C14      C        0.04083    0.45131    0.94146    1.000
    C15      C        0.04661    0.50795    0.89724    1.000
    H8       H        0.07720    0.52980    0.90570    1.000
    C16      C        0.00596    0.53107    0.84067    1.000
    H9       H        0.00950    0.56990    0.81170    1.000
    C17      C        0.95959    0.49767    0.82565    1.000
    C18      C        0.95318    0.44227    0.86970    1.000
    H10      H        0.92250    0.42050    0.86100    1.000
    C19      C        0.99381    0.42024    0.92719    1.000
    C20      C        0.14030    0.27133    0.18449    1.000
    C21      C        0.11941    0.19857    0.19353    1.000
    H11      H        0.09120    0.17860    0.15890    1.000
    C22      C        0.13993    0.15518    0.25331    1.000
    H12      H        0.12530    0.10660    0.25850    1.000
    C23      C        0.18238    0.18391    0.30585    1.000
    C24      C        0.20340    0.25410    0.29680    1.000
    H13      H        0.23190    0.27320    0.33140    1.000
    C25      C        0.18331    0.29829    0.23687    1.000
    H14      H        0.19870    0.34600    0.23170    1.000
    C26      C        0.20199    0.14090    0.37243    1.000
    C27      C        0.91770    0.52077    0.76160    1.000
    C28      C        0.91467    0.60015    0.73544    1.000
    H15      H        0.93860    0.63900    0.75850    1.000
    C29      C        0.87628    0.62179    0.67525    1.000
    H16      H        0.87470    0.67490    0.65830    1.000
    C30      C        0.84039    0.56508    0.64030    1.000
    C31      C        0.84328    0.48587    0.66511    1.000
    H17      H        0.81940    0.44720    0.64160    1.000
    C32      C        0.88196    0.46380    0.72542    1.000
    H18      H        0.88380    0.41020    0.74160    1.000
    C33      C        0.79757    0.59188    0.57769    1.000
    Zn2      Zn       0.20158    0.04852    0.47437    1.000
    O7       O        0.35120    0.59250    0.00273    1.000
    O8       O        0.30627    0.69880    0.98350    1.000
    O9       O        0.68156    0.57630    0.37863    1.000
    O10      O        0.73874    0.67035    0.41953    1.000
    O11      O        0.26653    0.03668    0.54644    1.000
    O12      O        0.29696    0.16605    0.56158    1.000
    N2       N        0.49709    0.86424    0.97809    1.000
    C34      C        0.34463    0.66750    0.99102    1.000
    C35      C        0.38368    0.71879    0.98488    1.000
    C36      C        0.42691    0.68349    0.99048    1.000
    H19      H        0.43110    0.62670    0.99630    1.000
    C37      C        0.46390    0.73101    0.98756    1.000
    H20      H        0.49280    0.70620    0.99130    1.000
    C38      C        0.45827    0.81554    0.97910    1.000
    C39      C        0.41495    0.85175    0.97285    1.000
    H21      H        0.41080    0.90860    0.96700    1.000
    C40      C        0.37786    0.80366    0.97522    1.000
    H22      H        0.34860    0.82830    0.97030    1.000
    C41      C        0.54619    0.86007    0.02401    1.000
    C42      C        0.56695    0.81479    0.08354    1.000
    H23      H        0.54760    0.78180    0.09760    1.000
    C43      C        0.61695    0.82004    0.12113    1.000
    C44      C        0.64536    0.87267    0.09991    1.000
    H24      H        0.67890    0.87630    0.12560    1.000
    C45      C        0.62424    0.91886    0.04170    1.000
    H25      H        0.64340    0.95350    0.02850    1.000
    C46      C        0.57421    0.91301    0.00306    1.000
    C47      C        0.54083    0.95131    0.94146    1.000
    C48      C        0.54661    0.00795    0.89724    1.000
    H26      H        0.57720    0.02980    0.90570    1.000
    C49      C        0.50596    0.03107    0.84067    1.000
    H27      H        0.50950    0.06990    0.81170    1.000
    C50      C        0.45959    0.99767    0.82565    1.000
    C51      C        0.45318    0.94227    0.86970    1.000
    H28      H        0.42250    0.92050    0.86100    1.000
    C52      C        0.49381    0.92024    0.92719    1.000
    C53      C        0.64030    0.77133    0.18449    1.000
    C54      C        0.61941    0.69857    0.19353    1.000
    H29      H        0.59120    0.67860    0.15890    1.000
    C55      C        0.63993    0.65518    0.25331    1.000
    H30      H        0.62530    0.60660    0.25850    1.000
    C56      C        0.68238    0.68391    0.30585    1.000
    C57      C        0.70340    0.75410    0.29680    1.000
    H31      H        0.73190    0.77320    0.33140    1.000
    C58      C        0.68331    0.79829    0.23687    1.000
    H32      H        0.69870    0.84600    0.23170    1.000
    C59      C        0.70199    0.64090    0.37243    1.000
    C60      C        0.41770    0.02077    0.76160    1.000
    C61      C        0.41467    0.10015    0.73544    1.000
    H33      H        0.43860    0.13900    0.75850    1.000
    C62      C        0.37628    0.12179    0.67525    1.000
    H34      H        0.37470    0.17490    0.65830    1.000
    C63      C        0.34039    0.06508    0.64030    1.000
    C64      C        0.34328    0.98587    0.66511    1.000
    H35      H        0.31940    0.94720    0.64160    1.000
    C65      C        0.38196    0.96380    0.72542    1.000
    H36      H        0.38380    0.91020    0.74160    1.000
    C66      C        0.29757    0.09188    0.57769    1.000
    Zn3      Zn       0.29842    0.54852    0.02563    1.000
    O13      O        0.14880    0.09250    0.49727    1.000
    O14      O        0.19373    0.19880    0.51650    1.000
    O15      O        0.81844    0.07630    0.12137    1.000
    O16      O        0.76126    0.17035    0.08047    1.000
    O17      O        0.23347    0.53668    0.95356    1.000
    O18      O        0.20304    0.66605    0.93842    1.000
    N3       N        0.00291    0.36424    0.52191    1.000
    C67      C        0.15537    0.16750    0.50898    1.000
    C68      C        0.11632    0.21879    0.51512    1.000
    C69      C        0.07309    0.18349    0.50952    1.000
    H37      H        0.06890    0.12670    0.50370    1.000
    C70      C        0.03610    0.23101    0.51244    1.000
    H38      H        0.00720    0.20620    0.50870    1.000
    C71      C        0.04173    0.31554    0.52090    1.000
    C72      C        0.08505    0.35175    0.52715    1.000
    H39      H        0.08920    0.40860    0.53300    1.000
    C73      C        0.12214    0.30366    0.52478    1.000
    H40      H        0.15140    0.32830    0.52970    1.000
    C74      C        0.95381    0.36007    0.47599    1.000
    C75      C        0.93305    0.31479    0.41646    1.000
    H41      H        0.95240    0.28180    0.40240    1.000
    C76      C        0.88305    0.32004    0.37887    1.000
    C77      C        0.85464    0.37267    0.40009    1.000
    H42      H        0.82110    0.37630    0.37440    1.000
    C78      C        0.87576    0.41886    0.45830    1.000
    H43      H        0.85660    0.45350    0.47150    1.000
    C79      C        0.92579    0.41301    0.49694    1.000
    C80      C        0.95917    0.45131    0.55854    1.000
    C81      C        0.95339    0.50795    0.60276    1.000
    H44      H        0.92280    0.52980    0.59430    1.000
    C82      C        0.99404    0.53107    0.65933    1.000
    H45      H        0.99050    0.56990    0.68830    1.000
    C83      C        0.04041    0.49767    0.67435    1.000
    C84      C        0.04682    0.44227    0.63030    1.000
    H46      H        0.07750    0.42050    0.63900    1.000
    C85      C        0.00619    0.42024    0.57281    1.000
    C86      C        0.85970    0.27133    0.31551    1.000
    C87      C        0.88059    0.19857    0.30647    1.000
    H47      H        0.90880    0.17860    0.34110    1.000
    C88      C        0.86007    0.15518    0.24669    1.000
    H48      H        0.87470    0.10660    0.24150    1.000
    C89      C        0.81762    0.18391    0.19415    1.000
    C90      C        0.79660    0.25410    0.20320    1.000
    H49      H        0.76810    0.27320    0.16860    1.000
    C91      C        0.81669    0.29829    0.26313    1.000
    H50      H        0.80130    0.34600    0.26830    1.000
    C92      C        0.79801    0.14090    0.12757    1.000
    C93      C        0.08230    0.52077    0.73840    1.000
    C94      C        0.08533    0.60015    0.76456    1.000
    H51      H        0.06140    0.63900    0.74150    1.000
    C95      C        0.12372    0.62179    0.82475    1.000
    H52      H        0.12530    0.67490    0.84170    1.000
    C96      C        0.15961    0.56508    0.85970    1.000
    C97      C        0.15672    0.48587    0.83489    1.000
    H53      H        0.18060    0.44720    0.85840    1.000
    C98      C        0.11804    0.46380    0.77458    1.000
    H54      H        0.11620    0.41020    0.75840    1.000
    C99      C        0.20243    0.59188    0.92231    1.000
    Zn4      Zn       0.79842    0.04852    0.02563    1.000
    O19      O        0.64880    0.59250    0.49727    1.000
    O20      O        0.69373    0.69880    0.51650    1.000
    O21      O        0.31844    0.57630    0.12137    1.000
    O22      O        0.26126    0.67035    0.08047    1.000
    O23      O        0.73347    0.03668    0.95356    1.000
    O24      O        0.70304    0.16605    0.93842    1.000
    N4       N        0.50291    0.86424    0.52191    1.000
    C100     C        0.65537    0.66750    0.50898    1.000
    C101     C        0.61632    0.71879    0.51512    1.000
    C102     C        0.57309    0.68349    0.50952    1.000
    H55      H        0.56890    0.62670    0.50370    1.000
    C103     C        0.53610    0.73101    0.51244    1.000
    H56      H        0.50720    0.70620    0.50870    1.000
    C104     C        0.54173    0.81554    0.52090    1.000
    C105     C        0.58505    0.85175    0.52715    1.000
    H57      H        0.58920    0.90860    0.53300    1.000
    C106     C        0.62214    0.80366    0.52478    1.000
    H58      H        0.65140    0.82830    0.52970    1.000
    C107     C        0.45381    0.86007    0.47599    1.000
    C108     C        0.43305    0.81479    0.41646    1.000
    H59      H        0.45240    0.78180    0.40240    1.000
    C109     C        0.38305    0.82004    0.37887    1.000
    C110     C        0.35464    0.87267    0.40009    1.000
    H60      H        0.32110    0.87630    0.37440    1.000
    C111     C        0.37576    0.91886    0.45830    1.000
    H61      H        0.35660    0.95350    0.47150    1.000
    C112     C        0.42579    0.91301    0.49694    1.000
    C113     C        0.45917    0.95131    0.55854    1.000
    C114     C        0.45339    0.00795    0.60276    1.000
    H62      H        0.42280    0.02980    0.59430    1.000
    C115     C        0.49404    0.03107    0.65933    1.000
    H63      H        0.49050    0.06990    0.68830    1.000
    C116     C        0.54041    0.99767    0.67435    1.000
    C117     C        0.54682    0.94227    0.63030    1.000
    H64      H        0.57750    0.92050    0.63900    1.000
    C118     C        0.50619    0.92024    0.57281    1.000
    C119     C        0.35970    0.77133    0.31551    1.000
    C120     C        0.38059    0.69857    0.30647    1.000
    H65      H        0.40880    0.67860    0.34110    1.000
    C121     C        0.36007    0.65518    0.24669    1.000
    H66      H        0.37470    0.60660    0.24150    1.000
    C122     C        0.31762    0.68391    0.19415    1.000
    C123     C        0.29660    0.75410    0.20320    1.000
    H67      H        0.26810    0.77320    0.16860    1.000
    C124     C        0.31669    0.79829    0.26313    1.000
    H68      H        0.30130    0.84600    0.26830    1.000
    C125     C        0.29801    0.64090    0.12757    1.000
    C126     C        0.58230    0.02077    0.73840    1.000
    C127     C        0.58533    0.10015    0.76456    1.000
    H69      H        0.56140    0.13900    0.74150    1.000
    C128     C        0.62372    0.12179    0.82475    1.000
    H70      H        0.62530    0.17490    0.84170    1.000
    C129     C        0.65961    0.06508    0.85970    1.000
    C130     C        0.65672    0.98587    0.83489    1.000
    H71      H        0.68060    0.94720    0.85840    1.000
    C131     C        0.61804    0.96380    0.77458    1.000
    H72      H        0.61620    0.91020    0.75840    1.000
    C132     C        0.70243    0.09188    0.92231    1.000
    Zn5      Zn       0.29842    0.45148    0.52563    1.000
    O25      O        0.14880    0.90750    0.99727    1.000
    O26      O        0.19373    0.80120    0.01650    1.000
    O27      O        0.81844    0.92370    0.62137    1.000
    O28      O        0.76126    0.82965    0.58047    1.000
    O29      O        0.23347    0.46332    0.45356    1.000
    O30      O        0.20304    0.33395    0.43842    1.000
    N5       N        0.00291    0.63576    0.02191    1.000
    C133     C        0.15537    0.83250    0.00898    1.000
    C134     C        0.11632    0.78121    0.01512    1.000
    C135     C        0.07309    0.81651    0.00952    1.000
    H73      H        0.06890    0.87330    0.00370    1.000
    C136     C        0.03610    0.76899    0.01244    1.000
    H74      H        0.00720    0.79380    0.00870    1.000
    C137     C        0.04173    0.68446    0.02090    1.000
    C138     C        0.08505    0.64825    0.02715    1.000
    H75      H        0.08920    0.59140    0.03300    1.000
    C139     C        0.12214    0.69634    0.02478    1.000
    H76      H        0.15140    0.67170    0.02970    1.000
    C140     C        0.95381    0.63993    0.97599    1.000
    C141     C        0.93305    0.68521    0.91646    1.000
    H77      H        0.95240    0.71820    0.90240    1.000
    C142     C        0.88305    0.67996    0.87887    1.000
    C143     C        0.85464    0.62733    0.90009    1.000
    H78      H        0.82110    0.62370    0.87440    1.000
    C144     C        0.87576    0.58114    0.95830    1.000
    H79      H        0.85660    0.54650    0.97150    1.000
    C145     C        0.92579    0.58699    0.99694    1.000
    C146     C        0.95917    0.54869    0.05854    1.000
    C147     C        0.95339    0.49205    0.10276    1.000
    H80      H        0.92280    0.47020    0.09430    1.000
    C148     C        0.99404    0.46893    0.15933    1.000
    H81      H        0.99050    0.43010    0.18830    1.000
    C149     C        0.04041    0.50233    0.17435    1.000
    C150     C        0.04682    0.55773    0.13030    1.000
    H82      H        0.07750    0.57950    0.13900    1.000
    C151     C        0.00619    0.57976    0.07281    1.000
    C152     C        0.85970    0.72867    0.81551    1.000
    C153     C        0.88059    0.80143    0.80647    1.000
    H83      H        0.90880    0.82140    0.84110    1.000
    C154     C        0.86007    0.84482    0.74669    1.000
    H84      H        0.87470    0.89340    0.74150    1.000
    C155     C        0.81762    0.81609    0.69415    1.000
    C156     C        0.79660    0.74590    0.70320    1.000
    H85      H        0.76810    0.72680    0.66860    1.000
    C157     C        0.81669    0.70171    0.76313    1.000
    H86      H        0.80130    0.65400    0.76830    1.000
    C158     C        0.79801    0.85910    0.62757    1.000
    C159     C        0.08230    0.47923    0.23840    1.000
    C160     C        0.08533    0.39985    0.26456    1.000
    H87      H        0.06140    0.36100    0.24150    1.000
    C161     C        0.12372    0.37821    0.32475    1.000
    H88      H        0.12530    0.32510    0.34170    1.000
    C162     C        0.15961    0.43492    0.35970    1.000
    C163     C        0.15672    0.51413    0.33489    1.000
    H89      H        0.18060    0.55280    0.35840    1.000
    C164     C        0.11804    0.53620    0.27458    1.000
    H90      H        0.11620    0.58980    0.25840    1.000
    C165     C        0.20243    0.40812    0.42231    1.000
    Zn6      Zn       0.79842    0.95148    0.52563    1.000
    O31      O        0.64880    0.40750    0.99727    1.000
    O32      O        0.69373    0.30120    0.01650    1.000
    O33      O        0.31844    0.42370    0.62137    1.000
    O34      O        0.26126    0.32965    0.58047    1.000
    O35      O        0.73347    0.96332    0.45356    1.000
    O36      O        0.70304    0.83395    0.43842    1.000
    N6       N        0.50291    0.13576    0.02191    1.000
    C166     C        0.65537    0.33250    0.00898    1.000
    C167     C        0.61632    0.28121    0.01512    1.000
    C168     C        0.57309    0.31651    0.00952    1.000
    H91      H        0.56890    0.37330    0.00370    1.000
    C169     C        0.53610    0.26899    0.01244    1.000
    H92      H        0.50720    0.29380    0.00870    1.000
    C170     C        0.54173    0.18446    0.02090    1.000
    C171     C        0.58505    0.14825    0.02715    1.000
    H93      H        0.58920    0.09140    0.03300    1.000
    C172     C        0.62214    0.19634    0.02478    1.000
    H94      H        0.65140    0.17170    0.02970    1.000
    C173     C        0.45381    0.13993    0.97599    1.000
    C174     C        0.43305    0.18521    0.91646    1.000
    H95      H        0.45240    0.21820    0.90240    1.000
    C175     C        0.38305    0.17996    0.87887    1.000
    C176     C        0.35464    0.12733    0.90009    1.000
    H96      H        0.32110    0.12370    0.87440    1.000
    C177     C        0.37576    0.08114    0.95830    1.000
    H97      H        0.35660    0.04650    0.97150    1.000
    C178     C        0.42579    0.08699    0.99694    1.000
    C179     C        0.45917    0.04869    0.05854    1.000
    C180     C        0.45339    0.99205    0.10276    1.000
    H98      H        0.42280    0.97020    0.09430    1.000
    C181     C        0.49404    0.96893    0.15933    1.000
    H99      H        0.49050    0.93010    0.18830    1.000
    C182     C        0.54041    0.00233    0.17435    1.000
    C183     C        0.54682    0.05773    0.13030    1.000
    H100     H        0.57750    0.07950    0.13900    1.000
    C184     C        0.50619    0.07976    0.07281    1.000
    C185     C        0.35970    0.22867    0.81551    1.000
    C186     C        0.38059    0.30143    0.80647    1.000
    H101     H        0.40880    0.32140    0.84110    1.000
    C187     C        0.36007    0.34482    0.74669    1.000
    H102     H        0.37470    0.39340    0.74150    1.000
    C188     C        0.31762    0.31609    0.69415    1.000
    C189     C        0.29660    0.24590    0.70320    1.000
    H103     H        0.26810    0.22680    0.66860    1.000
    C190     C        0.31669    0.20171    0.76313    1.000
    H104     H        0.30130    0.15400    0.76830    1.000
    C191     C        0.29801    0.35910    0.62757    1.000
    C192     C        0.58230    0.97923    0.23840    1.000
    C193     C        0.58533    0.89985    0.26456    1.000
    H105     H        0.56140    0.86100    0.24150    1.000
    C194     C        0.62372    0.87821    0.32475    1.000
    H106     H        0.62530    0.82510    0.34170    1.000
    C195     C        0.65961    0.93492    0.35970    1.000
    C196     C        0.65672    0.01413    0.33489    1.000
    H107     H        0.68060    0.05280    0.35840    1.000
    C197     C        0.61804    0.03620    0.27458    1.000
    H108     H        0.61620    0.08980    0.25840    1.000
    C198     C        0.70243    0.90812    0.42231    1.000
    Zn7      Zn       0.70158    0.45148    0.97437    1.000
    O37      O        0.85120    0.90750    0.50273    1.000
    O38      O        0.80627    0.80120    0.48350    1.000
    O39      O        0.18156    0.92370    0.87863    1.000
    O40      O        0.23874    0.82965    0.91953    1.000
    O41      O        0.76653    0.46332    0.04644    1.000
    O42      O        0.79696    0.33395    0.06158    1.000
    N7       N        0.99709    0.63576    0.47809    1.000
    C199     C        0.84463    0.83250    0.49102    1.000
    C200     C        0.88368    0.78121    0.48488    1.000
    C201     C        0.92691    0.81651    0.49048    1.000
    H109     H        0.93110    0.87330    0.49630    1.000
    C202     C        0.96390    0.76899    0.48756    1.000
    H110     H        0.99280    0.79380    0.49130    1.000
    C203     C        0.95827    0.68446    0.47910    1.000
    C204     C        0.91495    0.64825    0.47285    1.000
    H111     H        0.91080    0.59140    0.46700    1.000
    C205     C        0.87786    0.69634    0.47522    1.000
    H112     H        0.84860    0.67170    0.47030    1.000
    C206     C        0.04619    0.63993    0.52401    1.000
    C207     C        0.06695    0.68521    0.58354    1.000
    H113     H        0.04760    0.71820    0.59760    1.000
    C208     C        0.11695    0.67996    0.62113    1.000
    C209     C        0.14536    0.62733    0.59991    1.000
    H114     H        0.17890    0.62370    0.62560    1.000
    C210     C        0.12424    0.58114    0.54170    1.000
    H115     H        0.14340    0.54650    0.52850    1.000
    C211     C        0.07421    0.58699    0.50306    1.000
    C212     C        0.04083    0.54869    0.44146    1.000
    C213     C        0.04661    0.49205    0.39724    1.000
    H116     H        0.07720    0.47020    0.40570    1.000
    C214     C        0.00596    0.46893    0.34067    1.000
    H117     H        0.00950    0.43010    0.31170    1.000
    C215     C        0.95959    0.50233    0.32565    1.000
    C216     C        0.95318    0.55773    0.36970    1.000
    H118     H        0.92250    0.57950    0.36100    1.000
    C217     C        0.99381    0.57976    0.42719    1.000
    C218     C        0.14030    0.72867    0.68449    1.000
    C219     C        0.11941    0.80143    0.69353    1.000
    H119     H        0.09120    0.82140    0.65890    1.000
    C220     C        0.13993    0.84482    0.75331    1.000
    H120     H        0.12530    0.89340    0.75850    1.000
    C221     C        0.18238    0.81609    0.80585    1.000
    C222     C        0.20340    0.74590    0.79680    1.000
    H121     H        0.23190    0.72680    0.83140    1.000
    C223     C        0.18331    0.70171    0.73687    1.000
    H122     H        0.19870    0.65400    0.73170    1.000
    C224     C        0.20199    0.85910    0.87243    1.000
    C225     C        0.91770    0.47923    0.26160    1.000
    C226     C        0.91467    0.39985    0.23544    1.000
    H123     H        0.93860    0.36100    0.25850    1.000
    C227     C        0.87628    0.37821    0.17525    1.000
    H124     H        0.87470    0.32510    0.15830    1.000
    C228     C        0.84039    0.43492    0.14030    1.000
    C229     C        0.84328    0.51413    0.16511    1.000
    H125     H        0.81940    0.55280    0.14160    1.000
    C230     C        0.88196    0.53620    0.22542    1.000
    H126     H        0.88380    0.58980    0.24160    1.000
    C231     C        0.79757    0.40812    0.07769    1.000
    Zn8      Zn       0.20158    0.95148    0.97437    1.000
    O43      O        0.35120    0.40750    0.50273    1.000
    O44      O        0.30627    0.30120    0.48350    1.000
    O45      O        0.68156    0.42370    0.87863    1.000
    O46      O        0.73874    0.32965    0.91953    1.000
    O47      O        0.26653    0.96332    0.04644    1.000
    O48      O        0.29696    0.83395    0.06158    1.000
    N8       N        0.49709    0.13576    0.47809    1.000
    C232     C        0.34463    0.33250    0.49102    1.000
    C233     C        0.38368    0.28121    0.48488    1.000
    C234     C        0.42691    0.31651    0.49048    1.000
    H127     H        0.43110    0.37330    0.49630    1.000
    C235     C        0.46390    0.26899    0.48756    1.000
    H128     H        0.49280    0.29380    0.49130    1.000
    C236     C        0.45827    0.18446    0.47910    1.000
    C237     C        0.41495    0.14825    0.47285    1.000
    H129     H        0.41080    0.09140    0.46700    1.000
    C238     C        0.37786    0.19634    0.47522    1.000
    H130     H        0.34860    0.17170    0.47030    1.000
    C239     C        0.54619    0.13993    0.52401    1.000
    C240     C        0.56695    0.18521    0.58354    1.000
    H131     H        0.54760    0.21820    0.59760    1.000
    C241     C        0.61695    0.17996    0.62113    1.000
    C242     C        0.64536    0.12733    0.59991    1.000
    H132     H        0.67890    0.12370    0.62560    1.000
    C243     C        0.62424    0.08114    0.54170    1.000
    H133     H        0.64340    0.04650    0.52850    1.000
    C244     C        0.57421    0.08699    0.50306    1.000
    C245     C        0.54083    0.04869    0.44146    1.000
    C246     C        0.54661    0.99205    0.39724    1.000
    H134     H        0.57720    0.97020    0.40570    1.000
    C247     C        0.50596    0.96893    0.34067    1.000
    H135     H        0.50950    0.93010    0.31170    1.000
    C248     C        0.45959    0.00233    0.32565    1.000
    C249     C        0.45318    0.05773    0.36970    1.000
    H136     H        0.42250    0.07950    0.36100    1.000
    C250     C        0.49381    0.07976    0.42719    1.000
    C251     C        0.64030    0.22867    0.68449    1.000
    C252     C        0.61941    0.30143    0.69353    1.000
    H137     H        0.59120    0.32140    0.65890    1.000
    C253     C        0.63993    0.34482    0.75331    1.000
    H138     H        0.62530    0.39340    0.75850    1.000
    C254     C        0.68238    0.31609    0.80585    1.000
    C255     C        0.70340    0.24590    0.79680    1.000
    H139     H        0.73190    0.22680    0.83140    1.000
    C256     C        0.68331    0.20171    0.73687    1.000
    H140     H        0.69870    0.15400    0.73170    1.000
    C257     C        0.70199    0.35910    0.87243    1.000
    C258     C        0.41770    0.97923    0.26160    1.000
    C259     C        0.41467    0.89985    0.23544    1.000
    H141     H        0.43860    0.86100    0.25850    1.000
    C260     C        0.37628    0.87821    0.17525    1.000
    H142     H        0.37470    0.82510    0.15830    1.000
    C261     C        0.34039    0.93492    0.14030    1.000
    C262     C        0.34328    0.01413    0.16511    1.000
    H143     H        0.31940    0.05280    0.14160    1.000
    C263     C        0.38196    0.03620    0.22542    1.000
    H144     H        0.38380    0.08980    0.24160    1.000
    C264     C        0.29757    0.90812    0.07769    1.000
    Zn9      Zn       0.75000    0.75000    0.50000    1.000
    Zn10     Zn       0.25000    0.75000    0.00000    1.000
    Zn11     Zn       0.25000    0.25000    0.50000    1.000
    Zn12     Zn       0.75000    0.25000    0.00000    1.000
