# CIF file generated by openbabel 3.1.0, see https://openbabel.org
data_I
_chemical_name_common 'ic070274o-file006_clean'
_cell_length_a 20.034
_cell_length_b 20.0338
_cell_length_c 20.0338
_cell_angle_alpha 109.471
_cell_angle_beta 109.471
_cell_angle_gamma 109.471
_space_group_name_H-M_alt 'P 1'
_space_group_name_Hall 'P 1'
loop_
    _symmetry_equiv_pos_as_xyz
    x,y,z
loop_
    _atom_site_label
    _atom_site_type_symbol
    _atom_site_fract_x
    _atom_site_fract_y
    _atom_site_fract_z
    _atom_site_occupancy
    Ni1      Ni       0.00000    0.50000    0.00000    1.000
    Ni2      Ni       0.50000    0.50000    0.50000    1.000
    Ni3      Ni       0.50000    0.00000    0.00000    1.000
    Ni4      Ni       0.00000    0.00000    0.50000    1.000
    H1       H        0.08050    0.33540    0.96650    1.000
    H2       H        0.42390    0.72130    0.61460    1.000
    H3       H        0.06430    0.73010    0.88520    1.000
    H4       H        0.19070    0.29740    0.57610    1.000
    H5       H        0.66580    0.93570    0.82090    1.000
    H6       H        0.61460    0.42390    0.72130    1.000
    H7       H        0.88520    0.15510    0.82090    1.000
    H8       H        0.25490    0.36890    0.33540    1.000
    H9       H        0.80680    0.89830    0.38310    1.000
    H10      H        0.11400    0.03350    0.36890    1.000
    H11      H        0.27870    0.70260    0.89330    1.000
    H12      H        0.10670    0.80930    0.38540    1.000
    H13      H        0.96650    0.08050    0.33540    1.000
    H14      H        0.57610    0.19070    0.29740    1.000
    H15      H        0.15510    0.82090    0.88520    1.000
    H16      H        0.73010    0.88520    0.06430    1.000
    H17      H        0.70260    0.42390    0.80930    1.000
    H18      H        0.89830    0.09150    0.51520    1.000
    H19      H        0.19070    0.61460    0.89330    1.000
    H20      H        0.63110    0.66460    0.74510    1.000
    H21      H        0.80930    0.38540    0.10670    1.000
    H22      H        0.48480    0.10170    0.90850    1.000
    H23      H        0.84490    0.17910    0.11480    1.000
    H24      H        0.88520    0.06430    0.73010    1.000
    H25      H        0.90850    0.48480    0.10170    1.000
    H26      H        0.82090    0.66580    0.93570    1.000
    H27      H        0.03350    0.36890    0.11400    1.000
    H28      H        0.27870    0.38540    0.57610    1.000
    H29      H        0.19320    0.57630    0.09150    1.000
    H30      H        0.66460    0.74510    0.63110    1.000
    H31      H        0.38540    0.57610    0.27870    1.000
    H32      H        0.66460    0.03350    0.91950    1.000
    H33      H        0.33420    0.06430    0.17910    1.000
    H34      H        0.74510    0.08050    0.11400    1.000
    H35      H        0.61690    0.19320    0.10170    1.000
    H36      H        0.17910    0.11480    0.84490    1.000
    H37      H        0.36890    0.11400    0.03350    1.000
    H38      H        0.10170    0.90850    0.48480    1.000
    H39      H        0.63110    0.88600    0.96650    1.000
    H40      H        0.80930    0.70260    0.42390    1.000
    H41      H        0.51520    0.42370    0.61690    1.000
    H42      H        0.08050    0.11400    0.74510    1.000
    H43      H        0.66580    0.84490    0.73010    1.000
    H44      H        0.33540    0.96650    0.08050    1.000
    H45      H        0.26990    0.11480    0.93570    1.000
    H46      H        0.29740    0.10670    0.72130    1.000
    H47      H        0.70260    0.89330    0.27870    1.000
    H48      H        0.61690    0.51520    0.42370    1.000
    H49      H        0.96650    0.63110    0.88600    1.000
    H50      H        0.42370    0.90850    0.80680    1.000
    H51      H        0.09150    0.19320    0.57630    1.000
    H52      H        0.89330    0.19070    0.61460    1.000
    H53      H        0.09150    0.51520    0.89830    1.000
    H54      H        0.36890    0.33540    0.25490    1.000
    H55      H        0.19320    0.10170    0.61690    1.000
    H56      H        0.42390    0.80930    0.70260    1.000
    H57      H        0.88600    0.25490    0.91950    1.000
    H58      H        0.91950    0.88600    0.25490    1.000
    H59      H        0.84490    0.73010    0.66580    1.000
    H60      H        0.72130    0.29740    0.10670    1.000
    H61      H        0.29740    0.57610    0.19070    1.000
    H62      H        0.80680    0.42370    0.90850    1.000
    H63      H        0.33420    0.15510    0.26990    1.000
    H64      H        0.11480    0.93570    0.26990    1.000
    H65      H        0.26990    0.33420    0.15510    1.000
    H66      H        0.93570    0.26990    0.11480    1.000
    H67      H        0.93570    0.82090    0.66580    1.000
    H68      H        0.48480    0.57630    0.38310    1.000
    H69      H        0.17910    0.33420    0.06430    1.000
    H70      H        0.38310    0.48480    0.57630    1.000
    H71      H        0.38540    0.10670    0.80930    1.000
    H72      H        0.74510    0.63110    0.66460    1.000
    H73      H        0.38310    0.80680    0.89830    1.000
    H74      H        0.51520    0.89830    0.09150    1.000
    H75      H        0.72130    0.61460    0.42390    1.000
    H76      H        0.91950    0.66460    0.03350    1.000
    H77      H        0.89830    0.38310    0.80680    1.000
    H78      H        0.82090    0.88520    0.15510    1.000
    H79      H        0.15510    0.26990    0.33420    1.000
    H80      H        0.89330    0.27870    0.70260    1.000
    H81      H        0.90850    0.80680    0.42370    1.000
    H82      H        0.10670    0.72130    0.29740    1.000
    H83      H        0.03350    0.91950    0.66460    1.000
    H84      H        0.57630    0.09150    0.19320    1.000
    H85      H        0.57610    0.27870    0.38540    1.000
    H86      H        0.57630    0.38310    0.48480    1.000
    H87      H        0.73010    0.66580    0.84490    1.000
    H88      H        0.42370    0.61690    0.51520    1.000
    H89      H        0.61460    0.89330    0.19070    1.000
    H90      H        0.33540    0.25490    0.36890    1.000
    H91      H        0.88600    0.96650    0.63110    1.000
    H92      H        0.11480    0.84490    0.17910    1.000
    H93      H        0.25490    0.91950    0.88600    1.000
    H94      H        0.10170    0.61690    0.19320    1.000
    H95      H        0.06430    0.17910    0.33420    1.000
    H96      H        0.11400    0.74510    0.08050    1.000
    C1       C        0.54550    0.86120    0.74930    1.000
    C2       C        0.98650    0.37050    0.10960    1.000
    C3       C        0.11190    0.86120    0.31570    1.000
    C4       C        0.26090    0.87690    0.89040    1.000
    C5       C        0.89280    0.14580    0.61920    1.000
    C6       C        0.20380    0.74930    0.88810    1.000
    C7       C        0.25070    0.11190    0.79620    1.000
    C8       C        0.10300    0.66280    0.19060    1.000
    C9       C        0.81630    0.88750    0.20040    1.000
    C10      C        0.10300    0.91240    0.44020    1.000
    C11      C        0.10960    0.73910    0.12310    1.000
    C12      C        0.87690    0.61600    0.98650    1.000
    C13      C        0.72640    0.61920    0.47340    1.000
    C14      C        0.38410    0.07120    0.18370    1.000
    C15      C        0.27360    0.74700    0.89280    1.000
    C16      C        0.19060    0.52780    0.08760    1.000
    C17      C        0.89700    0.08760    0.55980    1.000
    C18      C        0.13880    0.25070    0.45450    1.000
    C19      C        0.12310    0.38400    0.01350    1.000
    C20      C        0.74930    0.88810    0.20380    1.000
    C21      C        0.07120    0.68710    0.88750    1.000
    C22      C        0.10720    0.72640    0.25300    1.000
    C23      C        0.12310    0.10960    0.73910    1.000
    C24      C        0.61590    0.79960    0.68710    1.000
    C25      C        0.38080    0.10720    0.85420    1.000
    C26      C        0.47220    0.91240    0.80940    1.000
    C27      C        0.19060    0.10300    0.66280    1.000
    C28      C        0.79960    0.68710    0.61590    1.000
    C29      C        0.52780    0.33720    0.44020    1.000
    C30      C        0.74930    0.54550    0.86120    1.000
    C31      C        0.61590    0.92880    0.81630    1.000
    C32      C        0.74700    0.47340    0.85420    1.000
    C33      C        0.72640    0.25300    0.10720    1.000
    C34      C        0.38080    0.52660    0.27360    1.000
    C35      C        0.88750    0.20040    0.81630    1.000
    C36      C        0.47220    0.66280    0.55980    1.000
    C37      C        0.89700    0.33720    0.80940    1.000
    C38      C        0.38400    0.01350    0.12310    1.000
    C39      C        0.37050    0.10960    0.98650    1.000
    C40      C        0.20040    0.31290    0.38410    1.000
    C41      C        0.18370    0.11250    0.79960    1.000
    C42      C        0.52660    0.27360    0.38080    1.000
    C43      C        0.98650    0.87690    0.61600    1.000
    C44      C        0.81630    0.61590    0.92880    1.000
    C45      C        0.33720    0.80940    0.89700    1.000
    C46      C        0.38410    0.20040    0.31290    1.000
    C47      C        0.45450    0.20380    0.31570    1.000
    C48      C        0.55980    0.89700    0.08760    1.000
    C49      C        0.66280    0.19060    0.10300    1.000
    C50      C        0.88750    0.07120    0.68710    1.000
    C51      C        0.11190    0.79620    0.25070    1.000
    C52      C        0.45450    0.13880    0.25070    1.000
    C53      C        0.52660    0.14580    0.25300    1.000
    C54      C        0.89040    0.01350    0.62950    1.000
    C55      C        0.55980    0.47220    0.66280    1.000
    C56      C        0.74700    0.89280    0.27360    1.000
    C57      C        0.88810    0.20380    0.74930    1.000
    C58      C        0.27360    0.38080    0.52660    1.000
    C59      C        0.92880    0.81630    0.61590    1.000
    C60      C        0.11250    0.92880    0.31290    1.000
    C61      C        0.86120    0.74930    0.54550    1.000
    C62      C        0.31570    0.11190    0.86120    1.000
    C63      C        0.10720    0.85420    0.38080    1.000
    C64      C        0.38400    0.26090    0.37050    1.000
    C65      C        0.44020    0.52780    0.33720    1.000
    C66      C        0.62950    0.61600    0.73910    1.000
    C67      C        0.79620    0.25070    0.11190    1.000
    C68      C        0.61920    0.89280    0.14580    1.000
    C69      C        0.66280    0.55980    0.47220    1.000
    C70      C        0.85420    0.74700    0.47340    1.000
    C71      C        0.25300    0.10720    0.72640    1.000
    C72      C        0.68710    0.88750    0.07120    1.000
    C73      C        0.80940    0.47220    0.91240    1.000
    C74      C        0.31290    0.38410    0.20040    1.000
    C75      C        0.26090    0.37050    0.38400    1.000
    C76      C        0.10960    0.98650    0.37050    1.000
    C77      C        0.33720    0.44020    0.52780    1.000
    C78      C        0.14580    0.61920    0.89280    1.000
    C79      C        0.61920    0.47340    0.72640    1.000
    C80      C        0.85420    0.38080    0.10720    1.000
    C81      C        0.87690    0.89040    0.26090    1.000
    C82      C        0.52780    0.08760    0.19060    1.000
    C83      C        0.25070    0.45450    0.13880    1.000
    C84      C        0.18370    0.38410    0.07120    1.000
    C85      C        0.01350    0.12310    0.38400    1.000
    C86      C        0.61600    0.98650    0.87690    1.000
    C87      C        0.11250    0.79960    0.18370    1.000
    C88      C        0.31290    0.11250    0.92880    1.000
    C89      C        0.08760    0.55980    0.89700    1.000
    C90      C        0.92880    0.31290    0.11250    1.000
    C91      C        0.25300    0.52660    0.14580    1.000
    C92      C        0.73910    0.62950    0.61600    1.000
    C93      C        0.20040    0.81630    0.88750    1.000
    C94      C        0.91240    0.44020    0.10300    1.000
    C95      C        0.37050    0.38400    0.26090    1.000
    C96      C        0.80940    0.89700    0.33720    1.000
    C97      C        0.54550    0.79620    0.68430    1.000
    C98      C        0.68430    0.54550    0.79620    1.000
    C99      C        0.01350    0.62950    0.89040    1.000
    C100     C        0.61600    0.73910    0.62950    1.000
    C101     C        0.68430    0.88810    0.13880    1.000
    C102     C        0.47340    0.85420    0.74700    1.000
    C103     C        0.89040    0.26090    0.87690    1.000
    C104     C        0.07120    0.18370    0.38410    1.000
    C105     C        0.86120    0.31570    0.11190    1.000
    C106     C        0.79620    0.68430    0.54550    1.000
    C107     C        0.08760    0.19060    0.52780    1.000
    C108     C        0.68710    0.61590    0.79960    1.000
    C109     C        0.79960    0.18370    0.11250    1.000
    C110     C        0.31570    0.45450    0.20380    1.000
    C111     C        0.44020    0.10300    0.91240    1.000
    C112     C        0.20380    0.31570    0.45450    1.000
    C113     C        0.47340    0.72640    0.61920    1.000
    C114     C        0.73910    0.12310    0.10960    1.000
    C115     C        0.14580    0.25300    0.52660    1.000
    C116     C        0.89280    0.27360    0.74700    1.000
    C117     C        0.88810    0.13880    0.68430    1.000
    C118     C        0.13880    0.68430    0.88810    1.000
    C119     C        0.62950    0.89040    0.01350    1.000
    C120     C        0.91240    0.80940    0.47220    1.000
    N1       N        0.12650    0.10090    0.67280    1.000
    N2       N        0.42810    0.10090    0.97440    1.000
    N3       N        0.97440    0.42810    0.10090    1.000
    N4       N        0.67280    0.12650    0.10090    1.000
    N5       N        0.89910    0.32720    0.87350    1.000
    N6       N        0.54630    0.97440    0.87350    1.000
    N7       N        0.32720    0.42810    0.45370    1.000
    N8       N        0.42810    0.45370    0.32720    1.000
    N9       N        0.89910    0.02560    0.57190    1.000
    N10      N        0.67280    0.57190    0.54630    1.000
    N11      N        0.32720    0.87350    0.89910    1.000
    N12      N        0.57190    0.54630    0.67280    1.000
    N13      N        0.02560    0.57190    0.89910    1.000
    N14      N        0.12650    0.45370    0.02560    1.000
    N15      N        0.02560    0.12650    0.45370    1.000
    N16      N        0.10090    0.67280    0.12650    1.000
    N17      N        0.57190    0.89910    0.02560    1.000
    N18      N        0.45370    0.02560    0.12650    1.000
    N19      N        0.97440    0.87350    0.54630    1.000
    N20      N        0.10090    0.97440    0.42810    1.000
    N21      N        0.87350    0.89910    0.32720    1.000
    N22      N        0.45370    0.32720    0.42810    1.000
    N23      N        0.87350    0.54630    0.97440    1.000
    N24      N        0.54630    0.67280    0.57190    1.000
    O1       O        0.61430    0.06640    0.09910    1.000
    O2       O        0.51520    0.90090    0.96730    1.000
    O3       O        0.61430    0.51520    0.54790    1.000
    O4       O        0.96730    0.06640    0.45210    1.000
    O5       O        0.51520    0.54790    0.61430    1.000
    O6       O        0.45210    0.96730    0.06640    1.000
    O7       O        0.38570    0.93360    0.90090    1.000
    O8       O        0.93360    0.90090    0.38570    1.000
    O9       O        0.93360    0.54790    0.03270    1.000
    O10      O        0.06640    0.45210    0.96730    1.000
    O11      O        0.54790    0.61430    0.51520    1.000
    O12      O        0.90090    0.38570    0.93360    1.000
    O13      O        0.90090    0.96730    0.51520    1.000
    O14      O        0.48480    0.09910    0.03270    1.000
    O15      O        0.03270    0.48480    0.09910    1.000
    O16      O        0.09910    0.03270    0.48480    1.000
    O17      O        0.06640    0.09910    0.61430    1.000
    O18      O        0.54790    0.03270    0.93360    1.000
    O19      O        0.48480    0.45210    0.38570    1.000
    O20      O        0.96730    0.51520    0.90090    1.000
    O21      O        0.45210    0.38570    0.48480    1.000
    O22      O        0.03270    0.93360    0.54790    1.000
    O23      O        0.09910    0.61430    0.06640    1.000
    O24      O        0.38570    0.48480    0.45210    1.000
