data_functionalizedCrystal
_audit_creation_method	'EQeq! by Chris Wilmer'
_symmetry_space_group_name_H-M	'P1'
_symmetry_Int_Tables_number	1
_symmetry_cell_setting	triclinic
loop_
_symmetry_equiv_pos_as_xyz
  x,y,z
_cell_length_a	16.243
_cell_length_b	6.6352
_cell_length_c	13.4943
_cell_angle_alpha	90
_cell_angle_beta	90
_cell_angle_gamma	90
loop_
_atom_site_label
_atom_site_type_symbol
_atom_site_fract_x
_atom_site_fract_y
_atom_site_fract_z
_atom_site_charge
Mof_C 	C 	0.21149	0.06495	0.7772	0.172
Mof_C 	C 	0.28099	0.06482	0.71482	0.718
Mof_O 	O 	0.07492	0.07414	0.91	-0.586
Mof_O 	O 	0.41953	0.07365	0.58533	-3.239
Mof_H 	H 	0.18582	0.92219	0.80017	-0.169
Mof_H 	H 	0.30639	0.92201	0.69161	-0.383
Mof_C 	C 	0.28811	0.92714	0.27833	-0.015
Mof_C 	C 	0.21978	0.92918	0.21419	-0.496
Mof_O 	O 	0.42151	0.91473	0.41462	-3.618
Mof_O 	O 	0.08111	0.92368	0.08391	-1.192
Mof_H 	H 	0.31392	0.06915	0.30219	0.19
Mof_H 	H 	0.19532	0.07262	0.19045	0.331
Mof_C 	C 	0.78679	0.56495	0.22339	-0.21
Mof_C 	C 	0.71777	0.56482	0.28648	0.285
Mof_O 	O 	0.92225	0.57284	0.08903	-0.893
Mof_O 	O 	0.57936	0.57361	0.41636	-3.937
Mof_H 	H 	0.81254	0.42214	0.20056	0.023
Mof_H 	H 	0.69262	0.42203	0.31016	-0.082
Mof_C 	C 	0.7127	0.42712	0.72105	0.373
Mof_C 	C 	0.78101	0.42916	0.78532	-0.178
Mof_O 	O 	0.57814	0.41468	0.586	-3.952
Mof_O 	O 	0.91932	0.42238	0.91662	-0.59
Mof_H 	H 	0.68685	0.56911	0.69726	-0.117
Mof_H 	H 	0.8054	0.57264	0.80916	0.058
Mof_C 	C 	0.78664	0.92809	0.22321	-0.487
Mof_C 	C 	0.7176	0.92798	0.28645	-0.05
Mof_O 	O 	0.92056	0.91857	0.08636	-1.459
Mof_O 	O 	0.57915	0.9167	0.41696	-3.615
Mof_H 	H 	0.81233	0.07085	0.20027	0.272
Mof_H 	H 	0.69234	0.07077	0.31018	0.179
Mof_C 	C 	0.71367	0.06398	0.722	0.685
Mof_C 	C 	0.78204	0.066	0.78627	0.15
Mof_O 	O 	0.57771	0.07195	0.58721	-3.262
Mof_O 	O 	0.91973	0.07914	0.9168	-0.838
Mof_H 	H 	0.68869	0.92045	0.69902	-0.39
Mof_H 	H 	0.80731	0.92389	0.8109	-0.202
Mof_C 	C 	0.21167	0.42811	0.77741	-0.164
Mof_C 	C 	0.28118	0.42801	0.71486	0.399
Mof_O 	O 	0.07699	0.41722	0.91308	-0.344
Mof_O 	O 	0.41973	0.41669	0.58471	-3.928
Mof_H 	H 	0.18609	0.57086	0.80047	0.099
Mof_H 	H 	0.30672	0.57079	0.69159	-0.105
Mof_C 	C 	0.28714	0.56392	0.27742	0.322
Mof_C 	C 	0.21874	0.56595	0.21328	-0.204
Mof_O 	O 	0.42194	0.57195	0.41339	-3.942
Mof_O 	O 	0.08029	0.57795	0.08429	-0.604
Mof_H 	H 	0.31209	0.42045	0.30051	-0.075
Mof_H 	H 	0.19341	0.42384	0.18878	0.073
Mof_Al	Al	0.99972	0.00066	0.00069	4.195
Mof_Al	Al	0.49926	0.99396	0.50124	14.575
Mof_Al	Al	0.99984	0.4948	0.00083	1.935
Mof_Al	Al	0.49959	0.49431	0.50047	17.311
Mof_O 	O 	0.00101	0.24736	0.05567	-1.516
Mof_C 	C 	0.17582	0.24632	0.8101	-0.003
Mof_C 	C 	0.31725	0.24634	0.68271	-0.876
Mof_C 	C 	0.10438	0.24604	0.88136	0.635
Mof_C 	C 	0.39026	0.24548	0.61385	2.559
Mof_O 	O 	0.4984	0.7438	0.55406	-7.167
Mof_C 	C 	0.32259	0.74469	0.31177	-0.782
Mof_C 	C 	0.18336	0.74873	0.18124	-0.007
Mof_C 	C 	0.3933	0.74345	0.38392	2.487
Mof_C 	C 	0.11028	0.75045	0.11266	0.585
Mof_O 	O 	0.99935	0.74765	0.96002	-1.339
Mof_C 	C 	0.822	0.74633	0.18969	-0.093
Mof_C 	C 	0.68157	0.74633	0.3188	-0.778
Mof_C 	C 	0.893	0.74606	0.1178	0.59
Mof_C 	C 	0.60863	0.74547	0.38784	2.458
Mof_O 	O 	0.49869	0.24381	0.44786	-7.016
Mof_C 	C 	0.67806	0.24465	0.68769	-0.887
Mof_C 	C 	0.81737	0.24876	0.81858	-0.072
Mof_C 	C 	0.6067	0.24353	0.61631	2.56
Mof_C 	C 	0.89014	0.25043	0.88801	0.637
Mof_H 	H 	0.49741	0.7434	0.61791	2.02
Mof_H 	H 	0.49709	0.24341	0.38404	2.091
Mof_H 	H 	0.00203	0.2473	0.11971	0.746
Mof_H 	H 	0.99935	0.74765	0.88591	0.149
_end
