# CIF file generated by openbabel 3.1.0, see https://openbabel.org
data_I
_chemical_name_common 'GIWCIZ_ion_b'
_cell_length_a 37.2856
_cell_length_b 37.2856
_cell_length_c 14.9678
_cell_angle_alpha 98.8296
_cell_angle_beta 98.8296
_cell_angle_gamma 126.827
_space_group_name_H-M_alt 'P 1'
_space_group_name_Hall 'P 1'
loop_
    _symmetry_equiv_pos_as_xyz
    x,y,z
loop_
    _atom_site_label
    _atom_site_type_symbol
    _atom_site_fract_x
    _atom_site_fract_y
    _atom_site_fract_z
    _atom_site_occupancy
    Ag1      Ag       0.02909    0.27762    0.08851    1.000
    Ag2      Ag       0.45837    0.20085    0.97891    1.000
    C3       C        0.10755    0.09237    0.91320    1.000
    H4       H        0.11480    0.07360    0.88610    1.000
    C5       C        0.07973    0.10023    0.85950    1.000
    H6       H        0.06440    0.08720    0.79290    1.000
    C7       C        0.07932    0.13072    0.92360    1.000
    H8       H        0.06430    0.14350    0.90880    1.000
    C9       C        0.10607    0.13987    0.01800    1.000
    C10      C        0.11387    0.16659    0.10440    1.000
    C11      C        0.13874    0.17384    0.19430    1.000
    C12      C        0.14416    0.19886    0.28500    1.000
    H13      H        0.13100    0.21380    0.29610    1.000
    C14      C        0.17137    0.19709    0.35160    1.000
    H15      H        0.18070    0.21030    0.41850    1.000
    C16      C        0.18340    0.17194    0.30360    1.000
    H17      H        0.20290    0.16610    0.33390    1.000
    C18      C        0.09236    0.19092    0.10130    1.000
    C19      C        0.04509    0.16645    0.07610    1.000
    H20      H        0.02390    0.13310    0.06030    1.000
    C21      C        0.02768    0.19140    0.07380    1.000
    H22      H        0.99460    0.17420    0.05630    1.000
    C23      C        0.10158    0.26072    0.12010    1.000
    H24      H        0.12240    0.29400    0.13510    1.000
    C25      C        0.12077    0.23819    0.12530    1.000
    H26      H        0.15400    0.25640    0.14600    1.000
    C27      C        0.14982    0.03428    0.97450    1.000
    H28      H        0.11820    0.01360    0.97550    1.000
    C29      C        0.17228    0.01882    0.93180    1.000
    H30      H        0.15880    0.98740    0.89960    1.000
    C31      C        0.21654    0.05840    0.94740    1.000
    H32      H        0.24060    0.05980    0.92960    1.000
    C33      C        0.22134    0.09786    0.99460    1.000
    C34      C        0.26036    0.14574    0.01920    1.000
    C35      C        0.26138    0.18258    0.05850    1.000
    C36      C        0.29758    0.23164    0.07300    1.000
    H37      H        0.32660    0.24540    0.06030    1.000
    C38      C        0.28298    0.25560    0.10900    1.000
    H39      H        0.29960    0.28860    0.12500    1.000
    C40      C        0.23874    0.22130    0.11680    1.000
    H41      H        0.22040    0.22780    0.14030    1.000
    C42      C        0.30429    0.15715    0.00430    1.000
    C43      C        0.31920    0.17218    0.93370    1.000
    H44      H        0.30330    0.17850    0.89170    1.000
    C45      C        0.35961    0.17879    0.92150    1.000
    H46      H        0.36700    0.18480    0.86480    1.000
    C47      C        0.37235    0.16421    0.05700    1.000
    H48      H        0.39120    0.16180    0.10210    1.000
    C49      C        0.33160    0.15404    0.07260    1.000
    H50      H        0.32290    0.14550    0.12680    1.000
    C51      C        0.26549    0.16415    0.25430    1.000
    H52      H        0.27990    0.19470    0.24900    1.000
    C53      C        0.28897    0.15119    0.30550    1.000
    H54      H        0.32160    0.17160    0.34040    1.000
    C55      C        0.25708    0.10466    0.29640    1.000
    H56      H        0.26310    0.08650    0.32300    1.000
    C57      C        0.21131    0.08777    0.23730    1.000
    C58      C        0.16802    0.04314    0.21420    1.000
    C59      C        0.12444    0.02906    0.16930    1.000
    C60      C        0.07884    0.98520    0.14960    1.000
    H61      H        0.07200    0.95840    0.16490    1.000
    C62      C        0.04615    0.98821    0.10440    1.000
    H63      H        0.01280    0.96460    0.08560    1.000
    C64      C        0.07121    0.03259    0.09170    1.000
    H65      H        0.05710    0.04350    0.06000    1.000
    C66      C        0.16881    0.00587    0.23800    1.000
    C67      C        0.18387    0.98811    0.18340    1.000
    H68      H        0.19470    0.99990    0.13330    1.000
    C69      C        0.18322    0.95272    0.20160    1.000
    H70      H        0.19330    0.94030    0.16190    1.000
    C71      C        0.13780    0.94320    0.31120    1.000
    H72      H        0.11920    0.92460    0.34700    1.000
    C73      C        0.13885    0.97875    0.29230    1.000
    H74      H        0.12020    0.98540    0.31440    1.000
    C75      C        0.97820    0.44636    0.80000    1.000
    H76      H        0.97810    0.46930    0.78030    1.000
    C77      C        0.99436    0.45026    0.89490    1.000
    H78      H        0.00590    0.47530    0.94940    1.000
    C79      C        0.99047    0.41127    0.89440    1.000
    H80      H        0.99940    0.40440    0.94790    1.000
    C81      C        0.96999    0.38289    0.79630    1.000
    C82      C        0.95867    0.33957    0.76240    1.000
    C83      C        0.93593    0.31053    0.66740    1.000
    C84      C        0.92295    0.26483    0.63010    1.000
    H85      H        0.92920    0.24880    0.66470    1.000
    C86      C        0.89996    0.24922    0.53550    1.000
    H87      H        0.88670    0.21990    0.49140    1.000
    C88      C        0.89952    0.28460    0.51530    1.000
    H89      H        0.88560    0.28260    0.45400    1.000
    C90      C        0.97356    0.32196    0.83340    1.000
    C91      C        0.94152    0.28600    0.86320    1.000
    H92      H        0.90890    0.27090    0.84000    1.000
    C93      C        0.95720    0.27180    0.92780    1.000
    H94      H        0.93470    0.24690    0.94890    1.000
    C95      C        0.03302    0.32602    0.93060    1.000
    H96      H        0.06540    0.34020    0.95350    1.000
    C97      C        0.02002    0.34204    0.86670    1.000
    H98      H        0.04290    0.36670    0.84580    1.000
    C99      C        0.01279    0.49245    0.61740    1.000
    H100     H        0.03830    0.49210    0.62600    1.000
    C101     C        0.01745    0.53263    0.62000    1.000
    H102     H        0.04600    0.56340    0.63070    1.000
    C103     C        0.97348    0.51968    0.60430    1.000
    H104     H        0.96560    0.53960    0.60180    1.000
    C105     C        0.94146    0.47004    0.59230    1.000
    C106     C        0.89376    0.44174    0.57920    1.000
    C107     C        0.86341    0.39517    0.57590    1.000
    C108     C        0.81324    0.36364    0.55420    1.000
    H109     H        0.79340    0.37160    0.54240    1.000
    C110     C        0.79886    0.32026    0.55350    1.000
    H111     H        0.76740    0.29260    0.54210    1.000
    C112     C        0.83950    0.32444    0.57300    1.000
    H113     H        0.83920    0.29900    0.57600    1.000
    C114     C        0.87077    0.46481    0.56690    1.000
    C115     C        0.86523    0.47535    0.48330    1.000
    H116     H        0.87520    0.46840    0.43370    1.000
    C117     C        0.84496    0.49604    0.47390    1.000
    H118     H        0.84010    0.50250    0.41630    1.000
    C119     C        0.83786    0.49774    0.62340    1.000
    H120     H        0.82900    0.50640    0.67320    1.000
    C121     C        0.85659    0.47561    0.63640    1.000
    H122     H        0.85950    0.46810    0.69350    1.000
    C123     C        0.88731    0.35457    0.39160    1.000
    H124     H        0.86560    0.35740    0.40980    1.000
    C125     C        0.88294    0.33668    0.29760    1.000
    H126     H        0.85840    0.32560    0.24230    1.000
    C127     C        0.92067    0.33813    0.30080    1.000
    H128     H        0.92730    0.32810    0.24800    1.000
    C129     C        0.94837    0.35755    0.39880    1.000
    C130     C        0.99020    0.36536    0.43580    1.000
    C131     C        0.01940    0.38906    0.53160    1.000
    C132     C        0.06311    0.39969    0.57070    1.000
    H133     H        0.07780    0.39080    0.53790    1.000
    C134     C        0.07990    0.42482    0.66380    1.000
    H135     H        0.10890    0.43770    0.70830    1.000
    C136     C        0.04564    0.42798    0.68130    1.000
    H137     H        0.04810    0.44310    0.74190    1.000
    C138     C        0.00505    0.34705    0.36870    1.000
    C139     C        0.04677    0.37537    0.34720    1.000
    H140     H        0.06840    0.40840    0.37830    1.000
    C141     C        0.05672    0.35516    0.27980    1.000
    H142     H        0.08550    0.37510    0.26610    1.000
    C143     C        0.98800    0.28176    0.25580    1.000
    H144     H        0.96720    0.24880    0.22390    1.000
    C145     C        0.97548    0.29858    0.32180    1.000
    H146     H        0.94700    0.27740    0.33550    1.000
    C147     C        0.31964    0.76266    0.45610    1.000
    H148     H        0.32010    0.78670    0.44100    1.000
    C149     C        0.33506    0.76386    0.54950    1.000
    H150     H        0.34690    0.78790    0.60670    1.000
    C151     C        0.32963    0.72397    0.54150    1.000
    H152     H        0.33750    0.71490    0.59230    1.000
    C153     C        0.31005    0.69825    0.44310    1.000
    C154     C        0.29894    0.65532    0.40230    1.000
    C155     C        0.27832    0.62878    0.30770    1.000
    C156     C        0.26385    0.58335    0.26600    1.000
    H157     H        0.26770    0.56530    0.29860    1.000
    C158     C        0.24342    0.57044    0.17030    1.000
    H159     H        0.23000    0.54160    0.12410    1.000
    C160     C        0.24606    0.60758    0.15390    1.000
    H161     H        0.23490    0.60790    0.09280    1.000
    C162     C        0.31334    0.63744    0.47100    1.000
    C163     C        0.28398    0.60846    0.51720    1.000
    H164     H        0.25210    0.59590    0.50160    1.000
    C165     C        0.30211    0.59791    0.58760    1.000
    H166     H        0.28160    0.57760    0.61880    1.000
    C167     C        0.37346    0.64082    0.56590    1.000
    H168     H        0.40490    0.65190    0.58260    1.000
    C169     C        0.35918    0.65324    0.49310    1.000
    H170     H        0.38000    0.67180    0.46010    1.000
    C171     C        0.18342    0.64292    0.21270    1.000
    H172     H        0.18350    0.61730    0.20990    1.000
    C173     C        0.14242    0.63816    0.19460    1.000
    H174     H        0.11090    0.60970    0.17740    1.000
    C175     C        0.15695    0.68263    0.20650    1.000
    H176     H        0.13730    0.69090    0.19960    1.000
    C177     C        0.20734    0.71442    0.23140    1.000
    C178     C        0.19990    0.79158    0.32560    1.000
    H179     H        0.20320    0.78140    0.37840    1.000
    C180     C        0.18015    0.81307    0.32320    1.000
    H181     H        0.17110    0.81830    0.37640    1.000
    C182     C        0.62300    0.49884    0.88430    1.000
    H183     H        0.64050    0.52850    0.87300    1.000
    C184     C        0.64362    0.48432    0.93730    1.000
    H185     H        0.67620    0.50140    0.96770    1.000
    C186     C        0.60645    0.44019    0.93560    1.000
    H187     H        0.60860    0.42020    0.96420    1.000
    C188     C        0.56441    0.42945    0.88370    1.000
    C189     C        0.51811    0.38857    0.86830    1.000
    C190     C        0.47701    0.37969    0.81780    1.000
    C191     C        0.42964    0.33974    0.80360    1.000
    H192     H        0.41990    0.31390    0.82690    1.000
    C193     C        0.40089    0.34473    0.75140    1.000
    H194     H        0.36740    0.32340    0.73050    1.000
    C195     C        0.43077    0.38791    0.73460    1.000
    H196     H        0.41960    0.40020    0.69910    1.000
    C197     C        0.51116    0.35032    0.90330    1.000
    C198     C        0.51585    0.35071    0.99610    1.000
    H199     H        0.52500    0.37720    0.04360    1.000
    C200     C        0.50718    0.31238    0.02070    1.000
    H201     H        0.51040    0.31340    0.08540    1.000
    C202     C        0.49139    0.27435    0.86910    1.000
    H203     H        0.48350    0.24770    0.82440    1.000
    C204     C        0.49859    0.30991    0.83520    1.000
    H205     H        0.49540    0.30780    0.77000    1.000
    C206     C        0.47238    0.44576    0.55670    1.000
    H207     H        0.47880    0.42640    0.52890    1.000
    C208     C        0.44387    0.45397    0.50410    1.000
    H209     H        0.42870    0.44210    0.43740    1.000
    C210     C        0.44353    0.48281    0.57150    1.000
    H211     H        0.42690    0.49430    0.55970    1.000
    C212     C        0.47160    0.49292    0.66140    1.000
    C213     C        0.47407    0.57975    0.71330    1.000
    H214     H        0.49920    0.59120    0.68690    1.000
    C215     C        0.45220    0.60030    0.71660    1.000
    H216     H        0.46380    0.62660    0.69410    1.000
    C217     C        0.18589    0.42371    0.07390    1.000
    C218     C        0.76829    0.51109    0.16090    1.000
    C219     C        0.12402    0.86658    0.88030    1.000
    F220     F        0.16316    0.43632    0.03380    1.000
    F221     F        0.18240    0.39432    0.00480    1.000
    F222     F        0.23059    0.46265    0.11050    1.000
    F223     F        0.80811    0.52231    0.15490    1.000
    F224     F        0.77265    0.54929    0.17280    1.000
    F225     F        0.73560    0.48120    0.07760    1.000
    F226     F        0.16045    0.91481    0.92260    1.000
    F227     F        0.09079    0.86481    0.82470    1.000
    F228     F        0.13154    0.83720    0.85560    1.000
    Ga229    Ga       0.16990    0.11935    0.10869    1.000
    Ga230    Ga       0.94357    0.38815    0.59632    1.000
    N231     N        0.12280    0.11446    0.00710    1.000
    N232     N        0.16326    0.15724    0.20810    1.000
    N233     N        0.05618    0.23782    0.09520    1.000
    N234     N        0.17828    0.08066    0.01220    1.000
    N235     N        0.22531    0.17779    0.08700    1.000
    N236     N        0.38670    0.17726    0.98120    1.000
    N237     N        0.21863    0.12549    0.21330    1.000
    N238     N        0.11894    0.05862    0.13090    1.000
    N239     N        0.16983    0.93549    0.26890    1.000
    N240     N        0.96279    0.40529    0.74010    1.000
    N241     N        0.92098    0.32124    0.59260    1.000
    N242     N        0.00245    0.29157    0.96190    1.000
    N243     N        0.96768    0.45432    0.60110    1.000
    N244     N        0.87890    0.36864    0.58710    1.000
    N245     N        0.49280    0.16802    0.95680    1.000
    N246     N        0.92615    0.36721    0.45270    1.000
    N247     N        0.00922    0.40724    0.60260    1.000
    N248     N        0.02786    0.30926    0.23380    1.000
    N249     N        0.30453    0.72381    0.39200    1.000
    N250     N        0.26648    0.64304    0.23490    1.000
    N251     N        0.34564    0.61432    0.61300    1.000
    N252     N        0.22206    0.68752    0.23414    1.000
    N253     N        0.57678    0.46720    0.85190    1.000
    N254     N        0.47695    0.41035    0.77380    1.000
    N255     N        0.49451    0.27399    0.95750    1.000
    N256     N        0.48866    0.46840    0.64850    1.000
    O257     O        0.19133    0.38631    0.19870    1.000
    O258     O        0.16740    0.43362    0.22690    1.000
    O259     O        0.11408    0.35650    0.10940    1.000
    O260     O        0.70647    0.47505    0.25000    1.000
    O261     O        0.79000    0.52302    0.33980    1.000
    O262     O        0.74823    0.44521    0.23260    1.000
    O263     O        0.06018    0.80052    0.94130    1.000
    O264     O        0.14080    0.85624    0.04950    1.000
    O265     O        0.09394    0.88362    0.00860    1.000
    S266     S        0.16215    0.39705    0.16234    1.000
    S267     S        0.75087    0.48555    0.25659    1.000
    S268     S        0.10459    0.84487    0.97395    1.000
    Ag269    Ag       0.72238    0.97091    0.41149    1.000
    Ag270    Ag       0.79915    0.54163    0.52109    1.000
    C271     C        0.90763    0.89245    0.58680    1.000
    H272     H        0.92640    0.88520    0.61390    1.000
    C273     C        0.89977    0.92027    0.64050    1.000
    H274     H        0.91280    0.93560    0.70710    1.000
    C275     C        0.86928    0.92068    0.57640    1.000
    H276     H        0.85650    0.93570    0.59120    1.000
    C277     C        0.86013    0.89393    0.48200    1.000
    C278     C        0.83341    0.88613    0.39560    1.000
    C279     C        0.82616    0.86126    0.30570    1.000
    C280     C        0.80114    0.85584    0.21500    1.000
    H281     H        0.78620    0.86900    0.20390    1.000
    C282     C        0.80291    0.82863    0.14840    1.000
    H283     H        0.78970    0.81930    0.08150    1.000
    C284     C        0.82806    0.81660    0.19640    1.000
    H285     H        0.83390    0.79710    0.16610    1.000
    C286     C        0.80908    0.90764    0.39870    1.000
    C287     C        0.83355    0.95491    0.42390    1.000
    H288     H        0.86690    0.97610    0.43970    1.000
    C289     C        0.80860    0.97232    0.42620    1.000
    H290     H        0.82580    0.00540    0.44370    1.000
    C291     C        0.73928    0.89842    0.37990    1.000
    H292     H        0.70600    0.87760    0.36490    1.000
    C293     C        0.76181    0.87923    0.37470    1.000
    H294     H        0.74360    0.84600    0.35400    1.000
    C295     C        0.96572    0.85018    0.52550    1.000
    H296     H        0.98640    0.88180    0.52450    1.000
    C297     C        0.98118    0.82772    0.56820    1.000
    H298     H        0.01260    0.84120    0.60040    1.000
    C299     C        0.94160    0.78346    0.55260    1.000
    H300     H        0.94020    0.75940    0.57040    1.000
    C301     C        0.90214    0.77866    0.50540    1.000
    C302     C        0.85426    0.73964    0.48080    1.000
    C303     C        0.81742    0.73862    0.44150    1.000
    C304     C        0.76836    0.70242    0.42700    1.000
    H305     H        0.75460    0.67340    0.43970    1.000
    C306     C        0.74440    0.71702    0.39100    1.000
    H307     H        0.71140    0.70040    0.37500    1.000
    C308     C        0.77870    0.76126    0.38320    1.000
    H309     H        0.77220    0.77960    0.35970    1.000
    C310     C        0.84285    0.69571    0.49570    1.000
    C311     C        0.82782    0.68080    0.56630    1.000
    H312     H        0.82150    0.69670    0.60830    1.000
    C313     C        0.82121    0.64039    0.57850    1.000
    H314     H        0.81520    0.63300    0.63520    1.000
    C315     C        0.83579    0.62765    0.44300    1.000
    H316     H        0.83820    0.60880    0.39790    1.000
    C317     C        0.84596    0.66840    0.42740    1.000
    H318     H        0.85450    0.67710    0.37320    1.000
    C319     C        0.83585    0.73451    0.24570    1.000
    H320     H        0.80530    0.72010    0.25100    1.000
    C321     C        0.84881    0.71103    0.19450    1.000
    H322     H        0.82840    0.67840    0.15960    1.000
    C323     C        0.89534    0.74292    0.20360    1.000
    H324     H        0.91350    0.73690    0.17700    1.000
    C325     C        0.91223    0.78869    0.26270    1.000
    C326     C        0.95686    0.83198    0.28580    1.000
    C327     C        0.97094    0.87556    0.33070    1.000
    C328     C        0.01480    0.92116    0.35040    1.000
    H329     H        0.04160    0.92800    0.33510    1.000
    C330     C        0.01179    0.95385    0.39560    1.000
    H331     H        0.03540    0.98720    0.41440    1.000
    C332     C        0.96741    0.92879    0.40830    1.000
    H333     H        0.95650    0.94290    0.44000    1.000
    C334     C        0.99413    0.83119    0.26200    1.000
    C335     C        0.01189    0.81613    0.31660    1.000
    H336     H        0.00010    0.80530    0.36670    1.000
    C337     C        0.04728    0.81678    0.29840    1.000
    H338     H        0.05970    0.80670    0.33810    1.000
    C339     C        0.05680    0.86220    0.18880    1.000
    H340     H        0.07540    0.88080    0.15300    1.000
    C341     C        0.02125    0.86115    0.20770    1.000
    H342     H        0.01460    0.87980    0.18560    1.000
    C343     C        0.55364    0.02180    0.70000    1.000
    H344     H        0.53070    0.02190    0.71970    1.000
    C345     C        0.54974    0.00564    0.60510    1.000
    H346     H        0.52470    0.99410    0.55060    1.000
    C347     C        0.58873    0.00953    0.60560    1.000
    H348     H        0.59560    0.00060    0.55210    1.000
    C349     C        0.61711    0.03001    0.70370    1.000
    C350     C        0.66043    0.04133    0.73760    1.000
    C351     C        0.68947    0.06407    0.83260    1.000
    C352     C        0.73517    0.07705    0.86990    1.000
    H353     H        0.75120    0.07080    0.83530    1.000
    C354     C        0.75078    0.10004    0.96450    1.000
    H355     H        0.78010    0.11330    0.00860    1.000
    C356     C        0.71540    0.10048    0.98470    1.000
    H357     H        0.71740    0.11440    0.04600    1.000
    C358     C        0.67804    0.02644    0.66660    1.000
    C359     C        0.71400    0.05848    0.63680    1.000
    H360     H        0.72910    0.09110    0.66000    1.000
    C361     C        0.72820    0.04280    0.57220    1.000
    H362     H        0.75310    0.06530    0.55110    1.000
    C363     C        0.67398    0.96698    0.56940    1.000
    H364     H        0.65980    0.93460    0.54650    1.000
    C365     C        0.65796    0.97998    0.63330    1.000
    H366     H        0.63330    0.95710    0.65420    1.000
    C367     C        0.50755    0.98721    0.88260    1.000
    H368     H        0.50790    0.96170    0.87400    1.000
    C369     C        0.46737    0.98255    0.88000    1.000
    H370     H        0.43660    0.95400    0.86930    1.000
    C371     C        0.48032    0.02652    0.89570    1.000
    H372     H        0.46040    0.03440    0.89820    1.000
    C373     C        0.52996    0.05854    0.90770    1.000
    C374     C        0.55826    0.10624    0.92080    1.000
    C375     C        0.60483    0.13659    0.92410    1.000
    C376     C        0.63636    0.18676    0.94580    1.000
    H377     H        0.62840    0.20660    0.95760    1.000
    C378     C        0.67974    0.20114    0.94650    1.000
    H379     H        0.70740    0.23260    0.95790    1.000
    C380     C        0.67556    0.16050    0.92700    1.000
    H381     H        0.70100    0.16080    0.92400    1.000
    C382     C        0.53519    0.12923    0.93310    1.000
    C383     C        0.52465    0.13477    0.01670    1.000
    H384     H        0.53160    0.12480    0.06630    1.000
    C385     C        0.50396    0.15504    0.02610    1.000
    H386     H        0.49750    0.15990    0.08370    1.000
    C387     C        0.50226    0.16214    0.87660    1.000
    H388     H        0.49360    0.17100    0.82680    1.000
    C389     C        0.52439    0.14341    0.86360    1.000
    H390     H        0.53190    0.14050    0.80650    1.000
    C391     C        0.64543    0.11269    0.10840    1.000
    H392     H        0.64260    0.13440    0.09020    1.000
    C393     C        0.66332    0.11706    0.20240    1.000
    H394     H        0.67440    0.14160    0.25770    1.000
    C395     C        0.66187    0.07933    0.19920    1.000
    H396     H        0.67190    0.07270    0.25200    1.000
    C397     C        0.64245    0.05163    0.10120    1.000
    C398     C        0.63464    0.00980    0.06420    1.000
    C399     C        0.61094    0.98060    0.96840    1.000
    C400     C        0.60031    0.93689    0.92930    1.000
    H401     H        0.60920    0.92220    0.96210    1.000
    C402     C        0.57518    0.92010    0.83620    1.000
    H403     H        0.56230    0.89110    0.79170    1.000
    C404     C        0.57202    0.95436    0.81870    1.000
    H405     H        0.55690    0.95190    0.75810    1.000
    C406     C        0.65295    0.99495    0.13130    1.000
    C407     C        0.62463    0.95323    0.15280    1.000
    H408     H        0.59160    0.93160    0.12170    1.000
    C409     C        0.64484    0.94328    0.22020    1.000
    H410     H        0.62490    0.91450    0.23390    1.000
    C411     C        0.71824    0.01200    0.24420    1.000
    H412     H        0.75120    0.03280    0.27610    1.000
    C413     C        0.70142    0.02452    0.17820    1.000
    H414     H        0.72260    0.05300    0.16450    1.000
    C415     C        0.23734    0.68036    0.04390    1.000
    H416     H        0.21330    0.67990    0.05900    1.000
    C417     C        0.23614    0.66494    0.95050    1.000
    H418     H        0.21210    0.65310    0.89330    1.000
    C419     C        0.27603    0.67037    0.95850    1.000
    H420     H        0.28510    0.66250    0.90770    1.000
    C421     C        0.30175    0.68995    0.05690    1.000
    C422     C        0.34468    0.70106    0.09770    1.000
    C423     C        0.37122    0.72168    0.19230    1.000
    C424     C        0.41665    0.73615    0.23400    1.000
    H425     H        0.43470    0.73230    0.20140    1.000
    C426     C        0.42956    0.75658    0.32970    1.000
    H427     H        0.45840    0.77000    0.37590    1.000
    C428     C        0.39242    0.75394    0.34610    1.000
    H429     H        0.39210    0.76510    0.40720    1.000
    C430     C        0.36256    0.68666    0.02900    1.000
    C431     C        0.39154    0.71602    0.98280    1.000
    H432     H        0.40410    0.74790    0.99840    1.000
    C433     C        0.40209    0.69789    0.91240    1.000
    H434     H        0.42240    0.71840    0.88120    1.000
    C435     C        0.35918    0.62654    0.93410    1.000
    H436     H        0.34810    0.59510    0.91740    1.000
    C437     C        0.34676    0.64082    0.00690    1.000
    H438     H        0.32820    0.62000    0.03990    1.000
    C439     C        0.35708    0.81658    0.28730    1.000
    H440     H        0.38270    0.81650    0.29010    1.000
    C441     C        0.36184    0.85758    0.30540    1.000
    H442     H        0.39030    0.88910    0.32260    1.000
    C443     C        0.31737    0.84305    0.29350    1.000
    H444     H        0.30910    0.86270    0.30040    1.000
    C445     C        0.28558    0.79266    0.26860    1.000
    C446     C        0.20842    0.80010    0.17440    1.000
    H447     H        0.21860    0.79680    0.12160    1.000
    C448     C        0.18693    0.81985    0.17680    1.000
    H449     H        0.18170    0.82890    0.12360    1.000
    C450     C        0.50116    0.37700    0.61570    1.000
    H451     H        0.47150    0.35950    0.62700    1.000
    C452     C        0.51568    0.35638    0.56270    1.000
    H453     H        0.49860    0.32380    0.53230    1.000
    C454     C        0.55981    0.39355    0.56440    1.000
    H455     H        0.57980    0.39140    0.53580    1.000
    C456     C        0.57055    0.43559    0.61630    1.000
    C457     C        0.61143    0.48189    0.63170    1.000
    C458     C        0.62031    0.52299    0.68220    1.000
    C459     C        0.66026    0.57036    0.69640    1.000
    H460     H        0.68610    0.58010    0.67310    1.000
    C461     C        0.65527    0.59911    0.74860    1.000
    H462     H        0.67660    0.63260    0.76950    1.000
    C463     C        0.61209    0.56923    0.76540    1.000
    H464     H        0.59980    0.58040    0.80090    1.000
    C465     C        0.64968    0.48884    0.59670    1.000
    C466     C        0.64929    0.48415    0.50390    1.000
    H467     H        0.62280    0.47500    0.45640    1.000
    C468     C        0.68762    0.49282    0.47930    1.000
    H469     H        0.68660    0.48960    0.41460    1.000
    C470     C        0.72565    0.50861    0.63090    1.000
    H471     H        0.75230    0.51650    0.67560    1.000
    C472     C        0.69009    0.50141    0.66480    1.000
    H473     H        0.69220    0.50460    0.73000    1.000
    C474     C        0.55424    0.52762    0.94330    1.000
    H475     H        0.57360    0.52120    0.97110    1.000
    C476     C        0.54603    0.55613    0.99590    1.000
    H477     H        0.55790    0.57130    0.06260    1.000
    C478     C        0.51719    0.55647    0.92850    1.000
    H479     H        0.50570    0.57310    0.94030    1.000
    C480     C        0.50708    0.52840    0.83860    1.000
    C481     C        0.42025    0.52593    0.78670    1.000
    H482     H        0.40880    0.50080    0.81310    1.000
    C483     C        0.39970    0.54780    0.78340    1.000
    H484     H        0.37340    0.53620    0.80590    1.000
    C485     C        0.57629    0.81411    0.42610    1.000
    C486     C        0.48891    0.23171    0.33910    1.000
    C487     C        0.13342    0.87598    0.61970    1.000
    F488     F        0.56368    0.83684    0.46620    1.000
    F489     F        0.60568    0.81760    0.49520    1.000
    F490     F        0.53735    0.76941    0.38950    1.000
    F491     F        0.47769    0.19189    0.34510    1.000
    F492     F        0.45071    0.22735    0.32720    1.000
    F493     F        0.51880    0.26440    0.42240    1.000
    F494     F        0.08519    0.83955    0.57740    1.000
    F495     F        0.13519    0.90921    0.67530    1.000
    F496     F        0.16280    0.86846    0.64440    1.000
    Ga497    Ga       0.88065    0.83010    0.39131    1.000
    Ga498    Ga       0.61185    0.05643    0.90368    1.000
    N499     N        0.88554    0.87720    0.49290    1.000
    N500     N        0.84276    0.83674    0.29190    1.000
    N501     N        0.76218    0.94382    0.40480    1.000
    N502     N        0.91934    0.82172    0.48780    1.000
    N503     N        0.82221    0.77469    0.41300    1.000
    N504     N        0.82274    0.61330    0.51880    1.000
    N505     N        0.87451    0.78137    0.28670    1.000
    N506     N        0.94138    0.88106    0.36910    1.000
    N507     N        0.06451    0.83017    0.23110    1.000
    N508     N        0.59471    0.03721    0.75990    1.000
    N509     N        0.67876    0.07902    0.90740    1.000
    N510     N        0.70843    0.99755    0.53810    1.000
    N511     N        0.54568    0.03232    0.89890    1.000
    N512     N        0.63136    0.12110    0.91290    1.000
    N513     N        0.83198    0.50720    0.54320    1.000
    N514     N        0.63279    0.07385    0.04730    1.000
    N515     N        0.59276    0.99078    0.89740    1.000
    N516     N        0.69074    0.97214    0.26620    1.000
    N517     N        0.27619    0.69547    0.10800    1.000
    N518     N        0.35696    0.73352    0.26510    1.000
    N519     N        0.38568    0.65436    0.88700    1.000
    N520     N        0.31248    0.77794    0.26586    1.000
    N521     N        0.53280    0.42322    0.64810    1.000
    N522     N        0.58965    0.52305    0.72620    1.000
    N523     N        0.72601    0.50549    0.54250    1.000
    N524     N        0.53160    0.51134    0.85150    1.000
    O525     O        0.61369    0.80867    0.30130    1.000
    O526     O        0.56638    0.83260    0.27310    1.000
    O527     O        0.64350    0.88592    0.39060    1.000
    O528     O        0.52495    0.29353    0.25000    1.000
    O529     O        0.47698    0.21000    0.16020    1.000
    O530     O        0.55479    0.25177    0.26740    1.000
    O531     O        0.19948    0.93982    0.55870    1.000
    O532     O        0.14376    0.85920    0.45050    1.000
    O533     O        0.11638    0.90606    0.49140    1.000
    S534     S        0.60295    0.83785    0.33766    1.000
    S535     S        0.51445    0.24913    0.24341    1.000
    S536     S        0.15513    0.89541    0.52605    1.000
    Ag537    Ag       0.97091    0.72238    0.91149    1.000
    Ag538    Ag       0.54163    0.79915    0.02109    1.000
    C539     C        0.89245    0.90763    0.08680    1.000
    H540     H        0.88520    0.92640    0.11390    1.000
    C541     C        0.92027    0.89977    0.14050    1.000
    H542     H        0.93560    0.91280    0.20710    1.000
    C543     C        0.92068    0.86928    0.07640    1.000
    H544     H        0.93570    0.85650    0.09120    1.000
    C545     C        0.89393    0.86013    0.98200    1.000
    C546     C        0.88613    0.83341    0.89560    1.000
    C547     C        0.86126    0.82616    0.80570    1.000
    C548     C        0.85584    0.80114    0.71500    1.000
    H549     H        0.86900    0.78620    0.70390    1.000
    C550     C        0.82863    0.80291    0.64840    1.000
    H551     H        0.81930    0.78970    0.58150    1.000
    C552     C        0.81660    0.82806    0.69640    1.000
    H553     H        0.79710    0.83390    0.66610    1.000
    C554     C        0.90764    0.80908    0.89870    1.000
    C555     C        0.95491    0.83355    0.92390    1.000
    H556     H        0.97610    0.86690    0.93970    1.000
    C557     C        0.97232    0.80860    0.92620    1.000
    H558     H        0.00540    0.82580    0.94370    1.000
    C559     C        0.89842    0.73928    0.87990    1.000
    H560     H        0.87760    0.70600    0.86490    1.000
    C561     C        0.87923    0.76181    0.87470    1.000
    H562     H        0.84600    0.74360    0.85400    1.000
    C563     C        0.85018    0.96572    0.02550    1.000
    H564     H        0.88180    0.98640    0.02450    1.000
    C565     C        0.82772    0.98118    0.06820    1.000
    H566     H        0.84120    0.01260    0.10040    1.000
    C567     C        0.78346    0.94160    0.05260    1.000
    H568     H        0.75940    0.94020    0.07040    1.000
    C569     C        0.77866    0.90214    0.00540    1.000
    C570     C        0.73964    0.85426    0.98080    1.000
    C571     C        0.73862    0.81742    0.94150    1.000
    C572     C        0.70242    0.76836    0.92700    1.000
    H573     H        0.67340    0.75460    0.93970    1.000
    C574     C        0.71702    0.74440    0.89100    1.000
    H575     H        0.70040    0.71140    0.87500    1.000
    C576     C        0.76126    0.77870    0.88320    1.000
    H577     H        0.77960    0.77220    0.85970    1.000
    C578     C        0.69571    0.84285    0.99570    1.000
    C579     C        0.68080    0.82782    0.06630    1.000
    H580     H        0.69670    0.82150    0.10830    1.000
    C581     C        0.64039    0.82121    0.07850    1.000
    H582     H        0.63300    0.81520    0.13520    1.000
    C583     C        0.62765    0.83579    0.94300    1.000
    H584     H        0.60880    0.83820    0.89790    1.000
    C585     C        0.66840    0.84596    0.92740    1.000
    H586     H        0.67710    0.85450    0.87320    1.000
    C587     C        0.73451    0.83585    0.74570    1.000
    H588     H        0.72010    0.80530    0.75100    1.000
    C589     C        0.71103    0.84881    0.69450    1.000
    H590     H        0.67840    0.82840    0.65960    1.000
    C591     C        0.74292    0.89534    0.70360    1.000
    H592     H        0.73690    0.91350    0.67700    1.000
    C593     C        0.78869    0.91223    0.76270    1.000
    C594     C        0.83198    0.95686    0.78580    1.000
    C595     C        0.87556    0.97094    0.83070    1.000
    C596     C        0.92116    0.01480    0.85040    1.000
    H597     H        0.92800    0.04160    0.83510    1.000
    C598     C        0.95385    0.01179    0.89560    1.000
    H599     H        0.98720    0.03540    0.91440    1.000
    C600     C        0.92879    0.96741    0.90830    1.000
    H601     H        0.94290    0.95650    0.94000    1.000
    C602     C        0.83119    0.99413    0.76200    1.000
    C603     C        0.81613    0.01189    0.81660    1.000
    H604     H        0.80530    0.00010    0.86670    1.000
    C605     C        0.81678    0.04728    0.79840    1.000
    H606     H        0.80670    0.05970    0.83810    1.000
    C607     C        0.86220    0.05680    0.68880    1.000
    H608     H        0.88080    0.07540    0.65300    1.000
    C609     C        0.86115    0.02125    0.70770    1.000
    H610     H        0.87980    0.01460    0.68560    1.000
    C611     C        0.02180    0.55364    0.20000    1.000
    H612     H        0.02190    0.53070    0.21970    1.000
    C613     C        0.00564    0.54974    0.10510    1.000
    H614     H        0.99410    0.52470    0.05060    1.000
    C615     C        0.00953    0.58873    0.10560    1.000
    H616     H        0.00060    0.59560    0.05210    1.000
    C617     C        0.03001    0.61711    0.20370    1.000
    C618     C        0.04133    0.66043    0.23760    1.000
    C619     C        0.06407    0.68947    0.33260    1.000
    C620     C        0.07705    0.73517    0.36990    1.000
    H621     H        0.07080    0.75120    0.33530    1.000
    C622     C        0.10004    0.75078    0.46450    1.000
    H623     H        0.11330    0.78010    0.50860    1.000
    C624     C        0.10048    0.71540    0.48470    1.000
    H625     H        0.11440    0.71740    0.54600    1.000
    C626     C        0.02644    0.67804    0.16660    1.000
    C627     C        0.05848    0.71400    0.13680    1.000
    H628     H        0.09110    0.72910    0.16000    1.000
    C629     C        0.04280    0.72820    0.07220    1.000
    H630     H        0.06530    0.75310    0.05110    1.000
    C631     C        0.96698    0.67398    0.06940    1.000
    H632     H        0.93460    0.65980    0.04650    1.000
    C633     C        0.97998    0.65796    0.13330    1.000
    H634     H        0.95710    0.63330    0.15420    1.000
    C635     C        0.98721    0.50755    0.38260    1.000
    H636     H        0.96170    0.50790    0.37400    1.000
    C637     C        0.98255    0.46737    0.38000    1.000
    H638     H        0.95400    0.43660    0.36930    1.000
    C639     C        0.02652    0.48032    0.39570    1.000
    H640     H        0.03440    0.46040    0.39820    1.000
    C641     C        0.05854    0.52996    0.40770    1.000
    C642     C        0.10624    0.55826    0.42080    1.000
    C643     C        0.13659    0.60483    0.42410    1.000
    C644     C        0.18676    0.63636    0.44580    1.000
    H645     H        0.20660    0.62840    0.45760    1.000
    C646     C        0.20114    0.67974    0.44650    1.000
    H647     H        0.23260    0.70740    0.45790    1.000
    C648     C        0.16050    0.67556    0.42700    1.000
    H649     H        0.16080    0.70100    0.42400    1.000
    C650     C        0.12923    0.53519    0.43310    1.000
    C651     C        0.13477    0.52465    0.51670    1.000
    H652     H        0.12480    0.53160    0.56630    1.000
    C653     C        0.15504    0.50396    0.52610    1.000
    H654     H        0.15990    0.49750    0.58370    1.000
    C655     C        0.16214    0.50226    0.37660    1.000
    H656     H        0.17100    0.49360    0.32680    1.000
    C657     C        0.14341    0.52439    0.36360    1.000
    H658     H        0.14050    0.53190    0.30650    1.000
    C659     C        0.11269    0.64543    0.60840    1.000
    H660     H        0.13440    0.64260    0.59020    1.000
    C661     C        0.11706    0.66332    0.70240    1.000
    H662     H        0.14160    0.67440    0.75770    1.000
    C663     C        0.07933    0.66187    0.69920    1.000
    H664     H        0.07270    0.67190    0.75200    1.000
    C665     C        0.05163    0.64245    0.60120    1.000
    C666     C        0.00980    0.63464    0.56420    1.000
    C667     C        0.98060    0.61094    0.46840    1.000
    C668     C        0.93689    0.60031    0.42930    1.000
    H669     H        0.92220    0.60920    0.46210    1.000
    C670     C        0.92010    0.57518    0.33620    1.000
    H671     H        0.89110    0.56230    0.29170    1.000
    C672     C        0.95436    0.57202    0.31870    1.000
    H673     H        0.95190    0.55690    0.25810    1.000
    C674     C        0.99495    0.65295    0.63130    1.000
    C675     C        0.95323    0.62463    0.65280    1.000
    H676     H        0.93160    0.59160    0.62170    1.000
    C677     C        0.94328    0.64484    0.72020    1.000
    H678     H        0.91450    0.62490    0.73390    1.000
    C679     C        0.01200    0.71824    0.74420    1.000
    H680     H        0.03280    0.75120    0.77610    1.000
    C681     C        0.02452    0.70142    0.67820    1.000
    H682     H        0.05300    0.72260    0.66450    1.000
    C683     C        0.68036    0.23734    0.54390    1.000
    H684     H        0.67990    0.21330    0.55900    1.000
    C685     C        0.66494    0.23614    0.45050    1.000
    H686     H        0.65310    0.21210    0.39330    1.000
    C687     C        0.67037    0.27603    0.45850    1.000
    H688     H        0.66250    0.28510    0.40770    1.000
    C689     C        0.68995    0.30175    0.55690    1.000
    C690     C        0.70106    0.34468    0.59770    1.000
    C691     C        0.72168    0.37122    0.69230    1.000
    C692     C        0.73615    0.41665    0.73400    1.000
    H693     H        0.73230    0.43470    0.70140    1.000
    C694     C        0.75658    0.42956    0.82970    1.000
    H695     H        0.77000    0.45840    0.87590    1.000
    C696     C        0.75394    0.39242    0.84610    1.000
    H697     H        0.76510    0.39210    0.90720    1.000
    C698     C        0.68666    0.36256    0.52900    1.000
    C699     C        0.71602    0.39154    0.48280    1.000
    H700     H        0.74790    0.40410    0.49840    1.000
    C701     C        0.69789    0.40209    0.41240    1.000
    H702     H        0.71840    0.42240    0.38120    1.000
    C703     C        0.62654    0.35918    0.43410    1.000
    H704     H        0.59510    0.34810    0.41740    1.000
    C705     C        0.64082    0.34676    0.50690    1.000
    H706     H        0.62000    0.32820    0.53990    1.000
    C707     C        0.81658    0.35708    0.78730    1.000
    H708     H        0.81650    0.38270    0.79010    1.000
    C709     C        0.85758    0.36184    0.80540    1.000
    H710     H        0.88910    0.39030    0.82260    1.000
    C711     C        0.84305    0.31737    0.79350    1.000
    H712     H        0.86270    0.30910    0.80040    1.000
    C713     C        0.79266    0.28558    0.76860    1.000
    C714     C        0.80010    0.20842    0.67440    1.000
    H715     H        0.79680    0.21860    0.62160    1.000
    C716     C        0.81985    0.18693    0.67680    1.000
    H717     H        0.82890    0.18170    0.62360    1.000
    C718     C        0.37700    0.50116    0.11570    1.000
    H719     H        0.35950    0.47150    0.12700    1.000
    C720     C        0.35638    0.51568    0.06270    1.000
    H721     H        0.32380    0.49860    0.03230    1.000
    C722     C        0.39355    0.55981    0.06440    1.000
    H723     H        0.39140    0.57980    0.03580    1.000
    C724     C        0.43559    0.57055    0.11630    1.000
    C725     C        0.48189    0.61143    0.13170    1.000
    C726     C        0.52299    0.62031    0.18220    1.000
    C727     C        0.57036    0.66026    0.19640    1.000
    H728     H        0.58010    0.68610    0.17310    1.000
    C729     C        0.59911    0.65527    0.24860    1.000
    H730     H        0.63260    0.67660    0.26950    1.000
    C731     C        0.56923    0.61209    0.26540    1.000
    H732     H        0.58040    0.59980    0.30090    1.000
    C733     C        0.48884    0.64968    0.09670    1.000
    C734     C        0.48415    0.64929    0.00390    1.000
    H735     H        0.47500    0.62280    0.95640    1.000
    C736     C        0.49282    0.68762    0.97930    1.000
    H737     H        0.48960    0.68660    0.91460    1.000
    C738     C        0.50861    0.72565    0.13090    1.000
    H739     H        0.51650    0.75230    0.17560    1.000
    C740     C        0.50141    0.69009    0.16480    1.000
    H741     H        0.50460    0.69220    0.23000    1.000
    C742     C        0.52762    0.55424    0.44330    1.000
    H743     H        0.52120    0.57360    0.47110    1.000
    C744     C        0.55613    0.54603    0.49590    1.000
    H745     H        0.57130    0.55790    0.56260    1.000
    C746     C        0.55647    0.51719    0.42850    1.000
    H747     H        0.57310    0.50570    0.44030    1.000
    C748     C        0.52840    0.50708    0.33860    1.000
    C749     C        0.52593    0.42025    0.28670    1.000
    H750     H        0.50080    0.40880    0.31310    1.000
    C751     C        0.54780    0.39970    0.28340    1.000
    H752     H        0.53620    0.37340    0.30590    1.000
    C753     C        0.81411    0.57629    0.92610    1.000
    C754     C        0.23171    0.48891    0.83910    1.000
    C755     C        0.87598    0.13342    0.11970    1.000
    F756     F        0.83684    0.56368    0.96620    1.000
    F757     F        0.81760    0.60568    0.99520    1.000
    F758     F        0.76941    0.53735    0.88950    1.000
    F759     F        0.19189    0.47769    0.84510    1.000
    F760     F        0.22735    0.45071    0.82720    1.000
    F761     F        0.26440    0.51880    0.92240    1.000
    F762     F        0.83955    0.08519    0.07740    1.000
    F763     F        0.90921    0.13519    0.17530    1.000
    F764     F        0.86846    0.16280    0.14440    1.000
    Ga765    Ga       0.83010    0.88065    0.89131    1.000
    Ga766    Ga       0.05643    0.61185    0.40368    1.000
    N767     N        0.87720    0.88554    0.99290    1.000
    N768     N        0.83674    0.84276    0.79190    1.000
    N769     N        0.94382    0.76218    0.90480    1.000
    N770     N        0.82172    0.91934    0.98780    1.000
    N771     N        0.77469    0.82221    0.91300    1.000
    N772     N        0.61330    0.82274    0.01880    1.000
    N773     N        0.78137    0.87451    0.78670    1.000
    N774     N        0.88106    0.94138    0.86910    1.000
    N775     N        0.83017    0.06451    0.73110    1.000
    N776     N        0.03721    0.59471    0.25990    1.000
    N777     N        0.07902    0.67876    0.40740    1.000
    N778     N        0.99755    0.70843    0.03810    1.000
    N779     N        0.03232    0.54568    0.39890    1.000
    N780     N        0.12110    0.63136    0.41290    1.000
    N781     N        0.50720    0.83198    0.04320    1.000
    N782     N        0.07385    0.63279    0.54730    1.000
    N783     N        0.99078    0.59276    0.39740    1.000
    N784     N        0.97214    0.69074    0.76620    1.000
    N785     N        0.69547    0.27619    0.60800    1.000
    N786     N        0.73352    0.35696    0.76510    1.000
    N787     N        0.65436    0.38568    0.38700    1.000
    N788     N        0.77794    0.31248    0.76586    1.000
    N789     N        0.42322    0.53280    0.14810    1.000
    N790     N        0.52305    0.58965    0.22620    1.000
    N791     N        0.50549    0.72601    0.04250    1.000
    N792     N        0.51134    0.53160    0.35150    1.000
    O793     O        0.80867    0.61369    0.80130    1.000
    O794     O        0.83260    0.56638    0.77310    1.000
    O795     O        0.88592    0.64350    0.89060    1.000
    O796     O        0.29353    0.52495    0.75000    1.000
    O797     O        0.21000    0.47698    0.66020    1.000
    O798     O        0.25177    0.55479    0.76740    1.000
    O799     O        0.93982    0.19948    0.05870    1.000
    O800     O        0.85920    0.14376    0.95050    1.000
    O801     O        0.90606    0.11638    0.99140    1.000
    S802     S        0.83785    0.60295    0.83766    1.000
    S803     S        0.24913    0.51445    0.74341    1.000
    S804     S        0.89541    0.15513    0.02605    1.000
    Ag805    Ag       0.27762    0.02909    0.58851    1.000
    Ag806    Ag       0.20085    0.45837    0.47891    1.000
    C807     C        0.09237    0.10755    0.41320    1.000
    H808     H        0.07360    0.11480    0.38610    1.000
    C809     C        0.10023    0.07973    0.35950    1.000
    H810     H        0.08720    0.06440    0.29290    1.000
    C811     C        0.13072    0.07932    0.42360    1.000
    H812     H        0.14350    0.06430    0.40880    1.000
    C813     C        0.13987    0.10607    0.51800    1.000
    C814     C        0.16659    0.11387    0.60440    1.000
    C815     C        0.17384    0.13874    0.69430    1.000
    C816     C        0.19886    0.14416    0.78500    1.000
    H817     H        0.21380    0.13100    0.79610    1.000
    C818     C        0.19709    0.17137    0.85160    1.000
    H819     H        0.21030    0.18070    0.91850    1.000
    C820     C        0.17194    0.18340    0.80360    1.000
    H821     H        0.16610    0.20290    0.83390    1.000
    C822     C        0.19092    0.09236    0.60130    1.000
    C823     C        0.16645    0.04509    0.57610    1.000
    H824     H        0.13310    0.02390    0.56030    1.000
    C825     C        0.19140    0.02768    0.57380    1.000
    H826     H        0.17420    0.99460    0.55630    1.000
    C827     C        0.26072    0.10158    0.62010    1.000
    H828     H        0.29400    0.12240    0.63510    1.000
    C829     C        0.23819    0.12077    0.62530    1.000
    H830     H        0.25640    0.15400    0.64600    1.000
    C831     C        0.03428    0.14982    0.47450    1.000
    H832     H        0.01360    0.11820    0.47550    1.000
    C833     C        0.01882    0.17228    0.43180    1.000
    H834     H        0.98740    0.15880    0.39960    1.000
    C835     C        0.05840    0.21654    0.44740    1.000
    H836     H        0.05980    0.24060    0.42960    1.000
    C837     C        0.09786    0.22134    0.49460    1.000
    C838     C        0.14574    0.26036    0.51920    1.000
    C839     C        0.18258    0.26138    0.55850    1.000
    C840     C        0.23164    0.29758    0.57300    1.000
    H841     H        0.24540    0.32660    0.56030    1.000
    C842     C        0.25560    0.28298    0.60900    1.000
    H843     H        0.28860    0.29960    0.62500    1.000
    C844     C        0.22130    0.23874    0.61680    1.000
    H845     H        0.22780    0.22040    0.64030    1.000
    C846     C        0.15715    0.30429    0.50430    1.000
    C847     C        0.17218    0.31920    0.43370    1.000
    H848     H        0.17850    0.30330    0.39170    1.000
    C849     C        0.17879    0.35961    0.42150    1.000
    H850     H        0.18480    0.36700    0.36480    1.000
    C851     C        0.16421    0.37235    0.55700    1.000
    H852     H        0.16180    0.39120    0.60210    1.000
    C853     C        0.15404    0.33160    0.57260    1.000
    H854     H        0.14550    0.32290    0.62680    1.000
    C855     C        0.16415    0.26549    0.75430    1.000
    H856     H        0.19470    0.27990    0.74900    1.000
    C857     C        0.15119    0.28897    0.80550    1.000
    H858     H        0.17160    0.32160    0.84040    1.000
    C859     C        0.10466    0.25708    0.79640    1.000
    H860     H        0.08650    0.26310    0.82300    1.000
    C861     C        0.08777    0.21131    0.73730    1.000
    C862     C        0.04314    0.16802    0.71420    1.000
    C863     C        0.02906    0.12444    0.66930    1.000
    C864     C        0.98520    0.07884    0.64960    1.000
    H865     H        0.95840    0.07200    0.66490    1.000
    C866     C        0.98821    0.04615    0.60440    1.000
    H867     H        0.96460    0.01280    0.58560    1.000
    C868     C        0.03259    0.07121    0.59170    1.000
    H869     H        0.04350    0.05710    0.56000    1.000
    C870     C        0.00587    0.16881    0.73800    1.000
    C871     C        0.98811    0.18387    0.68340    1.000
    H872     H        0.99990    0.19470    0.63330    1.000
    C873     C        0.95272    0.18322    0.70160    1.000
    H874     H        0.94030    0.19330    0.66190    1.000
    C875     C        0.94320    0.13780    0.81120    1.000
    H876     H        0.92460    0.11920    0.84700    1.000
    C877     C        0.97875    0.13885    0.79230    1.000
    H878     H        0.98540    0.12020    0.81440    1.000
    C879     C        0.44636    0.97820    0.30000    1.000
    H880     H        0.46930    0.97810    0.28030    1.000
    C881     C        0.45026    0.99436    0.39490    1.000
    H882     H        0.47530    0.00590    0.44940    1.000
    C883     C        0.41127    0.99047    0.39440    1.000
    H884     H        0.40440    0.99940    0.44790    1.000
    C885     C        0.38289    0.96999    0.29630    1.000
    C886     C        0.33957    0.95867    0.26240    1.000
    C887     C        0.31053    0.93593    0.16740    1.000
    C888     C        0.26483    0.92295    0.13010    1.000
    H889     H        0.24880    0.92920    0.16470    1.000
    C890     C        0.24922    0.89996    0.03550    1.000
    H891     H        0.21990    0.88670    0.99140    1.000
    C892     C        0.28460    0.89952    0.01530    1.000
    H893     H        0.28260    0.88560    0.95400    1.000
    C894     C        0.32196    0.97356    0.33340    1.000
    C895     C        0.28600    0.94152    0.36320    1.000
    H896     H        0.27090    0.90890    0.34000    1.000
    C897     C        0.27180    0.95720    0.42780    1.000
    H898     H        0.24690    0.93470    0.44890    1.000
    C899     C        0.32602    0.03302    0.43060    1.000
    H900     H        0.34020    0.06540    0.45350    1.000
    C901     C        0.34204    0.02002    0.36670    1.000
    H902     H        0.36670    0.04290    0.34580    1.000
    C903     C        0.49245    0.01279    0.11740    1.000
    H904     H        0.49210    0.03830    0.12600    1.000
    C905     C        0.53263    0.01745    0.12000    1.000
    H906     H        0.56340    0.04600    0.13070    1.000
    C907     C        0.51968    0.97348    0.10430    1.000
    H908     H        0.53960    0.96560    0.10180    1.000
    C909     C        0.47004    0.94146    0.09230    1.000
    C910     C        0.44174    0.89376    0.07920    1.000
    C911     C        0.39517    0.86341    0.07590    1.000
    C912     C        0.36364    0.81324    0.05420    1.000
    H913     H        0.37160    0.79340    0.04240    1.000
    C914     C        0.32026    0.79886    0.05350    1.000
    H915     H        0.29260    0.76740    0.04210    1.000
    C916     C        0.32444    0.83950    0.07300    1.000
    H917     H        0.29900    0.83920    0.07600    1.000
    C918     C        0.46481    0.87077    0.06690    1.000
    C919     C        0.47535    0.86523    0.98330    1.000
    H920     H        0.46840    0.87520    0.93370    1.000
    C921     C        0.49604    0.84496    0.97390    1.000
    H922     H        0.50250    0.84010    0.91630    1.000
    C923     C        0.49774    0.83786    0.12340    1.000
    H924     H        0.50640    0.82900    0.17320    1.000
    C925     C        0.47561    0.85659    0.13640    1.000
    H926     H        0.46810    0.85950    0.19350    1.000
    C927     C        0.35457    0.88731    0.89160    1.000
    H928     H        0.35740    0.86560    0.90980    1.000
    C929     C        0.33668    0.88294    0.79760    1.000
    H930     H        0.32560    0.85840    0.74230    1.000
    C931     C        0.33813    0.92067    0.80080    1.000
    H932     H        0.32810    0.92730    0.74800    1.000
    C933     C        0.35755    0.94837    0.89880    1.000
    C934     C        0.36536    0.99020    0.93580    1.000
    C935     C        0.38906    0.01940    0.03160    1.000
    C936     C        0.39969    0.06311    0.07070    1.000
    H937     H        0.39080    0.07780    0.03790    1.000
    C938     C        0.42482    0.07990    0.16380    1.000
    H939     H        0.43770    0.10890    0.20830    1.000
    C940     C        0.42798    0.04564    0.18130    1.000
    H941     H        0.44310    0.04810    0.24190    1.000
    C942     C        0.34705    0.00505    0.86870    1.000
    C943     C        0.37537    0.04677    0.84720    1.000
    H944     H        0.40840    0.06840    0.87830    1.000
    C945     C        0.35516    0.05672    0.77980    1.000
    H946     H        0.37510    0.08550    0.76610    1.000
    C947     C        0.28176    0.98800    0.75580    1.000
    H948     H        0.24880    0.96720    0.72390    1.000
    C949     C        0.29858    0.97548    0.82180    1.000
    H950     H        0.27740    0.94700    0.83550    1.000
    C951     C        0.76266    0.31964    0.95610    1.000
    H952     H        0.78670    0.32010    0.94100    1.000
    C953     C        0.76386    0.33506    0.04950    1.000
    H954     H        0.78790    0.34690    0.10670    1.000
    C955     C        0.72397    0.32963    0.04150    1.000
    H956     H        0.71490    0.33750    0.09230    1.000
    C957     C        0.69825    0.31005    0.94310    1.000
    C958     C        0.65532    0.29894    0.90230    1.000
    C959     C        0.62878    0.27832    0.80770    1.000
    C960     C        0.58335    0.26385    0.76600    1.000
    H961     H        0.56530    0.26770    0.79860    1.000
    C962     C        0.57044    0.24342    0.67030    1.000
    H963     H        0.54160    0.23000    0.62410    1.000
    C964     C        0.60758    0.24606    0.65390    1.000
    H965     H        0.60790    0.23490    0.59280    1.000
    C966     C        0.63744    0.31334    0.97100    1.000
    C967     C        0.60846    0.28398    0.01720    1.000
    H968     H        0.59590    0.25210    0.00160    1.000
    C969     C        0.59791    0.30211    0.08760    1.000
    H970     H        0.57760    0.28160    0.11880    1.000
    C971     C        0.64082    0.37346    0.06590    1.000
    H972     H        0.65190    0.40490    0.08260    1.000
    C973     C        0.65324    0.35918    0.99310    1.000
    H974     H        0.67180    0.38000    0.96010    1.000
    C975     C        0.64292    0.18342    0.71270    1.000
    H976     H        0.61730    0.18350    0.70990    1.000
    C977     C        0.63816    0.14242    0.69460    1.000
    H978     H        0.60970    0.11090    0.67740    1.000
    C979     C        0.68263    0.15695    0.70650    1.000
    H980     H        0.69090    0.13730    0.69960    1.000
    C981     C        0.71442    0.20734    0.73140    1.000
    C982     C        0.79158    0.19990    0.82560    1.000
    H983     H        0.78140    0.20320    0.87840    1.000
    C984     C        0.81307    0.18015    0.82320    1.000
    H985     H        0.81830    0.17110    0.87640    1.000
    C986     C        0.49884    0.62300    0.38430    1.000
    H987     H        0.52850    0.64050    0.37300    1.000
    C988     C        0.48432    0.64362    0.43730    1.000
    H989     H        0.50140    0.67620    0.46770    1.000
    C990     C        0.44019    0.60645    0.43560    1.000
    H991     H        0.42020    0.60860    0.46420    1.000
    C992     C        0.42945    0.56441    0.38370    1.000
    C993     C        0.38857    0.51811    0.36830    1.000
    C994     C        0.37969    0.47701    0.31780    1.000
    C995     C        0.33974    0.42964    0.30360    1.000
    H996     H        0.31390    0.41990    0.32690    1.000
    C997     C        0.34473    0.40089    0.25140    1.000
    H998     H        0.32340    0.36740    0.23050    1.000
    C999     C        0.38791    0.43077    0.23460    1.000
    H1000    H        0.40020    0.41960    0.19910    1.000
    C1001    C        0.35032    0.51116    0.40330    1.000
    C1002    C        0.35071    0.51585    0.49610    1.000
    H1003    H        0.37720    0.52500    0.54360    1.000
    C1004    C        0.31238    0.50718    0.52070    1.000
    H1005    H        0.31340    0.51040    0.58540    1.000
    C1006    C        0.27435    0.49139    0.36910    1.000
    H1007    H        0.24770    0.48350    0.32440    1.000
    C1008    C        0.30991    0.49859    0.33520    1.000
    H1009    H        0.30780    0.49540    0.27000    1.000
    C1010    C        0.44576    0.47238    0.05670    1.000
    H1011    H        0.42640    0.47880    0.02890    1.000
    C1012    C        0.45397    0.44387    0.00410    1.000
    H1013    H        0.44210    0.42870    0.93740    1.000
    C1014    C        0.48281    0.44353    0.07150    1.000
    H1015    H        0.49430    0.42690    0.05970    1.000
    C1016    C        0.49292    0.47160    0.16140    1.000
    C1017    C        0.57975    0.47407    0.21330    1.000
    H1018    H        0.59120    0.49920    0.18690    1.000
    C1019    C        0.60030    0.45220    0.21660    1.000
    H1020    H        0.62660    0.46380    0.19410    1.000
    C1021    C        0.42371    0.18589    0.57390    1.000
    C1022    C        0.51109    0.76829    0.66090    1.000
    C1023    C        0.86658    0.12402    0.38030    1.000
    F1024    F        0.43632    0.16316    0.53380    1.000
    F1025    F        0.39432    0.18240    0.50480    1.000
    F1026    F        0.46265    0.23059    0.61050    1.000
    F1027    F        0.52231    0.80811    0.65490    1.000
    F1028    F        0.54929    0.77265    0.67280    1.000
    F1029    F        0.48120    0.73560    0.57760    1.000
    F1030    F        0.91481    0.16045    0.42260    1.000
    F1031    F        0.86481    0.09079    0.32470    1.000
    F1032    F        0.83720    0.13154    0.35560    1.000
    Ga1033   Ga       0.11935    0.16990    0.60869    1.000
    Ga1034   Ga       0.38815    0.94357    0.09632    1.000
    N1035    N        0.11446    0.12280    0.50710    1.000
    N1036    N        0.15724    0.16326    0.70810    1.000
    N1037    N        0.23782    0.05618    0.59520    1.000
    N1038    N        0.08066    0.17828    0.51220    1.000
    N1039    N        0.17779    0.22531    0.58700    1.000
    N1040    N        0.17726    0.38670    0.48120    1.000
    N1041    N        0.12549    0.21863    0.71330    1.000
    N1042    N        0.05862    0.11894    0.63090    1.000
    N1043    N        0.93549    0.16983    0.76890    1.000
    N1044    N        0.40529    0.96279    0.24010    1.000
    N1045    N        0.32124    0.92098    0.09260    1.000
    N1046    N        0.29157    0.00245    0.46190    1.000
    N1047    N        0.45432    0.96768    0.10110    1.000
    N1048    N        0.36864    0.87890    0.08710    1.000
    N1049    N        0.16802    0.49280    0.45680    1.000
    N1050    N        0.36721    0.92615    0.95270    1.000
    N1051    N        0.40724    0.00922    0.10260    1.000
    N1052    N        0.30926    0.02786    0.73380    1.000
    N1053    N        0.72381    0.30453    0.89200    1.000
    N1054    N        0.64304    0.26648    0.73490    1.000
    N1055    N        0.61432    0.34564    0.11300    1.000
    N1056    N        0.68752    0.22206    0.73414    1.000
    N1057    N        0.46720    0.57678    0.35190    1.000
    N1058    N        0.41035    0.47695    0.27380    1.000
    N1059    N        0.27399    0.49451    0.45750    1.000
    N1060    N        0.46840    0.48866    0.14850    1.000
    O1061    O        0.38631    0.19133    0.69870    1.000
    O1062    O        0.43362    0.16740    0.72690    1.000
    O1063    O        0.35650    0.11408    0.60940    1.000
    O1064    O        0.47505    0.70647    0.75000    1.000
    O1065    O        0.52302    0.79000    0.83980    1.000
    O1066    O        0.44521    0.74823    0.73260    1.000
    O1067    O        0.80052    0.06018    0.44130    1.000
    O1068    O        0.85624    0.14080    0.54950    1.000
    O1069    O        0.88362    0.09394    0.50860    1.000
    S1070    S        0.39705    0.16215    0.66234    1.000
    S1071    S        0.48555    0.75087    0.75659    1.000
    S1072    S        0.84487    0.10459    0.47395    1.000
    Ag1073   Ag       0.14049    0.85951    0.25000    1.000
    C1074    C        0.23739    0.76261    0.25000    1.000
    C1075    C        0.21501    0.78499    0.25000    1.000
    Ga1076   Ga       0.28939    0.71061    0.25000    1.000
    N1077    N        0.17311    0.82689    0.25000    1.000
    Ag1078   Ag       0.85951    0.14049    0.75000    1.000
    C1079    C        0.76261    0.23739    0.75000    1.000
    C1080    C        0.78499    0.21501    0.75000    1.000
    Ga1081   Ga       0.71061    0.28939    0.75000    1.000
    N1082    N        0.82689    0.17311    0.75000    1.000
    Ag1083   Ag       0.38260    0.61740    0.75000    1.000
    N1084    N        0.41602    0.58398    0.75000    1.000
    Ag1085   Ag       0.61740    0.38260    0.25000    1.000
    N1086    N        0.58398    0.41602    0.25000    1.000
    C1087    C        0.48017    0.51983    0.75000    1.000
    C1088    C        0.45773    0.54227    0.75000    1.000
    Ga1089   Ga       0.53219    0.46781    0.75000    1.000
    C1090    C        0.51983    0.48017    0.25000    1.000
    C1091    C        0.54227    0.45773    0.25000    1.000
    Ga1092   Ga       0.46781    0.53219    0.25000    1.000
