data_functionalizedCrystal
_audit_creation_method	'EQeq! by Chris Wilmer'
_symmetry_space_group_name_H-M	'P1'
_symmetry_Int_Tables_number	1
_symmetry_cell_setting	triclinic
loop_
_symmetry_equiv_pos_as_xyz
  x,y,z
_cell_length_a	10.0725
_cell_length_b	10.2297
_cell_length_c	23.5
_cell_angle_alpha	90
_cell_angle_beta	90
_cell_angle_gamma	90
loop_
_atom_site_label
_atom_site_type_symbol
_atom_site_fract_x
_atom_site_fract_y
_atom_site_fract_z
_atom_site_charge
Mof_H 	H 	0.6128	0.0928	0.1254	0.056
Mof_H 	H 	0.7881	0.8868	0.0943	0.065
Mof_H 	H 	0.7598	0.0101	0.0567	0.053
Mof_H 	H 	0.8728	0.9321	0.1988	0.08
Mof_H 	H 	0.0486	0.0407	0.2401	-0.045
Mof_H 	H 	0.0994	0.2559	0.2131	0.042
Mof_H 	H 	0.9344	0.3783	0.1689	-0.036
Mof_H 	H 	0.7453	0.2735	0.1353	0.044
Mof_C 	C 	0.616	0.945	0.1802	0.401
Mof_C 	C 	0.677	0.026	0.137	-0.193
Mof_C 	C 	0.72	0.949	0.0836	-0.241
Mof_C 	C 	0.61	0.879	0.0549	0.379
Mof_C 	C 	0.799	0.0927	0.1594	0.124
Mof_C 	C 	0.886	0.021	0.1924	-0.214
Mof_C 	C 	0.992	0.085	0.2154	0.057
Mof_C 	C 	0.019	0.218	0.2026	-0.178
Mof_C 	C 	0.924	0.289	0.1742	0.049
Mof_C 	C 	0.812	0.2256	0.1534	-0.213
Mof_O 	O 	0.5332	0.99	0.2155	-0.485
Mof_O 	O 	0.6445	0.8198	0.18	-0.487
Mof_O 	O 	0.4911	0.905	0.0693	-0.477
Mof_O 	O 	0.6352	0.8042	0.0116	-0.483
Mof_H 	H 	0.3872	0.5928	0.3746	0.057
Mof_H 	H 	0.2119	0.3868	0.4057	0.066
Mof_H 	H 	0.2402	0.5101	0.4433	0.054
Mof_H 	H 	0.1272	0.4321	0.3012	0.078
Mof_H 	H 	0.9514	0.5407	0.2599	-0.045
Mof_H 	H 	0.9006	0.7559	0.2869	0.041
Mof_H 	H 	0.0656	0.8783	0.3311	-0.036
Mof_H 	H 	0.2547	0.7735	0.3647	0.043
Mof_C 	C 	0.384	0.445	0.3198	0.401
Mof_C 	C 	0.323	0.526	0.363	-0.192
Mof_C 	C 	0.28	0.449	0.4164	-0.241
Mof_C 	C 	0.39	0.379	0.4451	0.379
Mof_C 	C 	0.201	0.5927	0.3406	0.122
Mof_C 	C 	0.114	0.521	0.3076	-0.211
Mof_C 	C 	0.008	0.585	0.2846	0.055
Mof_C 	C 	0.981	0.718	0.2974	-0.175
Mof_C 	C 	0.076	0.789	0.3258	0.046
Mof_C 	C 	0.188	0.7256	0.3466	-0.211
Mof_O 	O 	0.4668	0.49	0.2845	-0.484
Mof_O 	O 	0.3555	0.3198	0.32	-0.487
Mof_O 	O 	0.5089	0.405	0.4307	-0.477
Mof_O 	O 	0.3648	0.3042	0.4884	-0.483
Mof_H 	H 	0.8872	0.9072	0.6254	0.056
Mof_H 	H 	0.7119	0.1132	0.5943	0.067
Mof_H 	H 	0.7402	0.9899	0.5567	0.056
Mof_H 	H 	0.6272	0.0679	0.6988	0.078
Mof_H 	H 	0.4514	0.9593	0.7401	-0.046
Mof_H 	H 	0.4006	0.7441	0.7131	0.042
Mof_H 	H 	0.5656	0.6217	0.6689	-0.036
Mof_H 	H 	0.7547	0.7265	0.6353	0.043
Mof_C 	C 	0.884	0.055	0.6802	0.398
Mof_C 	C 	0.823	0.974	0.637	-0.189
Mof_C 	C 	0.78	0.051	0.5836	-0.245
Mof_C 	C 	0.89	0.121	0.5549	0.379
Mof_C 	C 	0.701	0.9073	0.6594	0.122
Mof_C 	C 	0.614	0.979	0.6924	-0.211
Mof_C 	C 	0.508	0.915	0.7154	0.058
Mof_C 	C 	0.481	0.782	0.7026	-0.178
Mof_C 	C 	0.576	0.711	0.6742	0.049
Mof_C 	C 	0.688	0.7744	0.6534	-0.212
Mof_O 	O 	0.9668	0.01	0.7155	-0.485
Mof_O 	O 	0.8555	0.1802	0.68	-0.487
Mof_O 	O 	0.0089	0.095	0.5693	-0.475
Mof_O 	O 	0.8648	0.1958	0.5116	-0.483
Mof_H 	H 	0.1128	0.4072	0.8746	0.058
Mof_H 	H 	0.2881	0.6132	0.9057	0.066
Mof_H 	H 	0.2598	0.4899	0.9433	0.054
Mof_H 	H 	0.3728	0.5679	0.8012	0.08
Mof_H 	H 	0.5486	0.4593	0.7599	-0.048
Mof_H 	H 	0.5994	0.2441	0.7869	0.043
Mof_H 	H 	0.4344	0.1217	0.8311	-0.038
Mof_H 	H 	0.2453	0.2265	0.8647	0.045
Mof_C 	C 	0.116	0.555	0.8198	0.401
Mof_C 	C 	0.177	0.474	0.863	-0.194
Mof_C 	C 	0.22	0.551	0.9164	-0.241
Mof_C 	C 	0.11	0.621	0.9451	0.38
Mof_C 	C 	0.299	0.4073	0.8406	0.126
Mof_C 	C 	0.386	0.479	0.8076	-0.216
Mof_C 	C 	0.492	0.415	0.7846	0.062
Mof_C 	C 	0.519	0.282	0.7974	-0.182
Mof_C 	C 	0.424	0.211	0.8258	0.053
Mof_C 	C 	0.312	0.2744	0.8466	-0.215
Mof_O 	O 	0.0332	0.51	0.7845	-0.483
Mof_O 	O 	0.1445	0.6802	0.82	-0.488
Mof_O 	O 	0.9911	0.595	0.9307	-0.478
Mof_O 	O 	0.1352	0.6958	0.9884	-0.482
Mof_Sn	Sn	0.32601	0.80032	0.02513	1.517
Mof_H 	H 	0.1088	0.9171	0.0584	0.34
Mof_H 	H 	0.1651	0.8395	0.1107	0.339
Mof_H 	H 	0.2264	0.9751	0.0941	0.349
Mof_H 	H 	0.2767	0.8685	0.9242	0.393
Mof_H 	H 	0.3795	0.9675	0.9497	0.399
Mof_H 	H 	0.4272	0.8306	0.9279	0.399
Mof_H 	H 	0.4873	0.6129	0.0613	0.318
Mof_H 	H 	0.3433	0.5751	0.0807	0.313
Mof_H 	H 	0.3887	0.549	0.0179	0.327
Mof_C 	C 	0.188	0.896	0.0796	-1.261
Mof_C 	C 	0.356	0.877	0.9463	-1.43
Mof_C 	C 	0.396	0.607	0.0497	-1.198
Mof_Sn	Sn	0.54726	0.67807	0.23539	1.588
Mof_H 	H 	0.3187	0.6265	0.1915	0.374
Mof_H 	H 	0.2987	0.7377	0.2366	0.389
Mof_H 	H 	0.3541	0.7714	0.176	0.378
Mof_H 	H 	0.5417	0.7687	0.3403	0.339
Mof_H 	H 	0.6801	0.7017	0.3314	0.359
Mof_H 	H 	0.6551	0.843	0.308	0.351
Mof_H 	H 	0.6917	0.5623	0.1618	0.389
Mof_H 	H 	0.7524	0.5351	0.2221	0.411
Mof_H 	H 	0.6286	0.4554	0.2012	0.391
Mof_C 	C 	0.3535	0.707	0.2059	-1.378
Mof_C 	C 	0.616	0.759	0.3148	-1.28
Mof_C 	C 	0.672	0.539	0.2005	-1.42
Mof_Sn	Sn	0.45274	0.17807	0.26461	1.587
Mof_H 	H 	0.6813	0.1265	0.3085	0.374
Mof_H 	H 	0.7013	0.2377	0.2634	0.389
Mof_H 	H 	0.6459	0.2714	0.324	0.378
Mof_H 	H 	0.4583	0.2687	0.1597	0.339
Mof_H 	H 	0.3199	0.2017	0.1686	0.359
Mof_H 	H 	0.3449	0.343	0.192	0.351
Mof_H 	H 	0.3083	0.0623	0.3382	0.388
Mof_H 	H 	0.2476	0.0351	0.2779	0.41
Mof_H 	H 	0.3714	0.9554	0.2988	0.389
Mof_C 	C 	0.6465	0.207	0.2941	-1.377
Mof_C 	C 	0.384	0.259	0.1852	-1.28
Mof_C 	C 	0.328	0.039	0.2995	-1.416
Mof_Sn	Sn	0.67399	0.30032	0.47487	1.519
Mof_H 	H 	0.8912	0.4171	0.4416	0.341
Mof_H 	H 	0.8349	0.3395	0.3893	0.34
Mof_H 	H 	0.7736	0.4751	0.4059	0.35
Mof_H 	H 	0.7233	0.3685	0.5758	0.394
Mof_H 	H 	0.6205	0.4675	0.5503	0.4
Mof_H 	H 	0.5728	0.3306	0.5721	0.399
Mof_H 	H 	0.5127	0.1129	0.4387	0.318
Mof_H 	H 	0.6567	0.0751	0.4193	0.313
Mof_H 	H 	0.6113	0.049	0.4821	0.327
Mof_C 	C 	0.812	0.396	0.4204	-1.263
Mof_C 	C 	0.644	0.377	0.5537	-1.432
Mof_C 	C 	0.604	0.107	0.4503	-1.199
Mof_Sn	Sn	0.17399	0.19968	0.52513	1.52
Mof_H 	H 	0.3912	0.0829	0.5584	0.342
Mof_H 	H 	0.3349	0.1605	0.6107	0.34
Mof_H 	H 	0.2736	0.0249	0.5941	0.35
Mof_H 	H 	0.2233	0.1315	0.4242	0.394
Mof_H 	H 	0.1205	0.0325	0.4497	0.401
Mof_H 	H 	0.0728	0.1694	0.4279	0.4
Mof_H 	H 	0.0127	0.3871	0.5613	0.319
Mof_H 	H 	0.1567	0.4249	0.5807	0.314
Mof_H 	H 	0.1113	0.451	0.5179	0.328
Mof_C 	C 	0.312	0.104	0.5796	-1.264
Mof_C 	C 	0.144	0.123	0.4463	-1.433
Mof_C 	C 	0.104	0.393	0.5497	-1.2
Mof_Sn	Sn	0.95274	0.32193	0.73539	1.585
Mof_H 	H 	0.1813	0.3735	0.6915	0.373
Mof_H 	H 	0.2013	0.2623	0.7366	0.389
Mof_H 	H 	0.1459	0.2286	0.676	0.378
Mof_H 	H 	0.9583	0.2313	0.8403	0.338
Mof_H 	H 	0.8199	0.2983	0.8314	0.358
Mof_H 	H 	0.8449	0.157	0.808	0.349
Mof_H 	H 	0.8083	0.4377	0.6618	0.388
Mof_H 	H 	0.7476	0.4649	0.7221	0.411
Mof_H 	H 	0.8714	0.5446	0.7012	0.39
Mof_C 	C 	0.1465	0.293	0.7059	-1.375
Mof_C 	C 	0.884	0.241	0.8148	-1.278
Mof_C 	C 	0.828	0.461	0.7005	-1.418
Mof_Sn	Sn	0.04726	0.82193	0.76461	1.59
Mof_H 	H 	0.8187	0.8735	0.8085	0.375
Mof_H 	H 	0.7987	0.7623	0.7634	0.39
Mof_H 	H 	0.8541	0.7286	0.824	0.378
Mof_H 	H 	0.0417	0.7313	0.6597	0.34
Mof_H 	H 	0.1801	0.7983	0.6686	0.359
Mof_H 	H 	0.1551	0.657	0.692	0.351
Mof_H 	H 	0.1917	0.9377	0.8382	0.39
Mof_H 	H 	0.2524	0.9649	0.7779	0.412
Mof_H 	H 	0.1286	0.0446	0.7988	0.392
Mof_C 	C 	0.8535	0.793	0.7941	-1.379
Mof_C 	C 	0.116	0.741	0.6852	-1.281
Mof_C 	C 	0.172	0.961	0.7995	-1.422
Mof_Sn	Sn	0.82601	0.69968	0.97487	1.519
Mof_H 	H 	0.6088	0.5829	0.9416	0.342
Mof_H 	H 	0.6651	0.6605	0.8893	0.34
Mof_H 	H 	0.7264	0.5249	0.9059	0.35
Mof_H 	H 	0.7767	0.6315	0.0758	0.394
Mof_H 	H 	0.8795	0.5325	0.0503	0.4
Mof_H 	H 	0.9272	0.6694	0.0721	0.4
Mof_H 	H 	0.9873	0.8871	0.9387	0.319
Mof_H 	H 	0.8433	0.9249	0.9193	0.314
Mof_H 	H 	0.8887	0.951	0.9821	0.328
Mof_C 	C 	0.688	0.604	0.9204	-1.264
Mof_C 	C 	0.856	0.623	0.0537	-1.432
Mof_C 	C 	0.896	0.893	0.9503	-1.2
_end
