data_functionalizedCrystal
_audit_creation_method	'EQeq! by Chris Wilmer'
_symmetry_space_group_name_H-M	'P1'
_symmetry_Int_Tables_number	1
_symmetry_cell_setting	triclinic
loop_
_symmetry_equiv_pos_as_xyz
  x,y,z
_cell_length_a	9.6784
_cell_length_b	11.058
_cell_length_c	11.385
_cell_angle_alpha	105.11
_cell_angle_beta	90.23
_cell_angle_gamma	113.98
loop_
_atom_site_label
_atom_site_type_symbol
_atom_site_fract_x
_atom_site_fract_y
_atom_site_fract_z
_atom_site_charge
Mof_C 	C 	0.7737	0.503	0.3958	0.341
Mof_C 	C 	0.6358	0.5063	0.4538	-0.076
Mof_C 	C 	0.6379	0.6168	0.5495	-0.081
Mof_C 	C 	0.7774	0.7487	0.6073	0.361
Mof_C 	C 	0.4968	0.391	0.4054	0.016
Mof_H 	H 	0.4954	0.3181	0.3414	0.034
Mof_C 	C 	0.7552	0.2517	0.4885	0.476
Mof_C 	C 	0.6262	0.1185	0.4949	-0.144
Mof_C 	C 	0.6217	0.9881	0.4414	-0.003
Mof_C 	C 	0.7538	0.9699	0.3837	0.299
Mof_C 	C 	0.5038	0.1289	0.554	0.034
Mof_H 	H 	0.5067	0.2156	0.5908	0.031
Mof_C 	C 	0.814	0.1281	0.1091	0.489
Mof_C 	C 	0.6525	0.0635	0.0489	-0.123
Mof_C 	C 	0.5961	0.9372	0.9573	-0.057
Mof_C 	C 	0.7033	0.8753	0.9035	0.422
Mof_C 	C 	0.5564	0.1267	0.0913	0.039
Mof_H 	H 	0.5942	0.2111	0.1518	0.03
Mof_Nd	Nd	0.02094	0.42555	0.3247	2.259
Mof_Nd	Nd	0.00011	0.0053	0.74604	2.146
Mof_O 	O 	0.9015	0.556	0.465	-0.551
Mof_O 	O 	0.7609	0.445	0.2851	-0.42
Mof_O 	O 	0.8882	0.7487	0.6698	-0.536
Mof_O 	O 	0.7783	0.8599	0.6002	-0.47
Mof_O 	O 	0.8106	0.2576	0.3909	-0.508
Mof_O 	O 	0.7902	0.3504	0.5867	-0.502
Mof_O 	O 	0.8899	0.0531	0.4317	-0.415
Mof_O 	O 	0.7315	0.8758	0.2852	-0.4
Mof_O 	O 	0.8879	0.2573	0.1318	-0.549
Mof_O 	O 	0.865	0.0496	0.1338	-0.511
Mof_O 	O 	0.6706	0.753	0.8977	-0.318
Mof_O 	O 	0.8188	0.9559	0.8654	-0.574
Mof_Yb	Yb	0.97906	0.57445	0.6753	1.707
Mof_Yb	Yb	0.99989	0.9947	0.25396	1.77
Mof_C 	C 	0.2263	0.497	0.6042	0.371
Mof_C 	C 	0.3642	0.4937	0.5462	-0.095
Mof_C 	C 	0.3621	0.3832	0.4505	-0.106
Mof_C 	C 	0.2226	0.2513	0.3927	0.388
Mof_C 	C 	0.5032	0.609	0.5946	0.014
Mof_H 	H 	0.5046	0.6819	0.6586	0.036
Mof_C 	C 	0.2448	0.7483	0.5115	0.465
Mof_C 	C 	0.3738	0.8815	0.5051	-0.072
Mof_C 	C 	0.3783	0.0119	0.5586	-0.077
Mof_C 	C 	0.2462	0.0301	0.6163	0.276
Mof_C 	C 	0.4962	0.8711	0.446	-0.015
Mof_H 	H 	0.4933	0.7844	0.4092	0.045
Mof_C 	C 	0.186	0.8719	0.8909	0.491
Mof_C 	C 	0.3475	0.9365	0.9511	-0.082
Mof_C 	C 	0.4039	0.0628	0.0427	-0.102
Mof_C 	C 	0.2967	0.1247	0.0965	0.414
Mof_C 	C 	0.4436	0.8733	0.9087	0.005
Mof_H 	H 	0.4058	0.7889	0.8482	0.041
Mof_O 	O 	0.0985	0.444	0.535	-0.631
Mof_O 	O 	0.2391	0.555	0.7149	-0.412
Mof_O 	O 	0.1118	0.2513	0.3302	-0.644
Mof_O 	O 	0.2217	0.1401	0.3998	-0.469
Mof_O 	O 	0.1894	0.7424	0.6091	-0.469
Mof_O 	O 	0.2098	0.6496	0.4133	-0.613
Mof_O 	O 	0.1101	0.9469	0.5683	-0.478
Mof_O 	O 	0.2685	0.1242	0.7148	-0.474
Mof_O 	O 	0.1121	0.7427	0.8682	-0.525
Mof_O 	O 	0.135	0.9504	0.8662	-0.598
Mof_O 	O 	0.3294	0.247	0.1023	-0.339
Mof_O 	O 	0.1812	0.0441	0.1346	-0.561
_end
