data_functionalizedCrystal
_audit_creation_method	'EQeq! by Chris Wilmer'
_symmetry_space_group_name_H-M	'P1'
_symmetry_Int_Tables_number	1
_symmetry_cell_setting	triclinic
loop_
_symmetry_equiv_pos_as_xyz
  x,y,z
_cell_length_a	7.2383
_cell_length_b	24.673
_cell_length_c	30.0729
_cell_angle_alpha	90
_cell_angle_beta	94.671
_cell_angle_gamma	90
loop_
_atom_site_label
_atom_site_type_symbol
_atom_site_fract_x
_atom_site_fract_y
_atom_site_fract_z
_atom_site_charge
Mof_Rb	Rb	0.4994	0.22847	0.26939	1.767
Mof_C 	C 	0.2676	0.0882	0.5299	0.101
Mof_C 	C 	0.4247	0.1177	0.5169	-0.093
Mof_H 	H 	0.4861	0.1457	0.5326	0.055
Mof_C 	C 	0.4668	0.0966	0.4774	-0.099
Mof_H 	H 	0.5635	0.1071	0.4608	0.045
Mof_C 	C 	0.3319	0.0546	0.4662	0.108
Mof_N 	N 	0.2094	0.0497	0.4991	-0.291
Mof_C 	C 	0.3233	0.0266	0.42641	-0.215
Mof_C 	C 	0.1932	0.987	0.4161	0.15
Mof_C 	C 	0.1845	0.9564	0.3751	-0.094
Mof_H 	H 	0.2606	0.9607	0.3519	0.076
Mof_C 	C 	0.0464	0.9205	0.3767	-0.116
Mof_H 	H 	0.0077	0.8954	0.3548	0.056
Mof_C 	C 	0.969	0.9284	0.4191	0.158
Mof_N 	N 	0.0591	0.9698	0.44298	-0.298
Mof_C 	C 	0.1818	0.1008	0.5684	-0.172
Mof_C 	C 	0.4525	0.0425	0.3925	0.178
Mof_C 	C 	0.6415	0.0304	0.3977	-0.242
Mof_H 	H 	0.69	0.0109	0.4224	0.082
Mof_C 	C 	0.756	0.0477	0.3659	0.142
Mof_H 	H 	0.882	0.0399	0.3696	-0.02
Mof_C 	C 	0.6865	0.0764	0.3288	-0.259
Mof_C 	C 	0.4978	0.0868	0.3228	0.165
Mof_H 	H 	0.4495	0.1054	0.2976	-0.104
Mof_C 	C 	0.3807	0.0696	0.3544	-0.262
Mof_H 	H 	0.2541	0.0763	0.3501	0.119
Mof_C 	C 	0.8107	0.0997	0.29669	0.421
Mof_O 	O 	0.981	0.0909	0.3001	-0.357
Mof_O 	O 	0.7432	0.13181	0.26623	-0.608
Mof_C 	C 	0.2625	0.1433	0.5995	0.213
Mof_C 	C 	0.1663	0.1897	0.6072	-0.302
Mof_H 	H 	0.0504	0.196	0.5924	0.094
Mof_C 	C 	0.2458	0.2276	0.6379	0.192
Mof_H 	H 	0.1824	0.2594	0.6432	-0.17
Mof_C 	C 	0.4168	0.2182	0.6601	-0.349
Mof_C 	C 	0.5143	0.1738	0.6513	0.243
Mof_H 	H 	0.6323	0.1683	0.6652	-0.087
Mof_C 	C 	0.436	0.136	0.621	-0.313
Mof_H 	H 	0.5026	0.1049	0.6152	0.134
Mof_C 	C 	0.521	0.26	0.695	0.586
Mof_O 	O 	0.666	0.2473	0.7134	-0.8
Mof_O 	O 	0.4065	0.2976	0.7032	-0.62
Mof_O 	O 	0.487	0.348	0.2308	-0.412
Mof_C 	C 	0.355	0.3637	0.251	0.248
Mof_N 	N 	0.284	0.4202	0.2548	-0.146
Mof_C 	C 	0.445	0.4562	0.2547	0.034
Mof_C 	C 	0.086	0.435	0.2558	-0.012
Mof_Rb	Rb	0.9994	0.72847	0.26939	1.548
Mof_C 	C 	0.7676	0.5882	0.5299	0.11
Mof_C 	C 	0.9247	0.6177	0.5169	-0.115
Mof_H 	H 	0.9861	0.6457	0.5326	0.067
Mof_C 	C 	0.9668	0.5966	0.4774	-0.045
Mof_H 	H 	0.0635	0.6071	0.4608	0.011
Mof_C 	C 	0.8319	0.5546	0.4662	0.095
Mof_N 	N 	0.7094	0.5497	0.4991	-0.281
Mof_C 	C 	0.8233	0.5266	0.42641	-0.182
Mof_C 	C 	0.6932	0.487	0.4161	0.118
Mof_C 	C 	0.6845	0.4564	0.3751	-0.097
Mof_H 	H 	0.7606	0.4607	0.3519	0.071
Mof_C 	C 	0.5464	0.4205	0.3767	-0.081
Mof_H 	H 	0.5077	0.3954	0.3548	0.052
Mof_C 	C 	0.469	0.4284	0.4191	0.118
Mof_N 	N 	0.5591	0.4698	0.44298	-0.285
Mof_C 	C 	0.6818	0.6008	0.5684	-0.152
Mof_C 	C 	0.9525	0.5425	0.3925	0.224
Mof_C 	C 	0.1415	0.5304	0.3977	-0.298
Mof_H 	H 	0.19	0.5109	0.4224	0.105
Mof_C 	C 	0.256	0.5477	0.3659	0.192
Mof_H 	H 	0.382	0.5399	0.3696	-0.037
Mof_C 	C 	0.1865	0.5764	0.3288	-0.311
Mof_C 	C 	0.9978	0.5868	0.3228	0.234
Mof_H 	H 	0.9495	0.6054	0.2976	-0.117
Mof_C 	C 	0.8807	0.5696	0.3544	-0.303
Mof_H 	H 	0.7541	0.5763	0.3501	0.143
Mof_C 	C 	0.3107	0.5997	0.29669	0.445
Mof_O 	O 	0.481	0.5909	0.3001	-0.377
Mof_O 	O 	0.2432	0.63181	0.26623	-0.626
Mof_C 	C 	0.7625	0.6433	0.5995	0.13
Mof_C 	C 	0.6663	0.6897	0.6072	-0.209
Mof_H 	H 	0.5504	0.696	0.5924	0.068
Mof_C 	C 	0.7458	0.7276	0.6379	0.092
Mof_H 	H 	0.6824	0.7594	0.6432	-0.124
Mof_C 	C 	0.9168	0.7182	0.6601	-0.212
Mof_C 	C 	0.0143	0.6738	0.6513	0.06
Mof_H 	H 	0.1323	0.6683	0.6652	-0.025
Mof_C 	C 	0.936	0.636	0.621	-0.142
Mof_H 	H 	0.0026	0.6049	0.6152	0.065
Mof_C 	C 	0.021	0.76	0.695	0.504
Mof_O 	O 	0.166	0.7473	0.7134	-0.771
Mof_O 	O 	0.9065	0.7976	0.7032	-0.572
Mof_O 	O 	0.987	0.848	0.2308	-0.39
Mof_C 	C 	0.855	0.8637	0.251	0.268
Mof_N 	N 	0.784	0.9202	0.2548	-0.169
Mof_C 	C 	0.945	0.9562	0.2547	0.183
Mof_C 	C 	0.586	0.935	0.2558	0.026
Mof_Rb	Rb	0.5006	0.22847	0.23061	1.806
Mof_C 	C 	0.7324	0.0882	0.9701	0.129
Mof_C 	C 	0.5753	0.1177	0.9831	-0.063
Mof_H 	H 	0.5139	0.1457	0.9674	0.045
Mof_C 	C 	0.5332	0.0966	0.0226	-0.141
Mof_H 	H 	0.4365	0.1071	0.0392	0.05
Mof_C 	C 	0.6681	0.0546	0.0338	0.122
Mof_N 	N 	0.7906	0.0497	0.0009	-0.301
Mof_C 	C 	0.6767	0.0266	0.07359	-0.229
Mof_C 	C 	0.8068	0.987	0.0839	0.177
Mof_C 	C 	0.8155	0.9564	0.1249	-0.143
Mof_H 	H 	0.7394	0.9607	0.1481	0.096
Mof_C 	C 	0.9536	0.9205	0.1233	-0.003
Mof_H 	H 	0.9923	0.8954	0.1452	0.033
Mof_C 	C 	0.031	0.9284	0.0809	0.049
Mof_N 	N 	0.9409	0.9698	0.05702	-0.262
Mof_C 	C 	0.8182	0.1008	0.9316	-0.21
Mof_C 	C 	0.5475	0.0425	0.1075	0.196
Mof_C 	C 	0.3585	0.0304	0.1023	-0.263
Mof_H 	H 	0.31	0.0109	0.0776	0.083
Mof_C 	C 	0.244	0.0477	0.1341	0.158
Mof_H 	H 	0.118	0.0399	0.1304	-0.04
Mof_C 	C 	0.3135	0.0764	0.1712	-0.277
Mof_C 	C 	0.5022	0.0868	0.1772	0.182
Mof_H 	H 	0.5505	0.1054	0.2024	-0.11
Mof_C 	C 	0.6193	0.0696	0.1456	-0.282
Mof_H 	H 	0.7459	0.0763	0.1499	0.136
Mof_C 	C 	0.1893	0.0997	0.20331	0.43
Mof_O 	O 	0.019	0.0909	0.1999	-0.39
Mof_O 	O 	0.2568	0.13181	0.23377	-0.618
Mof_C 	C 	0.7375	0.1433	0.9005	0.241
Mof_C 	C 	0.8337	0.1897	0.8928	-0.313
Mof_H 	H 	0.9496	0.196	0.9076	0.117
Mof_C 	C 	0.7542	0.2276	0.8621	0.208
Mof_H 	H 	0.8176	0.2594	0.8568	-0.15
Mof_C 	C 	0.5832	0.2182	0.8399	-0.344
Mof_C 	C 	0.4857	0.1738	0.8487	0.248
Mof_H 	H 	0.3677	0.1683	0.8348	-0.086
Mof_C 	C 	0.564	0.136	0.879	-0.324
Mof_H 	H 	0.4974	0.1049	0.8848	0.139
Mof_C 	C 	0.479	0.26	0.805	0.579
Mof_O 	O 	0.334	0.2473	0.7866	-0.779
Mof_O 	O 	0.5935	0.2976	0.7968	-0.6
Mof_O 	O 	0.513	0.348	0.2692	-0.407
Mof_C 	C 	0.645	0.3637	0.249	0.257
Mof_N 	N 	0.716	0.4202	0.2452	-0.153
Mof_C 	C 	0.555	0.4562	0.2453	0.043
Mof_C 	C 	0.914	0.435	0.2442	0.043
Mof_Rb	Rb	0.0006	0.72847	0.23061	2.029
Mof_C 	C 	0.2324	0.5882	0.9701	0.127
Mof_C 	C 	0.0753	0.6177	0.9831	-0.048
Mof_H 	H 	0.0139	0.6457	0.9674	0.036
Mof_C 	C 	0.0332	0.5966	0.0226	-0.175
Mof_H 	H 	0.9365	0.6071	0.0392	0.077
Mof_C 	C 	0.1681	0.5546	0.0338	0.112
Mof_N 	N 	0.2906	0.5497	0.0009	-0.3
Mof_C 	C 	0.1767	0.5266	0.07359	-0.168
Mof_C 	C 	0.3068	0.487	0.0839	0.109
Mof_C 	C 	0.3155	0.4564	0.1249	-0.1
Mof_H 	H 	0.2394	0.4607	0.1481	0.071
Mof_C 	C 	0.4536	0.4205	0.1233	-0.065
Mof_H 	H 	0.4923	0.3954	0.1452	0.045
Mof_C 	C 	0.531	0.4284	0.0809	0.088
Mof_N 	N 	0.4409	0.4698	0.05702	-0.283
Mof_C 	C 	0.3182	0.6008	0.9316	-0.221
Mof_C 	C 	0.0475	0.5425	0.1075	0.122
Mof_C 	C 	0.8585	0.5304	0.1023	-0.171
Mof_H 	H 	0.81	0.5109	0.0776	0.066
Mof_C 	C 	0.744	0.5477	0.1341	0.092
Mof_H 	H 	0.618	0.5399	0.1304	-0.002
Mof_C 	C 	0.8135	0.5764	0.1712	-0.203
Mof_C 	C 	0.0022	0.5868	0.1772	0.098
Mof_H 	H 	0.0505	0.6054	0.2024	-0.089
Mof_C 	C 	0.1193	0.5696	0.1456	-0.208
Mof_H 	H 	0.2459	0.5763	0.1499	0.106
Mof_C 	C 	0.6893	0.5997	0.20331	0.405
Mof_O 	O 	0.519	0.5909	0.1999	-0.367
Mof_O 	O 	0.7568	0.63181	0.23377	-0.609
Mof_C 	C 	0.2375	0.6433	0.9005	0.315
Mof_C 	C 	0.3337	0.6897	0.8928	-0.395
Mof_H 	H 	0.4496	0.696	0.9076	0.138
Mof_C 	C 	0.2542	0.7276	0.8621	0.296
Mof_H 	H 	0.3176	0.7594	0.8568	-0.192
Mof_C 	C 	0.0832	0.7182	0.8399	-0.466
Mof_C 	C 	0.9857	0.6738	0.8487	0.409
Mof_H 	H 	0.8677	0.6683	0.8348	-0.14
Mof_C 	C 	0.064	0.636	0.879	-0.474
Mof_H 	H 	0.9974	0.6049	0.8848	0.204
Mof_C 	C 	0.979	0.76	0.805	0.65
Mof_O 	O 	0.834	0.7473	0.7866	-0.802
Mof_O 	O 	0.0935	0.7976	0.7968	-0.632
Mof_O 	O 	0.013	0.848	0.2692	-0.428
Mof_C 	C 	0.145	0.8637	0.249	0.238
Mof_N 	N 	0.216	0.9202	0.2452	-0.129
Mof_C 	C 	0.055	0.9562	0.2453	-0.09
Mof_C 	C 	0.414	0.935	0.2442	0.018
Mof_Rb	Rb	0.5006	0.77153	0.73061	1.805
Mof_C 	C 	0.7324	0.9118	0.4701	0.13
Mof_C 	C 	0.5753	0.8823	0.4831	-0.111
Mof_H 	H 	0.5139	0.8543	0.4674	0.058
Mof_C 	C 	0.5332	0.9034	0.5226	-0.076
Mof_H 	H 	0.4365	0.8929	0.5392	0.033
Mof_C 	C 	0.6681	0.9454	0.5338	0.091
Mof_N 	N 	0.7906	0.9503	0.5009	-0.269
Mof_C 	C 	0.6767	0.9734	0.57359	-0.128
Mof_C 	C 	0.8068	0.013	0.5839	0.077
Mof_C 	C 	0.8155	0.0436	0.6249	-0.102
Mof_H 	H 	0.7394	0.0393	0.6481	0.066
Mof_C 	C 	0.9536	0.0795	0.6233	-0.029
Mof_H 	H 	0.9923	0.1046	0.6452	0.041
Mof_C 	C 	0.031	0.0716	0.5809	0.049
Mof_N 	N 	0.9409	0.0302	0.55702	-0.261
Mof_C 	C 	0.8182	0.8992	0.4316	-0.204
Mof_C 	C 	0.5475	0.9575	0.6075	0.167
Mof_C 	C 	0.3585	0.9696	0.6023	-0.228
Mof_H 	H 	0.31	0.9891	0.5776	0.093
Mof_C 	C 	0.244	0.9523	0.6341	0.144
Mof_H 	H 	0.118	0.9601	0.6304	-0.018
Mof_C 	C 	0.3135	0.9236	0.6712	-0.254
Mof_C 	C 	0.5022	0.9132	0.6772	0.166
Mof_H 	H 	0.5505	0.8946	0.7024	-0.101
Mof_C 	C 	0.6193	0.9304	0.6456	-0.247
Mof_H 	H 	0.7459	0.9237	0.6499	0.13
Mof_C 	C 	0.1893	0.9003	0.70331	0.428
Mof_O 	O 	0.019	0.9091	0.6999	-0.378
Mof_O 	O 	0.2568	0.86819	0.73377	-0.615
Mof_C 	C 	0.7375	0.8567	0.4005	0.242
Mof_C 	C 	0.8337	0.8103	0.3928	-0.314
Mof_H 	H 	0.9496	0.804	0.4076	0.115
Mof_C 	C 	0.7542	0.7724	0.3621	0.208
Mof_H 	H 	0.8176	0.7406	0.3568	-0.151
Mof_C 	C 	0.5832	0.7818	0.3399	-0.345
Mof_C 	C 	0.4857	0.8262	0.3487	0.249
Mof_H 	H 	0.3677	0.8317	0.3348	-0.087
Mof_C 	C 	0.564	0.864	0.379	-0.325
Mof_H 	H 	0.4974	0.8951	0.3848	0.145
Mof_C 	C 	0.479	0.74	0.305	0.579
Mof_O 	O 	0.334	0.7527	0.2866	-0.78
Mof_O 	O 	0.5935	0.7024	0.2968	-0.6
Mof_O 	O 	0.513	0.652	0.7692	-0.407
Mof_C 	C 	0.645	0.6363	0.749	0.257
Mof_N 	N 	0.716	0.5798	0.7452	-0.153
Mof_C 	C 	0.555	0.5438	0.7453	0.043
Mof_C 	C 	0.914	0.565	0.7442	0.042
Mof_Rb	Rb	0.0006	0.27153	0.73061	2.032
Mof_C 	C 	0.2324	0.4118	0.4701	0.12
Mof_C 	C 	0.0753	0.3823	0.4831	-0.09
Mof_H 	H 	0.0139	0.3543	0.4674	0.045
Mof_C 	C 	0.0332	0.4034	0.5226	-0.13
Mof_H 	H 	0.9365	0.3929	0.5392	0.066
Mof_C 	C 	0.1681	0.4454	0.5338	0.104
Mof_N 	N 	0.2906	0.4503	0.5009	-0.286
Mof_C 	C 	0.1767	0.4734	0.57359	-0.161
Mof_C 	C 	0.3068	0.513	0.5839	0.108
Mof_C 	C 	0.3155	0.5436	0.6249	-0.098
Mof_H 	H 	0.2394	0.5393	0.6481	0.07
Mof_C 	C 	0.4536	0.5795	0.6233	-0.067
Mof_H 	H 	0.4923	0.6046	0.6452	0.046
Mof_C 	C 	0.531	0.5716	0.5809	0.091
Mof_N 	N 	0.4409	0.5302	0.55702	-0.281
Mof_C 	C 	0.3182	0.3992	0.4316	-0.223
Mof_C 	C 	0.0475	0.4575	0.6075	0.119
Mof_C 	C 	0.8585	0.4696	0.6023	-0.168
Mof_H 	H 	0.81	0.4891	0.5776	0.067
Mof_C 	C 	0.744	0.4523	0.6341	0.091
Mof_H 	H 	0.618	0.4601	0.6304	-0.001
Mof_C 	C 	0.8135	0.4236	0.6712	-0.201
Mof_C 	C 	0.0022	0.4132	0.6772	0.097
Mof_H 	H 	0.0505	0.3946	0.7024	-0.088
Mof_C 	C 	0.1193	0.4304	0.6456	-0.205
Mof_H 	H 	0.2459	0.4237	0.6499	0.105
Mof_C 	C 	0.6893	0.4003	0.70331	0.405
Mof_O 	O 	0.519	0.4091	0.6999	-0.367
Mof_O 	O 	0.7568	0.36819	0.73377	-0.609
Mof_C 	C 	0.2375	0.3567	0.4005	0.319
Mof_C 	C 	0.3337	0.3103	0.3928	-0.401
Mof_H 	H 	0.4496	0.304	0.4076	0.138
Mof_C 	C 	0.2542	0.2724	0.3621	0.301
Mof_H 	H 	0.3176	0.2406	0.3568	-0.194
Mof_C 	C 	0.0832	0.2818	0.3399	-0.473
Mof_C 	C 	0.9857	0.3262	0.3487	0.418
Mof_H 	H 	0.8677	0.3317	0.3348	-0.143
Mof_C 	C 	0.064	0.364	0.379	-0.484
Mof_H 	H 	0.9974	0.3951	0.3848	0.208
Mof_C 	C 	0.979	0.24	0.305	0.654
Mof_O 	O 	0.834	0.2527	0.2866	-0.803
Mof_O 	O 	0.0935	0.2024	0.2968	-0.634
Mof_O 	O 	0.013	0.152	0.7692	-0.428
Mof_C 	C 	0.145	0.1363	0.749	0.236
Mof_N 	N 	0.216	0.0798	0.7452	-0.129
Mof_C 	C 	0.055	0.0438	0.7453	-0.11
Mof_C 	C 	0.414	0.065	0.7442	0.005
Mof_Rb	Rb	0.4994	0.77153	0.76939	1.766
Mof_C 	C 	0.2676	0.9118	0.0299	0.103
Mof_C 	C 	0.4247	0.8823	0.0169	-0.142
Mof_H 	H 	0.4861	0.8543	0.0326	0.067
Mof_C 	C 	0.4668	0.9034	0.9774	-0.034
Mof_H 	H 	0.5635	0.8929	0.9608	0.027
Mof_C 	C 	0.3319	0.9454	0.9662	0.077
Mof_N 	N 	0.2094	0.9503	0.9991	-0.256
Mof_C 	C 	0.3233	0.9734	0.92641	-0.111
Mof_C 	C 	0.1932	0.013	0.9161	0.049
Mof_C 	C 	0.1845	0.0436	0.8751	-0.052
Mof_H 	H 	0.2606	0.0393	0.8519	0.045
Mof_C 	C 	0.0464	0.0795	0.8767	-0.146
Mof_H 	H 	0.0077	0.1046	0.8548	0.065
Mof_C 	C 	0.969	0.0716	0.9191	0.162
Mof_N 	N 	0.0591	0.0302	0.94298	-0.295
Mof_C 	C 	0.1818	0.8992	0.0684	-0.166
Mof_C 	C 	0.4525	0.9575	0.8925	0.149
Mof_C 	C 	0.6415	0.9696	0.8977	-0.208
Mof_H 	H 	0.69	0.9891	0.9224	0.093
Mof_C 	C 	0.756	0.9523	0.8659	0.128
Mof_H 	H 	0.882	0.9601	0.8696	0.001
Mof_C 	C 	0.6865	0.9236	0.8288	-0.237
Mof_C 	C 	0.4978	0.9132	0.8228	0.15
Mof_H 	H 	0.4495	0.8946	0.7976	-0.095
Mof_C 	C 	0.3807	0.9304	0.8544	-0.227
Mof_H 	H 	0.2541	0.9237	0.8501	0.114
Mof_C 	C 	0.8107	0.9003	0.79669	0.419
Mof_O 	O 	0.981	0.9091	0.8001	-0.347
Mof_O 	O 	0.7432	0.86819	0.76623	-0.606
Mof_C 	C 	0.2625	0.8567	0.0995	0.214
Mof_C 	C 	0.1663	0.8103	0.1072	-0.303
Mof_H 	H 	0.0504	0.804	0.0924	0.092
Mof_C 	C 	0.2458	0.7724	0.1379	0.192
Mof_H 	H 	0.1824	0.7406	0.1432	-0.171
Mof_C 	C 	0.4168	0.7818	0.1601	-0.35
Mof_C 	C 	0.5143	0.8262	0.1513	0.245
Mof_H 	H 	0.6323	0.8317	0.1652	-0.087
Mof_C 	C 	0.436	0.864	0.121	-0.314
Mof_H 	H 	0.5026	0.8951	0.1152	0.14
Mof_C 	C 	0.521	0.74	0.195	0.586
Mof_O 	O 	0.666	0.7527	0.2134	-0.8
Mof_O 	O 	0.4065	0.7024	0.2032	-0.62
Mof_O 	O 	0.487	0.652	0.7308	-0.412
Mof_C 	C 	0.355	0.6363	0.751	0.248
Mof_N 	N 	0.284	0.5798	0.7548	-0.146
Mof_C 	C 	0.445	0.5438	0.7547	0.034
Mof_C 	C 	0.086	0.565	0.7558	-0.011
Mof_Rb	Rb	0.9994	0.27153	0.76939	1.545
Mof_C 	C 	0.7676	0.4118	0.0299	0.102
Mof_C 	C 	0.9247	0.3823	0.0169	-0.154
Mof_H 	H 	0.9861	0.3543	0.0326	0.076
Mof_C 	C 	0.9668	0.4034	0.9774	-0.003
Mof_H 	H 	0.0635	0.3929	0.9608	0.002
Mof_C 	C 	0.8319	0.4454	0.9662	0.087
Mof_N 	N 	0.7094	0.4503	0.9991	-0.265
Mof_C 	C 	0.8233	0.4734	0.92641	-0.175
Mof_C 	C 	0.6932	0.513	0.9161	0.116
Mof_C 	C 	0.6845	0.5436	0.8751	-0.096
Mof_H 	H 	0.7606	0.5393	0.8519	0.071
Mof_C 	C 	0.5464	0.5795	0.8767	-0.082
Mof_H 	H 	0.5077	0.6046	0.8548	0.052
Mof_C 	C 	0.469	0.5716	0.9191	0.12
Mof_N 	N 	0.5591	0.5302	0.94298	-0.28
Mof_C 	C 	0.6818	0.3992	0.0684	-0.151
Mof_C 	C 	0.9525	0.4575	0.8925	0.22
Mof_C 	C 	0.1415	0.4696	0.8977	-0.294
Mof_H 	H 	0.19	0.4891	0.9224	0.107
Mof_C 	C 	0.256	0.4523	0.8659	0.191
Mof_H 	H 	0.382	0.4601	0.8696	-0.035
Mof_C 	C 	0.1865	0.4236	0.8288	-0.308
Mof_C 	C 	0.9978	0.4132	0.8228	0.231
Mof_H 	H 	0.9495	0.3946	0.7976	-0.116
Mof_C 	C 	0.8807	0.4304	0.8544	-0.299
Mof_H 	H 	0.7541	0.4237	0.8501	0.142
Mof_C 	C 	0.3107	0.4003	0.79669	0.444
Mof_O 	O 	0.481	0.4091	0.8001	-0.376
Mof_O 	O 	0.2432	0.36819	0.76623	-0.625
Mof_C 	C 	0.7625	0.3567	0.0995	0.127
Mof_C 	C 	0.6663	0.3103	0.1072	-0.207
Mof_H 	H 	0.5504	0.304	0.0924	0.066
Mof_C 	C 	0.7458	0.2724	0.1379	0.09
Mof_H 	H 	0.6824	0.2406	0.1432	-0.124
Mof_C 	C 	0.9168	0.2818	0.1601	-0.21
Mof_C 	C 	0.0143	0.3262	0.1513	0.057
Mof_H 	H 	0.1323	0.3317	0.1652	-0.025
Mof_C 	C 	0.936	0.364	0.121	-0.14
Mof_H 	H 	0.0026	0.3951	0.1152	0.064
Mof_C 	C 	0.021	0.24	0.195	0.502
Mof_O 	O 	0.166	0.2527	0.2134	-0.77
Mof_O 	O 	0.9065	0.2024	0.2032	-0.57
Mof_O 	O 	0.987	0.152	0.7308	-0.39
Mof_C 	C 	0.855	0.1363	0.751	0.268
Mof_N 	N 	0.784	0.0798	0.7548	-0.171
Mof_C 	C 	0.945	0.0438	0.7547	0.174
Mof_C 	C 	0.586	0.065	0.7558	0.013
Mof_Fe	Fe	4.21154e-33	0.15416	0.25	0.856
Mof_Fe	Fe	0.5	0.65416	0.25	0.892
Mof_Fe	Fe	1.26346e-32	0.84584	0.75	0.858
Mof_Fe	Fe	0.5	0.34584	0.75	0.892
Mof_Ni	Ni	8.42307e-33	-4.71587e-33	0.5	1.022
Mof_Ni	Ni	0.5	0.5	0.5	1.046
Mof_Ni	Ni	-0	0	-0	1.013
Mof_Ni	Ni	0.5	0.5	-0	1.037
_end
