data_functionalizedCrystal
_audit_creation_method	'EQeq! by Chris Wilmer'
_symmetry_space_group_name_H-M	'P1'
_symmetry_Int_Tables_number	1
_symmetry_cell_setting	triclinic
loop_
_symmetry_equiv_pos_as_xyz
  x,y,z
_cell_length_a	36.7051
_cell_length_b	36.7051
_cell_length_c	36.7051
_cell_angle_alpha	90
_cell_angle_beta	90
_cell_angle_gamma	90
loop_
_atom_site_label
_atom_site_type_symbol
_atom_site_fract_x
_atom_site_fract_y
_atom_site_fract_z
_atom_site_charge
Mof_N 	N 	0.5578	0.4907	0.5117	-0.114
Mof_N 	N 	0.5794	0.5125	0.5335	-0.114
Mof_N 	N 	0.5782	0.4636	0.4997	-0.086
Mof_N 	N 	0.6138	0.5	0.5363	-0.108
Mof_C 	C 	0.6115	0.4698	0.5152	0.068
Mof_C 	C 	0.6461	0.4462	0.5105	0.127
Mof_C 	C 	0.679	0.4525	0.5342	-0.206
Mof_C 	C 	0.6478	0.4226	0.4834	-0.281
Mof_H 	H 	0.6799	0.4713	0.5519	0.095
Mof_C 	C 	0.7074	0.4291	0.5283	0.185
Mof_C 	C 	0.6763	0.4018	0.4798	0.256
Mof_H 	H 	0.6283	0.4208	0.4666	0.129
Mof_H 	H 	0.7284	0.4313	0.5431	-0.052
Mof_C 	C 	0.7069	0.4022	0.5018	-0.396
Mof_H 	H 	0.6761	0.3848	0.4603	-0.063
Mof_N 	N 	0.0578	0.9907	0.0117	-0.111
Mof_N 	N 	0.0794	0.0125	0.0335	-0.117
Mof_N 	N 	0.0782	0.9636	0.9997	-0.078
Mof_N 	N 	0.1138	-2.55236e-34	0.0363	-0.113
Mof_C 	C 	0.1115	0.9698	0.0152	0.072
Mof_C 	C 	0.1461	0.9462	0.0105	0.114
Mof_C 	C 	0.179	0.9525	0.0342	-0.199
Mof_C 	C 	0.1478	0.9226	0.9834	-0.262
Mof_H 	H 	0.1799	0.9713	0.0519	0.095
Mof_C 	C 	0.2074	0.9291	0.0283	0.18
Mof_C 	C 	0.1763	0.9018	0.9798	0.255
Mof_H 	H 	0.1283	0.9208	0.9666	0.126
Mof_H 	H 	0.2284	0.9313	0.0431	-0.05
Mof_C 	C 	0.2069	0.9022	0.0018	-0.393
Mof_H 	H 	0.1761	0.8848	0.9603	-0.061
Mof_N 	N 	0.9422	0.5093	0.0117	-0.114
Mof_N 	N 	0.9206	0.4875	0.0335	-0.113
Mof_N 	N 	0.9218	0.5364	0.9997	-0.076
Mof_N 	N 	0.8862	0.5	0.0363	-0.107
Mof_C 	C 	0.8885	0.5302	0.0152	0.065
Mof_C 	C 	0.8539	0.5538	0.0105	0.116
Mof_C 	C 	0.821	0.5475	0.0342	-0.201
Mof_C 	C 	0.8522	0.5774	0.9834	-0.264
Mof_H 	H 	0.8201	0.5287	0.0519	0.094
Mof_C 	C 	0.7926	0.5709	0.0283	0.181
Mof_C 	C 	0.8237	0.5982	0.9798	0.256
Mof_H 	H 	0.8717	0.5792	0.9666	0.127
Mof_H 	H 	0.7716	0.5687	0.0431	-0.051
Mof_C 	C 	0.7931	0.5978	0.0018	-0.394
Mof_H 	H 	0.8239	0.6152	0.9603	-0.061
Mof_N 	N 	0.4422	0.0093	0.5117	-0.117
Mof_N 	N 	0.4206	0.9875	0.5335	-0.107
Mof_N 	N 	0.4218	0.0364	0.4997	-0.086
Mof_N 	N 	0.3862	4.08377e-33	0.5363	-0.112
Mof_C 	C 	0.3885	0.0302	0.5152	0.068
Mof_C 	C 	0.3539	0.0538	0.5105	0.127
Mof_C 	C 	0.321	0.0475	0.5342	-0.205
Mof_C 	C 	0.3522	0.0774	0.4834	-0.28
Mof_H 	H 	0.3201	0.0287	0.5519	0.095
Mof_C 	C 	0.2926	0.0709	0.5283	0.186
Mof_C 	C 	0.3237	0.0982	0.4798	0.256
Mof_H 	H 	0.3717	0.0792	0.4666	0.129
Mof_H 	H 	0.2716	0.0687	0.5431	-0.053
Mof_C 	C 	0.2931	0.0978	0.5018	-0.396
Mof_H 	H 	0.3239	0.1152	0.4603	-0.063
Mof_N 	N 	0.4422	0.9907	0.9883	-0.102
Mof_N 	N 	0.4206	0.0125	0.9665	-0.116
Mof_N 	N 	0.4218	0.9636	0.0003	-0.093
Mof_N 	N 	0.3862	8.16754e-33	0.9637	-0.113
Mof_C 	C 	0.3885	0.9698	0.9848	0.083
Mof_C 	C 	0.3539	0.9462	0.9895	0.129
Mof_C 	C 	0.321	0.9525	0.9658	-0.195
Mof_C 	C 	0.3522	0.9226	0.0166	-0.276
Mof_H 	H 	0.3201	0.9713	0.9481	0.096
Mof_C 	C 	0.2926	0.9291	0.9717	0.173
Mof_C 	C 	0.3237	0.9018	0.0202	0.233
Mof_H 	H 	0.3717	0.9208	0.0334	0.127
Mof_H 	H 	0.2716	0.9313	0.9569	-0.045
Mof_C 	C 	0.2931	0.9022	0.9982	-0.367
Mof_H 	H 	0.3239	0.8848	0.0397	-0.056
Mof_N 	N 	0.9422	0.4907	0.4883	-0.111
Mof_N 	N 	0.9206	0.5125	0.4665	-0.113
Mof_N 	N 	0.9218	0.4636	0.5003	-0.084
Mof_N 	N 	0.8862	0.5	0.4637	-0.107
Mof_C 	C 	0.8885	0.4698	0.4848	0.069
Mof_C 	C 	0.8539	0.4462	0.4895	0.128
Mof_C 	C 	0.821	0.4525	0.4658	-0.205
Mof_C 	C 	0.8522	0.4226	0.5166	-0.28
Mof_H 	H 	0.8201	0.4713	0.4481	0.096
Mof_C 	C 	0.7926	0.4291	0.4717	0.187
Mof_C 	C 	0.8237	0.4018	0.5202	0.257
Mof_H 	H 	0.8717	0.4208	0.5334	0.13
Mof_H 	H 	0.7716	0.4313	0.4569	-0.052
Mof_C 	C 	0.7931	0.4022	0.4982	-0.396
Mof_H 	H 	0.8239	0.3848	0.5397	-0.063
Mof_N 	N 	0.0578	0.0093	0.4883	-0.117
Mof_N 	N 	0.0794	0.9875	0.4665	-0.107
Mof_N 	N 	0.0782	0.0364	0.5003	-0.086
Mof_N 	N 	0.1138	-4.08377e-33	0.4637	-0.112
Mof_C 	C 	0.1115	0.0302	0.4848	0.068
Mof_C 	C 	0.1461	0.0538	0.4895	0.127
Mof_C 	C 	0.179	0.0475	0.4658	-0.205
Mof_C 	C 	0.1478	0.0774	0.5166	-0.28
Mof_H 	H 	0.1799	0.0287	0.4481	0.094
Mof_C 	C 	0.2074	0.0709	0.4717	0.186
Mof_C 	C 	0.1763	0.0982	0.5202	0.256
Mof_H 	H 	0.1283	0.0792	0.5334	0.128
Mof_H 	H 	0.2284	0.0687	0.4569	-0.053
Mof_C 	C 	0.2069	0.0978	0.4982	-0.396
Mof_H 	H 	0.1761	0.1152	0.5397	-0.063
Mof_N 	N 	0.5578	0.5093	0.9883	-0.108
Mof_N 	N 	0.5794	0.4875	0.9665	-0.112
Mof_N 	N 	0.5782	0.5364	0.0003	-0.093
Mof_N 	N 	0.6138	0.5	0.9637	-0.108
Mof_C 	C 	0.6115	0.5302	0.9848	0.076
Mof_C 	C 	0.6461	0.5538	0.9895	0.13
Mof_C 	C 	0.679	0.5475	0.9658	-0.197
Mof_C 	C 	0.6478	0.5774	0.0166	-0.277
Mof_H 	H 	0.6799	0.5287	0.9481	0.094
Mof_C 	C 	0.7074	0.5709	0.9717	0.173
Mof_C 	C 	0.6763	0.5982	0.0202	0.234
Mof_H 	H 	0.6283	0.5792	0.0334	0.127
Mof_H 	H 	0.7284	0.5687	0.9569	-0.046
Mof_C 	C 	0.7069	0.5978	0.9982	-0.368
Mof_H 	H 	0.6761	0.6152	0.0397	-0.056
Mof_N 	N 	0.5117	0.5578	0.4907	-0.113
Mof_N 	N 	0.5335	0.5794	0.5125	-0.113
Mof_N 	N 	0.4997	0.5782	0.4636	-0.085
Mof_N 	N 	0.5363	0.6138	0.5	-0.107
Mof_C 	C 	0.5152	0.6115	0.4698	0.069
Mof_C 	C 	0.5105	0.6461	0.4462	0.128
Mof_C 	C 	0.5342	0.679	0.4525	-0.205
Mof_C 	C 	0.4834	0.6478	0.4226	-0.28
Mof_H 	H 	0.5519	0.6799	0.4713	0.096
Mof_C 	C 	0.5283	0.7074	0.4291	0.186
Mof_C 	C 	0.4798	0.6763	0.4018	0.257
Mof_H 	H 	0.4666	0.6283	0.4208	0.129
Mof_H 	H 	0.5431	0.7284	0.4313	-0.052
Mof_C 	C 	0.5018	0.7069	0.4022	-0.396
Mof_H 	H 	0.4603	0.6761	0.3848	-0.063
Mof_N 	N 	0.0117	0.0578	0.9907	-0.111
Mof_N 	N 	0.0335	0.0794	0.0125	-0.117
Mof_N 	N 	0.9997	0.0782	0.9636	-0.078
Mof_N 	N 	0.0363	0.1138	-0	-0.113
Mof_C 	C 	0.0152	0.1115	0.9698	0.072
Mof_C 	C 	0.0105	0.1461	0.9462	0.114
Mof_C 	C 	0.0342	0.179	0.9525	-0.199
Mof_C 	C 	0.9834	0.1478	0.9226	-0.262
Mof_H 	H 	0.0519	0.1799	0.9713	0.095
Mof_C 	C 	0.0283	0.2074	0.9291	0.18
Mof_C 	C 	0.9798	0.1763	0.9018	0.255
Mof_H 	H 	0.9666	0.1283	0.9208	0.126
Mof_H 	H 	0.0431	0.2284	0.9313	-0.05
Mof_C 	C 	0.0018	0.2069	0.9022	-0.393
Mof_H 	H 	0.9603	0.1761	0.8848	-0.061
Mof_N 	N 	0.0117	0.9422	0.5093	-0.114
Mof_N 	N 	0.0335	0.9206	0.4875	-0.113
Mof_N 	N 	0.9997	0.9218	0.5364	-0.076
Mof_N 	N 	0.0363	0.8862	0.5	-0.107
Mof_C 	C 	0.0152	0.8885	0.5302	0.065
Mof_C 	C 	0.0105	0.8539	0.5538	0.116
Mof_C 	C 	0.0342	0.821	0.5475	-0.201
Mof_C 	C 	0.9834	0.8522	0.5774	-0.264
Mof_H 	H 	0.0519	0.8201	0.5287	0.094
Mof_C 	C 	0.0283	0.7926	0.5709	0.181
Mof_C 	C 	0.9798	0.8237	0.5982	0.256
Mof_H 	H 	0.9666	0.8717	0.5792	0.127
Mof_H 	H 	0.0431	0.7716	0.5687	-0.051
Mof_C 	C 	0.0018	0.7931	0.5978	-0.394
Mof_H 	H 	0.9603	0.8239	0.6152	-0.061
Mof_N 	N 	0.5117	0.4422	0.0093	-0.117
Mof_N 	N 	0.5335	0.4206	0.9875	-0.107
Mof_N 	N 	0.4997	0.4218	0.0364	-0.086
Mof_N 	N 	0.5363	0.3862	-0	-0.112
Mof_C 	C 	0.5152	0.3885	0.0302	0.068
Mof_C 	C 	0.5105	0.3539	0.0538	0.127
Mof_C 	C 	0.5342	0.321	0.0475	-0.205
Mof_C 	C 	0.4834	0.3522	0.0774	-0.28
Mof_H 	H 	0.5519	0.3201	0.0287	0.095
Mof_C 	C 	0.5283	0.2926	0.0709	0.186
Mof_C 	C 	0.4798	0.3237	0.0982	0.256
Mof_H 	H 	0.4666	0.3717	0.0792	0.129
Mof_H 	H 	0.5431	0.2716	0.0687	-0.053
Mof_C 	C 	0.5018	0.2931	0.0978	-0.396
Mof_H 	H 	0.4603	0.3239	0.1152	-0.063
Mof_N 	N 	0.9883	0.4422	0.9907	-0.102
Mof_N 	N 	0.9665	0.4206	0.0125	-0.116
Mof_N 	N 	0.0003	0.4218	0.9636	-0.093
Mof_N 	N 	0.9637	0.3862	-0	-0.113
Mof_C 	C 	0.9848	0.3885	0.9698	0.083
Mof_C 	C 	0.9895	0.3539	0.9462	0.129
Mof_C 	C 	0.9658	0.321	0.9525	-0.195
Mof_C 	C 	0.0166	0.3522	0.9226	-0.276
Mof_H 	H 	0.9481	0.3201	0.9713	0.096
Mof_C 	C 	0.9717	0.2926	0.9291	0.173
Mof_C 	C 	0.0202	0.3237	0.9018	0.233
Mof_H 	H 	0.0334	0.3717	0.9208	0.127
Mof_H 	H 	0.9569	0.2716	0.9313	-0.045
Mof_C 	C 	0.9982	0.2931	0.9022	-0.367
Mof_H 	H 	0.0397	0.3239	0.8848	-0.056
Mof_N 	N 	0.4883	0.9422	0.4907	-0.111
Mof_N 	N 	0.4665	0.9206	0.5125	-0.113
Mof_N 	N 	0.5003	0.9218	0.4636	-0.084
Mof_N 	N 	0.4637	0.8862	0.5	-0.107
Mof_C 	C 	0.4848	0.8885	0.4698	0.069
Mof_C 	C 	0.4895	0.8539	0.4462	0.128
Mof_C 	C 	0.4658	0.821	0.4525	-0.205
Mof_C 	C 	0.5166	0.8522	0.4226	-0.28
Mof_H 	H 	0.4481	0.8201	0.4713	0.096
Mof_C 	C 	0.4717	0.7926	0.4291	0.187
Mof_C 	C 	0.5202	0.8237	0.4018	0.257
Mof_H 	H 	0.5334	0.8717	0.4208	0.13
Mof_H 	H 	0.4569	0.7716	0.4313	-0.052
Mof_C 	C 	0.4982	0.7931	0.4022	-0.396
Mof_H 	H 	0.5397	0.8239	0.3848	-0.063
Mof_N 	N 	0.4883	0.0578	0.0093	-0.117
Mof_N 	N 	0.4665	0.0794	0.9875	-0.107
Mof_N 	N 	0.5003	0.0782	0.0364	-0.086
Mof_N 	N 	0.4637	0.1138	-0	-0.112
Mof_C 	C 	0.4848	0.1115	0.0302	0.068
Mof_C 	C 	0.4895	0.1461	0.0538	0.127
Mof_C 	C 	0.4658	0.179	0.0475	-0.205
Mof_C 	C 	0.5166	0.1478	0.0774	-0.28
Mof_H 	H 	0.4481	0.1799	0.0287	0.094
Mof_C 	C 	0.4717	0.2074	0.0709	0.186
Mof_C 	C 	0.5202	0.1763	0.0982	0.256
Mof_H 	H 	0.5334	0.1283	0.0792	0.128
Mof_H 	H 	0.4569	0.2284	0.0687	-0.053
Mof_C 	C 	0.4982	0.2069	0.0978	-0.396
Mof_H 	H 	0.5397	0.1761	0.1152	-0.063
Mof_N 	N 	0.9883	0.5578	0.5093	-0.108
Mof_N 	N 	0.9665	0.5794	0.4875	-0.112
Mof_N 	N 	0.0003	0.5782	0.5364	-0.093
Mof_N 	N 	0.9637	0.6138	0.5	-0.108
Mof_C 	C 	0.9848	0.6115	0.5302	0.076
Mof_C 	C 	0.9895	0.6461	0.5538	0.13
Mof_C 	C 	0.9658	0.679	0.5475	-0.197
Mof_C 	C 	0.0166	0.6478	0.5774	-0.277
Mof_H 	H 	0.9481	0.6799	0.5287	0.094
Mof_C 	C 	0.9717	0.7074	0.5709	0.173
Mof_C 	C 	0.0202	0.6763	0.5982	0.234
Mof_H 	H 	0.0334	0.6283	0.5792	0.127
Mof_H 	H 	0.9569	0.7284	0.5687	-0.046
Mof_C 	C 	0.9982	0.7069	0.5978	-0.368
Mof_H 	H 	0.0397	0.6761	0.6152	-0.056
Mof_N 	N 	0.4907	0.5117	0.5578	-0.113
Mof_N 	N 	0.5125	0.5335	0.5794	-0.113
Mof_N 	N 	0.4636	0.4997	0.5782	-0.085
Mof_N 	N 	0.5	0.5363	0.6138	-0.107
Mof_C 	C 	0.4698	0.5152	0.6115	0.069
Mof_C 	C 	0.4462	0.5105	0.6461	0.128
Mof_C 	C 	0.4525	0.5342	0.679	-0.205
Mof_C 	C 	0.4226	0.4834	0.6478	-0.28
Mof_H 	H 	0.4713	0.5519	0.6799	0.096
Mof_C 	C 	0.4291	0.5283	0.7074	0.186
Mof_C 	C 	0.4018	0.4798	0.6763	0.257
Mof_H 	H 	0.4208	0.4666	0.6283	0.129
Mof_H 	H 	0.4313	0.5431	0.7284	-0.052
Mof_C 	C 	0.4022	0.5018	0.7069	-0.396
Mof_H 	H 	0.3848	0.4603	0.6761	-0.063
Mof_N 	N 	0.9907	0.0117	0.0578	-0.111
Mof_N 	N 	0.0125	0.0335	0.0794	-0.117
Mof_N 	N 	0.9636	0.9997	0.0782	-0.078
Mof_N 	N 	4.26682e-34	0.0363	0.1138	-0.113
Mof_C 	C 	0.9698	0.0152	0.1115	0.072
Mof_C 	C 	0.9462	0.0105	0.1461	0.114
Mof_C 	C 	0.9525	0.0342	0.179	-0.199
Mof_C 	C 	0.9226	0.9834	0.1478	-0.262
Mof_H 	H 	0.9713	0.0519	0.1799	0.095
Mof_C 	C 	0.9291	0.0283	0.2074	0.18
Mof_C 	C 	0.9018	0.9798	0.1763	0.255
Mof_H 	H 	0.9208	0.9666	0.1283	0.126
Mof_H 	H 	0.9313	0.0431	0.2284	-0.05
Mof_C 	C 	0.9022	0.0018	0.2069	-0.393
Mof_H 	H 	0.8848	0.9603	0.1761	-0.061
Mof_N 	N 	0.5093	0.0117	0.9422	-0.114
Mof_N 	N 	0.4875	0.0335	0.9206	-0.113
Mof_N 	N 	0.5364	0.9997	0.9218	-0.076
Mof_N 	N 	0.5	0.0363	0.8862	-0.107
Mof_C 	C 	0.5302	0.0152	0.8885	0.065
Mof_C 	C 	0.5538	0.0105	0.8539	0.116
Mof_C 	C 	0.5475	0.0342	0.821	-0.201
Mof_C 	C 	0.5774	0.9834	0.8522	-0.264
Mof_H 	H 	0.5287	0.0519	0.8201	0.094
Mof_C 	C 	0.5709	0.0283	0.7926	0.181
Mof_C 	C 	0.5982	0.9798	0.8237	0.256
Mof_H 	H 	0.5792	0.9666	0.8717	0.127
Mof_H 	H 	0.5687	0.0431	0.7716	-0.051
Mof_C 	C 	0.5978	0.0018	0.7931	-0.394
Mof_H 	H 	0.6152	0.9603	0.8239	-0.061
Mof_N 	N 	0.0093	0.5117	0.4422	-0.117
Mof_N 	N 	0.9875	0.5335	0.4206	-0.107
Mof_N 	N 	0.0364	0.4997	0.4218	-0.086
Mof_N 	N 	1.36993e-32	0.5363	0.3862	-0.112
Mof_C 	C 	0.0302	0.5152	0.3885	0.068
Mof_C 	C 	0.0538	0.5105	0.3539	0.127
Mof_C 	C 	0.0475	0.5342	0.321	-0.205
Mof_C 	C 	0.0774	0.4834	0.3522	-0.28
Mof_H 	H 	0.0287	0.5519	0.3201	0.095
Mof_C 	C 	0.0709	0.5283	0.2926	0.186
Mof_C 	C 	0.0982	0.4798	0.3237	0.256
Mof_H 	H 	0.0792	0.4666	0.3717	0.129
Mof_H 	H 	0.0687	0.5431	0.2716	-0.053
Mof_C 	C 	0.0978	0.5018	0.2931	-0.396
Mof_H 	H 	0.1152	0.4603	0.3239	-0.063
Mof_N 	N 	0.9907	0.9883	0.4422	-0.102
Mof_N 	N 	0.0125	0.9665	0.4206	-0.116
Mof_N 	N 	0.9636	0.0003	0.4218	-0.093
Mof_N 	N 	2.59506e-32	0.9637	0.3862	-0.113
Mof_C 	C 	0.9698	0.9848	0.3885	0.083
Mof_C 	C 	0.9462	0.9895	0.3539	0.129
Mof_C 	C 	0.9525	0.9658	0.321	-0.195
Mof_C 	C 	0.9226	0.0166	0.3522	-0.276
Mof_H 	H 	0.9713	0.9481	0.3201	0.096
Mof_C 	C 	0.9291	0.9717	0.2926	0.173
Mof_C 	C 	0.9018	0.0202	0.3237	0.233
Mof_H 	H 	0.9208	0.0334	0.3717	0.127
Mof_H 	H 	0.9313	0.9569	0.2716	-0.045
Mof_C 	C 	0.9022	0.9982	0.2931	-0.367
Mof_H 	H 	0.8848	0.0397	0.3239	-0.056
Mof_N 	N 	0.4907	0.4883	0.9422	-0.111
Mof_N 	N 	0.5125	0.4665	0.9206	-0.113
Mof_N 	N 	0.4636	0.5003	0.9218	-0.084
Mof_N 	N 	0.5	0.4637	0.8862	-0.107
Mof_C 	C 	0.4698	0.4848	0.8885	0.069
Mof_C 	C 	0.4462	0.4895	0.8539	0.128
Mof_C 	C 	0.4525	0.4658	0.821	-0.205
Mof_C 	C 	0.4226	0.5166	0.8522	-0.28
Mof_H 	H 	0.4713	0.4481	0.8201	0.096
Mof_C 	C 	0.4291	0.4717	0.7926	0.187
Mof_C 	C 	0.4018	0.5202	0.8237	0.257
Mof_H 	H 	0.4208	0.5334	0.8717	0.13
Mof_H 	H 	0.4313	0.4569	0.7716	-0.052
Mof_C 	C 	0.4022	0.4982	0.7931	-0.396
Mof_H 	H 	0.3848	0.5397	0.8239	-0.063
Mof_N 	N 	0.0093	0.4883	0.0578	-0.117
Mof_N 	N 	0.9875	0.4665	0.0794	-0.107
Mof_N 	N 	0.0364	0.5003	0.0782	-0.086
Mof_N 	N 	4.51045e-33	0.4637	0.1138	-0.112
Mof_C 	C 	0.0302	0.4848	0.1115	0.068
Mof_C 	C 	0.0538	0.4895	0.1461	0.127
Mof_C 	C 	0.0475	0.4658	0.179	-0.205
Mof_C 	C 	0.0774	0.5166	0.1478	-0.28
Mof_H 	H 	0.0287	0.4481	0.1799	0.094
Mof_C 	C 	0.0709	0.4717	0.2074	0.186
Mof_C 	C 	0.0982	0.5202	0.1763	0.256
Mof_H 	H 	0.0792	0.5334	0.1283	0.128
Mof_H 	H 	0.0687	0.4569	0.2284	-0.053
Mof_C 	C 	0.0978	0.4982	0.2069	-0.396
Mof_H 	H 	0.1152	0.5397	0.1761	-0.063
Mof_N 	N 	0.5093	0.9883	0.5578	-0.108
Mof_N 	N 	0.4875	0.9665	0.5794	-0.112
Mof_N 	N 	0.5364	0.0003	0.5782	-0.093
Mof_N 	N 	0.5	0.9637	0.6138	-0.108
Mof_C 	C 	0.5302	0.9848	0.6115	0.076
Mof_C 	C 	0.5538	0.9895	0.6461	0.13
Mof_C 	C 	0.5475	0.9658	0.679	-0.197
Mof_C 	C 	0.5774	0.0166	0.6478	-0.277
Mof_H 	H 	0.5287	0.9481	0.6799	0.094
Mof_C 	C 	0.5709	0.9717	0.7074	0.173
Mof_C 	C 	0.5982	0.0202	0.6763	0.234
Mof_H 	H 	0.5792	0.0334	0.6283	0.127
Mof_H 	H 	0.5687	0.9569	0.7284	-0.046
Mof_C 	C 	0.5978	0.9982	0.7069	-0.368
Mof_H 	H 	0.6152	0.0397	0.6761	-0.056
Mof_N 	N 	0.2407	0.8078	0.7383	-0.113
Mof_N 	N 	0.2625	0.8294	0.7165	-0.113
Mof_N 	N 	0.2136	0.8282	0.7503	-0.086
Mof_N 	N 	0.25	0.8638	0.7137	-0.107
Mof_C 	C 	0.2198	0.8615	0.7348	0.071
Mof_C 	C 	0.1962	0.8961	0.7395	0.122
Mof_C 	C 	0.2025	0.929	0.7158	-0.197
Mof_C 	C 	0.1726	0.8978	0.7666	-0.268
Mof_H 	H 	0.2213	0.9299	0.6981	0.094
Mof_C 	C 	0.1791	0.9574	0.7217	0.175
Mof_C 	C 	0.1518	0.9263	0.7702	0.242
Mof_H 	H 	0.1708	0.8783	0.7834	0.126
Mof_H 	H 	0.1813	0.9784	0.7069	-0.045
Mof_C 	C 	0.1522	0.9569	0.7482	-0.376
Mof_H 	H 	0.1348	0.9261	0.7897	-0.057
Mof_N 	N 	0.7407	0.3078	0.2383	-0.113
Mof_N 	N 	0.7625	0.3294	0.2165	-0.113
Mof_N 	N 	0.7136	0.3282	0.2503	-0.085
Mof_N 	N 	0.75	0.3638	0.2137	-0.107
Mof_C 	C 	0.7198	0.3615	0.2348	0.069
Mof_C 	C 	0.6962	0.3961	0.2395	0.128
Mof_C 	C 	0.7025	0.429	0.2158	-0.205
Mof_C 	C 	0.6726	0.3978	0.2666	-0.28
Mof_H 	H 	0.7213	0.4299	0.1981	0.096
Mof_C 	C 	0.6791	0.4574	0.2217	0.186
Mof_C 	C 	0.6518	0.4263	0.2702	0.257
Mof_H 	H 	0.6708	0.3783	0.2834	0.129
Mof_H 	H 	0.6813	0.4784	0.2069	-0.052
Mof_C 	C 	0.6522	0.4569	0.2482	-0.396
Mof_H 	H 	0.6348	0.4261	0.2897	-0.063
Mof_N 	N 	0.2593	0.1922	0.2383	-0.113
Mof_N 	N 	0.2375	0.1706	0.2165	-0.113
Mof_N 	N 	0.2864	0.1718	0.2503	-0.086
Mof_N 	N 	0.25	0.1362	0.2137	-0.108
Mof_C 	C 	0.2802	0.1385	0.2348	0.07
Mof_C 	C 	0.3038	0.1039	0.2395	0.123
Mof_C 	C 	0.2975	0.071	0.2158	-0.201
Mof_C 	C 	0.3274	0.1022	0.2666	-0.273
Mof_H 	H 	0.2787	0.0701	0.1981	0.093
Mof_C 	C 	0.3209	0.0426	0.2217	0.178
Mof_C 	C 	0.3482	0.0737	0.2702	0.247
Mof_H 	H 	0.3292	0.1217	0.2834	0.127
Mof_H 	H 	0.3187	0.0216	0.2069	-0.052
Mof_C 	C 	0.3478	0.0431	0.2482	-0.385
Mof_H 	H 	0.3652	0.0739	0.2897	-0.06
Mof_N 	N 	0.7593	0.6922	0.7383	-0.113
Mof_N 	N 	0.7375	0.6706	0.7165	-0.113
Mof_N 	N 	0.7864	0.6718	0.7503	-0.085
Mof_N 	N 	0.75	0.6362	0.7137	-0.107
Mof_C 	C 	0.7802	0.6385	0.7348	0.069
Mof_C 	C 	0.8038	0.6039	0.7395	0.128
Mof_C 	C 	0.7975	0.571	0.7158	-0.205
Mof_C 	C 	0.8274	0.6022	0.7666	-0.28
Mof_H 	H 	0.7787	0.5701	0.6981	0.096
Mof_C 	C 	0.8209	0.5426	0.7217	0.186
Mof_C 	C 	0.8482	0.5737	0.7702	0.257
Mof_H 	H 	0.8292	0.6217	0.7834	0.13
Mof_H 	H 	0.8187	0.5216	0.7069	-0.052
Mof_C 	C 	0.8478	0.5431	0.7482	-0.396
Mof_H 	H 	0.8652	0.5739	0.7897	-0.062
Mof_N 	N 	0.7407	0.6922	0.2617	-0.113
Mof_N 	N 	0.7625	0.6706	0.2835	-0.113
Mof_N 	N 	0.7136	0.6718	0.2497	-0.085
Mof_N 	N 	0.75	0.6362	0.2863	-0.107
Mof_C 	C 	0.7198	0.6385	0.2652	0.069
Mof_C 	C 	0.6962	0.6039	0.2605	0.128
Mof_C 	C 	0.7025	0.571	0.2842	-0.205
Mof_C 	C 	0.6726	0.6022	0.2334	-0.28
Mof_H 	H 	0.7213	0.5701	0.3019	0.096
Mof_C 	C 	0.6791	0.5426	0.2783	0.186
Mof_C 	C 	0.6518	0.5737	0.2298	0.257
Mof_H 	H 	0.6708	0.6217	0.2166	0.129
Mof_H 	H 	0.6813	0.5216	0.2931	-0.052
Mof_C 	C 	0.6522	0.5431	0.2518	-0.396
Mof_H 	H 	0.6348	0.5739	0.2103	-0.063
Mof_N 	N 	0.2407	0.1922	0.7617	-0.113
Mof_N 	N 	0.2625	0.1706	0.7835	-0.113
Mof_N 	N 	0.2136	0.1718	0.7497	-0.086
Mof_N 	N 	0.25	0.1362	0.7863	-0.108
Mof_C 	C 	0.2198	0.1385	0.7652	0.07
Mof_C 	C 	0.1962	0.1039	0.7605	0.124
Mof_C 	C 	0.2025	0.071	0.7842	-0.201
Mof_C 	C 	0.1726	0.1022	0.7334	-0.273
Mof_H 	H 	0.2213	0.0701	0.8019	0.094
Mof_C 	C 	0.1791	0.0426	0.7783	0.179
Mof_C 	C 	0.1518	0.0737	0.7298	0.247
Mof_H 	H 	0.1708	0.1217	0.7166	0.127
Mof_H 	H 	0.1813	0.0216	0.7931	-0.051
Mof_C 	C 	0.1522	0.0431	0.7518	-0.385
Mof_H 	H 	0.1348	0.0739	0.7103	-0.06
Mof_N 	N 	0.7593	0.3078	0.7617	-0.113
Mof_N 	N 	0.7375	0.3294	0.7835	-0.113
Mof_N 	N 	0.7864	0.3282	0.7497	-0.085
Mof_N 	N 	0.75	0.3638	0.7863	-0.107
Mof_C 	C 	0.7802	0.3615	0.7652	0.069
Mof_C 	C 	0.8038	0.3961	0.7605	0.128
Mof_C 	C 	0.7975	0.429	0.7842	-0.205
Mof_C 	C 	0.8274	0.3978	0.7334	-0.28
Mof_H 	H 	0.7787	0.4299	0.8019	0.096
Mof_C 	C 	0.8209	0.4574	0.7783	0.186
Mof_C 	C 	0.8482	0.4263	0.7298	0.257
Mof_H 	H 	0.8292	0.3783	0.7166	0.13
Mof_H 	H 	0.8187	0.4784	0.7931	-0.052
Mof_C 	C 	0.8478	0.4569	0.7518	-0.396
Mof_H 	H 	0.8652	0.4261	0.7103	-0.063
Mof_N 	N 	0.2593	0.8078	0.2617	-0.113
Mof_N 	N 	0.2375	0.8294	0.2835	-0.113
Mof_N 	N 	0.2864	0.8282	0.2497	-0.086
Mof_N 	N 	0.25	0.8638	0.2863	-0.107
Mof_C 	C 	0.2802	0.8615	0.2652	0.071
Mof_C 	C 	0.3038	0.8961	0.2605	0.122
Mof_C 	C 	0.2975	0.929	0.2842	-0.197
Mof_C 	C 	0.3274	0.8978	0.2334	-0.268
Mof_H 	H 	0.2787	0.9299	0.3019	0.094
Mof_C 	C 	0.3209	0.9574	0.2783	0.175
Mof_C 	C 	0.3482	0.9263	0.2298	0.242
Mof_H 	H 	0.3292	0.8783	0.2166	0.126
Mof_H 	H 	0.3187	0.9784	0.2931	-0.045
Mof_C 	C 	0.3478	0.9569	0.2518	-0.376
Mof_H 	H 	0.3652	0.9261	0.2103	-0.057
Mof_N 	N 	0.3078	0.7617	0.7593	-0.113
Mof_N 	N 	0.3294	0.7835	0.7375	-0.113
Mof_N 	N 	0.3282	0.7497	0.7864	-0.085
Mof_N 	N 	0.3638	0.7863	0.75	-0.107
Mof_C 	C 	0.3615	0.7652	0.7802	0.069
Mof_C 	C 	0.3961	0.7605	0.8038	0.128
Mof_C 	C 	0.429	0.7842	0.7975	-0.205
Mof_C 	C 	0.3978	0.7334	0.8274	-0.28
Mof_H 	H 	0.4299	0.8019	0.7787	0.096
Mof_C 	C 	0.4574	0.7783	0.8209	0.186
Mof_C 	C 	0.4263	0.7298	0.8482	0.257
Mof_H 	H 	0.3783	0.7166	0.8292	0.13
Mof_H 	H 	0.4784	0.7931	0.8187	-0.052
Mof_C 	C 	0.4569	0.7518	0.8478	-0.396
Mof_H 	H 	0.4261	0.7103	0.8652	-0.063
Mof_N 	N 	0.8078	0.2617	0.2593	-0.113
Mof_N 	N 	0.8294	0.2835	0.2375	-0.113
Mof_N 	N 	0.8282	0.2497	0.2864	-0.086
Mof_N 	N 	0.8638	0.2863	0.25	-0.107
Mof_C 	C 	0.8615	0.2652	0.2802	0.071
Mof_C 	C 	0.8961	0.2605	0.3038	0.122
Mof_C 	C 	0.929	0.2842	0.2975	-0.197
Mof_C 	C 	0.8978	0.2334	0.3274	-0.268
Mof_H 	H 	0.9299	0.3019	0.2787	0.094
Mof_C 	C 	0.9574	0.2783	0.3209	0.175
Mof_C 	C 	0.9263	0.2298	0.3482	0.242
Mof_H 	H 	0.8783	0.2166	0.3292	0.126
Mof_H 	H 	0.9784	0.2931	0.3187	-0.045
Mof_C 	C 	0.9569	0.2518	0.3478	-0.376
Mof_H 	H 	0.9261	0.2103	0.3652	-0.057
Mof_N 	N 	0.6922	0.2617	0.7407	-0.113
Mof_N 	N 	0.6706	0.2835	0.7625	-0.113
Mof_N 	N 	0.6718	0.2497	0.7136	-0.085
Mof_N 	N 	0.6362	0.2863	0.75	-0.107
Mof_C 	C 	0.6385	0.2652	0.7198	0.069
Mof_C 	C 	0.6039	0.2605	0.6962	0.128
Mof_C 	C 	0.571	0.2842	0.7025	-0.205
Mof_C 	C 	0.6022	0.2334	0.6726	-0.28
Mof_H 	H 	0.5701	0.3019	0.7213	0.096
Mof_C 	C 	0.5426	0.2783	0.6791	0.186
Mof_C 	C 	0.5737	0.2298	0.6518	0.257
Mof_H 	H 	0.6217	0.2166	0.6708	0.129
Mof_H 	H 	0.5216	0.2931	0.6813	-0.052
Mof_C 	C 	0.5431	0.2518	0.6522	-0.396
Mof_H 	H 	0.5739	0.2103	0.6348	-0.063
Mof_N 	N 	0.1922	0.7617	0.2407	-0.113
Mof_N 	N 	0.1706	0.7835	0.2625	-0.113
Mof_N 	N 	0.1718	0.7497	0.2136	-0.086
Mof_N 	N 	0.1362	0.7863	0.25	-0.108
Mof_C 	C 	0.1385	0.7652	0.2198	0.07
Mof_C 	C 	0.1039	0.7605	0.1962	0.124
Mof_C 	C 	0.071	0.7842	0.2025	-0.201
Mof_C 	C 	0.1022	0.7334	0.1726	-0.273
Mof_H 	H 	0.0701	0.8019	0.2213	0.094
Mof_C 	C 	0.0426	0.7783	0.1791	0.179
Mof_C 	C 	0.0737	0.7298	0.1518	0.247
Mof_H 	H 	0.1217	0.7166	0.1708	0.127
Mof_H 	H 	0.0216	0.7931	0.1813	-0.051
Mof_C 	C 	0.0431	0.7518	0.1522	-0.385
Mof_H 	H 	0.0739	0.7103	0.1348	-0.06
Mof_N 	N 	0.1922	0.2383	0.2593	-0.113
Mof_N 	N 	0.1706	0.2165	0.2375	-0.113
Mof_N 	N 	0.1718	0.2503	0.2864	-0.086
Mof_N 	N 	0.1362	0.2137	0.25	-0.108
Mof_C 	C 	0.1385	0.2348	0.2802	0.07
Mof_C 	C 	0.1039	0.2395	0.3038	0.123
Mof_C 	C 	0.071	0.2158	0.2975	-0.201
Mof_C 	C 	0.1022	0.2666	0.3274	-0.273
Mof_H 	H 	0.0701	0.1981	0.2787	0.093
Mof_C 	C 	0.0426	0.2217	0.3209	0.178
Mof_C 	C 	0.0737	0.2702	0.3482	0.247
Mof_H 	H 	0.1217	0.2834	0.3292	0.127
Mof_H 	H 	0.0216	0.2069	0.3187	-0.052
Mof_C 	C 	0.0431	0.2482	0.3478	-0.385
Mof_H 	H 	0.0739	0.2897	0.3652	-0.06
Mof_N 	N 	0.6922	0.7383	0.7593	-0.113
Mof_N 	N 	0.6706	0.7165	0.7375	-0.113
Mof_N 	N 	0.6718	0.7503	0.7864	-0.085
Mof_N 	N 	0.6362	0.7137	0.75	-0.107
Mof_C 	C 	0.6385	0.7348	0.7802	0.069
Mof_C 	C 	0.6039	0.7395	0.8038	0.128
Mof_C 	C 	0.571	0.7158	0.7975	-0.205
Mof_C 	C 	0.6022	0.7666	0.8274	-0.28
Mof_H 	H 	0.5701	0.6981	0.7787	0.096
Mof_C 	C 	0.5426	0.7217	0.8209	0.186
Mof_C 	C 	0.5737	0.7702	0.8482	0.257
Mof_H 	H 	0.6217	0.7834	0.8292	0.13
Mof_H 	H 	0.5216	0.7069	0.8187	-0.052
Mof_C 	C 	0.5431	0.7482	0.8478	-0.396
Mof_H 	H 	0.5739	0.7897	0.8652	-0.062
Mof_N 	N 	0.8078	0.7383	0.2407	-0.113
Mof_N 	N 	0.8294	0.7165	0.2625	-0.113
Mof_N 	N 	0.8282	0.7503	0.2136	-0.086
Mof_N 	N 	0.8638	0.7137	0.25	-0.107
Mof_C 	C 	0.8615	0.7348	0.2198	0.071
Mof_C 	C 	0.8961	0.7395	0.1962	0.122
Mof_C 	C 	0.929	0.7158	0.2025	-0.197
Mof_C 	C 	0.8978	0.7666	0.1726	-0.268
Mof_H 	H 	0.9299	0.6981	0.2213	0.094
Mof_C 	C 	0.9574	0.7217	0.1791	0.175
Mof_C 	C 	0.9263	0.7702	0.1518	0.242
Mof_H 	H 	0.8783	0.7834	0.1708	0.126
Mof_H 	H 	0.9784	0.7069	0.1813	-0.045
Mof_C 	C 	0.9569	0.7482	0.1522	-0.376
Mof_H 	H 	0.9261	0.7897	0.1348	-0.057
Mof_N 	N 	0.3078	0.2383	0.7407	-0.113
Mof_N 	N 	0.3294	0.2165	0.7625	-0.113
Mof_N 	N 	0.3282	0.2503	0.7136	-0.085
Mof_N 	N 	0.3638	0.2137	0.75	-0.107
Mof_C 	C 	0.3615	0.2348	0.7198	0.069
Mof_C 	C 	0.3961	0.2395	0.6962	0.128
Mof_C 	C 	0.429	0.2158	0.7025	-0.205
Mof_C 	C 	0.3978	0.2666	0.6726	-0.28
Mof_H 	H 	0.4299	0.1981	0.7213	0.096
Mof_C 	C 	0.4574	0.2217	0.6791	0.186
Mof_C 	C 	0.4263	0.2702	0.6518	0.257
Mof_H 	H 	0.3783	0.2834	0.6708	0.129
Mof_H 	H 	0.4784	0.2069	0.6813	-0.052
Mof_C 	C 	0.4569	0.2482	0.6522	-0.396
Mof_H 	H 	0.4261	0.2897	0.6348	-0.063
Mof_N 	N 	0.2617	0.7407	0.6922	-0.113
Mof_N 	N 	0.2835	0.7625	0.6706	-0.113
Mof_N 	N 	0.2497	0.7136	0.6718	-0.085
Mof_N 	N 	0.2863	0.75	0.6362	-0.107
Mof_C 	C 	0.2652	0.7198	0.6385	0.069
Mof_C 	C 	0.2605	0.6962	0.6039	0.128
Mof_C 	C 	0.2842	0.7025	0.571	-0.205
Mof_C 	C 	0.2334	0.6726	0.6022	-0.28
Mof_H 	H 	0.3019	0.7213	0.5701	0.096
Mof_C 	C 	0.2783	0.6791	0.5426	0.186
Mof_C 	C 	0.2298	0.6518	0.5737	0.257
Mof_H 	H 	0.2166	0.6708	0.6217	0.129
Mof_H 	H 	0.2931	0.6813	0.5216	-0.052
Mof_C 	C 	0.2518	0.6522	0.5431	-0.396
Mof_H 	H 	0.2103	0.6348	0.5739	-0.063
Mof_N 	N 	0.7617	0.2407	0.1922	-0.113
Mof_N 	N 	0.7835	0.2625	0.1706	-0.113
Mof_N 	N 	0.7497	0.2136	0.1718	-0.086
Mof_N 	N 	0.7863	0.25	0.1362	-0.108
Mof_C 	C 	0.7652	0.2198	0.1385	0.07
Mof_C 	C 	0.7605	0.1962	0.1039	0.124
Mof_C 	C 	0.7842	0.2025	0.071	-0.201
Mof_C 	C 	0.7334	0.1726	0.1022	-0.273
Mof_H 	H 	0.8019	0.2213	0.0701	0.094
Mof_C 	C 	0.7783	0.1791	0.0426	0.179
Mof_C 	C 	0.7298	0.1518	0.0737	0.247
Mof_H 	H 	0.7166	0.1708	0.1217	0.127
Mof_H 	H 	0.7931	0.1813	0.0216	-0.051
Mof_C 	C 	0.7518	0.1522	0.0431	-0.385
Mof_H 	H 	0.7103	0.1348	0.0739	-0.06
Mof_N 	N 	0.7617	0.7593	0.3078	-0.113
Mof_N 	N 	0.7835	0.7375	0.3294	-0.113
Mof_N 	N 	0.7497	0.7864	0.3282	-0.085
Mof_N 	N 	0.7863	0.75	0.3638	-0.107
Mof_C 	C 	0.7652	0.7802	0.3615	0.069
Mof_C 	C 	0.7605	0.8038	0.3961	0.128
Mof_C 	C 	0.7842	0.7975	0.429	-0.205
Mof_C 	C 	0.7334	0.8274	0.3978	-0.28
Mof_H 	H 	0.8019	0.7787	0.4299	0.096
Mof_C 	C 	0.7783	0.8209	0.4574	0.186
Mof_C 	C 	0.7298	0.8482	0.4263	0.257
Mof_H 	H 	0.7166	0.8292	0.3783	0.13
Mof_H 	H 	0.7931	0.8187	0.4784	-0.052
Mof_C 	C 	0.7518	0.8478	0.4569	-0.396
Mof_H 	H 	0.7103	0.8652	0.4261	-0.063
Mof_N 	N 	0.2617	0.2593	0.8078	-0.113
Mof_N 	N 	0.2835	0.2375	0.8294	-0.113
Mof_N 	N 	0.2497	0.2864	0.8282	-0.086
Mof_N 	N 	0.2863	0.25	0.8638	-0.107
Mof_C 	C 	0.2652	0.2802	0.8615	0.071
Mof_C 	C 	0.2605	0.3038	0.8961	0.122
Mof_C 	C 	0.2842	0.2975	0.929	-0.197
Mof_C 	C 	0.2334	0.3274	0.8978	-0.268
Mof_H 	H 	0.3019	0.2787	0.9299	0.094
Mof_C 	C 	0.2783	0.3209	0.9574	0.175
Mof_C 	C 	0.2298	0.3482	0.9263	0.242
Mof_H 	H 	0.2166	0.3292	0.8783	0.126
Mof_H 	H 	0.2931	0.3187	0.9784	-0.045
Mof_C 	C 	0.2518	0.3478	0.9569	-0.376
Mof_H 	H 	0.2103	0.3652	0.9261	-0.057
Mof_N 	N 	0.7383	0.2407	0.8078	-0.113
Mof_N 	N 	0.7165	0.2625	0.8294	-0.113
Mof_N 	N 	0.7503	0.2136	0.8282	-0.086
Mof_N 	N 	0.7137	0.25	0.8638	-0.107
Mof_C 	C 	0.7348	0.2198	0.8615	0.071
Mof_C 	C 	0.7395	0.1962	0.8961	0.122
Mof_C 	C 	0.7158	0.2025	0.929	-0.197
Mof_C 	C 	0.7666	0.1726	0.8978	-0.268
Mof_H 	H 	0.6981	0.2213	0.9299	0.094
Mof_C 	C 	0.7217	0.1791	0.9574	0.175
Mof_C 	C 	0.7702	0.1518	0.9263	0.242
Mof_H 	H 	0.7834	0.1708	0.8783	0.126
Mof_H 	H 	0.7069	0.1813	0.9784	-0.045
Mof_C 	C 	0.7482	0.1522	0.9569	-0.376
Mof_H 	H 	0.7897	0.1348	0.9261	-0.057
Mof_N 	N 	0.2383	0.7407	0.3078	-0.113
Mof_N 	N 	0.2165	0.7625	0.3294	-0.113
Mof_N 	N 	0.2503	0.7136	0.3282	-0.085
Mof_N 	N 	0.2137	0.75	0.3638	-0.107
Mof_C 	C 	0.2348	0.7198	0.3615	0.069
Mof_C 	C 	0.2395	0.6962	0.3961	0.128
Mof_C 	C 	0.2158	0.7025	0.429	-0.205
Mof_C 	C 	0.2666	0.6726	0.3978	-0.28
Mof_H 	H 	0.1981	0.7213	0.4299	0.096
Mof_C 	C 	0.2217	0.6791	0.4574	0.186
Mof_C 	C 	0.2702	0.6518	0.4263	0.257
Mof_H 	H 	0.2834	0.6708	0.3783	0.129
Mof_H 	H 	0.2069	0.6813	0.4784	-0.052
Mof_C 	C 	0.2482	0.6522	0.4569	-0.396
Mof_H 	H 	0.2897	0.6348	0.4261	-0.063
Mof_N 	N 	0.2383	0.2593	0.1922	-0.113
Mof_N 	N 	0.2165	0.2375	0.1706	-0.113
Mof_N 	N 	0.2503	0.2864	0.1718	-0.086
Mof_N 	N 	0.2137	0.25	0.1362	-0.108
Mof_C 	C 	0.2348	0.2802	0.1385	0.07
Mof_C 	C 	0.2395	0.3038	0.1039	0.123
Mof_C 	C 	0.2158	0.2975	0.071	-0.201
Mof_C 	C 	0.2666	0.3274	0.1022	-0.273
Mof_H 	H 	0.1981	0.2787	0.0701	0.093
Mof_C 	C 	0.2217	0.3209	0.0426	0.178
Mof_C 	C 	0.2702	0.3482	0.0737	0.247
Mof_H 	H 	0.2834	0.3292	0.1217	0.127
Mof_H 	H 	0.2069	0.3187	0.0216	-0.052
Mof_C 	C 	0.2482	0.3478	0.0431	-0.385
Mof_H 	H 	0.2897	0.3652	0.0739	-0.06
Mof_N 	N 	0.7383	0.7593	0.6922	-0.113
Mof_N 	N 	0.7165	0.7375	0.6706	-0.113
Mof_N 	N 	0.7503	0.7864	0.6718	-0.085
Mof_N 	N 	0.7137	0.75	0.6362	-0.107
Mof_C 	C 	0.7348	0.7802	0.6385	0.069
Mof_C 	C 	0.7395	0.8038	0.6039	0.128
Mof_C 	C 	0.7158	0.7975	0.571	-0.205
Mof_C 	C 	0.7666	0.8274	0.6022	-0.28
Mof_H 	H 	0.6981	0.7787	0.5701	0.096
Mof_C 	C 	0.7217	0.8209	0.5426	0.186
Mof_C 	C 	0.7702	0.8482	0.5737	0.257
Mof_H 	H 	0.7834	0.8292	0.6217	0.13
Mof_H 	H 	0.7069	0.8187	0.5216	-0.052
Mof_C 	C 	0.7482	0.8478	0.5431	-0.396
Mof_H 	H 	0.7897	0.8652	0.5739	-0.062
Mof_N 	N 	0.4422	0.5093	0.4883	-0.113
Mof_N 	N 	0.4206	0.4875	0.4665	-0.113
Mof_N 	N 	0.4218	0.5364	0.5003	-0.085
Mof_N 	N 	0.3862	0.5	0.4637	-0.107
Mof_C 	C 	0.3885	0.5302	0.4848	0.069
Mof_C 	C 	0.3539	0.5538	0.4895	0.128
Mof_C 	C 	0.321	0.5475	0.4658	-0.205
Mof_C 	C 	0.3522	0.5774	0.5166	-0.28
Mof_H 	H 	0.3201	0.5287	0.4481	0.096
Mof_C 	C 	0.2926	0.5709	0.4717	0.186
Mof_C 	C 	0.3237	0.5982	0.5202	0.257
Mof_H 	H 	0.3717	0.5792	0.5334	0.129
Mof_H 	H 	0.2716	0.5687	0.4569	-0.052
Mof_C 	C 	0.2931	0.5978	0.4982	-0.396
Mof_H 	H 	0.3239	0.6152	0.5397	-0.063
Mof_N 	N 	0.9422	0.0093	0.9883	-0.109
Mof_N 	N 	0.9206	0.9875	0.9665	-0.106
Mof_N 	N 	0.9218	0.0364	0.0003	-0.093
Mof_N 	N 	0.8862	8.16754e-33	0.9637	-0.112
Mof_C 	C 	0.8885	0.0302	0.9848	0.075
Mof_C 	C 	0.8539	0.0538	0.9895	0.13
Mof_C 	C 	0.821	0.0475	0.9658	-0.197
Mof_C 	C 	0.8522	0.0774	0.0166	-0.277
Mof_H 	H 	0.8201	0.0287	0.9481	0.093
Mof_C 	C 	0.7926	0.0709	0.9717	0.173
Mof_C 	C 	0.8237	0.0982	0.0202	0.233
Mof_H 	H 	0.8717	0.0792	0.0334	0.127
Mof_H 	H 	0.7716	0.0687	0.9569	-0.046
Mof_C 	C 	0.7931	0.0978	0.9982	-0.368
Mof_H 	H 	0.8239	0.1152	0.0397	-0.056
Mof_N 	N 	0.0578	0.4907	0.9883	-0.108
Mof_N 	N 	0.0794	0.5125	0.9665	-0.112
Mof_N 	N 	0.0782	0.4636	0.0003	-0.094
Mof_N 	N 	0.1138	0.5	0.9637	-0.108
Mof_C 	C 	0.1115	0.4698	0.9848	0.076
Mof_C 	C 	0.1461	0.4462	0.9895	0.13
Mof_C 	C 	0.179	0.4525	0.9658	-0.197
Mof_C 	C 	0.1478	0.4226	0.0166	-0.277
Mof_H 	H 	0.1799	0.4713	0.9481	0.094
Mof_C 	C 	0.2074	0.4291	0.9717	0.173
Mof_C 	C 	0.1763	0.4018	0.0202	0.233
Mof_H 	H 	0.1283	0.4208	0.0334	0.126
Mof_H 	H 	0.2284	0.4313	0.9569	-0.046
Mof_C 	C 	0.2069	0.4022	0.9982	-0.367
Mof_H 	H 	0.1761	0.3848	0.0397	-0.056
Mof_N 	N 	0.5578	0.9907	0.4883	-0.107
Mof_N 	N 	0.5794	0.0125	0.4665	-0.117
Mof_N 	N 	0.5782	0.9636	0.5003	-0.085
Mof_N 	N 	0.6138	-4.08377e-33	0.4637	-0.113
Mof_C 	C 	0.6115	0.9698	0.4848	0.076
Mof_C 	C 	0.6461	0.9462	0.4895	0.127
Mof_C 	C 	0.679	0.9525	0.4658	-0.203
Mof_C 	C 	0.6478	0.9226	0.5166	-0.278
Mof_H 	H 	0.6799	0.9713	0.4481	0.098
Mof_C 	C 	0.7074	0.9291	0.4717	0.186
Mof_C 	C 	0.6763	0.9018	0.5202	0.256
Mof_H 	H 	0.6283	0.9208	0.5334	0.129
Mof_H 	H 	0.7284	0.9313	0.4569	-0.051
Mof_C 	C 	0.7069	0.9022	0.4982	-0.395
Mof_H 	H 	0.6761	0.8848	0.5397	-0.062
Mof_N 	N 	0.5578	0.0093	0.0117	-0.12
Mof_N 	N 	0.5794	0.9875	0.0335	-0.107
Mof_N 	N 	0.5782	0.0364	0.9997	-0.078
Mof_N 	N 	0.6138	-2.55236e-34	0.0363	-0.112
Mof_C 	C 	0.6115	0.0302	0.0152	0.064
Mof_C 	C 	0.6461	0.0538	0.0105	0.115
Mof_C 	C 	0.679	0.0475	0.0342	-0.201
Mof_C 	C 	0.6478	0.0774	0.9834	-0.264
Mof_H 	H 	0.6799	0.0287	0.0519	0.092
Mof_C 	C 	0.7074	0.0709	0.0283	0.18
Mof_C 	C 	0.6763	0.0982	0.9798	0.256
Mof_H 	H 	0.6283	0.0792	0.9666	0.126
Mof_H 	H 	0.7284	0.0687	0.0431	-0.051
Mof_C 	C 	0.7069	0.0978	0.0018	-0.394
Mof_H 	H 	0.6761	0.1152	0.9603	-0.061
Mof_N 	N 	0.0578	0.5093	0.5117	-0.113
Mof_N 	N 	0.0794	0.4875	0.5335	-0.113
Mof_N 	N 	0.0782	0.5364	0.4997	-0.086
Mof_N 	N 	0.1138	0.5	0.5363	-0.107
Mof_C 	C 	0.1115	0.5302	0.5152	0.069
Mof_C 	C 	0.1461	0.5538	0.5105	0.128
Mof_C 	C 	0.179	0.5475	0.5342	-0.205
Mof_C 	C 	0.1478	0.5774	0.4834	-0.28
Mof_H 	H 	0.1799	0.5287	0.5519	0.096
Mof_C 	C 	0.2074	0.5709	0.5283	0.186
Mof_C 	C 	0.1763	0.5982	0.4798	0.256
Mof_H 	H 	0.1283	0.5792	0.4666	0.129
Mof_H 	H 	0.2284	0.5687	0.5431	-0.052
Mof_C 	C 	0.2069	0.5978	0.5018	-0.396
Mof_H 	H 	0.1761	0.6152	0.4603	-0.063
Mof_N 	N 	0.9422	0.9907	0.5117	-0.105
Mof_N 	N 	0.9206	0.0125	0.5335	-0.116
Mof_N 	N 	0.9218	0.9636	0.4997	-0.084
Mof_N 	N 	0.8862	4.08377e-33	0.5363	-0.113
Mof_C 	C 	0.8885	0.9698	0.5152	0.077
Mof_C 	C 	0.8539	0.9462	0.5105	0.127
Mof_C 	C 	0.821	0.9525	0.5342	-0.204
Mof_C 	C 	0.8522	0.9226	0.4834	-0.278
Mof_H 	H 	0.8201	0.9713	0.5519	0.098
Mof_C 	C 	0.7926	0.9291	0.5283	0.186
Mof_C 	C 	0.8237	0.9018	0.4798	0.256
Mof_H 	H 	0.8717	0.9208	0.4666	0.13
Mof_H 	H 	0.7716	0.9313	0.5431	-0.051
Mof_C 	C 	0.7931	0.9022	0.5018	-0.395
Mof_H 	H 	0.8239	0.8848	0.4603	-0.062
Mof_N 	N 	0.4422	0.4907	0.0117	-0.117
Mof_N 	N 	0.4206	0.5125	0.0335	-0.114
Mof_N 	N 	0.4218	0.4636	0.9997	-0.077
Mof_N 	N 	0.3862	0.5	0.0363	-0.107
Mof_C 	C 	0.3885	0.4698	0.0152	0.065
Mof_C 	C 	0.3539	0.4462	0.0105	0.115
Mof_C 	C 	0.321	0.4525	0.0342	-0.201
Mof_C 	C 	0.3522	0.4226	0.9834	-0.264
Mof_H 	H 	0.3201	0.4713	0.0519	0.094
Mof_C 	C 	0.2926	0.4291	0.0283	0.181
Mof_C 	C 	0.3237	0.4018	0.9798	0.256
Mof_H 	H 	0.3717	0.4208	0.9666	0.126
Mof_H 	H 	0.2716	0.4313	0.0431	-0.051
Mof_C 	C 	0.2931	0.4022	0.0018	-0.394
Mof_H 	H 	0.3239	0.3848	0.9603	-0.061
Mof_N 	N 	0.4883	0.4422	0.5093	-0.113
Mof_N 	N 	0.4665	0.4206	0.4875	-0.113
Mof_N 	N 	0.5003	0.4218	0.5364	-0.085
Mof_N 	N 	0.4637	0.3862	0.5	-0.107
Mof_C 	C 	0.4848	0.3885	0.5302	0.069
Mof_C 	C 	0.4895	0.3539	0.5538	0.128
Mof_C 	C 	0.4658	0.321	0.5475	-0.205
Mof_C 	C 	0.5166	0.3522	0.5774	-0.28
Mof_H 	H 	0.4481	0.3201	0.5287	0.096
Mof_C 	C 	0.4717	0.2926	0.5709	0.186
Mof_C 	C 	0.5202	0.3237	0.5982	0.257
Mof_H 	H 	0.5334	0.3717	0.5792	0.129
Mof_H 	H 	0.4569	0.2716	0.5687	-0.052
Mof_C 	C 	0.4982	0.2931	0.5978	-0.396
Mof_H 	H 	0.5397	0.3239	0.6152	-0.063
Mof_N 	N 	0.9883	0.9422	0.0093	-0.109
Mof_N 	N 	0.9665	0.9206	0.9875	-0.106
Mof_N 	N 	0.0003	0.9218	0.0364	-0.093
Mof_N 	N 	0.9637	0.8862	-0	-0.112
Mof_C 	C 	0.9848	0.8885	0.0302	0.075
Mof_C 	C 	0.9895	0.8539	0.0538	0.13
Mof_C 	C 	0.9658	0.821	0.0475	-0.197
Mof_C 	C 	0.0166	0.8522	0.0774	-0.277
Mof_H 	H 	0.9481	0.8201	0.0287	0.093
Mof_C 	C 	0.9717	0.7926	0.0709	0.173
Mof_C 	C 	0.0202	0.8237	0.0982	0.233
Mof_H 	H 	0.0334	0.8717	0.0792	0.127
Mof_H 	H 	0.9569	0.7716	0.0687	-0.046
Mof_C 	C 	0.9982	0.7931	0.0978	-0.368
Mof_H 	H 	0.0397	0.8239	0.1152	-0.056
Mof_N 	N 	0.9883	0.0578	0.4907	-0.108
Mof_N 	N 	0.9665	0.0794	0.5125	-0.112
Mof_N 	N 	0.0003	0.0782	0.4636	-0.094
Mof_N 	N 	0.9637	0.1138	0.5	-0.108
Mof_C 	C 	0.9848	0.1115	0.4698	0.076
Mof_C 	C 	0.9895	0.1461	0.4462	0.13
Mof_C 	C 	0.9658	0.179	0.4525	-0.197
Mof_C 	C 	0.0166	0.1478	0.4226	-0.277
Mof_H 	H 	0.9481	0.1799	0.4713	0.094
Mof_C 	C 	0.9717	0.2074	0.4291	0.173
Mof_C 	C 	0.0202	0.1763	0.4018	0.233
Mof_H 	H 	0.0334	0.1283	0.4208	0.126
Mof_H 	H 	0.9569	0.2284	0.4313	-0.046
Mof_C 	C 	0.9982	0.2069	0.4022	-0.367
Mof_H 	H 	0.0397	0.1761	0.3848	-0.056
Mof_N 	N 	0.4883	0.5578	0.9907	-0.107
Mof_N 	N 	0.4665	0.5794	0.0125	-0.117
Mof_N 	N 	0.5003	0.5782	0.9636	-0.085
Mof_N 	N 	0.4637	0.6138	-0	-0.113
Mof_C 	C 	0.4848	0.6115	0.9698	0.076
Mof_C 	C 	0.4895	0.6461	0.9462	0.127
Mof_C 	C 	0.4658	0.679	0.9525	-0.203
Mof_C 	C 	0.5166	0.6478	0.9226	-0.278
Mof_H 	H 	0.4481	0.6799	0.9713	0.098
Mof_C 	C 	0.4717	0.7074	0.9291	0.186
Mof_C 	C 	0.5202	0.6763	0.9018	0.256
Mof_H 	H 	0.5334	0.6283	0.9208	0.129
Mof_H 	H 	0.4569	0.7284	0.9313	-0.051
Mof_C 	C 	0.4982	0.7069	0.9022	-0.395
Mof_H 	H 	0.5397	0.6761	0.8848	-0.062
Mof_N 	N 	0.0117	0.5578	0.0093	-0.12
Mof_N 	N 	0.0335	0.5794	0.9875	-0.107
Mof_N 	N 	0.9997	0.5782	0.0364	-0.078
Mof_N 	N 	0.0363	0.6138	-0	-0.112
Mof_C 	C 	0.0152	0.6115	0.0302	0.064
Mof_C 	C 	0.0105	0.6461	0.0538	0.115
Mof_C 	C 	0.0342	0.679	0.0475	-0.201
Mof_C 	C 	0.9834	0.6478	0.0774	-0.264
Mof_H 	H 	0.0519	0.6799	0.0287	0.092
Mof_C 	C 	0.0283	0.7074	0.0709	0.18
Mof_C 	C 	0.9798	0.6763	0.0982	0.256
Mof_H 	H 	0.9666	0.6283	0.0792	0.126
Mof_H 	H 	0.0431	0.7284	0.0687	-0.051
Mof_C 	C 	0.0018	0.7069	0.0978	-0.394
Mof_H 	H 	0.9603	0.6761	0.1152	-0.061
Mof_N 	N 	0.5117	0.0578	0.5093	-0.113
Mof_N 	N 	0.5335	0.0794	0.4875	-0.113
Mof_N 	N 	0.4997	0.0782	0.5364	-0.086
Mof_N 	N 	0.5363	0.1138	0.5	-0.107
Mof_C 	C 	0.5152	0.1115	0.5302	0.069
Mof_C 	C 	0.5105	0.1461	0.5538	0.128
Mof_C 	C 	0.5342	0.179	0.5475	-0.205
Mof_C 	C 	0.4834	0.1478	0.5774	-0.28
Mof_H 	H 	0.5519	0.1799	0.5287	0.096
Mof_C 	C 	0.5283	0.2074	0.5709	0.186
Mof_C 	C 	0.4798	0.1763	0.5982	0.256
Mof_H 	H 	0.4666	0.1283	0.5792	0.129
Mof_H 	H 	0.5431	0.2284	0.5687	-0.052
Mof_C 	C 	0.5018	0.2069	0.5978	-0.396
Mof_H 	H 	0.4603	0.1761	0.6152	-0.063
Mof_N 	N 	0.5117	0.9422	0.9907	-0.105
Mof_N 	N 	0.5335	0.9206	0.0125	-0.116
Mof_N 	N 	0.4997	0.9218	0.9636	-0.084
Mof_N 	N 	0.5363	0.8862	-0	-0.113
Mof_C 	C 	0.5152	0.8885	0.9698	0.077
Mof_C 	C 	0.5105	0.8539	0.9462	0.127
Mof_C 	C 	0.5342	0.821	0.9525	-0.204
Mof_C 	C 	0.4834	0.8522	0.9226	-0.278
Mof_H 	H 	0.5519	0.8201	0.9713	0.098
Mof_C 	C 	0.5283	0.7926	0.9291	0.186
Mof_C 	C 	0.4798	0.8237	0.9018	0.256
Mof_H 	H 	0.4666	0.8717	0.9208	0.13
Mof_H 	H 	0.5431	0.7716	0.9313	-0.051
Mof_C 	C 	0.5018	0.7931	0.9022	-0.395
Mof_H 	H 	0.4603	0.8239	0.8848	-0.062
Mof_N 	N 	0.0117	0.4422	0.4907	-0.117
Mof_N 	N 	0.0335	0.4206	0.5125	-0.114
Mof_N 	N 	0.9997	0.4218	0.4636	-0.077
Mof_N 	N 	0.0363	0.3862	0.5	-0.107
Mof_C 	C 	0.0152	0.3885	0.4698	0.065
Mof_C 	C 	0.0105	0.3539	0.4462	0.115
Mof_C 	C 	0.0342	0.321	0.4525	-0.201
Mof_C 	C 	0.9834	0.3522	0.4226	-0.264
Mof_H 	H 	0.0519	0.3201	0.4713	0.094
Mof_C 	C 	0.0283	0.2926	0.4291	0.181
Mof_C 	C 	0.9798	0.3237	0.4018	0.256
Mof_H 	H 	0.9666	0.3717	0.4208	0.126
Mof_H 	H 	0.0431	0.2716	0.4313	-0.051
Mof_C 	C 	0.0018	0.2931	0.4022	-0.394
Mof_H 	H 	0.9603	0.3239	0.3848	-0.061
Mof_N 	N 	0.5093	0.4883	0.4422	-0.113
Mof_N 	N 	0.4875	0.4665	0.4206	-0.113
Mof_N 	N 	0.5364	0.5003	0.4218	-0.085
Mof_N 	N 	0.5	0.4637	0.3862	-0.107
Mof_C 	C 	0.5302	0.4848	0.3885	0.069
Mof_C 	C 	0.5538	0.4895	0.3539	0.128
Mof_C 	C 	0.5475	0.4658	0.321	-0.205
Mof_C 	C 	0.5774	0.5166	0.3522	-0.28
Mof_H 	H 	0.5287	0.4481	0.3201	0.096
Mof_C 	C 	0.5709	0.4717	0.2926	0.186
Mof_C 	C 	0.5982	0.5202	0.3237	0.257
Mof_H 	H 	0.5792	0.5334	0.3717	0.129
Mof_H 	H 	0.5687	0.4569	0.2716	-0.052
Mof_C 	C 	0.5978	0.4982	0.2931	-0.396
Mof_H 	H 	0.6152	0.5397	0.3239	-0.063
Mof_N 	N 	0.0093	0.9883	0.9422	-0.109
Mof_N 	N 	0.9875	0.9665	0.9206	-0.106
Mof_N 	N 	0.0364	0.0003	0.9218	-0.093
Mof_N 	N 	1.14903e-32	0.9637	0.8862	-0.112
Mof_C 	C 	0.0302	0.9848	0.8885	0.075
Mof_C 	C 	0.0538	0.9895	0.8539	0.13
Mof_C 	C 	0.0475	0.9658	0.821	-0.197
Mof_C 	C 	0.0774	0.0166	0.8522	-0.277
Mof_H 	H 	0.0287	0.9481	0.8201	0.093
Mof_C 	C 	0.0709	0.9717	0.7926	0.173
Mof_C 	C 	0.0982	0.0202	0.8237	0.233
Mof_H 	H 	0.0792	0.0334	0.8717	0.127
Mof_H 	H 	0.0687	0.9569	0.7716	-0.046
Mof_C 	C 	0.0978	0.9982	0.7931	-0.368
Mof_H 	H 	0.1152	0.0397	0.8239	-0.056
Mof_N 	N 	0.4907	0.9883	0.0578	-0.108
Mof_N 	N 	0.5125	0.9665	0.0794	-0.112
Mof_N 	N 	0.4636	0.0003	0.0782	-0.094
Mof_N 	N 	0.5	0.9637	0.1138	-0.108
Mof_C 	C 	0.4698	0.9848	0.1115	0.076
Mof_C 	C 	0.4462	0.9895	0.1461	0.13
Mof_C 	C 	0.4525	0.9658	0.179	-0.197
Mof_C 	C 	0.4226	0.0166	0.1478	-0.277
Mof_H 	H 	0.4713	0.9481	0.1799	0.094
Mof_C 	C 	0.4291	0.9717	0.2074	0.173
Mof_C 	C 	0.4018	0.0202	0.1763	0.233
Mof_H 	H 	0.4208	0.0334	0.1283	0.126
Mof_H 	H 	0.4313	0.9569	0.2284	-0.046
Mof_C 	C 	0.4022	0.9982	0.2069	-0.367
Mof_H 	H 	0.3848	0.0397	0.1761	-0.056
Mof_N 	N 	0.9907	0.4883	0.5578	-0.107
Mof_N 	N 	0.0125	0.4665	0.5794	-0.117
Mof_N 	N 	0.9636	0.5003	0.5782	-0.085
Mof_N 	N 	1.04689e-32	0.4637	0.6138	-0.113
Mof_C 	C 	0.9698	0.4848	0.6115	0.076
Mof_C 	C 	0.9462	0.4895	0.6461	0.127
Mof_C 	C 	0.9525	0.4658	0.679	-0.203
Mof_C 	C 	0.9226	0.5166	0.6478	-0.278
Mof_H 	H 	0.9713	0.4481	0.6799	0.098
Mof_C 	C 	0.9291	0.4717	0.7074	0.186
Mof_C 	C 	0.9018	0.5202	0.6763	0.256
Mof_H 	H 	0.9208	0.5334	0.6283	0.129
Mof_H 	H 	0.9313	0.4569	0.7284	-0.051
Mof_C 	C 	0.9022	0.4982	0.7069	-0.395
Mof_H 	H 	0.8848	0.5397	0.6761	-0.062
Mof_N 	N 	0.0093	0.0117	0.5578	-0.12
Mof_N 	N 	0.9875	0.0335	0.5794	-0.107
Mof_N 	N 	0.0364	0.9997	0.5782	-0.078
Mof_N 	N 	2.30138e-33	0.0363	0.6138	-0.112
Mof_C 	C 	0.0302	0.0152	0.6115	0.064
Mof_C 	C 	0.0538	0.0105	0.6461	0.115
Mof_C 	C 	0.0475	0.0342	0.679	-0.201
Mof_C 	C 	0.0774	0.9834	0.6478	-0.264
Mof_H 	H 	0.0287	0.0519	0.6799	0.092
Mof_C 	C 	0.0709	0.0283	0.7074	0.18
Mof_C 	C 	0.0982	0.9798	0.6763	0.256
Mof_H 	H 	0.0792	0.9666	0.6283	0.126
Mof_H 	H 	0.0687	0.0431	0.7284	-0.051
Mof_C 	C 	0.0978	0.0018	0.7069	-0.394
Mof_H 	H 	0.1152	0.9603	0.6761	-0.061
Mof_N 	N 	0.5093	0.5117	0.0578	-0.113
Mof_N 	N 	0.4875	0.5335	0.0794	-0.113
Mof_N 	N 	0.5364	0.4997	0.0782	-0.086
Mof_N 	N 	0.5	0.5363	0.1138	-0.107
Mof_C 	C 	0.5302	0.5152	0.1115	0.069
Mof_C 	C 	0.5538	0.5105	0.1461	0.128
Mof_C 	C 	0.5475	0.5342	0.179	-0.205
Mof_C 	C 	0.5774	0.4834	0.1478	-0.28
Mof_H 	H 	0.5287	0.5519	0.1799	0.096
Mof_C 	C 	0.5709	0.5283	0.2074	0.186
Mof_C 	C 	0.5982	0.4798	0.1763	0.256
Mof_H 	H 	0.5792	0.4666	0.1283	0.129
Mof_H 	H 	0.5687	0.5431	0.2284	-0.052
Mof_C 	C 	0.5978	0.5018	0.2069	-0.396
Mof_H 	H 	0.6152	0.4603	0.1761	-0.063
Mof_N 	N 	0.9907	0.5117	0.9422	-0.105
Mof_N 	N 	0.0125	0.5335	0.9206	-0.116
Mof_N 	N 	0.9636	0.4997	0.9218	-0.084
Mof_N 	N 	1.96578e-32	0.5363	0.8862	-0.113
Mof_C 	C 	0.9698	0.5152	0.8885	0.077
Mof_C 	C 	0.9462	0.5105	0.8539	0.127
Mof_C 	C 	0.9525	0.5342	0.821	-0.204
Mof_C 	C 	0.9226	0.4834	0.8522	-0.278
Mof_H 	H 	0.9713	0.5519	0.8201	0.098
Mof_C 	C 	0.9291	0.5283	0.7926	0.186
Mof_C 	C 	0.9018	0.4798	0.8237	0.256
Mof_H 	H 	0.9208	0.4666	0.8717	0.13
Mof_H 	H 	0.9313	0.5431	0.7716	-0.051
Mof_C 	C 	0.9022	0.5018	0.7931	-0.395
Mof_H 	H 	0.8848	0.4603	0.8239	-0.062
Mof_N 	N 	0.4907	0.0117	0.4422	-0.117
Mof_N 	N 	0.5125	0.0335	0.4206	-0.114
Mof_N 	N 	0.4636	0.9997	0.4218	-0.077
Mof_N 	N 	0.5	0.0363	0.3862	-0.107
Mof_C 	C 	0.4698	0.0152	0.3885	0.065
Mof_C 	C 	0.4462	0.0105	0.3539	0.115
Mof_C 	C 	0.4525	0.0342	0.321	-0.201
Mof_C 	C 	0.4226	0.9834	0.3522	-0.264
Mof_H 	H 	0.4713	0.0519	0.3201	0.094
Mof_C 	C 	0.4291	0.0283	0.2926	0.181
Mof_C 	C 	0.4018	0.9798	0.3237	0.256
Mof_H 	H 	0.4208	0.9666	0.3717	0.126
Mof_H 	H 	0.4313	0.0431	0.2716	-0.051
Mof_C 	C 	0.4022	0.0018	0.2931	-0.394
Mof_H 	H 	0.3848	0.9603	0.3239	-0.061
Mof_N 	N 	0.7593	0.1922	0.2617	-0.113
Mof_N 	N 	0.7375	0.1706	0.2835	-0.113
Mof_N 	N 	0.7864	0.1718	0.2497	-0.085
Mof_N 	N 	0.75	0.1362	0.2863	-0.108
Mof_C 	C 	0.7802	0.1385	0.2652	0.07
Mof_C 	C 	0.8038	0.1039	0.2605	0.124
Mof_C 	C 	0.7975	0.071	0.2842	-0.201
Mof_C 	C 	0.8274	0.1022	0.2334	-0.273
Mof_H 	H 	0.7787	0.0701	0.3019	0.094
Mof_C 	C 	0.8209	0.0426	0.2783	0.179
Mof_C 	C 	0.8482	0.0737	0.2298	0.247
Mof_H 	H 	0.8292	0.1217	0.2166	0.127
Mof_H 	H 	0.8187	0.0216	0.2931	-0.051
Mof_C 	C 	0.8478	0.0431	0.2518	-0.385
Mof_H 	H 	0.8652	0.0739	0.2103	-0.06
Mof_N 	N 	0.2593	0.6922	0.7617	-0.113
Mof_N 	N 	0.2375	0.6706	0.7835	-0.113
Mof_N 	N 	0.2864	0.6718	0.7497	-0.085
Mof_N 	N 	0.25	0.6362	0.7863	-0.107
Mof_C 	C 	0.2802	0.6385	0.7652	0.069
Mof_C 	C 	0.3038	0.6039	0.7605	0.128
Mof_C 	C 	0.2975	0.571	0.7842	-0.205
Mof_C 	C 	0.3274	0.6022	0.7334	-0.28
Mof_H 	H 	0.2787	0.5701	0.8019	0.096
Mof_C 	C 	0.3209	0.5426	0.7783	0.186
Mof_C 	C 	0.3482	0.5737	0.7298	0.257
Mof_H 	H 	0.3292	0.6217	0.7166	0.129
Mof_H 	H 	0.3187	0.5216	0.7931	-0.052
Mof_C 	C 	0.3478	0.5431	0.7518	-0.396
Mof_H 	H 	0.3652	0.5739	0.7103	-0.063
Mof_N 	N 	0.7407	0.8078	0.7617	-0.113
Mof_N 	N 	0.7625	0.8294	0.7835	-0.113
Mof_N 	N 	0.7136	0.8282	0.7497	-0.085
Mof_N 	N 	0.75	0.8638	0.7863	-0.107
Mof_C 	C 	0.7198	0.8615	0.7652	0.071
Mof_C 	C 	0.6962	0.8961	0.7605	0.122
Mof_C 	C 	0.7025	0.929	0.7842	-0.197
Mof_C 	C 	0.6726	0.8978	0.7334	-0.268
Mof_H 	H 	0.7213	0.9299	0.8019	0.095
Mof_C 	C 	0.6791	0.9574	0.7783	0.176
Mof_C 	C 	0.6518	0.9263	0.7298	0.243
Mof_H 	H 	0.6708	0.8783	0.7166	0.126
Mof_H 	H 	0.6813	0.9784	0.7931	-0.045
Mof_C 	C 	0.6522	0.9569	0.7518	-0.376
Mof_H 	H 	0.6348	0.9261	0.7103	-0.057
Mof_N 	N 	0.2407	0.3078	0.2617	-0.113
Mof_N 	N 	0.2625	0.3294	0.2835	-0.113
Mof_N 	N 	0.2136	0.3282	0.2497	-0.085
Mof_N 	N 	0.25	0.3638	0.2863	-0.107
Mof_C 	C 	0.2198	0.3615	0.2652	0.069
Mof_C 	C 	0.1962	0.3961	0.2605	0.128
Mof_C 	C 	0.2025	0.429	0.2842	-0.205
Mof_C 	C 	0.1726	0.3978	0.2334	-0.28
Mof_H 	H 	0.2213	0.4299	0.3019	0.096
Mof_C 	C 	0.1791	0.4574	0.2783	0.186
Mof_C 	C 	0.1518	0.4263	0.2298	0.256
Mof_H 	H 	0.1708	0.3783	0.2166	0.129
Mof_H 	H 	0.1813	0.4784	0.2931	-0.052
Mof_C 	C 	0.1522	0.4569	0.2518	-0.396
Mof_H 	H 	0.1348	0.4261	0.2103	-0.063
Mof_N 	N 	0.2593	0.3078	0.7383	-0.113
Mof_N 	N 	0.2375	0.3294	0.7165	-0.113
Mof_N 	N 	0.2864	0.3282	0.7503	-0.085
Mof_N 	N 	0.25	0.3638	0.7137	-0.107
Mof_C 	C 	0.2802	0.3615	0.7348	0.069
Mof_C 	C 	0.3038	0.3961	0.7395	0.128
Mof_C 	C 	0.2975	0.429	0.7158	-0.205
Mof_C 	C 	0.3274	0.3978	0.7666	-0.28
Mof_H 	H 	0.2787	0.4299	0.6981	0.096
Mof_C 	C 	0.3209	0.4574	0.7217	0.186
Mof_C 	C 	0.3482	0.4263	0.7702	0.257
Mof_H 	H 	0.3292	0.3783	0.7834	0.13
Mof_H 	H 	0.3187	0.4784	0.7069	-0.052
Mof_C 	C 	0.3478	0.4569	0.7482	-0.396
Mof_H 	H 	0.3652	0.4261	0.7897	-0.063
Mof_N 	N 	0.7593	0.8078	0.2383	-0.113
Mof_N 	N 	0.7375	0.8294	0.2165	-0.113
Mof_N 	N 	0.7864	0.8282	0.2503	-0.085
Mof_N 	N 	0.75	0.8638	0.2137	-0.107
Mof_C 	C 	0.7802	0.8615	0.2348	0.071
Mof_C 	C 	0.8038	0.8961	0.2395	0.122
Mof_C 	C 	0.7975	0.929	0.2158	-0.197
Mof_C 	C 	0.8274	0.8978	0.2666	-0.268
Mof_H 	H 	0.7787	0.9299	0.1981	0.094
Mof_C 	C 	0.8209	0.9574	0.2217	0.175
Mof_C 	C 	0.8482	0.9263	0.2702	0.243
Mof_H 	H 	0.8292	0.8783	0.2834	0.126
Mof_H 	H 	0.8187	0.9784	0.2069	-0.045
Mof_C 	C 	0.8478	0.9569	0.2482	-0.376
Mof_H 	H 	0.8652	0.9261	0.2897	-0.057
Mof_N 	N 	0.2407	0.6922	0.2383	-0.113
Mof_N 	N 	0.2625	0.6706	0.2165	-0.113
Mof_N 	N 	0.2136	0.6718	0.2503	-0.085
Mof_N 	N 	0.25	0.6362	0.2137	-0.107
Mof_C 	C 	0.2198	0.6385	0.2348	0.069
Mof_C 	C 	0.1962	0.6039	0.2395	0.128
Mof_C 	C 	0.2025	0.571	0.2158	-0.205
Mof_C 	C 	0.1726	0.6022	0.2666	-0.28
Mof_H 	H 	0.2213	0.5701	0.1981	0.096
Mof_C 	C 	0.1791	0.5426	0.2217	0.186
Mof_C 	C 	0.1518	0.5737	0.2702	0.256
Mof_H 	H 	0.1708	0.6217	0.2834	0.129
Mof_H 	H 	0.1813	0.5216	0.2069	-0.052
Mof_C 	C 	0.1522	0.5431	0.2482	-0.396
Mof_H 	H 	0.1348	0.5739	0.2897	-0.063
Mof_N 	N 	0.7407	0.1922	0.7383	-0.113
Mof_N 	N 	0.7625	0.1706	0.7165	-0.113
Mof_N 	N 	0.7136	0.1718	0.7503	-0.085
Mof_N 	N 	0.75	0.1362	0.7137	-0.108
Mof_C 	C 	0.7198	0.1385	0.7348	0.07
Mof_C 	C 	0.6962	0.1039	0.7395	0.124
Mof_C 	C 	0.7025	0.071	0.7158	-0.201
Mof_C 	C 	0.6726	0.1022	0.7666	-0.273
Mof_H 	H 	0.7213	0.0701	0.6981	0.094
Mof_C 	C 	0.6791	0.0426	0.7217	0.179
Mof_C 	C 	0.6518	0.0737	0.7702	0.247
Mof_H 	H 	0.6708	0.1217	0.7834	0.127
Mof_H 	H 	0.6813	0.0216	0.7069	-0.051
Mof_C 	C 	0.6522	0.0431	0.7482	-0.385
Mof_H 	H 	0.6348	0.0739	0.7897	-0.06
Mof_N 	N 	0.6922	0.2383	0.2407	-0.113
Mof_N 	N 	0.6706	0.2165	0.2625	-0.113
Mof_N 	N 	0.6718	0.2503	0.2136	-0.085
Mof_N 	N 	0.6362	0.2137	0.25	-0.107
Mof_C 	C 	0.6385	0.2348	0.2198	0.069
Mof_C 	C 	0.6039	0.2395	0.1962	0.128
Mof_C 	C 	0.571	0.2158	0.2025	-0.205
Mof_C 	C 	0.6022	0.2666	0.1726	-0.28
Mof_H 	H 	0.5701	0.1981	0.2213	0.096
Mof_C 	C 	0.5426	0.2217	0.1791	0.186
Mof_C 	C 	0.5737	0.2702	0.1518	0.256
Mof_H 	H 	0.6217	0.2834	0.1708	0.129
Mof_H 	H 	0.5216	0.2069	0.1813	-0.052
Mof_C 	C 	0.5431	0.2482	0.1522	-0.396
Mof_H 	H 	0.5739	0.2897	0.1348	-0.063
Mof_N 	N 	0.1922	0.7383	0.7407	-0.113
Mof_N 	N 	0.1706	0.7165	0.7625	-0.113
Mof_N 	N 	0.1718	0.7503	0.7136	-0.085
Mof_N 	N 	0.1362	0.7137	0.75	-0.108
Mof_C 	C 	0.1385	0.7348	0.7198	0.07
Mof_C 	C 	0.1039	0.7395	0.6962	0.124
Mof_C 	C 	0.071	0.7158	0.7025	-0.201
Mof_C 	C 	0.1022	0.7666	0.6726	-0.273
Mof_H 	H 	0.0701	0.6981	0.7213	0.094
Mof_C 	C 	0.0426	0.7217	0.6791	0.179
Mof_C 	C 	0.0737	0.7702	0.6518	0.247
Mof_H 	H 	0.1217	0.7834	0.6708	0.127
Mof_H 	H 	0.0216	0.7069	0.6813	-0.051
Mof_C 	C 	0.0431	0.7482	0.6522	-0.385
Mof_H 	H 	0.0739	0.7897	0.6348	-0.06
Mof_N 	N 	0.3078	0.7383	0.2593	-0.113
Mof_N 	N 	0.3294	0.7165	0.2375	-0.113
Mof_N 	N 	0.3282	0.7503	0.2864	-0.085
Mof_N 	N 	0.3638	0.7137	0.25	-0.107
Mof_C 	C 	0.3615	0.7348	0.2802	0.069
Mof_C 	C 	0.3961	0.7395	0.3038	0.128
Mof_C 	C 	0.429	0.7158	0.2975	-0.205
Mof_C 	C 	0.3978	0.7666	0.3274	-0.28
Mof_H 	H 	0.4299	0.6981	0.2787	0.096
Mof_C 	C 	0.4574	0.7217	0.3209	0.186
Mof_C 	C 	0.4263	0.7702	0.3482	0.257
Mof_H 	H 	0.3783	0.7834	0.3292	0.13
Mof_H 	H 	0.4784	0.7069	0.3187	-0.052
Mof_C 	C 	0.4569	0.7482	0.3478	-0.396
Mof_H 	H 	0.4261	0.7897	0.3652	-0.063
Mof_N 	N 	0.8078	0.2383	0.7593	-0.113
Mof_N 	N 	0.8294	0.2165	0.7375	-0.113
Mof_N 	N 	0.8282	0.2503	0.7864	-0.085
Mof_N 	N 	0.8638	0.2137	0.75	-0.107
Mof_C 	C 	0.8615	0.2348	0.7802	0.071
Mof_C 	C 	0.8961	0.2395	0.8038	0.122
Mof_C 	C 	0.929	0.2158	0.7975	-0.197
Mof_C 	C 	0.8978	0.2666	0.8274	-0.268
Mof_H 	H 	0.9299	0.1981	0.7787	0.094
Mof_C 	C 	0.9574	0.2217	0.8209	0.175
Mof_C 	C 	0.9263	0.2702	0.8482	0.243
Mof_H 	H 	0.8783	0.2834	0.8292	0.126
Mof_H 	H 	0.9784	0.2069	0.8187	-0.045
Mof_C 	C 	0.9569	0.2482	0.8478	-0.376
Mof_H 	H 	0.9261	0.2897	0.8652	-0.057
Mof_N 	N 	0.8078	0.7617	0.7407	-0.113
Mof_N 	N 	0.8294	0.7835	0.7625	-0.113
Mof_N 	N 	0.8282	0.7497	0.7136	-0.085
Mof_N 	N 	0.8638	0.7863	0.75	-0.107
Mof_C 	C 	0.8615	0.7652	0.7198	0.071
Mof_C 	C 	0.8961	0.7605	0.6962	0.122
Mof_C 	C 	0.929	0.7842	0.7025	-0.197
Mof_C 	C 	0.8978	0.7334	0.6726	-0.268
Mof_H 	H 	0.9299	0.8019	0.7213	0.095
Mof_C 	C 	0.9574	0.7783	0.6791	0.176
Mof_C 	C 	0.9263	0.7298	0.6518	0.243
Mof_H 	H 	0.8783	0.7166	0.6708	0.126
Mof_H 	H 	0.9784	0.7931	0.6813	-0.045
Mof_C 	C 	0.9569	0.7518	0.6522	-0.376
Mof_H 	H 	0.9261	0.7103	0.6348	-0.057
Mof_N 	N 	0.3078	0.2617	0.2407	-0.113
Mof_N 	N 	0.3294	0.2835	0.2625	-0.113
Mof_N 	N 	0.3282	0.2497	0.2136	-0.085
Mof_N 	N 	0.3638	0.2863	0.25	-0.107
Mof_C 	C 	0.3615	0.2652	0.2198	0.069
Mof_C 	C 	0.3961	0.2605	0.1962	0.128
Mof_C 	C 	0.429	0.2842	0.2025	-0.205
Mof_C 	C 	0.3978	0.2334	0.1726	-0.28
Mof_H 	H 	0.4299	0.3019	0.2213	0.096
Mof_C 	C 	0.4574	0.2783	0.1791	0.186
Mof_C 	C 	0.4263	0.2298	0.1518	0.256
Mof_H 	H 	0.3783	0.2166	0.1708	0.129
Mof_H 	H 	0.4784	0.2931	0.1813	-0.052
Mof_C 	C 	0.4569	0.2518	0.1522	-0.396
Mof_H 	H 	0.4261	0.2103	0.1348	-0.063
Mof_N 	N 	0.1922	0.2617	0.7593	-0.113
Mof_N 	N 	0.1706	0.2835	0.7375	-0.113
Mof_N 	N 	0.1718	0.2497	0.7864	-0.085
Mof_N 	N 	0.1362	0.2863	0.75	-0.108
Mof_C 	C 	0.1385	0.2652	0.7802	0.07
Mof_C 	C 	0.1039	0.2605	0.8038	0.124
Mof_C 	C 	0.071	0.2842	0.7975	-0.201
Mof_C 	C 	0.1022	0.2334	0.8274	-0.273
Mof_H 	H 	0.0701	0.3019	0.7787	0.094
Mof_C 	C 	0.0426	0.2783	0.8209	0.179
Mof_C 	C 	0.0737	0.2298	0.8482	0.247
Mof_H 	H 	0.1217	0.2166	0.8292	0.127
Mof_H 	H 	0.0216	0.2931	0.8187	-0.051
Mof_C 	C 	0.0431	0.2518	0.8478	-0.385
Mof_H 	H 	0.0739	0.2103	0.8652	-0.06
Mof_N 	N 	0.6922	0.7617	0.2593	-0.113
Mof_N 	N 	0.6706	0.7835	0.2375	-0.113
Mof_N 	N 	0.6718	0.7497	0.2864	-0.085
Mof_N 	N 	0.6362	0.7863	0.25	-0.107
Mof_C 	C 	0.6385	0.7652	0.2802	0.069
Mof_C 	C 	0.6039	0.7605	0.3038	0.128
Mof_C 	C 	0.571	0.7842	0.2975	-0.205
Mof_C 	C 	0.6022	0.7334	0.3274	-0.28
Mof_H 	H 	0.5701	0.8019	0.2787	0.096
Mof_C 	C 	0.5426	0.7783	0.3209	0.186
Mof_C 	C 	0.5737	0.7298	0.3482	0.257
Mof_H 	H 	0.6217	0.7166	0.3292	0.129
Mof_H 	H 	0.5216	0.7931	0.3187	-0.052
Mof_C 	C 	0.5431	0.7518	0.3478	-0.396
Mof_H 	H 	0.5739	0.7103	0.3652	-0.063
Mof_N 	N 	0.7383	0.2593	0.3078	-0.113
Mof_N 	N 	0.7165	0.2375	0.3294	-0.113
Mof_N 	N 	0.7503	0.2864	0.3282	-0.085
Mof_N 	N 	0.7137	0.25	0.3638	-0.107
Mof_C 	C 	0.7348	0.2802	0.3615	0.069
Mof_C 	C 	0.7395	0.3038	0.3961	0.128
Mof_C 	C 	0.7158	0.2975	0.429	-0.205
Mof_C 	C 	0.7666	0.3274	0.3978	-0.28
Mof_H 	H 	0.6981	0.2787	0.4299	0.096
Mof_C 	C 	0.7217	0.3209	0.4574	0.186
Mof_C 	C 	0.7702	0.3482	0.4263	0.257
Mof_H 	H 	0.7834	0.3292	0.3783	0.13
Mof_H 	H 	0.7069	0.3187	0.4784	-0.052
Mof_C 	C 	0.7482	0.3478	0.4569	-0.396
Mof_H 	H 	0.7897	0.3652	0.4261	-0.063
Mof_N 	N 	0.2383	0.7593	0.8078	-0.113
Mof_N 	N 	0.2165	0.7375	0.8294	-0.113
Mof_N 	N 	0.2503	0.7864	0.8282	-0.085
Mof_N 	N 	0.2137	0.75	0.8638	-0.107
Mof_C 	C 	0.2348	0.7802	0.8615	0.071
Mof_C 	C 	0.2395	0.8038	0.8961	0.122
Mof_C 	C 	0.2158	0.7975	0.929	-0.197
Mof_C 	C 	0.2666	0.8274	0.8978	-0.268
Mof_H 	H 	0.1981	0.7787	0.9299	0.094
Mof_C 	C 	0.2217	0.8209	0.9574	0.175
Mof_C 	C 	0.2702	0.8482	0.9263	0.243
Mof_H 	H 	0.2834	0.8292	0.8783	0.126
Mof_H 	H 	0.2069	0.8187	0.9784	-0.045
Mof_C 	C 	0.2482	0.8478	0.9569	-0.376
Mof_H 	H 	0.2897	0.8652	0.9261	-0.057
Mof_N 	N 	0.2383	0.2407	0.6922	-0.113
Mof_N 	N 	0.2165	0.2625	0.6706	-0.113
Mof_N 	N 	0.2503	0.2136	0.6718	-0.085
Mof_N 	N 	0.2137	0.25	0.6362	-0.107
Mof_C 	C 	0.2348	0.2198	0.6385	0.069
Mof_C 	C 	0.2395	0.1962	0.6039	0.128
Mof_C 	C 	0.2158	0.2025	0.571	-0.205
Mof_C 	C 	0.2666	0.1726	0.6022	-0.28
Mof_H 	H 	0.1981	0.2213	0.5701	0.096
Mof_C 	C 	0.2217	0.1791	0.5426	0.186
Mof_C 	C 	0.2702	0.1518	0.5737	0.256
Mof_H 	H 	0.2834	0.1708	0.6217	0.129
Mof_H 	H 	0.2069	0.1813	0.5216	-0.052
Mof_C 	C 	0.2482	0.1522	0.5431	-0.396
Mof_H 	H 	0.2897	0.1348	0.5739	-0.063
Mof_N 	N 	0.7383	0.7407	0.1922	-0.113
Mof_N 	N 	0.7165	0.7625	0.1706	-0.113
Mof_N 	N 	0.7503	0.7136	0.1718	-0.085
Mof_N 	N 	0.7137	0.75	0.1362	-0.108
Mof_C 	C 	0.7348	0.7198	0.1385	0.07
Mof_C 	C 	0.7395	0.6962	0.1039	0.124
Mof_C 	C 	0.7158	0.7025	0.071	-0.201
Mof_C 	C 	0.7666	0.6726	0.1022	-0.273
Mof_H 	H 	0.6981	0.7213	0.0701	0.094
Mof_C 	C 	0.7217	0.6791	0.0426	0.179
Mof_C 	C 	0.7702	0.6518	0.0737	0.247
Mof_H 	H 	0.7834	0.6708	0.1217	0.127
Mof_H 	H 	0.7069	0.6813	0.0216	-0.051
Mof_C 	C 	0.7482	0.6522	0.0431	-0.385
Mof_H 	H 	0.7897	0.6348	0.0739	-0.06
Mof_N 	N 	0.2617	0.7593	0.1922	-0.113
Mof_N 	N 	0.2835	0.7375	0.1706	-0.113
Mof_N 	N 	0.2497	0.7864	0.1718	-0.085
Mof_N 	N 	0.2863	0.75	0.1362	-0.108
Mof_C 	C 	0.2652	0.7802	0.1385	0.07
Mof_C 	C 	0.2605	0.8038	0.1039	0.124
Mof_C 	C 	0.2842	0.7975	0.071	-0.201
Mof_C 	C 	0.2334	0.8274	0.1022	-0.273
Mof_H 	H 	0.3019	0.7787	0.0701	0.094
Mof_C 	C 	0.2783	0.8209	0.0426	0.179
Mof_C 	C 	0.2298	0.8482	0.0737	0.247
Mof_H 	H 	0.2166	0.8292	0.1217	0.127
Mof_H 	H 	0.2931	0.8187	0.0216	-0.051
Mof_C 	C 	0.2518	0.8478	0.0431	-0.385
Mof_H 	H 	0.2103	0.8652	0.0739	-0.06
Mof_N 	N 	0.7617	0.2593	0.6922	-0.113
Mof_N 	N 	0.7835	0.2375	0.6706	-0.113
Mof_N 	N 	0.7497	0.2864	0.6718	-0.085
Mof_N 	N 	0.7863	0.25	0.6362	-0.107
Mof_C 	C 	0.7652	0.2802	0.6385	0.069
Mof_C 	C 	0.7605	0.3038	0.6039	0.128
Mof_C 	C 	0.7842	0.2975	0.571	-0.205
Mof_C 	C 	0.7334	0.3274	0.6022	-0.28
Mof_H 	H 	0.8019	0.2787	0.5701	0.096
Mof_C 	C 	0.7783	0.3209	0.5426	0.186
Mof_C 	C 	0.7298	0.3482	0.5737	0.257
Mof_H 	H 	0.7166	0.3292	0.6217	0.129
Mof_H 	H 	0.7931	0.3187	0.5216	-0.052
Mof_C 	C 	0.7518	0.3478	0.5431	-0.396
Mof_H 	H 	0.7103	0.3652	0.5739	-0.063
Mof_N 	N 	0.7617	0.7407	0.8078	-0.113
Mof_N 	N 	0.7835	0.7625	0.8294	-0.113
Mof_N 	N 	0.7497	0.7136	0.8282	-0.085
Mof_N 	N 	0.7863	0.75	0.8638	-0.107
Mof_C 	C 	0.7652	0.7198	0.8615	0.071
Mof_C 	C 	0.7605	0.6962	0.8961	0.122
Mof_C 	C 	0.7842	0.7025	0.929	-0.197
Mof_C 	C 	0.7334	0.6726	0.8978	-0.268
Mof_H 	H 	0.8019	0.7213	0.9299	0.095
Mof_C 	C 	0.7783	0.6791	0.9574	0.176
Mof_C 	C 	0.7298	0.6518	0.9263	0.243
Mof_H 	H 	0.7166	0.6708	0.8783	0.126
Mof_H 	H 	0.7931	0.6813	0.9784	-0.045
Mof_C 	C 	0.7518	0.6522	0.9569	-0.376
Mof_H 	H 	0.7103	0.6348	0.9261	-0.057
Mof_N 	N 	0.2617	0.2407	0.3078	-0.113
Mof_N 	N 	0.2835	0.2625	0.3294	-0.113
Mof_N 	N 	0.2497	0.2136	0.3282	-0.085
Mof_N 	N 	0.2863	0.25	0.3638	-0.107
Mof_C 	C 	0.2652	0.2198	0.3615	0.069
Mof_C 	C 	0.2605	0.1962	0.3961	0.128
Mof_C 	C 	0.2842	0.2025	0.429	-0.205
Mof_C 	C 	0.2334	0.1726	0.3978	-0.28
Mof_H 	H 	0.3019	0.2213	0.4299	0.096
Mof_C 	C 	0.2783	0.1791	0.4574	0.186
Mof_C 	C 	0.2298	0.1518	0.4263	0.256
Mof_H 	H 	0.2166	0.1708	0.3783	0.129
Mof_H 	H 	0.2931	0.1813	0.4784	-0.052
Mof_C 	C 	0.2518	0.1522	0.4569	-0.396
Mof_H 	H 	0.2103	0.1348	0.4261	-0.063
Mof_Mn	Mn	0.5	0.5	0.5	0.769
Mof_Mn	Mn	-0	0	-0	0.735
Mof_Mn	Mn	4.08377e-33	0.5	-0	0.746
Mof_Mn	Mn	0.5	0	0.5	0.757
Mof_Mn	Mn	0.5	0	-0	0.746
Mof_Mn	Mn	1.00422e-32	0.5	0.5	0.757
Mof_Mn	Mn	5.95847e-33	0	0.5	0.746
Mof_Mn	Mn	0.5	0.5	-0	0.757
Mof_Mn	Mn	0.25	0.75	0.75	0.769
Mof_Mn	Mn	0.25	0.25	0.25	0.769
Mof_Mn	Mn	0.75	0.75	0.75	0.769
Mof_Mn	Mn	0.75	0.75	0.25	0.769
Mof_Mn	Mn	0.75	0.25	0.75	0.769
Mof_Mn	Mn	0.75	0.25	0.25	0.769
Mof_Mn	Mn	0.25	0.25	0.75	0.769
Mof_Mn	Mn	0.25	0.75	0.25	0.769
Mof_Mn	Mn	0.56378	0.56378	0.56378	0.56
Mof_Mn	Mn	0.06378	0.06378	0.06378	0.553
Mof_Mn	Mn	0.93622	0.43622	0.06378	0.561
Mof_Mn	Mn	0.43622	0.93622	0.56378	0.564
Mof_Mn	Mn	0.43622	0.06378	0.93622	0.561
Mof_Mn	Mn	0.93622	0.56378	0.43622	0.564
Mof_Mn	Mn	0.06378	0.93622	0.43622	0.561
Mof_Mn	Mn	0.56378	0.43622	0.93622	0.564
Mof_Mn	Mn	0.31378	0.81378	0.68622	0.561
Mof_Mn	Mn	0.81378	0.31378	0.18622	0.56
Mof_Mn	Mn	0.18622	0.18622	0.18622	0.557
Mof_Mn	Mn	0.68622	0.68622	0.68622	0.56
Mof_Mn	Mn	0.81378	0.68622	0.31378	0.561
Mof_Mn	Mn	0.31378	0.18622	0.81378	0.56
Mof_Mn	Mn	0.68622	0.31378	0.81378	0.561
Mof_Mn	Mn	0.18622	0.81378	0.31378	0.56
Mof_Mn	Mn	0.43622	0.43622	0.43622	0.56
Mof_Mn	Mn	0.93622	0.93622	0.93622	0.571
Mof_Mn	Mn	0.06378	0.56378	0.93622	0.561
Mof_Mn	Mn	0.56378	0.06378	0.43622	0.558
Mof_Mn	Mn	0.56378	0.93622	0.06378	0.561
Mof_Mn	Mn	0.06378	0.43622	0.56378	0.558
Mof_Mn	Mn	0.93622	0.06378	0.56378	0.561
Mof_Mn	Mn	0.43622	0.56378	0.06378	0.558
Mof_Mn	Mn	0.68622	0.18622	0.31378	0.559
Mof_Mn	Mn	0.18622	0.68622	0.81378	0.56
Mof_Mn	Mn	0.81378	0.81378	0.81378	0.563
Mof_Mn	Mn	0.31378	0.31378	0.31378	0.56
Mof_Mn	Mn	0.18622	0.31378	0.68622	0.559
Mof_Mn	Mn	0.68622	0.81378	0.18622	0.56
Mof_Mn	Mn	0.31378	0.68622	0.18622	0.559
Mof_Mn	Mn	0.81378	0.18622	0.68622	0.56
Mof_Si	Si	0.75	0.375	0.5	0.939
Mof_Si	Si	0.75	0.625	-0	0.904
Mof_Si	Si	0.25	0.875	-0	0.904
Mof_Si	Si	0.25	0.125	0.5	0.938
Mof_Si	Si	0.5	0.75	0.375	0.939
Mof_Si	Si	1.05109e-32	0.75	0.625	0.904
Mof_Si	Si	1.96158e-32	0.25	0.875	0.904
Mof_Si	Si	0.5	0.25	0.125	0.938
Mof_Si	Si	0.375	0.5	0.75	0.939
Mof_Si	Si	0.625	0	0.75	0.904
Mof_Si	Si	0.875	0	0.25	0.904
Mof_Si	Si	0.125	0.5	0.25	0.938
Mof_Si	Si	0.125	0	0.75	0.904
Mof_Si	Si	0.375	0	0.25	0.904
Mof_Si	Si	0.625	0.5	0.25	0.939
Mof_Si	Si	0.875	0.5	0.75	0.939
Mof_Si	Si	0.5	0.75	0.875	0.939
Mof_Si	Si	0.5	0.25	0.625	0.939
Mof_Si	Si	5.48979e-33	0.25	0.375	0.904
Mof_Si	Si	4.55244e-33	0.75	0.125	0.904
Mof_Si	Si	0.25	0.625	0.5	0.939
Mof_Si	Si	0.75	0.875	0.5	0.939
Mof_Si	Si	0.75	0.125	-0	0.904
Mof_Si	Si	0.25	0.375	-0	0.904
_end
